
     RDKit          3D

 67 70  0  0  0  0  0  0  0  0999 V2000
    3.1000   19.4580   38.6490 C   0  0  2  0  0  0  0  0  0  0  0  0
    2.9670   16.5460   38.4680 C   0  0  0  0  0  0  0  0  0  0  0  0
    3.3080   24.4390   30.2700 C   0  0  0  0  0  0  0  0  0  0  0  0
    2.4040   14.1480   40.9230 C   0  0  0  0  0  0  0  0  0  0  0  0
    2.8780   20.2820   37.4380 C   0  0  0  0  0  0  0  0  0  0  0  0
    2.2550   19.5490   39.8700 C   0  0  0  0  0  0  0  0  0  0  0  0
    2.1930   16.4420   39.8650 N   0  0  0  0  0  0  0  0  0  0  0  0
    4.7500   24.4480   28.1910 C   0  0  0  0  0  0  0  0  0  0  0  0
    1.4800   16.5560   42.0440 O   0  0  0  0  0  0  0  0  0  0  0  0
    2.4670   25.8000   32.2600 C   0  0  0  0  0  0  0  0  0  0  0  0
    3.2800   24.5980   31.6920 C   0  0  1  0  0  0  0  0  0  0  0  0
    1.5890   15.0200   39.9320 C   0  0  0  0  0  0  0  0  0  0  0  0
    2.2550   25.1900   29.4490 C   0  0  0  0  0  0  0  0  0  0  0  0
    2.0310   25.1790   33.6060 C   0  0  0  0  0  0  0  0  0  0  0  0
    2.6890   22.8030   34.5980 C   0  0  0  0  0  0  0  0  0  0  0  0
    2.9290   21.8830   35.4420 C   0  0  0  0  0  0  0  0  0  0  0  0
   -0.7370   20.6210   43.3330 S   0  0  0  0  0  0  0  0  0  0  0  0
    0.6600   19.1780   41.9110 C   0  0  0  0  0  0  0  0  0  0  0  0
    4.2290   17.3380   38.0180 C   0  0  0  0  0  0  0  0  0  0  0  0
    0.1210   18.3750   42.8550 N   0  0  0  0  0  0  0  0  0  0  0  0
    2.3100   24.8350   28.0640 C   0  0  0  0  0  0  0  0  0  0  0  0
    0.3040   20.5690   42.0100 C   0  0  0  0  0  0  0  0  0  0  0  0
   -1.4290   18.4690   44.8980 N   0  0  0  0  0  0  0  0  0  0  0  0
    4.4330   18.7410   38.5940 C   0  0  0  0  0  0  0  0  0  0  0  0
    1.8040   17.2520   40.9600 C   0  0  0  0  0  0  0  0  0  0  0  0
    3.5310   23.5520   32.6260 N   0  0  0  0  0  0  0  0  0  0  0  0
    2.8700   20.9180   36.5310 C   0  0  0  0  0  0  0  0  0  0  0  0
    4.6230   24.7740   29.6460 C   0  0  0  0  0  0  0  0  0  0  0  0
    1.6680   18.7030   40.8240 C   0  0  0  0  0  0  0  0  0  0  0  0
   -0.6890   18.9860   43.7590 C   0  0  0  0  0  0  0  0  0  0  0  0
    2.7460   23.8320   34.0640 C   0  0  1  0  0  0  0  0  0  0  0  0
    3.5890   24.9340   27.3480 C   0  0  0  0  0  0  0  0  0  0  0  0
    2.2866   18.7362   38.8144 H   0  0  0  0  0  0  0  0  0  0  0  0
    3.2277   15.5014   38.2425 H   0  0  0  0  0  0  0  0  0  0  0  0
    2.2343   17.2027   37.9762 H   0  0  0  0  0  0  0  0  0  0  0  0
    3.0820   23.3637   30.2180 H   0  0  0  0  0  0  0  0  0  0  0  0
    2.1443   14.4259   41.9551 H   0  0  0  0  0  0  0  0  0  0  0  0
    2.1666   13.0866   40.7583 H   0  0  0  0  0  0  0  0  0  0  0  0
    3.4790   14.3132   40.7583 H   0  0  0  0  0  0  0  0  0  0  0  0
    2.0179   20.5997   40.0933 H   0  0  0  0  0  0  0  0  0  0  0  0
    5.6718   24.9129   27.8114 H   0  0  0  0  0  0  0  0  0  0  0  0
    4.7651   23.3511   28.1104 H   0  0  0  0  0  0  0  0  0  0  0  0
    1.6060   26.0534   31.6241 H   0  0  0  0  0  0  0  0  0  0  0  0
    3.0149   26.7511   32.3321 H   0  0  0  0  0  0  0  0  0  0  0  0
    4.3493   24.8408   31.6051 H   0  0  0  0  0  0  0  0  0  0  0  0
    0.5453   15.0825   40.2739 H   0  0  0  0  0  0  0  0  0  0  0  0
    1.6252   14.5630   38.9321 H   0  0  0  0  0  0  0  0  0  0  0  0
    1.2567   24.9446   29.8403 H   0  0  0  0  0  0  0  0  0  0  0  0
    2.4588   26.2676   29.5346 H   0  0  0  0  0  0  0  0  0  0  0  0
    2.2124   25.9302   34.3888 H   0  0  0  0  0  0  0  0  0  0  0  0
    0.9781   24.8984   33.4554 H   0  0  0  0  0  0  0  0  0  0  0  0
    5.1087   16.7385   38.2948 H   0  0  0  0  0  0  0  0  0  0  0  0
    4.0852   17.4992   36.9394 H   0  0  0  0  0  0  0  0  0  0  0  0
    1.9791   23.7888   27.9872 H   0  0  0  0  0  0  0  0  0  0  0  0
    1.6780   25.5911   27.5753 H   0  0  0  0  0  0  0  0  0  0  0  0
    0.6341   21.4020   41.3719 H   0  0  0  0  0  0  0  0  0  0  0  0
   -1.3797   17.4673   45.1325 H   0  0  0  0  0  0  0  0  0  0  0  0
   -2.0028   19.1043   45.4707 H   0  0  0  0  0  0  0  0  0  0  0  0
    4.8513   18.6645   39.6085 H   0  0  0  0  0  0  0  0  0  0  0  0
    5.1285   19.3044   37.9545 H   0  0  0  0  0  0  0  0  0  0  0  0
    3.1997   22.6608   32.2299 H   0  0  0  0  0  0  0  0  0  0  0  0
    4.5439   23.5129   32.8087 H   0  0  0  0  0  0  0  0  0  0  0  0
    5.4049   24.2203   30.1864 H   0  0  0  0  0  0  0  0  0  0  0  0
    4.7210   25.8672   29.7191 H   0  0  0  0  0  0  0  0  0  0  0  0
    2.7853   24.1496   35.1164 H   0  0  0  0  0  0  0  0  0  0  0  0
    3.5330   24.3234   26.4348 H   0  0  0  0  0  0  0  0  0  0  0  0
    3.7631   25.9933   27.1081 H   0  0  0  0  0  0  0  0  0  0  0  0
  1  5  1  0
  1  6  1  0
  2  7  1  0
  6 29  2  0
  7 12  1  0
  7 25  1  0
  8 28  1  0
 10 14  1  0
 11  3  1  0
 11 10  1  0
 11 26  1  0
 12  4  1  0
 13  3  1  0
 14 31  1  0
 15 16  3  0
 16 27  1  0
 17 30  1  0
 18 22  2  0
 18 20  1  0
 19  2  1  0
 19 24  1  0
 20 30  2  0
 21 13  1  0
 22 17  1  0
 24  1  1  0
 25  9  2  0
 26 31  1  0
 27  5  3  0
 28  3  1  0
 29 25  1  0
 29 18  1  0
 30 23  1  0
 31 15  1  0
 32 21  1  0
 32  8  1  0
  1 33  1  6
  2 34  1  0
  2 35  1  0
  3 36  1  0
  4 37  1  0
  4 38  1  0
  4 39  1  0
  6 40  1  0
  8 41  1  0
  8 42  1  0
 10 43  1  0
 10 44  1  0
 11 45  1  6
 12 46  1  0
 12 47  1  0
 13 48  1  0
 13 49  1  0
 14 50  1  0
 14 51  1  0
 19 52  1  0
 19 53  1  0
 21 54  1  0
 21 55  1  0
 22 56  1  0
 23 57  1  0
 23 58  1  0
 24 59  1  0
 24 60  1  0
 26 61  1  0
 26 62  1  0
 28 63  1  0
 28 64  1  0
 31 65  1  1
 32 66  1  0
 32 67  1  0
M  CHG  1  26   1
M  END
>  <mol_id>  (1) 
2026-09-18-3war-s0-n100-0001

>  <rmsd_to_ref>  (1) 


$$$$

     RDKit          3D

 61 62  0  0  0  0  0  0  0  0999 V2000
    5.3120   22.9220   33.3070 O   0  0  0  0  0  0  0  0  0  0  0  0
    3.2720   23.2860   32.5800 C   0  0  0  0  0  0  0  0  0  0  0  0
    0.4460   26.1280   30.7810 C   0  0  0  0  0  0  0  0  0  0  0  0
    3.5360   21.8440   34.6260 C   0  0  1  0  0  0  0  0  0  0  0  0
    5.2160   23.4820   30.3360 C   0  0  0  0  0  0  0  0  0  0  0  0
    1.6700   25.4330   30.5810 C   0  0  2  0  0  0  0  0  0  0  0  0
    2.6000   16.7980   38.4890 C   0  0  0  0  0  0  0  0  0  0  0  0
    1.3470   25.7040   31.5030 C   0  0  0  0  0  0  0  0  0  0  0  0
    1.6390   21.2190   39.1060 C   0  0  0  0  0  0  0  0  0  0  0  0
    4.0610   22.3090   33.3490 C   0  0  2  0  0  0  0  0  0  0  0  0
    4.3400   23.5150   28.9550 S   0  0  0  0  0  0  0  0  0  0  0  0
    2.4640   18.9490   39.0430 C   0  0  1  0  0  0  0  0  0  0  0  0
    1.5160   25.0170   29.2000 N   0  0  0  0  0  0  0  0  0  0  0  0
    2.2730   20.1660   41.0500 F   0  0  0  0  0  0  0  0  0  0  0  0
    0.1290   15.2480   40.1750 O   0  0  0  0  0  0  0  0  0  0  0  0
    2.2880   14.3600   41.1200 O   0  0  0  0  0  0  0  0  0  0  0  0
    4.2080   23.9950   31.4830 O   0  0  0  0  0  0  0  0  0  0  0  0
    2.1730   15.4850   38.7370 N   0  0  0  0  0  0  0  0  0  0  0  0
    1.6140   15.4490   40.3040 S   0  0  0  0  0  6  0  0  0  0  0  0
    2.9150   19.0080   37.7080 C   0  0  0  0  0  0  0  0  0  0  0  0
    0.5160   25.7370   28.6030 C   0  0  0  0  0  0  0  0  0  0  0  0
    3.2040   24.6860   30.6940 C   0  0  1  0  0  0  0  0  0  0  0  0
    2.1260   22.2760   34.9440 C   0  0  0  0  0  0  0  0  0  0  0  0
    1.4890   21.9460   38.2400 F   0  0  0  0  0  0  0  0  0  0  0  0
    3.3030   17.5260   37.1120 S   0  0  0  0  0  0  0  0  0  0  0  0
    2.6250   23.6800   29.4170 C   0  0  2  0  0  0  0  0  0  0  0  0
    2.5170   17.7440   39.5690 N   0  0  0  0  0  0  0  0  0  0  0  0
    2.0020   17.0960   40.8280 C   0  0  0  0  0  0  0  0  0  0  0  0
    2.0210   20.1780   39.7390 C   0  0  1  0  0  0  0  0  0  0  0  0
    3.9780   20.7010   35.0500 O   0  0  0  0  0  0  0  0  0  0  0  0
    5.6335   23.0795   34.2300 H   0  0  0  0  0  0  0  0  0  0  0  0
    2.4429   22.7694   32.0743 H   0  0  0  0  0  0  0  0  0  0  0  0
    2.8702   24.0485   33.2635 H   0  0  0  0  0  0  0  0  0  0  0  0
   -0.3734   26.5136   31.4054 H   0  0  0  0  0  0  0  0  0  0  0  0
    0.8352   26.9374   30.1460 H   0  0  0  0  0  0  0  0  0  0  0  0
    0.0704   25.3121   30.1460 H   0  0  0  0  0  0  0  0  0  0  0  0
    4.0544   22.4567   35.3783 H   0  0  0  0  0  0  0  0  0  0  0  0
    4.5374   23.5076   31.2014 H   0  0  0  0  0  0  0  0  0  0  0  0
    5.8160   22.5606   30.3677 H   0  0  0  0  0  0  0  0  0  0  0  0
    5.8837   24.3556   30.3677 H   0  0  0  0  0  0  0  0  0  0  0  0
    0.8794   26.1968   30.5418 H   0  0  0  0  0  0  0  0  0  0  0  0
    1.9481   26.4558   32.0354 H   0  0  0  0  0  0  0  0  0  0  0  0
    1.2325   25.0467   32.3776 H   0  0  0  0  0  0  0  0  0  0  0  0
    0.5730   21.1220   39.3595 H   0  0  0  0  0  0  0  0  0  0  0  0
    2.6822   21.5654   39.1490 H   0  0  0  0  0  0  0  0  0  0  0  0
    4.0592   21.2924   32.9288 H   0  0  0  0  0  0  0  0  0  0  0  0
    1.4304   18.7612   38.7168 H   0  0  0  0  0  0  0  0  0  0  0  0
    2.1191   19.4421   37.0850 H   0  0  0  0  0  0  0  0  0  0  0  0
    3.8246   19.6263   37.6881 H   0  0  0  0  0  0  0  0  0  0  0  0
   -0.1187   26.1940   29.3765 H   0  0  0  0  0  0  0  0  0  0  0  0
    0.9565   26.5266   27.9765 H   0  0  0  0  0  0  0  0  0  0  0  0
   -0.0931   25.0688   27.9765 H   0  0  0  0  0  0  0  0  0  0  0  0
    3.8919   25.4768   31.0279 H   0  0  0  0  0  0  0  0  0  0  0  0
    1.9923   22.3170   36.0351 H   0  0  0  0  0  0  0  0  0  0  0  0
    1.9419   23.2718   34.5144 H   0  0  0  0  0  0  0  0  0  0  0  0
    1.4157   21.5543   34.5144 H   0  0  0  0  0  0  0  0  0  0  0  0
    2.1262   22.7371   29.1486 H   0  0  0  0  0  0  0  0  0  0  0  0
    1.1053   17.6134   41.1999 H   0  0  0  0  0  0  0  0  0  0  0  0
    2.7250   17.1266   41.6564 H   0  0  0  0  0  0  0  0  0  0  0  0
    0.9336   20.3160   39.6467 H   0  0  0  0  0  0  0  0  0  0  0  0
    3.9804   20.6948   36.0400 H   0  0  0  0  0  0  0  0  0  0  0  0
  2 10  1  0
  3  8  1  0
  4 23  1  0
  4 30  1  0
  6 22  1  0
  6  8  1  0
  7 18  2  0
  7 27  1  0
  9 29  1  0
 10  1  1  0
 10  4  1  0
 11  5  1  0
 12 27  1  0
 12 29  1  0
 13 26  1  0
 13  6  1  0
 15 19  2  0
 17  2  1  0
 18 19  1  0
 19 28  1  0
 19 16  2  0
 20 12  1  0
 21 13  1  0
 22 17  1  0
 24  9  1  0
 25 20  1  0
 25  7  1  0
 26 11  1  0
 26 22  1  0
 27 28  1  0
 29 14  1  0
  1 31  1  0
  2 32  1  0
  2 33  1  0
  3 34  1  0
  3 35  1  0
  3 36  1  0
  4 37  1  1
  5 38  1  0
  5 39  1  0
  5 40  1  0
  6 41  1  6
  8 42  1  0
  8 43  1  0
  9 44  1  0
  9 45  1  0
 10 46  1  6
 12 47  1  6
 20 48  1  0
 20 49  1  0
 21 50  1  0
 21 51  1  0
 21 52  1  0
 22 53  1  6
 23 54  1  0
 23 55  1  0
 23 56  1  0
 26 57  1  1
 28 58  1  0
 28 59  1  0
 29 60  1  1
 30 61  1  0
M  END
>  <mol_id>  (2) 
2026-09-18-3war-s0-n100-0002

>  <rmsd_to_ref>  (2) 


$$$$

     RDKit          3D

 28 29  0  0  0  0  0  0  0  0999 V2000
    3.7664   23.4902   33.8085 C   0  0  0  0  0  0  0  0  0  0  0  0
    3.5449   24.7114   31.2575 C   0  0  0  0  0  0  0  0  0  0  0  0
    2.8365   21.4906   38.8714 C   0  0  0  0  0  0  0  0  0  0  0  0
    3.0596   19.3314   38.2621 N   0  0  0  0  0  0  0  0  0  0  0  0
    3.7165   21.6835   35.4863 C   0  0  0  0  0  0  0  0  0  0  0  0
    2.4253   17.9985   40.6117 Cl  0  0  0  0  0  0  0  0  0  0  0  0
    2.6893   19.4008   39.6007 C   0  0  0  0  0  0  0  0  0  0  0  0
    4.2700   22.7589   32.7387 C   0  0  1  0  0  0  0  0  0  0  0  0
    2.5489   20.6713   39.9753 C   0  0  0  0  0  0  0  0  0  0  0  0
    2.7187   25.8330   31.4592 C   0  0  0  0  0  0  0  0  0  0  0  0
    3.4946   21.0556   36.4023 C   0  0  0  0  0  0  0  0  0  0  0  0
    4.4776   23.8809   31.5840 N   0  0  0  0  0  0  0  0  0  0  0  0
    2.2775   21.1548   41.5838 Cl  0  0  0  0  0  0  0  0  0  0  0  0
    3.0677   20.6893   37.8005 C   0  0  0  0  0  0  0  0  0  0  0  0
    4.3307   21.9089   34.1654 C   0  0  1  0  0  0  0  0  0  0  0  0
    2.6882   23.7021   33.8573 H   0  0  0  0  0  0  0  0  0  0  0  0
    3.9958   24.4849   34.2186 H   0  0  0  0  0  0  0  0  0  0  0  0
    2.7450   23.9723   31.1025 H   0  0  0  0  0  0  0  0  0  0  0  0
    4.3318   25.4009   30.9177 H   0  0  0  0  0  0  0  0  0  0  0  0
    2.8688   22.5901   38.8742 H   0  0  0  0  0  0  0  0  0  0  0  0
    3.1958   22.6303   35.6921 H   0  0  0  0  0  0  0  0  0  0  0  0
    4.4553   22.0975   31.8795 H   0  0  0  0  0  0  0  0  0  0  0  0
    2.7007   26.0874   32.5293 H   0  0  0  0  0  0  0  0  0  0  0  0
    3.1117   26.6857   30.8861 H   0  0  0  0  0  0  0  0  0  0  0  0
    1.6981   25.6024   31.1200 H   0  0  0  0  0  0  0  0  0  0  0  0
    4.7195   23.3677   30.7244 H   0  0  0  0  0  0  0  0  0  0  0  0
    5.1785   24.5026   32.0122 H   0  0  0  0  0  0  0  0  0  0  0  0
    4.9006   20.9763   34.2895 H   0  0  0  0  0  0  0  0  0  0  0  0
  1 15  1  0
  2 10  1  0
  2 12  1  0
  3  9  2  0
  4  7  2  0
  5 11  2  0
  7  9  1  0
  7  6  1  0
  8 12  1  0
  8  1  1  0
  8 15  1  0
  9 13  1  0
 11 14  2  0
 14  4  1  0
 14  3  1  0
 15  5  1  0
  1 16  1  0
  1 17  1  0
  2 18  1  0
  2 19  1  0
  3 20  1  0
  5 21  1  0
  8 22  1  6
 10 23  1  0
 10 24  1  0
 10 25  1  0
 12 26  1  0
 12 27  1  0
 15 28  1  1
M  CHG  1  12   1
M  END
>  <mol_id>  (3) 
2026-09-18-3war-s0-n100-0003

>  <rmsd_to_ref>  (3) 


$$$$

     RDKit          3D

 76 76  0  0  0  0  0  0  0  0999 V2000
    2.3231   22.4279   34.8110 C   0  0  0  0  0  0  0  0  0  0  0  0
    2.9840   18.2442   38.4716 C   0  0  0  0  0  0  0  0  0  0  0  0
    2.9036   18.6695   40.8563 F   0  0  0  0  0  0  0  0  0  0  0  0
    3.9757   12.4618   39.2848 S   0  0  0  0  0  0  0  0  0  0  0  0
    2.3899   16.0704   38.9358 N   0  0  0  0  0  0  0  0  0  0  0  0
    3.2199   16.9198   38.6217 O   0  0  0  0  0  0  0  0  0  0  0  0
    0.5269   29.6126   32.6713 C   0  0  0  0  0  0  0  0  0  0  0  0
    1.5774   26.8281   33.3932 C   0  0  1  0  0  0  0  0  0  0  0  0
    3.4421   29.5304   32.2646 C   0  0  0  0  0  0  0  0  0  0  0  0
    2.3827   14.7218   38.7020 C   0  0  0  0  0  0  0  0  0  0  0  0
    2.1117   20.2748   39.5703 C   0  0  0  0  0  0  0  0  0  0  0  0
    1.1855   27.1986   32.0337 C   0  0  2  0  0  0  0  0  0  0  0  0
    1.3020   14.1640   35.4504 N   0  0  0  0  0  0  0  0  0  0  0  0
    1.4753   27.2213   35.6044 O   0  0  0  0  0  0  0  0  0  0  0  0
    2.5021   13.7513   36.0498 C   0  0  2  0  0  0  0  0  0  0  0  0
    1.2162   25.6036   33.9258 C   0  0  1  0  0  0  0  0  0  0  0  0
    3.7696   26.4679   34.8302 O   0  0  0  0  0  0  0  0  0  0  0  0
    1.1143   30.4512   32.8981 O   0  0  0  0  0  0  0  0  0  0  0  0
    1.7659   24.9585   34.8264 C   0  0  0  0  0  0  0  0  0  0  0  0
    2.3809   26.7447   34.7742 S   0  0  0  0  0  6  0  0  0  0  0  0
    3.0233   14.5777   37.1904 C   0  0  0  0  0  0  0  0  0  0  0  0
    3.1338   19.2117   39.6691 C   0  0  2  0  0  0  0  0  0  0  0  0
    2.0581   20.9767   38.2004 C   0  0  0  0  0  0  0  0  0  0  0  0
    3.2476   12.6419   35.4011 C   0  0  0  0  0  0  0  0  0  0  0  0
    2.8762   20.2922   37.1999 C   0  0  0  0  0  0  0  0  0  0  0  0
    3.8595   27.5637   31.1886 C   0  0  0  0  0  0  0  0  0  0  0  0
    2.8955   21.6501   34.1417 O   0  0  0  0  0  0  0  0  0  0  0  0
    2.9822   28.3086   31.8798 C   0  0  0  0  0  0  0  0  0  0  0  0
    2.9141   18.8667   37.2325 C   0  0  0  0  0  0  0  0  0  0  0  0
    3.0531   13.7978   39.6835 C   0  0  0  0  0  0  0  0  0  0  0  0
    1.2772   22.1269   35.6162 N   0  0  0  0  0  0  0  0  0  0  0  0
    3.1879   30.7855   31.7123 O   0  0  0  0  0  0  0  0  0  0  0  0
    2.7134   23.8869   34.9439 C   0  0  0  0  0  0  0  0  0  0  0  0
    1.5779   28.0858   32.3919 C   0  0  1  0  0  0  0  0  0  0  0  0
    0.6401   26.7868   30.6085 C   0  0  0  0  0  0  0  0  0  0  0  0
    4.5129   11.9216   40.4234 H   0  0  0  0  0  0  0  0  0  0  0  0
   -0.1621   29.4231   33.5076 H   0  0  0  0  0  0  0  0  0  0  0  0
   -0.0270   29.8223   31.7443 H   0  0  0  0  0  0  0  0  0  0  0  0
    1.6167   27.8245   32.9289 H   0  0  0  0  0  0  0  0  0  0  0  0
    3.1197   29.6244   33.3121 H   0  0  0  0  0  0  0  0  0  0  0  0
    4.4794   29.4187   31.9160 H   0  0  0  0  0  0  0  0  0  0  0  0
    1.1269   19.8252   39.7658 H   0  0  0  0  0  0  0  0  0  0  0  0
    2.3845   21.0438   40.3079 H   0  0  0  0  0  0  0  0  0  0  0  0
    2.2158   27.0252   31.6894 H   0  0  0  0  0  0  0  0  0  0  0  0
    0.6254   14.4257   36.1815 H   0  0  0  0  0  0  0  0  0  0  0  0
    1.4830   14.9763   34.8434 H   0  0  0  0  0  0  0  0  0  0  0  0
    0.9170   13.3929   34.8864 H   0  0  0  0  0  0  0  0  0  0  0  0
    2.5506   13.0004   36.8520 H   0  0  0  0  0  0  0  0  0  0  0  0
    0.4184   25.0173   33.4464 H   0  0  0  0  0  0  0  0  0  0  0  0
    1.2881   30.4786   33.8723 H   0  0  0  0  0  0  0  0  0  0  0  0
    2.2468   25.7535   35.4152 H   0  0  0  0  0  0  0  0  0  0  0  0
    0.8990   24.2977   34.9740 H   0  0  0  0  0  0  0  0  0  0  0  0
    4.0489   14.2152   37.3537 H   0  0  0  0  0  0  0  0  0  0  0  0
    2.7752   15.5773   36.8040 H   0  0  0  0  0  0  0  0  0  0  0  0
    4.1775   19.5538   39.6097 H   0  0  0  0  0  0  0  0  0  0  0  0
    1.0148   20.9965   37.8525 H   0  0  0  0  0  0  0  0  0  0  0  0
    2.4561   21.9946   38.3252 H   0  0  0  0  0  0  0  0  0  0  0  0
    3.7786   12.0591   36.1681 H   0  0  0  0  0  0  0  0  0  0  0  0
    2.5417   11.9885   34.8675 H   0  0  0  0  0  0  0  0  0  0  0  0
    3.9744   13.0567   34.6872 H   0  0  0  0  0  0  0  0  0  0  0  0
    3.9091   20.6506   37.3202 H   0  0  0  0  0  0  0  0  0  0  0  0
    2.3980   20.5341   36.2392 H   0  0  0  0  0  0  0  0  0  0  0  0
    4.8482   27.9731   30.9341 H   0  0  0  0  0  0  0  0  0  0  0  0
    3.5896   26.5439   30.8767 H   0  0  0  0  0  0  0  0  0  0  0  0
    2.8888   18.2780   36.3036 H   0  0  0  0  0  0  0  0  0  0  0  0
    2.2430   13.4123   40.3200 H   0  0  0  0  0  0  0  0  0  0  0  0
    3.8371   14.4647   40.0716 H   0  0  0  0  0  0  0  0  0  0  0  0
    0.8997   21.1688   35.6335 H   0  0  0  0  0  0  0  0  0  0  0  0
    0.8591   22.8560   36.2115 H   0  0  0  0  0  0  0  0  0  0  0  0
    3.1926   31.4685   32.4288 H   0  0  0  0  0  0  0  0  0  0  0  0
    3.1679   23.9906   35.9402 H   0  0  0  0  0  0  0  0  0  0  0  0
    3.3294   24.0351   34.0447 H   0  0  0  0  0  0  0  0  0  0  0  0
    1.5996   27.8766   33.4716 H   0  0  0  0  0  0  0  0  0  0  0  0
   -0.0141   25.9079   30.7062 H   0  0  0  0  0  0  0  0  0  0  0  0
    0.0689   27.6230   30.1789 H   0  0  0  0  0  0  0  0  0  0  0  0
    1.4857   26.5430   29.9486 H   0  0  0  0  0  0  0  0  0  0  0  0
  1 33  1  0
  1 31  1  0
  2  6  1  0
  2 22  1  0
  4 30  1  0
  6  5  1  0
  7 18  1  0
  8 12  1  0
  8 16  1  0
  8 20  1  0
 10  5  2  3
 10 30  1  0
 11 22  1  0
 12 35  1  0
 12 34  1  0
 13 15  1  0
 15 24  1  0
 15 21  1  0
 16 20  1  0
 16 19  1  0
 19 33  1  0
 20 17  2  0
 20 14  2  0
 21 10  1  0
 22  3  1  0
 23 11  1  0
 25 29  1  0
 25 23  1  0
 26 28  2  3
 27  1  2  0
 28 34  1  0
 28  9  1  0
 29  2  2  0
 32  9  1  0
 34  7  1  0
  4 36  1  0
  7 37  1  0
  7 38  1  0
  8 39  1  1
  9 40  1  0
  9 41  1  0
 11 42  1  0
 11 43  1  0
 12 44  1  1
 13 45  1  0
 13 46  1  0
 13 47  1  0
 15 48  1  1
 16 49  1  1
 18 50  1  0
 19 51  1  0
 19 52  1  0
 21 53  1  0
 21 54  1  0
 22 55  1  1
 23 56  1  0
 23 57  1  0
 24 58  1  0
 24 59  1  0
 24 60  1  0
 25 61  1  0
 25 62  1  0
 26 63  1  0
 26 64  1  0
 29 65  1  0
 30 66  1  0
 30 67  1  0
 31 68  1  0
 31 69  1  0
 32 70  1  0
 33 71  1  0
 33 72  1  0
 34 73  1  1
 35 74  1  0
 35 75  1  0
 35 76  1  0
M  CHG  1  13   1
M  END
>  <mol_id>  (4) 
2026-09-18-3war-s0-n100-0004

>  <rmsd_to_ref>  (4) 


$$$$

     RDKit          3D

 34 37  0  0  0  0  0  0  0  0999 V2000
    2.4490   21.3980   37.5690 C   0  0  1  0  0  0  0  0  0  0  0  0
    2.0500   19.5250   39.3860 C   0  0  0  0  0  0  0  0  0  0  0  0
    2.2740   24.2090   32.5460 C   0  0  0  0  0  0  0  0  0  0  0  0
    2.0680   23.4020   36.2680 C   0  0  2  0  0  0  0  0  0  0  0  0
    2.7520   23.7730   34.9070 C   0  0  0  0  0  0  0  0  0  0  0  0
    2.3280   18.2420   39.8780 C   0  0  0  0  0  0  0  0  0  0  0  0
    2.3700   19.8980   37.9290 C   0  0  0  0  0  0  0  0  0  0  0  0
    3.7450   23.8490   32.7340 C   0  0  0  0  0  0  0  0  0  0  0  0
    3.0380   21.8690   36.1020 C   0  0  2  0  0  0  0  0  0  0  0  0
    1.0490   18.8490   41.9380 C   0  0  0  0  0  0  0  0  0  0  0  0
    0.9400   20.2440   41.4880 C   0  0  0  0  0  0  0  0  0  0  0  0
    4.1270   23.4850   34.1810 C   0  0  0  0  0  0  0  0  0  0  0  0
    1.5420   20.4870   40.2400 C   0  0  0  0  0  0  0  0  0  0  0  0
    1.8590   24.6290   33.9340 C   0  0  0  0  0  0  0  0  0  0  0  0
    2.5620   19.0480   37.1070 O   0  0  0  0  0  0  0  0  0  0  0  0
    1.7100   22.0020   36.2920 N   0  0  0  0  0  0  0  0  0  0  0  0
    1.7690   17.9220   41.1820 C   0  0  0  0  0  0  0  0  0  0  0  0
    2.5648   21.6233   38.6394 H   0  0  0  0  0  0  0  0  0  0  0  0
    2.1556   25.0348   31.8290 H   0  0  0  0  0  0  0  0  0  0  0  0
    1.6700   23.3846   32.1390 H   0  0  0  0  0  0  0  0  0  0  0  0
    1.6656   24.2802   36.7941 H   0  0  0  0  0  0  0  0  0  0  0  0
    3.1846   24.6724   35.3696 H   0  0  0  0  0  0  0  0  0  0  0  0
    2.9335   17.5196   39.3110 H   0  0  0  0  0  0  0  0  0  0  0  0
    3.9741   22.9873   32.0898 H   0  0  0  0  0  0  0  0  0  0  0  0
    4.3255   24.7453   32.4702 H   0  0  0  0  0  0  0  0  0  0  0  0
    3.9423   21.5532   35.5611 H   0  0  0  0  0  0  0  0  0  0  0  0
    0.5620   18.5345   42.8729 H   0  0  0  0  0  0  0  0  0  0  0  0
    0.4342   21.0261   42.0733 H   0  0  0  0  0  0  0  0  0  0  0  0
    4.4238   22.4297   34.2720 H   0  0  0  0  0  0  0  0  0  0  0  0
    4.9893   24.0352   34.5855 H   0  0  0  0  0  0  0  0  0  0  0  0
    1.6152   21.5352   39.9145 H   0  0  0  0  0  0  0  0  0  0  0  0
    2.0446   25.7028   34.0840 H   0  0  0  0  0  0  0  0  0  0  0  0
    0.7855   24.4657   34.1098 H   0  0  0  0  0  0  0  0  0  0  0  0
    1.9192   16.9108   41.5882 H   0  0  0  0  0  0  0  0  0  0  0  0
  1  7  1  0
  2  6  1  0
  2 13  2  0
  3  8  1  0
  3 14  1  0
  4  5  1  0
  4 16  1  0
  6 17  2  0
  7  2  1  0
  8 12  1  0
  9  4  1  0
  9 16  1  0
  9  1  1  0
 11 10  2  0
 12  5  1  0
 13 11  1  0
 14  5  1  0
 15  7  2  0
 16  1  1  0
 17 10  1  0
  1 18  1  1
  3 19  1  0
  3 20  1  0
  4 21  1  1
  5 22  1  0
  6 23  1  0
  8 24  1  0
  8 25  1  0
  9 26  1  6
 10 27  1  0
 11 28  1  0
 12 29  1  0
 12 30  1  0
 13 31  1  0
 14 32  1  0
 14 33  1  0
 17 34  1  0
M  END
>  <mol_id>  (5) 
2026-09-18-3war-s0-n100-0005

>  <rmsd_to_ref>  (5) 


$$$$

     RDKit          3D

 65 70  0  0  0  0  0  0  0  0999 V2000
    1.7899   15.3473   41.9506 S   0  0  0  0  0  0  0  0  0  0  0  0
    3.5473   16.8287   38.4133 N   0  0  0  0  0  0  0  0  0  0  0  0
    1.8410   23.3791   33.7550 O   0  0  0  0  0  0  0  0  0  0  0  0
    2.4869   20.0491   39.4363 C   0  0  0  0  0  0  0  0  0  0  0  0
    2.5033   15.7661   40.4791 C   0  0  0  0  0  0  0  0  0  0  0  0
    3.7171   19.0193   37.6124 C   0  0  0  0  0  0  0  0  0  0  0  0
    2.3561   25.9395   33.5637 C   0  0  0  0  0  0  0  0  0  0  0  0
    0.3981   27.1556   28.9337 O   0  0  0  0  0  0  0  0  0  0  0  0
    3.4893   20.0490   36.8503 C   0  0  0  0  0  0  0  0  0  0  0  0
    2.2922   19.9027   40.8203 C   0  0  0  0  0  0  0  0  0  0  0  0
    2.3087   22.2623   36.6161 C   0  0  0  0  0  0  0  0  0  0  0  0
    1.4901   27.3612   31.2059 C   0  0  2  0  0  0  0  0  0  0  0  0
    2.1555   26.4696   32.1133 C   0  0  2  0  0  0  0  0  0  0  0  0
    2.6817   27.6791   28.8055 C   0  0  1  0  0  0  0  0  0  0  0  0
    3.5733   15.6134   38.3761 C   0  0  0  0  0  0  0  0  0  0  0  0
    1.1912   17.9086   43.3408 C   0  0  0  0  0  0  0  0  0  0  0  0
    1.6606   26.3581   28.6713 C   0  0  0  0  0  0  0  0  0  0  0  0
    3.0072   18.9440   38.8555 C   0  0  0  0  0  0  0  0  0  0  0  0
    1.0497   25.9063   31.2510 C   0  0  1  0  0  0  0  0  0  0  0  0
    0.2956   26.8417   30.3282 C   0  0  2  0  0  0  0  0  0  0  0  0
    2.8447   24.4559   33.7564 C   0  0  1  0  0  0  0  0  0  0  0  0
    2.9426   26.1879   29.5023 C   0  0  2  0  0  0  0  0  0  0  0  0
    2.2173   23.8059   34.9776 C   0  0  2  0  0  0  0  0  0  0  0  0
    4.2463   14.9381   37.2726 C   0  0  0  0  0  0  0  0  0  0  0  0
    1.0532   16.8558   42.3709 C   0  0  0  0  0  0  0  0  0  0  0  0
    2.4041   17.1511   40.3051 N   0  0  0  0  0  0  0  0  0  0  0  0
    2.9926   17.6877   39.3087 C   0  0  0  0  0  0  0  0  0  0  0  0
    2.7585   21.0301   37.4210 C   0  0  0  0  0  0  0  0  0  0  0  0
    3.1543   27.8930   27.4089 O   0  0  0  0  0  0  0  0  0  0  0  0
    2.9690   22.6970   35.5338 C   0  0  0  0  0  0  0  0  0  0  0  0
    3.7243   26.1930   30.7199 O   0  0  0  0  0  0  0  0  0  0  0  0
    3.0459   14.9760   39.5341 C   0  0  0  0  0  0  0  0  0  0  0  0
    2.2735   21.1941   38.6747 C   0  0  0  0  0  0  0  0  0  0  0  0
    4.4285   18.2352   37.3138 H   0  0  0  0  0  0  0  0  0  0  0  0
    1.3900   26.0338   34.0812 H   0  0  0  0  0  0  0  0  0  0  0  0
    3.1793   26.5499   33.9637 H   0  0  0  0  0  0  0  0  0  0  0  0
    3.8641   20.1152   35.8183 H   0  0  0  0  0  0  0  0  0  0  0  0
    3.2179   20.1698   41.3511 H   0  0  0  0  0  0  0  0  0  0  0  0
    1.4775   20.5651   41.1481 H   0  0  0  0  0  0  0  0  0  0  0  0
    2.0288   18.8587   41.0451 H   0  0  0  0  0  0  0  0  0  0  0  0
    1.2819   22.0510   36.2828 H   0  0  0  0  0  0  0  0  0  0  0  0
    2.4896   23.0773   37.3325 H   0  0  0  0  0  0  0  0  0  0  0  0
    0.7556   27.6078   31.9868 H   0  0  0  0  0  0  0  0  0  0  0  0
    3.2178   26.5613   32.3835 H   0  0  0  0  0  0  0  0  0  0  0  0
    2.7718   28.7007   29.2032 H   0  0  0  0  0  0  0  0  0  0  0  0
    1.2304   17.4741   44.3506 H   0  0  0  0  0  0  0  0  0  0  0  0
    2.1183   18.4675   43.1458 H   0  0  0  0  0  0  0  0  0  0  0  0
    0.3304   18.5895   43.2678 H   0  0  0  0  0  0  0  0  0  0  0  0
    1.2315   25.5125   28.1137 H   0  0  0  0  0  0  0  0  0  0  0  0
    1.7842   25.6598   30.4702 H   0  0  0  0  0  0  0  0  0  0  0  0
   -0.7914   26.8969   30.1689 H   0  0  0  0  0  0  0  0  0  0  0  0
    3.8253   24.6072   33.2816 H   0  0  0  0  0  0  0  0  0  0  0  0
    3.3884   25.1890   29.6183 H   0  0  0  0  0  0  0  0  0  0  0  0
    1.7735   24.2503   35.8806 H   0  0  0  0  0  0  0  0  0  0  0  0
    4.9888   14.2321   37.6729 H   0  0  0  0  0  0  0  0  0  0  0  0
    3.5057   14.3900   36.6717 H   0  0  0  0  0  0  0  0  0  0  0  0
    4.7522   15.6830   36.6406 H   0  0  0  0  0  0  0  0  0  0  0  0
    1.1417   17.4139   41.4270 H   0  0  0  0  0  0  0  0  0  0  0  0
    0.2496   16.3652   42.9398 H   0  0  0  0  0  0  0  0  0  0  0  0
    4.1071   28.1614   27.4204 H   0  0  0  0  0  0  0  0  0  0  0  0
    3.0480   21.8881   34.7926 H   0  0  0  0  0  0  0  0  0  0  0  0
    3.9862   23.0168   35.8043 H   0  0  0  0  0  0  0  0  0  0  0  0
    3.1201   26.1132   31.5001 H   0  0  0  0  0  0  0  0  0  0  0  0
    3.0802   13.8828   39.6519 H   0  0  0  0  0  0  0  0  0  0  0  0
    1.7794   22.1062   39.0405 H   0  0  0  0  0  0  0  0  0  0  0  0
  1 25  1  0
  2 15  2  0
  2 27  1  0
  3 21  1  0
  3 23  1  0
  4 10  1  0
  5  1  1  0
  6 18  1  0
  7 21  1  0
  8 20  1  0
  9 28  1  0
  9  6  2  0
 11 28  1  0
 12 19  1  0
 12 13  1  0
 13  7  1  0
 14 22  1  0
 15 32  1  0
 17  8  1  0
 17 14  1  0
 17 22  1  0
 18 27  1  0
 18  4  2  0
 19 13  1  0
 20 12  1  0
 20 19  1  0
 21 23  1  0
 22 31  1  0
 23 30  1  0
 24 15  1  0
 25 16  1  0
 26  5  1  0
 27 26  2  0
 28 33  2  0
 29 14  1  0
 30 11  1  0
 32  5  2  0
 33  4  1  0
  6 34  1  0
  7 35  1  0
  7 36  1  0
  9 37  1  0
 10 38  1  0
 10 39  1  0
 10 40  1  0
 11 41  1  0
 11 42  1  0
 12 43  1  6
 13 44  1  6
 14 45  1  1
 16 46  1  0
 16 47  1  0
 16 48  1  0
 17 49  1  0
 19 50  1  6
 20 51  1  1
 21 52  1  1
 22 53  1  6
 23 54  1  1
 24 55  1  0
 24 56  1  0
 24 57  1  0
 25 58  1  0
 25 59  1  0
 29 60  1  0
 30 61  1  0
 30 62  1  0
 31 63  1  0
 32 64  1  0
 33 65  1  0
M  END
>  <mol_id>  (6) 
2026-09-18-3war-s0-n100-0006

>  <rmsd_to_ref>  (6) 


$$$$

     RDKit          3D

 87 90  0  0  0  0  0  0  0  0999 V2000
    2.0560   15.5730   40.0950 C   0  0  0  0  0  0  0  0  0  0  0  0
    3.6120   14.2730   38.3010 C   0  0  2  0  0  0  0  0  0  0  0  0
   -0.0690   18.7300   43.3370 N   0  0  0  0  0  0  0  0  0  0  0  0
    2.6430   19.6720   38.0080 N   0  0  0  0  0  0  0  0  0  0  0  0
    2.3730   14.2870   36.2810 O   0  0  0  0  0  0  0  0  0  0  0  0
    2.3040   18.0160   39.5880 C   0  0  1  0  0  0  0  0  0  0  0  0
    2.5690   19.5900   39.4230 C   0  0  2  0  0  0  0  0  0  0  0  0
    2.9810   13.6170   37.1520 C   0  0  0  0  0  0  0  0  0  0  0  0
    3.0180   25.0930   27.5710 C   0  0  0  0  0  0  0  0  0  0  0  0
   -1.0930   19.5140   43.2880 C   0  0  0  0  0  0  0  0  0  0  0  0
    2.7230   15.0930   39.2920 C   0  0  0  0  0  0  0  0  0  0  0  0
   -1.0390   20.6120   42.5740 N   0  0  0  0  0  0  0  0  0  0  0  0
    2.3800   25.2130   34.5200 S   0  0  0  0  0  0  0  0  0  0  0  0
    3.7930   22.6130   34.4900 C   0  0  1  0  0  0  0  0  0  0  0  0
    2.7760   22.5980   33.4280 F   0  0  0  0  0  0  0  0  0  0  0  0
    2.8690   25.3010   30.0540 C   0  0  0  0  0  0  0  0  0  0  0  0
    4.3170   16.4730   37.7100 C   0  0  0  0  0  0  0  0  0  0  0  0
    2.1060   25.0220   28.4510 C   0  0  0  0  0  0  0  0  0  0  0  0
    1.5980   21.3770   40.1880 O   0  0  0  0  0  0  0  0  0  0  0  0
    3.1680   18.4100   37.4700 C   0  0  0  0  0  0  0  0  0  0  0  0
    0.6310   19.5820   40.9720 N   0  0  0  0  0  0  0  0  0  0  0  0
    4.1570   24.2540   32.1650 C   0  0  0  0  0  0  0  0  0  0  0  0
    3.2590   17.3820   38.5000 C   0  0  1  0  0  0  0  0  0  0  0  0
    1.4600   20.1340   40.1590 C   0  0  0  0  0  0  0  0  0  0  0  0
    3.9560   24.8530   33.4010 C   0  0  2  0  0  0  0  0  0  0  0  0
    4.1080   24.4520   29.8080 C   0  0  1  0  0  0  0  0  0  0  0  0
    3.3730   24.4220   29.4020 C   0  0  0  0  0  0  0  0  0  0  0  0
    1.4850   17.7290   40.9440 C   0  0  0  0  0  0  0  0  0  0  0  0
   -2.1030   19.1470   43.9300 O   0  0  0  0  0  0  0  0  0  0  0  0
    3.7320   25.0040   31.2280 C   0  0  0  0  0  0  0  0  0  0  0  0
    2.4200   24.9280   29.5300 C   0  0  1  0  0  0  0  0  0  0  0  0
   -0.0670   20.6950   41.5200 C   0  0  0  0  0  0  0  0  0  0  0  0
    4.7140   23.8190   34.4320 C   0  0  0  0  0  0  0  0  0  0  0  0
    1.3760   16.2380   41.2970 C   0  0  0  0  0  0  0  0  0  0  0  0
    3.0290   12.3820   37.0170 O   0  0  0  0  0  0  0  0  0  0  0  0
    4.4410   15.0790   37.1870 C   0  0  0  0  0  0  0  0  0  0  0  0
    2.7070   24.2690   36.0940 C   0  0  0  0  0  0  0  0  0  0  0  0
    4.1360   24.0270   28.3880 C   0  0  0  0  0  0  0  0  0  0  0  0
    4.2760   25.1800   30.2960 C   0  0  2  0  0  0  0  0  0  0  0  0
    2.9090   22.7530   35.8750 C   0  0  0  0  0  0  0  0  0  0  0  0
    4.0813   13.7102   39.1214 H   0  0  0  0  0  0  0  0  0  0  0  0
    0.7929   18.9763   42.8297 H   0  0  0  0  0  0  0  0  0  0  0  0
   -0.1137   17.8580   43.8834 H   0  0  0  0  0  0  0  0  0  0  0  0
    1.7025   19.8436   37.6246 H   0  0  0  0  0  0  0  0  0  0  0  0
    3.2693   20.4451   37.7417 H   0  0  0  0  0  0  0  0  0  0  0  0
    1.7083   17.0986   39.4714 H   0  0  0  0  0  0  0  0  0  0  0  0
    3.4479   20.1315   39.8030 H   0  0  0  0  0  0  0  0  0  0  0  0
    3.4135   26.1122   27.4491 H   0  0  0  0  0  0  0  0  0  0  0  0
    2.7416   24.8365   26.5376 H   0  0  0  0  0  0  0  0  0  0  0  0
   -1.6785   21.3966   42.7644 H   0  0  0  0  0  0  0  0  0  0  0  0
    4.4310   21.7206   34.4084 H   0  0  0  0  0  0  0  0  0  0  0  0
    2.4057   25.0670   31.0238 H   0  0  0  0  0  0  0  0  0  0  0  0
    2.8838   26.2867   29.5660 H   0  0  0  0  0  0  0  0  0  0  0  0
    4.4832   17.0670   36.7992 H   0  0  0  0  0  0  0  0  0  0  0  0
    4.8847   16.2410   38.6232 H   0  0  0  0  0  0  0  0  0  0  0  0
    1.4966   25.9337   28.3654 H   0  0  0  0  0  0  0  0  0  0  0  0
    1.5846   24.0785   28.2323 H   0  0  0  0  0  0  0  0  0  0  0  0
    2.4987   18.0568   36.6717 H   0  0  0  0  0  0  0  0  0  0  0  0
    4.1799   18.5971   37.0814 H   0  0  0  0  0  0  0  0  0  0  0  0
    0.5033   18.5806   41.1765 H   0  0  0  0  0  0  0  0  0  0  0  0
    5.2324   24.0719   32.0224 H   0  0  0  0  0  0  0  0  0  0  0  0
    3.6027   23.3043   32.1374 H   0  0  0  0  0  0  0  0  0  0  0  0
    4.0854   17.9311   38.9750 H   0  0  0  0  0  0  0  0  0  0  0  0
    4.1832   25.8694   33.0470 H   0  0  0  0  0  0  0  0  0  0  0  0
    4.7099   24.0072   30.6141 H   0  0  0  0  0  0  0  0  0  0  0  0
    3.0995   23.3582   29.4614 H   0  0  0  0  0  0  0  0  0  0  0  0
    3.7008   25.0305   28.5463 H   0  0  0  0  0  0  0  0  0  0  0  0
    1.9926   18.2455   41.7720 H   0  0  0  0  0  0  0  0  0  0  0  0
    0.4607   18.0968   40.7843 H   0  0  0  0  0  0  0  0  0  0  0  0
    2.7571   24.5894   30.9317 H   0  0  0  0  0  0  0  0  0  0  0  0
    3.7995   25.9941   31.7025 H   0  0  0  0  0  0  0  0  0  0  0  0
    1.3838   24.8455   29.8898 H   0  0  0  0  0  0  0  0  0  0  0  0
    0.7117   21.3780   41.8903 H   0  0  0  0  0  0  0  0  0  0  0  0
   -0.7125   20.9658   40.6714 H   0  0  0  0  0  0  0  0  0  0  0  0
    5.7037   23.5363   34.0440 H   0  0  0  0  0  0  0  0  0  0  0  0
    4.8903   24.2638   35.4225 H   0  0  0  0  0  0  0  0  0  0  0  0
    0.3254   15.9244   41.3853 H   0  0  0  0  0  0  0  0  0  0  0  0
    1.8320   15.9775   42.2635 H   0  0  0  0  0  0  0  0  0  0  0  0
    3.9868   14.9774   36.1903 H   0  0  0  0  0  0  0  0  0  0  0  0
    5.4756   14.7329   37.0461 H   0  0  0  0  0  0  0  0  0  0  0  0
    3.6151   24.6769   36.5619 H   0  0  0  0  0  0  0  0  0  0  0  0
    1.8186   24.3874   36.7318 H   0  0  0  0  0  0  0  0  0  0  0  0
    3.8117   22.9803   28.2918 H   0  0  0  0  0  0  0  0  0  0  0  0
    5.1478   24.0852   27.9605 H   0  0  0  0  0  0  0  0  0  0  0  0
    5.2434   25.6976   30.2167 H   0  0  0  0  0  0  0  0  0  0  0  0
    1.9375   22.2495   35.7619 H   0  0  0  0  0  0  0  0  0  0  0  0
    3.4190   22.2849   36.7299 H   0  0  0  0  0  0  0  0  0  0  0  0
  1 34  1  0
  2  8  1  0
  2 11  1  0
  4  7  1  0
  5  8  2  0
  6 28  1  0
  7  6  1  0
  7 24  1  0
  9 38  1  0
  9 18  1  0
 10  3  1  0
 10 29  2  0
 11  1  3  0
 12 10  1  0
 13 37  1  0
 14 15  1  0
 14 40  1  0
 16 39  1  0
 17 23  1  0
 20  4  1  0
 21 32  1  0
 23 20  1  0
 23  6  1  0
 24 19  2  0
 24 21  1  0
 25 22  1  0
 25 33  1  0
 25 13  1  0
 26 38  1  0
 26 39  1  0
 27 31  1  0
 27 26  1  0
 28 34  1  0
 30 22  1  0
 31 18  1  0
 31 16  1  0
 32 12  1  0
 33 14  1  0
 35  8  1  0
 36 17  1  0
 36  2  1  0
 39 30  1  0
 40 37  1  0
  2 41  1  1
  3 42  1  0
  3 43  1  0
  4 44  1  0
  4 45  1  0
  6 46  1  6
  7 47  1  1
  9 48  1  0
  9 49  1  0
 12 50  1  0
 14 51  1  1
 16 52  1  0
 16 53  1  0
 17 54  1  0
 17 55  1  0
 18 56  1  0
 18 57  1  0
 20 58  1  0
 20 59  1  0
 21 60  1  0
 22 61  1  0
 22 62  1  0
 23 63  1  6
 25 64  1  6
 26 65  1  1
 27 66  1  0
 27 67  1  0
 28 68  1  0
 28 69  1  0
 30 70  1  0
 30 71  1  0
 31 72  1  1
 32 73  1  0
 32 74  1  0
 33 75  1  0
 33 76  1  0
 34 77  1  0
 34 78  1  0
 36 79  1  0
 36 80  1  0
 37 81  1  0
 37 82  1  0
 38 83  1  0
 38 84  1  0
 39 85  1  1
 40 86  1  0
 40 87  1  0
M  CHG  2   4   1  35  -1
M  END
>  <mol_id>  (7) 
2026-09-18-3war-s0-n100-0007

>  <rmsd_to_ref>  (7) 


$$$$

     RDKit          3D

 43 43  0  0  0  0  0  0  0  0999 V2000
    1.5760   15.4390   38.1110 O   0  0  0  0  0  0  0  0  0  0  0  0
    2.4980   17.5630   38.8720 C   0  0  0  0  0  0  0  0  0  0  0  0
    3.3720   22.6040   33.7330 C   0  0  0  0  0  0  0  0  0  0  0  0
    2.2260   21.8100   36.1780 O   0  0  0  0  0  0  0  0  0  0  0  0
    1.0710   25.5830   31.2070 C   0  0  0  0  0  0  0  0  0  0  0  0
    2.7320   16.0950   38.5290 C   0  0  0  0  0  0  0  0  0  0  0  0
    1.4260   21.5520   39.6590 C   0  0  0  0  0  0  0  0  0  0  0  0
    3.9620   18.0970   37.0950 N   0  0  0  0  0  0  0  0  0  0  0  0
    2.6990   19.8410   38.2940 C   0  0  0  0  0  0  0  0  0  0  0  0
    4.0090   20.3890   36.3210 O   0  0  0  0  0  0  0  0  0  0  0  0
    3.2300   21.2750   35.7020 C   0  0  0  0  0  0  0  0  0  0  0  0
    3.5980   21.7390   34.5210 N   0  0  0  0  0  0  0  0  0  0  0  0
    1.9100   20.2570   39.3940 C   0  0  0  0  0  0  0  0  0  0  0  0
    1.7630   17.9190   40.0100 C   0  0  0  0  0  0  0  0  0  0  0  0
    2.2660   25.4600   31.8520 C   0  0  0  0  0  0  0  0  0  0  0  0
    1.4920   19.2160   40.2690 C   0  0  0  0  0  0  0  0  0  0  0  0
    1.4310   26.6290   32.1520 C   0  0  0  0  0  0  0  0  0  0  0  0
    2.1730   24.4880   32.9660 C   0  0  0  0  0  0  0  0  0  0  0  0
    3.0670   18.5550   38.1110 C   0  0  0  0  0  0  0  0  0  0  0  0
    3.4760   23.5720   32.8070 C   0  0  0  0  0  0  0  0  0  0  0  0
    1.0587   15.1454   38.9024 H   0  0  0  0  0  0  0  0  0  0  0  0
    2.6600   22.0029   33.1484 H   0  0  0  0  0  0  0  0  0  0  0  0
    3.8512   23.2994   34.4379 H   0  0  0  0  0  0  0  0  0  0  0  0
    1.0563   25.8065   30.1300 H   0  0  0  0  0  0  0  0  0  0  0  0
    0.1953   24.9270   31.0938 H   0  0  0  0  0  0  0  0  0  0  0  0
    3.1201   15.5845   39.4227 H   0  0  0  0  0  0  0  0  0  0  0  0
    3.4464   16.0640   37.6931 H   0  0  0  0  0  0  0  0  0  0  0  0
    1.3683   21.7064   40.7466 H   0  0  0  0  0  0  0  0  0  0  0  0
    2.1071   22.2952   39.2188 H   0  0  0  0  0  0  0  0  0  0  0  0
    0.4244   21.6663   39.2188 H   0  0  0  0  0  0  0  0  0  0  0  0
    4.1912   17.0953   37.0239 H   0  0  0  0  0  0  0  0  0  0  0  0
    4.3777   18.7686   36.4339 H   0  0  0  0  0  0  0  0  0  0  0  0
    3.0243   20.5940   37.5611 H   0  0  0  0  0  0  0  0  0  0  0  0
    4.3478   21.1391   34.1484 H   0  0  0  0  0  0  0  0  0  0  0  0
    1.4047   17.1376   40.6963 H   0  0  0  0  0  0  0  0  0  0  0  0
    3.3026   25.3015   31.5198 H   0  0  0  0  0  0  0  0  0  0  0  0
    0.9333   19.4747   41.1806 H   0  0  0  0  0  0  0  0  0  0  0  0
    1.7187   27.6303   31.7989 H   0  0  0  0  0  0  0  0  0  0  0  0
    0.9870   27.0899   33.0467 H   0  0  0  0  0  0  0  0  0  0  0  0
    2.1780   25.0065   33.9361 H   0  0  0  0  0  0  0  0  0  0  0  0
    1.2427   23.9019   32.9337 H   0  0  0  0  0  0  0  0  0  0  0  0
    3.5120   23.1327   31.7992 H   0  0  0  0  0  0  0  0  0  0  0  0
    4.3963   24.1588   32.9438 H   0  0  0  0  0  0  0  0  0  0  0  0
  1  6  1  0
  2 14  1  0
  3 12  1  0
  5 15  1  0
  5 17  1  0
  6  2  1  0
  8 19  1  0
  9 13  2  0
 11  4  2  0
 11 10  1  0
 12 11  1  0
 13  7  1  0
 13 16  1  0
 14 16  2  0
 15 17  1  0
 15 18  1  0
 19  9  1  0
 19  2  2  0
 20 18  1  0
 20  3  1  0
  1 21  1  0
  3 22  1  0
  3 23  1  0
  5 24  1  0
  5 25  1  0
  6 26  1  0
  6 27  1  0
  7 28  1  0
  7 29  1  0
  7 30  1  0
  8 31  1  0
  8 32  1  0
  9 33  1  0
 12 34  1  0
 14 35  1  0
 15 36  1  0
 16 37  1  0
 17 38  1  0
 17 39  1  0
 18 40  1  0
 18 41  1  0
 20 42  1  0
 20 43  1  0
M  CHG  1  10  -1
M  END
>  <mol_id>  (8) 
2026-09-18-3war-s0-n100-0008

>  <rmsd_to_ref>  (8) 


$$$$

     RDKit          3D

 44 45  0  0  0  0  0  0  0  0999 V2000
    1.4235   24.5981   34.4308 C   0  0  0  0  0  0  0  0  0  0  0  0
    1.6365   25.7249   32.2394 C   0  0  0  0  0  0  0  0  0  0  0  0
    1.0110   25.5713   33.5358 C   0  0  0  0  0  0  0  0  0  0  0  0
    2.6371   18.8118   38.3165 C   0  0  0  0  0  0  0  0  0  0  0  0
    0.8612   26.8425   31.5337 C   0  0  0  0  0  0  0  0  0  0  0  0
    2.4914   15.9917   42.0852 O   0  0  0  0  0  0  0  0  0  0  0  0
    1.9858   19.2642   41.0317 C   0  0  0  0  0  0  0  0  0  0  0  0
    2.7670   20.0717   38.8870 C   0  0  0  0  0  0  0  0  0  0  0  0
    0.5142   15.8932   40.7333 O   0  0  0  0  0  0  0  0  0  0  0  0
    0.7726   17.7353   42.7325 O   0  0  0  0  0  0  0  0  0  0  0  0
    2.5756   19.5703   35.9792 N   0  0  0  0  0  0  0  0  0  0  0  0
    1.4743   16.8550   41.4454 S   0  0  0  0  0  4  0  0  0  0  0  0
   -0.1003   26.1249   33.5513 O   0  0  0  0  0  0  0  0  0  0  0  0
   -0.1630   27.9799   32.1717 C   0  0  0  0  0  0  0  0  0  0  0  0
    2.2613   17.7410   39.1193 C   0  0  0  0  0  0  0  0  0  0  0  0
    2.4028   22.4460   34.7058 N   0  0  0  0  0  0  0  0  0  0  0  0
    2.6180   25.0341   31.7988 C   0  0  0  0  0  0  0  0  0  0  0  0
    2.8570   23.8710   32.6875 C   0  0  0  0  0  0  0  0  0  0  0  0
    2.3219   23.6112   33.9507 C   0  0  0  0  0  0  0  0  0  0  0  0
    2.0165   17.9586   40.4485 C   0  0  0  0  0  0  0  0  0  0  0  0
   -0.1240   27.0857   32.5698 C   0  0  0  0  0  0  0  0  0  0  0  0
    2.4233   20.3557   40.1616 C   0  0  0  0  0  0  0  0  0  0  0  0
    2.9328   18.6035   36.8873 C   0  0  0  0  0  0  0  0  0  0  0  0
    1.0686   24.5908   35.4720 H   0  0  0  0  0  0  0  0  0  0  0  0
    0.4025   26.5026   30.5935 H   0  0  0  0  0  0  0  0  0  0  0  0
    1.4517   27.7135   31.2133 H   0  0  0  0  0  0  0  0  0  0  0  0
    2.4573   16.1137   43.0671 H   0  0  0  0  0  0  0  0  0  0  0  0
    1.6550   19.4363   42.0666 H   0  0  0  0  0  0  0  0  0  0  0  0
    3.1728   20.8836   38.2655 H   0  0  0  0  0  0  0  0  0  0  0  0
    0.2620   15.1615   41.3507 H   0  0  0  0  0  0  0  0  0  0  0  0
    1.1689   17.4387   43.5898 H   0  0  0  0  0  0  0  0  0  0  0  0
    2.5962   20.4938   36.4348 H   0  0  0  0  0  0  0  0  0  0  0  0
    3.2379   19.5618   35.1904 H   0  0  0  0  0  0  0  0  0  0  0  0
    1.6250   19.3802   35.6314 H   0  0  0  0  0  0  0  0  0  0  0  0
   -0.8402   28.7391   32.5901 H   0  0  0  0  0  0  0  0  0  0  0  0
    0.4704   28.2249   31.3064 H   0  0  0  0  0  0  0  0  0  0  0  0
    2.1619   16.7323   38.6921 H   0  0  0  0  0  0  0  0  0  0  0  0
    1.9534   22.4000   35.6315 H   0  0  0  0  0  0  0  0  0  0  0  0
    2.9120   21.6291   34.3393 H   0  0  0  0  0  0  0  0  0  0  0  0
    3.1991   25.2677   30.8944 H   0  0  0  0  0  0  0  0  0  0  0  0
    3.5497   23.1099   32.2988 H   0  0  0  0  0  0  0  0  0  0  0  0
    2.4713   21.3881   40.5384 H   0  0  0  0  0  0  0  0  0  0  0  0
    2.4234   17.6763   36.5860 H   0  0  0  0  0  0  0  0  0  0  0  0
    4.0320   18.6009   36.8463 H   0  0  0  0  0  0  0  0  0  0  0  0
  2  3  2  0
  3  1  1  0
  4  8  1  0
  4 15  2  0
  5 21  1  0
  5  2  1  0
  8 22  2  0
  9 12  1  0
 11 23  1  0
 12 10  1  0
 12  6  1  0
 13  3  1  0
 14 21  2  3
 15 20  1  0
 17  2  1  0
 17 18  2  0
 18 19  1  0
 19  1  2  0
 19 16  1  0
 20  7  2  0
 20 12  1  0
 21 13  1  0
 22  7  1  0
 23  4  1  0
  1 24  1  0
  5 25  1  0
  5 26  1  0
  6 27  1  0
  7 28  1  0
  8 29  1  0
  9 30  1  0
 10 31  1  0
 11 32  1  0
 11 33  1  0
 11 34  1  0
 14 35  1  0
 14 36  1  0
 15 37  1  0
 16 38  1  0
 16 39  1  0
 17 40  1  0
 18 41  1  0
 22 42  1  0
 23 43  1  0
 23 44  1  0
M  CHG  1  11   1
M  END
>  <mol_id>  (9) 
2026-09-18-3war-s0-n100-0009

>  <rmsd_to_ref>  (9) 


$$$$

     RDKit          3D

 22 22  0  0  0  0  0  0  0  0999 V2000
    2.8173   19.0326   38.1309 C   0  0  0  0  0  0  0  0  0  0  0  0
    2.2058   19.7455   39.1984 C   0  0  0  0  0  0  0  0  0  0  0  0
    2.7012   22.3001   36.4809 N   0  0  0  0  0  0  0  0  0  0  0  0
    2.3835   21.1185   37.2432 C   0  0  0  0  0  0  0  0  0  0  0  0
    3.6227   22.9096   34.2477 C   0  0  0  0  0  0  0  0  0  0  0  0
    1.9345   19.3776   40.7185 C   0  0  0  0  0  0  0  0  0  0  0  0
    2.8183   19.7487   36.9359 C   0  0  0  0  0  0  0  0  0  0  0  0
    2.5137   22.1554   35.0183 C   0  0  0  0  0  0  0  0  0  0  0  0
    1.8337   21.3677   38.7809 S   0  0  0  0  0  0  0  0  0  0  0  0
    3.2557   23.5793   33.2297 O   0  0  0  0  0  0  0  0  0  0  0  0
    5.0497   23.2236   34.8981 C   0  0  0  0  0  0  0  0  0  0  0  0
    3.2437   18.0242   38.2371 H   0  0  0  0  0  0  0  0  0  0  0  0
    3.0313   23.1729   36.9170 H   0  0  0  0  0  0  0  0  0  0  0  0
    2.8650   19.4889   41.2945 H   0  0  0  0  0  0  0  0  0  0  0  0
    1.1673   20.0514   41.1276 H   0  0  0  0  0  0  0  0  0  0  0  0
    1.5831   18.3375   40.7870 H   0  0  0  0  0  0  0  0  0  0  0  0
    3.0938   19.3602   35.9444 H   0  0  0  0  0  0  0  0  0  0  0  0
    1.5338   22.5686   34.7372 H   0  0  0  0  0  0  0  0  0  0  0  0
    2.5664   21.0877   34.7589 H   0  0  0  0  0  0  0  0  0  0  0  0
    5.0213   22.9932   35.9733 H   0  0  0  0  0  0  0  0  0  0  0  0
    5.8186   22.6061   34.4109 H   0  0  0  0  0  0  0  0  0  0  0  0
    5.2907   24.2877   34.7575 H   0  0  0  0  0  0  0  0  0  0  0  0
  1  2  2  0
  2  6  1  0
  3  4  1  0
  4  9  1  0
  5 11  1  0
  5  8  1  0
  7  4  2  0
  7  1  1  0
  8  3  1  0
  9  2  1  0
 10  5  2  0
  1 12  1  0
  3 13  1  0
  6 14  1  0
  6 15  1  0
  6 16  1  0
  7 17  1  0
  8 18  1  0
  8 19  1  0
 11 20  1  0
 11 21  1  0
 11 22  1  0
M  END
>  <mol_id>  (10) 
2026-09-18-3war-s0-n100-0010

>  <rmsd_to_ref>  (10) 


$$$$

     RDKit          3D

 54 58  0  0  0  0  0  0  0  0999 V2000
    4.2600   24.3970   31.2440 O   0  0  0  0  0  0  0  0  0  0  0  0
   -0.9170   20.0650   43.4410 C   0  0  0  0  0  0  0  0  0  0  0  0
   -0.6830   19.0760   42.5630 C   0  0  1  0  0  0  0  0  0  0  0  0
    4.7920   22.9110   29.0600 C   0  0  1  0  0  0  0  0  0  0  0  0
    2.2420   24.1350   28.1420 C   0  0  2  0  0  0  0  0  0  0  0  0
    2.0700   21.6370   37.2390 C   0  0  0  0  0  0  0  0  0  0  0  0
    3.7340   22.2180   32.5190 O   0  0  0  0  0  0  0  0  0  0  0  0
    3.1420   23.9380   30.5480 C   0  0  1  0  0  0  0  0  0  0  0  0
    2.5660   26.1470   29.4550 C   0  0  0  0  0  0  0  0  0  0  0  0
    2.7640   22.7220   34.9830 Cl  0  0  0  0  0  0  0  0  0  0  0  0
    2.3380   19.4370   40.6140 C   0  0  0  0  0  0  0  0  0  0  0  0
   -0.8060   21.3400   43.4580 O   0  0  0  0  0  0  0  0  0  0  0  0
    3.3970   19.2390   37.0240 C   0  0  0  0  0  0  0  0  0  0  0  0
    0.8480   19.0580   42.4350 N   0  0  0  0  0  0  0  0  0  0  0  0
    2.8150   21.4390   36.1060 C   0  0  0  0  0  0  0  0  0  0  0  0
    4.8390   23.6070   27.7910 C   0  0  0  0  0  0  0  0  0  0  0  0
    1.6810   18.5230   41.3350 C   0  0  1  0  0  0  0  0  0  0  0  0
    2.9030   20.4860   40.9540 O   0  0  0  0  0  0  0  0  0  0  0  0
    2.4960   17.3940   39.6630 N   0  0  0  0  0  0  0  0  0  0  0  0
    2.4540   25.0330   26.8940 C   0  0  0  0  0  0  0  0  0  0  0  0
    2.7690   19.5080   38.1930 C   0  0  0  0  0  0  0  0  0  0  0  0
    1.9390   17.2970   40.8730 C   0  0  0  0  0  0  0  0  0  0  0  0
    2.6710   24.8020   29.4230 C   0  0  0  0  0  0  0  0  0  0  0  0
    3.4890   22.5090   29.8690 C   0  0  2  0  0  0  0  0  0  0  0  0
    1.5800   15.8620   41.6450 S   0  0  0  0  0  0  0  0  0  0  0  0
    4.1010   21.7130   31.2090 N   0  0  0  0  0  0  0  0  0  0  0  0
    2.0200   20.7180   38.2540 C   0  0  0  0  0  0  0  0  0  0  0  0
    3.4510   22.9370   28.2090 S   0  0  1  0  0  4  0  0  0  0  0  0
   -1.0470   19.0240   44.2240 N   0  0  0  0  0  0  0  0  0  0  0  0
    2.6640   18.7670   39.4090 N   0  0  0  0  0  0  0  0  0  0  0  0
    3.4960   20.1510   35.9920 C   0  0  0  0  0  0  0  0  0  0  0  0
    4.0936   24.3287   32.2175 H   0  0  0  0  0  0  0  0  0  0  0  0
   -1.0545   18.6521   41.6184 H   0  0  0  0  0  0  0  0  0  0  0  0
    5.7469   22.7687   29.5872 H   0  0  0  0  0  0  0  0  0  0  0  0
    1.1858   23.8381   28.0622 H   0  0  0  0  0  0  0  0  0  0  0  0
    1.4913   22.5673   37.3371 H   0  0  0  0  0  0  0  0  0  0  0  0
    4.1459   21.6512   33.2184 H   0  0  0  0  0  0  0  0  0  0  0  0
    2.3488   23.9098   31.3096 H   0  0  0  0  0  0  0  0  0  0  0  0
    2.8614   26.7004   30.3586 H   0  0  0  0  0  0  0  0  0  0  0  0
    2.1850   26.6900   28.5775 H   0  0  0  0  0  0  0  0  0  0  0  0
    3.8503   18.2458   36.8899 H   0  0  0  0  0  0  0  0  0  0  0  0
    1.1234   20.0478   42.5076 H   0  0  0  0  0  0  0  0  0  0  0  0
    1.0458   18.3304   43.1367 H   0  0  0  0  0  0  0  0  0  0  0  0
    4.9296   24.7032   27.7765 H   0  0  0  0  0  0  0  0  0  0  0  0
    5.4850   23.5310   26.9039 H   0  0  0  0  0  0  0  0  0  0  0  0
    2.5380   18.4478   42.0205 H   0  0  0  0  0  0  0  0  0  0  0  0
    2.7522   16.6160   39.0385 H   0  0  0  0  0  0  0  0  0  0  0  0
    2.6957   26.0568   27.2157 H   0  0  0  0  0  0  0  0  0  0  0  0
    3.2824   24.6330   26.2909 H   0  0  0  0  0  0  0  0  0  0  0  0
    1.5342   25.0457   26.2909 H   0  0  0  0  0  0  0  0  0  0  0  0
    3.7843   20.7343   31.1567 H   0  0  0  0  0  0  0  0  0  0  0  0
    1.3894   20.9185   39.1327 H   0  0  0  0  0  0  0  0  0  0  0  0
   -1.2257   18.5529   45.1223 H   0  0  0  0  0  0  0  0  0  0  0  0
    4.0819   19.9104   35.0926 H   0  0  0  0  0  0  0  0  0  0  0  0
  2 12  2  0
  2 29  1  0
  3 14  1  0
  3  2  1  0
  3 29  1  0
  4 16  1  0
  4 24  1  0
  5 20  1  0
  5 28  1  0
  5 23  1  0
  6 27  2  0
  8  1  1  0
 10 15  1  0
 11 18  2  0
 11 17  1  0
 13 21  2  0
 15  6  1  0
 17 14  1  0
 19 22  1  0
 21 27  1  0
 21 30  1  0
 22 17  1  0
 22 25  2  0
 23  9  2  3
 23  8  1  0
 24  8  1  0
 24 26  1  6
 26  7  1  0
 28 16  1  6
 28  4  1  0
 28 24  1  0
 30 19  1  0
 30 11  1  0
 31 15  2  0
 31 13  1  0
  1 32  1  0
  3 33  1  6
  4 34  1  6
  5 35  1  1
  6 36  1  0
  7 37  1  0
  8 38  1  1
  9 39  1  0
  9 40  1  0
 13 41  1  0
 14 42  1  0
 14 43  1  0
 16 44  1  0
 16 45  1  0
 17 46  1  1
 19 47  1  0
 20 48  1  0
 20 49  1  0
 20 50  1  0
 26 51  1  0
 27 52  1  0
 29 53  1  0
 31 54  1  0
M  CHG  1  14   1
M  END
>  <mol_id>  (11) 
2026-09-18-3war-s0-n100-0011

>  <rmsd_to_ref>  (11) 


$$$$

     RDKit          3D

 52 53  0  0  0  0  0  0  0  0999 V2000
    2.0870   16.5180   40.2770 C   0  0  0  0  0  0  0  0  0  0  0  0
    3.1120   22.7990   34.4100 C   0  0  0  0  0  0  0  0  0  0  0  0
   -0.0660   17.8160   43.1020 C   0  0  0  0  0  0  0  0  0  0  0  0
    3.5230   24.8430   30.2060 C   0  0  0  0  0  0  0  0  0  0  0  0
    2.6010   17.0950   39.0370 C   0  0  0  0  0  0  0  0  0  0  0  0
    0.6950   21.2350   41.7760 C   0  0  0  0  0  0  0  0  0  0  0  0
    4.8290   24.1120   29.8450 C   0  0  0  0  0  0  0  0  0  0  0  0
    1.9650   19.4330   39.7830 N   0  0  0  0  0  0  0  0  0  0  0  0
    0.7350   19.6790   41.8830 C   0  0  0  0  0  0  0  0  0  0  0  0
    3.9990   23.6750   33.4730 S   0  0  0  0  0  0  0  0  0  0  0  0
    4.1130   16.0100   37.4420 C   0  0  0  0  0  0  0  0  0  0  0  0
    3.2910   25.9530   27.8970 C   0  0  0  0  0  0  0  0  0  0  0  0
    1.4800   18.8230   41.0140 C   0  0  0  0  0  0  0  0  0  0  0  0
    3.5330   19.1970   37.9380 C   0  0  0  0  0  0  0  0  0  0  0  0
    3.0480   16.4130   37.9390 O   0  0  0  0  0  0  0  0  0  0  0  0
    2.4680   18.5730   38.7790 C   0  0  0  0  0  0  0  0  0  0  0  0
    5.2570   24.1710   28.4160 C   0  0  0  0  0  0  0  0  0  0  0  0
    4.9940   25.5620   27.4830 S   0  0  0  0  0  0  0  0  0  0  0  0
    3.4120   21.3630   34.8010 N   0  0  0  0  0  0  0  0  0  0  0  0
    2.0790   21.6860   36.7310 O   0  0  0  0  0  0  0  0  0  0  0  0
    3.0420   19.4690   36.5390 C   0  0  0  0  0  0  0  0  0  0  0  0
    3.1570   26.0740   29.4220 C   0  0  0  0  0  0  0  0  0  0  0  0
    1.4350   17.4600   41.2370 C   0  0  0  0  0  0  0  0  0  0  0  0
    0.0050   19.1310   42.9420 C   0  0  0  0  0  0  0  0  0  0  0  0
    0.7240   16.9160   42.2960 C   0  0  0  0  0  0  0  0  0  0  0  0
    2.8710   20.9330   36.0630 C   0  0  0  0  0  0  0  0  0  0  0  0
    2.1755   15.4431   40.4934 H   0  0  0  0  0  0  0  0  0  0  0  0
    2.1991   23.2566   34.8189 H   0  0  0  0  0  0  0  0  0  0  0  0
   -0.7415   17.4025   43.8654 H   0  0  0  0  0  0  0  0  0  0  0  0
    2.7012   24.1221   30.0836 H   0  0  0  0  0  0  0  0  0  0  0  0
    3.6906   25.2112   31.2289 H   0  0  0  0  0  0  0  0  0  0  0  0
    0.6838   21.6718   42.7855 H   0  0  0  0  0  0  0  0  0  0  0  0
    1.5844   21.5882   41.2335 H   0  0  0  0  0  0  0  0  0  0  0  0
   -0.2113   21.5421   41.2335 H   0  0  0  0  0  0  0  0  0  0  0  0
    5.6348   24.5494   30.4527 H   0  0  0  0  0  0  0  0  0  0  0  0
    4.6296   23.0486   30.0435 H   0  0  0  0  0  0  0  0  0  0  0  0
    4.8153   15.7442   38.2458 H   0  0  0  0  0  0  0  0  0  0  0  0
    3.9154   15.1245   36.8201 H   0  0  0  0  0  0  0  0  0  0  0  0
    4.5512   16.8045   36.8201 H   0  0  0  0  0  0  0  0  0  0  0  0
    2.6306   25.1526   27.5320 H   0  0  0  0  0  0  0  0  0  0  0  0
    3.0048   26.9041   27.4243 H   0  0  0  0  0  0  0  0  0  0  0  0
    3.8426   20.1464   38.3993 H   0  0  0  0  0  0  0  0  0  0  0  0
    4.3797   18.4974   37.8772 H   0  0  0  0  0  0  0  0  0  0  0  0
    6.3417   23.9884   28.4065 H   0  0  0  0  0  0  0  0  0  0  0  0
    4.6010   23.4299   27.9360 H   0  0  0  0  0  0  0  0  0  0  0  0
    3.9674   20.7365   34.2011 H   0  0  0  0  0  0  0  0  0  0  0  0
    3.7540   18.9897   35.8510 H   0  0  0  0  0  0  0  0  0  0  0  0
    2.0143   19.0770   36.5446 H   0  0  0  0  0  0  0  0  0  0  0  0
    3.8100   26.8941   29.7552 H   0  0  0  0  0  0  0  0  0  0  0  0
    2.0887   26.2490   29.6175 H   0  0  0  0  0  0  0  0  0  0  0  0
   -0.5146   19.7955   43.6481 H   0  0  0  0  0  0  0  0  0  0  0  0
    0.7606   15.8384   42.5138 H   0  0  0  0  0  0  0  0  0  0  0  0
  1 23  1  0
  2 19  1  0
  5  1  2  0
  6  9  1  0
  7  4  1  0
  8 13  1  0
  9 24  1  0
 10  2  2  0
 11 15  1  0
 12 22  1  0
 13 23  1  0
 13  9  2  0
 14 16  1  0
 15  5  1  0
 16  5  1  0
 16  8  2  0
 17  7  1  0
 18 12  1  0
 18 17  1  0
 19 26  1  0
 21 14  1  0
 22  4  1  0
 23 25  2  0
 24  3  2  0
 25  3  1  0
 26 21  1  0
 26 20  2  0
  1 27  1  0
  2 28  1  0
  3 29  1  0
  4 30  1  0
  4 31  1  0
  6 32  1  0
  6 33  1  0
  6 34  1  0
  7 35  1  0
  7 36  1  0
 11 37  1  0
 11 38  1  0
 11 39  1  0
 12 40  1  0
 12 41  1  0
 14 42  1  0
 14 43  1  0
 17 44  1  0
 17 45  1  0
 19 46  1  0
 21 47  1  0
 21 48  1  0
 22 49  1  0
 22 50  1  0
 24 51  1  0
 25 52  1  0
M  END
>  <mol_id>  (12) 
2026-09-18-3war-s0-n100-0012

>  <rmsd_to_ref>  (12) 


$$$$

     RDKit          3D

 99103  0  0  0  0  0  0  0  0999 V2000
    4.8440   24.4580   28.6690 C   0  0  0  0  0  0  0  0  0  0  0  0
    3.7960   15.0680   37.6730 C   0  0  1  0  0  0  0  0  0  0  0  0
    5.7950   13.7890   37.1110 O   0  0  0  0  0  0  0  0  0  0  0  0
    0.9890   14.9630   42.1630 C   0  0  0  0  0  0  0  0  0  0  0  0
    2.1510   24.9960   33.7260 C   0  0  0  0  0  0  0  0  0  0  0  0
    2.8370   27.1480   32.4660 C   0  0  1  0  0  0  0  0  0  0  0  0
    2.2500   18.1050   40.1160 C   0  0  2  0  0  0  0  0  0  0  0  0
    3.5950   27.0310   31.0050 C   0  0  1  0  0  0  0  0  0  0  0  0
    1.5810   22.1620   37.5810 C   0  0  0  0  0  0  0  0  0  0  0  0
    2.2410   18.9360   41.7950 C   0  0  0  0  0  0  0  0  0  0  0  0
    3.8990   24.7590   31.2950 C   0  0  0  0  0  0  0  0  0  0  0  0
    1.6890   28.1970   32.5190 C   0  0  0  0  0  0  0  0  0  0  0  0
    1.4840   22.9330   36.2010 C   0  0  0  0  0  0  0  0  0  0  0  0
    1.2010   25.5200   32.8550 C   0  0  0  0  0  0  0  0  0  0  0  0
    1.0930   19.8700   41.9550 C   0  0  0  0  0  0  0  0  0  0  0  0
    2.6620   14.1900   38.2260 C   0  0  0  0  0  0  0  0  0  0  0  0
    2.1960   16.8580   39.0410 C   0  0  1  0  0  0  0  0  0  0  0  0
    3.3470   16.2480   38.4590 C   0  0  0  0  0  0  0  0  0  0  0  0
    1.4070   21.1190   40.9460 C   0  0  0  0  0  0  0  0  0  0  0  0
    2.1750   19.4450   39.3670 N   0  0  0  0  0  0  0  0  0  0  0  0
    4.5960   14.0810   36.5400 C   0  0  1  0  0  0  0  0  0  0  0  0
    3.0700   18.9850   37.2550 O   0  0  0  0  0  0  0  0  0  0  0  0
    3.5660   13.0390   36.2340 C   0  0  2  0  0  0  0  0  0  0  0  0
    1.2080   16.3670   41.3690 C   0  0  0  0  0  0  0  0  0  0  0  0
    2.5670   22.4400   35.3460 C   0  0  1  0  0  0  0  0  0  0  0  0
    2.6930   19.5540   38.0420 C   0  0  0  0  0  0  0  0  0  0  0  0
    3.2070   22.7840   33.9250 C   0  0  0  0  0  0  0  0  0  0  0  0
    1.4500   26.6670   31.9490 C   0  0  2  0  0  0  0  0  0  0  0  0
    2.4820   21.0480   37.2950 C   0  0  1  0  0  0  0  0  0  0  0  0
    4.6810   26.6790   29.7690 C   0  0  0  0  0  0  0  0  0  0  0  0
    4.4800   25.9220   28.9860 C   0  0  0  0  0  0  0  0  0  0  0  0
    1.6920   20.8120   39.8140 C   0  0  0  0  0  0  0  0  0  0  0  0
    2.9930   12.9430   34.7510 C   0  0  0  0  0  0  0  0  0  0  0  0
    3.1120   21.0400   36.0800 C   0  0  0  0  0  0  0  0  0  0  0  0
    3.0930   13.4370   39.2970 O   0  0  0  0  0  0  0  0  0  0  0  0
    2.4410   13.6520   35.7800 O   0  0  0  0  0  0  0  0  0  0  0  0
    2.6910   26.8770   30.7100 C   0  0  2  0  0  0  0  0  0  0  0  0
    3.0040   24.0740   33.6040 C   0  0  0  0  0  0  0  0  0  0  0  0
    3.1560   25.5870   30.2970 N   0  0  0  0  0  0  0  0  0  0  0  0
    2.0900   16.1860   40.3010 O   0  0  0  0  0  0  0  0  0  0  0  0
    4.9820   23.9028   29.6085 H   0  0  0  0  0  0  0  0  0  0  0  0
    4.0332   23.9965   28.0861 H   0  0  0  0  0  0  0  0  0  0  0  0
    5.7765   24.4300   28.0861 H   0  0  0  0  0  0  0  0  0  0  0  0
    3.1494   15.3777   36.8387 H   0  0  0  0  0  0  0  0  0  0  0  0
    5.7052   13.8109   38.0967 H   0  0  0  0  0  0  0  0  0  0  0  0
    1.0176   15.1466   43.2472 H   0  0  0  0  0  0  0  0  0  0  0  0
    0.0133   14.5352   41.8892 H   0  0  0  0  0  0  0  0  0  0  0  0
    1.7881   14.2584   41.8892 H   0  0  0  0  0  0  0  0  0  0  0  0
    2.7584   25.8717   33.9985 H   0  0  0  0  0  0  0  0  0  0  0  0
    1.4433   24.4223   34.3424 H   0  0  0  0  0  0  0  0  0  0  0  0
    3.5984   26.9565   33.2365 H   0  0  0  0  0  0  0  0  0  0  0  0
    1.1550   18.1965   40.0648 H   0  0  0  0  0  0  0  0  0  0  0  0
    4.5993   27.4290   31.2125 H   0  0  0  0  0  0  0  0  0  0  0  0
    1.9977   22.8119   38.3646 H   0  0  0  0  0  0  0  0  0  0  0  0
    0.6002   21.8312   37.9534 H   0  0  0  0  0  0  0  0  0  0  0  0
    2.1782   18.1611   42.5732 H   0  0  0  0  0  0  0  0  0  0  0  0
    3.1676   19.5217   41.8864 H   0  0  0  0  0  0  0  0  0  0  0  0
    3.6188   25.0713   32.3118 H   0  0  0  0  0  0  0  0  0  0  0  0
    3.6441   23.6983   31.1539 H   0  0  0  0  0  0  0  0  0  0  0  0
    4.9810   24.8980   31.1539 H   0  0  0  0  0  0  0  0  0  0  0  0
    1.2605   28.5032   33.4847 H   0  0  0  0  0  0  0  0  0  0  0  0
    1.5323   29.2159   32.1351 H   0  0  0  0  0  0  0  0  0  0  0  0
    0.5112   22.7348   35.7273 H   0  0  0  0  0  0  0  0  0  0  0  0
    1.5748   24.0183   36.3555 H   0  0  0  0  0  0  0  0  0  0  0  0
    0.9009   24.6856   32.2041 H   0  0  0  0  0  0  0  0  0  0  0  0
    0.4891   25.9654   33.5655 H   0  0  0  0  0  0  0  0  0  0  0  0
    0.1518   19.3750   41.6738 H   0  0  0  0  0  0  0  0  0  0  0  0
    0.9787   20.2039   42.9969 H   0  0  0  0  0  0  0  0  0  0  0  0
    1.8338   14.8364   38.5518 H   0  0  0  0  0  0  0  0  0  0  0  0
    2.3302   13.5068   37.4303 H   0  0  0  0  0  0  0  0  0  0  0  0
    1.5803   16.9705   38.1364 H   0  0  0  0  0  0  0  0  0  0  0  0
    3.9976   16.1617   39.3418 H   0  0  0  0  0  0  0  0  0  0  0  0
    3.2306   16.8452   37.5426 H   0  0  0  0  0  0  0  0  0  0  0  0
    0.5126   21.7583   40.9091 H   0  0  0  0  0  0  0  0  0  0  0  0
    2.2948   21.6231   41.3555 H   0  0  0  0  0  0  0  0  0  0  0  0
    4.9059   14.4523   35.5520 H   0  0  0  0  0  0  0  0  0  0  0  0
    3.9095   12.2911   36.9638 H   0  0  0  0  0  0  0  0  0  0  0  0
    0.2403   16.7216   40.9847 H   0  0  0  0  0  0  0  0  0  0  0  0
    1.6319   17.1085   42.0622 H   0  0  0  0  0  0  0  0  0  0  0  0
    1.7695   21.8687   34.8485 H   0  0  0  0  0  0  0  0  0  0  0  0
    4.2889   22.5883   33.9610 H   0  0  0  0  0  0  0  0  0  0  0  0
    2.7262   22.1536   33.1625 H   0  0  0  0  0  0  0  0  0  0  0  0
    2.6030   21.5574   38.2624 H   0  0  0  0  0  0  0  0  0  0  0  0
    4.8522   27.6266   29.2373 H   0  0  0  0  0  0  0  0  0  0  0  0
    5.5024   26.2053   30.3267 H   0  0  0  0  0  0  0  0  0  0  0  0
    4.8266   26.4401   28.0796 H   0  0  0  0  0  0  0  0  0  0  0  0
    3.5047   25.6494   29.4154 H   0  0  0  0  0  0  0  0  0  0  0  0
    2.4845   21.5131   39.5133 H   0  0  0  0  0  0  0  0  0  0  0  0
    0.6930   20.8236   39.3537 H   0  0  0  0  0  0  0  0  0  0  0  0
    2.5230   12.0183   34.3848 H   0  0  0  0  0  0  0  0  0  0  0  0
    3.3495   13.1406   33.7293 H   0  0  0  0  0  0  0  0  0  0  0  0
    2.8265   20.1531   35.4953 H   0  0  0  0  0  0  0  0  0  0  0  0
    4.2079   21.0014   36.1668 H   0  0  0  0  0  0  0  0  0  0  0  0
    2.8359   13.8862   40.1410 H   0  0  0  0  0  0  0  0  0  0  0  0
    2.1991   27.6316   30.0786 H   0  0  0  0  0  0  0  0  0  0  0  0
    3.1231   24.0404   32.5110 H   0  0  0  0  0  0  0  0  0  0  0  0
    3.5622   24.4213   34.4859 H   0  0  0  0  0  0  0  0  0  0  0  0
    2.3322   25.0444   30.0008 H   0  0  0  0  0  0  0  0  0  0  0  0
    3.8476   25.7855   29.5600 H   0  0  0  0  0  0  0  0  0  0  0  0
  1 31  1  0
  2 16  1  0
  2 18  1  0
  6 12  1  0
  7 17  1  0
  7 10  1  0
  8 30  1  0
  8  6  1  0
 10 15  1  0
 13  9  1  0
 14  5  1  0
 16 35  1  0
 17 18  1  0
 17 40  1  0
 19 15  1  0
 20 32  1  0
 20  7  1  0
 21  3  1  0
 21  2  1  0
 22 26  2  0
 23 21  1  0
 24  4  1  0
 25 27  1  0
 25 34  1  0
 25 13  1  0
 26 20  1  0
 28  6  1  0
 28 12  1  0
 28 14  1  1
 29  9  1  0
 29 26  1  0
 31 30  1  0
 32 19  1  0
 33 36  1  0
 33 23  1  0
 34 29  1  0
 36 23  1  0
 37 39  1  0
 37  8  1  0
 37 28  1  0
 38  5  1  0
 38 27  1  0
 39 11  1  0
 40 24  1  0
  1 41  1  0
  1 42  1  0
  1 43  1  0
  2 44  1  1
  3 45  1  0
  4 46  1  0
  4 47  1  0
  4 48  1  0
  5 49  1  0
  5 50  1  0
  6 51  1  1
  7 52  1  6
  8 53  1  6
  9 54  1  0
  9 55  1  0
 10 56  1  0
 10 57  1  0
 11 58  1  0
 11 59  1  0
 11 60  1  0
 12 61  1  0
 12 62  1  0
 13 63  1  0
 13 64  1  0
 14 65  1  0
 14 66  1  0
 15 67  1  0
 15 68  1  0
 16 69  1  0
 16 70  1  0
 17 71  1  6
 18 72  1  0
 18 73  1  0
 19 74  1  0
 19 75  1  0
 21 76  1  6
 23 77  1  1
 24 78  1  0
 24 79  1  0
 25 80  1  1
 27 81  1  0
 27 82  1  0
 29 83  1  1
 30 84  1  0
 30 85  1  0
 31 86  1  0
 31 87  1  0
 32 88  1  0
 32 89  1  0
 33 90  1  0
 33 91  1  0
 34 92  1  0
 34 93  1  0
 35 94  1  0
 37 95  1  6
 38 96  1  0
 38 97  1  0
 39 98  1  0
 39 99  1  0
M  CHG  1  39   1
M  END
>  <mol_id>  (13) 
2026-09-18-3war-s0-n100-0013

>  <rmsd_to_ref>  (13) 


$$$$

     RDKit          3D

 76 79  0  0  0  0  0  0  0  0999 V2000
    0.1370   19.5780   42.2930 C   0  0  0  0  0  0  0  0  0  0  0  0
    3.5320   21.8840   32.1760 C   0  0  0  0  0  0  0  0  0  0  0  0
    0.9330   18.4640   42.1210 C   0  0  0  0  0  0  0  0  0  0  0  0
    3.2550   12.9070   36.0630 O   0  0  0  0  0  0  0  0  0  0  0  0
    3.6610   17.7590   37.7840 C   0  0  0  0  0  0  0  0  0  0  0  0
    3.3910   14.2600   37.5160 O   0  0  0  0  0  0  0  0  0  0  0  0
    1.5400   21.3160   39.1940 C   0  0  0  0  0  0  0  0  0  0  0  0
    3.9540   25.6470   31.7140 C   0  0  0  0  0  0  0  0  0  0  0  0
    3.1600   16.4780   38.1250 C   0  0  1  0  0  0  0  0  0  0  0  0
    2.7590   25.4800   31.7440 O   0  0  0  0  0  0  0  0  0  0  0  0
    2.9960   20.8790   35.7670 C   0  0  0  0  0  0  0  0  0  0  0  0
    3.7750   15.4260   37.2350 C   0  0  0  0  0  0  0  0  0  0  0  0
    1.7370   24.8150   29.0680 C   0  0  1  0  0  0  0  0  0  0  0  0
    3.7840   19.7770   36.6310 C   0  0  0  0  0  0  0  0  0  0  0  0
    3.5640   13.1090   36.8890 C   0  0  0  0  0  0  0  0  0  0  0  0
    2.0370   26.4640   31.0180 C   0  0  2  0  0  0  0  0  0  0  0  0
    2.0080   23.8190   29.7750 C   0  0  0  0  0  0  0  0  0  0  0  0
    0.6120   25.8120   29.1720 C   0  0  0  0  0  0  0  0  0  0  0  0
    4.4230   24.0290   31.2280 C   0  0  1  0  0  0  0  0  0  0  0  0
    2.5290   18.5480   39.3970 N   0  0  0  0  0  0  0  0  0  0  0  0
    2.2520   20.6550   38.1750 N   0  0  0  0  0  0  0  0  0  0  0  0
    3.0330   19.3410   38.1210 C   0  0  2  0  0  0  0  0  0  0  0  0
    2.1470   19.2150   40.3030 C   0  0  0  0  0  0  0  0  0  0  0  0
    3.7970   23.3370   32.3770 C   0  0  0  0  0  0  0  0  0  0  0  0
    3.0270   24.8110   29.1680 C   0  0  2  0  0  0  0  0  0  0  0  0
    2.7450   15.9230   39.1780 C   0  0  0  0  0  0  0  0  0  0  0  0
    1.1140   27.2550   31.8410 C   0  0  0  0  0  0  0  0  0  0  0  0
    2.1170   18.6020   41.3580 N   0  0  0  0  0  0  0  0  0  0  0  0
    1.4100   20.2910   40.2890 C   0  0  1  0  0  0  0  0  0  0  0  0
    0.4610   20.5250   41.4760 C   0  0  0  0  0  0  0  0  0  0  0  0
    2.2870   15.4350   40.0970 N   0  0  0  0  0  0  0  0  0  0  0  0
    0.5850   26.4060   30.6400 C   0  0  2  0  0  0  0  0  0  0  0  0
    4.2860   24.3790   29.8940 C   0  0  0  0  0  0  0  0  0  0  0  0
   -0.9120   19.2978   42.1167 H   0  0  0  0  0  0  0  0  0  0  0  0
    0.2781   19.9463   43.3199 H   0  0  0  0  0  0  0  0  0  0  0  0
    3.4417   21.3890   33.1542 H   0  0  0  0  0  0  0  0  0  0  0  0
    2.5958   21.7565   31.6127 H   0  0  0  0  0  0  0  0  0  0  0  0
    4.3629   21.4342   31.6127 H   0  0  0  0  0  0  0  0  0  0  0  0
    1.2281   18.1158   43.1218 H   0  0  0  0  0  0  0  0  0  0  0  0
    0.3104   17.7704   41.5369 H   0  0  0  0  0  0  0  0  0  0  0  0
    3.7372   17.7313   36.6870 H   0  0  0  0  0  0  0  0  0  0  0  0
    4.4906   17.7813   38.5060 H   0  0  0  0  0  0  0  0  0  0  0  0
    2.0964   22.1959   39.5492 H   0  0  0  0  0  0  0  0  0  0  0  0
    0.5631   21.6860   38.8493 H   0  0  0  0  0  0  0  0  0  0  0  0
    4.2491   26.4051   30.9736 H   0  0  0  0  0  0  0  0  0  0  0  0
    4.4100   26.0203   32.6428 H   0  0  0  0  0  0  0  0  0  0  0  0
    2.1924   17.0011   38.1140 H   0  0  0  0  0  0  0  0  0  0  0  0
    2.4918   21.5841   36.4442 H   0  0  0  0  0  0  0  0  0  0  0  0
    3.7089   21.4261   35.1326 H   0  0  0  0  0  0  0  0  0  0  0  0
    2.2478   20.3813   35.1326 H   0  0  0  0  0  0  0  0  0  0  0  0
    3.5003   15.6442   36.1924 H   0  0  0  0  0  0  0  0  0  0  0  0
    4.8638   15.4604   37.3876 H   0  0  0  0  0  0  0  0  0  0  0  0
    1.1411   24.9905   28.1602 H   0  0  0  0  0  0  0  0  0  0  0  0
    3.8791   18.8682   36.0187 H   0  0  0  0  0  0  0  0  0  0  0  0
    4.7507   20.2298   36.8964 H   0  0  0  0  0  0  0  0  0  0  0  0
    4.1328   12.3296   37.4172 H   0  0  0  0  0  0  0  0  0  0  0  0
    2.9065   26.6181   30.3621 H   0  0  0  0  0  0  0  0  0  0  0  0
    1.7948   23.8157   30.8541 H   0  0  0  0  0  0  0  0  0  0  0  0
    1.8202   22.7353   29.7573 H   0  0  0  0  0  0  0  0  0  0  0  0
    0.7711   26.6247   28.4480 H   0  0  0  0  0  0  0  0  0  0  0  0
   -0.3455   25.3167   28.9533 H   0  0  0  0  0  0  0  0  0  0  0  0
    5.2389   23.2972   31.1340 H   0  0  0  0  0  0  0  0  0  0  0  0
    1.5478   20.5408   37.4321 H   0  0  0  0  0  0  0  0  0  0  0  0
    3.0804   21.2658   38.2151 H   0  0  0  0  0  0  0  0  0  0  0  0
    2.8378   23.8314   32.5904 H   0  0  0  0  0  0  0  0  0  0  0  0
    4.5196   23.4037   33.2037 H   0  0  0  0  0  0  0  0  0  0  0  0
    3.6442   25.5013   28.5743 H   0  0  0  0  0  0  0  0  0  0  0  0
    0.8935   26.9474   32.8739 H   0  0  0  0  0  0  0  0  0  0  0  0
    1.0443   28.3103   32.1433 H   0  0  0  0  0  0  0  0  0  0  0  0
    2.9848   18.1695   41.7056 H   0  0  0  0  0  0  0  0  0  0  0  0
    0.6463   19.7603   39.7015 H   0  0  0  0  0  0  0  0  0  0  0  0
    0.9226   21.3142   42.0877 H   0  0  0  0  0  0  0  0  0  0  0  0
   -0.4942   20.7288   40.9699 H   0  0  0  0  0  0  0  0  0  0  0  0
   -0.4992   26.2365   30.5635 H   0  0  0  0  0  0  0  0  0  0  0  0
    4.6408   23.4992   29.3372 H   0  0  0  0  0  0  0  0  0  0  0  0
    4.8032   25.3494   29.9224 H   0  0  0  0  0  0  0  0  0  0  0  0
  2 24  1  0
  3  1  1  0
  4 15  2  0
 22  5  1  6
  5  9  1  0
  8 10  1  0
  9 12  1  0
  9 26  1  0
 11 14  1  0
 12  6  1  0
 13 25  1  0
 13 18  1  0
 13 17  1  0
 15  6  1  0
 16 10  1  0
 16 27  1  0
 19  8  1  0
 19 24  1  0
 20 23  2  0
 21  7  1  0
 22 14  1  0
 22 21  1  0
 22 20  1  0
 23 28  1  0
 25 17  1  0
 25 33  1  0
 26 31  3  0
 28  3  1  0
 29  7  1  0
 29 23  1  0
 29 30  1  0
 30  1  1  0
 32 18  1  0
 32 16  1  0
 32 27  1  0
 33 19  1  0
  1 34  1  0
  1 35  1  0
  2 36  1  0
  2 37  1  0
  2 38  1  0
  3 39  1  0
  3 40  1  0
  5 41  1  0
  5 42  1  0
  7 43  1  0
  7 44  1  0
  8 45  1  0
  8 46  1  0
  9 47  1  6
 11 48  1  0
 11 49  1  0
 11 50  1  0
 12 51  1  0
 12 52  1  0
 13 53  1  6
 14 54  1  0
 14 55  1  0
 15 56  1  0
 16 57  1  6
 17 58  1  0
 17 59  1  0
 18 60  1  0
 18 61  1  0
 19 62  1  6
 21 63  1  0
 21 64  1  0
 24 65  1  0
 24 66  1  0
 25 67  1  6
 27 68  1  0
 27 69  1  0
 28 70  1  0
 29 71  1  6
 30 72  1  0
 30 73  1  0
 32 74  1  1
 33 75  1  0
 33 76  1  0
M  CHG  1  21   1
M  END
>  <mol_id>  (14) 
2026-09-18-3war-s0-n100-0014

>  <rmsd_to_ref>  (14) 


$$$$

     RDKit          3D

 44 45  0  0  0  0  0  0  0  0999 V2000
    2.7523   19.7277   37.6597 C   0  0  0  0  0  0  0  0  0  0  0  0
    2.4279   24.2993   34.5638 C   0  0  0  0  0  0  0  0  0  0  0  0
    1.0792   14.8600   36.0917 N   0  0  0  0  0  0  0  0  0  0  0  0
    1.4970   21.3311   41.0599 C   0  0  0  0  0  0  0  0  0  0  0  0
    3.8501   17.6626   38.8424 C   0  0  0  0  0  0  0  0  0  0  0  0
    2.4901   14.9510   36.4259 C   0  0  0  0  0  0  0  0  0  0  0  0
    1.3814   26.5122   34.1740 C   0  0  0  0  0  0  0  0  0  0  0  0
    1.2098   19.1577   42.1325 C   0  0  0  0  0  0  0  0  0  0  0  0
    2.1904   20.7117   39.9812 C   0  0  0  0  0  0  0  0  0  0  0  0
    2.2522   24.9669   35.7107 N   0  0  0  0  0  0  0  0  0  0  0  0
    3.1619   23.1117   34.2238 N   0  0  0  0  0  0  0  0  0  0  0  0
    3.0416   21.8885   34.7526 N   0  0  0  0  0  0  0  0  0  0  0  0
    1.6678   26.2693   35.4784 C   0  0  0  0  0  0  0  0  0  0  0  0
    2.4826   21.9339   36.0161 C   0  0  0  0  0  0  0  0  0  0  0  0
    3.7863   14.8795   35.2782 S   0  0  0  0  0  0  0  0  0  0  0  0
    2.8115   15.6573   37.6892 C   0  0  0  0  0  0  0  0  0  0  0  0
    2.4265   19.3172   40.0425 C   0  0  0  0  0  0  0  0  0  0  0  0
    2.9516   18.8836   38.7104 C   0  0  0  0  0  0  0  0  0  0  0  0
    0.9588   20.5241   42.0879 C   0  0  0  0  0  0  0  0  0  0  0  0
    1.7080   25.0548   33.2256 S   0  0  0  0  0  0  0  0  0  0  0  0
    1.9658   18.5307   41.0850 C   0  0  0  0  0  0  0  0  0  0  0  0
    3.7954   16.6746   37.6787 C   0  0  0  0  0  0  0  0  0  0  0  0
    2.4355   20.5831   36.5888 C   0  0  0  0  0  0  0  0  0  0  0  0
    1.0656   27.7555   33.5016 C   0  0  0  0  0  0  0  0  0  0  0  0
    0.7842   14.3826   35.2280 H   0  0  0  0  0  0  0  0  0  0  0  0
    0.3738   15.2730   36.7185 H   0  0  0  0  0  0  0  0  0  0  0  0
    1.3816   22.4246   41.0926 H   0  0  0  0  0  0  0  0  0  0  0  0
    4.8877   18.0148   38.9391 H   0  0  0  0  0  0  0  0  0  0  0  0
    3.4835   17.1127   39.7218 H   0  0  0  0  0  0  0  0  0  0  0  0
    0.8291   18.5561   42.9710 H   0  0  0  0  0  0  0  0  0  0  0  0
    2.5348   21.3033   39.1201 H   0  0  0  0  0  0  0  0  0  0  0  0
    3.8682   23.2148   33.4812 H   0  0  0  0  0  0  0  0  0  0  0  0
    2.4406   21.3176   34.1413 H   0  0  0  0  0  0  0  0  0  0  0  0
    1.4737   26.9943   36.2826 H   0  0  0  0  0  0  0  0  0  0  0  0
    3.0921   22.5831   36.6618 H   0  0  0  0  0  0  0  0  0  0  0  0
    1.4604   22.3343   35.9464 H   0  0  0  0  0  0  0  0  0  0  0  0
    2.2920   15.3942   38.6224 H   0  0  0  0  0  0  0  0  0  0  0  0
    0.3313   20.9847   42.8651 H   0  0  0  0  0  0  0  0  0  0  0  0
    2.1741   17.4509   41.1099 H   0  0  0  0  0  0  0  0  0  0  0  0
    4.5096   16.7525   36.8456 H   0  0  0  0  0  0  0  0  0  0  0  0
    1.9200   19.9576   35.8452 H   0  0  0  0  0  0  0  0  0  0  0  0
    1.0316   28.5721   34.2378 H   0  0  0  0  0  0  0  0  0  0  0  0
    1.8384   27.9721   32.7492 H   0  0  0  0  0  0  0  0  0  0  0  0
    0.0871   27.6667   33.0070 H   0  0  0  0  0  0  0  0  0  0  0  0
  1 18  2  0
  2 10  2  0
  3  6  1  0
  4 19  2  0
  6 16  1  0
  7 13  2  0
  9 17  2  0
  9  4  1  0
 11  2  1  0
 11 12  1  0
 12 14  1  0
 13 10  1  0
 14 23  1  0
 15  6  2  0
 16 22  2  3
 17 21  1  0
 18  5  1  0
 18 17  1  0
 19  8  1  0
 20  7  1  0
 20  2  1  0
 21  8  2  0
 22  5  1  0
 23  1  2  0
 24  7  1  0
  3 25  1  0
  3 26  1  0
  4 27  1  0
  5 28  1  0
  5 29  1  0
  8 30  1  0
  9 31  1  0
 11 32  1  0
 12 33  1  0
 13 34  1  0
 14 35  1  0
 14 36  1  0
 16 37  1  0
 19 38  1  0
 21 39  1  0
 22 40  1  0
 23 41  1  0
 24 42  1  0
 24 43  1  0
 24 44  1  0
M  END
>  <mol_id>  (15) 
2026-09-18-3war-s0-n100-0015

>  <rmsd_to_ref>  (15) 


$$$$

     RDKit          3D

 50 54  0  0  0  0  0  0  0  0999 V2000
    1.8650   22.7610   33.9640 C   0  0  0  0  0  0  0  0  0  0  0  0
    1.9890   19.4970   37.2780 O   0  0  0  0  0  0  0  0  0  0  0  0
    4.3470   17.4690   37.8850 O   0  0  0  0  0  0  0  0  0  0  0  0
    1.1940   24.6750   31.9780 C   0  0  0  0  0  0  0  0  0  0  0  0
    1.3640   21.8170   34.5950 C   0  0  0  0  0  0  0  0  0  0  0  0
    2.6360   27.1070   30.4730 O   0  0  0  0  0  0  0  0  0  0  0  0
    2.3330   23.0540   32.8370 C   0  0  0  0  0  0  0  0  0  0  0  0
    0.9400   20.1540   41.3210 C   0  0  0  0  0  0  0  0  0  0  0  0
    3.4270   17.9380   38.4470 C   0  0  0  0  0  0  0  0  0  0  0  0
    2.7070   19.2400   38.3100 C   0  0  0  0  0  0  0  0  0  0  0  0
    1.6350   23.7440   32.7660 C   0  0  0  0  0  0  0  0  0  0  0  0
    1.9750   26.3690   30.1210 C   0  0  1  0  0  0  0  0  0  0  0  0
    1.0490   17.7590   42.2070 C   0  0  0  0  0  0  0  0  0  0  0  0
    2.7270   19.7810   39.6730 C   0  0  1  0  0  0  0  0  0  0  0  0
    1.3740   18.8410   41.2490 C   0  0  1  0  0  0  0  0  0  0  0  0
    2.9260   17.5480   39.6740 C   0  0  1  0  0  0  0  0  0  0  0  0
    1.6550   21.0140   40.0420 S   0  0  0  0  0  0  0  0  0  0  0  0
    3.1490   26.5220   29.7120 C   0  0  2  0  0  0  0  0  0  0  0  0
    3.9720   23.4970   31.2830 C   0  0  0  0  0  0  0  0  0  0  0  0
    3.4920   22.6410   31.8600 C   0  0  0  0  0  0  0  0  0  0  0  0
    2.2200   18.6720   40.2450 N   0  0  0  0  0  0  0  0  0  0  0  0
    4.0840   25.7000   29.9950 C   0  0  0  0  0  0  0  0  0  0  0  0
    3.0270   14.8640   39.2560 C   0  0  0  0  0  0  0  0  0  0  0  0
    3.4240   24.8700   30.9100 C   0  0  0  0  0  0  0  0  0  0  0  0
    1.9540   25.2580   31.0580 C   0  0  0  0  0  0  0  0  0  0  0  0
    1.6320   15.3310   39.1800 O   0  0  0  0  0  0  0  0  0  0  0  0
    2.6870   16.0650   39.4050 C   0  0  1  0  0  0  0  0  0  0  0  0
    1.9166   23.6447   34.6171 H   0  0  0  0  0  0  0  0  0  0  0  0
    0.1462   24.9953   32.0758 H   0  0  0  0  0  0  0  0  0  0  0  0
    1.0557   21.9571   35.6416 H   0  0  0  0  0  0  0  0  0  0  0  0
    1.2283   20.8402   34.1077 H   0  0  0  0  0  0  0  0  0  0  0  0
   -0.1555   20.1906   41.2291 H   0  0  0  0  0  0  0  0  0  0  0  0
    1.2244   20.5981   42.2863 H   0  0  0  0  0  0  0  0  0  0  0  0
    1.8208   24.3211   33.6839 H   0  0  0  0  0  0  0  0  0  0  0  0
    0.9128   23.0178   32.3648 H   0  0  0  0  0  0  0  0  0  0  0  0
    0.9618   26.3300   29.6946 H   0  0  0  0  0  0  0  0  0  0  0  0
    1.1615   18.1336   43.2351 H   0  0  0  0  0  0  0  0  0  0  0  0
    0.0119   17.4283   42.0486 H   0  0  0  0  0  0  0  0  0  0  0  0
    1.7323   16.9116   42.0486 H   0  0  0  0  0  0  0  0  0  0  0  0
    3.7022   20.2129   39.9422 H   0  0  0  0  0  0  0  0  0  0  0  0
    2.2614   19.1017   41.8445 H   0  0  0  0  0  0  0  0  0  0  0  0
    3.3507   17.4152   40.6800 H   0  0  0  0  0  0  0  0  0  0  0  0
    3.6666   26.6969   28.7573 H   0  0  0  0  0  0  0  0  0  0  0  0
    4.9982   23.3017   30.9385 H   0  0  0  0  0  0  0  0  0  0  0  0
    3.8172   21.5969   31.7416 H   0  0  0  0  0  0  0  0  0  0  0  0
    4.4172   25.1422   29.1074 H   0  0  0  0  0  0  0  0  0  0  0  0
    5.0039   26.1656   30.3783 H   0  0  0  0  0  0  0  0  0  0  0  0
    3.5594   14.5415   38.3490 H   0  0  0  0  0  0  0  0  0  0  0  0
    3.5877   14.1155   39.8351 H   0  0  0  0  0  0  0  0  0  0  0  0
    2.8017   16.2316   38.3238 H   0  0  0  0  0  0  0  0  0  0  0  0
  1  5  2  3
  2 10  2  0
  3  9  2  0
  4 11  1  0
  7  1  1  0
 10  9  1  0
 11  7  1  0
 12  6  1  0
 12 25  1  0
 14 10  1  0
 14 17  1  0
 14 21  1  0
 15  8  1  0
 15 13  1  0
 16  9  1  0
 16 21  1  0
 17  8  1  0
 18 22  1  0
 18 12  1  0
 18  6  1  0
 19 20  1  0
 20  7  2  0
 21 15  1  0
 22 24  1  0
 23 27  1  0
 24 25  1  0
 24 19  2  0
 25  4  2  0
 26 23  1  0
 26 27  1  0
 27 16  1  0
  1 28  1  0
  4 29  1  0
  5 30  1  0
  5 31  1  0
  8 32  1  0
  8 33  1  0
 11 34  1  0
 11 35  1  0
 12 36  1  6
 13 37  1  0
 13 38  1  0
 13 39  1  0
 14 40  1  1
 15 41  1  6
 16 42  1  1
 18 43  1  6
 19 44  1  0
 20 45  1  0
 22 46  1  0
 22 47  1  0
 23 48  1  0
 23 49  1  0
 27 50  1  6
M  END
>  <mol_id>  (16) 
2026-09-18-3war-s0-n100-0016

>  <rmsd_to_ref>  (16) 


$$$$

     RDKit          3D

 83 88  0  0  0  0  0  0  0  0999 V2000
    1.3110   26.6730   32.6350 C   0  0  2  0  0  0  0  0  0  0  0  0
    2.6130   23.0340   34.4370 C   0  0  0  0  0  0  0  0  0  0  0  0
    3.1210   24.3770   33.4820 C   0  0  2  0  0  0  0  0  0  0  0  0
    3.6810   24.8570   32.1070 C   0  0  1  0  0  0  0  0  0  0  0  0
    0.1530   19.6300   42.3360 C   0  0  0  0  0  0  0  0  0  0  0  0
    2.2900   18.3760   39.2660 C   0  0  1  0  0  0  0  0  0  0  0  0
    3.1050   15.5560   38.3040 C   0  0  1  0  0  0  0  0  0  0  0  0
    1.0290   18.7200   41.5330 C   0  0  0  0  0  0  0  0  0  0  0  0
    2.7940   21.2260   36.2990 C   0  0  0  0  0  0  0  0  0  0  0  0
   -1.0370   21.6740   42.6920 O   0  0  0  0  0  0  0  0  0  0  0  0
    3.9300   13.1560   38.2280 C   0  0  0  0  0  0  0  0  0  0  0  0
    0.0890   21.0330   41.9710 C   0  0  0  0  0  0  0  0  0  0  0  0
    4.5730   23.5900   33.0340 C   0  0  1  0  0  0  0  0  0  0  0  0
    1.9910   28.4080   34.3440 C   0  0  0  0  0  0  0  0  0  0  0  0
    2.6570   18.9440   37.8280 C   0  0  0  0  0  0  0  0  0  0  0  0
    4.9880   24.5820   31.8900 C   0  0  0  0  0  0  0  0  0  0  0  0
    1.6370   19.3560   40.2010 C   0  0  0  0  0  0  0  0  0  0  0  0
    4.4390   27.5380   34.3130 C   0  0  0  0  0  0  0  0  0  0  0  0
    1.9640   16.7990   40.0140 C   0  0  0  0  0  0  0  0  0  0  0  0
    0.8260   26.4500   30.9610 C   0  0  0  0  0  0  0  0  0  0  0  0
    3.6940   16.7910   37.6160 C   0  0  0  0  0  0  0  0  0  0  0  0
    1.5660   20.6520   39.8380 C   0  0  0  0  0  0  0  0  0  0  0  0
    2.1700   29.2700   35.2480 O   0  0  0  0  0  0  0  0  0  0  0  0
    2.5990   14.1600   36.3640 N   0  0  0  0  0  0  0  0  0  0  0  0
    1.1130   21.6350   40.8210 C   0  0  0  0  0  0  0  0  0  0  0  0
    1.9620   21.0800   38.5400 C   0  0  0  0  0  0  0  0  0  0  0  0
    2.4280   20.3800   37.4350 C   0  0  0  0  0  0  0  0  0  0  0  0
    2.7780   13.0370   35.7270 C   0  0  0  0  0  0  0  0  0  0  0  0
    3.8110   12.0700   35.7530 N   0  0  0  0  0  0  0  0  0  0  0  0
    1.7890   12.7760   34.6600 N   0  0  0  0  0  0  0  0  0  0  0  0
    3.5500   26.3690   31.8510 C   0  0  1  0  0  0  0  0  0  0  0  0
    0.5560   27.8910   33.5790 S   0  0  0  0  0  0  0  0  0  0  0  0
    3.2170   14.2790   37.5340 C   0  0  2  0  0  0  0  0  0  0  0  0
    3.1520   27.4890   33.8210 C   0  0  2  0  0  0  0  0  0  0  0  0
    2.6390   26.9410   32.6920 N   0  0  0  0  0  0  0  0  0  0  0  0
    2.6150   15.4220   39.7880 C   0  0  0  0  0  0  0  0  0  0  0  0
    4.9570   12.3730   37.0760 S   0  0  0  0  0  0  0  0  0  0  0  0
    3.1720   22.0940   35.4120 C   0  0  0  0  0  0  0  0  0  0  0  0
    4.5730   27.1840   31.2670 C   0  0  0  0  0  0  0  0  0  0  0  0
    0.9888   25.7182   33.0761 H   0  0  0  0  0  0  0  0  0  0  0  0
    2.2221   22.3506   33.6688 H   0  0  0  0  0  0  0  0  0  0  0  0
    2.1856   23.6790   35.2189 H   0  0  0  0  0  0  0  0  0  0  0  0
    2.4192   25.0928   33.9350 H   0  0  0  0  0  0  0  0  0  0  0  0
   -0.4300   19.2434   43.1849 H   0  0  0  0  0  0  0  0  0  0  0  0
    3.2837   18.0652   38.9112 H   0  0  0  0  0  0  0  0  0  0  0  0
    2.2924   16.2907   38.4037 H   0  0  0  0  0  0  0  0  0  0  0  0
    1.8671   18.4046   42.1719 H   0  0  0  0  0  0  0  0  0  0  0  0
    0.3857   17.8896   41.2066 H   0  0  0  0  0  0  0  0  0  0  0  0
   -1.2260   22.6366   42.5590 H   0  0  0  0  0  0  0  0  0  0  0  0
    4.5350   13.5543   39.0559 H   0  0  0  0  0  0  0  0  0  0  0  0
    3.2025   12.4394   38.6370 H   0  0  0  0  0  0  0  0  0  0  0  0
    5.0862   22.7363   33.5006 H   0  0  0  0  0  0  0  0  0  0  0  0
    3.7332   18.7601   37.6941 H   0  0  0  0  0  0  0  0  0  0  0  0
    1.9298   18.4204   37.1901 H   0  0  0  0  0  0  0  0  0  0  0  0
    5.7144   25.3671   32.1469 H   0  0  0  0  0  0  0  0  0  0  0  0
    5.4736   24.3390   30.9334 H   0  0  0  0  0  0  0  0  0  0  0  0
    4.4114   27.5370   35.4127 H   0  0  0  0  0  0  0  0  0  0  0  0
    5.0004   26.6606   33.9594 H   0  0  0  0  0  0  0  0  0  0  0  0
    4.9320   28.4556   33.9594 H   0  0  0  0  0  0  0  0  0  0  0  0
    2.1031   16.9833   41.0895 H   0  0  0  0  0  0  0  0  0  0  0  0
    1.0211   16.5913   39.4869 H   0  0  0  0  0  0  0  0  0  0  0  0
   -0.1729   25.9907   30.9267 H   0  0  0  0  0  0  0  0  0  0  0  0
    0.7984   27.4259   30.4541 H   0  0  0  0  0  0  0  0  0  0  0  0
    1.5489   25.7938   30.4541 H   0  0  0  0  0  0  0  0  0  0  0  0
    4.0356   17.5072   38.3778 H   0  0  0  0  0  0  0  0  0  0  0  0
    4.5454   16.4898   36.9880 H   0  0  0  0  0  0  0  0  0  0  0  0
    2.9241   17.2630   36.9880 H   0  0  0  0  0  0  0  0  0  0  0  0
    1.9979   22.0451   41.3297 H   0  0  0  0  0  0  0  0  0  0  0  0
    0.5458   22.3955   40.2643 H   0  0  0  0  0  0  0  0  0  0  0  0
    1.0738   21.6049   38.1583 H   0  0  0  0  0  0  0  0  0  0  0  0
    2.9322   21.5039   38.8383 H   0  0  0  0  0  0  0  0  0  0  0  0
    3.8887   11.2877   35.0875 H   0  0  0  0  0  0  0  0  0  0  0  0
    0.9862   13.4092   34.5359 H   0  0  0  0  0  0  0  0  0  0  0  0
    1.9027   11.9609   34.0406 H   0  0  0  0  0  0  0  0  0  0  0  0
    3.1842   26.3538   30.8137 H   0  0  0  0  0  0  0  0  0  0  0  0
    2.2858   14.0087   38.0534 H   0  0  0  0  0  0  0  0  0  0  0  0
    3.7889   26.7403   34.3148 H   0  0  0  0  0  0  0  0  0  0  0  0
    1.8841   14.6075   39.8991 H   0  0  0  0  0  0  0  0  0  0  0  0
    3.4114   15.1761   40.5058 H   0  0  0  0  0  0  0  0  0  0  0  0
    4.2707   22.1389   35.3822 H   0  0  0  0  0  0  0  0  0  0  0  0
    5.1656   27.6561   32.0645 H   0  0  0  0  0  0  0  0  0  0  0  0
    5.2292   26.5584   30.6440 H   0  0  0  0  0  0  0  0  0  0  0  0
    4.1099   27.9634   30.6440 H   0  0  0  0  0  0  0  0  0  0  0  0
  1 20  1  0
  1 35  1  0
  1 32  1  0
  2 38  1  0
  3  2  1  0
  4 31  1  0
  4 13  1  0
  4  3  1  0
  6 19  1  0
  6 17  1  0
  7 21  1  0
  7 36  1  0
  8  5  1  0
  9 27  2  0
 12  5  2  0
 12 10  1  0
 13 16  1  0
 13  3  1  0
 14 23  2  0
 15  6  1  0
  4 16  1  6
 17  8  1  0
 22 17  2  0
 22 25  1  0
 24 33  1  0
 25 12  1  0
 26 22  1  0
 27 15  1  0
 27 26  1  0
 28 29  1  0
 28 24  2  0
 29 37  1  0
 30 28  1  0
 31 39  1  0
 31 35  1  0
 32 14  1  0
 33 11  1  0
 33  7  1  0
 34 18  1  0
 34 14  1  0
 35 34  1  0
 36 19  1  0
 37 11  1  0
 38  9  2  0
  1 40  1  1
  2 41  1  0
  2 42  1  0
  3 43  1  1
  5 44  1  0
  6 45  1  1
  7 46  1  6
  8 47  1  0
  8 48  1  0
 10 49  1  0
 11 50  1  0
 11 51  1  0
 13 52  1  6
 15 53  1  0
 15 54  1  0
 16 55  1  0
 16 56  1  0
 18 57  1  0
 18 58  1  0
 18 59  1  0
 19 60  1  0
 19 61  1  0
 20 62  1  0
 20 63  1  0
 20 64  1  0
 21 65  1  0
 21 66  1  0
 21 67  1  0
 25 68  1  0
 25 69  1  0
 26 70  1  0
 26 71  1  0
 29 72  1  0
 30 73  1  0
 30 74  1  0
 31 75  1  6
 33 76  1  6
 34 77  1  1
 36 78  1  0
 36 79  1  0
 38 80  1  0
 39 81  1  0
 39 82  1  0
 39 83  1  0
M  END
>  <mol_id>  (17) 
2026-09-18-3war-s0-n100-0017

>  <rmsd_to_ref>  (17) 


$$$$

     RDKit          3D

 39 39  0  0  0  0  0  0  0  0999 V2000
    3.6890   22.4570   32.2150 C   0  0  0  0  0  0  0  0  0  0  0  0
    0.4580   20.9580   41.7280 C   0  0  0  0  0  0  0  0  0  0  0  0
    2.5240   19.1560   36.3900 O   0  0  0  0  0  0  0  0  0  0  0  0
    2.2410   19.3020   41.3300 C   0  0  0  0  0  0  0  0  0  0  0  0
    3.4510   21.0490   35.5860 N   0  0  0  0  0  0  0  0  0  0  0  0
    3.0890   24.6650   30.9920 C   0  0  0  0  0  0  0  0  0  0  0  0
    2.8330   20.0520   38.9730 C   0  0  0  0  0  0  0  0  0  0  0  0
    4.0350   24.5380   30.5170 C   0  0  0  0  0  0  0  0  0  0  0  0
    1.8580   19.8810   40.0460 C   0  0  2  0  0  0  0  0  0  0  0  0
    2.7130   20.2820   36.4500 C   0  0  0  0  0  0  0  0  0  0  0  0
    3.9900   23.9700   31.6980 C   0  0  0  0  0  0  0  0  0  0  0  0
    2.1890   20.8680   37.8020 C   0  0  0  0  0  0  0  0  0  0  0  0
    1.4650   21.1660   40.7190 C   0  0  0  0  0  0  0  0  0  0  0  0
    3.6270   20.8500   34.1280 C   0  0  0  0  0  0  0  0  0  0  0  0
    4.0890   22.0950   33.4590 C   0  0  0  0  0  0  0  0  0  0  0  0
    1.2930   18.2270   41.5780 O   0  0  0  0  0  0  0  0  0  0  0  0
    3.1686   21.7383   31.5649 H   0  0  0  0  0  0  0  0  0  0  0  0
    0.9131   21.0520   42.7250 H   0  0  0  0  0  0  0  0  0  0  0  0
   -0.3357   21.7112   41.6147 H   0  0  0  0  0  0  0  0  0  0  0  0
    0.0277   19.9520   41.6147 H   0  0  0  0  0  0  0  0  0  0  0  0
    2.1785   20.0591   42.1256 H   0  0  0  0  0  0  0  0  0  0  0  0
    3.2771   18.9329   41.3150 H   0  0  0  0  0  0  0  0  0  0  0  0
    3.9396   21.8569   35.9977 H   0  0  0  0  0  0  0  0  0  0  0  0
    2.2103   24.1440   30.5841 H   0  0  0  0  0  0  0  0  0  0  0  0
    2.4813   25.5524   31.2228 H   0  0  0  0  0  0  0  0  0  0  0  0
    3.7095   20.5939   39.3579 H   0  0  0  0  0  0  0  0  0  0  0  0
    3.1440   19.0644   38.6017 H   0  0  0  0  0  0  0  0  0  0  0  0
    4.0957   23.8969   29.6252 H   0  0  0  0  0  0  0  0  0  0  0  0
    4.7373   25.2650   30.0830 H   0  0  0  0  0  0  0  0  0  0  0  0
    1.1658   19.2853   39.4328 H   0  0  0  0  0  0  0  0  0  0  0  0
    4.6453   23.9523   32.5813 H   0  0  0  0  0  0  0  0  0  0  0  0
    2.4756   21.9268   37.8846 H   0  0  0  0  0  0  0  0  0  0  0  0
    1.0923   20.7954   37.8473 H   0  0  0  0  0  0  0  0  0  0  0  0
    2.3554   21.6071   41.1908 H   0  0  0  0  0  0  0  0  0  0  0  0
    1.0476   21.8375   39.9542 H   0  0  0  0  0  0  0  0  0  0  0  0
    4.3723   20.0580   33.9629 H   0  0  0  0  0  0  0  0  0  0  0  0
    2.6542   20.5685   33.6986 H   0  0  0  0  0  0  0  0  0  0  0  0
    4.7872   22.7524   33.9979 H   0  0  0  0  0  0  0  0  0  0  0  0
    1.1832   18.1025   42.5540 H   0  0  0  0  0  0  0  0  0  0  0  0
  1 15  2  3
  3 10  2  0
  4 16  1  0
  5 10  1  0
  6 11  1  0
  8  6  1  0
  8 11  1  0
  9  7  1  0
  9 13  1  0
  9  4  1  0
 10 12  1  0
 11  1  1  0
 12  7  1  0
 13  2  1  0
 14  5  1  0
 15 14  1  0
  1 17  1  0
  2 18  1  0
  2 19  1  0
  2 20  1  0
  4 21  1  0
  4 22  1  0
  5 23  1  0
  6 24  1  0
  6 25  1  0
  7 26  1  0
  7 27  1  0
  8 28  1  0
  8 29  1  0
  9 30  1  6
 11 31  1  0
 12 32  1  0
 12 33  1  0
 13 34  1  0
 13 35  1  0
 14 36  1  0
 14 37  1  0
 15 38  1  0
 16 39  1  0
M  END
>  <mol_id>  (18) 
2026-09-18-3war-s0-n100-0018

>  <rmsd_to_ref>  (18) 


$$$$

     RDKit          3D

 67 69  0  0  0  0  0  0  0  0999 V2000
   -0.4470   19.6400   42.5570 N   0  0  0  0  0  0  0  0  0  0  0  0
    3.1350   24.1940   26.4790 C   0  0  0  0  0  0  0  0  0  0  0  0
    2.4090   17.5530   40.3640 N   0  0  0  0  0  0  0  0  0  0  0  0
    3.5400   24.2670   27.8610 C   0  0  2  0  0  0  0  0  0  0  0  0
   -1.0060   19.2780   43.8370 C   0  0  0  0  0  0  0  0  0  0  0  0
    3.6930   18.5360   38.0230 C   0  0  0  0  0  0  0  0  0  0  0  0
    2.5540   20.9180   36.1330 C   0  0  0  0  0  0  0  0  0  0  0  0
    3.1030   22.0060   35.1810 C   0  0  0  0  0  0  0  0  0  0  0  0
    3.0880   16.8080   39.5880 C   0  0  2  0  0  0  0  0  0  0  0  0
    1.0880   17.9510   42.6700 O   0  0  0  0  0  0  0  0  0  0  0  0
    5.8200   23.3430   27.4030 N   0  0  0  0  0  0  0  0  0  0  0  0
    1.4270   25.5510   29.0720 C   0  0  0  0  0  0  0  0  0  0  0  0
    3.5880   22.0910   32.8220 C   0  0  0  0  0  0  0  0  0  0  0  0
    1.2370   19.5010   40.7260 C   0  0  0  0  0  0  0  0  0  0  0  0
    4.0380   21.4720   34.0740 C   0  0  0  0  0  0  0  0  0  0  0  0
    1.9870   24.4390   26.1000 C   0  0  0  0  0  0  0  0  0  0  0  0
    2.0880   21.3610   37.4150 C   0  0  0  0  0  0  0  0  0  0  0  0
    0.6080   18.9920   42.0230 C   0  0  0  0  0  0  0  0  0  0  0  0
    2.0300   20.4890   38.6360 C   0  0  0  0  0  0  0  0  0  0  0  0
    2.1720   18.7060   40.0320 C   0  0  0  0  0  0  0  0  0  0  0  0
    4.9680   23.4540   29.8420 S   0  0  0  0  0  0  0  0  0  0  0  0
    3.4830   24.1800   30.1190 C   0  0  0  0  0  0  0  0  0  0  0  0
    1.0390   20.9420   39.9270 S   0  0  0  0  0  0  0  0  0  0  0  0
    2.7450   24.8290   29.0070 C   0  0  0  0  0  0  0  0  0  0  0  0
    2.7160   15.3920   39.5340 C   0  0  0  0  0  0  0  0  0  0  0  0
    4.1870   17.3170   38.7710 C   0  0  0  0  0  0  0  0  0  0  0  0
    1.9310   14.8550   39.9630 O   0  0  0  0  0  0  0  0  0  0  0  0
    3.0410   24.2270   31.5470 C   0  0  0  0  0  0  0  0  0  0  0  0
    4.8000   23.6950   28.2370 C   0  0  1  0  0  0  0  0  0  0  0  0
    3.6690   23.3870   32.4670 C   0  0  0  0  0  0  0  0  0  0  0  0
    2.6780   19.2800   38.8290 C   0  0  0  0  0  0  0  0  0  0  0  0
   -0.8684   20.4203   42.0331 H   0  0  0  0  0  0  0  0  0  0  0  0
    3.8850   23.9063   25.7275 H   0  0  0  0  0  0  0  0  0  0  0  0
    2.0623   17.1888   41.2629 H   0  0  0  0  0  0  0  0  0  0  0  0
    3.0446   23.3046   28.0570 H   0  0  0  0  0  0  0  0  0  0  0  0
   -0.3758   19.6861   44.6409 H   0  0  0  0  0  0  0  0  0  0  0  0
   -2.0224   19.6898   43.9229 H   0  0  0  0  0  0  0  0  0  0  0  0
   -1.0460   18.1821   43.9229 H   0  0  0  0  0  0  0  0  0  0  0  0
    4.5446   19.2002   37.8142 H   0  0  0  0  0  0  0  0  0  0  0  0
    3.2240   18.2066   37.0841 H   0  0  0  0  0  0  0  0  0  0  0  0
    3.3588   20.1880   36.3046 H   0  0  0  0  0  0  0  0  0  0  0  0
    1.6661   20.5114   35.6267 H   0  0  0  0  0  0  0  0  0  0  0  0
    2.2489   22.5044   34.6992 H   0  0  0  0  0  0  0  0  0  0  0  0
    3.7053   22.6887   35.7984 H   0  0  0  0  0  0  0  0  0  0  0  0
    2.3872   17.0234   38.7680 H   0  0  0  0  0  0  0  0  0  0  0  0
    6.6382   23.0607   27.9614 H   0  0  0  0  0  0  0  0  0  0  0  0
    5.5218   22.5563   26.8089 H   0  0  0  0  0  0  0  0  0  0  0  0
    6.0704   24.1462   26.8089 H   0  0  0  0  0  0  0  0  0  0  0  0
    1.1450   25.7055   30.1240 H   0  0  0  0  0  0  0  0  0  0  0  0
    1.5176   26.5255   28.5698 H   0  0  0  0  0  0  0  0  0  0  0  0
    0.6546   24.9501   28.5698 H   0  0  0  0  0  0  0  0  0  0  0  0
    4.1304   21.5505   32.0323 H   0  0  0  0  0  0  0  0  0  0  0  0
    2.5018   22.0285   32.9842 H   0  0  0  0  0  0  0  0  0  0  0  0
    3.9618   20.3767   34.0064 H   0  0  0  0  0  0  0  0  0  0  0  0
    5.0894   21.7163   34.2859 H   0  0  0  0  0  0  0  0  0  0  0  0
    1.7333   24.3674   25.0320 H   0  0  0  0  0  0  0  0  0  0  0  0
    1.2169   24.7290   26.8300 H   0  0  0  0  0  0  0  0  0  0  0  0
    2.7292   22.2123   37.6871 H   0  0  0  0  0  0  0  0  0  0  0  0
    1.0168   21.5036   37.2096 H   0  0  0  0  0  0  0  0  0  0  0  0
    3.3943   14.7771   38.9243 H   0  0  0  0  0  0  0  0  0  0  0  0
    4.5078   16.5455   38.0556 H   0  0  0  0  0  0  0  0  0  0  0  0
    5.0435   17.5827   39.4081 H   0  0  0  0  0  0  0  0  0  0  0  0
    3.1866   25.2593   31.8980 H   0  0  0  0  0  0  0  0  0  0  0  0
    2.0022   23.8662   31.5190 H   0  0  0  0  0  0  0  0  0  0  0  0
    4.3716   22.6866   28.1386 H   0  0  0  0  0  0  0  0  0  0  0  0
    4.7294   23.4897   32.1931 H   0  0  0  0  0  0  0  0  0  0  0  0
    3.0695   23.7402   33.3190 H   0  0  0  0  0  0  0  0  0  0  0  0
  1  5  1  0
  4  2  1  0
  4 29  1  0
  4 24  1  0
  6 26  1  0
  6 31  1  0
  7 17  1  0
  8  7  1  0
  9 25  1  0
  9  3  1  0
 13 15  1  0
 14 18  1  0
 15  8  1  0
 16  2  2  3
 17 19  1  0
 18  1  1  0
 18 10  2  0
 19 31  2  0
 19 23  1  0
 20  3  1  0
 20 14  2  0
 21 22  1  0
 22 28  1  0
 23 14  1  0
 24 12  1  0
 24 22  2  0
 25 27  2  0
 26  9  1  0
 28 30  1  0
 29 11  1  0
 29 21  1  0
 30 13  1  0
 31 20  1  0
  1 32  1  0
  2 33  1  0
  3 34  1  0
  4 35  1  6
  5 36  1  0
  5 37  1  0
  5 38  1  0
  6 39  1  0
  6 40  1  0
  7 41  1  0
  7 42  1  0
  8 43  1  0
  8 44  1  0
  9 45  1  6
 11 46  1  0
 11 47  1  0
 11 48  1  0
 12 49  1  0
 12 50  1  0
 12 51  1  0
 13 52  1  0
 13 53  1  0
 15 54  1  0
 15 55  1  0
 16 56  1  0
 16 57  1  0
 17 58  1  0
 17 59  1  0
 25 60  1  0
 26 61  1  0
 26 62  1  0
 28 63  1  0
 28 64  1  0
 29 65  1  6
 30 66  1  0
 30 67  1  0
M  CHG  1  11   1
M  END
>  <mol_id>  (19) 
2026-09-18-3war-s0-n100-0019

>  <rmsd_to_ref>  (19) 


$$$$

     RDKit          3D

 40 41  0  0  0  0  0  0  0  0999 V2000
    3.2690   24.5670   32.0340 C   0  0  0  0  0  0  0  0  0  0  0  0
    2.7090   19.5780   38.4340 C   0  0  0  0  0  0  0  0  0  0  0  0
    3.3710   19.4070   37.1340 C   0  0  0  0  0  0  0  0  0  0  0  0
    2.5350   21.4260   36.1810 C   0  0  0  0  0  0  0  0  0  0  0  0
    3.6440   17.7880   39.5500 O   0  0  0  0  0  0  0  0  0  0  0  0
    1.1340   19.9870   40.9270 C   0  0  0  0  0  0  0  0  0  0  0  0
    3.2980   20.2970   36.1530 C   0  0  0  0  0  0  0  0  0  0  0  0
    2.9160   25.4630   29.8230 F   0  0  0  0  0  0  0  0  0  0  0  0
    1.9320   18.7980   40.7510 C   0  0  0  0  0  0  0  0  0  0  0  0
    1.5770   26.5260   31.4550 C   0  0  0  0  0  0  0  0  0  0  0  0
    2.6170   25.5240   31.1590 C   0  0  0  0  0  0  0  0  0  0  0  0
    1.8200   21.6130   37.3970 C   0  0  0  0  0  0  0  0  0  0  0  0
    4.4000   23.8400   31.5410 C   0  0  0  0  0  0  0  0  0  0  0  0
    1.9180   20.7080   38.5590 C   0  0  0  0  0  0  0  0  0  0  0  0
    1.1890   20.9900   39.7780 C   0  0  0  0  0  0  0  0  0  0  0  0
    2.7530   24.2290   33.3820 C   0  0  0  0  0  0  0  0  0  0  0  0
    2.1110   25.3890   34.2640 S   0  0  0  0  0  0  0  0  0  0  0  0
    2.3870   22.3470   35.0880 C   0  0  0  0  0  0  0  0  0  0  0  0
    2.8460   22.8810   34.0250 C   0  0  0  0  0  0  0  0  0  0  0  0
    2.7890   18.5930   39.5430 C   0  0  0  0  0  0  0  0  0  0  0  0
    2.1200   17.6330   41.6200 C   0  0  0  0  0  0  0  0  0  0  0  0
    3.9584   18.4925   36.9649 H   0  0  0  0  0  0  0  0  0  0  0  0
    0.5271   20.1590   41.8282 H   0  0  0  0  0  0  0  0  0  0  0  0
    3.8977   20.1099   35.2500 H   0  0  0  0  0  0  0  0  0  0  0  0
    1.4683   26.6307   32.5446 H   0  0  0  0  0  0  0  0  0  0  0  0
    1.8665   27.4943   31.0206 H   0  0  0  0  0  0  0  0  0  0  0  0
    0.6202   26.2007   31.0206 H   0  0  0  0  0  0  0  0  0  0  0  0
    1.1539   22.4848   37.4759 H   0  0  0  0  0  0  0  0  0  0  0  0
    4.9899   23.4608   32.3885 H   0  0  0  0  0  0  0  0  0  0  0  0
    4.0538   22.9949   30.9279 H   0  0  0  0  0  0  0  0  0  0  0  0
    5.0251   24.5059   30.9279 H   0  0  0  0  0  0  0  0  0  0  0  0
    1.6228   21.9121   40.1922 H   0  0  0  0  0  0  0  0  0  0  0  0
    0.1457   21.0065   39.4298 H   0  0  0  0  0  0  0  0  0  0  0  0
    1.4332   21.9741   34.6864 H   0  0  0  0  0  0  0  0  0  0  0  0
    2.9300   23.1010   35.6767 H   0  0  0  0  0  0  0  0  0  0  0  0
    2.4683   22.2123   33.2375 H   0  0  0  0  0  0  0  0  0  0  0  0
    3.8530   23.0466   34.4354 H   0  0  0  0  0  0  0  0  0  0  0  0
    2.0691   17.9486   42.6725 H   0  0  0  0  0  0  0  0  0  0  0  0
    1.3293   16.8949   41.4199 H   0  0  0  0  0  0  0  0  0  0  0  0
    3.1027   17.1811   41.4199 H   0  0  0  0  0  0  0  0  0  0  0  0
  1 16  1  0
  2 14  2  0
  2 20  1  0
  3  2  1  0
  4 12  2  0
  7  4  1  0
  7  3  2  0
  8 11  1  0
  9  6  2  0
  9 21  1  0
 11 10  1  0
 11  1  2  3
 12 14  1  0
 13  1  1  0
 14 15  1  0
 15  6  1  0
 16 19  1  0
 16 17  2  0
 18  4  1  0
 19 18  1  0
 20  5  2  0
 20  9  1  0
  3 22  1  0
  6 23  1  0
  7 24  1  0
 10 25  1  0
 10 26  1  0
 10 27  1  0
 12 28  1  0
 13 29  1  0
 13 30  1  0
 13 31  1  0
 15 32  1  0
 15 33  1  0
 18 34  1  0
 18 35  1  0
 19 36  1  0
 19 37  1  0
 21 38  1  0
 21 39  1  0
 21 40  1  0
M  END
>  <mol_id>  (20) 
2026-09-18-3war-s0-n100-0020

>  <rmsd_to_ref>  (20) 


$$$$

     RDKit          3D

 80 83  0  0  0  0  0  0  0  0999 V2000
   -0.0518   16.9236   42.8419 C   0  0  0  0  0  0  0  0  0  0  0  0
    2.1311   23.9076   34.8656 S   0  0  0  0  0  0  0  0  0  0  0  0
    2.0434   28.1195   35.8395 C   0  0  0  0  0  0  0  0  0  0  0  0
    3.5773   26.9618   30.6510 C   0  0  1  0  0  0  0  0  0  0  0  0
    2.0095   27.7498   28.9660 C   0  0  0  0  0  0  0  0  0  0  0  0
    3.3141   20.3901   36.8479 C   0  0  0  0  0  0  0  0  0  0  0  0
    2.8396   25.9307   32.8784 C   0  0  0  0  0  0  0  0  0  0  0  0
    2.6704   21.6854   36.3855 C   0  0  0  0  0  0  0  0  0  0  0  0
    2.3882   14.4092   36.0559 N   0  0  0  0  0  0  0  0  0  0  0  0
    1.6068   17.5479   41.1592 C   0  0  0  0  0  0  0  0  0  0  0  0
    2.5279   27.0816   27.9953 O   0  0  0  0  0  0  0  0  0  0  0  0
    2.8270   15.0092   37.2055 C   0  0  0  0  0  0  0  0  0  0  0  0
    2.8190   19.9529   39.3359 C   0  0  0  0  0  0  0  0  0  0  0  0
    0.8286   28.3675   28.6833 N   0  0  0  0  0  0  0  0  0  0  0  0
    3.2958   22.9890   35.9805 C   0  0  0  0  0  0  0  0  0  0  0  0
    2.9942   17.9842   37.8073 C   0  0  0  0  0  0  0  0  0  0  0  0
    2.1970   26.5543   36.5989 S   0  0  0  0  0  0  0  0  0  0  0  0
    1.7132   27.8498   31.5922 C   0  0  0  0  0  0  0  0  0  0  0  0
    2.4628   28.0249   30.3357 C   0  0  2  0  0  0  0  0  0  0  0  0
    3.0567   19.4796   37.9908 N   0  0  0  0  0  0  0  0  0  0  0  0
    0.8895   17.8282   42.3337 C   0  0  0  0  0  0  0  0  0  0  0  0
   -0.7835   17.2376   44.0820 C   0  0  0  0  0  0  0  0  0  0  0  0
    4.5200   26.8043   29.4369 C   0  0  0  0  0  0  0  0  0  0  0  0
    1.4734   27.8787   34.5030 C   0  0  0  0  0  0  0  0  0  0  0  0
    2.1880   25.6114   35.1951 C   0  0  2  0  0  0  0  0  0  0  0  0
    3.9021   19.3871   40.1008 C   0  0  0  0  0  0  0  0  0  0  0  0
    0.6039   15.4031   41.0165 C   0  0  0  0  0  0  0  0  0  0  0  0
    3.2960   16.9565   38.6273 N   0  0  0  0  0  0  0  0  0  0  0  0
    2.4226   15.9601   39.3558 C   0  0  2  0  0  0  0  0  0  0  0  0
    1.7090   15.3634   38.1778 C   0  0  0  0  0  0  0  0  0  0  0  0
    1.9530   26.4440   33.9912 C   0  0  2  0  0  0  0  0  0  0  0  0
    2.9429   27.1109   32.0038 C   0  0  1  0  0  0  0  0  0  0  0  0
   -0.1827   15.7206   42.1699 C   0  0  0  0  0  0  0  0  0  0  0  0
    1.5171   16.3204   40.5474 C   0  0  0  0  0  0  0  0  0  0  0  0
    1.3741   28.7640   36.4282 H   0  0  0  0  0  0  0  0  0  0  0  0
    3.0168   28.6277   35.7724 H   0  0  0  0  0  0  0  0  0  0  0  0
    4.2472   26.0963   30.7607 H   0  0  0  0  0  0  0  0  0  0  0  0
    4.3709   20.6660   36.9783 H   0  0  0  0  0  0  0  0  0  0  0  0
    2.8411   19.7517   36.0871 H   0  0  0  0  0  0  0  0  0  0  0  0
    3.8260   25.6279   33.2600 H   0  0  0  0  0  0  0  0  0  0  0  0
    2.4464   25.0361   32.3734 H   0  0  0  0  0  0  0  0  0  0  0  0
    2.0763   21.3901   35.5081 H   0  0  0  0  0  0  0  0  0  0  0  0
    2.2854   22.0100   37.3634 H   0  0  0  0  0  0  0  0  0  0  0  0
    1.8212   13.5830   36.2946 H   0  0  0  0  0  0  0  0  0  0  0  0
    1.8152   15.0751   35.5182 H   0  0  0  0  0  0  0  0  0  0  0  0
    3.1980   14.1179   35.4899 H   0  0  0  0  0  0  0  0  0  0  0  0
    2.2514   18.3242   40.7213 H   0  0  0  0  0  0  0  0  0  0  0  0
    3.5225   14.3233   37.7113 H   0  0  0  0  0  0  0  0  0  0  0  0
    3.3079   15.9537   36.9112 H   0  0  0  0  0  0  0  0  0  0  0  0
    1.8481   19.5963   39.7101 H   0  0  0  0  0  0  0  0  0  0  0  0
    2.7844   21.0505   39.3987 H   0  0  0  0  0  0  0  0  0  0  0  0
    0.3510   28.9218   29.4082 H   0  0  0  0  0  0  0  0  0  0  0  0
    0.4135   28.2803   27.7447 H   0  0  0  0  0  0  0  0  0  0  0  0
    4.2381   22.7945   35.4475 H   0  0  0  0  0  0  0  0  0  0  0  0
    3.5017   23.5931   36.8764 H   0  0  0  0  0  0  0  0  0  0  0  0
    1.9423   17.8014   37.5425 H   0  0  0  0  0  0  0  0  0  0  0  0
    3.8896   17.9016   37.1738 H   0  0  0  0  0  0  0  0  0  0  0  0
    0.7966   27.2461   31.5198 H   0  0  0  0  0  0  0  0  0  0  0  0
    1.2676   28.6757   32.1660 H   0  0  0  0  0  0  0  0  0  0  0  0
    1.0701   18.7749   42.8640 H   0  0  0  0  0  0  0  0  0  0  0  0
   -0.2848   16.7535   44.9346 H   0  0  0  0  0  0  0  0  0  0  0  0
   -0.7957   18.3269   44.2346 H   0  0  0  0  0  0  0  0  0  0  0  0
   -1.8160   16.8668   44.0024 H   0  0  0  0  0  0  0  0  0  0  0  0
    5.4941   26.4222   29.7762 H   0  0  0  0  0  0  0  0  0  0  0  0
    4.0785   26.0972   28.7192 H   0  0  0  0  0  0  0  0  0  0  0  0
    4.6585   27.7814   28.9510 H   0  0  0  0  0  0  0  0  0  0  0  0
    0.3751   27.9031   34.5594 H   0  0  0  0  0  0  0  0  0  0  0  0
    1.8136   28.6579   33.8051 H   0  0  0  0  0  0  0  0  0  0  0  0
    2.8976   25.0851   35.8506 H   0  0  0  0  0  0  0  0  0  0  0  0
    3.6219   19.3539   41.1640 H   0  0  0  0  0  0  0  0  0  0  0  0
    4.1093   18.3673   39.7442 H   0  0  0  0  0  0  0  0  0  0  0  0
    4.8016   20.0082   39.9778 H   0  0  0  0  0  0  0  0  0  0  0  0
    0.4797   14.4348   40.5095 H   0  0  0  0  0  0  0  0  0  0  0  0
    3.9166   16.3645   38.0570 H   0  0  0  0  0  0  0  0  0  0  0  0
    3.5368   17.5275   39.4500 H   0  0  0  0  0  0  0  0  0  0  0  0
    3.0508   15.3198   39.9924 H   0  0  0  0  0  0  0  0  0  0  0  0
    1.0182   16.0927   37.7295 H   0  0  0  0  0  0  0  0  0  0  0  0
    1.0969   14.4917   38.4526 H   0  0  0  0  0  0  0  0  0  0  0  0
    1.1326   26.4488   33.2585 H   0  0  0  0  0  0  0  0  0  0  0  0
   -0.9147   14.9846   42.5339 H   0  0  0  0  0  0  0  0  0  0  0  0
  1 22  1  0
  2 15  1  0
  3 17  1  0
  4 23  1  0
  4 32  1  0
  6 20  1  0
  8  6  1  0
  9 12  1  0
 10 21  2  0
 11  5  2  0
 12 30  1  0
 13 26  1  0
 14  5  1  0
 15  8  1  0
 16 20  1  0
 16 28  1  0
 18 32  1  0
 19  5  1  1
 19  4  1  0
 19 18  1  0
 19 32  1  0
 20 13  1  0
 21  1  1  0
 24  3  1  0
 25  2  1  0
 25 17  1  0
 27 33  1  0
 28 29  1  0
 29 30  1  0
 29 34  1  0
 31  7  1  0
 31 24  1  0
 31 25  1  0
 32  7  1  1
 33  1  2  0
 34 10  1  0
 34 27  2  0
  3 35  1  0
  3 36  1  0
  4 37  1  6
  6 38  1  0
  6 39  1  0
  7 40  1  0
  7 41  1  0
  8 42  1  0
  8 43  1  0
  9 44  1  0
  9 45  1  0
  9 46  1  0
 10 47  1  0
 12 48  1  0
 12 49  1  0
 13 50  1  0
 13 51  1  0
 14 52  1  0
 14 53  1  0
 15 54  1  0
 15 55  1  0
 16 56  1  0
 16 57  1  0
 18 58  1  0
 18 59  1  0
 21 60  1  0
 22 61  1  0
 22 62  1  0
 22 63  1  0
 23 64  1  0
 23 65  1  0
 23 66  1  0
 24 67  1  0
 24 68  1  0
 25 69  1  6
 26 70  1  0
 26 71  1  0
 26 72  1  0
 27 73  1  0
 28 74  1  0
 28 75  1  0
 29 76  1  1
 30 77  1  0
 30 78  1  0
 31 79  1  6
 33 80  1  0
M  CHG  2   9   1  28   1
M  END
>  <mol_id>  (21) 
2026-09-18-3war-s0-n100-0021

>  <rmsd_to_ref>  (21) 


$$$$

     RDKit          3D

 66 68  0  0  0  0  0  0  0  0999 V2000
    2.6966   23.5356   27.1027 C   0  0  0  0  0  0  0  0  0  0  0  0
    1.5977   19.9013   42.2009 C   0  0  0  0  0  0  0  0  0  0  0  0
    2.1209   23.2465   33.4975 C   0  0  0  0  0  0  0  0  0  0  0  0
    3.2515   24.1322   30.6069 C   0  0  0  0  0  0  0  0  0  0  0  0
    2.8453   19.5481   37.8989 N   0  0  0  0  0  0  0  0  0  0  0  0
    2.7957   20.2913   35.8275 C   0  0  0  0  0  0  0  0  0  0  0  0
    2.6519   20.3019   37.1486 C   0  0  1  0  0  0  0  0  0  0  0  0
    1.2524   27.9004   29.9624 C   0  0  0  0  0  0  0  0  0  0  0  0
    3.3092   16.9622   39.3160 O   0  0  0  0  0  0  0  0  0  0  0  0
    1.3519   27.2104   32.6552 C   0  0  0  0  0  0  0  0  0  0  0  0
    1.1195   16.4094   39.1430 O   0  0  0  0  0  0  0  0  0  0  0  0
    1.9290   24.2249   32.7255 C   0  0  0  0  0  0  0  0  0  0  0  0
    3.3347   24.1136   29.4150 C   0  0  0  0  0  0  0  0  0  0  0  0
    1.2148   22.4858   37.1861 O   0  0  0  0  0  0  0  0  0  0  0  0
    1.6183   27.0901   31.2005 C   0  0  1  0  0  0  0  0  0  0  0  0
    1.9536   21.4980   37.5697 C   0  0  0  0  0  0  0  0  0  0  0  0
    1.9832   19.3038   41.1138 C   0  0  0  0  0  0  0  0  0  0  0  0
    0.7546   19.2021   43.1982 C   0  0  0  0  0  0  0  0  0  0  0  0
    1.9780   23.3208   34.9348 C   0  0  0  0  0  0  0  0  0  0  0  0
    2.9506   19.9207   40.2282 C   0  0  0  0  0  0  0  0  0  0  0  0
    2.2725   24.9057   31.2966 C   0  0  2  0  0  0  0  0  0  0  0  0
    1.5137   25.5827   30.4468 C   0  0  2  0  0  0  0  0  0  0  0  0
    2.7004   21.6507   34.8112 S   0  0  0  0  0  0  0  0  0  0  0  0
    2.1185   21.3503   38.7804 N   0  0  0  0  0  0  0  0  0  0  0  0
    0.3745   17.8336   42.9932 C   0  0  0  0  0  0  0  0  0  0  0  0
    1.7052   17.9473   40.9555 C   0  0  0  0  0  0  0  0  0  0  0  0
    2.7153   20.0800   39.1144 N   0  0  0  0  0  0  0  0  0  0  0  0
    2.0841   27.2805   28.6254 C   0  0  0  0  0  0  0  0  0  0  0  0
    2.1768   25.9446   29.4682 C   0  0  0  0  0  0  0  0  0  0  0  0
    3.2153   24.5235   28.0873 C   0  0  0  0  0  0  0  0  0  0  0  0
    2.0425   17.1653   39.7707 C   0  0  0  0  0  0  0  0  0  0  0  0
    0.8534   17.2670   41.9011 C   0  0  0  0  0  0  0  0  0  0  0  0
    2.3916   22.6191   27.6289 H   0  0  0  0  0  0  0  0  0  0  0  0
    1.8298   23.9624   26.5770 H   0  0  0  0  0  0  0  0  0  0  0  0
    3.4852   23.2951   26.3745 H   0  0  0  0  0  0  0  0  0  0  0  0
    1.9021   20.9424   42.3838 H   0  0  0  0  0  0  0  0  0  0  0  0
    3.1550   22.9188   33.3153 H   0  0  0  0  0  0  0  0  0  0  0  0
    1.2743   22.5962   33.2323 H   0  0  0  0  0  0  0  0  0  0  0  0
    3.9583   23.5286   31.1952 H   0  0  0  0  0  0  0  0  0  0  0  0
    3.8034   19.1881   37.7835 H   0  0  0  0  0  0  0  0  0  0  0  0
    3.7929   19.8634   35.6473 H   0  0  0  0  0  0  0  0  0  0  0  0
    1.8713   19.7701   35.5380 H   0  0  0  0  0  0  0  0  0  0  0  0
    3.5863   19.7230   37.1923 H   0  0  0  0  0  0  0  0  0  0  0  0
    0.1689   27.8326   29.7854 H   0  0  0  0  0  0  0  0  0  0  0  0
    1.5307   28.9537   30.1146 H   0  0  0  0  0  0  0  0  0  0  0  0
    2.3054   27.2109   33.2038 H   0  0  0  0  0  0  0  0  0  0  0  0
    0.8146   28.1496   32.8531 H   0  0  0  0  0  0  0  0  0  0  0  0
    0.7383   26.3600   32.9871 H   0  0  0  0  0  0  0  0  0  0  0  0
    0.8321   24.1870   32.6511 H   0  0  0  0  0  0  0  0  0  0  0  0
    2.7815   24.7505   33.1804 H   0  0  0  0  0  0  0  0  0  0  0  0
    2.4690   27.5848   31.6921 H   0  0  0  0  0  0  0  0  0  0  0  0
    0.4182   19.7344   44.1001 H   0  0  0  0  0  0  0  0  0  0  0  0
    2.5951   24.0769   35.4424 H   0  0  0  0  0  0  0  0  0  0  0  0
    1.0461   23.5678   35.4645 H   0  0  0  0  0  0  0  0  0  0  0  0
    3.1695   20.9140   40.6471 H   0  0  0  0  0  0  0  0  0  0  0  0
    3.7619   19.1783   40.2007 H   0  0  0  0  0  0  0  0  0  0  0  0
    2.4788   25.8576   31.8080 H   0  0  0  0  0  0  0  0  0  0  0  0
    0.5827   25.0462   30.2115 H   0  0  0  0  0  0  0  0  0  0  0  0
    1.8580   22.0588   39.4812 H   0  0  0  0  0  0  0  0  0  0  0  0
   -0.2729   17.2926   43.6990 H   0  0  0  0  0  0  0  0  0  0  0  0
    3.0480   27.7644   28.4092 H   0  0  0  0  0  0  0  0  0  0  0  0
    1.6813   27.3150   27.6024 H   0  0  0  0  0  0  0  0  0  0  0  0
    2.0231   25.1463   28.7274 H   0  0  0  0  0  0  0  0  0  0  0  0
    3.1149   26.1672   29.9978 H   0  0  0  0  0  0  0  0  0  0  0  0
    3.4948   25.5416   27.7786 H   0  0  0  0  0  0  0  0  0  0  0  0
    0.5885   16.2184   41.7009 H   0  0  0  0  0  0  0  0  0  0  0  0
  1 30  1  0
  2 18  1  0
  3 19  1  0
  5 27  1  0
  7  6  1  0
  7 16  1  0
  7  5  1  0
  8 15  1  0
  9 31  1  0
 11 31  2  0
 12  3  1  0
 13  4  2  0
 14 16  2  0
 15 10  1  0
 16 24  1  0
 17  2  2  0
 20 17  1  0
 21  4  1  0
 21 12  1  0
 22 15  1  0
 22 21  1  0
 23 19  1  0
 23  6  1  0
 24 27  1  0
 25 18  2  0
 26 17  1  0
 26 32  2  0
 27 20  1  0
 28 29  1  0
 28  8  1  0
 29 22  1  0
 30 13  2  0
 31 26  1  0
 32 25  1  0
  1 33  1  0
  1 34  1  0
  1 35  1  0
  2 36  1  0
  3 37  1  0
  3 38  1  0
  4 39  1  0
  5 40  1  0
  6 41  1  0
  6 42  1  0
  7 43  1  1
  8 44  1  0
  8 45  1  0
 10 46  1  0
 10 47  1  0
 10 48  1  0
 12 49  1  0
 12 50  1  0
 15 51  1  1
 18 52  1  0
 19 53  1  0
 19 54  1  0
 20 55  1  0
 20 56  1  0
 21 57  1  1
 22 58  1  6
 24 59  1  0
 25 60  1  0
 28 61  1  0
 28 62  1  0
 29 63  1  0
 29 64  1  0
 30 65  1  0
 32 66  1  0
M  CHG  1   9  -1
M  END
>  <mol_id>  (22) 
2026-09-18-3war-s0-n100-0022

>  <rmsd_to_ref>  (22) 


$$$$

     RDKit          3D

 29 29  0  0  0  0  0  0  0  0999 V2000
    3.0290   20.8790   35.7550 O   0  0  0  0  0  0  0  0  0  0  0  0
    1.4930   22.5590   35.7500 O   0  0  0  0  0  0  0  0  0  0  0  0
    2.2980   20.9020   36.8990 C   0  0  2  0  0  0  0  0  0  0  0  0
    4.9410   19.3680   40.3190 O   0  0  0  0  0  0  0  0  0  0  0  0
    2.0680   19.7070   37.8790 C   0  0  0  0  0  0  0  0  0  0  0  0
    2.0080   19.5480   40.4750 C   0  0  0  0  0  0  0  0  0  0  0  0
    2.8510   22.0260   35.1290 C   0  0  2  0  0  0  0  0  0  0  0  0
    4.5090   22.4070   33.2170 C   0  0  0  0  0  0  0  0  0  0  0  0
    1.6350   22.0920   37.0290 C   0  0  0  0  0  0  0  0  0  0  0  0
    4.1390   19.0820   39.2400 C   0  0  0  0  0  0  0  0  0  0  0  0
    2.9050   23.9850   33.7730 O   0  0  0  0  0  0  0  0  0  0  0  0
    3.2860   22.7990   33.9900 C   0  0  0  0  0  0  0  0  0  0  0  0
    2.7810   19.8710   39.2290 C   0  0  1  0  0  0  0  0  0  0  0  0
    3.1584   21.3222   37.4404 H   0  0  0  0  0  0  0  0  0  0  0  0
    4.4434   19.1906   41.1563 H   0  0  0  0  0  0  0  0  0  0  0  0
    0.9880   19.6136   38.0656 H   0  0  0  0  0  0  0  0  0  0  0  0
    2.4895   18.8115   37.3991 H   0  0  0  0  0  0  0  0  0  0  0  0
    2.6133   19.8009   41.3579 H   0  0  0  0  0  0  0  0  0  0  0  0
    1.0759   20.1319   40.4900 H   0  0  0  0  0  0  0  0  0  0  0  0
    1.7685   18.4745   40.4900 H   0  0  0  0  0  0  0  0  0  0  0  0
    3.9328   22.0212   34.9298 H   0  0  0  0  0  0  0  0  0  0  0  0
    5.3174   22.1479   33.9165 H   0  0  0  0  0  0  0  0  0  0  0  0
    4.2794   21.5374   32.5836 H   0  0  0  0  0  0  0  0  0  0  0  0
    4.8277   23.2480   32.5836 H   0  0  0  0  0  0  0  0  0  0  0  0
    2.2219   22.7975   37.6354 H   0  0  0  0  0  0  0  0  0  0  0  0
    0.6659   21.9723   37.5356 H   0  0  0  0  0  0  0  0  0  0  0  0
    4.6916   19.3311   38.3221 H   0  0  0  0  0  0  0  0  0  0  0  0
    3.8866   18.0133   39.3044 H   0  0  0  0  0  0  0  0  0  0  0  0
    2.9322   20.9591   39.2849 H   0  0  0  0  0  0  0  0  0  0  0  0
  1  3  1  0
  2  9  1  0
  3  9  1  0
  3  5  1  0
  5 13  1  0
  7 12  1  0
  7  2  1  0
  7  1  1  0
  8 12  1  0
 10  4  1  0
 11 12  2  0
 13 10  1  0
 13  6  1  0
  3 14  1  1
  4 15  1  0
  5 16  1  0
  5 17  1  0
  6 18  1  0
  6 19  1  0
  6 20  1  0
  7 21  1  1
  8 22  1  0
  8 23  1  0
  8 24  1  0
  9 25  1  0
  9 26  1  0
 10 27  1  0
 10 28  1  0
 13 29  1  1
M  END
>  <mol_id>  (23) 
2026-09-18-3war-s0-n100-0023

>  <rmsd_to_ref>  (23) 


$$$$

     RDKit          3D

 60 62  0  0  0  0  0  0  0  0999 V2000
    2.1820   22.0490   36.0840 C   0  0  0  0  0  0  0  0  0  0  0  0
    2.9150   25.9890   30.3530 C   0  0  0  0  0  0  0  0  0  0  0  0
    4.1000   24.4640   31.8960 C   0  0  2  0  0  0  0  0  0  0  0  0
    3.0790   20.6450   36.2750 C   0  0  0  0  0  0  0  0  0  0  0  0
    1.5420   25.8410   29.8260 C   0  0  1  0  0  0  0  0  0  0  0  0
    0.9810   15.4570   42.5280 C   0  0  0  0  0  0  0  0  0  0  0  0
    2.0350   19.2790   39.8370 C   0  0  1  0  0  0  0  0  0  0  0  0
    4.0480   23.4020   32.9440 C   0  0  2  0  0  0  0  0  0  0  0  0
    2.6780   22.6130   34.9290 C   0  0  0  0  0  0  0  0  0  0  0  0
    1.5650   25.9870   27.1770 C   0  0  0  0  0  0  0  0  0  0  0  0
    1.2180   20.3070   40.3920 C   0  0  0  0  0  0  0  0  0  0  0  0
    0.4260   16.4760   41.6870 O   0  0  0  0  0  0  0  0  0  0  0  0
    2.5240   16.8840   39.7720 O   0  0  0  0  0  0  0  0  0  0  0  0
    0.8970   26.3810   28.4070 C   0  0  0  0  0  0  0  0  0  0  0  0
    0.5960   18.8490   42.2230 C   0  0  1  0  0  0  0  0  0  0  0  0
    0.9030   20.1430   41.7470 C   0  0  0  0  0  0  0  0  0  0  0  0
    1.8790   17.8420   40.3220 C   0  0  0  0  0  0  0  0  0  0  0  0
    2.9060   25.0810   29.3190 C   0  0  2  0  0  0  0  0  0  0  0  0
    2.5340   20.3360   37.6110 C   0  0  0  0  0  0  0  0  0  0  0  0
    3.9600   24.2170   30.4960 C   0  0  0  0  0  0  0  0  0  0  0  0
    4.2480   18.8910   38.5410 C   0  0  0  0  0  0  0  0  0  0  0  0
    0.9490   17.6800   41.4460 C   0  0  1  0  0  0  0  0  0  0  0  0
   -0.0360   18.4970   43.4660 O   0  0  0  0  0  0  0  0  0  0  0  0
    2.8970   19.4940   38.6120 C   0  0  0  0  0  0  0  0  0  0  0  0
    3.3070   22.9570   33.9030 C   0  0  0  0  0  0  0  0  0  0  0  0
    5.3490   23.7090   32.4260 C   0  0  0  0  0  0  0  0  0  0  0  0
    1.1122   21.8168   35.9764 H   0  0  0  0  0  0  0  0  0  0  0  0
    2.2638   22.7221   36.9502 H   0  0  0  0  0  0  0  0  0  0  0  0
    3.4307   26.9482   30.1981 H   0  0  0  0  0  0  0  0  0  0  0  0
    3.2987   25.8969   31.3798 H   0  0  0  0  0  0  0  0  0  0  0  0
    3.6164   25.4509   31.8504 H   0  0  0  0  0  0  0  0  0  0  0  0
    2.8410   19.8766   35.5247 H   0  0  0  0  0  0  0  0  0  0  0  0
    4.1716   20.7139   36.1683 H   0  0  0  0  0  0  0  0  0  0  0  0
    0.5963   25.8655   30.3874 H   0  0  0  0  0  0  0  0  0  0  0  0
    0.8319   15.7308   43.5829 H   0  0  0  0  0  0  0  0  0  0  0  0
    0.4798   14.4994   42.3233 H   0  0  0  0  0  0  0  0  0  0  0  0
    2.0573   15.3586   42.3233 H   0  0  0  0  0  0  0  0  0  0  0  0
    2.7315   19.8014   40.5093 H   0  0  0  0  0  0  0  0  0  0  0  0
    3.5140   22.5600   33.4086 H   0  0  0  0  0  0  0  0  0  0  0  0
    2.4891   25.4420   27.4200 H   0  0  0  0  0  0  0  0  0  0  0  0
    0.8993   25.3369   26.5903 H   0  0  0  0  0  0  0  0  0  0  0  0
    1.8119   26.8841   26.5903 H   0  0  0  0  0  0  0  0  0  0  0  0
    1.7483   21.2639   40.2779 H   0  0  0  0  0  0  0  0  0  0  0  0
    0.2634   20.2705   39.8467 H   0  0  0  0  0  0  0  0  0  0  0  0
   -0.1380   26.0124   28.3533 H   0  0  0  0  0  0  0  0  0  0  0  0
    1.0031   27.4751   28.4474 H   0  0  0  0  0  0  0  0  0  0  0  0
   -0.3895   18.9042   41.7375 H   0  0  0  0  0  0  0  0  0  0  0  0
    1.7663   20.5038   42.3254 H   0  0  0  0  0  0  0  0  0  0  0  0
   -0.0365   20.7015   41.8709 H   0  0  0  0  0  0  0  0  0  0  0  0
    3.0484   24.6979   28.2978 H   0  0  0  0  0  0  0  0  0  0  0  0
    1.6316   20.9183   37.8491 H   0  0  0  0  0  0  0  0  0  0  0  0
    4.9770   24.3250   30.0909 H   0  0  0  0  0  0  0  0  0  0  0  0
    3.4071   23.2675   30.5489 H   0  0  0  0  0  0  0  0  0  0  0  0
    4.6278   18.7215   39.5593 H   0  0  0  0  0  0  0  0  0  0  0  0
    4.1937   17.9317   38.0055 H   0  0  0  0  0  0  0  0  0  0  0  0
    4.9258   19.5720   38.0055 H   0  0  0  0  0  0  0  0  0  0  0  0
    0.1045   17.9137   40.7810 H   0  0  0  0  0  0  0  0  0  0  0  0
    0.5238   18.8088   44.2207 H   0  0  0  0  0  0  0  0  0  0  0  0
    5.8696   22.9856   31.7813 H   0  0  0  0  0  0  0  0  0  0  0  0
    6.3116   24.0087   32.8659 H   0  0  0  0  0  0  0  0  0  0  0  0
  1  4  1  0
  3 20  1  0
  3 26  1  0
  3  8  1  0
  4 19  1  0
  5 14  1  0
  5  2  1  0
  7 24  1  0
  7 17  1  0
  7 11  1  0
  8 25  1  0
  9  1  1  0
 10 14  1  0
 11 16  1  0
 12  6  1  0
 13 17  2  0
 15 23  1  0
 16 15  1  0
 17 22  1  0
 18  5  1  0
 18  2  1  0
 18 20  1  0
 19 24  2  3
 21 24  1  0
 22 12  1  0
 22 15  1  0
 25  9  3  0
 26  8  1  0
  1 27  1  0
  1 28  1  0
  2 29  1  0
  2 30  1  0
  3 31  1  1
  4 32  1  0
  4 33  1  0
  5 34  1  1
  6 35  1  0
  6 36  1  0
  6 37  1  0
  7 38  1  1
  8 39  1  6
 10 40  1  0
 10 41  1  0
 10 42  1  0
 11 43  1  0
 11 44  1  0
 14 45  1  0
 14 46  1  0
 15 47  1  6
 16 48  1  0
 16 49  1  0
 18 50  1  6
 19 51  1  0
 20 52  1  0
 20 53  1  0
 21 54  1  0
 21 55  1  0
 21 56  1  0
 22 57  1  6
 23 58  1  0
 26 59  1  0
 26 60  1  0
M  END
>  <mol_id>  (24) 
2026-09-18-3war-s0-n100-0024

>  <rmsd_to_ref>  (24) 


$$$$

     RDKit          3D

 85 87  0  0  0  0  0  0  0  0999 V2000
    2.3857   23.5818   35.8863 C   0  0  0  0  0  0  0  0  0  0  0  0
    1.8495   15.3710   40.7712 C   0  0  0  0  0  0  0  0  0  0  0  0
    2.7714   21.4348   36.2856 C   0  0  0  0  0  0  0  0  0  0  0  0
   -0.2058   17.6766   43.1162 C   0  0  0  0  0  0  0  0  0  0  0  0
    2.6740   16.0369   39.8365 C   0  0  0  0  0  0  0  0  0  0  0  0
    3.3400   15.1397   38.7556 C   0  0  0  0  0  0  0  0  0  0  0  0
    3.7884   14.7013   36.4794 O   0  0  0  0  0  0  0  0  0  0  0  0
    1.3088   25.9111   32.0912 C   0  0  0  0  0  0  0  0  0  0  0  0
    1.9396   22.0607   36.3226 C   0  0  0  0  0  0  0  0  0  0  0  0
    3.1272   23.3293   34.5836 C   0  0  0  0  0  0  0  0  0  0  0  0
    3.3181   24.6158   35.5603 C   0  0  0  0  0  0  0  0  0  0  0  0
    4.9497   28.4080   33.8117 C   0  0  0  0  0  0  0  0  0  0  0  0
    0.2878   26.7118   32.4771 C   0  0  0  0  0  0  0  0  0  0  0  0
    2.8652   19.7304   38.4204 O   0  0  0  0  0  0  0  0  0  0  0  0
    4.4992   26.5581   34.5541 S   0  0  0  0  0  0  0  0  0  0  0  0
    2.9738   27.1418   33.0519 C   0  0  1  0  0  0  0  0  0  0  0  0
    3.8482   13.8415   38.9882 C   0  0  0  0  0  0  0  0  0  0  0  0
    1.1329   20.5971   39.5953 C   0  0  0  0  0  0  0  0  0  0  0  0
    3.6099   28.9986   33.3846 S   0  0  0  0  0  0  0  0  0  0  0  0
   -0.6194   18.7792   42.1215 C   0  0  0  0  0  0  0  0  0  0  0  0
    0.1505   16.3526   42.5255 C   0  0  0  0  0  0  0  0  0  0  0  0
    3.1071   11.1323   36.1138 O   0  0  0  0  0  0  0  0  0  0  0  0
    1.1521   16.4834   41.3945 N   0  0  0  0  0  0  0  0  0  0  0  0
    3.6524   12.4303   35.6082 C   0  0  0  0  0  0  0  0  0  0  0  0
    2.4636   27.3233   33.7840 C   0  0  1  0  0  0  0  0  0  0  0  0
    4.3328   13.0001   37.9022 C   0  0  0  0  0  0  0  0  0  0  0  0
    1.5527   21.1941   38.4239 N   0  0  0  0  0  0  0  0  0  0  0  0
    5.9541   29.0768   34.3118 C   0  0  0  0  0  0  0  0  0  0  0  0
    2.5171   17.4498   40.0331 N   0  0  0  0  0  0  0  0  0  0  0  0
    0.4028   26.6824   32.2835 O   0  0  0  0  0  0  0  0  0  0  0  0
    0.5135   19.6172   41.6441 C   0  0  0  0  0  0  0  0  0  0  0  0
    2.9569   12.8755   34.2722 N   0  0  0  0  0  0  0  0  0  0  0  0
    2.5569   26.0512   31.9147 C   0  0  0  0  0  0  0  0  0  0  0  0
    0.1276   28.4552   33.9940 O   0  0  0  0  0  0  0  0  0  0  0  0
    2.3500   20.5920   37.7391 C   0  0  0  0  0  0  0  0  0  0  0  0
    1.1249   19.6512   40.5303 C   0  0  0  0  0  0  0  0  0  0  0  0
    1.5417   14.1444   41.0190 C   0  0  0  0  0  0  0  0  0  0  0  0
    0.8043   27.2235   34.2206 C   0  0  1  0  0  0  0  0  0  0  0  0
    3.2590   26.9590   34.3391 C   0  0  0  0  0  0  0  0  0  0  0  0
    4.0275   13.3707   36.6449 C   0  0  2  0  0  0  0  0  0  0  0  0
    1.6037   17.4974   40.7921 N   0  0  0  0  0  0  0  0  0  0  0  0
    3.4492   15.5907   37.5223 C   0  0  0  0  0  0  0  0  0  0  0  0
    1.6213   23.9059   36.6078 H   0  0  0  0  0  0  0  0  0  0  0  0
    3.7256   21.9770   36.3600 H   0  0  0  0  0  0  0  0  0  0  0  0
    2.9404   20.8460   35.3720 H   0  0  0  0  0  0  0  0  0  0  0  0
    0.6688   18.0405   43.6753 H   0  0  0  0  0  0  0  0  0  0  0  0
   -1.0958   17.4915   43.7356 H   0  0  0  0  0  0  0  0  0  0  0  0
    0.9835   24.8607   32.0627 H   0  0  0  0  0  0  0  0  0  0  0  0
    1.5357   22.0752   37.3457 H   0  0  0  0  0  0  0  0  0  0  0  0
    1.1680   21.6902   35.6317 H   0  0  0  0  0  0  0  0  0  0  0  0
    2.6167   23.4255   33.6140 H   0  0  0  0  0  0  0  0  0  0  0  0
    3.7576   22.5400   34.1483 H   0  0  0  0  0  0  0  0  0  0  0  0
    4.2415   24.7316   36.1467 H   0  0  0  0  0  0  0  0  0  0  0  0
    3.2638   25.7074   35.4358 H   0  0  0  0  0  0  0  0  0  0  0  0
   -0.4068   25.8609   32.5353 H   0  0  0  0  0  0  0  0  0  0  0  0
   -0.2090   27.5574   31.9789 H   0  0  0  0  0  0  0  0  0  0  0  0
    1.1786   26.4193   31.9018 H   0  0  0  0  0  0  0  0  0  0  0  0
    3.7202   26.4459   32.6410 H   0  0  0  0  0  0  0  0  0  0  0  0
    3.8787   13.4558   40.0179 H   0  0  0  0  0  0  0  0  0  0  0  0
    0.3762   21.3045   39.9654 H   0  0  0  0  0  0  0  0  0  0  0  0
   -1.0876   18.3004   41.2490 H   0  0  0  0  0  0  0  0  0  0  0  0
   -1.3085   19.4492   42.6564 H   0  0  0  0  0  0  0  0  0  0  0  0
    0.5850   15.7186   43.3124 H   0  0  0  0  0  0  0  0  0  0  0  0
   -0.7675   15.9067   42.1152 H   0  0  0  0  0  0  0  0  0  0  0  0
    1.9011   28.2684   33.8061 H   0  0  0  0  0  0  0  0  0  0  0  0
    4.9261   12.0956   38.1022 H   0  0  0  0  0  0  0  0  0  0  0  0
    1.2001   22.1198   38.1417 H   0  0  0  0  0  0  0  0  0  0  0  0
    6.2025   30.0731   33.9172 H   0  0  0  0  0  0  0  0  0  0  0  0
    6.5516   28.6437   35.1276 H   0  0  0  0  0  0  0  0  0  0  0  0
    0.1488   20.6469   41.7731 H   0  0  0  0  0  0  0  0  0  0  0  0
    1.3035   19.1013   42.2096 H   0  0  0  0  0  0  0  0  0  0  0  0
    3.2375   13.7539   33.8135 H   0  0  0  0  0  0  0  0  0  0  0  0
    2.2203   12.2890   33.8548 H   0  0  0  0  0  0  0  0  0  0  0  0
    2.7723   26.4319   30.9054 H   0  0  0  0  0  0  0  0  0  0  0  0
    3.1132   25.1061   31.9991 H   0  0  0  0  0  0  0  0  0  0  0  0
   -0.1698   28.8325   34.8597 H   0  0  0  0  0  0  0  0  0  0  0  0
    1.7388   18.7665   40.3062 H   0  0  0  0  0  0  0  0  0  0  0  0
    1.4957   13.9905   42.1071 H   0  0  0  0  0  0  0  0  0  0  0  0
    0.5618   13.9153   40.5745 H   0  0  0  0  0  0  0  0  0  0  0  0
    2.3047   13.4804   40.5866 H   0  0  0  0  0  0  0  0  0  0  0  0
    0.6456   26.7459   35.1988 H   0  0  0  0  0  0  0  0  0  0  0  0
    3.2300   27.7249   35.1281 H   0  0  0  0  0  0  0  0  0  0  0  0
    3.0678   25.9758   33.8842 H   0  0  0  0  0  0  0  0  0  0  0  0
    4.9984   13.1246   36.1902 H   0  0  0  0  0  0  0  0  0  0  0  0
    3.2769   16.6554   37.3062 H   0  0  0  0  0  0  0  0  0  0  0  0
  1  9  1  0
  2 37  1  0
  2 23  1  0
  3 35  1  0
  5 29  1  0
  5  2  2  0
  6 17  1  0
  6  5  1  0
  7 40  1  0
  7 42  1  0
  8 30  2  0
  9  3  1  0
 10 11  1  0
 10  1  1  0
 11  1  1  0
 12 28  2  3
 12 15  1  0
 16 33  1  0
 16 19  1  0
 16 25  1  0
 18 36  2  3
 19 12  1  0
 20  4  1  0
 21  4  1  0
 23 21  1  0
 24 22  2  0
 25 38  1  0
 25 39  1  0
 26 17  2  0
 27 18  1  0
 29 41  2  0
 31 20  1  0
 32 24  1  0
 33  8  1  0
 34 38  1  0
 35 27  1  0
 35 14  2  0
 36 31  1  0
 38 13  1  0
 39 15  1  0
 40 24  1  0
 40 26  1  0
 41 23  1  0
 42  6  2  0
  1 43  1  0
  3 44  1  0
  3 45  1  0
  4 46  1  0
  4 47  1  0
  8 48  1  0
  9 49  1  0
  9 50  1  0
 10 51  1  0
 10 52  1  0
 11 53  1  0
 11 54  1  0
 13 55  1  0
 13 56  1  0
 13 57  1  0
 16 58  1  1
 17 59  1  0
 18 60  1  0
 20 61  1  0
 20 62  1  0
 21 63  1  0
 21 64  1  0
 25 65  1  1
 26 66  1  0
 27 67  1  0
 28 68  1  0
 28 69  1  0
 31 70  1  0
 31 71  1  0
 32 72  1  0
 32 73  1  0
 33 74  1  0
 33 75  1  0
 34 76  1  0
 36 77  1  0
 37 78  1  0
 37 79  1  0
 37 80  1  0
 38 81  1  1
 39 82  1  0
 39 83  1  0
 40 84  1  6
 42 85  1  0
M  END
>  <mol_id>  (25) 
2026-09-18-3war-s0-n100-0025

>  <rmsd_to_ref>  (25) 


$$$$

     RDKit          3D

 48 48  0  0  0  0  0  0  0  0999 V2000
    2.7380   18.1990   40.0950 C   0  0  0  0  0  0  0  0  0  0  0  0
    0.6340   19.2250   41.5460 C   0  0  0  0  0  0  0  0  0  0  0  0
    2.7340   18.9780   38.8530 C   0  0  2  0  0  0  0  0  0  0  0  0
    1.7170   24.9940   33.0160 C   0  0  0  0  0  0  0  0  0  0  0  0
    3.4300   19.6220   38.4020 C   0  0  0  0  0  0  0  0  0  0  0  0
    2.5680   23.9970   32.1950 C   0  0  0  0  0  0  0  0  0  0  0  0
    1.8100   21.3090   38.0570 C   0  0  0  0  0  0  0  0  0  0  0  0
    2.8240   22.6770   34.0860 N   0  0  0  0  0  0  0  0  0  0  0  0
    2.2710   20.2980   38.9880 C   0  0  0  0  0  0  0  0  0  0  0  0
    3.2890   23.0510   32.7900 C   0  0  0  0  0  0  0  0  0  0  0  0
    3.0140   21.0380   35.9630 C   0  0  0  0  0  0  0  0  0  0  0  0
   -0.2250   20.3740   41.7750 C   0  0  0  0  0  0  0  0  0  0  0  0
    2.7190   24.8950   31.0200 C   0  0  0  0  0  0  0  0  0  0  0  0
    3.5750   21.7710   34.8030 C   0  0  0  0  0  0  0  0  0  0  0  0
    2.1510   21.3760   36.8750 C   0  0  0  0  0  0  0  0  0  0  0  0
    1.6560   25.8130   31.6920 C   0  0  0  0  0  0  0  0  0  0  0  0
    1.7000   18.7730   40.9860 C   0  0  0  0  0  0  0  0  0  0  0  0
    3.7247   18.2655   40.5766 H   0  0  0  0  0  0  0  0  0  0  0  0
    2.5273   17.1394   39.8879 H   0  0  0  0  0  0  0  0  0  0  0  0
    0.8439   18.9446   42.5887 H   0  0  0  0  0  0  0  0  0  0  0  0
    0.0569   18.9763   40.6431 H   0  0  0  0  0  0  0  0  0  0  0  0
    2.4237   18.0352   38.3788 H   0  0  0  0  0  0  0  0  0  0  0  0
    0.7516   24.6047   33.3716 H   0  0  0  0  0  0  0  0  0  0  0  0
    2.0489   25.4221   33.9734 H   0  0  0  0  0  0  0  0  0  0  0  0
    4.0000   20.1494   39.1811 H   0  0  0  0  0  0  0  0  0  0  0  0
    4.1195   19.0364   37.7762 H   0  0  0  0  0  0  0  0  0  0  0  0
    2.8996   20.3549   37.7762 H   0  0  0  0  0  0  0  0  0  0  0  0
    2.3897   22.9723   31.8369 H   0  0  0  0  0  0  0  0  0  0  0  0
    0.7136   21.2213   38.0441 H   0  0  0  0  0  0  0  0  0  0  0  0
    2.3068   22.2023   38.4635 H   0  0  0  0  0  0  0  0  0  0  0  0
    1.4209   20.1919   39.6779 H   0  0  0  0  0  0  0  0  0  0  0  0
    3.2674   20.7407   39.1334 H   0  0  0  0  0  0  0  0  0  0  0  0
    3.2768   22.1566   32.1498 H   0  0  0  0  0  0  0  0  0  0  0  0
    4.2972   23.4684   32.9289 H   0  0  0  0  0  0  0  0  0  0  0  0
    3.9044   20.7547   36.5435 H   0  0  0  0  0  0  0  0  0  0  0  0
    2.3350   20.3944   35.3844 H   0  0  0  0  0  0  0  0  0  0  0  0
   -0.3439   20.5331   42.8569 H   0  0  0  0  0  0  0  0  0  0  0  0
    0.2286   21.2673   41.3207 H   0  0  0  0  0  0  0  0  0  0  0  0
   -1.2101   20.1917   41.3207 H   0  0  0  0  0  0  0  0  0  0  0  0
    2.4083   24.4554   30.0607 H   0  0  0  0  0  0  0  0  0  0  0  0
    3.6996   25.2757   30.6983 H   0  0  0  0  0  0  0  0  0  0  0  0
    4.6182   21.5868   34.5068 H   0  0  0  0  0  0  0  0  0  0  0  0
    2.1926   22.4695   36.7632 H   0  0  0  0  0  0  0  0  0  0  0  0
    1.5789   20.4604   36.6644 H   0  0  0  0  0  0  0  0  0  0  0  0
    1.9809   26.8580   31.8030 H   0  0  0  0  0  0  0  0  0  0  0  0
    0.6863   25.9705   31.1971 H   0  0  0  0  0  0  0  0  0  0  0  0
    1.9046   18.0586   41.7970 H   0  0  0  0  0  0  0  0  0  0  0  0
    1.6300   19.6155   40.2822 H   0  0  0  0  0  0  0  0  0  0  0  0
  1 17  1  0
  2 12  1  0
  3  5  1  0
  3  9  1  0
  3  1  1  0
  6 10  1  0
  6  4  1  0
  7  9  1  0
  8 14  2  3
 10  8  1  0
 11 15  1  0
 13 16  1  0
 13  6  1  0
 14 11  1  0
 15  7  1  0
 16  4  1  0
 17  2  1  0
  1 18  1  0
  1 19  1  0
  2 20  1  0
  2 21  1  0
  3 22  1  6
  4 23  1  0
  4 24  1  0
  5 25  1  0
  5 26  1  0
  5 27  1  0
  6 28  1  0
  7 29  1  0
  7 30  1  0
  9 31  1  0
  9 32  1  0
 10 33  1  0
 10 34  1  0
 11 35  1  0
 11 36  1  0
 12 37  1  0
 12 38  1  0
 12 39  1  0
 13 40  1  0
 13 41  1  0
 14 42  1  0
 15 43  1  0
 15 44  1  0
 16 45  1  0
 16 46  1  0
 17 47  1  0
 17 48  1  0
M  END
>  <mol_id>  (26) 
2026-09-18-3war-s0-n100-0026

>  <rmsd_to_ref>  (26) 


$$$$

     RDKit          3D

 40 40  0  0  0  0  0  0  0  0999 V2000
    3.6490   22.3910   34.2630 C   0  0  0  0  0  0  0  0  0  0  0  0
    3.8980   24.9750   30.2300 C   0  0  0  0  0  0  0  0  0  0  0  0
    2.4010   17.9650   38.0390 C   0  0  0  0  0  0  0  0  0  0  0  0
    2.9640   17.4900   40.4140 C   0  0  0  0  0  0  0  0  0  0  0  0
    2.1860   19.9460   37.1510 O   0  0  0  0  0  0  0  0  0  0  0  0
    4.4740   23.9920   32.5600 C   0  0  0  0  0  0  0  0  0  0  0  0
    3.0950   20.0060   39.6760 C   0  0  0  0  0  0  0  0  0  0  0  0
    2.4970   21.1480   36.5630 C   0  0  0  0  0  0  0  0  0  0  0  0
    2.4880   19.3850   38.3900 C   0  0  2  0  0  0  0  0  0  0  0  0
    3.7320   24.1930   31.5310 C   0  0  0  0  0  0  0  0  0  0  0  0
    3.6190   18.7960   40.5640 C   0  0  0  0  0  0  0  0  0  0  0  0
    1.4820   22.1320   37.7390 C   0  0  0  0  0  0  0  0  0  0  0  0
    3.1890   21.3730   35.3570 S   0  0  0  0  0  4  0  0  0  0  0  0
    2.8580   26.1870   30.2080 C   0  0  0  0  0  0  0  0  0  0  0  0
    2.5570   16.9750   39.0890 C   0  0  0  0  0  0  0  0  0  0  0  0
    4.2620   22.9610   33.4540 C   0  0  0  0  0  0  0  0  0  0  0  0
    2.7752   22.2275   33.6151 H   0  0  0  0  0  0  0  0  0  0  0  0
    4.3612   22.7839   35.0035 H   0  0  0  0  0  0  0  0  0  0  0  0
    4.9231   25.3689   30.1660 H   0  0  0  0  0  0  0  0  0  0  0  0
    3.7091   24.3110   29.3736 H   0  0  0  0  0  0  0  0  0  0  0  0
    2.2208   17.6550   36.9991 H   0  0  0  0  0  0  0  0  0  0  0  0
    3.6556   16.7462   40.8365 H   0  0  0  0  0  0  0  0  0  0  0  0
    1.9961   17.6538   40.9103 H   0  0  0  0  0  0  0  0  0  0  0  0
    5.3188   24.6737   32.7376 H   0  0  0  0  0  0  0  0  0  0  0  0
    2.3267   20.5725   40.2226 H   0  0  0  0  0  0  0  0  0  0  0  0
    3.9121   20.7009   39.4322 H   0  0  0  0  0  0  0  0  0  0  0  0
    2.1383   19.8903   39.3023 H   0  0  0  0  0  0  0  0  0  0  0  0
    2.7574   23.6881   31.6032 H   0  0  0  0  0  0  0  0  0  0  0  0
    3.5132   19.0948   41.6173 H   0  0  0  0  0  0  0  0  0  0  0  0
    4.6479   18.6266   40.2136 H   0  0  0  0  0  0  0  0  0  0  0  0
    1.7558   21.8665   38.7708 H   0  0  0  0  0  0  0  0  0  0  0  0
    1.6667   23.2039   37.5748 H   0  0  0  0  0  0  0  0  0  0  0  0
    0.4164   21.9142   37.5748 H   0  0  0  0  0  0  0  0  0  0  0  0
    3.6781   20.1537   34.9685 H   0  0  0  0  0  0  0  0  0  0  0  0
    2.6099   26.4761   31.2399 H   0  0  0  0  0  0  0  0  0  0  0  0
    3.3055   27.0447   29.6845 H   0  0  0  0  0  0  0  0  0  0  0  0
    1.9423   25.8749   29.6845 H   0  0  0  0  0  0  0  0  0  0  0  0
    2.3826   15.9039   38.9095 H   0  0  0  0  0  0  0  0  0  0  0  0
    4.3734   22.1285   32.7437 H   0  0  0  0  0  0  0  0  0  0  0  0
    4.6241   23.6271   34.2510 H   0  0  0  0  0  0  0  0  0  0  0  0
  1 13  1  0
  2 10  1  0
  3  9  1  0
  3 15  2  0
  4 11  1  0
  6 16  1  0
  7 11  1  0
  8  5  1  0
  8 12  1  0
  9  5  1  0
  9  7  1  0
 10  6  2  3
 13  8  2  3
 14  2  1  0
 15  4  1  0
 16  1  1  0
  1 17  1  0
  1 18  1  0
  2 19  1  0
  2 20  1  0
  3 21  1  0
  4 22  1  0
  4 23  1  0
  6 24  1  0
  7 25  1  0
  7 26  1  0
  9 27  1  1
 10 28  1  0
 11 29  1  0
 11 30  1  0
 12 31  1  0
 12 32  1  0
 12 33  1  0
 13 34  1  0
 14 35  1  0
 14 36  1  0
 14 37  1  0
 15 38  1  0
 16 39  1  0
 16 40  1  0
M  END
>  <mol_id>  (27) 
2026-09-18-3war-s0-n100-0027

>  <rmsd_to_ref>  (27) 


$$$$

     RDKit          3D

 70 72  0  0  0  0  0  0  0  0999 V2000
   -1.1316   20.3092   45.1713 N   0  0  0  0  0  0  0  0  0  0  0  0
    3.2592   26.5033   29.6186 S   0  0  2  0  0  4  0  0  0  0  0  0
    1.4664   19.3232   41.4559 N   0  0  0  0  0  0  0  0  0  0  0  0
    1.8472   21.8667   37.5658 C   0  0  0  0  0  0  0  0  0  0  0  0
    2.6721   22.3033   35.0828 C   0  0  0  0  0  0  0  0  0  0  0  0
    3.2450   25.9074   32.4282 O   0  0  0  0  0  0  0  0  0  0  0  0
    2.9555   19.2346   39.6198 C   0  0  1  0  0  0  0  0  0  0  0  0
    2.6503   19.7414   40.9449 N   0  0  0  0  0  0  0  0  0  0  0  0
    1.3437   18.0691   41.9205 C   0  0  0  0  0  0  0  0  0  0  0  0
   -0.6616   17.8615   45.7745 C   0  0  0  0  0  0  0  0  0  0  0  0
   -0.1205   19.1520   43.4746 C   0  0  0  0  0  0  0  0  0  0  0  0
   -0.7241   19.0728   44.8066 C   0  0  2  0  0  0  0  0  0  0  0  0
    3.0124   19.8216   37.9317 O   0  0  0  0  0  0  0  0  0  0  0  0
    0.5011   17.9370   43.0385 N   0  0  0  0  0  0  0  0  0  0  0  0
    2.8673   23.4237   32.9101 C   0  0  0  0  0  0  0  0  0  0  0  0
    1.0240   26.9534   31.7560 S   0  0  1  0  0  4  0  0  0  0  0  0
    2.7136   21.7281   36.6149 C   0  0  0  0  0  0  0  0  0  0  0  0
    3.1669   20.6603   38.7707 C   0  0  1  0  0  0  0  0  0  0  0  0
    3.5064   16.9427   38.3291 C   0  0  0  0  0  0  0  0  0  0  0  0
    2.7046   25.1719   30.4124 C   0  0  0  0  0  0  0  0  0  0  0  0
   -0.9740   21.0856   44.0201 C   0  0  0  0  0  0  0  0  0  0  0  0
    2.4135   23.8667   33.6495 C   0  0  0  0  0  0  0  0  0  0  0  0
    2.5424   24.9316   32.6905 C   0  0  1  0  0  0  0  0  0  0  0  0
    2.3949   25.7961   31.6975 C   0  0  1  0  0  0  0  0  0  0  0  0
    1.8758   21.5302   39.1095 C   0  0  0  0  0  0  0  0  0  0  0  0
    4.9807   26.3725   29.6429 C   0  0  0  0  0  0  0  0  0  0  0  0
    2.0448   23.4819   34.8820 C   0  0  0  0  0  0  0  0  0  0  0  0
    0.9067   27.9071   32.9991 C   0  0  0  0  0  0  0  0  0  0  0  0
   -0.3487   20.4787   42.8873 C   0  0  0  0  0  0  0  0  0  0  0  0
    2.2866   27.6889   30.4562 C   0  0  0  0  0  0  0  0  0  0  0  0
    1.6623   17.1755   41.2317 O   0  0  0  0  0  0  0  0  0  0  0  0
    3.8015   17.8345   39.3041 C   0  0  0  0  0  0  0  0  0  0  0  0
    3.1179   26.7847   28.2852 H   0  0  0  0  0  0  0  0  0  0  0  0
    0.6624   19.9662   41.4879 H   0  0  0  0  0  0  0  0  0  0  0  0
    0.8972   22.3091   37.2316 H   0  0  0  0  0  0  0  0  0  0  0  0
    3.7124   22.4207   34.7454 H   0  0  0  0  0  0  0  0  0  0  0  0
    2.0788   21.5674   34.5202 H   0  0  0  0  0  0  0  0  0  0  0  0
    2.1749   18.5694   39.2220 H   0  0  0  0  0  0  0  0  0  0  0  0
    3.3995   19.4390   41.5837 H   0  0  0  0  0  0  0  0  0  0  0  0
   -0.6244   18.2232   46.8127 H   0  0  0  0  0  0  0  0  0  0  0  0
   -1.5552   17.2351   45.6362 H   0  0  0  0  0  0  0  0  0  0  0  0
    0.2393   17.2675   45.5608 H   0  0  0  0  0  0  0  0  0  0  0  0
   -1.4114   18.2172   44.8798 H   0  0  0  0  0  0  0  0  0  0  0  0
    2.9117   18.9368   38.3643 H   0  0  0  0  0  0  0  0  0  0  0  0
    0.3426   17.0345   43.5087 H   0  0  0  0  0  0  0  0  0  0  0  0
    3.0589   23.9708   31.9752 H   0  0  0  0  0  0  0  0  0  0  0  0
    3.1882   22.3763   33.0100 H   0  0  0  0  0  0  0  0  0  0  0  0
   -0.3009   26.6174   31.6629 H   0  0  0  0  0  0  0  0  0  0  0  0
    3.6061   21.1392   36.8729 H   0  0  0  0  0  0  0  0  0  0  0  0
    3.9663   21.4158   38.7565 H   0  0  0  0  0  0  0  0  0  0  0  0
    4.1276   16.0442   38.1991 H   0  0  0  0  0  0  0  0  0  0  0  0
    2.6455   17.1167   37.6669 H   0  0  0  0  0  0  0  0  0  0  0  0
    1.8108   24.7464   29.9327 H   0  0  0  0  0  0  0  0  0  0  0  0
    3.3964   24.3176   30.4517 H   0  0  0  0  0  0  0  0  0  0  0  0
   -1.3199   22.1293   43.9869 H   0  0  0  0  0  0  0  0  0  0  0  0
    3.1942   24.2963   32.0727 H   0  0  0  0  0  0  0  0  0  0  0  0
    2.0542   22.3909   39.7709 H   0  0  0  0  0  0  0  0  0  0  0  0
    1.0066   21.1209   39.6453 H   0  0  0  0  0  0  0  0  0  0  0  0
    5.3293   26.3143   30.6845 H   0  0  0  0  0  0  0  0  0  0  0  0
    5.2871   25.4648   29.1024 H   0  0  0  0  0  0  0  0  0  0  0  0
    5.4223   27.2551   29.1572 H   0  0  0  0  0  0  0  0  0  0  0  0
    2.3645   24.2223   35.6300 H   0  0  0  0  0  0  0  0  0  0  0  0
    0.9527   23.3898   34.9765 H   0  0  0  0  0  0  0  0  0  0  0  0
    1.0403   27.3243   33.9224 H   0  0  0  0  0  0  0  0  0  0  0  0
    1.6835   28.6837   32.9399 H   0  0  0  0  0  0  0  0  0  0  0  0
   -0.0859   28.3811   33.0051 H   0  0  0  0  0  0  0  0  0  0  0  0
   -0.1128   20.8788   41.8902 H   0  0  0  0  0  0  0  0  0  0  0  0
    2.9647   28.3722   30.9883 H   0  0  0  0  0  0  0  0  0  0  0  0
    1.6794   28.1877   29.6864 H   0  0  0  0  0  0  0  0  0  0  0  0
    4.6719   17.6166   39.9404 H   0  0  0  0  0  0  0  0  0  0  0  0
  2 26  1  0
  2 30  1  0
  2 20  1  0
  3  9  1  0
  4 25  1  0
  5 17  1  0
  6 23  1  0
  7 32  1  0
  7  8  1  0
  8  3  1  0
  9 14  1  0
 11 12  1  0
 12  1  1  0
 12 10  1  0
 14 11  1  0
 15 22  2  3
 16 24  1  0
 16 28  1  0
 17  4  2  3
 18 13  1  0
 18 25  1  0
 18  7  1  0
 19 32  2  3
 21  1  2  0
 22 27  1  0
 23 22  1  0
 24 20  1  0
 24  6  1  1
 24 23  1  0
 27  5  1  0
 29 11  2  0
 29 21  1  0
 30 16  1  0
 31  9  2  0
  2 33  1  6
  3 34  1  0
  4 35  1  0
  5 36  1  0
  5 37  1  0
  7 38  1  6
  8 39  1  0
 10 40  1  0
 10 41  1  0
 10 42  1  0
 12 43  1  6
 13 44  1  0
 14 45  1  0
 15 46  1  0
 15 47  1  0
 16 48  1  6
 17 49  1  0
 18 50  1  6
 19 51  1  0
 19 52  1  0
 20 53  1  0
 20 54  1  0
 21 55  1  0
 23 56  1  6
 25 57  1  0
 25 58  1  0
 26 59  1  0
 26 60  1  0
 26 61  1  0
 27 62  1  0
 27 63  1  0
 28 64  1  0
 28 65  1  0
 28 66  1  0
 29 67  1  0
 30 68  1  0
 30 69  1  0
 32 70  1  0
M  END
>  <mol_id>  (28) 
2026-09-18-3war-s0-n100-0028

>  <rmsd_to_ref>  (28) 


$$$$

     RDKit          3D

 70 72  0  0  0  0  0  0  0  0999 V2000
    3.6130   13.1560   37.8930 O   0  0  0  0  0  0  0  0  0  0  0  0
    2.9650   25.0780   29.6870 C   0  0  1  0  0  0  0  0  0  0  0  0
    3.5100   20.1770   36.3620 C   0  0  0  0  0  0  0  0  0  0  0  0
    2.3920   20.2430   38.5900 C   0  0  0  0  0  0  0  0  0  0  0  0
    1.9110   16.7870   41.0100 O   0  0  0  0  0  0  0  0  0  0  0  0
    3.6290   18.7150   37.1340 C   0  0  0  0  0  0  0  0  0  0  0  0
    1.8170   25.9950   32.0300 C   0  0  1  0  0  0  0  0  0  0  0  0
    4.8730   15.2050   36.7420 O   0  0  0  0  0  0  0  0  0  0  0  0
    2.9250   17.9270   39.2890 C   0  0  2  0  0  0  0  0  0  0  0  0
    2.9920   19.1360   38.3230 C   0  0  0  0  0  0  0  0  0  0  0  0
    1.8510   25.3330   30.6000 C   0  0  2  0  0  0  0  0  0  0  0  0
    1.7400   20.9200   39.6860 C   0  0  0  0  0  0  0  0  0  0  0  0
    2.1120   17.9170   40.4480 C   0  0  0  0  0  0  0  0  0  0  0  0
    2.0980   21.9580   35.1350 O   0  0  0  0  0  0  0  0  0  0  0  0
    3.6430   16.8970   38.9170 O   0  0  0  0  0  0  0  0  0  0  0  0
    5.3250   24.5100   29.1300 S   0  0  0  0  0  0  0  0  0  0  0  0
    0.7870   26.1470   32.9970 C   0  0  0  0  0  0  0  0  0  0  0  0
    1.6750   19.0340   41.2830 N   0  0  0  0  0  0  0  0  0  0  0  0
    4.0210   24.4590   30.2560 C   0  0  0  0  0  0  0  0  0  0  0  0
    3.5580   14.6430   37.4020 P   0  0  0  0  0  5  0  0  0  0  0  0
    2.8760   24.8910   28.2190 C   0  0  0  0  0  0  0  0  0  0  0  0
    0.8300   21.1820   41.9150 C   0  0  0  0  0  0  0  0  0  0  0  0
    2.3540   14.7430   36.5880 O   0  0  0  0  0  0  0  0  0  0  0  0
    2.3650   24.5570   31.8880 C   0  0  2  0  0  0  0  0  0  0  0  0
    1.4170   20.3170   40.9890 C   0  0  0  0  0  0  0  0  0  0  0  0
    2.7840   23.6700   34.2420 C   0  0  0  0  0  0  0  0  0  0  0  0
   -0.4480   19.9620   42.2320 C   0  0  0  0  0  0  0  0  0  0  0  0
    1.9160   23.4240   32.9800 C   0  0  0  0  0  0  0  0  0  0  0  0
    2.5940   20.8100   37.2950 C   0  0  0  0  0  0  0  0  0  0  0  0
    4.2770   24.6320   27.8280 C   0  0  0  0  0  0  0  0  0  0  0  0
    3.0040   22.3880   34.7670 C   0  0  0  0  0  0  0  0  0  0  0  0
    3.5350   15.5480   38.8660 C   0  0  0  0  0  0  0  0  0  0  0  0
    3.6138   13.1351   38.8828 H   0  0  0  0  0  0  0  0  0  0  0  0
    3.0689   26.1632   29.5402 H   0  0  0  0  0  0  0  0  0  0  0  0
    4.4761   20.6997   36.3039 H   0  0  0  0  0  0  0  0  0  0  0  0
    3.1913   20.1481   35.3096 H   0  0  0  0  0  0  0  0  0  0  0  0
    3.0810   17.9135   36.6170 H   0  0  0  0  0  0  0  0  0  0  0  0
    4.6315   18.2718   37.2266 H   0  0  0  0  0  0  0  0  0  0  0  0
    2.1054   27.0233   32.2935 H   0  0  0  0  0  0  0  0  0  0  0  0
    5.5082   15.4765   37.4512 H   0  0  0  0  0  0  0  0  0  0  0  0
    2.0796   17.5530   38.6928 H   0  0  0  0  0  0  0  0  0  0  0  0
    1.0936   25.5058   29.8212 H   0  0  0  0  0  0  0  0  0  0  0  0
    2.3794   21.7851   39.9158 H   0  0  0  0  0  0  0  0  0  0  0  0
    0.7285   21.0346   39.2691 H   0  0  0  0  0  0  0  0  0  0  0  0
    2.1086   21.9630   36.1249 H   0  0  0  0  0  0  0  0  0  0  0  0
    1.2194   26.0832   34.0064 H   0  0  0  0  0  0  0  0  0  0  0  0
    0.3032   27.1263   32.8666 H   0  0  0  0  0  0  0  0  0  0  0  0
    0.0410   25.3492   32.8666 H   0  0  0  0  0  0  0  0  0  0  0  0
    4.3054   24.9786   31.1829 H   0  0  0  0  0  0  0  0  0  0  0  0
    3.7688   23.4183   30.5076 H   0  0  0  0  0  0  0  0  0  0  0  0
    2.2316   24.0355   27.9684 H   0  0  0  0  0  0  0  0  0  0  0  0
    2.4349   25.7544   27.6994 H   0  0  0  0  0  0  0  0  0  0  0  0
    0.4577   22.1214   41.4803 H   0  0  0  0  0  0  0  0  0  0  0  0
    1.4217   21.5999   42.7428 H   0  0  0  0  0  0  0  0  0  0  0  0
    3.2388   23.8905   31.9351 H   0  0  0  0  0  0  0  0  0  0  0  0
    2.2482   24.3010   34.9664 H   0  0  0  0  0  0  0  0  0  0  0  0
    3.7220   24.1960   34.0108 H   0  0  0  0  0  0  0  0  0  0  0  0
   -0.5766   19.8393   43.3175 H   0  0  0  0  0  0  0  0  0  0  0  0
   -1.3955   20.2992   41.7864 H   0  0  0  0  0  0  0  0  0  0  0  0
   -0.1551   18.9999   41.7864 H   0  0  0  0  0  0  0  0  0  0  0  0
    0.8489   23.5319   33.2244 H   0  0  0  0  0  0  0  0  0  0  0  0
    2.0618   22.4076   32.5855 H   0  0  0  0  0  0  0  0  0  0  0  0
    2.9575   21.8365   37.4505 H   0  0  0  0  0  0  0  0  0  0  0  0
    1.6142   20.6900   36.8097 H   0  0  0  0  0  0  0  0  0  0  0  0
    4.3119   23.6883   27.2638 H   0  0  0  0  0  0  0  0  0  0  0  0
    4.6083   25.4913   27.2265 H   0  0  0  0  0  0  0  0  0  0  0  0
    3.4115   21.7419   33.9755 H   0  0  0  0  0  0  0  0  0  0  0  0
    3.7127   22.4728   35.6040 H   0  0  0  0  0  0  0  0  0  0  0  0
    2.5792   15.3052   39.3534 H   0  0  0  0  0  0  0  0  0  0  0  0
    4.4885   15.2411   39.3205 H   0  0  0  0  0  0  0  0  0  0  0  0
  2 21  1  0
  2 19  1  0
  3  6  1  0
  3 29  1  0
  4 12  1  0
  6 10  1  0
  7 17  1  0
  8 20  1  0
  9 15  1  0
  9 13  1  0
 10  4  2  0
 10  9  1  0
 11  2  1  0
 11 24  1  0
 11  7  1  0
 12 25  1  0
 13  5  2  0
 13 18  1  0
 16 19  1  0
 20  1  1  0
 20 32  1  0
 22 27  1  0
 23 20  2  0
 24  7  1  0
 24 28  1  0
 25 18  2  0
 25 22  1  0
 26 31  1  0
 28 26  1  0
 29  4  1  0
 30 21  1  0
 30 16  1  0
 31 14  1  0
 32 15  1  0
  1 33  1  0
  2 34  1  6
  3 35  1  0
  3 36  1  0
  6 37  1  0
  6 38  1  0
  7 39  1  6
  8 40  1  0
  9 41  1  6
 11 42  1  6
 12 43  1  0
 12 44  1  0
 14 45  1  0
 17 46  1  0
 17 47  1  0
 17 48  1  0
 19 49  1  0
 19 50  1  0
 21 51  1  0
 21 52  1  0
 22 53  1  0
 22 54  1  0
 24 55  1  6
 26 56  1  0
 26 57  1  0
 27 58  1  0
 27 59  1  0
 27 60  1  0
 28 61  1  0
 28 62  1  0
 29 63  1  0
 29 64  1  0
 30 65  1  0
 30 66  1  0
 31 67  1  0
 31 68  1  0
 32 69  1  0
 32 70  1  0
M  END
>  <mol_id>  (29) 
2026-09-18-3war-s0-n100-0029

>  <rmsd_to_ref>  (29) 


$$$$

     RDKit          3D

 66 68  0  0  0  0  0  0  0  0999 V2000
    0.6340   27.1510   32.5500 O   0  0  0  0  0  0  0  0  0  0  0  0
    5.3960   23.3880   30.8860 C   0  0  0  0  0  0  0  0  0  0  0  0
    2.5860   26.2420   32.6500 C   0  0  2  0  0  0  0  0  0  0  0  0
    2.5940   24.8020   32.5960 C   0  0  1  0  0  0  0  0  0  0  0  0
    2.8330   15.3150   39.8070 O   0  0  0  0  0  0  0  0  0  0  0  0
    4.3040   20.3700   35.2660 C   0  0  0  0  0  0  0  0  0  0  0  0
    3.0870   20.0570   37.6430 C   0  0  2  0  0  0  0  0  0  0  0  0
    3.9930   22.9300   32.5530 N   0  0  0  0  0  0  0  0  0  0  0  0
    1.2590   15.5270   40.7070 S   0  0  0  0  0  4  0  0  0  0  0  0
    2.4080   17.8600   40.6150 N   0  0  0  0  0  0  0  0  0  0  0  0
    3.9090   18.3440   36.5850 O   0  0  0  0  0  0  0  0  0  0  0  0
    3.5560   19.8260   40.4890 O   0  0  0  0  0  0  0  0  0  0  0  0
    1.4990   26.7930   31.7630 C   0  0  0  0  0  0  0  0  0  0  0  0
    2.9360   25.1090   29.6510 O   0  0  0  0  0  0  0  0  0  0  0  0
    3.9920   25.6310   31.9540 S   0  0  2  0  0  4  0  0  0  0  0  0
   -0.6440   17.5940   43.7720 C   0  0  0  0  0  0  0  0  0  0  0  0
    3.2910   19.0100   38.4830 C   0  0  2  0  0  0  0  0  0  0  0  0
    1.4660   26.4940   30.5110 N   0  0  0  0  0  0  0  0  0  0  0  0
    1.6770   22.1490   37.6240 C   0  0  0  0  0  0  0  0  0  0  0  0
    0.8910   18.9080   42.0560 C   0  0  0  0  0  0  0  0  0  0  0  0
    1.6530   25.6550   28.0980 C   0  0  0  0  0  0  0  0  0  0  0  0
    3.2610   22.7910   33.6040 C   0  0  0  0  0  0  0  0  0  0  0  0
    1.8590   25.6480   29.5230 C   0  0  0  0  0  0  0  0  0  0  0  0
    2.3300   21.3460   37.7290 C   0  0  0  0  0  0  0  0  0  0  0  0
    0.0580   16.7340   43.0180 C   0  0  0  0  0  0  0  0  0  0  0  0
    3.7020   17.8330   37.8700 N   0  0  0  0  0  0  0  0  0  0  0  0
    0.1060   19.5970   42.8470 N   0  0  0  0  0  0  0  0  0  0  0  0
   -0.6440   18.9550   43.6470 C   0  0  0  0  0  0  0  0  0  0  0  0
    3.0310   18.9200   39.9950 C   0  0  0  0  0  0  0  0  0  0  0  0
    0.8570   16.6840   41.8650 C   0  0  0  0  0  0  0  0  0  0  0  0
    2.8260   24.1600   33.7610 C   0  0  0  0  0  0  0  0  0  0  0  0
    1.4530   17.8270   41.6120 C   0  0  0  0  0  0  0  0  0  0  0  0
    4.6800   24.0770   32.1980 C   0  0  2  0  0  0  0  0  0  0  0  0
    3.7910   19.7090   36.4780 C   0  0  2  0  0  0  0  0  0  0  0  0
    6.1512   22.6612   31.2199 H   0  0  0  0  0  0  0  0  0  0  0  0
    4.6349   22.8740   30.2806 H   0  0  0  0  0  0  0  0  0  0  0  0
    5.8804   24.1683   30.2806 H   0  0  0  0  0  0  0  0  0  0  0  0
    2.4950   27.0007   33.4412 H   0  0  0  0  0  0  0  0  0  0  0  0
    1.8797   24.0641   32.2021 H   0  0  0  0  0  0  0  0  0  0  0  0
    4.9550   21.2088   35.5535 H   0  0  0  0  0  0  0  0  0  0  0  0
    4.8796   19.6468   34.6697 H   0  0  0  0  0  0  0  0  0  0  0  0
    3.4606   20.7481   34.6697 H   0  0  0  0  0  0  0  0  0  0  0  0
    3.9809   20.5550   38.0467 H   0  0  0  0  0  0  0  0  0  0  0  0
    4.7098   22.1935   32.6212 H   0  0  0  0  0  0  0  0  0  0  0  0
    3.2653   22.9228   31.8241 H   0  0  0  0  0  0  0  0  0  0  0  0
    0.3198   15.6865   39.7224 H   0  0  0  0  0  0  0  0  0  0  0  0
    2.7051   16.9333   40.2775 H   0  0  0  0  0  0  0  0  0  0  0  0
    4.9079   26.3853   31.2692 H   0  0  0  0  0  0  0  0  0  0  0  0
   -1.2770   17.1645   44.5625 H   0  0  0  0  0  0  0  0  0  0  0  0
    4.3126   19.3671   38.6799 H   0  0  0  0  0  0  0  0  0  0  0  0
    0.8851   27.2143   30.0586 H   0  0  0  0  0  0  0  0  0  0  0  0
    0.9865   22.9981   37.5130 H   0  0  0  0  0  0  0  0  0  0  0  0
    1.3088   19.6837   41.3973 H   0  0  0  0  0  0  0  0  0  0  0  0
    0.5747   25.6916   27.8836 H   0  0  0  0  0  0  0  0  0  0  0  0
    2.1440   26.5370   27.6609 H   0  0  0  0  0  0  0  0  0  0  0  0
    2.0829   24.7417   27.6609 H   0  0  0  0  0  0  0  0  0  0  0  0
    2.4167   22.1075   33.4308 H   0  0  0  0  0  0  0  0  0  0  0  0
    3.7664   22.3527   34.4772 H   0  0  0  0  0  0  0  0  0  0  0  0
   -0.0188   15.7255   43.4505 H   0  0  0  0  0  0  0  0  0  0  0  0
    2.9708   17.1078   37.8882 H   0  0  0  0  0  0  0  0  0  0  0  0
   -0.4140   19.3459   44.6491 H   0  0  0  0  0  0  0  0  0  0  0  0
   -1.6293   19.1216   43.1873 H   0  0  0  0  0  0  0  0  0  0  0  0
    3.6057   24.7095   34.3089 H   0  0  0  0  0  0  0  0  0  0  0  0
    1.8686   24.1285   34.3018 H   0  0  0  0  0  0  0  0  0  0  0  0
    5.2496   24.4992   33.0390 H   0  0  0  0  0  0  0  0  0  0  0  0
    2.8099   19.5864   35.9959 H   0  0  0  0  0  0  0  0  0  0  0  0
  2 33  1  0
  3 13  1  0
  4  3  1  0
  4 31  1  0
  5  9  2  0
  6 34  1  0
  7 24  1  0
  7 17  1  0
  8 22  1  0
  9 30  1  0
 10 32  1  0
 11 26  1  0
 13  1  2  0
 15 33  1  0
 15  4  1  0
 15  3  1  0
 17 29  1  0
 18 13  1  0
 19 24  3  0
 20 27  2  0
 21 23  1  0
 22 31  1  0
 23 14  2  0
 23 18  1  0
 25 16  2  0
 26 17  1  0
 27 28  1  0
 28 16  1  0
 29 12  2  0
 29 10  1  0
 30 25  1  0
 32 30  2  0
 32 20  1  0
 33  8  1  0
 34 11  1  0
 34  7  1  0
  2 35  1  0
  2 36  1  0
  2 37  1  0
  3 38  1  1
  4 39  1  6
  6 40  1  0
  6 41  1  0
  6 42  1  0
  7 43  1  1
  8 44  1  0
  8 45  1  0
  9 46  1  6
 10 47  1  0
 15 48  1  0
 16 49  1  0
 17 50  1  1
 18 51  1  0
 19 52  1  0
 20 53  1  0
 21 54  1  0
 21 55  1  0
 21 56  1  0
 22 57  1  0
 22 58  1  0
 25 59  1  0
 26 60  1  0
 28 61  1  0
 28 62  1  0
 31 63  1  0
 31 64  1  0
 33 65  1  1
 34 66  1  1
M  CHG  1   8   1
M  END
>  <mol_id>  (30) 
2026-09-18-3war-s0-n100-0030

>  <rmsd_to_ref>  (30) 


$$$$

     RDKit          3D

 25 25  0  0  0  0  0  0  0  0999 V2000
    2.0260   20.7870   38.2620 C   0  0  0  0  0  0  0  0  0  0  0  0
    3.5720   22.6830   33.6270 C   0  0  0  0  0  0  0  0  0  0  0  0
    2.4040   22.2190   34.6060 C   0  0  0  0  0  0  0  0  0  0  0  0
    2.8400   20.2690   37.0540 C   0  0  0  0  0  0  0  0  0  0  0  0
    1.8790   23.4610   35.3620 C   0  0  0  0  0  0  0  0  0  0  0  0
    2.8290   21.1070   35.6290 N   0  0  0  0  0  0  0  0  0  0  0  0
    1.5740   20.6380   40.6240 C   0  0  0  0  0  0  0  0  0  0  0  0
    3.7460   18.3940   38.5650 C   0  0  0  0  0  0  0  0  0  0  0  0
    1.0540   21.0710   41.6190 N   0  0  0  0  0  0  0  0  0  0  0  0
    2.1660   20.0350   39.6070 C   0  0  0  0  0  0  0  0  0  0  0  0
    3.1160   18.7730   39.7940 C   0  0  0  0  0  0  0  0  0  0  0  0
    3.6320   19.0640   37.2380 C   0  0  0  0  0  0  0  0  0  0  0  0
    1.2290   21.3760   33.4940 S   0  0  0  0  0  0  0  0  0  0  0  0
    1.3676   21.6632   38.1682 H   0  0  0  0  0  0  0  0  0  0  0  0
    4.4331   23.0251   34.2198 H   0  0  0  0  0  0  0  0  0  0  0  0
    3.8763   21.8375   32.9926 H   0  0  0  0  0  0  0  0  0  0  0  0
    3.2131   23.5068   32.9926 H   0  0  0  0  0  0  0  0  0  0  0  0
    1.9519   23.2884   36.4459 H   0  0  0  0  0  0  0  0  0  0  0  0
    2.4830   24.3389   35.0890 H   0  0  0  0  0  0  0  0  0  0  0  0
    0.8285   23.6395   35.0890 H   0  0  0  0  0  0  0  0  0  0  0  0
    3.5209   20.5790   35.0782 H   0  0  0  0  0  0  0  0  0  0  0  0
    4.3902   17.5032   38.6048 H   0  0  0  0  0  0  0  0  0  0  0  0
    3.2704   18.2541   40.7515 H   0  0  0  0  0  0  0  0  0  0  0  0
    4.1616   18.6348   36.3747 H   0  0  0  0  0  0  0  0  0  0  0  0
    0.2951   20.7060   34.2396 H   0  0  0  0  0  0  0  0  0  0  0  0
  1 10  2  0
  2  3  1  0
  3  5  1  0
  3  6  1  0
  4 12  2  0
  4  1  1  0
  6  4  1  0
  7  9  3  0
  8 11  2  0
 10 11  1  0
 10  7  1  0
 12  8  1  0
 13  3  1  0
  1 14  1  0
  2 15  1  0
  2 16  1  0
  2 17  1  0
  5 18  1  0
  5 19  1  0
  5 20  1  0
  6 21  1  0
  8 22  1  0
 11 23  1  0
 12 24  1  0
 13 25  1  0
M  END
>  <mol_id>  (31) 
2026-09-18-3war-s0-n100-0031

>  <rmsd_to_ref>  (31) 


$$$$

     RDKit          3D

 32 34  0  0  0  0  0  0  0  0999 V2000
    2.3440   20.8890   37.4050 C   0  0  2  0  0  0  0  0  0  0  0  0
    1.5670   22.4030   34.4930 O   0  0  0  0  0  0  0  0  0  0  0  0
    1.7620   19.9710   39.6960 C   0  0  0  0  0  0  0  0  0  0  0  0
    2.9680   19.2220   39.0230 C   0  0  2  0  0  0  0  0  0  0  0  0
    2.5730   22.3240   34.9800 C   0  0  0  0  0  0  0  0  0  0  0  0
    4.7840   23.5270   33.2470 C   0  0  0  0  0  0  0  0  0  0  0  0
    3.5990   24.1550   31.4370 C   0  0  0  0  0  0  0  0  0  0  0  0
    3.5510   23.5450   32.7650 C   0  0  0  0  0  0  0  0  0  0  0  0
    3.7500   22.6000   33.4360 C   0  0  2  0  0  0  0  0  0  0  0  0
    1.6670   21.4580   38.8630 S   0  0  0  0  0  0  0  0  0  0  0  0
    3.1060   19.8200   37.7140 N   0  0  0  0  0  0  0  0  0  0  0  0
    2.6020   22.0850   36.4810 C   0  0  0  0  0  0  0  0  0  0  0  0
    2.6320   17.6570   38.9970 C   0  0  0  0  0  0  0  0  0  0  0  0
    4.3610   19.3520   40.1850 Cl  0  0  0  0  0  0  0  0  0  0  0  0
    2.6880   24.5620   32.3150 C   0  0  0  0  0  0  0  0  0  0  0  0
    1.7914   20.3613   36.6137 H   0  0  0  0  0  0  0  0  0  0  0  0
    0.8313   19.3972   39.5754 H   0  0  0  0  0  0  0  0  0  0  0  0
    1.9035   20.1053   40.7786 H   0  0  0  0  0  0  0  0  0  0  0  0
    5.0952   24.2103   34.0509 H   0  0  0  0  0  0  0  0  0  0  0  0
    5.8182   23.5469   32.8728 H   0  0  0  0  0  0  0  0  0  0  0  0
    3.2906   23.5748   30.5548 H   0  0  0  0  0  0  0  0  0  0  0  0
    4.3771   24.6524   30.8395 H   0  0  0  0  0  0  0  0  0  0  0  0
    3.7762   21.5024   33.3681 H   0  0  0  0  0  0  0  0  0  0  0  0
    2.8940   19.0869   37.0223 H   0  0  0  0  0  0  0  0  0  0  0  0
    4.0675   20.1893   37.7087 H   0  0  0  0  0  0  0  0  0  0  0  0
    1.8924   22.8365   36.8574 H   0  0  0  0  0  0  0  0  0  0  0  0
    3.6977   22.0056   36.5370 H   0  0  0  0  0  0  0  0  0  0  0  0
    2.5515   17.2821   40.0280 H   0  0  0  0  0  0  0  0  0  0  0  0
    1.6787   17.4953   38.4726 H   0  0  0  0  0  0  0  0  0  0  0  0
    3.4349   17.1182   38.4726 H   0  0  0  0  0  0  0  0  0  0  0  0
    2.7727   25.5692   32.7489 H   0  0  0  0  0  0  0  0  0  0  0  0
    1.5925   24.6520   32.2723 H   0  0  0  0  0  0  0  0  0  0  0  0
  1 12  1  0
  1 11  1  0
  1 10  1  0
  2  5  2  0
  4 13  1  0
  4  3  1  0
  4 14  1  1
  5 12  1  0
  6  9  1  0
  7 15  1  0
  7  8  1  0
  8  6  1  0
  8  9  1  0
  9  5  1  0
 10  3  1  0
 11  4  1  0
 15  8  1  0
  1 16  1  6
  3 17  1  0
  3 18  1  0
  6 19  1  0
  6 20  1  0
  7 21  1  0
  7 22  1  0
  9 23  1  6
 11 24  1  0
 11 25  1  0
 12 26  1  0
 12 27  1  0
 13 28  1  0
 13 29  1  0
 13 30  1  0
 15 31  1  0
 15 32  1  0
M  CHG  1  11   1
M  END
>  <mol_id>  (32) 
2026-09-18-3war-s0-n100-0032

>  <rmsd_to_ref>  (32) 


$$$$

     RDKit          3D

 69 70  0  0  0  0  0  0  0  0999 V2000
    1.7378   21.5268   37.3795 C   0  0  0  0  0  0  0  0  0  0  0  0
    1.7665   24.7366   34.8204 C   0  0  0  0  0  0  0  0  0  0  0  0
    2.0081   23.7451   34.3869 C   0  0  2  0  0  0  0  0  0  0  0  0
    1.7368   28.1059   32.1281 C   0  0  0  0  0  0  0  0  0  0  0  0
   -0.0401   14.5130   40.0216 C   0  0  0  0  0  0  0  0  0  0  0  0
    1.6011   20.8356   38.3985 C   0  0  2  0  0  0  0  0  0  0  0  0
    0.5702   21.3584   39.6174 C   0  0  0  0  0  0  0  0  0  0  0  0
    2.7672   17.0587   37.6450 C   0  0  2  0  0  0  0  0  0  0  0  0
    3.8937   16.9607   36.9355 O   0  0  0  0  0  0  0  0  0  0  0  0
    2.1063   22.8062   35.6938 C   0  0  0  0  0  0  0  0  0  0  0  0
    1.1778   15.0264   40.1529 O   0  0  0  0  0  0  0  0  0  0  0  0
    2.2659   14.8911   36.9244 O   0  0  0  0  0  0  0  0  0  0  0  0
    2.4281   27.3190   30.6704 C   0  0  0  0  0  0  0  0  0  0  0  0
    2.9961   23.5902   33.5337 C   0  0  0  0  0  0  0  0  0  0  0  0
    0.4865   28.5000   31.6406 C   0  0  0  0  0  0  0  0  0  0  0  0
    3.5706   19.2269   38.9126 C   0  0  0  0  0  0  0  0  0  0  0  0
    1.6333   20.3378   39.6006 C   0  0  2  0  0  0  0  0  0  0  0  0
   -0.8800   15.0355   39.2642 O   0  0  0  0  0  0  0  0  0  0  0  0
    2.3835   26.2233   32.9735 C   0  0  2  0  0  0  0  0  0  0  0  0
    2.8047   27.3945   32.1704 C   0  0  1  0  0  0  0  0  0  0  0  0
    1.5869   26.4292   34.1331 C   0  0  0  0  0  0  0  0  0  0  0  0
   -0.0877   13.4322   40.6406 O   0  0  0  0  0  0  0  0  0  0  0  0
    2.9976   20.2455   39.9189 C   0  0  0  0  0  0  0  0  0  0  0  0
    2.6332   18.1176   38.7082 C   0  0  0  0  0  0  0  0  0  0  0  0
   -0.3667   27.6171   31.2317 F   0  0  0  0  0  0  0  0  0  0  0  0
    2.5685   15.6127   38.1394 C   0  0  2  0  0  0  0  0  0  0  0  0
    1.7647   15.9038   39.2992 C   0  0  0  0  0  0  0  0  0  0  0  0
    3.6293   26.8048   33.1876 C   0  0  0  0  0  0  0  0  0  0  0  0
    1.6999   22.4709   36.7011 C   0  0  0  0  0  0  0  0  0  0  0  0
    2.8090   21.3205   37.2379 H   0  0  0  0  0  0  0  0  0  0  0  0
    0.6508   21.4402   37.2350 H   0  0  0  0  0  0  0  0  0  0  0  0
    0.7944   24.5632   35.3049 H   0  0  0  0  0  0  0  0  0  0  0  0
    2.7667   24.9065   35.2457 H   0  0  0  0  0  0  0  0  0  0  0  0
    1.2244   23.4893   33.6586 H   0  0  0  0  0  0  0  0  0  0  0  0
    1.4296   27.9484   33.1725 H   0  0  0  0  0  0  0  0  0  0  0  0
    2.1886   28.6556   31.2892 H   0  0  0  0  0  0  0  0  0  0  0  0
    2.0922   20.3362   37.5502 H   0  0  0  0  0  0  0  0  0  0  0  0
    0.7069   22.3297   40.1153 H   0  0  0  0  0  0  0  0  0  0  0  0
   -0.5060   21.4474   39.8271 H   0  0  0  0  0  0  0  0  0  0  0  0
    1.9626   17.4556   37.0086 H   0  0  0  0  0  0  0  0  0  0  0  0
    4.6477   16.7484   37.5411 H   0  0  0  0  0  0  0  0  0  0  0  0
    2.1225   21.8280   35.1909 H   0  0  0  0  0  0  0  0  0  0  0  0
    2.6484   23.6144   36.2065 H   0  0  0  0  0  0  0  0  0  0  0  0
    1.8285   14.0323   37.1509 H   0  0  0  0  0  0  0  0  0  0  0  0
    1.4352   26.8576   30.5645 H   0  0  0  0  0  0  0  0  0  0  0  0
    2.4081   28.3335   30.2459 H   0  0  0  0  0  0  0  0  0  0  0  0
    3.1733   26.7122   30.1353 H   0  0  0  0  0  0  0  0  0  0  0  0
    3.8956   23.2555   34.0711 H   0  0  0  0  0  0  0  0  0  0  0  0
    2.7168   22.8374   32.7819 H   0  0  0  0  0  0  0  0  0  0  0  0
    3.2026   24.5481   33.0341 H   0  0  0  0  0  0  0  0  0  0  0  0
   -0.0043   29.0619   32.4489 H   0  0  0  0  0  0  0  0  0  0  0  0
    0.7405   29.0443   30.7190 H   0  0  0  0  0  0  0  0  0  0  0  0
    4.5202   18.8304   39.3011 H   0  0  0  0  0  0  0  0  0  0  0  0
    3.7343   19.7339   37.9502 H   0  0  0  0  0  0  0  0  0  0  0  0
    1.4332   19.4430   40.2083 H   0  0  0  0  0  0  0  0  0  0  0  0
    1.9435   25.2619   32.6700 H   0  0  0  0  0  0  0  0  0  0  0  0
    2.0014   27.2009   34.7983 H   0  0  0  0  0  0  0  0  0  0  0  0
    0.5609   26.7912   33.9710 H   0  0  0  0  0  0  0  0  0  0  0  0
    3.1312   19.8878   40.9506 H   0  0  0  0  0  0  0  0  0  0  0  0
    3.5046   21.2197   39.8569 H   0  0  0  0  0  0  0  0  0  0  0  0
    1.6551   18.5888   38.5312 H   0  0  0  0  0  0  0  0  0  0  0  0
    2.8330   17.5201   39.6099 H   0  0  0  0  0  0  0  0  0  0  0  0
    3.2907   14.8875   38.5428 H   0  0  0  0  0  0  0  0  0  0  0  0
    2.4122   16.5224   39.9381 H   0  0  0  0  0  0  0  0  0  0  0  0
    0.8609   16.2657   38.7871 H   0  0  0  0  0  0  0  0  0  0  0  0
    3.8154   27.3569   34.1206 H   0  0  0  0  0  0  0  0  0  0  0  0
    4.6574   26.4137   33.1987 H   0  0  0  0  0  0  0  0  0  0  0  0
    2.0896   23.2494   37.3735 H   0  0  0  0  0  0  0  0  0  0  0  0
    0.7112   22.2172   36.2914 H   0  0  0  0  0  0  0  0  0  0  0  0
  3 14  1  0
  3  2  1  0
  3 10  1  0
 20  4  1  1
  5 22  1  0
  6  1  1  0
  6 17  1  0
  6  7  1  0
  8  9  1  0
  8 26  1  0
  8 24  1  0
 10 29  1  0
 11  5  1  0
 15  4  1  0
 16 24  1  0
 16 23  1  0
 17  7  1  0
 17 23  1  0
 18  5  2  0
 19 28  1  0
 19 21  1  0
 20 13  1  0
 20 19  1  0
 20 28  1  0
 21  2  1  0
 25 15  1  0
 26 12  1  0
 26 27  1  0
 27 11  1  0
 29  1  1  0
  1 30  1  0
  1 31  1  0
  2 32  1  0
  2 33  1  0
  3 34  1  6
  4 35  1  0
  4 36  1  0
  6 37  1  6
  7 38  1  0
  7 39  1  0
  8 40  1  6
  9 41  1  0
 10 42  1  0
 10 43  1  0
 12 44  1  0
 13 45  1  0
 13 46  1  0
 13 47  1  0
 14 48  1  0
 14 49  1  0
 14 50  1  0
 15 51  1  0
 15 52  1  0
 16 53  1  0
 16 54  1  0
 17 55  1  6
 19 56  1  6
 21 57  1  0
 21 58  1  0
 23 59  1  0
 23 60  1  0
 24 61  1  0
 24 62  1  0
 26 63  1  1
 27 64  1  0
 27 65  1  0
 28 66  1  0
 28 67  1  0
 29 68  1  0
 29 69  1  0
M  CHG  1  22  -1
M  END
>  <mol_id>  (33) 
2026-09-18-3war-s0-n100-0033

>  <rmsd_to_ref>  (33) 


$$$$

     RDKit          3D

 93 97  0  0  0  0  0  0  0  0999 V2000
    3.8670   16.9830   37.3310 C   0  0  1  0  0  0  0  0  0  0  0  0
    1.9460   21.2730   37.2360 C   0  0  0  0  0  0  0  0  0  0  0  0
    3.4580   14.0910   38.5950 C   0  0  2  0  0  0  0  0  0  0  0  0
    1.6520   20.5430   39.7340 C   0  0  1  0  0  0  0  0  0  0  0  0
    2.8090   19.0880   37.9680 C   0  0  0  0  0  0  0  0  0  0  0  0
    1.8110   26.6490   28.0730 C   0  0  0  0  0  0  0  0  0  0  0  0
    4.5400   25.9600   30.6990 C   0  0  1  0  0  0  0  0  0  0  0  0
    3.0110    8.7320   39.6050 O   0  0  0  0  0  0  0  0  0  0  0  0
    2.7370   25.1820   29.4800 C   0  0  2  0  0  0  0  0  0  0  0  0
    0.4700   19.5150   39.7630 S   0  0  0  0  0  0  0  0  0  0  0  0
    2.8350   15.4480   39.4770 C   0  0  2  0  0  0  0  0  0  0  0  0
    3.1250   14.3470   37.4140 N   0  0  0  0  0  0  0  0  0  0  0  0
    4.1580   15.4460   36.9460 C   0  0  0  0  0  0  0  0  0  0  0  0
    2.1160   28.2260   27.8700 C   0  0  0  0  0  0  0  0  0  0  0  0
    2.7960   17.5440   38.0670 C   0  0  2  0  0  0  0  0  0  0  0  0
    3.4520   11.5110   39.1400 C   0  0  0  0  0  0  0  0  0  0  0  0
    4.0210   27.1770   30.8530 C   0  0  0  0  0  0  0  0  0  0  0  0
    4.3200   24.8940   31.7550 C   0  0  0  0  0  0  0  0  0  0  0  0
    1.7680    9.4930   37.6130 O   0  0  0  0  0  0  0  0  0  0  0  0
    1.5150   22.4570   36.3750 C   0  0  0  0  0  0  0  0  0  0  0  0
    3.0650    9.7450   38.4410 P   0  0  2  0  0  5  0  0  0  0  0  0
    1.8280   26.1120   29.5080 C   0  0  0  0  0  0  0  0  0  0  0  0
    0.5940   21.3840   41.6130 C   0  0  0  0  0  0  0  0  0  0  0  0
    1.2690   24.7020   34.1720 C   0  0  0  0  0  0  0  0  0  0  0  0
    2.3860   23.6050   34.1390 C   0  0  1  0  0  0  0  0  0  0  0  0
    3.2580   12.9840   39.8690 S   0  0  0  0  0  0  0  0  0  0  0  0
   -0.2270   20.1560   41.2680 C   0  0  0  0  0  0  0  0  0  0  0  0
    2.0790   24.7420   30.7140 C   0  0  0  0  0  0  0  0  0  0  0  0
    2.3650   20.2570   38.4790 C   0  0  1  0  0  0  0  0  0  0  0  0
    2.1790   22.5250   35.1350 C   0  0  0  0  0  0  0  0  0  0  0  0
    3.3170   16.9320   39.1820 C   0  0  2  0  0  0  0  0  0  0  0  0
    1.1300   25.5640   27.2040 C   0  0  0  0  0  0  0  0  0  0  0  0
    4.3590    9.4490   37.4070 N   0  0  0  0  0  0  0  0  0  0  0  0
    3.0440   23.9340   31.5880 C   0  0  2  0  0  0  0  0  0  0  0  0
    3.3060   13.1670   36.5820 C   0  0  0  0  0  0  0  0  0  0  0  0
    1.5730   21.5430   40.5530 O   0  0  0  0  0  0  0  0  0  0  0  0
    1.9040   15.5040   40.3980 O   0  0  0  0  0  0  0  0  0  0  0  0
    2.6910   22.9230   32.6470 C   0  0  0  0  0  0  0  0  0  0  0  0
    3.7580   26.1740   29.7150 C   0  0  1  0  0  0  0  0  0  0  0  0
    2.9170   21.5960   34.8100 O   0  0  0  0  0  0  0  0  0  0  0  0
    4.6420   18.0000   39.9340 Cl  0  0  0  0  0  0  0  0  0  0  0  0
    4.4522   17.3801   36.4885 H   0  0  0  0  0  0  0  0  0  0  0  0
    1.1642   20.6039   36.8473 H   0  0  0  0  0  0  0  0  0  0  0  0
    2.8716   21.8288   37.4465 H   0  0  0  0  0  0  0  0  0  0  0  0
    4.3927   13.6689   38.1973 H   0  0  0  0  0  0  0  0  0  0  0  0
    2.5723   20.7608   40.2957 H   0  0  0  0  0  0  0  0  0  0  0  0
    2.4738   19.2060   36.9270 H   0  0  0  0  0  0  0  0  0  0  0  0
    3.6736   19.1221   38.6471 H   0  0  0  0  0  0  0  0  0  0  0  0
    2.5556   26.8885   27.2996 H   0  0  0  0  0  0  0  0  0  0  0  0
    5.5841   25.6157   30.6625 H   0  0  0  0  0  0  0  0  0  0  0  0
    3.0369    9.2182   40.4670 H   0  0  0  0  0  0  0  0  0  0  0  0
    3.0455   24.4091   28.7606 H   0  0  0  0  0  0  0  0  0  0  0  0
    2.0741   15.6048   38.6983 H   0  0  0  0  0  0  0  0  0  0  0  0
    4.2170   15.3909   35.8490 H   0  0  0  0  0  0  0  0  0  0  0  0
    5.0808   15.2002   37.4918 H   0  0  0  0  0  0  0  0  0  0  0  0
    2.2098   28.7108   28.8529 H   0  0  0  0  0  0  0  0  0  0  0  0
    3.0545   28.3488   27.3096 H   0  0  0  0  0  0  0  0  0  0  0  0
    1.2909   28.6899   27.3096 H   0  0  0  0  0  0  0  0  0  0  0  0
    1.7266   17.3979   37.8546 H   0  0  0  0  0  0  0  0  0  0  0  0
    3.8431   11.9138   38.1941 H   0  0  0  0  0  0  0  0  0  0  0  0
    3.4022   11.0663   40.1449 H   0  0  0  0  0  0  0  0  0  0  0  0
    3.2608   27.3800   31.6217 H   0  0  0  0  0  0  0  0  0  0  0  0
    4.3750   28.2119   30.9699 H   0  0  0  0  0  0  0  0  0  0  0  0
    5.2142   24.2535   31.7673 H   0  0  0  0  0  0  0  0  0  0  0  0
    4.1283   25.4545   32.6818 H   0  0  0  0  0  0  0  0  0  0  0  0
    0.4344   22.3745   36.1865 H   0  0  0  0  0  0  0  0  0  0  0  0
    1.7750   23.3704   36.9301 H   0  0  0  0  0  0  0  0  0  0  0  0
    2.1003   26.9050   30.2201 H   0  0  0  0  0  0  0  0  0  0  0  0
    0.8463   25.7379   29.8341 H   0  0  0  0  0  0  0  0  0  0  0  0
   -0.0545   22.2709   41.6661 H   0  0  0  0  0  0  0  0  0  0  0  0
    1.0848   21.2697   42.5908 H   0  0  0  0  0  0  0  0  0  0  0  0
    1.0230   24.9435   35.2166 H   0  0  0  0  0  0  0  0  0  0  0  0
    1.6290   25.6073   33.6613 H   0  0  0  0  0  0  0  0  0  0  0  0
    0.3703   24.3257   33.6613 H   0  0  0  0  0  0  0  0  0  0  0  0
    3.2799   24.1868   34.4082 H   0  0  0  0  0  0  0  0  0  0  0  0
   -1.2812   20.4304   41.1155 H   0  0  0  0  0  0  0  0  0  0  0  0
   -0.2001   19.4106   42.0765 H   0  0  0  0  0  0  0  0  0  0  0  0
    1.7376   25.6245   31.2749 H   0  0  0  0  0  0  0  0  0  0  0  0
    1.2244   24.1022   30.4486 H   0  0  0  0  0  0  0  0  0  0  0  0
    3.2715   20.3872   39.0884 H   0  0  0  0  0  0  0  0  0  0  0  0
    0.6592   24.8139   27.8564 H   0  0  0  0  0  0  0  0  0  0  0  0
    0.3627   26.0310   26.5690 H   0  0  0  0  0  0  0  0  0  0  0  0
    1.8842   25.0761   26.5690 H   0  0  0  0  0  0  0  0  0  0  0  0
    5.2048    9.2555   37.9621 H   0  0  0  0  0  0  0  0  0  0  0  0
    4.1446    8.6353   36.8130 H   0  0  0  0  0  0  0  0  0  0  0  0
    3.1917   22.9675   31.0839 H   0  0  0  0  0  0  0  0  0  0  0  0
    3.4415   12.2835   37.2232 H   0  0  0  0  0  0  0  0  0  0  0  0
    2.4189   13.0265   35.9469 H   0  0  0  0  0  0  0  0  0  0  0  0
    4.1944   13.2989   35.9469 H   0  0  0  0  0  0  0  0  0  0  0  0
    2.3243   15.4787   41.2940 H   0  0  0  0  0  0  0  0  0  0  0  0
    1.7925   22.3776   32.3227 H   0  0  0  0  0  0  0  0  0  0  0  0
    3.5603   22.2594   32.7649 H   0  0  0  0  0  0  0  0  0  0  0  0
    3.6964   26.3382   28.6291 H   0  0  0  0  0  0  0  0  0  0  0  0
  1 13  1  0
  1 15  1  0
  1 31  1  0
  3 11  1  0
  3 26  1  0
  4 29  1  0
  4 10  1  0
  4 36  1  0
  5 29  1  0
  6 22  1  0
  7 17  1  0
  7 18  1  0
  9 22  1  0
  9 39  1  0
  9 28  1  0
 10 27  1  0
 11 37  1  0
 12  3  1  0
 13 12  1  0
 14  6  1  0
 15  5  1  0
 15 31  1  0
 16 26  1  0
 19 21  2  0
 20  2  1  0
 21 33  1  0
 21 16  1  0
 21  8  1  1
 25 24  1  0
 25 30  1  0
 27 23  1  0
 28 34  1  0
 29  2  1  0
 30 20  1  0
 31 11  1  0
 31 41  1  1
 32  6  1  0
 34 18  1  0
 34 38  1  0
 35 12  1  0
 36 23  1  0
 38 25  1  0
 39  7  1  0
 39 17  1  0
 40 30  2  0
  1 42  1  1
  2 43  1  0
  2 44  1  0
  3 45  1  6
  4 46  1  1
  5 47  1  0
  5 48  1  0
  6 49  1  0
  7 50  1  6
  8 51  1  0
  9 52  1  6
 11 53  1  1
 13 54  1  0
 13 55  1  0
 14 56  1  0
 14 57  1  0
 14 58  1  0
 15 59  1  6
 16 60  1  0
 16 61  1  0
 17 62  1  0
 17 63  1  0
 18 64  1  0
 18 65  1  0
 20 66  1  0
 20 67  1  0
 22 68  1  0
 22 69  1  0
 23 70  1  0
 23 71  1  0
 24 72  1  0
 24 73  1  0
 24 74  1  0
 25 75  1  1
 27 76  1  0
 27 77  1  0
 28 78  1  0
 28 79  1  0
 29 80  1  1
 32 81  1  0
 32 82  1  0
 32 83  1  0
 33 84  1  0
 33 85  1  0
 34 86  1  6
 35 87  1  0
 35 88  1  0
 35 89  1  0
 37 90  1  0
 38 91  1  0
 38 92  1  0
 39 93  1  6
M  END
>  <mol_id>  (34) 
2026-09-18-3war-s0-n100-0034

>  <rmsd_to_ref>  (34) 


$$$$

     RDKit          3D

 58 61  0  0  0  0  0  0  0  0999 V2000
    1.6462   28.2047   32.7100 C   0  0  2  0  0  0  0  0  0  0  0  0
    1.7957   22.5230   36.0399 O   0  0  0  0  0  0  0  0  0  0  0  0
    2.9733   18.1123   36.8919 C   0  0  0  0  0  0  0  0  0  0  0  0
    0.8744   27.4345   31.6599 C   0  0  2  0  0  0  0  0  0  0  0  0
    2.4919   17.8380   39.4439 C   0  0  0  0  0  0  0  0  0  0  0  0
    3.8859   22.6478   35.2069 C   0  0  0  0  0  0  0  0  0  0  0  0
    1.3775   16.4713   40.8287 N   0  0  0  0  0  0  0  0  0  0  0  0
    2.2263   24.9188   34.4184 C   0  0  0  0  0  0  0  0  0  0  0  0
    1.0198   17.7752   41.1915 C   0  0  0  0  0  0  0  0  0  0  0  0
    0.8058   26.0985   32.8000 O   0  0  0  0  0  0  0  0  0  0  0  0
    2.9048   22.0566   36.0369 C   0  0  0  0  0  0  0  0  0  0  0  0
    2.0384   27.7840   31.3427 C   0  0  0  0  0  0  0  0  0  0  0  0
    3.0971   25.0812   33.2450 C   0  0  0  0  0  0  0  0  0  0  0  0
    0.8619   15.2639   41.5729 C   0  0  0  0  0  0  0  0  0  0  0  0
    0.1036   19.5982   42.3376 C   0  0  0  0  0  0  0  0  0  0  0  0
    4.0619   17.2343   37.3830 C   0  0  0  0  0  0  0  0  0  0  0  0
    2.6186   26.3810   34.0206 C   0  0  0  0  0  0  0  0  0  0  0  0
    3.2198   26.9137   31.1826 C   0  0  0  0  0  0  0  0  0  0  0  0
    0.2005   18.2393   42.2027 C   0  0  0  0  0  0  0  0  0  0  0  0
    2.2084   16.5310   39.8296 C   0  0  0  0  0  0  0  0  0  0  0  0
   -0.2004   14.6903   40.8611 O   0  0  0  0  0  0  0  0  0  0  0  0
    3.4017   18.2603   38.2687 C   0  0  0  0  0  0  0  0  0  0  0  0
    0.7691   20.4884   41.4476 C   0  0  0  0  0  0  0  0  0  0  0  0
    1.6851   18.6320   40.3053 C   0  0  0  0  0  0  0  0  0  0  0  0
    1.5449   19.9512   40.4784 C   0  0  0  0  0  0  0  0  0  0  0  0
    1.4474   27.1651   33.6590 C   0  0  1  0  0  0  0  0  0  0  0  0
    2.1435   28.1030   29.5463 C   0  0  0  0  0  0  0  0  0  0  0  0
    3.3287   20.9623   36.6573 O   0  0  0  0  0  0  0  0  0  0  0  0
    1.8772   29.1179   33.2781 H   0  0  0  0  0  0  0  0  0  0  0  0
    3.1994   18.9044   36.1629 H   0  0  0  0  0  0  0  0  0  0  0  0
    2.0030   17.9318   36.4061 H   0  0  0  0  0  0  0  0  0  0  0  0
    0.0071   27.4178   30.9836 H   0  0  0  0  0  0  0  0  0  0  0  0
    4.6955   23.0560   35.8298 H   0  0  0  0  0  0  0  0  0  0  0  0
    4.2954   21.8881   34.5249 H   0  0  0  0  0  0  0  0  0  0  0  0
    3.4298   23.4591   34.6207 H   0  0  0  0  0  0  0  0  0  0  0  0
    1.1890   24.5798   34.2803 H   0  0  0  0  0  0  0  0  0  0  0  0
    2.3053   24.3372   35.3487 H   0  0  0  0  0  0  0  0  0  0  0  0
    2.7038   24.8695   32.2397 H   0  0  0  0  0  0  0  0  0  0  0  0
    4.0775   24.6770   32.9528 H   0  0  0  0  0  0  0  0  0  0  0  0
    1.6713   14.5266   41.6796 H   0  0  0  0  0  0  0  0  0  0  0  0
    0.5102   15.5717   42.5687 H   0  0  0  0  0  0  0  0  0  0  0  0
   -0.5044   20.0133   43.1550 H   0  0  0  0  0  0  0  0  0  0  0  0
    3.8801   16.1615   37.5447 H   0  0  0  0  0  0  0  0  0  0  0  0
    5.0920   17.0051   37.0726 H   0  0  0  0  0  0  0  0  0  0  0  0
    3.1685   27.2662   34.3727 H   0  0  0  0  0  0  0  0  0  0  0  0
    3.5687   26.5834   32.1722 H   0  0  0  0  0  0  0  0  0  0  0  0
    2.9493   26.0359   30.5773 H   0  0  0  0  0  0  0  0  0  0  0  0
    4.0219   27.4733   30.6790 H   0  0  0  0  0  0  0  0  0  0  0  0
   -0.3458   17.5521   42.8655 H   0  0  0  0  0  0  0  0  0  0  0  0
    2.6405   15.6445   39.3424 H   0  0  0  0  0  0  0  0  0  0  0  0
   -0.8399   14.2805   41.4961 H   0  0  0  0  0  0  0  0  0  0  0  0
    3.7564   19.0990   38.8857 H   0  0  0  0  0  0  0  0  0  0  0  0
    0.6559   21.5782   41.5450 H   0  0  0  0  0  0  0  0  0  0  0  0
    2.0849   20.6299   39.8018 H   0  0  0  0  0  0  0  0  0  0  0  0
    0.9811   27.6245   34.5430 H   0  0  0  0  0  0  0  0  0  0  0  0
    2.5890   29.0941   29.3754 H   0  0  0  0  0  0  0  0  0  0  0  0
    2.7702   27.3327   29.0732 H   0  0  0  0  0  0  0  0  0  0  0  0
    1.1345   28.0743   29.1092 H   0  0  0  0  0  0  0  0  0  0  0  0
  1 12  1  0
  1 26  1  0
  2 11  2  0
  3 16  1  0
  3 22  1  0
  4  1  1  0
  4 10  1  0
  5 20  2  0
  5 24  1  0
  6 11  1  0
  7  9  1  0
  7 14  1  0
  9 19  2  0
 10 26  1  0
 11 28  1  0
 12  4  1  0
 13 17  1  0
 13  8  1  0
 16 22  1  0
 17  8  1  0
 18 12  1  0
 19 15  1  0
 20  7  1  0
 21 14  1  0
 22  5  1  0
 23 15  2  0
 24 25  2  0
 24  9  1  0
 25 23  1  0
 26 17  1  0
 27 12  1  0
  1 29  1  1
  3 30  1  0
  3 31  1  0
  4 32  1  6
  6 33  1  0
  6 34  1  0
  6 35  1  0
  8 36  1  0
  8 37  1  0
 13 38  1  0
 13 39  1  0
 14 40  1  0
 14 41  1  0
 15 42  1  0
 16 43  1  0
 16 44  1  0
 17 45  1  0
 18 46  1  0
 18 47  1  0
 18 48  1  0
 19 49  1  0
 20 50  1  0
 21 51  1  0
 22 52  1  0
 23 53  1  0
 25 54  1  0
 26 55  1  1
 27 56  1  0
 27 57  1  0
 27 58  1  0
M  CHG  1  28  -1
M  END
>  <mol_id>  (35) 
2026-09-18-3war-s0-n100-0035

>  <rmsd_to_ref>  (35) 


$$$$

     RDKit          3D

 48 51  0  0  0  0  0  0  0  0999 V2000
    2.0350   24.0970   34.6680 C   0  0  0  0  0  0  0  0  0  0  0  0
    2.6530   18.5070   38.8730 C   0  0  0  0  0  0  0  0  0  0  0  0
    3.8910   13.2700   38.2260 C   0  0  0  0  0  0  0  0  0  0  0  0
    1.9380   25.8460   30.9230 C   0  0  0  0  0  0  0  0  0  0  0  0
    3.7360   15.6860   37.3060 C   0  0  0  0  0  0  0  0  0  0  0  0
    1.3680   22.5130   37.4690 S   0  0  0  0  0  0  0  0  0  0  0  0
    3.1860   16.0800   38.6460 C   0  0  0  0  0  0  0  0  0  0  0  0
    2.8650   20.9130   36.1080 N   0  0  0  0  0  0  0  0  0  0  0  0
    3.4130   13.7260   39.5240 C   0  0  0  0  0  0  0  0  0  0  0  0
    3.1060   19.1000   37.7040 C   0  0  0  0  0  0  0  0  0  0  0  0
    1.5910   20.5790   39.5250 C   0  0  0  0  0  0  0  0  0  0  0  0
    1.9640   19.3130   39.8160 C   0  0  0  0  0  0  0  0  0  0  0  0
    2.6900   20.3330   37.3900 C   0  0  0  0  0  0  0  0  0  0  0  0
    2.7660   24.7680   31.1040 C   0  0  0  0  0  0  0  0  0  0  0  0
    2.3500   22.0920   36.0270 C   0  0  0  0  0  0  0  0  0  0  0  0
    2.8730   17.2460   38.9860 O   0  0  0  0  0  0  0  0  0  0  0  0
    4.5760   14.3570   37.3780 C   0  0  0  0  0  0  0  0  0  0  0  0
    3.5630   24.1250   29.9670 C   0  0  0  0  0  0  0  0  0  0  0  0
    2.0450   24.6720   33.3920 C   0  0  0  0  0  0  0  0  0  0  0  0
    1.2220   26.3790   31.9700 C   0  0  0  0  0  0  0  0  0  0  0  0
    2.7610   24.1730   32.3680 C   0  0  0  0  0  0  0  0  0  0  0  0
    2.5380   22.8900   34.8350 C   0  0  0  0  0  0  0  0  0  0  0  0
    1.2770   25.8320   33.2120 C   0  0  0  0  0  0  0  0  0  0  0  0
    1.9380   21.0480   38.2060 C   0  0  0  0  0  0  0  0  0  0  0  0
    2.7140   15.0720   39.4130 C   0  0  0  0  0  0  0  0  0  0  0  0
    1.6121   24.6462   35.5221 H   0  0  0  0  0  0  0  0  0  0  0  0
    4.6142   12.4580   38.3925 H   0  0  0  0  0  0  0  0  0  0  0  0
    3.0032   12.9477   37.6622 H   0  0  0  0  0  0  0  0  0  0  0  0
    1.8445   26.2929   29.9222 H   0  0  0  0  0  0  0  0  0  0  0  0
    4.3832   16.4950   36.9365 H   0  0  0  0  0  0  0  0  0  0  0  0
    2.8865   15.5134   36.6288 H   0  0  0  0  0  0  0  0  0  0  0  0
    4.2035   16.4240   38.8832 H   0  0  0  0  0  0  0  0  0  0  0  0
    2.7046   12.9862   39.9252 H   0  0  0  0  0  0  0  0  0  0  0  0
    4.2787   13.8382   40.1933 H   0  0  0  0  0  0  0  0  0  0  0  0
    3.8003   18.5625   37.0414 H   0  0  0  0  0  0  0  0  0  0  0  0
    1.0564   21.2119   40.2486 H   0  0  0  0  0  0  0  0  0  0  0  0
    1.7280   18.8977   40.8069 H   0  0  0  0  0  0  0  0  0  0  0  0
    4.7149   13.9721   36.3570 H   0  0  0  0  0  0  0  0  0  0  0  0
    5.5378   14.5958   37.8554 H   0  0  0  0  0  0  0  0  0  0  0  0
    4.3537   23.4871   30.3886 H   0  0  0  0  0  0  0  0  0  0  0  0
    2.8902   23.5138   29.3475 H   0  0  0  0  0  0  0  0  0  0  0  0
    4.0181   24.9119   29.3475 H   0  0  0  0  0  0  0  0  0  0  0  0
    0.5931   27.2649   31.7980 H   0  0  0  0  0  0  0  0  0  0  0  0
    3.3623   23.2665   32.5315 H   0  0  0  0  0  0  0  0  0  0  0  0
    3.1377   22.4632   34.0176 H   0  0  0  0  0  0  0  0  0  0  0  0
    0.7340   26.2863   34.0539 H   0  0  0  0  0  0  0  0  0  0  0  0
    2.6561   15.4701   40.4368 H   0  0  0  0  0  0  0  0  0  0  0  0
    1.7907   14.8003   38.8803 H   0  0  0  0  0  0  0  0  0  0  0  0
  1 22  2  3
  2 16  1  0
  2 12  2  0
  3  9  1  0
  4 14  2  0
  4 20  1  0
  5 17  1  0
  5  7  1  0
  6 24  1  0
  7 16  1  0
  7 25  1  0
  8 13  1  0
 10  2  1  0
 11 12  1  0
 13 10  2  0
 13 24  1  0
 14 21  1  0
 15  8  2  0
 15  6  1  0
 17  3  1  0
 18 14  1  0
 19  1  1  0
 20 23  2  0
 21 19  2  0
 22 15  1  0
 23 19  1  0
 24 11  2  0
 25  9  1  0
  1 26  1  0
  3 27  1  0
  3 28  1  0
  4 29  1  0
  5 30  1  0
  5 31  1  0
  7 32  1  0
  9 33  1  0
  9 34  1  0
 10 35  1  0
 11 36  1  0
 12 37  1  0
 17 38  1  0
 17 39  1  0
 18 40  1  0
 18 41  1  0
 18 42  1  0
 20 43  1  0
 21 44  1  0
 22 45  1  0
 23 46  1  0
 25 47  1  0
 25 48  1  0
M  END
>  <mol_id>  (36) 
2026-09-18-3war-s0-n100-0036

>  <rmsd_to_ref>  (36) 


$$$$

     RDKit          3D

 80 85  0  0  0  0  0  0  0  0999 V2000
    0.6780   25.5790   30.7410 C   0  0  1  0  0  0  0  0  0  0  0  0
    0.8450   20.7720   41.1150 C   0  0  0  0  0  0  0  0  0  0  0  0
    1.5380   27.1200   31.1190 S   0  0  0  0  0  0  0  0  0  0  0  0
    0.1140   20.8530   31.1690 C   0  0  0  0  0  0  0  0  0  0  0  0
    3.4110   17.9800   38.5940 C   0  0  2  0  0  0  0  0  0  0  0  0
    2.2880   20.6870   38.4190 C   0  0  0  0  0  0  0  0  0  0  0  0
    3.8140   19.0280   39.6600 C   0  0  0  0  0  0  0  0  0  0  0  0
   -0.7740   21.4580   42.8580 O   0  0  0  0  0  0  0  0  0  0  0  0
    3.9450   25.5820   30.2490 O   0  0  0  0  0  0  0  0  0  0  0  0
    0.7410   21.1050   29.8600 C   0  0  0  0  0  0  0  0  0  0  0  0
    2.4200   20.7510   36.0090 C   0  0  1  0  0  0  0  0  0  0  0  0
    1.3970   25.0830   32.9290 C   0  0  0  0  0  0  0  0  0  0  0  0
   -1.2540   21.3200   31.8490 C   0  0  0  0  0  0  0  0  0  0  0  0
    0.1290   25.1720   32.0750 C   0  0  0  0  0  0  0  0  0  0  0  0
   -0.1560   21.9810   31.9810 C   0  0  0  0  0  0  0  0  0  0  0  0
    1.8300   21.6900   28.9660 C   0  0  0  0  0  0  0  0  0  0  0  0
    1.0500   22.5650   29.5270 C   0  0  0  0  0  0  0  0  0  0  0  0
    4.0120   23.9500   30.4420 C   0  0  0  0  0  0  0  0  0  0  0  0
    3.3460   23.8000   31.7370 C   0  0  1  0  0  0  0  0  0  0  0  0
    4.2800   15.7430   37.5790 C   0  0  0  0  0  0  0  0  0  0  0  0
    1.4870   15.5180   39.7300 O   0  0  0  0  0  0  0  0  0  0  0  0
   -0.3680   25.9620   29.8210 O   0  0  0  0  0  0  0  0  0  0  0  0
    3.6190   16.3390   38.7650 C   0  0  2  0  0  0  0  0  0  0  0  0
    3.0020   21.9810   35.5450 C   0  0  1  0  0  0  0  0  0  0  0  0
    2.5950   20.0920   37.2550 C   0  0  0  0  0  0  0  0  0  0  0  0
    3.3800   22.5340   34.4040 C   0  0  0  0  0  0  0  0  0  0  0  0
    0.4620   18.2500   41.8670 N   0  0  0  0  0  0  0  0  0  0  0  0
    2.6790   20.0420   39.6730 N   0  0  0  0  0  0  0  0  0  0  0  0
    3.1890   14.2380   39.8620 O   0  0  0  0  0  0  0  0  0  0  0  0
    1.6080   21.7810   35.6110 C   0  0  0  0  0  0  0  0  0  0  0  0
   -0.3410   19.1810   42.3980 C   0  0  0  0  0  0  0  0  0  0  0  0
    2.1680   25.7740   30.6060 C   0  0  2  0  0  0  0  0  0  0  0  0
   -0.0960   20.4740   42.0910 C   0  0  0  0  0  0  0  0  0  0  0  0
    1.6500   19.7610   40.5970 C   0  0  0  0  0  0  0  0  0  0  0  0
    1.4600   18.4920   41.0400 C   0  0  0  0  0  0  0  0  0  0  0  0
    2.7620   15.3370   39.4870 C   0  0  0  0  0  0  0  0  0  0  0  0
    3.0770   18.6580   37.1900 C   0  0  0  0  0  0  0  0  0  0  0  0
    2.6370   25.0000   32.0930 C   0  0  1  0  0  0  0  0  0  0  0  0
    2.9210   22.3700   31.6780 O   0  0  0  0  0  0  0  0  0  0  0  0
    0.9544   21.8045   40.7517 H   0  0  0  0  0  0  0  0  0  0  0  0
    0.5990   19.8695   31.0827 H   0  0  0  0  0  0  0  0  0  0  0  0
    2.5640   17.4248   39.0234 H   0  0  0  0  0  0  0  0  0  0  0  0
    1.7499   21.6463   38.4297 H   0  0  0  0  0  0  0  0  0  0  0  0
    3.9185   18.5536   40.6469 H   0  0  0  0  0  0  0  0  0  0  0  0
    4.7817   19.4975   39.4293 H   0  0  0  0  0  0  0  0  0  0  0  0
   -1.4360   21.1837   43.5411 H   0  0  0  0  0  0  0  0  0  0  0  0
    0.3160   20.0931   29.7865 H   0  0  0  0  0  0  0  0  0  0  0  0
    2.4803   19.6809   35.7617 H   0  0  0  0  0  0  0  0  0  0  0  0
    1.4585   25.9775   33.5662 H   0  0  0  0  0  0  0  0  0  0  0  0
    1.3343   24.1654   33.5324 H   0  0  0  0  0  0  0  0  0  0  0  0
   -2.0736   21.7194   31.2335 H   0  0  0  0  0  0  0  0  0  0  0  0
   -1.9945   20.8713   32.5274 H   0  0  0  0  0  0  0  0  0  0  0  0
   -0.5655   25.9286   32.4688 H   0  0  0  0  0  0  0  0  0  0  0  0
   -0.4535   24.2393   32.0484 H   0  0  0  0  0  0  0  0  0  0  0  0
    0.3046   22.0165   32.9793 H   0  0  0  0  0  0  0  0  0  0  0  0
    0.0462   23.0449   31.7881 H   0  0  0  0  0  0  0  0  0  0  0  0
    1.7694   21.5377   27.8783 H   0  0  0  0  0  0  0  0  0  0  0  0
    2.9231   21.5691   28.9429 H   0  0  0  0  0  0  0  0  0  0  0  0
    1.4556   23.2201   30.3120 H   0  0  0  0  0  0  0  0  0  0  0  0
    0.4387   23.3881   29.1286 H   0  0  0  0  0  0  0  0  0  0  0  0
    3.4674   23.4251   29.6433 H   0  0  0  0  0  0  0  0  0  0  0  0
    5.0267   23.5274   30.3998 H   0  0  0  0  0  0  0  0  0  0  0  0
    3.8192   23.8311   32.7295 H   0  0  0  0  0  0  0  0  0  0  0  0
    5.0595   15.0402   37.9082 H   0  0  0  0  0  0  0  0  0  0  0  0
    3.5340   15.2063   36.9745 H   0  0  0  0  0  0  0  0  0  0  0  0
    4.7369   16.5404   36.9745 H   0  0  0  0  0  0  0  0  0  0  0  0
   -1.1651   26.2539   30.3305 H   0  0  0  0  0  0  0  0  0  0  0  0
    4.1707   16.5197   39.6993 H   0  0  0  0  0  0  0  0  0  0  0  0
    3.9088   22.4553   35.9484 H   0  0  0  0  0  0  0  0  0  0  0  0
    3.9894   23.4256   34.6129 H   0  0  0  0  0  0  0  0  0  0  0  0
    3.9739   21.8112   33.8253 H   0  0  0  0  0  0  0  0  0  0  0  0
    2.4909   22.8249   33.8253 H   0  0  0  0  0  0  0  0  0  0  0  0
    1.0154   22.3267   36.3600 H   0  0  0  0  0  0  0  0  0  0  0  0
    0.7877   21.8704   34.8835 H   0  0  0  0  0  0  0  0  0  0  0  0
   -1.1725   18.9024   43.0621 H   0  0  0  0  0  0  0  0  0  0  0  0
    2.1269   17.6799   40.7148 H   0  0  0  0  0  0  0  0  0  0  0  0
    2.2934   18.0592   36.7027 H   0  0  0  0  0  0  0  0  0  0  0  0
    4.0262   18.6841   36.6347 H   0  0  0  0  0  0  0  0  0  0  0  0
    3.3935   25.4182   32.7733 H   0  0  0  0  0  0  0  0  0  0  0  0
    2.8166   22.0186   32.5976 H   0  0  0  0  0  0  0  0  0  0  0  0
  1 22  1  6
  1  3  1  0
  1 14  1  0
  2 33  2  0
  4 13  1  0
  4 15  1  0
  5 23  1  0
  5  7  1  0
  6 28  1  0
  7 28  1  0
  9 18  1  0
 10  4  1  0
 11 25  1  0
 13 15  1  0
 14 12  1  0
 16 17  1  0
 16 10  1  0
 17 10  1  0
 18 19  1  0
 19 39  1  0
 19 38  1  0
 23 20  1  0
 23 36  1  0
 24 26  1  0
 24 30  1  0
 24 11  1  0
 25  6  2  0
 27 31  2  0
 28 34  1  0
 30 11  1  0
 32  9  1  6
 32  1  1  0
 32  3  1  0
 32 38  1  0
 33 31  1  0
 33  8  1  0
 34 35  2  0
 34  2  1  0
 35 27  1  0
 36 21  2  0
 36 29  1  0
 37 25  1  0
 37  5  1  0
 38 12  1  0
  2 40  1  0
  4 41  1  0
  5 42  1  1
  6 43  1  0
  7 44  1  0
  7 45  1  0
  8 46  1  0
 10 47  1  0
 11 48  1  6
 12 49  1  0
 12 50  1  0
 13 51  1  0
 13 52  1  0
 14 53  1  0
 14 54  1  0
 15 55  1  0
 15 56  1  0
 16 57  1  0
 16 58  1  0
 17 59  1  0
 17 60  1  0
 18 61  1  0
 18 62  1  0
 19 63  1  1
 20 64  1  0
 20 65  1  0
 20 66  1  0
 22 67  1  0
 23 68  1  1
 24 69  1  1
 26 70  1  0
 26 71  1  0
 26 72  1  0
 30 73  1  0
 30 74  1  0
 31 75  1  0
 35 76  1  0
 37 77  1  0
 37 78  1  0
 38 79  1  1
 39 80  1  0
M  CHG  1  29  -1
M  END
>  <mol_id>  (37) 
2026-09-18-3war-s0-n100-0037

>  <rmsd_to_ref>  (37) 


$$$$

     RDKit          3D

 30 31  0  0  0  0  0  0  0  0999 V2000
    3.0390   18.3590   39.3440 C   0  0  0  0  0  0  0  0  0  0  0  0
    2.5400   20.3130   37.1550 C   0  0  1  0  0  0  0  0  0  0  0  0
    3.0690   22.4320   34.0990 C   0  0  2  0  0  0  0  0  0  0  0  0
    1.4420   22.9540   34.4250 S   0  0  0  0  0  0  0  0  0  0  0  0
    1.4930   22.3240   36.0570 C   0  0  0  0  0  0  0  0  0  0  0  0
    3.8340   22.8710   33.0780 N   0  0  0  0  0  0  0  0  0  0  0  0
    3.4730   21.4650   35.0180 N   0  0  0  0  0  0  0  0  0  0  0  0
    2.6310   21.3070   36.0750 C   0  0  2  0  0  0  0  0  0  0  0  0
    3.2750   19.0990   37.0990 C   0  0  0  0  0  0  0  0  0  0  0  0
    3.7140   18.4270   38.2040 C   0  0  0  0  0  0  0  0  0  0  0  0
    2.4910   19.6130   39.6170 C   0  0  0  0  0  0  0  0  0  0  0  0
    2.3600   20.6020   38.5660 C   0  0  0  0  0  0  0  0  0  0  0  0
    3.7177   18.0667   40.1588 H   0  0  0  0  0  0  0  0  0  0  0  0
    2.2371   17.6107   39.2598 H   0  0  0  0  0  0  0  0  0  0  0  0
    1.5323   20.2682   36.7162 H   0  0  0  0  0  0  0  0  0  0  0  0
    3.4561   23.2404   34.7367 H   0  0  0  0  0  0  0  0  0  0  0  0
    1.6918   23.1340   36.7742 H   0  0  0  0  0  0  0  0  0  0  0  0
    0.5354   21.8650   36.3438 H   0  0  0  0  0  0  0  0  0  0  0  0
    4.6660   23.3485   33.4530 H   0  0  0  0  0  0  0  0  0  0  0  0
    4.1286   22.0704   32.5008 H   0  0  0  0  0  0  0  0  0  0  0  0
    3.2914   23.5293   32.5008 H   0  0  0  0  0  0  0  0  0  0  0  0
    3.5448   20.5630   34.5258 H   0  0  0  0  0  0  0  0  0  0  0  0
    4.3727   21.7846   35.4044 H   0  0  0  0  0  0  0  0  0  0  0  0
    3.2436   22.0029   36.6670 H   0  0  0  0  0  0  0  0  0  0  0  0
    2.6394   18.3890   36.5495 H   0  0  0  0  0  0  0  0  0  0  0  0
    4.2264   19.4465   36.6700 H   0  0  0  0  0  0  0  0  0  0  0  0
    3.8618   17.3858   37.8815 H   0  0  0  0  0  0  0  0  0  0  0  0
    4.5703   19.0494   38.5029 H   0  0  0  0  0  0  0  0  0  0  0  0
    2.1562   19.8524   40.6371 H   0  0  0  0  0  0  0  0  0  0  0  0
    2.1092   21.6334   38.8548 H   0  0  0  0  0  0  0  0  0  0  0  0
  1 11  1  0
  2  9  1  0
  2 12  1  0
  3  6  1  0
  3  4  1  0
  3  7  1  0
  4  5  1  0
  7  8  1  0
  8  5  1  0
  8  2  1  0
  9 10  1  0
 10  1  1  0
 12 11  2  0
  1 13  1  0
  1 14  1  0
  2 15  1  6
  3 16  1  1
  5 17  1  0
  5 18  1  0
  6 19  1  0
  6 20  1  0
  6 21  1  0
  7 22  1  0
  7 23  1  0
  8 24  1  1
  9 25  1  0
  9 26  1  0
 10 27  1  0
 10 28  1  0
 11 29  1  0
 12 30  1  0
M  CHG  2   6   1   7   1
M  END
>  <mol_id>  (38) 
2026-09-18-3war-s0-n100-0038

>  <rmsd_to_ref>  (38) 


$$$$

     RDKit          3D

 74 76  0  0  0  0  0  0  0  0999 V2000
    1.1797   27.5080   27.8288 C   0  0  0  0  0  0  0  0  0  0  0  0
    0.7882   20.6767   38.2700 S   0  0  0  0  0  0  0  0  0  0  0  0
    2.5637   20.2828   36.1573 C   0  0  0  0  0  0  0  0  0  0  0  0
    0.3836   19.4065   39.1839 C   0  0  0  0  0  0  0  0  0  0  0  0
    0.9787   13.9168   40.2435 C   0  0  1  0  0  0  0  0  0  0  0  0
    0.9165   26.2393   31.3860 C   0  0  0  0  0  0  0  0  0  0  0  0
    1.8556   21.6966   35.8736 C   0  0  0  0  0  0  0  0  0  0  0  0
    3.0224   25.0043   32.4935 C   0  0  1  0  0  0  0  0  0  0  0  0
    2.3983   13.7078   38.3893 O   0  0  0  0  0  0  0  0  0  0  0  0
    0.6573   15.3990   39.1746 C   0  0  1  0  0  0  0  0  0  0  0  0
   -1.2157   18.0483   40.7055 S   0  0  0  0  0  0  0  0  0  0  0  0
    2.3581   26.3230   29.4248 C   0  0  0  0  0  0  0  0  0  0  0  0
    3.7573   25.0568   31.1473 C   0  0  0  0  0  0  0  0  0  0  0  0
   -0.7547   19.4213   39.9907 C   0  0  0  0  0  0  0  0  0  0  0  0
    2.1509   14.9700   36.1227 O   0  0  0  0  0  0  0  0  0  0  0  0
    2.0527   22.1208   34.3999 C   0  0  0  0  0  0  0  0  0  0  0  0
    2.0466   23.5944   34.0641 C   0  0  0  0  0  0  0  0  0  0  0  0
    2.2973   19.8695   37.5897 C   0  0  2  0  0  0  0  0  0  0  0  0
    0.1211   13.3441   41.1541 N   0  0  0  0  0  0  0  0  0  0  0  0
    1.1934   27.8760   26.6985 C   0  0  0  0  0  0  0  0  0  0  0  0
   -0.4260   16.6532   39.7789 C   0  0  0  0  0  0  0  0  0  0  0  0
    3.3855   25.8758   29.9657 N   0  0  0  0  0  0  0  0  0  0  0  0
    1.6349   25.6206   32.4347 C   0  0  0  0  0  0  0  0  0  0  0  0
    2.1482   15.1894   38.6604 C   0  0  2  0  0  0  0  0  0  0  0  0
    1.4015   27.1317   28.9200 N   0  0  0  0  0  0  0  0  0  0  0  0
    2.5416   23.7367   32.7660 O   0  0  0  0  0  0  0  0  0  0  0  0
    2.4762   17.2581   37.1155 C   0  0  0  0  0  0  0  0  0  0  0  0
    1.2903   18.4456   38.9623 C   0  0  0  0  0  0  0  0  0  0  0  0
    2.1007   18.4433   37.8042 C   0  0  0  0  0  0  0  0  0  0  0  0
    2.0128   13.0142   39.5474 C   0  0  0  0  0  0  0  0  0  0  0  0
    1.3747   27.1797   31.0626 C   0  0  0  0  0  0  0  0  0  0  0  0
    2.2600   15.9294   37.2804 C   0  0  1  0  0  0  0  0  0  0  0  0
    2.1560   19.5236   35.4736 H   0  0  0  0  0  0  0  0  0  0  0  0
    3.6479   20.3739   35.9951 H   0  0  0  0  0  0  0  0  0  0  0  0
    1.2920   14.4293   41.1650 H   0  0  0  0  0  0  0  0  0  0  0  0
    0.8806   25.5510   30.5287 H   0  0  0  0  0  0  0  0  0  0  0  0
   -0.0915   26.4697   31.7614 H   0  0  0  0  0  0  0  0  0  0  0  0
    0.7793   21.6099   36.0835 H   0  0  0  0  0  0  0  0  0  0  0  0
    2.3115   22.4572   36.5245 H   0  0  0  0  0  0  0  0  0  0  0  0
    3.7613   25.4548   33.1726 H   0  0  0  0  0  0  0  0  0  0  0  0
   -0.0201   15.6990   38.3615 H   0  0  0  0  0  0  0  0  0  0  0  0
    2.5032   25.7649   28.4880 H   0  0  0  0  0  0  0  0  0  0  0  0
    2.0433   26.6613   30.4230 H   0  0  0  0  0  0  0  0  0  0  0  0
    4.7843   25.3632   31.3948 H   0  0  0  0  0  0  0  0  0  0  0  0
    3.5009   24.0586   30.7628 H   0  0  0  0  0  0  0  0  0  0  0  0
   -1.3268   20.3494   40.1370 H   0  0  0  0  0  0  0  0  0  0  0  0
    1.8179   14.0964   36.4484 H   0  0  0  0  0  0  0  0  0  0  0  0
    3.0228   21.7180   34.0736 H   0  0  0  0  0  0  0  0  0  0  0  0
    1.1643   21.7251   33.8860 H   0  0  0  0  0  0  0  0  0  0  0  0
    1.0204   23.9867   34.1187 H   0  0  0  0  0  0  0  0  0  0  0  0
    2.6694   24.1544   34.7771 H   0  0  0  0  0  0  0  0  0  0  0  0
    3.2195   20.1876   38.0979 H   0  0  0  0  0  0  0  0  0  0  0  0
    0.4002   13.6171   42.1073 H   0  0  0  0  0  0  0  0  0  0  0  0
   -0.8395   13.6678   40.9717 H   0  0  0  0  0  0  0  0  0  0  0  0
    0.1606   12.3188   41.0653 H   0  0  0  0  0  0  0  0  0  0  0  0
    1.2061   28.2167   25.6527 H   0  0  0  0  0  0  0  0  0  0  0  0
   -0.5497   17.1312   38.7959 H   0  0  0  0  0  0  0  0  0  0  0  0
   -0.5201   16.0570   40.6986 H   0  0  0  0  0  0  0  0  0  0  0  0
    3.8114   25.3398   29.1962 H   0  0  0  0  0  0  0  0  0  0  0  0
    3.5871   26.7639   30.4469 H   0  0  0  0  0  0  0  0  0  0  0  0
    1.6617   26.3916   33.2188 H   0  0  0  0  0  0  0  0  0  0  0  0
    1.0788   24.6716   32.4222 H   0  0  0  0  0  0  0  0  0  0  0  0
    2.8635   15.5634   39.4076 H   0  0  0  0  0  0  0  0  0  0  0  0
    1.5155   28.0035   29.4568 H   0  0  0  0  0  0  0  0  0  0  0  0
    0.6367   26.4430   28.9608 H   0  0  0  0  0  0  0  0  0  0  0  0
    3.0943   17.4709   36.2309 H   0  0  0  0  0  0  0  0  0  0  0  0
    1.9776   18.4645   39.8209 H   0  0  0  0  0  0  0  0  0  0  0  0
    0.6590   17.5579   38.8089 H   0  0  0  0  0  0  0  0  0  0  0  0
    1.5621   12.0461   39.2834 H   0  0  0  0  0  0  0  0  0  0  0  0
    2.8724   12.8007   40.1998 H   0  0  0  0  0  0  0  0  0  0  0  0
    1.5180   27.8362   31.9335 H   0  0  0  0  0  0  0  0  0  0  0  0
    2.3489   26.9715   30.5961 H   0  0  0  0  0  0  0  0  0  0  0  0
    0.7176   27.6761   30.3335 H   0  0  0  0  0  0  0  0  0  0  0  0
    1.1742   16.1011   37.2404 H   0  0  0  0  0  0  0  0  0  0  0  0
  1 25  1  0
  2  4  1  0
  4 14  2  0
  5 19  1  0
  6 23  1  0
  7  3  1  0
  8 13  1  0
  8 23  1  0
  8 26  1  0
  9 30  1  0
 10 21  1  0
 10  5  1  0
 12 22  1  0
 14 11  1  0
 16  7  1  0
 17 16  1  0
 18  3  1  0
 18 29  1  0
 18  2  1  0
 20  1  3  0
 21 11  1  0
 22 13  1  0
 24  9  1  0
 24 10  1  0
 25 12  1  0
 26 17  1  0
 27 32  1  0
 27 29  2  0
 28  4  1  0
 29 28  1  0
 30  5  1  0
 31  6  1  0
 32 15  1  0
 32 24  1  0
  3 33  1  0
  3 34  1  0
  5 35  1  1
  6 36  1  0
  6 37  1  0
  7 38  1  0
  7 39  1  0
  8 40  1  1
 10 41  1  6
 12 42  1  0
 12 43  1  0
 13 44  1  0
 13 45  1  0
 14 46  1  0
 15 47  1  0
 16 48  1  0
 16 49  1  0
 17 50  1  0
 17 51  1  0
 18 52  1  1
 19 53  1  0
 19 54  1  0
 19 55  1  0
 20 56  1  0
 21 57  1  0
 21 58  1  0
 22 59  1  0
 22 60  1  0
 23 61  1  0
 23 62  1  0
 24 63  1  1
 25 64  1  0
 25 65  1  0
 27 66  1  0
 28 67  1  0
 28 68  1  0
 30 69  1  0
 30 70  1  0
 31 71  1  0
 31 72  1  0
 31 73  1  0
 32 74  1  6
M  CHG  3  19   1  22   1  25   1
M  END
>  <mol_id>  (39) 
2026-09-18-3war-s0-n100-0039

>  <rmsd_to_ref>  (39) 


$$$$

     RDKit          3D

 59 62  0  0  0  0  0  0  0  0999 V2000
    2.1510   19.7910   39.1090 C   0  0  0  0  0  0  0  0  0  0  0  0
    2.8070   23.6560   31.9020 C   0  0  2  0  0  0  0  0  0  0  0  0
    3.8670   17.5100   38.0960 O   0  0  0  0  0  0  0  0  0  0  0  0
    2.2340   25.8900   29.7210 C   0  0  0  0  0  0  0  0  0  0  0  0
    4.1400   21.8020   32.8850 C   0  0  0  0  0  0  0  0  0  0  0  0
    2.7680   23.6290   33.2730 C   0  0  0  0  0  0  0  0  0  0  0  0
    1.9400   25.3480   30.4470 C   0  0  0  0  0  0  0  0  0  0  0  0
    4.6580   25.2210   29.1730 C   0  0  0  0  0  0  0  0  0  0  0  0
    4.0870   22.8660   31.7790 C   0  0  2  0  0  0  0  0  0  0  0  0
    3.2850   22.4790   33.9310 C   0  0  0  0  0  0  0  0  0  0  0  0
    1.6370   17.0580   41.5840 N   0  0  0  0  0  0  0  0  0  0  0  0
    4.1740   16.3810   37.5650 C   0  0  0  0  0  0  0  0  0  0  0  0
    0.2310   21.4660   41.9460 C   0  0  0  0  0  0  0  0  0  0  0  0
    0.9170   17.2800   42.6320 C   0  0  0  0  0  0  0  0  0  0  0  0
    2.3030   18.4600   39.6450 C   0  0  0  0  0  0  0  0  0  0  0  0
    1.0910   19.1910   41.5660 C   0  0  0  0  0  0  0  0  0  0  0  0
    0.9570   20.4590   41.0910 C   0  0  0  0  0  0  0  0  0  0  0  0
    4.9930   23.5760   30.8770 C   0  0  0  0  0  0  0  0  0  0  0  0
    0.5710   18.5940   42.6100 N   0  0  0  0  0  0  0  0  0  0  0  0
    4.1560   24.4820   30.2700 C   0  0  1  0  0  0  0  0  0  0  0  0
    2.6760   20.1210   37.7140 C   0  0  0  0  0  0  0  0  0  0  0  0
    2.8800   17.3160   38.9820 N   0  0  0  0  0  0  0  0  0  0  0  0
    1.5280   20.7770   39.7950 C   0  0  0  0  0  0  0  0  0  0  0  0
    3.4100   15.4290   38.1750 N   0  0  0  0  0  0  0  0  0  0  0  0
    2.6080   15.9760   39.1720 C   0  0  0  0  0  0  0  0  0  0  0  0
    3.0660   24.6210   31.1060 C   0  0  2  0  0  0  0  0  0  0  0  0
    1.7420   18.1950   40.8670 C   0  0  0  0  0  0  0  0  0  0  0  0
    1.7705   23.4408   31.6032 H   0  0  0  0  0  0  0  0  0  0  0  0
    2.7241   26.7935   30.1129 H   0  0  0  0  0  0  0  0  0  0  0  0
    2.9482   25.3230   29.1058 H   0  0  0  0  0  0  0  0  0  0  0  0
    1.3692   26.1795   29.1058 H   0  0  0  0  0  0  0  0  0  0  0  0
    5.1667   21.6332   33.2419 H   0  0  0  0  0  0  0  0  0  0  0  0
    3.8019   20.7995   32.5840 H   0  0  0  0  0  0  0  0  0  0  0  0
    3.3387   24.4973   33.6341 H   0  0  0  0  0  0  0  0  0  0  0  0
    1.6957   23.6285   33.5185 H   0  0  0  0  0  0  0  0  0  0  0  0
    1.4502   25.9914   31.1927 H   0  0  0  0  0  0  0  0  0  0  0  0
    1.2447   24.5964   30.0449 H   0  0  0  0  0  0  0  0  0  0  0  0
    5.2400   26.0777   29.5436 H   0  0  0  0  0  0  0  0  0  0  0  0
    5.3051   24.5753   28.5612 H   0  0  0  0  0  0  0  0  0  0  0  0
    3.8192   25.5846   28.5612 H   0  0  0  0  0  0  0  0  0  0  0  0
    4.6021   22.0271   31.2882 H   0  0  0  0  0  0  0  0  0  0  0  0
    2.4692   21.8164   34.2558 H   0  0  0  0  0  0  0  0  0  0  0  0
    3.8537   22.7340   34.8374 H   0  0  0  0  0  0  0  0  0  0  0  0
    3.9610   16.4013   36.4860 H   0  0  0  0  0  0  0  0  0  0  0  0
    5.2449   16.1658   37.6951 H   0  0  0  0  0  0  0  0  0  0  0  0
    0.3984   21.2338   43.0081 H   0  0  0  0  0  0  0  0  0  0  0  0
    0.6109   22.4748   41.7269 H   0  0  0  0  0  0  0  0  0  0  0  0
   -0.8462   21.4243   41.7269 H   0  0  0  0  0  0  0  0  0  0  0  0
    0.0142   16.6520   42.6091 H   0  0  0  0  0  0  0  0  0  0  0  0
    1.4756   17.0382   43.5483 H   0  0  0  0  0  0  0  0  0  0  0  0
    5.7924   24.0850   31.4355 H   0  0  0  0  0  0  0  0  0  0  0  0
    5.5138   22.9156   30.1680 H   0  0  0  0  0  0  0  0  0  0  0  0
    3.5658   24.6040   29.3498 H   0  0  0  0  0  0  0  0  0  0  0  0
    3.6044   20.7046   37.8002 H   0  0  0  0  0  0  0  0  0  0  0  0
    2.8789   19.1877   37.1683 H   0  0  0  0  0  0  0  0  0  0  0  0
    1.9230   20.7085   37.1683 H   0  0  0  0  0  0  0  0  0  0  0  0
    1.4561   21.7936   39.3811 H   0  0  0  0  0  0  0  0  0  0  0  0
    1.9480   15.4830   39.9009 H   0  0  0  0  0  0  0  0  0  0  0  0
    3.3797   25.3138   31.9007 H   0  0  0  0  0  0  0  0  0  0  0  0
  1 15  2  0
  1 23  1  0
  2  6  1  0
  3 22  1  0
  4  7  1  0
  5 10  1  0
  6 10  1  0
  9 18  1  0
  9  2  1  0
  9  5  1  0
 11 14  1  0
 12  3  1  0
 12 24  1  0
 15 27  1  0
 16 19  2  0
 17 16  1  0
 17 13  1  0
 19 14  1  0
 20  8  1  0
 20 18  1  0
 20 26  1  0
 21  1  1  0
 22 25  1  0
 22 15  1  0
 23 17  2  0
 24 25  2  0
 26  7  1  0
 26  2  1  0
 27 16  1  0
 27 11  2  0
  2 28  1  6
  4 29  1  0
  4 30  1  0
  4 31  1  0
  5 32  1  0
  5 33  1  0
  6 34  1  0
  6 35  1  0
  7 36  1  0
  7 37  1  0
  8 38  1  0
  8 39  1  0
  8 40  1  0
  9 41  1  6
 10 42  1  0
 10 43  1  0
 12 44  1  0
 12 45  1  0
 13 46  1  0
 13 47  1  0
 13 48  1  0
 14 49  1  0
 14 50  1  0
 18 51  1  0
 18 52  1  0
 20 53  1  6
 21 54  1  0
 21 55  1  0
 21 56  1  0
 23 57  1  0
 25 58  1  0
 26 59  1  1
M  END
>  <mol_id>  (40) 
2026-09-18-3war-s0-n100-0040

>  <rmsd_to_ref>  (40) 


$$$$

     RDKit          3D

 54 55  0  0  0  0  0  0  0  0999 V2000
    2.5480   16.6386   37.2942 C   0  0  2  0  0  0  0  0  0  0  0  0
    1.1565   20.2997   42.6102 C   0  0  0  0  0  0  0  0  0  0  0  0
    0.4536   18.9883   42.6571 C   0  0  0  0  0  0  0  0  0  0  0  0
    1.0437   20.8628   41.2349 C   0  0  0  0  0  0  0  0  0  0  0  0
    0.9816   27.1638   32.8731 C   0  0  2  0  0  0  0  0  0  0  0  0
    1.9352   18.9375   39.9288 C   0  0  1  0  0  0  0  0  0  0  0  0
    1.2491   16.4375   36.5163 O   0  0  0  0  0  0  0  0  0  0  0  0
    1.6213   17.8681   40.6399 C   0  0  0  0  0  0  0  0  0  0  0  0
    2.6265   25.4270   32.8598 N   0  0  0  0  0  0  0  0  0  0  0  0
    1.7208   26.2221   33.4003 C   0  0  0  0  0  0  0  0  0  0  0  0
    2.6781   18.9315   36.3481 N   0  0  0  0  0  0  0  0  0  0  0  0
   -0.4034   27.6661   31.9285 C   0  0  0  0  0  0  0  0  0  0  0  0
    2.5400   18.0787   37.4476 C   0  0  1  0  0  0  0  0  0  0  0  0
    2.2334   18.9224   38.5042 C   0  0  0  0  0  0  0  0  0  0  0  0
    2.2412   20.1836   37.8906 C   0  0  0  0  0  0  0  0  0  0  0  0
    2.4953   20.1268   36.6809 C   0  0  0  0  0  0  0  0  0  0  0  0
    0.8672   17.9100   41.8377 C   0  0  0  0  0  0  0  0  0  0  0  0
    2.3269   22.2165   35.0429 N   0  0  0  0  0  0  0  0  0  0  0  0
    2.7772   25.5027   31.6949 C   0  0  0  0  0  0  0  0  0  0  0  0
    3.5059   15.8099   36.3912 C   0  0  0  0  0  0  0  0  0  0  0  0
    2.1856   26.3856   31.2499 C   0  0  0  0  0  0  0  0  0  0  0  0
    1.9980   20.2597   40.3694 N   0  0  0  0  0  0  0  0  0  0  0  0
    2.3653   21.3108   35.8208 C   0  0  0  0  0  0  0  0  0  0  0  0
   -0.2278   27.6651   33.1315 C   0  0  0  0  0  0  0  0  0  0  0  0
    1.7966   27.3540   31.9415 O   0  0  0  0  0  0  0  0  0  0  0  0
    2.7961   16.2979   38.3102 H   0  0  0  0  0  0  0  0  0  0  0  0
    0.6952   20.9912   43.3306 H   0  0  0  0  0  0  0  0  0  0  0  0
    2.2167   20.1621   42.8692 H   0  0  0  0  0  0  0  0  0  0  0  0
    0.5201   18.6348   43.6966 H   0  0  0  0  0  0  0  0  0  0  0  0
   -0.5404   19.2317   42.2537 H   0  0  0  0  0  0  0  0  0  0  0  0
    0.0321   20.6719   40.8475 H   0  0  0  0  0  0  0  0  0  0  0  0
    1.2359   21.9451   41.2770 H   0  0  0  0  0  0  0  0  0  0  0  0
    1.4324   27.8996   33.5553 H   0  0  0  0  0  0  0  0  0  0  0  0
    3.0046   18.8117   40.1539 H   0  0  0  0  0  0  0  0  0  0  0  0
    0.5238   16.1906   37.1432 H   0  0  0  0  0  0  0  0  0  0  0  0
    1.9664   16.8877   40.2798 H   0  0  0  0  0  0  0  0  0  0  0  0
    1.5609   26.0658   34.4774 H   0  0  0  0  0  0  0  0  0  0  0  0
   -0.1360   26.6812   31.5181 H   0  0  0  0  0  0  0  0  0  0  0  0
   -1.4609   27.8786   31.7125 H   0  0  0  0  0  0  0  0  0  0  0  0
    0.2277   28.4395   31.4664 H   0  0  0  0  0  0  0  0  0  0  0  0
    2.9921   17.2116   37.9513 H   0  0  0  0  0  0  0  0  0  0  0  0
    2.0426   21.1229   38.4274 H   0  0  0  0  0  0  0  0  0  0  0  0
    0.5427   16.9227   42.1981 H   0  0  0  0  0  0  0  0  0  0  0  0
    3.8468   25.6448   31.4812 H   0  0  0  0  0  0  0  0  0  0  0  0
    2.4071   24.5732   31.2375 H   0  0  0  0  0  0  0  0  0  0  0  0
    4.2222   15.2626   37.0216 H   0  0  0  0  0  0  0  0  0  0  0  0
    2.9204   15.0943   35.7953 H   0  0  0  0  0  0  0  0  0  0  0  0
    4.0526   16.4868   35.7181 H   0  0  0  0  0  0  0  0  0  0  0  0
    1.2817   25.9504   30.7987 H   0  0  0  0  0  0  0  0  0  0  0  0
    2.9408   26.8593   30.6054 H   0  0  0  0  0  0  0  0  0  0  0  0
    2.9046   20.3495   40.8499 H   0  0  0  0  0  0  0  0  0  0  0  0
    1.8079   20.7643   39.4918 H   0  0  0  0  0  0  0  0  0  0  0  0
   -0.8947   26.9965   33.6957 H   0  0  0  0  0  0  0  0  0  0  0  0
   -0.3704   28.5662   33.7461 H   0  0  0  0  0  0  0  0  0  0  0  0
  1 20  1  0
  2  3  1  0
  4  2  1  0
  5 24  1  0
  5 10  1  0
  6 14  1  0
  6 22  1  0
  6  8  1  0
  7  1  1  0
  8 17  2  0
  9 10  2  0
 11 16  2  0
 11 13  1  0
 12 24  1  0
 13  1  1  0
 13 14  1  0
 15 14  2  0
 16 15  1  0
 17  3  1  0
 18 23  3  0
 19  9  1  0
 21 25  1  0
 21 19  1  0
 22  4  1  0
 23 16  1  0
 25  5  1  0
  1 26  1  1
  2 27  1  0
  2 28  1  0
  3 29  1  0
  3 30  1  0
  4 31  1  0
  4 32  1  0
  5 33  1  1
  6 34  1  1
  7 35  1  0
  8 36  1  0
 10 37  1  0
 12 38  1  0
 12 39  1  0
 12 40  1  0
 13 41  1  1
 15 42  1  0
 17 43  1  0
 19 44  1  0
 19 45  1  0
 20 46  1  0
 20 47  1  0
 20 48  1  0
 21 49  1  0
 21 50  1  0
 22 51  1  0
 22 52  1  0
 24 53  1  0
 24 54  1  0
M  CHG  1  22   1
M  END
>  <mol_id>  (41) 
2026-09-18-3war-s0-n100-0041

>  <rmsd_to_ref>  (41) 


$$$$

     RDKit          3D

 49 51  0  0  0  0  0  0  0  0999 V2000
    0.8370   17.5830   42.5650 Cl  0  0  0  0  0  0  0  0  0  0  0  0
    1.5870   26.2260   31.6770 C   0  0  0  0  0  0  0  0  0  0  0  0
    3.2120   17.9620   39.5910 C   0  0  1  0  0  0  0  0  0  0  0  0
    4.0900   23.5720   31.2500 C   0  0  0  0  0  0  0  0  0  0  0  0
    2.2420   21.5580   36.3990 C   0  0  0  0  0  0  0  0  0  0  0  0
    2.1110   24.8590   31.9520 C   0  0  2  0  0  0  0  0  0  0  0  0
    2.2450   24.2140   33.4710 S   0  0  0  0  0  0  0  0  0  0  0  0
    2.6970   24.4490   29.7350 O   0  0  0  0  0  0  0  0  0  0  0  0
    2.2220   19.9950   39.7390 C   0  0  1  0  0  0  0  0  0  0  0  0
    2.4620   17.4620   40.6180 C   0  0  0  0  0  0  0  0  0  0  0  0
    2.3810   20.9500   37.5170 C   0  0  0  0  0  0  0  0  0  0  0  0
    2.7620   27.1230   31.2460 C   0  0  0  0  0  0  0  0  0  0  0  0
    4.2180   26.1450   31.1460 S   0  0  0  0  0  0  0  0  0  0  0  0
    3.3180   21.6010   35.5070 C   0  0  0  0  0  0  0  0  0  0  0  0
    3.7150   17.1270   38.5410 O   0  0  0  0  0  0  0  0  0  0  0  0
    2.7380   22.7000   33.3840 C   0  0  1  0  0  0  0  0  0  0  0  0
    1.4550   19.6810   40.8000 C   0  0  0  0  0  0  0  0  0  0  0  0
    3.2620   24.6800   30.9890 C   0  0  2  0  0  0  0  0  0  0  0  0
    1.6410   18.3160   41.2240 C   0  0  0  0  0  0  0  0  0  0  0  0
    3.3230   19.2140   39.3960 C   0  0  0  0  0  0  0  0  0  0  0  0
    1.9200   21.1180   38.7710 C   0  0  0  0  0  0  0  0  0  0  0  0
    4.3290   22.7560   32.7290 S   0  0  0  0  0  0  0  0  0  0  0  0
    2.9270   22.2240   34.5780 N   0  0  0  0  0  0  0  0  0  0  0  0
    1.2800   22.0630   39.1890 O   0  0  0  0  0  0  0  0  0  0  0  0
    0.8394   26.1815   30.8713 H   0  0  0  0  0  0  0  0  0  0  0  0
    1.1120   26.6360   32.5805 H   0  0  0  0  0  0  0  0  0  0  0  0
    3.8959   17.7416   40.4239 H   0  0  0  0  0  0  0  0  0  0  0  0
    5.0957   23.9010   30.9495 H   0  0  0  0  0  0  0  0  0  0  0  0
    3.4993   22.8017   30.7326 H   0  0  0  0  0  0  0  0  0  0  0  0
    1.4067   21.0740   35.8717 H   0  0  0  0  0  0  0  0  0  0  0  0
    2.1008   22.6096   36.6891 H   0  0  0  0  0  0  0  0  0  0  0  0
    1.2759   24.1618   31.7892 H   0  0  0  0  0  0  0  0  0  0  0  0
    1.7865   24.0767   29.8468 H   0  0  0  0  0  0  0  0  0  0  0  0
    2.8022   20.6898   40.3640 H   0  0  0  0  0  0  0  0  0  0  0  0
    2.5332   16.4088   40.9275 H   0  0  0  0  0  0  0  0  0  0  0  0
    2.0515   19.9285   37.2761 H   0  0  0  0  0  0  0  0  0  0  0  0
    3.3696   21.3833   37.7291 H   0  0  0  0  0  0  0  0  0  0  0  0
    2.5467   27.5663   30.2626 H   0  0  0  0  0  0  0  0  0  0  0  0
    2.9044   27.9291   31.9808 H   0  0  0  0  0  0  0  0  0  0  0  0
    4.1826   22.0996   35.9694 H   0  0  0  0  0  0  0  0  0  0  0  0
    3.6509   20.5939   35.2157 H   0  0  0  0  0  0  0  0  0  0  0  0
    4.1838   16.3487   38.9342 H   0  0  0  0  0  0  0  0  0  0  0  0
    2.0068   22.1082   32.8138 H   0  0  0  0  0  0  0  0  0  0  0  0
    1.7145   20.3492   41.6344 H   0  0  0  0  0  0  0  0  0  0  0  0
    0.4029   19.8007   40.5021 H   0  0  0  0  0  0  0  0  0  0  0  0
    4.1816   19.5694   39.9847 H   0  0  0  0  0  0  0  0  0  0  0  0
    3.4362   19.3310   38.3081 H   0  0  0  0  0  0  0  0  0  0  0  0
    3.1304   23.1407   35.0014 H   0  0  0  0  0  0  0  0  0  0  0  0
    2.4744   21.3585   34.2509 H   0  0  0  0  0  0  0  0  0  0  0  0
  3 15  1  0
  3 10  1  0
  4 22  1  0
  5 11  1  0
  6  2  1  0
  6  7  1  0
  9 21  1  0
  9 17  1  0
 10 19  2  0
 11 21  1  0
 12  2  1  0
 13 12  1  0
 14  5  1  0
 16  7  1  0
 16 23  1  0
 17 19  1  0
 18  8  1  6
 18 13  1  0
 18  4  1  0
 18  6  1  0
 19  1  1  0
 20  3  1  0
 20  9  1  0
 21 24  2  0
 22 16  1  0
 23 14  1  0
  2 25  1  0
  2 26  1  0
  3 27  1  1
  4 28  1  0
  4 29  1  0
  5 30  1  0
  5 31  1  0
  6 32  1  6
  8 33  1  0
  9 34  1  1
 10 35  1  0
 11 36  1  0
 11 37  1  0
 12 38  1  0
 12 39  1  0
 14 40  1  0
 14 41  1  0
 15 42  1  0
 16 43  1  6
 17 44  1  0
 17 45  1  0
 20 46  1  0
 20 47  1  0
 23 48  1  0
 23 49  1  0
M  CHG  1  23   1
M  END
>  <mol_id>  (42) 
2026-09-18-3war-s0-n100-0042

>  <rmsd_to_ref>  (42) 


$$$$

     RDKit          3D

 80 81  0  0  0  0  0  0  0  0999 V2000
    2.2530   19.8830   36.7150 C   0  0  0  0  0  0  0  0  0  0  0  0
    0.9030   26.6250   33.2200 C   0  0  0  0  0  0  0  0  0  0  0  0
    2.6900   20.9380   35.6110 C   0  0  2  0  0  0  0  0  0  0  0  0
    3.0370   27.5560   33.9810 O   0  0  0  0  0  0  0  0  0  0  0  0
    2.3640   16.4180   40.0200 C   0  0  0  0  0  0  0  0  0  0  0  0
    3.2580   15.0360   38.2920 O   0  0  0  0  0  0  0  0  0  0  0  0
    2.6450   17.6900   40.1380 C   0  0  0  0  0  0  0  0  0  0  0  0
    1.3800   15.6760   40.7050 C   0  0  0  0  0  0  0  0  0  0  0  0
    2.3740   25.0650   31.7290 C   0  0  1  0  0  0  0  0  0  0  0  0
    2.1580   22.0320   34.3870 C   0  0  0  0  0  0  0  0  0  0  0  0
    1.1200   28.5850   31.0400 S   0  0  0  0  0  0  0  0  0  0  0  0
    2.9950   15.7370   38.9480 C   0  0  0  0  0  0  0  0  0  0  0  0
   -2.5100   12.1650   42.2910 C   0  0  0  0  0  0  0  0  0  0  0  0
    2.4020   25.4370   32.9330 C   0  0  0  0  0  0  0  0  0  0  0  0
    3.9320   23.0950   32.3420 C   0  0  0  0  0  0  0  0  0  0  0  0
    1.8670   27.1590   33.5460 C   0  0  2  0  0  0  0  0  0  0  0  0
   -0.0380   11.8770   43.0430 C   0  0  0  0  0  0  0  0  0  0  0  0
    2.6210   24.7320   33.8920 C   0  0  0  0  0  0  0  0  0  0  0  0
   -0.1920   13.3990   42.6630 C   0  0  2  0  0  0  0  0  0  0  0  0
    3.2420   23.9250   31.3780 C   0  0  0  0  0  0  0  0  0  0  0  0
    1.8070   14.1980   41.0730 C   0  0  0  0  0  0  0  0  0  0  0  0
    4.4370   20.8310   33.6420 C   0  0  0  0  0  0  0  0  0  0  0  0
    3.6650   18.5850   39.2460 C   0  0  0  0  0  0  0  0  0  0  0  0
    3.6950   20.2660   34.7800 C   0  0  0  0  0  0  0  0  0  0  0  0
    1.3480   25.3090   30.6140 C   0  0  0  0  0  0  0  0  0  0  0  0
    3.4950   22.1960   33.3870 C   0  0  1  0  0  0  0  0  0  0  0  0
    3.0810   19.8830   39.3710 C   0  0  0  0  0  0  0  0  0  0  0  0
    1.2440   28.8310   32.6690 C   0  0  0  0  0  0  0  0  0  0  0  0
   -1.4690   13.2680   41.7630 O   0  0  0  0  0  0  0  0  0  0  0  0
    0.6110   26.7780   30.7230 S   0  0  0  0  0  0  0  0  0  0  0  0
    1.5960   21.4730   38.8830 O   0  0  0  0  0  0  0  0  0  0  0  0
    2.5050   20.5190   38.2460 C   0  0  2  0  0  0  0  0  0  0  0  0
    1.1460   13.9200   42.1270 C   0  0  0  0  0  0  0  0  0  0  0  0
   -1.3770   11.1750   42.9710 O   0  0  0  0  0  0  0  0  0  0  0  0
    2.8490   18.9658   36.5987 H   0  0  0  0  0  0  0  0  0  0  0  0
    1.1848   19.6515   36.5910 H   0  0  0  0  0  0  0  0  0  0  0  0
    0.3381   26.3121   34.1105 H   0  0  0  0  0  0  0  0  0  0  0  0
    0.2889   27.3116   32.6187 H   0  0  0  0  0  0  0  0  0  0  0  0
    1.1593   25.7402   32.6187 H   0  0  0  0  0  0  0  0  0  0  0  0
    2.5439   21.6397   36.4454 H   0  0  0  0  0  0  0  0  0  0  0  0
    3.0382   27.5564   34.9710 H   0  0  0  0  0  0  0  0  0  0  0  0
    1.6741   18.1977   40.0403 H   0  0  0  0  0  0  0  0  0  0  0  0
    3.2402   17.6390   41.0616 H   0  0  0  0  0  0  0  0  0  0  0  0
    1.1386   16.2058   41.6383 H   0  0  0  0  0  0  0  0  0  0  0  0
    0.5217   15.5916   40.0223 H   0  0  0  0  0  0  0  0  0  0  0  0
    2.5706   26.1468   31.7604 H   0  0  0  0  0  0  0  0  0  0  0  0
    1.3036   21.6152   33.8335 H   0  0  0  0  0  0  0  0  0  0  0  0
    1.8130   22.9929   34.7965 H   0  0  0  0  0  0  0  0  0  0  0  0
   -3.0651   11.6789   41.4752 H   0  0  0  0  0  0  0  0  0  0  0  0
   -3.3270   12.5142   42.9395 H   0  0  0  0  0  0  0  0  0  0  0  0
    4.5638   22.4533   31.7103 H   0  0  0  0  0  0  0  0  0  0  0  0
    4.1994   23.9201   33.0185 H   0  0  0  0  0  0  0  0  0  0  0  0
    1.9894   27.5592   32.5287 H   0  0  0  0  0  0  0  0  0  0  0  0
    0.6604   11.3975   42.3413 H   0  0  0  0  0  0  0  0  0  0  0  0
    0.3474   11.8039   44.0707 H   0  0  0  0  0  0  0  0  0  0  0  0
    2.6211   25.1640   34.9036 H   0  0  0  0  0  0  0  0  0  0  0  0
    2.8200   23.6592   33.7520 H   0  0  0  0  0  0  0  0  0  0  0  0
   -0.3644   14.1817   43.4165 H   0  0  0  0  0  0  0  0  0  0  0  0
    2.6090   23.2390   30.7960 H   0  0  0  0  0  0  0  0  0  0  0  0
    4.0909   24.4493   30.9148 H   0  0  0  0  0  0  0  0  0  0  0  0
    1.5469   13.5056   40.2588 H   0  0  0  0  0  0  0  0  0  0  0  0
    2.8922   14.1061   41.2276 H   0  0  0  0  0  0  0  0  0  0  0  0
    5.4734   21.0860   33.9081 H   0  0  0  0  0  0  0  0  0  0  0  0
    4.5611   20.1664   32.7743 H   0  0  0  0  0  0  0  0  0  0  0  0
    3.6831   18.2508   38.1982 H   0  0  0  0  0  0  0  0  0  0  0  0
    4.7145   18.5300   39.5708 H   0  0  0  0  0  0  0  0  0  0  0  0
    3.1779   19.3861   34.3697 H   0  0  0  0  0  0  0  0  0  0  0  0
    4.5152   20.2129   35.5110 H   0  0  0  0  0  0  0  0  0  0  0  0
    1.8637   25.2473   29.6443 H   0  0  0  0  0  0  0  0  0  0  0  0
    0.5661   24.5419   30.7147 H   0  0  0  0  0  0  0  0  0  0  0  0
    2.8887   21.6410   32.6560 H   0  0  0  0  0  0  0  0  0  0  0  0
    2.2873   19.8007   40.1281 H   0  0  0  0  0  0  0  0  0  0  0  0
    3.9446   20.5233   39.6041 H   0  0  0  0  0  0  0  0  0  0  0  0
    0.8112   27.9725   33.2035 H   0  0  0  0  0  0  0  0  0  0  0  0
    2.3037   28.9379   32.9441 H   0  0  0  0  0  0  0  0  0  0  0  0
    0.6996   29.7464   32.9441 H   0  0  0  0  0  0  0  0  0  0  0  0
    1.6713   21.3940   39.8670 H   0  0  0  0  0  0  0  0  0  0  0  0
    3.2838   20.8974   37.5675 H   0  0  0  0  0  0  0  0  0  0  0  0
    1.1989   14.8872   42.6483 H   0  0  0  0  0  0  0  0  0  0  0  0
    1.5585   12.9003   42.1312 H   0  0  0  0  0  0  0  0  0  0  0  0
  1 32  1  0
  3  1  1  0
  5  7  1  0
  5  8  1  0
  6 12  2  0
  8 21  1  0
  9 25  1  0
  9 14  1  0
 10  3  1  0
 11 28  1  0
 12  5  2  0
 13 34  1  0
 14 16  1  0
 14 18  2  3
 16  2  1  0
 16  4  1  0
 19 33  1  0
 19 17  1  0
 20  9  1  0
 20 15  1  0
 21 33  1  0
 22 24  1  0
 23 27  1  0
 23  7  1  0
 24  3  1  0
 25 30  1  0
 26 15  1  0
 26 22  1  0
 26 10  1  0
 29 13  1  0
 29 19  1  0
 30 11  1  0
 32 31  1  0
 32 27  1  0
 34 17  1  0
  1 35  1  0
  1 36  1  0
  2 37  1  0
  2 38  1  0
  2 39  1  0
  3 40  1  1
  4 41  1  0
  7 42  1  0
  7 43  1  0
  8 44  1  0
  8 45  1  0
  9 46  1  6
 10 47  1  0
 10 48  1  0
 13 49  1  0
 13 50  1  0
 15 51  1  0
 15 52  1  0
 16 53  1  6
 17 54  1  0
 17 55  1  0
 18 56  1  0
 18 57  1  0
 19 58  1  1
 20 59  1  0
 20 60  1  0
 21 61  1  0
 21 62  1  0
 22 63  1  0
 22 64  1  0
 23 65  1  0
 23 66  1  0
 24 67  1  0
 24 68  1  0
 25 69  1  0
 25 70  1  0
 26 71  1  1
 27 72  1  0
 27 73  1  0
 28 74  1  0
 28 75  1  0
 28 76  1  0
 31 77  1  0
 32 78  1  6
 33 79  1  0
 33 80  1  0
M  END
>  <mol_id>  (43) 
2026-09-18-3war-s0-n100-0043

>  <rmsd_to_ref>  (43) 


$$$$

     RDKit          3D

 67 71  0  0  0  0  0  0  0  0999 V2000
    1.1873   19.7963   39.6196 C   0  0  0  0  0  0  0  0  0  0  0  0
    1.1202   26.0858   29.8528 C   0  0  2  0  0  0  0  0  0  0  0  0
    2.8225   20.6634   36.3489 N   0  0  0  0  0  0  0  0  0  0  0  0
    3.0916   17.4787   37.5999 C   0  0  0  0  0  0  0  0  0  0  0  0
   -0.8547   17.5265   42.4917 O   0  0  0  0  0  0  0  0  0  0  0  0
    1.2941   21.9676   38.0877 S   0  0  0  0  0  0  0  0  0  0  0  0
    0.6217   21.1455   39.4036 C   0  0  0  0  0  0  0  0  0  0  0  0
   -0.9459   20.8698   41.1534 C   0  0  0  0  0  0  0  0  0  0  0  0
    1.0877   27.2549   31.9335 C   0  0  2  0  0  0  0  0  0  0  0  0
    4.9384   16.3778   37.2589 N   0  0  0  0  0  0  0  0  0  0  0  0
    1.9487   25.2081   33.1757 C   0  0  0  0  0  0  0  0  0  0  0  0
    4.3758   23.9864   32.1843 C   0  0  0  0  0  0  0  0  0  0  0  0
   -0.4754   19.5262   41.4590 C   0  0  0  0  0  0  0  0  0  0  0  0
    1.5612   26.2089   31.2725 C   0  0  2  0  0  0  0  0  0  0  0  0
    1.1029   26.7131   33.6077 S   0  0  0  0  0  0  0  0  0  0  0  0
    1.5223   24.9210   28.9521 C   0  0  0  0  0  0  0  0  0  0  0  0
    3.0435   14.5066   36.1893 O   0  0  0  0  0  0  0  0  0  0  0  0
    3.2899   17.9747   36.4481 O   0  0  0  0  0  0  0  0  0  0  0  0
   -0.3310   21.6711   40.1906 C   0  0  0  0  0  0  0  0  0  0  0  0
    0.7524   27.0467   29.1059 C   0  0  0  0  0  0  0  0  0  0  0  0
    3.7464   23.4390   33.2965 C   0  0  0  0  0  0  0  0  0  0  0  0
   -1.2218   18.7077   42.4345 C   0  0  0  0  0  0  0  0  0  0  0  0
    2.3984   25.4470   31.9416 C   0  0  0  0  0  0  0  0  0  0  0  0
    2.1213   19.5010   38.5772 C   0  0  0  0  0  0  0  0  0  0  0  0
    3.5296   13.8917   38.3314 O   0  0  0  0  0  0  0  0  0  0  0  0
    0.5880   28.4519   31.4673 C   0  0  0  0  0  0  0  0  0  0  0  0
    0.6451   19.0336   40.6966 C   0  0  0  0  0  0  0  0  0  0  0  0
    2.1725   20.6034   37.6042 C   0  0  0  0  0  0  0  0  0  0  0  0
    3.3874   14.7405   37.4114 C   0  0  0  0  0  0  0  0  0  0  0  0
    3.6769   16.1044   37.7781 C   0  0  2  0  0  0  0  0  0  0  0  0
    0.7978   28.2029   28.6662 C   0  0  0  0  0  0  0  0  0  0  0  0
    2.5734   21.8362   35.4102 C   0  0  0  0  0  0  0  0  0  0  0  0
    2.9389   18.2144   38.7676 C   0  0  0  0  0  0  0  0  0  0  0  0
    2.5460   23.9526   33.6480 C   0  0  0  0  0  0  0  0  0  0  0  0
    0.4715   27.1237   27.7951 C   0  0  0  0  0  0  0  0  0  0  0  0
   -2.1999   19.1020   43.0789 O   0  0  0  0  0  0  0  0  0  0  0  0
    2.5919   22.8119   35.1994 C   0  0  0  0  0  0  0  0  0  0  0  0
    3.6622   24.9015   31.4466 C   0  0  0  0  0  0  0  0  0  0  0  0
    0.2954   25.8562   30.5434 H   0  0  0  0  0  0  0  0  0  0  0  0
    3.4672   19.9105   36.0688 H   0  0  0  0  0  0  0  0  0  0  0  0
   -1.8147   21.2662   41.6995 H   0  0  0  0  0  0  0  0  0  0  0  0
    2.0735   27.7219   32.0757 H   0  0  0  0  0  0  0  0  0  0  0  0
    5.5995   16.5415   38.0316 H   0  0  0  0  0  0  0  0  0  0  0  0
    5.2592   15.5767   36.6965 H   0  0  0  0  0  0  0  0  0  0  0  0
    4.8905   17.2174   36.6644 H   0  0  0  0  0  0  0  0  0  0  0  0
    5.4007   23.6998   31.9062 H   0  0  0  0  0  0  0  0  0  0  0  0
    0.7253   25.5673   31.5878 H   0  0  0  0  0  0  0  0  0  0  0  0
    1.6287   24.0089   29.5577 H   0  0  0  0  0  0  0  0  0  0  0  0
    0.7476   24.7648   28.1869 H   0  0  0  0  0  0  0  0  0  0  0  0
    2.4804   25.1498   28.4624 H   0  0  0  0  0  0  0  0  0  0  0  0
   -0.6244   22.7251   40.0772 H   0  0  0  0  0  0  0  0  0  0  0  0
    0.5896   26.7182   30.1430 H   0  0  0  0  0  0  0  0  0  0  0  0
    4.2070   22.6200   33.8684 H   0  0  0  0  0  0  0  0  0  0  0  0
    0.1736   29.0284   32.3076 H   0  0  0  0  0  0  0  0  0  0  0  0
    1.3964   29.0264   30.9917 H   0  0  0  0  0  0  0  0  0  0  0  0
   -0.2051   28.2560   30.7307 H   0  0  0  0  0  0  0  0  0  0  0  0
    1.0870   18.0582   40.9483 H   0  0  0  0  0  0  0  0  0  0  0  0
    3.2553   15.8861   38.7704 H   0  0  0  0  0  0  0  0  0  0  0  0
    0.0247   28.9309   28.9531 H   0  0  0  0  0  0  0  0  0  0  0  0
    1.5515   29.0042   28.6626 H   0  0  0  0  0  0  0  0  0  0  0  0
    2.1648   21.3715   34.5007 H   0  0  0  0  0  0  0  0  0  0  0  0
    2.4296   17.5848   39.5120 H   0  0  0  0  0  0  0  0  0  0  0  0
    3.9451   18.5152   39.0951 H   0  0  0  0  0  0  0  0  0  0  0  0
   -0.5546   26.9828   27.4246 H   0  0  0  0  0  0  0  0  0  0  0  0
    0.8438   26.6931   26.8538 H   0  0  0  0  0  0  0  0  0  0  0  0
    2.6575   23.4089   36.1209 H   0  0  0  0  0  0  0  0  0  0  0  0
    4.0476   25.2283   30.4695 H   0  0  0  0  0  0  0  0  0  0  0  0
  1 27  2  0
  2 16  1  0
  3 28  1  0
  4 30  1  0
  4 33  1  0
  6  7  1  0
  7  1  1  0
  7 19  2  0
  8 13  2  0
  9 26  1  0
  9 15  1  0
 11 34  2  0
 11 15  1  0
 12 21  2  0
 13 22  1  0
 14  2  1  0
 14 23  1  0
 14  9  1  0
 17 29  2  0
 18  4  2  0
 19  8  1  0
 20  2  1  0
 21 34  1  0
 22  5  2  0
 22 36  1  0
 23 11  1  0
 24 33  1  0
 24  1  1  0
 27 13  1  0
 28  6  1  0
 28 24  2  0
 29 30  1  0
 29 25  1  0
 30 10  1  0
 31 20  1  0
 32  3  1  0
 34 37  1  0
 35 31  1  0
 35 20  1  0
 37 32  2  3
 38 12  1  0
 38 23  2  0
  2 39  1  1
  3 40  1  0
  8 41  1  0
  9 42  1  1
 10 43  1  0
 10 44  1  0
 10 45  1  0
 12 46  1  0
 14 47  1  1
 16 48  1  0
 16 49  1  0
 16 50  1  0
 19 51  1  0
 20 52  1  0
 21 53  1  0
 26 54  1  0
 26 55  1  0
 26 56  1  0
 27 57  1  0
 30 58  1  1
 31 59  1  0
 31 60  1  0
 32 61  1  0
 33 62  1  0
 33 63  1  0
 35 64  1  0
 35 65  1  0
 37 66  1  0
 38 67  1  0
M  CHG  3  10   1  25  -1  36  -1
M  END
>  <mol_id>  (44) 
2026-09-18-3war-s0-n100-0044

>  <rmsd_to_ref>  (44) 


$$$$

     RDKit          3D

 74 77  0  0  0  0  0  0  0  0999 V2000
    1.3629   15.6518   36.1251 C   0  0  0  0  0  0  0  0  0  0  0  0
   -0.0969   19.1926   41.4287 C   0  0  0  0  0  0  0  0  0  0  0  0
    2.1396   25.6152   31.7205 C   0  0  0  0  0  0  0  0  0  0  0  0
    1.0182   27.6826   32.5231 C   0  0  0  0  0  0  0  0  0  0  0  0
    2.2485   25.4562   33.1346 C   0  0  0  0  0  0  0  0  0  0  0  0
    1.8182   21.9253   36.1621 C   0  0  0  0  0  0  0  0  0  0  0  0
    3.4240   24.2323   33.4631 C   0  0  0  0  0  0  0  0  0  0  0  0
    2.1801   12.1038   35.4485 C   0  0  0  0  0  0  0  0  0  0  0  0
   -0.4339   17.7370   41.6937 C   0  0  0  0  0  0  0  0  0  0  0  0
    2.3502   15.3388   37.2701 C   0  0  2  0  0  0  0  0  0  0  0  0
   -0.6301   20.1952   42.5819 C   0  0  0  0  0  0  0  0  0  0  0  0
    4.8105   24.7184   33.7965 C   0  0  0  0  0  0  0  0  0  0  0  0
    0.8936   21.5336   38.4965 C   0  0  0  0  0  0  0  0  0  0  0  0
    1.6915   21.1856   37.2373 C   0  0  2  0  0  0  0  0  0  0  0  0
    1.9952   13.3910   35.9974 C   0  0  0  0  0  0  0  0  0  0  0  0
    2.9089   11.3922   36.5256 C   0  0  0  0  0  0  0  0  0  0  0  0
    1.8243   26.1332   34.1033 C   0  0  0  0  0  0  0  0  0  0  0  0
    3.1746   12.2325   37.7216 S   0  0  0  0  0  0  0  0  0  0  0  0
    0.7794   19.4470   40.2398 C   0  0  0  0  0  0  0  0  0  0  0  0
    3.0233   17.7424   38.0060 C   0  0  0  0  0  0  0  0  0  0  0  0
    2.5627   13.7154   37.3763 C   0  0  0  0  0  0  0  0  0  0  0  0
    1.1724   27.3504   34.1085 C   0  0  0  0  0  0  0  0  0  0  0  0
    2.6902   23.2028   34.3735 C   0  0  0  0  0  0  0  0  0  0  0  0
    2.5669   19.0463   38.5221 C   0  0  0  0  0  0  0  0  0  0  0  0
    0.1719   28.1862   30.4351 C   0  0  0  0  0  0  0  0  0  0  0  0
    1.4812   26.7399   31.4904 C   0  0  0  0  0  0  0  0  0  0  0  0
    1.2291   20.9867   39.8978 C   0  0  0  0  0  0  0  0  0  0  0  0
    1.4372   14.6409   35.1557 N   0  0  0  0  0  0  0  0  0  0  0  0
    4.5950   24.1007   32.4681 C   0  0  0  0  0  0  0  0  0  0  0  0
    2.4870   16.4646   38.2597 C   0  0  0  0  0  0  0  0  0  0  0  0
    0.4179   28.7762   31.8936 C   0  0  0  0  0  0  0  0  0  0  0  0
    2.3129   19.8401   37.3673 C   0  0  0  0  0  0  0  0  0  0  0  0
    2.3152   22.4369   35.0349 C   0  0  0  0  0  0  0  0  0  0  0  0
    0.3399   15.7011   36.5262 H   0  0  0  0  0  0  0  0  0  0  0  0
    1.6242   16.6179   35.6688 H   0  0  0  0  0  0  0  0  0  0  0  0
    2.5326   24.9263   30.9583 H   0  0  0  0  0  0  0  0  0  0  0  0
    0.8415   21.6560   35.7337 H   0  0  0  0  0  0  0  0  0  0  0  0
    2.6074   22.4742   36.6969 H   0  0  0  0  0  0  0  0  0  0  0  0
    1.8625   11.7236   34.4664 H   0  0  0  0  0  0  0  0  0  0  0  0
   -0.4402   17.5536   42.7783 H   0  0  0  0  0  0  0  0  0  0  0  0
   -1.4263   17.5088   41.2776 H   0  0  0  0  0  0  0  0  0  0  0  0
    0.3203   17.0934   41.2173 H   0  0  0  0  0  0  0  0  0  0  0  0
    3.4444   15.4402   37.3207 H   0  0  0  0  0  0  0  0  0  0  0  0
   -0.4040   19.7699   43.5708 H   0  0  0  0  0  0  0  0  0  0  0  0
   -0.1313   21.1703   42.4794 H   0  0  0  0  0  0  0  0  0  0  0  0
   -1.7173   20.3270   42.4792 H   0  0  0  0  0  0  0  0  0  0  0  0
    5.0055   25.7985   33.8688 H   0  0  0  0  0  0  0  0  0  0  0  0
    5.5094   24.5279   34.6243 H   0  0  0  0  0  0  0  0  0  0  0  0
   -0.1409   21.2207   38.2922 H   0  0  0  0  0  0  0  0  0  0  0  0
    1.1413   22.5984   38.6183 H   0  0  0  0  0  0  0  0  0  0  0  0
    0.7857   20.7264   36.8147 H   0  0  0  0  0  0  0  0  0  0  0  0
    3.2233   10.3410   36.4467 H   0  0  0  0  0  0  0  0  0  0  0  0
    1.9977   25.6908   35.0954 H   0  0  0  0  0  0  0  0  0  0  0  0
    1.1159   18.6135   39.6059 H   0  0  0  0  0  0  0  0  0  0  0  0
    4.0730   17.6703   38.3268 H   0  0  0  0  0  0  0  0  0  0  0  0
    2.6884   17.8545   36.9643 H   0  0  0  0  0  0  0  0  0  0  0  0
    0.8399   27.9474   34.9705 H   0  0  0  0  0  0  0  0  0  0  0  0
    1.6489   18.9255   39.1160 H   0  0  0  0  0  0  0  0  0  0  0  0
    3.3147   19.5103   39.1821 H   0  0  0  0  0  0  0  0  0  0  0  0
   -0.1619   27.1411   30.5138 H   0  0  0  0  0  0  0  0  0  0  0  0
   -0.6004   28.7804   29.9247 H   0  0  0  0  0  0  0  0  0  0  0  0
    1.1082   28.2297   29.8592 H   0  0  0  0  0  0  0  0  0  0  0  0
    1.2617   26.9912   30.4422 H   0  0  0  0  0  0  0  0  0  0  0  0
    2.3205   21.0460   40.0216 H   0  0  0  0  0  0  0  0  0  0  0  0
    0.6414   21.6093   40.5886 H   0  0  0  0  0  0  0  0  0  0  0  0
    1.1949   14.6879   34.1557 H   0  0  0  0  0  0  0  0  0  0  0  0
    5.0200   23.1107   32.2456 H   0  0  0  0  0  0  0  0  0  0  0  0
    4.7717   24.4094   31.4272 H   0  0  0  0  0  0  0  0  0  0  0  0
    1.4660   16.6503   38.6245 H   0  0  0  0  0  0  0  0  0  0  0  0
    3.2867   16.0539   38.8936 H   0  0  0  0  0  0  0  0  0  0  0  0
    1.0889   29.6475   31.8696 H   0  0  0  0  0  0  0  0  0  0  0  0
   -0.4895   29.1463   32.3931 H   0  0  0  0  0  0  0  0  0  0  0  0
    1.6859   19.1954   36.7340 H   0  0  0  0  0  0  0  0  0  0  0  0
    3.3520   20.1472   37.1776 H   0  0  0  0  0  0  0  0  0  0  0  0
  1 10  1  0
  2  9  1  0
  2 11  1  0
  3  5  2  0
  4 22  1  0
  5  7  1  0
  5 17  1  0
  7 12  1  0
  7 23  1  0
  8 15  1  0
  8 16  2  0
 10 21  1  0
 10 30  1  0
 13 27  1  0
 14  6  1  0
 14 32  1  0
 14 13  1  0
 15 21  2  0
 16 18  1  0
 19  2  2  3
 20 30  1  0
 20 24  1  0
 21 18  1  0
 22 17  2  0
 23 33  3  0
 25 31  1  0
 26  3  1  0
 26  4  2  0
 27 19  1  0
 28 15  1  0
 28  1  1  0
 29  7  1  0
 29 12  1  0
 31  4  1  0
 32 24  1  0
 33  6  1  0
  1 34  1  0
  1 35  1  0
  3 36  1  0
  6 37  1  0
  6 38  1  0
  8 39  1  0
  9 40  1  0
  9 41  1  0
  9 42  1  0
 10 43  1  6
 11 44  1  0
 11 45  1  0
 11 46  1  0
 12 47  1  0
 12 48  1  0
 13 49  1  0
 13 50  1  0
 14 51  1  6
 16 52  1  0
 17 53  1  0
 19 54  1  0
 20 55  1  0
 20 56  1  0
 22 57  1  0
 24 58  1  0
 24 59  1  0
 25 60  1  0
 25 61  1  0
 25 62  1  0
 26 63  1  0
 27 64  1  0
 27 65  1  0
 28 66  1  0
 29 67  1  0
 29 68  1  0
 30 69  1  0
 30 70  1  0
 31 71  1  0
 31 72  1  0
 32 73  1  0
 32 74  1  0
M  END
>  <mol_id>  (45) 
2026-09-18-3war-s0-n100-0045

>  <rmsd_to_ref>  (45) 


$$$$

     RDKit          3D

 74 77  0  0  0  0  0  0  0  0999 V2000
    0.8028   29.2622   32.8289 C   0  0  0  0  0  0  0  0  0  0  0  0
    2.9897   17.1953   38.8954 C   0  0  0  0  0  0  0  0  0  0  0  0
    3.3410   13.9220   36.0768 C   0  0  0  0  0  0  0  0  0  0  0  0
    1.2217   16.0820   42.1692 C   0  0  0  0  0  0  0  0  0  0  0  0
   -0.1591   18.2072   42.9289 C   0  0  0  0  0  0  0  0  0  0  0  0
    4.2886   25.7504   31.7175 C   0  0  0  0  0  0  0  0  0  0  0  0
    0.1489   26.4055   29.4018 C   0  0  0  0  0  0  0  0  0  0  0  0
    2.7912   23.7826   33.3681 C   0  0  2  0  0  0  0  0  0  0  0  0
    1.4799   20.9925   39.4121 C   0  0  0  0  0  0  0  0  0  0  0  0
    5.4625   15.6893   38.3491 O   0  0  0  0  0  0  0  0  0  0  0  0
    1.9185   21.4267   38.0912 C   0  0  0  0  0  0  0  0  0  0  0  0
    3.8952   22.8153   33.4558 O   0  0  0  0  0  0  0  0  0  0  0  0
    2.9492   25.1956   31.1544 C   0  0  0  0  0  0  0  0  0  0  0  0
    3.1494   16.4032   37.7098 C   0  0  0  0  0  0  0  0  0  0  0  0
    1.9148   24.0099   34.5679 C   0  0  0  0  0  0  0  0  0  0  0  0
    2.6364   18.6718   38.7409 C   0  0  0  0  0  0  0  0  0  0  0  0
   -0.0117   28.6691   31.8014 C   0  0  0  0  0  0  0  0  0  0  0  0
    1.8896   22.9019   35.6899 S   0  0  0  0  0  4  0  0  0  0  0  0
    2.2394   27.6960   31.2007 C   0  0  0  0  0  0  0  0  0  0  0  0
    1.2953   25.9873   29.6788 O   0  0  0  0  0  0  0  0  0  0  0  0
    3.0197   19.3343   37.5704 C   0  0  0  0  0  0  0  0  0  0  0  0
    1.1166   28.5177   31.7779 C   0  0  0  0  0  0  0  0  0  0  0  0
    1.8535   26.2273   31.0006 C   0  0  1  0  0  0  0  0  0  0  0  0
    2.0250   19.3331   39.7885 C   0  0  0  0  0  0  0  0  0  0  0  0
    0.4723   19.1507   42.0229 C   0  0  0  0  0  0  0  0  0  0  0  0
    1.4229   18.6085   40.9944 C   0  0  0  0  0  0  0  0  0  0  0  0
    2.3865   24.1368   31.9528 C   0  0  0  0  0  0  0  0  0  0  0  0
    2.7127   20.5851   37.2521 C   0  0  0  0  0  0  0  0  0  0  0  0
    0.1470   16.7090   43.0456 C   0  0  0  0  0  0  0  0  0  0  0  0
    2.8665   16.6251   40.2550 O   0  0  0  0  0  0  0  0  0  0  0  0
    1.8957   17.1789   41.1979 C   0  0  2  0  0  0  0  0  0  0  0  0
    4.1890   15.3361   37.9099 C   0  0  0  0  0  0  0  0  0  0  0  0
    3.3431   24.5550   29.8438 C   0  0  0  0  0  0  0  0  0  0  0  0
    1.3966   22.7308   37.4973 C   0  0  0  0  0  0  0  0  0  0  0  0
    4.0955   13.9941   37.2008 N   0  0  0  0  0  0  0  0  0  0  0  0
    1.0067   30.3428   32.8549 H   0  0  0  0  0  0  0  0  0  0  0  0
    0.9092   29.2558   33.9238 H   0  0  0  0  0  0  0  0  0  0  0  0
    2.2757   13.9726   36.3463 H   0  0  0  0  0  0  0  0  0  0  0  0
    3.5915   14.7623   35.4126 H   0  0  0  0  0  0  0  0  0  0  0  0
    3.5436   12.9727   35.5595 H   0  0  0  0  0  0  0  0  0  0  0  0
    1.5024   15.0187   42.1948 H   0  0  0  0  0  0  0  0  0  0  0  0
   -0.9346   18.6074   43.5985 H   0  0  0  0  0  0  0  0  0  0  0  0
    4.2077   25.8660   32.8084 H   0  0  0  0  0  0  0  0  0  0  0  0
    5.1033   25.0498   31.4824 H   0  0  0  0  0  0  0  0  0  0  0  0
    4.5019   26.7277   31.2600 H   0  0  0  0  0  0  0  0  0  0  0  0
   -0.3901   26.6409   30.3313 H   0  0  0  0  0  0  0  0  0  0  0  0
    0.2286   27.3123   28.7844 H   0  0  0  0  0  0  0  0  0  0  0  0
   -0.3996   25.6307   28.8461 H   0  0  0  0  0  0  0  0  0  0  0  0
    3.1559   24.7814   33.6498 H   0  0  0  0  0  0  0  0  0  0  0  0
    0.8834   21.6136   40.0966 H   0  0  0  0  0  0  0  0  0  0  0  0
    4.0877   22.6196   34.4070 H   0  0  0  0  0  0  0  0  0  0  0  0
    2.1888   15.9276   37.4630 H   0  0  0  0  0  0  0  0  0  0  0  0
    3.4759   17.0609   36.8907 H   0  0  0  0  0  0  0  0  0  0  0  0
    1.3084   24.9229   34.6608 H   0  0  0  0  0  0  0  0  0  0  0  0
   -0.6734   27.8248   32.0451 H   0  0  0  0  0  0  0  0  0  0  0  0
   -0.7570   29.0500   31.0877 H   0  0  0  0  0  0  0  0  0  0  0  0
    1.1307   21.9255   35.1003 H   0  0  0  0  0  0  0  0  0  0  0  0
    2.5224   28.1215   30.2266 H   0  0  0  0  0  0  0  0  0  0  0  0
    3.0751   27.7261   31.9153 H   0  0  0  0  0  0  0  0  0  0  0  0
    3.6293   18.7686   36.8505 H   0  0  0  0  0  0  0  0  0  0  0  0
    1.9164   28.2704   31.0643 H   0  0  0  0  0  0  0  0  0  0  0  0
    1.1341   26.0913   31.8216 H   0  0  0  0  0  0  0  0  0  0  0  0
    0.2610   20.2282   42.0880 H   0  0  0  0  0  0  0  0  0  0  0  0
    1.3099   24.3560   32.0062 H   0  0  0  0  0  0  0  0  0  0  0  0
    2.7869   23.2632   31.4174 H   0  0  0  0  0  0  0  0  0  0  0  0
    3.0856   20.9924   36.3007 H   0  0  0  0  0  0  0  0  0  0  0  0
   -0.4100   16.0877   43.7625 H   0  0  0  0  0  0  0  0  0  0  0  0
    2.2187   17.7635   42.0719 H   0  0  0  0  0  0  0  0  0  0  0  0
    3.7478   23.5501   30.0340 H   0  0  0  0  0  0  0  0  0  0  0  0
    2.4594   24.4774   29.1934 H   0  0  0  0  0  0  0  0  0  0  0  0
    4.1087   25.1713   29.3500 H   0  0  0  0  0  0  0  0  0  0  0  0
    1.8144   23.5757   38.0645 H   0  0  0  0  0  0  0  0  0  0  0  0
    0.2985   22.7265   37.5594 H   0  0  0  0  0  0  0  0  0  0  0  0
    4.5897   13.1662   37.5630 H   0  0  0  0  0  0  0  0  0  0  0  0
  2 16  2  0
  2 30  1  0
  3 35  1  0
  4 29  2  0
  7 20  1  0
  8 12  1  0
  8 15  1  0
  9 24  1  0
 11  9  2  0
 13 23  1  0
 13  6  1  0
 13 27  1  0
 14  2  1  0
 15 18  2  3
 16 24  1  0
 17  1  1  0
 18 34  1  0
 19 22  1  0
 20 23  1  0
 21 16  1  0
 22 17  1  0
 22  1  1  0
 23 19  1  0
 24 26  2  0
 25  5  2  0
 26 31  1  0
 26 25  1  0
 27  8  1  0
 28 21  2  0
 28 11  1  0
 29  5  1  0
 30 31  1  0
 31  4  1  0
 32 14  1  0
 32 10  2  0
 33 13  1  0
 34 11  1  0
 35 32  1  0
  1 36  1  0
  1 37  1  0
  3 38  1  0
  3 39  1  0
  3 40  1  0
  4 41  1  0
  5 42  1  0
  6 43  1  0
  6 44  1  0
  6 45  1  0
  7 46  1  0
  7 47  1  0
  7 48  1  0
  8 49  1  1
  9 50  1  0
 12 51  1  0
 14 52  1  0
 14 53  1  0
 15 54  1  0
 17 55  1  0
 17 56  1  0
 18 57  1  6
 19 58  1  0
 19 59  1  0
 21 60  1  0
 22 61  1  0
 23 62  1  1
 25 63  1  0
 27 64  1  0
 27 65  1  0
 28 66  1  0
 29 67  1  0
 31 68  1  1
 33 69  1  0
 33 70  1  0
 33 71  1  0
 34 72  1  0
 34 73  1  0
 35 74  1  0
M  END
>  <mol_id>  (46) 
2026-09-18-3war-s0-n100-0046

>  <rmsd_to_ref>  (46) 


$$$$

     RDKit          3D

 47 49  0  0  0  0  0  0  0  0999 V2000
    2.9710   16.4310   39.8180 N   0  0  0  0  0  0  0  0  0  0  0  0
    3.5510   20.9450   34.9160 C   0  0  0  0  0  0  0  0  0  0  0  0
    1.2640   18.0320   41.0890 C   0  0  0  0  0  0  0  0  0  0  0  0
    2.5880   22.0750   34.5420 C   0  0  2  0  0  0  0  0  0  0  0  0
    0.7340   26.8810   31.4480 C   0  0  0  0  0  0  0  0  0  0  0  0
    1.3790   20.5110   40.5160 C   0  0  0  0  0  0  0  0  0  0  0  0
    2.4340   20.2370   39.6160 C   0  0  0  0  0  0  0  0  0  0  0  0
    2.0480   14.5780   41.4700 O   0  0  0  0  0  0  0  0  0  0  0  0
    3.0200   20.9830   38.4910 C   0  0  0  0  0  0  0  0  0  0  0  0
    1.3060   26.9660   30.2490 C   0  0  0  0  0  0  0  0  0  0  0  0
    1.6710   15.5790   40.4430 S   0  0  0  0  0  6  0  0  0  0  0  0
    3.2250   22.7400   32.9080 S   0  0  0  0  0  0  0  0  0  0  0  0
    1.2680   26.1580   32.4850 C   0  0  0  0  0  0  0  0  0  0  0  0
    0.7390   16.6700   41.3490 N   0  0  0  0  0  0  0  0  0  0  0  0
    2.4160   17.8940   40.3720 C   0  0  0  0  0  0  0  0  0  0  0  0
    2.1710   20.8100   37.2610 C   0  0  0  0  0  0  0  0  0  0  0  0
    2.5560   26.3330   30.0060 C   0  0  0  0  0  0  0  0  0  0  0  0
    3.0770   25.4890   30.9780 C   0  0  0  0  0  0  0  0  0  0  0  0
    3.0600   18.9500   39.6870 C   0  0  0  0  0  0  0  0  0  0  0  0
    4.0410   20.1690   33.8350 C   0  0  0  0  0  0  0  0  0  0  0  0
    1.8190   23.8720   34.6200 S   0  0  0  0  0  0  0  0  0  0  0  0
    2.4840   25.3760   32.3120 C   0  0  0  0  0  0  0  0  0  0  0  0
    2.6460   24.3590   33.1900 C   0  0  2  0  0  0  0  0  0  0  0  0
    0.7710   15.0800   39.3570 O   0  0  0  0  0  0  0  0  0  0  0  0
    0.8010   19.4140   41.2990 C   0  0  0  0  0  0  0  0  0  0  0  0
    3.8070   16.1503   39.2858 H   0  0  0  0  0  0  0  0  0  0  0  0
    4.4149   21.3935   35.4284 H   0  0  0  0  0  0  0  0  0  0  0  0
    2.9698   20.2520   35.5421 H   0  0  0  0  0  0  0  0  0  0  0  0
    1.9426   21.4749   35.2003 H   0  0  0  0  0  0  0  0  0  0  0  0
   -0.2123   27.4161   31.6156 H   0  0  0  0  0  0  0  0  0  0  0  0
    0.9957   21.5360   40.6278 H   0  0  0  0  0  0  0  0  0  0  0  0
    3.0727   22.0508   38.7500 H   0  0  0  0  0  0  0  0  0  0  0  0
    4.0304   20.5977   38.2895 H   0  0  0  0  0  0  0  0  0  0  0  0
    0.8102   27.5277   29.4436 H   0  0  0  0  0  0  0  0  0  0  0  0
    0.7682   26.1695   33.4649 H   0  0  0  0  0  0  0  0  0  0  0  0
   -0.0487   16.4296   41.9675 H   0  0  0  0  0  0  0  0  0  0  0  0
    1.1333   20.5986   37.5585 H   0  0  0  0  0  0  0  0  0  0  0  0
    2.2002   21.7325   36.6626 H   0  0  0  0  0  0  0  0  0  0  0  0
    2.5588   19.9724   36.6626 H   0  0  0  0  0  0  0  0  0  0  0  0
    3.0998   26.5085   29.0661 H   0  0  0  0  0  0  0  0  0  0  0  0
    3.9646   24.8853   30.7378 H   0  0  0  0  0  0  0  0  0  0  0  0
    4.0375   18.7843   39.2106 H   0  0  0  0  0  0  0  0  0  0  0  0
    4.5898   19.2999   34.2267 H   0  0  0  0  0  0  0  0  0  0  0  0
    3.1972   19.8231   33.2199 H   0  0  0  0  0  0  0  0  0  0  0  0
    4.7161   20.7821   33.2199 H   0  0  0  0  0  0  0  0  0  0  0  0
    3.1983   25.3094   33.1493 H   0  0  0  0  0  0  0  0  0  0  0  0
    0.0200   19.6239   42.0447 H   0  0  0  0  0  0  0  0  0  0  0  0
  1 15  1  0
  1 11  1  0
  3 25  1  0
  3 14  1  0
  4 21  1  0
  4  2  1  0
  5 13  1  0
  6 25  2  0
  7 19  2  0
  7  6  1  0
  9  7  1  0
 10  5  2  0
 11 14  1  0
 11  8  2  0
 12 23  1  0
 12  4  1  0
 15  3  2  0
 16  9  1  0
 17 10  1  0
 17 18  2  0
 18 22  1  0
 19 15  1  0
 20  2  1  0
 22 13  2  0
 23 22  1  0
 23 21  1  0
 24 11  2  0
  1 26  1  0
  2 27  1  0
  2 28  1  0
  4 29  1  6
  5 30  1  0
  6 31  1  0
  9 32  1  0
  9 33  1  0
 10 34  1  0
 13 35  1  0
 14 36  1  0
 16 37  1  0
 16 38  1  0
 16 39  1  0
 17 40  1  0
 18 41  1  0
 19 42  1  0
 20 43  1  0
 20 44  1  0
 20 45  1  0
 23 46  1  1
 25 47  1  0
M  END
>  <mol_id>  (47) 
2026-09-18-3war-s0-n100-0047

>  <rmsd_to_ref>  (47) 


$$$$

     RDKit          3D

 67 73  0  0  0  0  0  0  0  0999 V2000
   -0.4420   20.2730   42.7120 C   0  0  0  0  0  0  0  0  0  0  0  0
    1.8590   24.6750   30.4770 N   0  0  0  0  0  0  0  0  0  0  0  0
    1.6420   16.9190   41.1360 C   0  0  2  0  0  0  0  0  0  0  0  0
    0.6410   25.7750   28.5370 C   0  0  0  0  0  0  0  0  0  0  0  0
    1.9900   21.2720   37.9670 C   0  0  0  0  0  0  0  0  0  0  0  0
    3.4510   23.0370   32.6570 C   0  0  2  0  0  0  0  0  0  0  0  0
    3.8730   23.8950   30.1800 N   0  0  0  0  0  0  0  0  0  0  0  0
    2.9710   16.2060   39.1940 C   0  0  1  0  0  0  0  0  0  0  0  0
    0.9030   18.0800   41.5810 C   0  0  0  0  0  0  0  0  0  0  0  0
    0.5520   26.5160   31.0610 C   0  0  0  0  0  0  0  0  0  0  0  0
    1.9650   19.6310   39.7910 C   0  0  0  0  0  0  0  0  0  0  0  0
    3.0270   18.8500   39.1420 C   0  0  1  0  0  0  0  0  0  0  0  0
    2.7820   24.3710   29.6220 C   0  0  0  0  0  0  0  0  0  0  0  0
    2.6730   16.8060   40.2660 N   0  0  0  0  0  0  0  0  0  0  0  0
    0.5060   20.4230   41.6580 C   0  0  0  0  0  0  0  0  0  0  0  0
    1.0160   19.3130   41.0560 C   0  0  0  0  0  0  0  0  0  0  0  0
    3.0080   20.4840   37.2520 C   0  0  0  0  0  0  0  0  0  0  0  0
    3.4340   20.8950   35.9580 C   0  0  0  0  0  0  0  0  0  0  0  0
    1.3750   24.9350   27.5630 C   0  0  0  0  0  0  0  0  0  0  0  0
    3.7870   24.1030   32.6950 C   0  0  0  0  0  0  0  0  0  0  0  0
    4.6670   19.1250   37.5680 O   0  0  0  0  0  0  0  0  0  0  0  0
    1.5350   20.7660   39.1660 C   0  0  0  0  0  0  0  0  0  0  0  0
    2.9880   21.9320   35.0670 C   0  0  0  0  0  0  0  0  0  0  0  0
    3.8820   24.1220   27.1890 S   0  0  0  0  0  0  0  0  0  0  0  0
    1.3850   15.2240   40.7160 C   0  0  0  0  0  0  0  0  0  0  0  0
    3.9090   21.9830   33.7660 C   0  0  0  0  0  0  0  0  0  0  0  0
    3.5970   19.5260   38.0450 C   0  0  0  0  0  0  0  0  0  0  0  0
    3.5500   17.5470   39.5740 C   0  0  1  0  0  0  0  0  0  0  0  0
    2.6030   24.4580   28.2230 C   0  0  0  0  0  0  0  0  0  0  0  0
    3.7580   23.9370   31.4930 C   0  0  2  0  0  0  0  0  0  0  0  0
    2.4780   15.0680   39.8630 N   0  0  0  0  0  0  0  0  0  0  0  0
   -0.1450   17.9290   42.6270 C   0  0  0  0  0  0  0  0  0  0  0  0
    0.8120   25.4540   30.0170 C   0  0  2  0  0  0  0  0  0  0  0  0
   -0.7710   19.0330   43.1050 C   0  0  0  0  0  0  0  0  0  0  0  0
   -0.8935   21.1537   43.1921 H   0  0  0  0  0  0  0  0  0  0  0  0
    1.4587   17.3397   42.1357 H   0  0  0  0  0  0  0  0  0  0  0  0
   -0.4305   25.6892   28.3035 H   0  0  0  0  0  0  0  0  0  0  0  0
    1.0713   26.7804   28.4182 H   0  0  0  0  0  0  0  0  0  0  0  0
    1.1217   21.3758   37.2997 H   0  0  0  0  0  0  0  0  0  0  0  0
    2.4905   22.2164   38.2271 H   0  0  0  0  0  0  0  0  0  0  0  0
    2.7215   22.2148   32.6994 H   0  0  0  0  0  0  0  0  0  0  0  0
    4.6944   23.5422   29.6684 H   0  0  0  0  0  0  0  0  0  0  0  0
    3.1031   15.8426   38.1642 H   0  0  0  0  0  0  0  0  0  0  0  0
    0.6593   26.0779   32.0643 H   0  0  0  0  0  0  0  0  0  0  0  0
    1.2762   27.3350   30.9392 H   0  0  0  0  0  0  0  0  0  0  0  0
   -0.4686   26.9078   30.9392 H   0  0  0  0  0  0  0  0  0  0  0  0
    2.3241   18.3432   38.4645 H   0  0  0  0  0  0  0  0  0  0  0  0
    0.8225   21.4255   41.3341 H   0  0  0  0  0  0  0  0  0  0  0  0
    4.2706   20.3017   35.5602 H   0  0  0  0  0  0  0  0  0  0  0  0
    1.6334   25.5297   26.6744 H   0  0  0  0  0  0  0  0  0  0  0  0
    0.7548   24.0857   27.2404 H   0  0  0  0  0  0  0  0  0  0  0  0
    3.0653   24.8258   33.1033 H   0  0  0  0  0  0  0  0  0  0  0  0
    4.6463   24.4824   33.2674 H   0  0  0  0  0  0  0  0  0  0  0  0
    0.7424   21.3366   39.6721 H   0  0  0  0  0  0  0  0  0  0  0  0
    1.9490   21.7302   34.7676 H   0  0  0  0  0  0  0  0  0  0  0  0
    3.0512   22.8996   35.5864 H   0  0  0  0  0  0  0  0  0  0  0  0
    1.4438   14.5636   41.5937 H   0  0  0  0  0  0  0  0  0  0  0  0
    0.4013   14.9755   40.2909 H   0  0  0  0  0  0  0  0  0  0  0  0
    3.9081   20.9830   33.3077 H   0  0  0  0  0  0  0  0  0  0  0  0
    4.9040   22.3063   34.1057 H   0  0  0  0  0  0  0  0  0  0  0  0
    4.5720   17.9534   39.5957 H   0  0  0  0  0  0  0  0  0  0  0  0
    2.6880   24.1711   31.3918 H   0  0  0  0  0  0  0  0  0  0  0  0
    2.2071   14.3840   39.1421 H   0  0  0  0  0  0  0  0  0  0  0  0
    3.2483   14.7857   40.4858 H   0  0  0  0  0  0  0  0  0  0  0  0
   -0.4092   16.9317   43.0086 H   0  0  0  0  0  0  0  0  0  0  0  0
   -0.0683   24.8016   29.9203 H   0  0  0  0  0  0  0  0  0  0  0  0
   -1.5780   18.9073   43.8419 H   0  0  0  0  0  0  0  0  0  0  0  0
  1 34  2  0
  3 25  1  0
  3  9  1  0
  4 33  1  0
  5 22  1  0
  6 20  1  0
  6 26  1  0
  7 30  1  0
  8 28  1  0
  8 31  1  0
  8 14  1  0
  9 32  2  0
 11 16  1  0
 12 27  1  0
 12 28  1  0
 12 11  1  0
 13  7  1  0
 13  2  2  0
 14  3  1  0
 15  1  1  0
 16  9  1  0
 16 15  2  0
 17  5  1  0
 17 27  1  0
 18 17  2  3
 19 29  1  0
 19  4  1  0
 21 27  2  0
 22 11  2  0
 23 18  1  0
 24 29  2  0
 26 23  1  0
 28 14  1  0
 29 13  1  0
 30  6  1  0
 30 20  1  0
 31 25  1  0
 32 34  1  0
 33  2  1  0
 33 10  1  0
  1 35  1  0
  3 36  1  1
  4 37  1  0
  4 38  1  0
  5 39  1  0
  5 40  1  0
  6 41  1  6
  7 42  1  0
  8 43  1  6
 10 44  1  0
 10 45  1  0
 10 46  1  0
 12 47  1  6
 15 48  1  0
 18 49  1  0
 19 50  1  0
 19 51  1  0
 20 52  1  0
 20 53  1  0
 22 54  1  0
 23 55  1  0
 23 56  1  0
 25 57  1  0
 25 58  1  0
 26 59  1  0
 26 60  1  0
 28 61  1  1
 30 62  1  6
 31 63  1  0
 31 64  1  0
 32 65  1  0
 33 66  1  1
 34 67  1  0
M  CHG  1  31   1
M  END
>  <mol_id>  (48) 
2026-09-18-3war-s0-n100-0048

>  <rmsd_to_ref>  (48) 


$$$$

     RDKit          3D

 55 57  0  0  0  0  0  0  0  0999 V2000
    0.8460   21.1130   40.2600 N   0  0  0  0  0  0  0  0  0  0  0  0
    2.1640   21.4030   35.8660 C   0  0  0  0  0  0  0  0  0  0  0  0
    0.5860   21.4480   41.6550 C   0  0  0  0  0  0  0  0  0  0  0  0
    3.6570   23.0020   32.6140 O   0  0  0  0  0  0  0  0  0  0  0  0
    3.3300   20.2050   36.3460 C   0  0  0  0  0  0  0  0  0  0  0  0
    4.8720   19.3480   39.4560 C   0  0  0  0  0  0  0  0  0  0  0  0
    2.2620   23.2730   33.0720 C   0  0  1  0  0  0  0  0  0  0  0  0
    2.8480   15.5840   38.7980 C   0  0  0  0  0  0  0  0  0  0  0  0
    1.9150   20.5270   39.8280 C   0  0  0  0  0  0  0  0  0  0  0  0
    1.7980   22.6840   34.1520 C   0  0  0  0  0  0  0  0  0  0  0  0
    3.2320   19.9830   37.7460 C   0  0  0  0  0  0  0  0  0  0  0  0
    3.2870   17.7290   38.3070 C   0  0  0  0  0  0  0  0  0  0  0  0
    1.0970   24.2350   32.5430 C   0  0  1  0  0  0  0  0  0  0  0  0
    3.1270   16.8140   39.5070 C   0  0  0  0  0  0  0  0  0  0  0  0
    1.2400   25.6750   31.5410 C   0  0  1  0  0  0  0  0  0  0  0  0
    2.4110   25.3790   30.6120 C   0  0  0  0  0  0  0  0  0  0  0  0
    3.8860   19.0330   38.4550 N   0  0  0  0  0  0  0  0  0  0  0  0
    2.3920   21.6950   34.5680 C   0  0  0  0  0  0  0  0  0  0  0  0
    1.5490   24.2200   30.8460 C   0  0  1  0  0  0  0  0  0  0  0  0
    2.1670   15.8840   37.4490 C   0  0  0  0  0  0  0  0  0  0  0  0
    2.4930   19.7500   40.6550 O   0  0  0  0  0  0  0  0  0  0  0  0
    2.3920   17.3690   37.1220 C   0  0  0  0  0  0  0  0  0  0  0  0
    2.0950   20.6710   38.3730 C   0  0  0  0  0  0  0  0  0  0  0  0
    0.1252   21.3613   39.5675 H   0  0  0  0  0  0  0  0  0  0  0  0
    1.1455   21.0057   35.9881 H   0  0  0  0  0  0  0  0  0  0  0  0
    2.2577   22.3054   36.4880 H   0  0  0  0  0  0  0  0  0  0  0  0
    1.1290   20.7484   42.3074 H   0  0  0  0  0  0  0  0  0  0  0  0
    0.9259   22.4749   41.8550 H   0  0  0  0  0  0  0  0  0  0  0  0
   -0.4931   21.3735   41.8550 H   0  0  0  0  0  0  0  0  0  0  0  0
    4.2464   22.8875   33.4012 H   0  0  0  0  0  0  0  0  0  0  0  0
    3.1312   19.2647   35.8108 H   0  0  0  0  0  0  0  0  0  0  0  0
    4.3421   20.5595   36.1009 H   0  0  0  0  0  0  0  0  0  0  0  0
    4.4363   19.2088   40.4564 H   0  0  0  0  0  0  0  0  0  0  0  0
    5.7398   18.6824   39.3381 H   0  0  0  0  0  0  0  0  0  0  0  0
    5.1931   20.3935   39.3381 H   0  0  0  0  0  0  0  0  0  0  0  0
    1.8980   22.4354   32.4588 H   0  0  0  0  0  0  0  0  0  0  0  0
    3.7915   15.0483   38.6165 H   0  0  0  0  0  0  0  0  0  0  0  0
    2.1735   14.9656   39.4084 H   0  0  0  0  0  0  0  0  0  0  0  0
    1.8011   23.4312   34.9592 H   0  0  0  0  0  0  0  0  0  0  0  0
    0.8084   22.3061   33.8556 H   0  0  0  0  0  0  0  0  0  0  0  0
    4.2754   17.4949   37.8849 H   0  0  0  0  0  0  0  0  0  0  0  0
    0.3741   24.0936   33.3599 H   0  0  0  0  0  0  0  0  0  0  0  0
    2.2910   17.1194   40.1534 H   0  0  0  0  0  0  0  0  0  0  0  0
    3.9781   16.7834   40.2032 H   0  0  0  0  0  0  0  0  0  0  0  0
    0.7903   26.6502   31.7792 H   0  0  0  0  0  0  0  0  0  0  0  0
    2.4241   25.8373   29.6121 H   0  0  0  0  0  0  0  0  0  0  0  0
    3.4955   25.5250   30.7243 H   0  0  0  0  0  0  0  0  0  0  0  0
    2.0824   20.8301   33.9630 H   0  0  0  0  0  0  0  0  0  0  0  0
    3.4655   21.9203   34.4849 H   0  0  0  0  0  0  0  0  0  0  0  0
    1.4735   23.3332   30.1995 H   0  0  0  0  0  0  0  0  0  0  0  0
    2.6089   15.2572   36.6604 H   0  0  0  0  0  0  0  0  0  0  0  0
    1.0906   15.6649   37.5077 H   0  0  0  0  0  0  0  0  0  0  0  0
    2.9042   17.5082   36.1585 H   0  0  0  0  0  0  0  0  0  0  0  0
    1.4819   17.9764   37.0090 H   0  0  0  0  0  0  0  0  0  0  0  0
    1.3987   21.2758   37.7735 H   0  0  0  0  0  0  0  0  0  0  0  0
  1  3  1  0
  2  5  1  0
  5 11  1  0
  7  4  1  0
  7 10  1  0
  8 14  1  0
  9  1  1  0
  9 21  2  0
 10 18  1  0
 11 23  2  3
 11 17  1  0
 12 17  1  0
 12 14  1  0
 13  7  1  0
 15 16  1  0
 15 13  1  0
 17  6  1  0
 18  2  1  0
 19 16  1  0
 19 15  1  0
 19 13  1  0
 20  8  1  0
 22 20  1  0
 22 12  1  0
 23  9  1  0
  1 24  1  0
  2 25  1  0
  2 26  1  0
  3 27  1  0
  3 28  1  0
  3 29  1  0
  4 30  1  0
  5 31  1  0
  5 32  1  0
  6 33  1  0
  6 34  1  0
  6 35  1  0
  7 36  1  6
  8 37  1  0
  8 38  1  0
 10 39  1  0
 10 40  1  0
 12 41  1  0
 13 42  1  6
 14 43  1  0
 14 44  1  0
 15 45  1  6
 16 46  1  0
 16 47  1  0
 18 48  1  0
 18 49  1  0
 19 50  1  6
 20 51  1  0
 20 52  1  0
 22 53  1  0
 22 54  1  0
 23 55  1  0
M  END
>  <mol_id>  (49) 
2026-09-18-3war-s0-n100-0049

>  <rmsd_to_ref>  (49) 


$$$$

     RDKit          3D

 23 22  0  0  0  0  0  0  0  0999 V2000
    4.3941   23.7409   33.4659 C   0  0  0  0  0  0  0  0  0  0  0  0
    3.2902   21.2568   37.2492 C   0  0  0  0  0  0  0  0  0  0  0  0
    1.1614   22.0052   39.7597 O   0  0  0  0  0  0  0  0  0  0  0  0
    3.7003   19.7860   39.2878 F   0  0  0  0  0  0  0  0  0  0  0  0
    2.9550   20.8632   38.7391 C   0  0  2  0  0  0  0  0  0  0  0  0
    3.6371   22.9828   34.5233 C   0  0  0  0  0  0  0  0  0  0  0  0
    4.1192   21.2842   36.2425 C   0  0  0  0  0  0  0  0  0  0  0  0
    1.5175   20.7823   39.1014 C   0  0  0  0  0  0  0  0  0  0  0  0
    2.1471   21.2808   36.7396 O   0  0  0  0  0  0  0  0  0  0  0  0
    4.2794   21.8664   35.1242 N   0  0  0  0  0  0  0  0  0  0  0  0
    2.2457   22.6037   34.0491 C   0  0  0  0  0  0  0  0  0  0  0  0
    5.0617   24.4716   33.9459 H   0  0  0  0  0  0  0  0  0  0  0  0
    4.9907   23.0373   32.8667 H   0  0  0  0  0  0  0  0  0  0  0  0
    3.6831   24.2676   32.8125 H   0  0  0  0  0  0  0  0  0  0  0  0
    1.0645   21.8410   40.7311 H   0  0  0  0  0  0  0  0  0  0  0  0
    3.3256   21.7676   39.2438 H   0  0  0  0  0  0  0  0  0  0  0  0
    3.5840   23.7169   35.3408 H   0  0  0  0  0  0  0  0  0  0  0  0
    4.9433   20.5770   36.4174 H   0  0  0  0  0  0  0  0  0  0  0  0
    0.9095   20.6553   38.1935 H   0  0  0  0  0  0  0  0  0  0  0  0
    1.3362   19.9228   39.7635 H   0  0  0  0  0  0  0  0  0  0  0  0
    1.6107   22.3787   34.9187 H   0  0  0  0  0  0  0  0  0  0  0  0
    1.8102   23.4408   33.4838 H   0  0  0  0  0  0  0  0  0  0  0  0
    2.3081   21.7169   33.4014 H   0  0  0  0  0  0  0  0  0  0  0  0
  1  6  1  0
  2  5  1  0
  5  8  1  0
  5  4  1  0
  6 10  1  0
  7  2  1  0
  8  3  1  0
  9  2  2  0
 10  7  2  3
 11  6  1  0
  1 12  1  0
  1 13  1  0
  1 14  1  0
  3 15  1  0
  5 16  1  1
  6 17  1  0
  7 18  1  0
  8 19  1  0
  8 20  1  0
 11 21  1  0
 11 22  1  0
 11 23  1  0
M  END
>  <mol_id>  (50) 
2026-09-18-3war-s0-n100-0050

>  <rmsd_to_ref>  (50) 


$$$$

     RDKit          3D

 59 62  0  0  0  0  0  0  0  0999 V2000
    2.4118   20.4837   36.9184 C   0  0  2  0  0  0  0  0  0  0  0  0
    2.7706   25.7129   29.2053 F   0  0  0  0  0  0  0  0  0  0  0  0
    1.5756   21.4123   38.0391 O   0  0  0  0  0  0  0  0  0  0  0  0
    1.8631   20.3280   40.4648 C   0  0  0  0  0  0  0  0  0  0  0  0
    2.3148   21.1848   35.8802 C   0  0  0  0  0  0  0  0  0  0  0  0
    1.9253   20.4299   39.0656 C   0  0  0  0  0  0  0  0  0  0  0  0
    4.0887   17.1622   38.1202 Cl  0  0  0  0  0  0  0  0  0  0  0  0
    1.3217   25.7373   32.1216 C   0  0  1  0  0  0  0  0  0  0  0  0
    2.6650   25.3783   30.1747 C   0  0  2  0  0  0  0  0  0  0  0  0
    2.7305   19.5819   38.1690 C   0  0  0  0  0  0  0  0  0  0  0  0
    0.9329   27.9471   31.8918 O   0  0  0  0  0  0  0  0  0  0  0  0
    1.8892   24.1670   33.5059 C   0  0  1  0  0  0  0  0  0  0  0  0
    3.2966   18.4670   40.2070 C   0  0  0  0  0  0  0  0  0  0  0  0
    1.8018   26.6098   32.4709 C   0  0  2  0  0  0  0  0  0  0  0  0
    3.3205   18.5716   38.7671 C   0  0  0  0  0  0  0  0  0  0  0  0
    2.9707   24.1574   34.6282 O   0  0  0  0  0  0  0  0  0  0  0  0
    1.1659   25.8789   30.6175 C   0  0  0  0  0  0  0  0  0  0  0  0
    1.7225   21.4875   34.9081 C   0  0  0  0  0  0  0  0  0  0  0  0
    3.2170   13.6166   39.6586 N   0  0  0  0  0  0  0  0  0  0  0  0
    2.2978   15.6313   37.3642 C   0  0  0  0  0  0  0  0  0  0  0  0
    3.4406   14.8639   37.8425 C   0  0  0  0  0  0  0  0  0  0  0  0
    1.3874   22.6952   34.1653 C   0  0  0  0  0  0  0  0  0  0  0  0
    1.7836   25.6050   33.3537 C   0  0  1  0  0  0  0  0  0  0  0  0
    0.7896   27.7966   33.3774 C   0  0  0  0  0  0  0  0  0  0  0  0
    3.1947   24.0269   32.2341 C   0  0  0  0  0  0  0  0  0  0  0  0
    3.2754   25.0354   31.4311 C   0  0  0  0  0  0  0  0  0  0  0  0
    1.5946   15.1971   36.3379 F   0  0  0  0  0  0  0  0  0  0  0  0
    2.9681   13.5956   38.5851 C   0  0  0  0  0  0  0  0  0  0  0  0
    1.5285   15.8868   38.3062 F   0  0  0  0  0  0  0  0  0  0  0  0
    2.6099   19.3232   41.0280 N   0  0  0  0  0  0  0  0  0  0  0  0
    0.8358   21.1719   41.3367 Cl  0  0  0  0  0  0  0  0  0  0  0  0
    3.3441   21.0042   37.1827 H   0  0  0  0  0  0  0  0  0  0  0  0
    2.3906   22.1792   36.3443 H   0  0  0  0  0  0  0  0  0  0  0  0
    2.7942   20.3741   35.3117 H   0  0  0  0  0  0  0  0  0  0  0  0
    0.6282   24.9269   31.8525 H   0  0  0  0  0  0  0  0  0  0  0  0
    3.3902   24.6441   29.7937 H   0  0  0  0  0  0  0  0  0  0  0  0
    3.8649   17.6492   40.6741 H   0  0  0  0  0  0  0  0  0  0  0  0
    2.5286   24.0991   35.5120 H   0  0  0  0  0  0  0  0  0  0  0  0
    0.3754   25.2261   30.2187 H   0  0  0  0  0  0  0  0  0  0  0  0
    0.8673   26.8747   30.2581 H   0  0  0  0  0  0  0  0  0  0  0  0
    2.2281   20.8841   34.1398 H   0  0  0  0  0  0  0  0  0  0  0  0
    0.7482   21.4566   35.4178 H   0  0  0  0  0  0  0  0  0  0  0  0
    2.3884   13.3485   40.2085 H   0  0  0  0  0  0  0  0  0  0  0  0
    3.9829   12.9539   39.8464 H   0  0  0  0  0  0  0  0  0  0  0  0
    3.5125   14.5669   39.9240 H   0  0  0  0  0  0  0  0  0  0  0  0
    2.7993   16.5165   36.9459 H   0  0  0  0  0  0  0  0  0  0  0  0
    4.0638   14.5701   36.9849 H   0  0  0  0  0  0  0  0  0  0  0  0
    4.0217   15.4874   38.5379 H   0  0  0  0  0  0  0  0  0  0  0  0
    0.5621   23.0607   34.7940 H   0  0  0  0  0  0  0  0  0  0  0  0
    1.6876   22.1907   33.2350 H   0  0  0  0  0  0  0  0  0  0  0  0
    1.9743   25.7070   34.4322 H   0  0  0  0  0  0  0  0  0  0  0  0
    1.2686   28.5235   34.0499 H   0  0  0  0  0  0  0  0  0  0  0  0
   -0.0640   27.7159   34.0665 H   0  0  0  0  0  0  0  0  0  0  0  0
    4.1621   23.9182   32.7463 H   0  0  0  0  0  0  0  0  0  0  0  0
    2.9334   23.1562   31.6147 H   0  0  0  0  0  0  0  0  0  0  0  0
    4.3503   25.0803   31.2015 H   0  0  0  0  0  0  0  0  0  0  0  0
    2.6327   25.6930   32.0348 H   0  0  0  0  0  0  0  0  0  0  0  0
    1.8766   13.5104   38.4780 H   0  0  0  0  0  0  0  0  0  0  0  0
    3.4873   12.7347   38.1389 H   0  0  0  0  0  0  0  0  0  0  0  0
  1  5  1  0
  1  3  1  0
  1 10  1  0
  3  6  1  0
  4 30  1  0
  4 31  1  0
  6  4  2  0
  7 15  1  0
  8 17  1  0
  8 14  1  0
  8 23  1  0
  9  2  1  0
  9 17  1  0
  9 26  1  0
 10 15  2  0
 10  6  1  0
 14 11  1  6
 11 24  1  0
 12 22  1  0
 12 16  1  1
 13 30  2  0
 14 24  1  0
 14 23  1  0
 15 13  1  0
 18  5  1  0
 20 21  1  0
 20 29  1  0
 21 28  1  0
 22 18  1  0
 23 12  1  0
 25 12  1  0
 26 25  1  0
 27 20  1  0
 28 19  1  0
  1 32  1  6
  5 33  1  0
  5 34  1  0
  8 35  1  1
  9 36  1  6
 13 37  1  0
 16 38  1  0
 17 39  1  0
 17 40  1  0
 18 41  1  0
 18 42  1  0
 19 43  1  0
 19 44  1  0
 19 45  1  0
 20 46  1  0
 21 47  1  0
 21 48  1  0
 22 49  1  0
 22 50  1  0
 23 51  1  1
 24 52  1  0
 24 53  1  0
 25 54  1  0
 25 55  1  0
 26 56  1  0
 26 57  1  0
 28 58  1  0
 28 59  1  0
M  CHG  1  19   1
M  END
>  <mol_id>  (51) 
2026-09-18-3war-s0-n100-0051

>  <rmsd_to_ref>  (51) 


$$$$

     RDKit          3D

 63 66  0  0  0  0  0  0  0  0999 V2000
    3.8300   13.6170   37.9790 C   0  0  1  0  0  0  0  0  0  0  0  0
    3.5220   12.4030   37.1880 C   0  0  0  0  0  0  0  0  0  0  0  0
    3.0040   14.7440   37.4700 C   0  0  0  0  0  0  0  0  0  0  0  0
    2.8170   25.6950   30.9140 C   0  0  0  0  0  0  0  0  0  0  0  0
    2.9570   23.3960   34.3690 C   0  0  2  0  0  0  0  0  0  0  0  0
    3.6270   13.5170   39.3050 O   0  0  0  0  0  0  0  0  0  0  0  0
    2.3620   16.0520   39.9500 C   0  0  0  0  0  0  0  0  0  0  0  0
    2.8790   12.8640   35.8510 C   0  0  0  0  0  0  0  0  0  0  0  0
    3.4470   16.8900   37.9350 C   0  0  0  0  0  0  0  0  0  0  0  0
    1.5020   26.5240   30.8190 C   0  0  0  0  0  0  0  0  0  0  0  0
    4.1130   23.9620   32.2640 C   0  0  0  0  0  0  0  0  0  0  0  0
    2.1440   17.2310   40.4180 N   0  0  0  0  0  0  0  0  0  0  0  0
    2.7910   21.4910   35.7940 N   0  0  0  0  0  0  0  0  0  0  0  0
    2.9000   15.8020   38.5090 C   0  0  0  0  0  0  0  0  0  0  0  0
    2.5630   20.4820   37.7890 C   0  0  0  0  0  0  0  0  0  0  0  0
    3.4780   12.2200   39.9020 C   0  0  0  0  0  0  0  0  0  0  0  0
    3.1190   25.1130   32.0670 C   0  0  2  0  0  0  0  0  0  0  0  0
    2.3170   25.4800   33.1640 C   0  0  0  0  0  0  0  0  0  0  0  0
    3.6040   22.9110   33.1000 C   0  0  0  0  0  0  0  0  0  0  0  0
    3.0410   18.1630   38.3690 C   0  0  0  0  0  0  0  0  0  0  0  0
    1.0760   26.3170   29.3500 C   0  0  0  0  0  0  0  0  0  0  0  0
    1.9120   19.6180   39.9750 C   0  0  0  0  0  0  0  0  0  0  0  0
    2.1080   22.4100   35.0930 C   0  0  0  0  0  0  0  0  0  0  0  0
    2.1200   24.6680   34.3170 C   0  0  0  0  0  0  0  0  0  0  0  0
    2.1330   25.4380   28.7090 C   0  0  0  0  0  0  0  0  0  0  0  0
    3.2690   25.1180   29.7090 C   0  0  0  0  0  0  0  0  0  0  0  0
    2.5810   21.3980   36.8960 N   0  0  0  0  0  0  0  0  0  0  0  0
    3.0930   19.2030   37.4640 C   0  0  0  0  0  0  0  0  0  0  0  0
    2.4680   18.3530   39.6640 C   0  0  0  0  0  0  0  0  0  0  0  0
    1.9090   20.5920   38.9250 C   0  0  0  0  0  0  0  0  0  0  0  0
    4.9105   13.7778   37.8496 H   0  0  0  0  0  0  0  0  0  0  0  0
    4.4466   11.8424   36.9859 H   0  0  0  0  0  0  0  0  0  0  0  0
    2.8346   11.7458   37.7408 H   0  0  0  0  0  0  0  0  0  0  0  0
    3.4741   15.1630   36.5681 H   0  0  0  0  0  0  0  0  0  0  0  0
    1.9970   14.3747   37.2259 H   0  0  0  0  0  0  0  0  0  0  0  0
    3.8971   23.6000   34.9024 H   0  0  0  0  0  0  0  0  0  0  0  0
    2.1599   15.1839   40.5946 H   0  0  0  0  0  0  0  0  0  0  0  0
    2.0019   13.4929   36.0636 H   0  0  0  0  0  0  0  0  0  0  0  0
    3.6132   13.4427   35.2714 H   0  0  0  0  0  0  0  0  0  0  0  0
    2.5666   11.9829   35.2714 H   0  0  0  0  0  0  0  0  0  0  0  0
    4.1993   16.7840   37.1395 H   0  0  0  0  0  0  0  0  0  0  0  0
    0.7391   26.1384   31.5114 H   0  0  0  0  0  0  0  0  0  0  0  0
    1.6322   27.5819   31.0909 H   0  0  0  0  0  0  0  0  0  0  0  0
    5.0267   24.3644   32.7258 H   0  0  0  0  0  0  0  0  0  0  0  0
    4.3081   23.5257   31.2732 H   0  0  0  0  0  0  0  0  0  0  0  0
    3.7921   21.7107   35.6914 H   0  0  0  0  0  0  0  0  0  0  0  0
    3.4892   12.3172   40.9976 H   0  0  0  0  0  0  0  0  0  0  0  0
    2.5231   11.7770   39.5829 H   0  0  0  0  0  0  0  0  0  0  0  0
    4.3076   11.5720   39.5829 H   0  0  0  0  0  0  0  0  0  0  0  0
    4.1301   25.4588   31.8059 H   0  0  0  0  0  0  0  0  0  0  0  0
    1.8104   26.4558   33.1283 H   0  0  0  0  0  0  0  0  0  0  0  0
    2.8566   22.3438   32.5258 H   0  0  0  0  0  0  0  0  0  0  0  0
    4.4661   22.2961   33.3978 H   0  0  0  0  0  0  0  0  0  0  0  0
    0.1795   26.7274   28.8624 H   0  0  0  0  0  0  0  0  0  0  0  0
    1.5035   19.8409   40.9717 H   0  0  0  0  0  0  0  0  0  0  0  0
    1.4606   22.9618   35.7905 H   0  0  0  0  0  0  0  0  0  0  0  0
    1.5453   21.8601   34.3243 H   0  0  0  0  0  0  0  0  0  0  0  0
    1.4129   24.9401   35.1145 H   0  0  0  0  0  0  0  0  0  0  0  0
    2.0966   25.0761   27.6709 H   0  0  0  0  0  0  0  0  0  0  0  0
    4.2054   24.5712   29.5244 H   0  0  0  0  0  0  0  0  0  0  0  0
    2.3322   22.3116   37.3013 H   0  0  0  0  0  0  0  0  0  0  0  0
    3.5509   19.0406   36.4771 H   0  0  0  0  0  0  0  0  0  0  0  0
    1.3131   21.5034   39.0807 H   0  0  0  0  0  0  0  0  0  0  0  0
  1  2  1  0
  1  6  1  0
  3  1  1  0
  3 14  1  0
  5 23  1  0
  6 16  1  0
  7 12  2  0
  8  2  1  0
  9 20  1  0
  9 14  2  0
 10  4  1  0
 11 19  1  0
 13 27  1  0
 14  7  1  0
 15 30  2  0
 17  4  1  0
 17 11  1  0
 17 18  1  0
 18 24  2  0
 19  5  1  0
 20 29  1  0
 21 10  1  0
 23 13  1  0
 24  5  1  0
 25 21  2  0
 25 26  1  0
 26  4  2  0
 27 15  1  0
 28 15  1  0
 28 20  2  0
 29 22  2  0
 29 12  1  0
 30 22  1  0
  1 31  1  1
  2 32  1  0
  2 33  1  0
  3 34  1  0
  3 35  1  0
  5 36  1  1
  7 37  1  0
  8 38  1  0
  8 39  1  0
  8 40  1  0
  9 41  1  0
 10 42  1  0
 10 43  1  0
 11 44  1  0
 11 45  1  0
 13 46  1  0
 16 47  1  0
 16 48  1  0
 16 49  1  0
 17 50  1  1
 18 51  1  0
 19 52  1  0
 19 53  1  0
 21 54  1  0
 22 55  1  0
 23 56  1  0
 23 57  1  0
 24 58  1  0
 25 59  1  0
 26 60  1  0
 27 61  1  0
 28 62  1  0
 30 63  1  0
M  END
>  <mol_id>  (52) 
2026-09-18-3war-s0-n100-0052

>  <rmsd_to_ref>  (52) 


$$$$

     RDKit          3D

 50 52  0  0  0  0  0  0  0  0999 V2000
    1.2710   21.1610   39.6660 C   0  0  0  0  0  0  0  0  0  0  0  0
    2.2590   21.8820   35.1080 O   0  0  0  0  0  0  0  0  0  0  0  0
    2.1240   20.5420   38.5980 C   0  0  1  0  0  0  0  0  0  0  0  0
    4.6020   24.4440   32.7610 C   0  0  0  0  0  0  0  0  0  0  0  0
    4.0370   25.2890   31.8500 C   0  0  2  0  0  0  0  0  0  0  0  0
    2.8310   16.4730   39.5660 C   0  0  0  0  0  0  0  0  0  0  0  0
    3.3090   17.0130   38.3550 C   0  0  0  0  0  0  0  0  0  0  0  0
    2.4500   21.4910   37.7520 C   0  0  0  0  0  0  0  0  0  0  0  0
    1.9790   18.5780   40.0490 C   0  0  0  0  0  0  0  0  0  0  0  0
    2.5160   24.5400   33.8260 C   0  0  0  0  0  0  0  0  0  0  0  0
    2.0940   21.1720   40.8360 O   0  0  0  0  0  0  0  0  0  0  0  0
    2.3790   19.0840   38.8390 C   0  0  0  0  0  0  0  0  0  0  0  0
    3.7660   21.5150   36.9430 C   0  0  0  0  0  0  0  0  0  0  0  0
    2.1060   17.2540   40.4400 C   0  0  0  0  0  0  0  0  0  0  0  0
    2.9360   25.9080   31.5030 C   0  0  2  0  0  0  0  0  0  0  0  0
    3.3430   22.1530   35.4740 C   0  0  0  0  0  0  0  0  0  0  0  0
    1.7240   25.7120   33.6340 C   0  0  0  0  0  0  0  0  0  0  0  0
    1.6970   26.2690   32.2000 C   0  0  0  0  0  0  0  0  0  0  0  0
    3.0510   18.3060   38.0760 C   0  0  0  0  0  0  0  0  0  0  0  0
    3.0310   24.7670   30.8520 C   0  0  0  0  0  0  0  0  0  0  0  0
    4.0130   16.0980   37.4390 C   0  0  0  0  0  0  0  0  0  0  0  0
    4.1000   22.8990   34.6290 N   0  0  0  0  0  0  0  0  0  0  0  0
    3.7180   24.0230   33.7780 C   0  0  0  0  0  0  0  0  0  0  0  0
    0.3660   20.5591   39.8354 H   0  0  0  0  0  0  0  0  0  0  0  0
    0.9307   22.1701   39.3903 H   0  0  0  0  0  0  0  0  0  0  0  0
    1.2531   20.2869   37.9763 H   0  0  0  0  0  0  0  0  0  0  0  0
    5.4509   24.9609   33.2325 H   0  0  0  0  0  0  0  0  0  0  0  0
    4.9083   23.5417   32.2115 H   0  0  0  0  0  0  0  0  0  0  0  0
    5.0175   25.7306   32.0818 H   0  0  0  0  0  0  0  0  0  0  0  0
    3.0379   15.4217   39.8151 H   0  0  0  0  0  0  0  0  0  0  0  0
    1.6416   21.5158   37.0064 H   0  0  0  0  0  0  0  0  0  0  0  0
    2.6120   22.3352   38.4383 H   0  0  0  0  0  0  0  0  0  0  0  0
    1.5219   19.2768   40.7650 H   0  0  0  0  0  0  0  0  0  0  0  0
    2.2555   24.3085   34.8693 H   0  0  0  0  0  0  0  0  0  0  0  0
    2.3457   24.2494   32.7788 H   0  0  0  0  0  0  0  0  0  0  0  0
    1.5205   21.1643   41.6429 H   0  0  0  0  0  0  0  0  0  0  0  0
    4.5156   22.1483   37.4399 H   0  0  0  0  0  0  0  0  0  0  0  0
    4.2160   20.5156   36.8494 H   0  0  0  0  0  0  0  0  0  0  0  0
    1.6659   16.8606   41.3682 H   0  0  0  0  0  0  0  0  0  0  0  0
    2.8694   26.9792   31.2620 H   0  0  0  0  0  0  0  0  0  0  0  0
    0.6901   25.4729   33.9236 H   0  0  0  0  0  0  0  0  0  0  0  0
    2.1896   26.4941   34.2517 H   0  0  0  0  0  0  0  0  0  0  0  0
    1.6039   27.3645   32.2355 H   0  0  0  0  0  0  0  0  0  0  0  0
    0.8391   25.8413   31.6605 H   0  0  0  0  0  0  0  0  0  0  0  0
    3.4421   18.7185   37.1342 H   0  0  0  0  0  0  0  0  0  0  0  0
    3.2607   24.7486   29.7764 H   0  0  0  0  0  0  0  0  0  0  0  0
    2.4222   23.8607   30.7175 H   0  0  0  0  0  0  0  0  0  0  0  0
    4.5812   15.3595   38.0235 H   0  0  0  0  0  0  0  0  0  0  0  0
    3.2798   15.5781   36.8049 H   0  0  0  0  0  0  0  0  0  0  0  0
    4.7035   16.6735   36.8049 H   0  0  0  0  0  0  0  0  0  0  0  0
  1 11  1  0
  2 16  2  0
  3  8  1  0
  3 12  1  0
  3  1  1  0
  4 23  1  0
  5 20  1  0
  5  4  1  0
  6 14  2  0
  7  6  1  0
  9 14  1  0
 12  9  2  0
 13  8  1  0
 15 20  1  0
 15  5  1  0
 15 18  1  0
 16 13  1  0
 17 10  1  0
 18 17  1  0
 19  7  2  0
 19 12  1  0
 21  7  1  0
 22 16  1  0
 23 10  1  0
 23 22  2  3
  1 24  1  0
  1 25  1  0
  3 26  1  6
  4 27  1  0
  4 28  1  0
  5 29  1  6
  6 30  1  0
  8 31  1  0
  8 32  1  0
  9 33  1  0
 10 34  1  0
 10 35  1  0
 11 36  1  0
 13 37  1  0
 13 38  1  0
 14 39  1  0
 15 40  1  6
 17 41  1  0
 17 42  1  0
 18 43  1  0
 18 44  1  0
 19 45  1  0
 20 46  1  0
 20 47  1  0
 21 48  1  0
 21 49  1  0
 21 50  1  0
M  END
>  <mol_id>  (53) 
2026-09-18-3war-s0-n100-0053

>  <rmsd_to_ref>  (53) 


$$$$

     RDKit          3D

 30 29  0  0  0  0  0  0  0  0999 V2000
    3.2736   22.3462   34.0928 N   0  0  0  0  0  0  0  0  0  0  0  0
    3.8552   20.5123   35.6789 C   0  0  1  0  0  0  0  0  0  0  0  0
    3.2811   19.5823   34.7565 O   0  0  0  0  0  0  0  0  0  0  0  0
    3.5961   22.0772   32.9221 N   0  0  0  0  0  0  0  0  0  0  0  0
    4.2707   21.7018   34.9127 C   0  0  0  0  0  0  0  0  0  0  0  0
    2.6849   23.9769   31.7244 C   0  0  0  0  0  0  0  0  0  0  0  0
    2.9174   20.3174   38.1002 C   0  0  0  0  0  0  0  0  0  0  0  0
    2.9485   20.2746   40.8809 C   0  0  0  0  0  0  0  0  0  0  0  0
    3.8990   23.2427   32.2080 C   0  0  0  0  0  0  0  0  0  0  0  0
    2.8634   20.2035   39.3589 C   0  0  0  0  0  0  0  0  0  0  0  0
    2.0759   19.2421   41.5897 C   0  0  0  0  0  0  0  0  0  0  0  0
    2.9332   20.8560   36.7468 C   0  0  0  0  0  0  0  0  0  0  0  0
    2.3363   21.9754   34.3044 H   0  0  0  0  0  0  0  0  0  0  0  0
    4.7262   20.0585   36.1742 H   0  0  0  0  0  0  0  0  0  0  0  0
    3.1167   18.7208   35.2158 H   0  0  0  0  0  0  0  0  0  0  0  0
    4.4231   21.4633   32.9326 H   0  0  0  0  0  0  0  0  0  0  0  0
    5.0947   21.3966   34.2510 H   0  0  0  0  0  0  0  0  0  0  0  0
    4.5332   22.4496   35.6755 H   0  0  0  0  0  0  0  0  0  0  0  0
    2.1040   24.3335   32.5878 H   0  0  0  0  0  0  0  0  0  0  0  0
    2.9956   24.8359   31.1117 H   0  0  0  0  0  0  0  0  0  0  0  0
    2.0640   23.3002   31.1191 H   0  0  0  0  0  0  0  0  0  0  0  0
    2.6299   21.2777   41.2007 H   0  0  0  0  0  0  0  0  0  0  0  0
    3.9915   20.0597   41.1565 H   0  0  0  0  0  0  0  0  0  0  0  0
    4.5109   22.9682   31.3360 H   0  0  0  0  0  0  0  0  0  0  0  0
    4.4330   23.9153   32.8954 H   0  0  0  0  0  0  0  0  0  0  0  0
    2.3878   19.1584   42.6413 H   0  0  0  0  0  0  0  0  0  0  0  0
    1.0232   19.5578   41.5435 H   0  0  0  0  0  0  0  0  0  0  0  0
    2.1880   18.2659   41.0952 H   0  0  0  0  0  0  0  0  0  0  0  0
    3.0421   21.9429   36.8759 H   0  0  0  0  0  0  0  0  0  0  0  0
    2.0239   20.3760   36.3558 H   0  0  0  0  0  0  0  0  0  0  0  0
  1  5  1  0
  2  3  1  0
  2 12  1  0
  4  1  1  0
  5  2  1  0
  6  9  1  0
  7 10  3  0
  8 11  1  0
  9  4  1  0
 10  8  1  0
 12  7  1  0
  1 13  1  0
  2 14  1  1
  3 15  1  0
  4 16  1  0
  5 17  1  0
  5 18  1  0
  6 19  1  0
  6 20  1  0
  6 21  1  0
  8 22  1  0
  8 23  1  0
  9 24  1  0
  9 25  1  0
 11 26  1  0
 11 27  1  0
 11 28  1  0
 12 29  1  0
 12 30  1  0
M  END
>  <mol_id>  (54) 
2026-09-18-3war-s0-n100-0054

>  <rmsd_to_ref>  (54) 


$$$$

     RDKit          3D

 41 41  0  0  0  0  0  0  0  0999 V2000
    1.8660   23.9880   30.1930 C   0  0  0  0  0  0  0  0  0  0  0  0
    1.5250   26.1200   31.1890 C   0  0  0  0  0  0  0  0  0  0  0  0
    2.5470   19.0510   38.9590 C   0  0  0  0  0  0  0  0  0  0  0  0
    3.4760   21.0830   35.7320 C   0  0  0  0  0  0  0  0  0  0  0  0
    3.0850   24.2510   32.9720 C   0  0  0  0  0  0  0  0  0  0  0  0
    2.5300   22.1820   34.7430 S   0  0  2  0  0  4  0  0  0  0  0  0
    3.6040   24.8050   31.7590 C   0  0  0  0  0  0  0  0  0  0  0  0
    4.8000   18.6140   40.0380 C   0  0  0  0  0  0  0  0  0  0  0  0
    1.9030   21.2180   37.7220 C   0  0  0  0  0  0  0  0  0  0  0  0
    2.6150   25.2310   30.6630 C   0  0  0  0  0  0  0  0  0  0  0  0
    3.0970   21.6310   33.3000 C   0  0  0  0  0  0  0  0  0  0  0  0
    3.5950   22.9800   33.5730 C   0  0  1  0  0  0  0  0  0  0  0  0
    1.9070   20.6080   39.1160 C   0  0  0  0  0  0  0  0  0  0  0  0
    3.8400   18.9870   39.6170 C   0  0  0  0  0  0  0  0  0  0  0  0
    2.5600   20.3900   36.6690 C   0  0  0  0  0  0  0  0  0  0  0  0
    1.5210   23.4155   31.0667 H   0  0  0  0  0  0  0  0  0  0  0  0
    0.9991   24.2896   29.5867 H   0  0  0  0  0  0  0  0  0  0  0  0
    2.5377   23.3625   29.5867 H   0  0  0  0  0  0  0  0  0  0  0  0
    1.5404   26.1075   32.2888 H   0  0  0  0  0  0  0  0  0  0  0  0
    1.6858   27.1479   30.8317 H   0  0  0  0  0  0  0  0  0  0  0  0
    0.5504   25.7559   30.8317 H   0  0  0  0  0  0  0  0  0  0  0  0
    1.8633   18.3256   39.4241 H   0  0  0  0  0  0  0  0  0  0  0  0
    2.6678   18.8116   37.8922 H   0  0  0  0  0  0  0  0  0  0  0  0
    4.2294   21.6490   36.2995 H   0  0  0  0  0  0  0  0  0  0  0  0
    3.9907   20.3490   35.0946 H   0  0  0  0  0  0  0  0  0  0  0  0
    3.2215   25.0255   33.7411 H   0  0  0  0  0  0  0  0  0  0  0  0
    2.0718   23.9555   32.6619 H   0  0  0  0  0  0  0  0  0  0  0  0
    1.4291   22.5607   35.4651 H   0  0  0  0  0  0  0  0  0  0  0  0
    4.1878   25.6961   32.0332 H   0  0  0  0  0  0  0  0  0  0  0  0
    4.1670   23.9763   31.3049 H   0  0  0  0  0  0  0  0  0  0  0  0
    5.7491   18.2452   40.4542 H   0  0  0  0  0  0  0  0  0  0  0  0
    0.8568   21.3814   37.4241 H   0  0  0  0  0  0  0  0  0  0  0  0
    2.4878   22.1471   37.7916 H   0  0  0  0  0  0  0  0  0  0  0  0
    3.2031   25.7441   29.8879 H   0  0  0  0  0  0  0  0  0  0  0  0
    2.3822   21.4947   32.4751 H   0  0  0  0  0  0  0  0  0  0  0  0
    3.6320   20.7047   33.0435 H   0  0  0  0  0  0  0  0  0  0  0  0
    4.6124   23.3943   33.5159 H   0  0  0  0  0  0  0  0  0  0  0  0
    0.8819   20.5590   39.5120 H   0  0  0  0  0  0  0  0  0  0  0  0
    2.5041   21.2143   39.8130 H   0  0  0  0  0  0  0  0  0  0  0  0
    1.7635   19.9253   36.0693 H   0  0  0  0  0  0  0  0  0  0  0  0
    3.2005   19.6868   37.2216 H   0  0  0  0  0  0  0  0  0  0  0  0
  1 10  1  0
  3 13  1  0
  3 14  1  0
  4 15  1  0
  6  4  1  0
  7  5  1  0
  9 13  1  0
 10  2  1  0
 10  7  1  0
 11 12  1  0
 11  6  1  0
 12  5  1  0
 12  6  1  0
 14  8  3  0
 15  9  1  0
  1 16  1  0
  1 17  1  0
  1 18  1  0
  2 19  1  0
  2 20  1  0
  2 21  1  0
  3 22  1  0
  3 23  1  0
  4 24  1  0
  4 25  1  0
  5 26  1  0
  5 27  1  0
  6 28  1  6
  7 29  1  0
  7 30  1  0
  8 31  1  0
  9 32  1  0
  9 33  1  0
 10 34  1  0
 11 35  1  0
 11 36  1  0
 12 37  1  1
 13 38  1  0
 13 39  1  0
 15 40  1  0
 15 41  1  0
M  END
>  <mol_id>  (55) 
2026-09-18-3war-s0-n100-0055

>  <rmsd_to_ref>  (55) 


$$$$

     RDKit          3D

 40 40  0  0  0  0  0  0  0  0999 V2000
    3.8970   22.4410   33.3330 C   0  0  0  0  0  0  0  0  0  0  0  0
    2.3800   19.4920   39.4610 C   0  0  0  0  0  0  0  0  0  0  0  0
    1.9570   24.1360   31.8440 C   0  0  0  0  0  0  0  0  0  0  0  0
    2.9620   17.0520   39.1340 C   0  0  0  0  0  0  0  0  0  0  0  0
    2.8540   15.5670   39.5740 C   0  0  0  0  0  0  0  0  0  0  0  0
    3.4140   18.7440   37.4180 C   0  0  0  0  0  0  0  0  0  0  0  0
    2.3510   21.1720   37.4380 C   0  0  0  0  0  0  0  0  0  0  0  0
    1.7950   20.6140   40.4010 C   0  0  0  0  0  0  0  0  0  0  0  0
    2.7640   19.8530   38.0520 C   0  0  0  0  0  0  0  0  0  0  0  0
    2.5000   18.1450   39.9570 C   0  0  0  0  0  0  0  0  0  0  0  0
    2.4550   22.7030   33.8560 C   0  0  2  0  0  0  0  0  0  0  0  0
    3.5910   20.8490   35.3900 O   0  0  0  0  0  0  0  0  0  0  0  0
    3.5400   17.4900   37.9120 C   0  0  0  0  0  0  0  0  0  0  0  0
    1.9930   24.0730   33.3260 C   0  0  0  0  0  0  0  0  0  0  0  0
    3.2140   24.1330   30.9580 C   0  0  0  0  0  0  0  0  0  0  0  0
    2.7470   21.4990   36.0040 C   0  0  0  0  0  0  0  0  0  0  0  0
    2.1970   22.5570   35.3250 N   0  0  0  0  0  0  0  0  0  0  0  0
    4.5797   22.3170   34.1865 H   0  0  0  0  0  0  0  0  0  0  0  0
    3.9047   21.5267   32.7214 H   0  0  0  0  0  0  0  0  0  0  0  0
    4.2259   23.2941   32.7214 H   0  0  0  0  0  0  0  0  0  0  0  0
    1.3616   23.2690   31.5219 H   0  0  0  0  0  0  0  0  0  0  0  0
    1.5877   25.1598   31.6844 H   0  0  0  0  0  0  0  0  0  0  0  0
    2.8498   15.5094   40.6725 H   0  0  0  0  0  0  0  0  0  0  0  0
    1.9221   15.1349   39.1806 H   0  0  0  0  0  0  0  0  0  0  0  0
    3.7136   15.0046   39.1806 H   0  0  0  0  0  0  0  0  0  0  0  0
    3.8559   18.9311   36.4282 H   0  0  0  0  0  0  0  0  0  0  0  0
    1.2526   21.2132   37.4819 H   0  0  0  0  0  0  0  0  0  0  0  0
    2.9074   21.9132   38.0304 H   0  0  0  0  0  0  0  0  0  0  0  0
    1.9448   20.3266   41.4522 H   0  0  0  0  0  0  0  0  0  0  0  0
    2.3124   21.5644   40.2034 H   0  0  0  0  0  0  0  0  0  0  0  0
    0.7196   20.7340   40.2034 H   0  0  0  0  0  0  0  0  0  0  0  0
    2.2292   17.9410   41.0034 H   0  0  0  0  0  0  0  0  0  0  0  0
    1.8513   21.8743   33.4575 H   0  0  0  0  0  0  0  0  0  0  0  0
    4.1271   16.7639   37.3305 H   0  0  0  0  0  0  0  0  0  0  0  0
    2.6866   24.8437   33.6934 H   0  0  0  0  0  0  0  0  0  0  0  0
    0.9678   24.2389   33.6887 H   0  0  0  0  0  0  0  0  0  0  0  0
    4.1112   24.1309   31.5944 H   0  0  0  0  0  0  0  0  0  0  0  0
    3.2128   23.2349   30.3229 H   0  0  0  0  0  0  0  0  0  0  0  0
    3.2171   25.0311   30.3229 H   0  0  0  0  0  0  0  0  0  0  0  0
    1.6120   23.2448   35.8206 H   0  0  0  0  0  0  0  0  0  0  0  0
  2 10  1  0
  2  8  1  0
  3 14  1  0
  4  5  1  0
  4 10  2  0
  6 13  2  0
  6  9  1  0
  7  9  1  0
  9  2  2  0
 11  1  1  0
 11 17  1  0
 12 16  2  0
 13  4  1  0
 14 11  1  0
 15  3  1  0
 16  7  1  0
 17 16  1  0
  1 18  1  0
  1 19  1  0
  1 20  1  0
  3 21  1  0
  3 22  1  0
  5 23  1  0
  5 24  1  0
  5 25  1  0
  6 26  1  0
  7 27  1  0
  7 28  1  0
  8 29  1  0
  8 30  1  0
  8 31  1  0
 10 32  1  0
 11 33  1  6
 13 34  1  0
 14 35  1  0
 14 36  1  0
 15 37  1  0
 15 38  1  0
 15 39  1  0
 17 40  1  0
M  END
>  <mol_id>  (56) 
2026-09-18-3war-s0-n100-0056

>  <rmsd_to_ref>  (56) 


$$$$

     RDKit          3D

 40 39  0  0  0  0  0  0  0  0999 V2000
    4.3525   18.3655   38.1848 O   0  0  0  0  0  0  0  0  0  0  0  0
    2.5335   21.9848   34.8882 O   0  0  0  0  0  0  0  0  0  0  0  0
    1.7715   27.0154   30.3060 C   0  0  0  0  0  0  0  0  0  0  0  0
    3.0032   18.4380   38.0157 C   0  0  0  0  0  0  0  0  0  0  0  0
    2.2507   25.5945   32.4723 C   0  0  1  0  0  0  0  0  0  0  0  0
    1.9534   21.5717   39.6113 F   0  0  0  0  0  0  0  0  0  0  0  0
    3.5363   20.1859   40.1737 F   0  0  0  0  0  0  0  0  0  0  0  0
   -0.2564   28.3900   31.3774 C   0  0  0  0  0  0  0  0  0  0  0  0
    1.2611   19.4362   40.1399 F   0  0  0  0  0  0  0  0  0  0  0  0
    0.7695   28.3164   32.4467 C   0  0  0  0  0  0  0  0  0  0  0  0
    2.5679   19.9584   38.0463 C   0  0  0  0  0  0  0  0  0  0  0  0
    3.0319   26.4687   30.3496 C   0  0  0  0  0  0  0  0  0  0  0  0
    0.7609   27.3119   31.0095 C   0  0  0  0  0  0  0  0  0  0  0  0
    2.9318   24.3461   33.0885 C   0  0  0  0  0  0  0  0  0  0  0  0
    2.6965   21.0731   35.6286 C   0  0  0  0  0  0  0  0  0  0  0  0
    2.3261   21.1417   37.1401 C   0  0  0  0  0  0  0  0  0  0  0  0
    1.7168   26.2716   33.4703 O   0  0  0  0  0  0  0  0  0  0  0  0
    2.9498   23.1380   32.1787 O   0  0  0  0  0  0  0  0  0  0  0  0
    3.2446   19.9115   35.2267 O   0  0  0  0  0  0  0  0  0  0  0  0
    3.8151   24.5318   34.5153 S   0  0  0  0  0  0  0  0  0  0  0  0
    3.2210   25.7291   31.5259 C   0  0  0  0  0  0  0  0  0  0  0  0
    2.3498   20.3363   39.5774 C   0  0  0  0  0  0  0  0  0  0  0  0
    4.5566   18.1851   39.1366 H   0  0  0  0  0  0  0  0  0  0  0  0
    1.3024   26.3693   29.5493 H   0  0  0  0  0  0  0  0  0  0  0  0
    2.1851   28.0257   30.4413 H   0  0  0  0  0  0  0  0  0  0  0  0
    2.7273   17.9936   37.0481 H   0  0  0  0  0  0  0  0  0  0  0  0
    2.4951   17.8870   38.8208 H   0  0  0  0  0  0  0  0  0  0  0  0
    1.3357   25.8312   31.9095 H   0  0  0  0  0  0  0  0  0  0  0  0
   -0.2925   29.2985   30.7583 H   0  0  0  0  0  0  0  0  0  0  0  0
   -1.3526   28.3318   31.4460 H   0  0  0  0  0  0  0  0  0  0  0  0
    1.5134   29.1176   32.5678 H   0  0  0  0  0  0  0  0  0  0  0  0
    0.7848   28.1603   33.5355 H   0  0  0  0  0  0  0  0  0  0  0  0
    3.1660   25.8052   29.4826 H   0  0  0  0  0  0  0  0  0  0  0  0
    3.7680   27.2858   30.3286 H   0  0  0  0  0  0  0  0  0  0  0  0
    0.6321   26.3283   30.5341 H   0  0  0  0  0  0  0  0  0  0  0  0
    1.8841   22.0612   37.5514 H   0  0  0  0  0  0  0  0  0  0  0  0
    2.0965   25.9516   34.3267 H   0  0  0  0  0  0  0  0  0  0  0  0
    3.3389   23.6651   35.4634 H   0  0  0  0  0  0  0  0  0  0  0  0
    3.4790   24.7086   31.2063 H   0  0  0  0  0  0  0  0  0  0  0  0
    3.9684   26.3378   32.0559 H   0  0  0  0  0  0  0  0  0  0  0  0
  2 15  2  0
  3 13  1  0
  3 12  1  0
  4  1  1  0
  5 17  1  0
  5 14  1  0
  6 22  1  0
  8 13  1  0
  8 10  1  0
 11  4  1  0
 11 22  1  0
 12 21  1  0
 13 10  1  0
 14 20  1  0
 15 16  1  0
 16 11  2  3
 18 14  2  0
 19 15  1  0
 21  5  1  0
 22  9  1  0
 22  7  1  0
  1 23  1  0
  3 24  1  0
  3 25  1  0
  4 26  1  0
  4 27  1  0
  5 28  1  6
  8 29  1  0
  8 30  1  0
 10 31  1  0
 10 32  1  0
 12 33  1  0
 12 34  1  0
 13 35  1  0
 16 36  1  0
 17 37  1  0
 20 38  1  0
 21 39  1  0
 21 40  1  0
M  CHG  1  19  -1
M  END
>  <mol_id>  (57) 
2026-09-18-3war-s0-n100-0057

>  <rmsd_to_ref>  (57) 


$$$$

     RDKit          3D

 63 63  0  0  0  0  0  0  0  0999 V2000
    1.2060   15.3130   39.4930 O   0  0  0  0  0  0  0  0  0  0  0  0
    4.5450   23.0430   32.7480 C   0  0  0  0  0  0  0  0  0  0  0  0
    2.2240   20.6840   37.9780 C   0  0  0  0  0  0  0  0  0  0  0  0
    2.9170   22.1700   34.4060 C   0  0  2  0  0  0  0  0  0  0  0  0
    2.3250   27.6170   28.0040 C   0  0  0  0  0  0  0  0  0  0  0  0
    4.8590   25.4750   29.8030 C   0  0  0  0  0  0  0  0  0  0  0  0
    3.8690   19.1830   39.3430 C   0  0  0  0  0  0  0  0  0  0  0  0
    2.6790   15.7350   39.0870 C   0  0  0  0  0  0  0  0  0  0  0  0
    2.5370   23.2770   34.5430 C   0  0  0  0  0  0  0  0  0  0  0  0
    1.5470   21.1080   41.0540 C   0  0  0  0  0  0  0  0  0  0  0  0
    1.7110   19.9310   40.0880 C   0  0  0  0  0  0  0  0  0  0  0  0
    2.9430   17.1420   38.6970 C   0  0  0  0  0  0  0  0  0  0  0  0
    0.7260   15.2650   40.3780 C   0  0  0  0  0  0  0  0  0  0  0  0
    3.5920   20.2550   36.0190 O   0  0  0  0  0  0  0  0  0  0  0  0
    2.0670   21.4360   36.8130 N   0  0  0  0  0  0  0  0  0  0  0  0
    2.7800   20.0190   38.9430 C   0  0  2  0  0  0  0  0  0  0  0  0
    3.4020   17.8810   39.7110 O   0  0  0  0  0  0  0  0  0  0  0  0
    2.5330   25.6670   29.2500 C   0  0  0  0  0  0  0  0  0  0  0  0
    3.1220   21.3270   35.7880 C   0  0  0  0  0  0  0  0  0  0  0  0
    4.8350   25.2790   28.3190 C   0  0  0  0  0  0  0  0  0  0  0  0
    0.5020   16.3990   41.3400 C   0  0  0  0  0  0  0  0  0  0  0  0
    3.8280   23.0950   34.0800 N   0  0  0  0  0  0  0  0  0  0  0  0
    3.4610   26.4300   27.8750 S   0  0  2  0  0  4  0  0  0  0  0  0
    1.4070   16.5450   42.4280 O   0  0  0  0  0  0  0  0  0  0  0  0
    3.4850   25.9130   30.2560 C   0  0  0  0  0  0  0  0  0  0  0  0
    5.6290   22.9644   32.9179 H   0  0  0  0  0  0  0  0  0  0  0  0
    4.1986   22.1676   32.1790 H   0  0  0  0  0  0  0  0  0  0  0  0
    4.3285   23.9592   32.1790 H   0  0  0  0  0  0  0  0  0  0  0  0
    1.6903   21.3901   38.6312 H   0  0  0  0  0  0  0  0  0  0  0  0
    2.4419   19.8226   37.3296 H   0  0  0  0  0  0  0  0  0  0  0  0
    2.5400   21.3020   33.8452 H   0  0  0  0  0  0  0  0  0  0  0  0
    2.1284   27.8224   29.0666 H   0  0  0  0  0  0  0  0  0  0  0  0
    2.6931   28.5314   27.5157 H   0  0  0  0  0  0  0  0  0  0  0  0
    1.3953   27.2894   27.5157 H   0  0  0  0  0  0  0  0  0  0  0  0
    5.5980   26.2473   30.0625 H   0  0  0  0  0  0  0  0  0  0  0  0
    5.1357   24.5340   30.3010 H   0  0  0  0  0  0  0  0  0  0  0  0
    4.3773   19.6406   40.2045 H   0  0  0  0  0  0  0  0  0  0  0  0
    4.5649   19.0818   38.4971 H   0  0  0  0  0  0  0  0  0  0  0  0
    3.3268   15.5122   39.9476 H   0  0  0  0  0  0  0  0  0  0  0  0
    2.8719   15.1655   38.1658 H   0  0  0  0  0  0  0  0  0  0  0  0
    1.7678   23.6751   33.8649 H   0  0  0  0  0  0  0  0  0  0  0  0
    2.0989   23.8353   35.3835 H   0  0  0  0  0  0  0  0  0  0  0  0
    1.5980   20.7419   42.0900 H   0  0  0  0  0  0  0  0  0  0  0  0
    2.3521   21.8377   40.8829 H   0  0  0  0  0  0  0  0  0  0  0  0
    0.5730   21.5898   40.8829 H   0  0  0  0  0  0  0  0  0  0  0  0
    1.9642   19.0500   40.6961 H   0  0  0  0  0  0  0  0  0  0  0  0
    0.7532   19.9027   39.5478 H   0  0  0  0  0  0  0  0  0  0  0  0
    3.6904   17.1491   37.8899 H   0  0  0  0  0  0  0  0  0  0  0  0
    1.9884   17.5811   38.3715 H   0  0  0  0  0  0  0  0  0  0  0  0
   -0.2806   14.8927   40.1367 H   0  0  0  0  0  0  0  0  0  0  0  0
    1.4630   14.6842   40.9519 H   0  0  0  0  0  0  0  0  0  0  0  0
    1.2467   22.0433   36.6744 H   0  0  0  0  0  0  0  0  0  0  0  0
    3.6197   20.3276   38.3030 H   0  0  0  0  0  0  0  0  0  0  0  0
    2.3548   24.5930   29.0927 H   0  0  0  0  0  0  0  0  0  0  0  0
    1.5169   26.0481   29.4297 H   0  0  0  0  0  0  0  0  0  0  0  0
    5.7853   25.5761   27.8513 H   0  0  0  0  0  0  0  0  0  0  0  0
    4.6971   24.2390   27.9883 H   0  0  0  0  0  0  0  0  0  0  0  0
    0.5374   17.3321   40.7585 H   0  0  0  0  0  0  0  0  0  0  0  0
   -0.4621   16.1668   41.8160 H   0  0  0  0  0  0  0  0  0  0  0  0
    3.9756   26.7942   26.6587 H   0  0  0  0  0  0  0  0  0  0  0  0
    0.9122   16.4652   43.2818 H   0  0  0  0  0  0  0  0  0  0  0  0
    3.2072   25.3541   31.1618 H   0  0  0  0  0  0  0  0  0  0  0  0
    3.5076   26.9921   30.4683 H   0  0  0  0  0  0  0  0  0  0  0  0
  1 13  1  0
  2 22  1  0
  4  9  1  0
  4 19  1  0
  6 25  1  0
  7 17  1  0
  8  1  1  0
 11 10  1  0
 12  8  1  0
 12 17  1  0
 13 21  1  0
 15  3  1  0
 16  3  1  0
 16  7  1  0
 16 11  1  0
 18 25  1  0
 19 14  2  0
 19 15  1  0
 20  6  1  0
 21 24  1  0
 22  4  1  0
 22  9  1  0
 23  5  1  0
 23 20  1  0
 23 18  1  0
  2 26  1  0
  2 27  1  0
  2 28  1  0
  3 29  1  0
  3 30  1  0
  4 31  1  6
  5 32  1  0
  5 33  1  0
  5 34  1  0
  6 35  1  0
  6 36  1  0
  7 37  1  0
  7 38  1  0
  8 39  1  0
  8 40  1  0
  9 41  1  0
  9 42  1  0
 10 43  1  0
 10 44  1  0
 10 45  1  0
 11 46  1  0
 11 47  1  0
 12 48  1  0
 12 49  1  0
 13 50  1  0
 13 51  1  0
 15 52  1  0
 16 53  1  1
 18 54  1  0
 18 55  1  0
 20 56  1  0
 20 57  1  0
 21 58  1  0
 21 59  1  0
 23 60  1  0
 24 61  1  0
 25 62  1  0
 25 63  1  0
M  END
>  <mol_id>  (58) 
2026-09-18-3war-s0-n100-0058

>  <rmsd_to_ref>  (58) 


$$$$

     RDKit          3D

 38 38  0  0  0  0  0  0  0  0999 V2000
    2.7139   19.6930   38.9218 N   0  0  0  0  0  0  0  0  0  0  0  0
    2.8742   24.2069   33.5862 N   0  0  0  0  0  0  0  0  0  0  0  0
    2.2640   21.5812   37.7868 N   0  0  0  0  0  0  0  0  0  0  0  0
    0.3935   17.0672   40.1132 C   0  0  0  0  0  0  0  0  0  0  0  0
    0.8388   27.6536   31.4715 C   0  0  0  0  0  0  0  0  0  0  0  0
    1.9293   18.9260   39.8177 C   0  0  0  0  0  0  0  0  0  0  0  0
    1.8773   28.3588   31.1827 C   0  0  0  0  0  0  0  0  0  0  0  0
    2.6494   24.7384   32.2110 C   0  0  0  0  0  0  0  0  0  0  0  0
    0.2825   17.3552   41.4830 C   0  0  0  0  0  0  0  0  0  0  0  0
    1.6867   28.2128   32.6170 C   0  0  0  0  0  0  0  0  0  0  0  0
    1.1422   17.8382   39.2965 C   0  0  0  0  0  0  0  0  0  0  0  0
    2.3141   20.2256   37.7642 C   0  0  0  0  0  0  0  0  0  0  0  0
    0.9028   18.4789   41.9681 C   0  0  0  0  0  0  0  0  0  0  0  0
    1.7847   19.2241   41.1308 C   0  0  0  0  0  0  0  0  0  0  0  0
    2.5939   27.1745   33.2693 C   0  0  0  0  0  0  0  0  0  0  0  0
    2.5411   26.1924   32.2166 O   0  0  0  0  0  0  0  0  0  0  0  0
    1.7508   22.3077   36.6686 O   0  0  0  0  0  0  0  0  0  0  0  0
    1.9516   19.5653   36.8047 O   0  0  0  0  0  0  0  0  0  0  0  0
    3.6944   19.8571   39.1911 H   0  0  0  0  0  0  0  0  0  0  0  0
    3.6114   24.7564   34.0503 H   0  0  0  0  0  0  0  0  0  0  0  0
    2.0012   24.2768   34.1282 H   0  0  0  0  0  0  0  0  0  0  0  0
    3.1652   23.2205   33.5296 H   0  0  0  0  0  0  0  0  0  0  0  0
    2.5988   22.0908   38.6169 H   0  0  0  0  0  0  0  0  0  0  0  0
   -0.1389   16.1984   39.6986 H   0  0  0  0  0  0  0  0  0  0  0  0
   -0.1664   28.0607   31.2870 H   0  0  0  0  0  0  0  0  0  0  0  0
    0.4890   26.6488   31.1924 H   0  0  0  0  0  0  0  0  0  0  0  0
    2.7382   27.8622   30.7113 H   0  0  0  0  0  0  0  0  0  0  0  0
    2.0026   29.2494   30.5493 H   0  0  0  0  0  0  0  0  0  0  0  0
    3.4940   24.4443   31.5706 H   0  0  0  0  0  0  0  0  0  0  0  0
    1.7066   24.3214   31.8273 H   0  0  0  0  0  0  0  0  0  0  0  0
   -0.2888   16.6949   42.1521 H   0  0  0  0  0  0  0  0  0  0  0  0
    1.5702   28.8539   33.5032 H   0  0  0  0  0  0  0  0  0  0  0  0
    1.1514   17.6325   38.2159 H   0  0  0  0  0  0  0  0  0  0  0  0
    0.7199   18.8050   43.0027 H   0  0  0  0  0  0  0  0  0  0  0  0
    2.3592   20.0580   41.5604 H   0  0  0  0  0  0  0  0  0  0  0  0
    3.6125   27.5545   33.4371 H   0  0  0  0  0  0  0  0  0  0  0  0
    2.3002   26.8312   34.2722 H   0  0  0  0  0  0  0  0  0  0  0  0
    1.7464   23.2754   36.8778 H   0  0  0  0  0  0  0  0  0  0  0  0
  1  6  1  0
  3 12  1  0
  4  9  2  0
  5  7  1  0
  5 10  1  0
  6 14  1  0
  7 10  1  0
  8  2  1  0
  9 13  1  0
 10 15  1  0
 11  4  1  0
 11  6  2  0
 12  1  1  0
 14 13  2  0
 16  8  1  0
 16 15  1  0
 17  3  1  0
 18 12  2  0
  1 19  1  0
  2 20  1  0
  2 21  1  0
  2 22  1  0
  3 23  1  0
  4 24  1  0
  5 25  1  0
  5 26  1  0
  7 27  1  0
  7 28  1  0
  8 29  1  0
  8 30  1  0
  9 31  1  0
 10 32  1  0
 11 33  1  0
 13 34  1  0
 14 35  1  0
 15 36  1  0
 15 37  1  0
 17 38  1  0
M  CHG  1   2   1
M  END
>  <mol_id>  (59) 
2026-09-18-3war-s0-n100-0059

>  <rmsd_to_ref>  (59) 


$$$$

     RDKit          3D

 50 54  0  0  0  0  0  0  0  0999 V2000
    3.9260   24.3670   28.9770 C   0  0  0  0  0  0  0  0  0  0  0  0
    0.3060   20.1280   41.3460 C   0  0  0  0  0  0  0  0  0  0  0  0
    3.1090   18.8540   38.5940 C   0  0  0  0  0  0  0  0  0  0  0  0
    2.8670   20.6740   36.9160 C   0  0  0  0  0  0  0  0  0  0  0  0
    1.0760   21.1230   40.6740 C   0  0  0  0  0  0  0  0  0  0  0  0
    3.7230   24.1900   30.1760 C   0  0  1  0  0  0  0  0  0  0  0  0
    3.4990   21.3910   34.6330 C   0  0  1  0  0  0  0  0  0  0  0  0
    2.7660   24.1290   29.5030 C   0  0  1  0  0  0  0  0  0  0  0  0
    4.3730   22.3410   34.0690 C   0  0  0  0  0  0  0  0  0  0  0  0
    2.0750   17.0770   40.3190 N   0  0  0  0  0  0  0  0  0  0  0  0
    2.0160   25.6550   29.2250 C   0  0  0  0  0  0  0  0  0  0  0  0
    1.4230   25.3850   31.6640 C   0  0  0  0  0  0  0  0  0  0  0  0
    2.0470   24.2270   32.2330 C   0  0  0  0  0  0  0  0  0  0  0  0
    3.9890   23.7070   31.2250 C   0  0  0  0  0  0  0  0  0  0  0  0
    3.0180   23.2850   32.1310 C   0  0  1  0  0  0  0  0  0  0  0  0
    1.7630   18.4230   40.4000 C   0  0  0  0  0  0  0  0  0  0  0  0
    3.6290   19.7290   37.6040 N   0  0  0  0  0  0  0  0  0  0  0  0
    2.0820   20.7080   39.8560 C   0  0  0  0  0  0  0  0  0  0  0  0
    2.9110   16.5890   39.3470 C   0  0  0  0  0  0  0  0  0  0  0  0
    3.2480   20.7850   35.7000 N   0  0  0  0  0  0  0  0  0  0  0  0
    2.3310   19.3610   39.5840 C   0  0  0  0  0  0  0  0  0  0  0  0
    3.3380   22.5840   33.3220 C   0  0  1  0  0  0  0  0  0  0  0  0
   -1.1890   20.6500   42.1560 Cl  0  0  0  0  0  0  0  0  0  0  0  0
    3.3770   17.5600   38.5320 N   0  0  0  0  0  0  0  0  0  0  0  0
    1.9490   21.3340   37.2600 O   0  0  0  0  0  0  0  0  0  0  0  0
    0.7560   18.7860   41.2860 C   0  0  0  0  0  0  0  0  0  0  0  0
    1.7260   26.1700   30.5750 C   0  0  0  0  0  0  0  0  0  0  0  0
    4.1740   25.3663   28.5897 H   0  0  0  0  0  0  0  0  0  0  0  0
    4.5607   23.9256   28.1945 H   0  0  0  0  0  0  0  0  0  0  0  0
    0.8634   22.1933   40.8125 H   0  0  0  0  0  0  0  0  0  0  0  0
    4.2752   24.5979   31.0355 H   0  0  0  0  0  0  0  0  0  0  0  0
    3.1233   20.4096   34.9580 H   0  0  0  0  0  0  0  0  0  0  0  0
    1.9395   23.4031   29.4984 H   0  0  0  0  0  0  0  0  0  0  0  0
    4.6859   23.1588   34.7348 H   0  0  0  0  0  0  0  0  0  0  0  0
    5.3789   22.1135   33.6864 H   0  0  0  0  0  0  0  0  0  0  0  0
    2.6969   26.3317   28.6878 H   0  0  0  0  0  0  0  0  0  0  0  0
    1.1119   25.5718   28.6039 H   0  0  0  0  0  0  0  0  0  0  0  0
    0.5228   25.7112   32.2055 H   0  0  0  0  0  0  0  0  0  0  0  0
    1.4971   24.0041   33.1592 H   0  0  0  0  0  0  0  0  0  0  0  0
    4.6040   22.8220   31.0047 H   0  0  0  0  0  0  0  0  0  0  0  0
    4.4316   24.5621   31.7568 H   0  0  0  0  0  0  0  0  0  0  0  0
    2.6421   22.3701   31.6497 H   0  0  0  0  0  0  0  0  0  0  0  0
    4.6320   19.6619   37.3795 H   0  0  0  0  0  0  0  0  0  0  0  0
    2.7269   21.4668   39.3889 H   0  0  0  0  0  0  0  0  0  0  0  0
    3.1726   15.5256   39.2430 H   0  0  0  0  0  0  0  0  0  0  0  0
    3.4867   19.8127   35.4582 H   0  0  0  0  0  0  0  0  0  0  0  0
    2.5205   23.0328   32.7387 H   0  0  0  0  0  0  0  0  0  0  0  0
    0.3061   18.0278   41.9439 H   0  0  0  0  0  0  0  0  0  0  0  0
    2.6146   26.7489   30.8669 H   0  0  0  0  0  0  0  0  0  0  0  0
    0.7552   26.6571   30.4010 H   0  0  0  0  0  0  0  0  0  0  0  0
  2 23  1  0
  3 21  2  0
  4 25  2  0
  4 17  1  0
  5  2  1  0
  6  1  1  0
  6 14  1  0
  7 20  1  0
  8  1  1  0
  8  6  1  0
  9  7  1  0
 10 16  2  0
 11  8  1  0
 11 27  1  0
 12 13  2  0
 15 14  1  0
 15 13  1  0
 15 22  1  0
 16 26  1  0
 17  3  1  0
 18  5  2  0
 19 10  1  0
 20  4  1  0
 21 18  1  0
 21 16  1  0
 22  9  1  0
 22  7  1  0
 24  3  1  0
 24 19  2  0
 26  2  2  0
 27 12  1  0
  1 28  1  0
  1 29  1  0
  5 30  1  0
  6 31  1  1
  7 32  1  6
  8 33  1  6
  9 34  1  0
  9 35  1  0
 11 36  1  0
 11 37  1  0
 12 38  1  0
 13 39  1  0
 14 40  1  0
 14 41  1  0
 15 42  1  6
 17 43  1  0
 18 44  1  0
 19 45  1  0
 20 46  1  0
 22 47  1  1
 26 48  1  0
 27 49  1  0
 27 50  1  0
M  END
>  <mol_id>  (60) 
2026-09-18-3war-s0-n100-0060

>  <rmsd_to_ref>  (60) 


$$$$

     RDKit          3D

 33 33  0  0  0  0  0  0  0  0999 V2000
    3.4410   22.3750   33.7760 C   0  0  0  0  0  0  0  0  0  0  0  0
    1.1750   20.0560   40.6810 C   0  0  0  0  0  0  0  0  0  0  0  0
    1.7140   21.1330   38.5700 C   0  0  0  0  0  0  0  0  0  0  0  0
   -0.3630   20.9310   42.4350 C   0  0  0  0  0  0  0  0  0  0  0  0
    2.8580   21.0530   35.7710 N   0  0  0  0  0  0  0  0  0  0  0  0
    3.3600   20.8890   34.3580 C   0  0  0  0  0  0  0  0  0  0  0  0
    3.7260   22.8300   32.3300 C   0  0  2  0  0  0  0  0  0  0  0  0
    1.1210   21.1060   39.7940 C   0  0  0  0  0  0  0  0  0  0  0  0
    4.0280   23.8930   31.3640 C   0  0  0  0  0  0  0  0  0  0  0  0
    3.0510   19.9380   36.6510 C   0  0  0  0  0  0  0  0  0  0  0  0
    2.4630   20.0390   38.1480 C   0  0  0  0  0  0  0  0  0  0  0  0
    3.6810   18.9140   36.3840 O   0  0  0  0  0  0  0  0  0  0  0  0
    0.4250   19.9330   41.8650 O   0  0  0  0  0  0  0  0  0  0  0  0
    2.6190   18.9520   39.0500 C   0  0  0  0  0  0  0  0  0  0  0  0
    3.1650   21.8950   31.5110 O   0  0  0  0  0  0  0  0  0  0  0  0
    2.0140   18.9870   40.2780 C   0  0  0  0  0  0  0  0  0  0  0  0
    2.4631   22.8180   34.0159 H   0  0  0  0  0  0  0  0  0  0  0  0
    4.3999   22.6700   34.2271 H   0  0  0  0  0  0  0  0  0  0  0  0
    1.6023   22.0127   37.9191 H   0  0  0  0  0  0  0  0  0  0  0  0
   -0.3075   20.8607   43.5313 H   0  0  0  0  0  0  0  0  0  0  0  0
    0.0031   21.9166   42.1118 H   0  0  0  0  0  0  0  0  0  0  0  0
   -1.4067   20.8035   42.1118 H   0  0  0  0  0  0  0  0  0  0  0  0
    2.4008   21.9202   36.0868 H   0  0  0  0  0  0  0  0  0  0  0  0
    2.6606   20.2794   33.7670 H   0  0  0  0  0  0  0  0  0  0  0  0
    4.3323   20.3758   34.3207 H   0  0  0  0  0  0  0  0  0  0  0  0
    4.4836   23.3275   32.9534 H   0  0  0  0  0  0  0  0  0  0  0  0
    0.5519   21.9964   40.0993 H   0  0  0  0  0  0  0  0  0  0  0  0
    4.2900   24.8151   31.9035 H   0  0  0  0  0  0  0  0  0  0  0  0
    4.8741   23.5848   30.7323 H   0  0  0  0  0  0  0  0  0  0  0  0
    3.1462   24.0757   30.7323 H   0  0  0  0  0  0  0  0  0  0  0  0
    3.2264   18.0815   38.7614 H   0  0  0  0  0  0  0  0  0  0  0  0
    2.7408   21.1881   32.0591 H   0  0  0  0  0  0  0  0  0  0  0  0
    2.1854   18.1552   40.9771 H   0  0  0  0  0  0  0  0  0  0  0  0
  1  6  1  0
  2 13  1  0
  3  8  2  0
  5 10  1  0
  6  5  1  0
  7  9  1  0
  7  1  1  0
  8  2  1  0
 10 11  1  0
 11  3  1  0
 11 14  2  0
 12 10  2  0
 13  4  1  0
 14 16  1  0
 15  7  1  0
 16  2  2  0
  1 17  1  0
  1 18  1  0
  3 19  1  0
  4 20  1  0
  4 21  1  0
  4 22  1  0
  5 23  1  0
  6 24  1  0
  6 25  1  0
  7 26  1  1
  8 27  1  0
  9 28  1  0
  9 29  1  0
  9 30  1  0
 14 31  1  0
 15 32  1  0
 16 33  1  0
M  END
>  <mol_id>  (61) 
2026-09-18-3war-s0-n100-0061

>  <rmsd_to_ref>  (61) 


$$$$

     RDKit          3D

 59 61  0  0  0  0  0  0  0  0999 V2000
    2.0650   21.2130   38.2550 C   0  0  0  0  0  0  0  0  0  0  0  0
    2.0320   21.8980   31.7420 C   0  0  0  0  0  0  0  0  0  0  0  0
    2.0160   16.4730   41.7890 O   0  0  0  0  0  0  0  0  0  0  0  0
    3.4450   21.0400   36.2120 C   0  0  0  0  0  0  0  0  0  0  0  0
    1.6120   20.8540   39.4760 C   0  0  0  0  0  0  0  0  0  0  0  0
    2.2150   15.4250   38.2450 C   0  0  0  0  0  0  0  0  0  0  0  0
    2.5740   21.5350   35.3660 C   0  0  0  0  0  0  0  0  0  0  0  0
    2.6020   24.6580   31.5360 C   0  0  1  0  0  0  0  0  0  0  0  0
    3.4840   23.0630   32.0910 S   0  0  1  0  0  4  0  0  0  0  0  0
    2.8300   21.8260   34.3720 N   0  0  0  0  0  0  0  0  0  0  0  0
    3.1600   23.1130   33.8100 C   0  0  1  0  0  0  0  0  0  0  0  0
    2.4240   18.5510   38.9470 C   0  0  0  0  0  0  0  0  0  0  0  0
    1.8580   19.5620   39.8280 C   0  0  0  0  0  0  0  0  0  0  0  0
    2.7960   20.3420   37.3970 C   0  0  0  0  0  0  0  0  0  0  0  0
    1.9770   17.5790   40.9170 C   0  0  0  0  0  0  0  0  0  0  0  0
    2.3510   17.4150   39.6990 N   0  0  0  0  0  0  0  0  0  0  0  0
    0.9600   16.7140   42.7090 C   0  0  0  0  0  0  0  0  0  0  0  0
    4.4180   23.6760   29.6670 O   0  0  0  0  0  0  0  0  0  0  0  0
    3.2500   23.8300   29.5220 C   0  0  0  0  0  0  0  0  0  0  0  0
    1.8050   18.8590   41.1030 N   0  0  0  0  0  0  0  0  0  0  0  0
    0.9390   24.9780   29.7070 O   0  0  0  0  0  0  0  0  0  0  0  0
    2.4120   26.1630   31.3450 C   0  0  0  0  0  0  0  0  0  0  0  0
    1.8590   24.0410   30.3460 C   0  0  2  0  0  0  0  0  0  0  0  0
    2.8930   16.1980   39.2820 C   0  0  0  0  0  0  0  0  0  0  0  0
    4.5460   23.3670   34.3920 C   0  0  0  0  0  0  0  0  0  0  0  0
    2.9110   19.0260   37.7210 C   0  0  0  0  0  0  0  0  0  0  0  0
    0.9380   22.8940   31.1310 C   0  0  0  0  0  0  0  0  0  0  0  0
    1.8579   22.2347   37.9038 H   0  0  0  0  0  0  0  0  0  0  0  0
    2.3111   21.1190   31.0172 H   0  0  0  0  0  0  0  0  0  0  0  0
    1.6829   21.3496   32.6294 H   0  0  0  0  0  0  0  0  0  0  0  0
    4.0717   21.8613   36.5898 H   0  0  0  0  0  0  0  0  0  0  0  0
    4.0358   20.2862   35.6709 H   0  0  0  0  0  0  0  0  0  0  0  0
    1.0826   21.5550   40.1381 H   0  0  0  0  0  0  0  0  0  0  0  0
    1.5592   14.6773   38.7148 H   0  0  0  0  0  0  0  0  0  0  0  0
    1.6124   16.1000   37.6195 H   0  0  0  0  0  0  0  0  0  0  0  0
    2.9628   14.9155   37.6195 H   0  0  0  0  0  0  0  0  0  0  0  0
    1.7840   20.7761   35.2656 H   0  0  0  0  0  0  0  0  0  0  0  0
    2.3464   22.5070   35.8280 H   0  0  0  0  0  0  0  0  0  0  0  0
    2.8393   25.0728   32.5268 H   0  0  0  0  0  0  0  0  0  0  0  0
    4.7562   22.8376   31.6353 H   0  0  0  0  0  0  0  0  0  0  0  0
    3.6507   21.2444   34.1504 H   0  0  0  0  0  0  0  0  0  0  0  0
    1.8810   21.7599   33.9770 H   0  0  0  0  0  0  0  0  0  0  0  0
    2.3443   23.8237   34.0088 H   0  0  0  0  0  0  0  0  0  0  0  0
    1.3421   16.6268   43.7368 H   0  0  0  0  0  0  0  0  0  0  0  0
    0.5601   17.7265   42.5511 H   0  0  0  0  0  0  0  0  0  0  0  0
    0.1604   15.9752   42.5511 H   0  0  0  0  0  0  0  0  0  0  0  0
    3.0255   23.8306   28.4452 H   0  0  0  0  0  0  0  0  0  0  0  0
    0.4450   25.4812   30.4019 H   0  0  0  0  0  0  0  0  0  0  0  0
    2.3502   26.6525   32.3282 H   0  0  0  0  0  0  0  0  0  0  0  0
    3.2656   26.5722   30.7847 H   0  0  0  0  0  0  0  0  0  0  0  0
    1.4835   26.3472   30.7847 H   0  0  0  0  0  0  0  0  0  0  0  0
    2.9549   15.5541   40.1717 H   0  0  0  0  0  0  0  0  0  0  0  0
    3.8425   16.4877   38.8081 H   0  0  0  0  0  0  0  0  0  0  0  0
    4.4899   23.3567   35.4905 H   0  0  0  0  0  0  0  0  0  0  0  0
    5.2360   22.5803   34.0527 H   0  0  0  0  0  0  0  0  0  0  0  0
    4.9122   24.3472   34.0527 H   0  0  0  0  0  0  0  0  0  0  0  0
    3.3893   18.3297   37.0164 H   0  0  0  0  0  0  0  0  0  0  0  0
    0.3335   23.3520   31.9278 H   0  0  0  0  0  0  0  0  0  0  0  0
    0.2205   22.3900   30.4668 H   0  0  0  0  0  0  0  0  0  0  0  0
  1  5  1  0
  2  9  1  0
  3 17  1  0
  4 14  1  0
  5 13  2  0
  6 24  1  0
  7  4  1  0
  8 22  1  0
  8  9  1  0
  9 11  1  0
 10  7  1  0
 11 10  1  0
 11 25  1  0
 12 16  1  0
 12 13  1  0
 13 20  1  0
 14 26  1  0
 14  1  2  0
 15 20  2  0
 15  3  1  0
 16 15  1  0
 19 18  2  0
 19 23  1  0
 23 21  1  6
 23 27  1  0
 23  8  1  0
 24 16  1  0
 26 12  2  0
 27  2  1  0
  1 28  1  0
  2 29  1  0
  2 30  1  0
  4 31  1  0
  4 32  1  0
  5 33  1  0
  6 34  1  0
  6 35  1  0
  6 36  1  0
  7 37  1  0
  7 38  1  0
  8 39  1  1
  9 40  1  1
 10 41  1  0
 10 42  1  0
 11 43  1  6
 17 44  1  0
 17 45  1  0
 17 46  1  0
 19 47  1  0
 21 48  1  0
 22 49  1  0
 22 50  1  0
 22 51  1  0
 24 52  1  0
 24 53  1  0
 25 54  1  0
 25 55  1  0
 25 56  1  0
 26 57  1  0
 27 58  1  0
 27 59  1  0
M  CHG  1  10   1
M  END
>  <mol_id>  (62) 
2026-09-18-3war-s0-n100-0062

>  <rmsd_to_ref>  (62) 


$$$$

     RDKit          3D

 46 48  0  0  0  0  0  0  0  0999 V2000
    2.6160   23.8688   33.4433 C   0  0  0  0  0  0  0  0  0  0  0  0
    0.7771   18.9056   41.6327 C   0  0  0  0  0  0  0  0  0  0  0  0
    1.7990   21.5024   36.6022 C   0  0  0  0  0  0  0  0  0  0  0  0
    2.5903   15.6519   38.6737 C   0  0  0  0  0  0  0  0  0  0  0  0
    0.1052   19.0736   42.7064 C   0  0  0  0  0  0  0  0  0  0  0  0
    1.5544   26.7088   30.3552 C   0  0  0  0  0  0  0  0  0  0  0  0
    1.9966   19.3242   39.8301 C   0  0  0  0  0  0  0  0  0  0  0  0
    1.8615   17.8563   39.7707 C   0  0  2  0  0  0  0  0  0  0  0  0
    0.2558   28.1143   32.0320 O   0  0  0  0  0  0  0  0  0  0  0  0
    2.8890   19.0694   36.8275 C   0  0  0  0  0  0  0  0  0  0  0  0
    2.2982   24.8457   32.3213 C   0  0  0  0  0  0  0  0  0  0  0  0
    0.0639   27.7411   33.3663 C   0  0  0  0  0  0  0  0  0  0  0  0
   -0.4137   19.4242   43.4496 O   0  0  0  0  0  0  0  0  0  0  0  0
    2.4272   20.4035   38.8268 C   0  0  0  0  0  0  0  0  0  0  0  0
    2.3700   17.1455   38.4882 C   0  0  1  0  0  0  0  0  0  0  0  0
    3.2470   18.2408   37.9407 O   0  0  0  0  0  0  0  0  0  0  0  0
    2.8311   24.7475   30.9979 C   0  0  0  0  0  0  0  0  0  0  0  0
    0.9153   17.3082   41.0260 S   0  0  0  0  0  0  0  0  0  0  0  0
    1.4479   25.9230   32.5948 C   0  0  0  0  0  0  0  0  0  0  0  0
    2.5053   21.7925   35.2067 C   0  0  0  0  0  0  0  0  0  0  0  0
    2.4408   25.6960   30.0653 C   0  0  0  0  0  0  0  0  0  0  0  0
    1.0741   26.8893   31.6674 C   0  0  0  0  0  0  0  0  0  0  0  0
    2.1559   20.2657   37.3949 C   0  0  1  0  0  0  0  0  0  0  0  0
    1.9893   22.9779   34.2747 C   0  0  0  0  0  0  0  0  0  0  0  0
    1.4034   19.7873   40.9765 N   0  0  0  0  0  0  0  0  0  0  0  0
    3.6953   23.8818   33.6553 H   0  0  0  0  0  0  0  0  0  0  0  0
    1.0474   22.2047   36.9921 H   0  0  0  0  0  0  0  0  0  0  0  0
    2.7758   15.4379   39.7366 H   0  0  0  0  0  0  0  0  0  0  0  0
    1.6960   15.1052   38.3402 H   0  0  0  0  0  0  0  0  0  0  0  0
    3.4584   15.3327   38.0784 H   0  0  0  0  0  0  0  0  0  0  0  0
    1.2177   27.3838   29.5544 H   0  0  0  0  0  0  0  0  0  0  0  0
    2.4981   16.9698   39.9077 H   0  0  0  0  0  0  0  0  0  0  0  0
    2.2349   18.5159   36.1376 H   0  0  0  0  0  0  0  0  0  0  0  0
    3.7804   19.3820   36.2637 H   0  0  0  0  0  0  0  0  0  0  0  0
    0.9743   27.9613   33.9432 H   0  0  0  0  0  0  0  0  0  0  0  0
   -0.7819   28.3049   33.7867 H   0  0  0  0  0  0  0  0  0  0  0  0
   -0.1515   26.6637   33.4183 H   0  0  0  0  0  0  0  0  0  0  0  0
    1.9411   21.3370   39.1468 H   0  0  0  0  0  0  0  0  0  0  0  0
    3.5246   20.3411   38.8676 H   0  0  0  0  0  0  0  0  0  0  0  0
    1.7737   16.8421   37.6151 H   0  0  0  0  0  0  0  0  0  0  0  0
    3.5304   23.9425   30.7277 H   0  0  0  0  0  0  0  0  0  0  0  0
    1.0470   26.0117   33.6153 H   0  0  0  0  0  0  0  0  0  0  0  0
    3.3541   21.1721   34.8834 H   0  0  0  0  0  0  0  0  0  0  0  0
    2.8577   25.6370   29.0491 H   0  0  0  0  0  0  0  0  0  0  0  0
    1.1127   19.9729   37.2051 H   0  0  0  0  0  0  0  0  0  0  0  0
    0.8975   23.1087   34.3053 H   0  0  0  0  0  0  0  0  0  0  0  0
  1 24  2  3
  2  5  2  0
  5 13  2  0
  6 21  2  0
  6 22  1  0
  7 25  2  0
  8  7  1  0
  8 18  1  0
  9 12  1  0
 10 23  1  0
 10 16  1  0
 11  1  1  0
 14  7  1  0
 15  4  1  0
 15  8  1  0
 16 15  1  0
 17 11  2  0
 18  2  1  0
 19 11  1  0
 20  3  2  3
 21 17  1  0
 22  9  1  0
 22 19  2  0
 23  3  1  0
 23 14  1  0
 24 20  1  0
 25  2  1  0
  1 26  1  0
  3 27  1  0
  4 28  1  0
  4 29  1  0
  4 30  1  0
  6 31  1  0
  8 32  1  1
 10 33  1  0
 10 34  1  0
 12 35  1  0
 12 36  1  0
 12 37  1  0
 14 38  1  0
 14 39  1  0
 15 40  1  6
 17 41  1  0
 19 42  1  0
 20 43  1  0
 21 44  1  0
 23 45  1  1
 24 46  1  0
M  END
>  <mol_id>  (63) 
2026-09-18-3war-s0-n100-0063

>  <rmsd_to_ref>  (63) 


$$$$

     RDKit          3D

 68 72  0  0  0  0  0  0  0  0999 V2000
    2.7470   21.2650   35.6210 C   0  0  2  0  0  0  0  0  0  0  0  0
    1.7480   20.3920   39.2310 C   0  0  0  0  0  0  0  0  0  0  0  0
    4.1260   21.2430   34.6830 C   0  0  2  0  0  0  0  0  0  0  0  0
    4.5480   23.4090   31.7290 C   0  0  0  0  0  0  0  0  0  0  0  0
    4.9480   20.7590   35.5720 O   0  0  0  0  0  0  0  0  0  0  0  0
    4.4080   24.6320   30.2960 O   0  0  0  0  0  0  0  0  0  0  0  0
    0.1750   20.8430   41.6440 C   0  0  0  0  0  0  0  0  0  0  0  0
    2.4510   20.1240   37.9530 C   0  0  0  0  0  0  0  0  0  0  0  0
    3.0880   23.3920   31.8450 C   0  0  0  0  0  0  0  0  0  0  0  0
    2.6490   17.8520   38.6980 C   0  0  0  0  0  0  0  0  0  0  0  0
   -1.0490   19.9100   43.6470 C   0  0  0  0  0  0  0  0  0  0  0  0
    1.8810   25.6910   29.3640 C   0  0  0  0  0  0  0  0  0  0  0  0
    2.9040   16.4310   38.3110 O   0  0  0  0  0  0  0  0  0  0  0  0
    1.5890   19.4050   40.2730 C   0  0  0  0  0  0  0  0  0  0  0  0
    3.9730   23.8410   29.4910 C   0  0  1  0  0  0  0  0  0  0  0  0
    3.0530   22.1870   34.2440 C   0  0  0  0  0  0  0  0  0  0  0  0
    0.5760   18.5350   42.3080 N   0  0  0  0  0  0  0  0  0  0  0  0
    2.6750   15.2280   38.9080 C   0  0  0  0  0  0  0  0  0  0  0  0
    2.9000   18.7070   37.5840 C   0  0  0  0  0  0  0  0  0  0  0  0
    5.5540   24.3330   32.2390 S   0  0  0  0  0  0  0  0  0  0  0  0
    2.2360   18.1560   39.9070 C   0  0  0  0  0  0  0  0  0  0  0  0
    2.4020   24.2640   29.2200 C   0  0  2  0  0  0  0  0  0  0  0  0
   -0.2710   18.5590   43.3930 C   0  0  0  0  0  0  0  0  0  0  0  0
    1.9630   24.9280   28.0890 C   0  0  2  0  0  0  0  0  0  0  0  0
    3.6990   23.8130   26.0100 C   0  0  0  0  0  0  0  0  0  0  0  0
    3.6790   24.6390   27.4160 C   0  0  2  0  0  0  0  0  0  0  0  0
    2.6400   21.3280   37.1570 C   0  0  0  0  0  0  0  0  0  0  0  0
    0.8340   19.5950   41.3850 C   0  0  0  0  0  0  0  0  0  0  0  0
    3.8650   21.9990   32.1350 C   0  0  0  0  0  0  0  0  0  0  0  0
    5.0590   23.1460   26.0920 O   0  0  0  0  0  0  0  0  0  0  0  0
   -0.6890   20.9930   42.8340 C   0  0  0  0  0  0  0  0  0  0  0  0
    5.5390   22.9100   27.5670 C   0  0  0  0  0  0  0  0  0  0  0  0
    4.8260   24.1200   28.2720 C   0  0  2  0  0  0  0  0  0  0  0  0
    1.8609   20.7225   35.9822 H   0  0  0  0  0  0  0  0  0  0  0  0
    1.3258   21.3946   39.3936 H   0  0  0  0  0  0  0  0  0  0  0  0
    4.8726   21.0197   33.9066 H   0  0  0  0  0  0  0  0  0  0  0  0
    5.3284   23.6757   31.0011 H   0  0  0  0  0  0  0  0  0  0  0  0
    4.6077   20.9594   36.4798 H   0  0  0  0  0  0  0  0  0  0  0  0
    4.2273   24.3035   31.2123 H   0  0  0  0  0  0  0  0  0  0  0  0
    0.3130   21.6898   40.9556 H   0  0  0  0  0  0  0  0  0  0  0  0
    2.6047   23.9257   32.6766 H   0  0  0  0  0  0  0  0  0  0  0  0
    2.2689   23.6784   31.1689 H   0  0  0  0  0  0  0  0  0  0  0  0
   -1.8288   19.9958   44.4180 H   0  0  0  0  0  0  0  0  0  0  0  0
    0.9099   25.8919   29.8400 H   0  0  0  0  0  0  0  0  0  0  0  0
    2.2496   26.6500   29.7569 H   0  0  0  0  0  0  0  0  0  0  0  0
    4.0014   22.7815   29.7853 H   0  0  0  0  0  0  0  0  0  0  0  0
    3.2118   23.2710   34.3422 H   0  0  0  0  0  0  0  0  0  0  0  0
    2.5157   22.3394   33.2964 H   0  0  0  0  0  0  0  0  0  0  0  0
    2.6984   15.3507   40.0009 H   0  0  0  0  0  0  0  0  0  0  0  0
    1.6886   14.8490   38.6026 H   0  0  0  0  0  0  0  0  0  0  0  0
    3.4532   14.5131   38.6026 H   0  0  0  0  0  0  0  0  0  0  0  0
    3.3408   18.4008   36.6238 H   0  0  0  0  0  0  0  0  0  0  0  0
    5.5363   24.3168   33.6088 H   0  0  0  0  0  0  0  0  0  0  0  0
    2.3911   17.4106   40.7010 H   0  0  0  0  0  0  0  0  0  0  0  0
    2.1572   23.2981   29.6860 H   0  0  0  0  0  0  0  0  0  0  0  0
   -0.3991   17.6844   44.0478 H   0  0  0  0  0  0  0  0  0  0  0  0
    1.2290   25.0039   27.2732 H   0  0  0  0  0  0  0  0  0  0  0  0
    3.6302   24.4870   25.1434 H   0  0  0  0  0  0  0  0  0  0  0  0
    2.8574   23.1170   25.8785 H   0  0  0  0  0  0  0  0  0  0  0  0
    3.9170   25.7088   27.3220 H   0  0  0  0  0  0  0  0  0  0  0  0
    3.5697   21.7946   37.5147 H   0  0  0  0  0  0  0  0  0  0  0  0
    1.6915   21.8644   37.3078 H   0  0  0  0  0  0  0  0  0  0  0  0
    3.8189   21.1650   31.4192 H   0  0  0  0  0  0  0  0  0  0  0  0
    3.9399   21.2649   32.9508 H   0  0  0  0  0  0  0  0  0  0  0  0
   -1.0642   21.9945   43.0915 H   0  0  0  0  0  0  0  0  0  0  0  0
    5.1919   21.9435   27.9613 H   0  0  0  0  0  0  0  0  0  0  0  0
    6.6299   22.8676   27.7020 H   0  0  0  0  0  0  0  0  0  0  0  0
    5.7062   24.7455   28.4817 H   0  0  0  0  0  0  0  0  0  0  0  0
  1 27  1  0
  2 14  2  0
  3  5  1  0
  3  1  1  0
  4  9  1  0
  4 29  1  0
  4 20  1  0
  7 31  1  0
  8  2  1  0
  9 29  1  0
 10 21  2  0
 13 10  1  0
 13 18  1  0
 14 28  1  0
 15  6  1  0
 16  3  1  0
 16  1  1  0
 17 23  2  0
 19  8  2  0
 19 10  1  0
 21 14  1  0
 22 12  1  0
 22 15  1  0
 23 11  1  0
 24 22  1  0
 24 12  1  0
 25 30  1  0
 26 25  1  0
 26 24  1  0
 26 33  1  0
 27  8  1  0
 28  7  2  0
 28 17  1  0
 30 32  1  0
 31 11  2  0
 33 32  1  0
 33 15  1  0
  1 34  1  6
  2 35  1  0
  3 36  1  6
  4 37  1  0
  5 38  1  0
  6 39  1  0
  7 40  1  0
  9 41  1  0
  9 42  1  0
 11 43  1  0
 12 44  1  0
 12 45  1  0
 15 46  1  1
 16 47  1  0
 16 48  1  0
 18 49  1  0
 18 50  1  0
 18 51  1  0
 19 52  1  0
 20 53  1  0
 21 54  1  0
 22 55  1  1
 23 56  1  0
 24 57  1  6
 25 58  1  0
 25 59  1  0
 26 60  1  6
 27 61  1  0
 27 62  1  0
 29 63  1  0
 29 64  1  0
 31 65  1  0
 32 66  1  0
 32 67  1  0
 33 68  1  1
M  END
>  <mol_id>  (64) 
2026-09-18-3war-s0-n100-0064

>  <rmsd_to_ref>  (64) 


$$$$

     RDKit          3D

 49 48  0  0  0  0  0  0  0  0999 V2000
    0.6949   27.2939   34.3613 C   0  0  0  0  0  0  0  0  0  0  0  0
    3.6317   19.8650   39.6066 C   0  0  0  0  0  0  0  0  0  0  0  0
    3.7793   24.2070   32.9492 O   0  0  0  0  0  0  0  0  0  0  0  0
    3.0719   23.6226   34.3164 C   0  0  0  0  0  0  0  0  0  0  0  0
    2.0006   15.2134   40.1028 C   0  0  0  0  0  0  0  0  0  0  0  0
    2.7931   21.7493   36.5749 C   0  0  0  0  0  0  0  0  0  0  0  0
    2.6045   24.6651   33.0290 C   0  0  0  0  0  0  0  0  0  0  0  0
    3.5505   22.3746   35.1750 C   0  0  0  0  0  0  0  0  0  0  0  0
    3.0207   17.2581   39.1798 C   0  0  1  0  0  0  0  0  0  0  0  0
    3.6199   26.4594   34.0801 O   0  0  0  0  0  0  0  0  0  0  0  0
    2.7742   15.8484   39.0647 C   0  0  0  0  0  0  0  0  0  0  0  0
    1.5479   27.9339   33.3952 C   0  0  0  0  0  0  0  0  0  0  0  0
    3.3283   18.7208   38.7270 C   0  0  0  0  0  0  0  0  0  0  0  0
    3.2824   19.0337   37.4086 C   0  0  0  0  0  0  0  0  0  0  0  0
    2.8090   14.0377   40.8100 C   0  0  0  0  0  0  0  0  0  0  0  0
    3.3349   20.4442   37.1037 C   0  0  0  0  0  0  0  0  0  0  0  0
    2.4485   17.5120   40.6601 O   0  0  0  0  0  0  0  0  0  0  0  0
    3.1735   26.1623   32.8413 C   0  0  2  0  0  0  0  0  0  0  0  0
    2.0107   27.0439   32.3533 C   0  0  0  0  0  0  0  0  0  0  0  0
    1.1652   27.3418   35.3545 H   0  0  0  0  0  0  0  0  0  0  0  0
   -0.2768   27.8086   34.3905 H   0  0  0  0  0  0  0  0  0  0  0  0
    0.5442   26.2419   34.0774 H   0  0  0  0  0  0  0  0  0  0  0  0
    3.6781   19.5225   40.6509 H   0  0  0  0  0  0  0  0  0  0  0  0
    4.6002   20.3009   39.3203 H   0  0  0  0  0  0  0  0  0  0  0  0
    2.8430   20.6250   39.5047 H   0  0  0  0  0  0  0  0  0  0  0  0
    3.0703   24.4683   35.0199 H   0  0  0  0  0  0  0  0  0  0  0  0
    2.1567   23.1983   33.8777 H   0  0  0  0  0  0  0  0  0  0  0  0
    1.0836   14.7980   39.6594 H   0  0  0  0  0  0  0  0  0  0  0  0
    1.7644   15.9711   40.8643 H   0  0  0  0  0  0  0  0  0  0  0  0
    1.9564   22.2703   37.0633 H   0  0  0  0  0  0  0  0  0  0  0  0
    1.9376   24.3337   32.2194 H   0  0  0  0  0  0  0  0  0  0  0  0
    1.9678   24.4161   33.8907 H   0  0  0  0  0  0  0  0  0  0  0  0
    4.4615   21.8605   34.8345 H   0  0  0  0  0  0  0  0  0  0  0  0
    3.5783   17.0682   38.2508 H   0  0  0  0  0  0  0  0  0  0  0  0
    3.2694   25.7953   34.7252 H   0  0  0  0  0  0  0  0  0  0  0  0
    2.2448   15.6846   38.1145 H   0  0  0  0  0  0  0  0  0  0  0  0
    3.7697   15.3865   39.1398 H   0  0  0  0  0  0  0  0  0  0  0  0
    0.9873   28.7563   32.9267 H   0  0  0  0  0  0  0  0  0  0  0  0
    2.4378   28.2894   33.9353 H   0  0  0  0  0  0  0  0  0  0  0  0
    3.2102   18.2656   36.6246 H   0  0  0  0  0  0  0  0  0  0  0  0
    2.7043   14.1257   41.9015 H   0  0  0  0  0  0  0  0  0  0  0  0
    2.4088   13.0676   40.4802 H   0  0  0  0  0  0  0  0  0  0  0  0
    3.8721   14.1078   40.5367 H   0  0  0  0  0  0  0  0  0  0  0  0
    4.2524   20.4201   36.4973 H   0  0  0  0  0  0  0  0  0  0  0  0
    2.7529   20.6217   38.0201 H   0  0  0  0  0  0  0  0  0  0  0  0
    3.0139   17.0358   41.3186 H   0  0  0  0  0  0  0  0  0  0  0  0
    3.9758   26.3018   32.1018 H   0  0  0  0  0  0  0  0  0  0  0  0
    2.3518   27.6434   31.4963 H   0  0  0  0  0  0  0  0  0  0  0  0
    1.1770   26.3872   32.0644 H   0  0  0  0  0  0  0  0  0  0  0  0
  3  4  1  0
  4  8  1  0
  5 15  1  0
  6 16  1  0
  7  3  1  0
  8  6  2  3
  9 11  1  0
  9 17  1  0
 11  5  1  0
 12  1  1  0
 13  9  1  0
 13  2  1  0
 14 13  2  3
 16 14  1  0
 18  7  1  0
 18 10  1  0
 19 18  1  0
 19 12  1  0
  1 20  1  0
  1 21  1  0
  1 22  1  0
  2 23  1  0
  2 24  1  0
  2 25  1  0
  4 26  1  0
  4 27  1  0
  5 28  1  0
  5 29  1  0
  6 30  1  0
  7 31  1  0
  7 32  1  0
  8 33  1  0
  9 34  1  1
 10 35  1  0
 11 36  1  0
 11 37  1  0
 12 38  1  0
 12 39  1  0
 14 40  1  0
 15 41  1  0
 15 42  1  0
 15 43  1  0
 16 44  1  0
 16 45  1  0
 17 46  1  0
 18 47  1  6
 19 48  1  0
 19 49  1  0
M  END
>  <mol_id>  (65) 
2026-09-18-3war-s0-n100-0065

>  <rmsd_to_ref>  (65) 


$$$$

     RDKit          3D

 75 78  0  0  0  0  0  0  0  0999 V2000
    2.4380   18.2080   39.8160 C   0  0  2  0  0  0  0  0  0  0  0  0
    2.9330   19.5050   39.3340 C   0  0  0  0  0  0  0  0  0  0  0  0
    2.1880   20.7770   39.5300 C   0  0  0  0  0  0  0  0  0  0  0  0
    4.5880   24.4360   30.1100 O   0  0  0  0  0  0  0  0  0  0  0  0
    0.1180   16.6440   43.0540 C   0  0  0  0  0  0  0  0  0  0  0  0
    0.9870   18.5230   41.9430 C   0  0  0  0  0  0  0  0  0  0  0  0
    0.6410   27.3600   31.4780 N   0  0  0  0  0  0  0  0  0  0  0  0
    2.9200   17.3050   38.9230 N   0  0  0  0  0  0  0  0  0  0  0  0
    2.8310   16.0330   39.0680 C   0  0  0  0  0  0  0  0  0  0  0  0
    2.8840   19.3800   37.7150 C   0  0  0  0  0  0  0  0  0  0  0  0
    0.8230   15.8510   42.4370 C   0  0  0  0  0  0  0  0  0  0  0  0
    4.0750   24.0460   31.2790 C   0  0  0  0  0  0  0  0  0  0  0  0
    4.4530   14.9890   37.2120 C   0  0  0  0  0  0  0  0  0  0  0  0
    0.2400   17.9690   42.9880 C   0  0  0  0  0  0  0  0  0  0  0  0
    0.9410   23.4430   34.5590 C   0  0  0  0  0  0  0  0  0  0  0  0
    2.0780   24.2250   32.6520 C   0  0  2  0  0  0  0  0  0  0  0  0
    2.1550   15.5600   40.1520 N   0  0  0  0  0  0  0  0  0  0  0  0
    1.2260   26.1540   31.6900 C   0  0  2  0  0  0  0  0  0  0  0  0
    1.7080   17.6580   41.0560 C   0  0  0  0  0  0  0  0  0  0  0  0
    3.1860   15.2530   37.7610 C   0  0  0  0  0  0  0  0  0  0  0  0
   -0.9040   15.6480   43.9940 N   0  0  0  0  0  0  0  0  0  0  0  0
    4.6820   23.1130   32.2090 C   0  0  0  0  0  0  0  0  0  0  0  0
    1.6180   16.2190   41.3940 C   0  0  0  0  0  0  0  0  0  0  0  0
    2.8430   24.6390   31.6040 C   0  0  0  0  0  0  0  0  0  0  0  0
    1.8510   23.1210   33.4820 C   0  0  1  0  0  0  0  0  0  0  0  0
    3.7900   14.0710   38.0120 C   0  0  0  0  0  0  0  0  0  0  0  0
    2.3190   25.7230   30.8250 C   0  0  0  0  0  0  0  0  0  0  0  0
    0.8820   25.2210   32.8160 C   0  0  0  0  0  0  0  0  0  0  0  0
    1.9730   15.1340   36.8540 N   0  0  0  0  0  0  0  0  0  0  0  0
    4.2520   22.5030   33.3320 C   0  0  0  0  0  0  0  0  0  0  0  0
    2.9970   22.3280   33.8450 C   0  0  0  0  0  0  0  0  0  0  0  0
    4.3440   19.3990   39.7200 C   0  0  0  0  0  0  0  0  0  0  0  0
    3.4064   18.0191   40.3023 H   0  0  0  0  0  0  0  0  0  0  0  0
    2.0734   20.9727   40.6064 H   0  0  0  0  0  0  0  0  0  0  0  0
    2.7448   21.6035   39.0643 H   0  0  0  0  0  0  0  0  0  0  0  0
    1.1948   20.6957   39.0643 H   0  0  0  0  0  0  0  0  0  0  0  0
    5.4540   24.0681   29.8021 H   0  0  0  0  0  0  0  0  0  0  0  0
    1.0208   19.6135   41.8031 H   0  0  0  0  0  0  0  0  0  0  0  0
    0.4268   27.8016   32.3835 H   0  0  0  0  0  0  0  0  0  0  0  0
    1.2828   27.9639   30.9448 H   0  0  0  0  0  0  0  0  0  0  0  0
   -0.2306   27.2298   30.9448 H   0  0  0  0  0  0  0  0  0  0  0  0
    2.4957   18.3895   37.4353 H   0  0  0  0  0  0  0  0  0  0  0  0
    2.2253   20.1607   37.3067 H   0  0  0  0  0  0  0  0  0  0  0  0
    3.8977   19.5051   37.3067 H   0  0  0  0  0  0  0  0  0  0  0  0
    0.8123   14.7938   42.7405 H   0  0  0  0  0  0  0  0  0  0  0  0
    4.5643   14.8076   36.1328 H   0  0  0  0  0  0  0  0  0  0  0  0
    5.4368   15.4810   37.2225 H   0  0  0  0  0  0  0  0  0  0  0  0
   -0.2371   18.6145   43.7402 H   0  0  0  0  0  0  0  0  0  0  0  0
    1.4384   23.2670   35.5242 H   0  0  0  0  0  0  0  0  0  0  0  0
    0.6459   24.5001   34.4860 H   0  0  0  0  0  0  0  0  0  0  0  0
    0.0467   22.8067   34.4860 H   0  0  0  0  0  0  0  0  0  0  0  0
    3.0773   23.8094   32.8485 H   0  0  0  0  0  0  0  0  0  0  0  0
    1.9750   14.5466   40.1139 H   0  0  0  0  0  0  0  0  0  0  0  0
    1.9881   26.6346   32.3211 H   0  0  0  0  0  0  0  0  0  0  0  0
   -1.6063   16.0725   44.6164 H   0  0  0  0  0  0  0  0  0  0  0  0
   -0.8177   14.6231   43.9382 H   0  0  0  0  0  0  0  0  0  0  0  0
    4.9728   22.2711   31.5636 H   0  0  0  0  0  0  0  0  0  0  0  0
    5.2996   23.8631   32.7248 H   0  0  0  0  0  0  0  0  0  0  0  0
    1.3309   22.3921   32.8432 H   0  0  0  0  0  0  0  0  0  0  0  0
    3.3893   13.1487   37.5661 H   0  0  0  0  0  0  0  0  0  0  0  0
    4.0515   13.5226   38.9290 H   0  0  0  0  0  0  0  0  0  0  0  0
    3.0639   26.5195   30.6814 H   0  0  0  0  0  0  0  0  0  0  0  0
    2.0201   25.4545   29.8010 H   0  0  0  0  0  0  0  0  0  0  0  0
   -0.0913   24.7305   32.6673 H   0  0  0  0  0  0  0  0  0  0  0  0
    0.7733   25.6835   33.8081 H   0  0  0  0  0  0  0  0  0  0  0  0
    1.1219   15.0505   37.4281 H   0  0  0  0  0  0  0  0  0  0  0  0
    1.9053   15.9724   36.2595 H   0  0  0  0  0  0  0  0  0  0  0  0
    2.0695   14.2984   36.2595 H   0  0  0  0  0  0  0  0  0  0  0  0
    4.6398   21.4781   33.2367 H   0  0  0  0  0  0  0  0  0  0  0  0
    4.5703   23.2872   34.0347 H   0  0  0  0  0  0  0  0  0  0  0  0
    3.1036   22.4428   34.9338 H   0  0  0  0  0  0  0  0  0  0  0  0
    2.7262   21.3605   33.3971 H   0  0  0  0  0  0  0  0  0  0  0  0
    4.4246   19.3929   40.8170 H   0  0  0  0  0  0  0  0  0  0  0  0
    4.7656   18.4667   39.3162 H   0  0  0  0  0  0  0  0  0  0  0  0
    4.9001   20.2579   39.3162 H   0  0  0  0  0  0  0  0  0  0  0  0
  1  2  1  0
  1 19  1  0
  2  3  1  0
  2 32  1  0
  4 12  1  0
  5 21  1  0
  6 14  2  0
  8  9  2  0
  8  1  1  0
  9 17  1  0
 10  2  1  0
 11  5  2  0
 12 24  2  0
 12 22  1  0
 13 20  1  0
 13 26  1  0
 14  5  1  0
 16 28  1  0
 16 25  1  0
 17 23  1  0
 18  7  1  0
 18 28  1  0
 19 23  2  0
 19  6  1  0
 20 26  1  0
 20  9  1  0
 22 30  1  0
 23 11  1  0
 24 16  1  0
 25 31  1  0
 25 15  1  0
 27 24  1  0
 27 18  1  0
 29 20  1  0
 30 31  1  0
  1 33  1  6
  3 34  1  0
  3 35  1  0
  3 36  1  0
  4 37  1  0
  6 38  1  0
  7 39  1  0
  7 40  1  0
  7 41  1  0
 10 42  1  0
 10 43  1  0
 10 44  1  0
 11 45  1  0
 13 46  1  0
 13 47  1  0
 14 48  1  0
 15 49  1  0
 15 50  1  0
 15 51  1  0
 16 52  1  1
 17 53  1  0
 18 54  1  6
 21 55  1  0
 21 56  1  0
 22 57  1  0
 22 58  1  0
 25 59  1  6
 26 60  1  0
 26 61  1  0
 27 62  1  0
 27 63  1  0
 28 64  1  0
 28 65  1  0
 29 66  1  0
 29 67  1  0
 29 68  1  0
 30 69  1  0
 30 70  1  0
 31 71  1  0
 31 72  1  0
 32 73  1  0
 32 74  1  0
 32 75  1  0
M  CHG  2   7   1  29   1
M  END
>  <mol_id>  (66) 
2026-09-18-3war-s0-n100-0066

>  <rmsd_to_ref>  (66) 


$$$$

     RDKit          3D

 58 59  0  0  0  0  0  0  0  0999 V2000
    1.5200   19.7090   40.5720 C   0  0  0  0  0  0  0  0  0  0  0  0
    4.2940   24.1550   29.4680 C   0  0  0  0  0  0  0  0  0  0  0  0
   -0.8330   18.2040   43.7350 O   0  0  0  0  0  0  0  0  0  0  0  0
    0.7050   17.7930   41.7940 C   0  0  0  0  0  0  0  0  0  0  0  0
    3.1310   19.8020   36.9140 N   0  0  0  0  0  0  0  0  0  0  0  0
    0.8900   20.6470   41.4150 C   0  0  0  0  0  0  0  0  0  0  0  0
    3.2720   19.3150   39.1920 C   0  0  0  0  0  0  0  0  0  0  0  0
    3.7600   17.7090   37.4580 O   0  0  0  0  0  0  0  0  0  0  0  0
    2.9270   25.7070   29.9490 C   0  0  0  0  0  0  0  0  0  0  0  0
    2.7060   21.0300   36.1170 C   0  0  0  0  0  0  0  0  0  0  0  0
    3.7230   24.5950   31.7930 C   0  0  0  0  0  0  0  0  0  0  0  0
    4.1340   21.3270   33.9630 N   0  0  0  0  0  0  0  0  0  0  0  0
    2.0510   20.2790   39.3240 N   0  0  0  0  0  0  0  0  0  0  0  0
    0.1980   20.1040   42.3810 C   0  0  0  0  0  0  0  0  0  0  0  0
    3.7380   24.5470   28.2810 C   0  0  0  0  0  0  0  0  0  0  0  0
    4.1020   22.7300   33.1430 C   0  0  0  0  0  0  0  0  0  0  0  0
    1.5450   18.3220   40.8000 C   0  0  0  0  0  0  0  0  0  0  0  0
    4.9050   23.1640   29.3070 C   0  0  0  0  0  0  0  0  0  0  0  0
    4.7760   23.5960   33.5470 C   0  0  0  0  0  0  0  0  0  0  0  0
    2.2750   16.6770   40.3480 C   0  0  0  0  0  0  0  0  0  0  0  0
    2.7250   25.3190   28.6130 C   0  0  0  0  0  0  0  0  0  0  0  0
    3.7380   24.8430   30.5440 C   0  0  1  0  0  0  0  0  0  0  0  0
    0.0080   18.7140   42.5830 C   0  0  0  0  0  0  0  0  0  0  0  0
    4.0290   22.8180   31.8390 C   0  0  0  0  0  0  0  0  0  0  0  0
    3.4200   21.5820   35.1750 C   0  0  0  0  0  0  0  0  0  0  0  0
    3.3860   18.8640   37.7720 C   0  0  0  0  0  0  0  0  0  0  0  0
   -1.3328   18.8421   44.3035 H   0  0  0  0  0  0  0  0  0  0  0  0
    0.6006   16.7083   41.9444 H   0  0  0  0  0  0  0  0  0  0  0  0
    3.5981   19.3350   36.1237 H   0  0  0  0  0  0  0  0  0  0  0  0
    0.9733   21.7346   41.2727 H   0  0  0  0  0  0  0  0  0  0  0  0
    4.1914   19.8423   39.4862 H   0  0  0  0  0  0  0  0  0  0  0  0
    3.1294   18.4435   39.8479 H   0  0  0  0  0  0  0  0  0  0  0  0
    1.9612   25.7251   30.4753 H   0  0  0  0  0  0  0  0  0  0  0  0
    3.3783   26.7098   29.9746 H   0  0  0  0  0  0  0  0  0  0  0  0
    1.7504   20.7597   35.6441 H   0  0  0  0  0  0  0  0  0  0  0  0
    2.7587   21.8063   36.8946 H   0  0  0  0  0  0  0  0  0  0  0  0
    2.7470   24.8423   32.2361 H   0  0  0  0  0  0  0  0  0  0  0  0
    4.4555   25.1820   32.3664 H   0  0  0  0  0  0  0  0  0  0  0  0
    5.1049   21.0508   34.1676 H   0  0  0  0  0  0  0  0  0  0  0  0
    3.7125   20.5573   33.4237 H   0  0  0  0  0  0  0  0  0  0  0  0
    1.7250   21.0569   38.7328 H   0  0  0  0  0  0  0  0  0  0  0  0
   -0.2791   20.7854   43.1008 H   0  0  0  0  0  0  0  0  0  0  0  0
    3.3870   23.6733   27.7122 H   0  0  0  0  0  0  0  0  0  0  0  0
    4.4625   25.0718   27.6409 H   0  0  0  0  0  0  0  0  0  0  0  0
    5.2185   22.8695   28.2946 H   0  0  0  0  0  0  0  0  0  0  0  0
    5.1634   22.5310   30.1687 H   0  0  0  0  0  0  0  0  0  0  0  0
    4.7925   24.5669   33.0302 H   0  0  0  0  0  0  0  0  0  0  0  0
    5.3935   23.4397   34.4438 H   0  0  0  0  0  0  0  0  0  0  0  0
    2.5217   16.1210   41.2645 H   0  0  0  0  0  0  0  0  0  0  0  0
    1.5471   16.1031   39.7558 H   0  0  0  0  0  0  0  0  0  0  0  0
    3.1890   16.8317   39.7558 H   0  0  0  0  0  0  0  0  0  0  0  0
    2.6958   26.2053   27.9621 H   0  0  0  0  0  0  0  0  0  0  0  0
    1.7698   24.7856   28.4984 H   0  0  0  0  0  0  0  0  0  0  0  0
    4.4836   24.9663   31.3433 H   0  0  0  0  0  0  0  0  0  0  0  0
    3.1985   22.2319   31.4185 H   0  0  0  0  0  0  0  0  0  0  0  0
    4.8840   22.4390   31.2600 H   0  0  0  0  0  0  0  0  0  0  0  0
    4.2161   22.0434   35.7778 H   0  0  0  0  0  0  0  0  0  0  0  0
    2.5105   21.8269   34.6068 H   0  0  0  0  0  0  0  0  0  0  0  0
  1 17  2  0
  1  6  1  0
  2 22  1  0
  4 23  2  0
  5 26  1  0
  6 14  2  0
  7 13  1  0
  8 26  2  0
  9 22  1  0
 10  5  1  0
 11 24  1  0
 12 25  1  0
 13  1  1  0
 14 23  1  0
 15 21  1  0
 15  2  1  0
 16 19  2  3
 16 12  1  0
 17  4  1  0
 18  2  2  3
 20 17  1  0
 21  9  1  0
 22 11  1  0
 23  3  1  0
 24 16  1  0
 25 10  1  0
 26  7  1  0
  3 27  1  0
  4 28  1  0
  5 29  1  0
  6 30  1  0
  7 31  1  0
  7 32  1  0
  9 33  1  0
  9 34  1  0
 10 35  1  0
 10 36  1  0
 11 37  1  0
 11 38  1  0
 12 39  1  0
 12 40  1  0
 13 41  1  0
 14 42  1  0
 15 43  1  0
 15 44  1  0
 18 45  1  0
 18 46  1  0
 19 47  1  0
 19 48  1  0
 20 49  1  0
 20 50  1  0
 20 51  1  0
 21 52  1  0
 21 53  1  0
 22 54  1  1
 24 55  1  0
 24 56  1  0
 25 57  1  0
 25 58  1  0
M  CHG  1  12   1
M  END
>  <mol_id>  (67) 
2026-09-18-3war-s0-n100-0067

>  <rmsd_to_ref>  (67) 


$$$$

     RDKit          3D

 40 40  0  0  0  0  0  0  0  0999 V2000
    4.7802   22.8794   34.5185 C   0  0  0  0  0  0  0  0  0  0  0  0
    2.5583   18.6059   38.9504 C   0  0  0  0  0  0  0  0  0  0  0  0
    1.7900   19.4367   40.8932 F   0  0  0  0  0  0  0  0  0  0  0  0
    3.2969   20.9556   39.0530 C   0  0  0  0  0  0  0  0  0  0  0  0
    2.8085   17.6199   41.1685 F   0  0  0  0  0  0  0  0  0  0  0  0
    3.4274   24.3321   32.6598 O   0  0  0  0  0  0  0  0  0  0  0  0
    3.7211   20.4064   36.8406 C   0  0  0  0  0  0  0  0  0  0  0  0
    4.8102   23.3966   30.8605 C   0  0  0  0  0  0  0  0  0  0  0  0
    4.2982   21.9814   41.1809 C   0  0  0  0  0  0  0  0  0  0  0  0
    4.0274   19.3419   40.6494 C   0  0  0  0  0  0  0  0  0  0  0  0
    3.0167   19.8651   38.1171 C   0  0  1  0  0  0  0  0  0  0  0  0
    3.9903   20.8288   40.2473 C   0  0  1  0  0  0  0  0  0  0  0  0
    2.7931   18.6900   40.3629 C   0  0  0  0  0  0  0  0  0  0  0  0
    3.3620   21.6031   36.1941 C   0  0  0  0  0  0  0  0  0  0  0  0
    4.9632   22.6807   33.1058 N   0  0  0  0  0  0  0  0  0  0  0  0
    3.9146   21.6940   35.0003 C   0  0  0  0  0  0  0  0  0  0  0  0
    4.3218   23.5153   32.3412 C   0  0  0  0  0  0  0  0  0  0  0  0
    4.2645   23.8324   34.7078 H   0  0  0  0  0  0  0  0  0  0  0  0
    5.7423   22.9211   35.0501 H   0  0  0  0  0  0  0  0  0  0  0  0
    3.0998   17.7286   38.5669 H   0  0  0  0  0  0  0  0  0  0  0  0
    1.4675   18.5380   38.8257 H   0  0  0  0  0  0  0  0  0  0  0  0
    2.3132   21.3633   39.3288 H   0  0  0  0  0  0  0  0  0  0  0  0
    4.0248   21.5344   38.4655 H   0  0  0  0  0  0  0  0  0  0  0  0
    4.7816   20.5190   37.1097 H   0  0  0  0  0  0  0  0  0  0  0  0
    3.4059   19.6618   36.0948 H   0  0  0  0  0  0  0  0  0  0  0  0
    5.8043   23.8576   30.7643 H   0  0  0  0  0  0  0  0  0  0  0  0
    4.8693   22.3351   30.5779 H   0  0  0  0  0  0  0  0  0  0  0  0
    4.1006   23.9136   30.1978 H   0  0  0  0  0  0  0  0  0  0  0  0
    4.0857   21.6804   42.2174 H   0  0  0  0  0  0  0  0  0  0  0  0
    5.3598   22.2545   41.0886 H   0  0  0  0  0  0  0  0  0  0  0  0
    3.6726   22.8461   40.9146 H   0  0  0  0  0  0  0  0  0  0  0  0
    4.8331   18.8414   40.0923 H   0  0  0  0  0  0  0  0  0  0  0  0
    4.2040   19.2829   41.7336 H   0  0  0  0  0  0  0  0  0  0  0  0
    2.3416   19.3022   37.4557 H   0  0  0  0  0  0  0  0  0  0  0  0
    5.0054   21.2484   40.1873 H   0  0  0  0  0  0  0  0  0  0  0  0
    2.2680   21.6354   36.0846 H   0  0  0  0  0  0  0  0  0  0  0  0
    3.7205   22.4450   36.8045 H   0  0  0  0  0  0  0  0  0  0  0  0
    5.5594   21.9312   32.7266 H   0  0  0  0  0  0  0  0  0  0  0  0
    3.0819   21.6274   34.2846 H   0  0  0  0  0  0  0  0  0  0  0  0
    4.6770   20.9043   35.0711 H   0  0  0  0  0  0  0  0  0  0  0  0
  1 16  1  0
  2 13  1  0
  4 12  1  0
  8 17  1  0
 11  7  1  0
 11  2  1  0
 11  4  1  0
 12 10  1  0
 12  9  1  0
 13 10  1  0
 13  5  1  0
 13  3  1  0
 14  7  1  0
 15  1  1  0
 16 14  1  0
 17  6  2  0
 17 15  1  0
  1 18  1  0
  1 19  1  0
  2 20  1  0
  2 21  1  0
  4 22  1  0
  4 23  1  0
  7 24  1  0
  7 25  1  0
  8 26  1  0
  8 27  1  0
  8 28  1  0
  9 29  1  0
  9 30  1  0
  9 31  1  0
 10 32  1  0
 10 33  1  0
 11 34  1  6
 12 35  1  6
 14 36  1  0
 14 37  1  0
 15 38  1  0
 16 39  1  0
 16 40  1  0
M  END
>  <mol_id>  (68) 
2026-09-18-3war-s0-n100-0068

>  <rmsd_to_ref>  (68) 


$$$$

     RDKit          3D

 70 73  0  0  0  0  0  0  0  0999 V2000
    2.6831   18.7467   41.0877 N   0  0  0  0  0  0  0  0  0  0  0  0
    2.9314   17.4424   40.5433 C   0  0  1  0  0  0  0  0  0  0  0  0
    3.8497   25.1735   30.5231 C   0  0  2  0  0  0  0  0  0  0  0  0
   -0.0845   14.8107   41.2531 C   0  0  0  0  0  0  0  0  0  0  0  0
    3.0440   19.8707   40.5257 C   0  0  0  0  0  0  0  0  0  0  0  0
    2.9664   17.2463   36.5807 O   0  0  0  0  0  0  0  0  0  0  0  0
    2.3287   15.0928   41.3214 C   0  0  0  0  0  0  0  0  0  0  0  0
    3.3786   20.5598   35.1695 C   0  0  1  0  0  0  0  0  0  0  0  0
    4.0017   23.2624   32.7782 C   0  0  1  0  0  0  0  0  0  0  0  0
    3.1663   19.6853   37.6924 C   0  0  0  0  0  0  0  0  0  0  0  0
    4.2501   22.9889   31.3574 O   0  0  0  0  0  0  0  0  0  0  0  0
    5.0810   17.4680   37.6269 O   0  0  0  0  0  0  0  0  0  0  0  0
    1.8995   27.2137   30.5003 C   0  0  2  0  0  0  0  0  0  0  0  0
    3.2278   25.4655   31.8628 C   0  0  0  0  0  0  0  0  0  0  0  0
    3.0265   25.2912   29.3550 O   0  0  0  0  0  0  0  0  0  0  0  0
    3.6507   17.7980   37.7011 S   0  0  0  0  0  6  0  0  0  0  0  0
    3.2646   24.5876   32.9281 C   0  0  0  0  0  0  0  0  0  0  0  0
    2.9859   16.4128   41.5678 C   0  0  0  0  0  0  0  0  0  0  0  0
    2.9958   20.0604   39.0601 C   0  0  0  0  0  0  0  0  0  0  0  0
    3.2190   22.0056   34.6281 C   0  0  0  0  0  0  0  0  0  0  0  0
    2.0150   18.8715   42.3115 O   0  0  0  0  0  0  0  0  0  0  0  0
    0.7013   28.0671   30.6005 C   0  0  0  0  0  0  0  0  0  0  0  0
    3.2431   20.4980   36.4013 C   0  0  1  0  0  0  0  0  0  0  0  0
    1.7278   25.9373   29.4576 C   0  0  2  0  0  0  0  0  0  0  0  0
    4.7329   23.9385   30.4831 C   0  0  0  0  0  0  0  0  0  0  0  0
    1.3221   13.9840   39.5995 C   0  0  0  0  0  0  0  0  0  0  0  0
    1.1889   15.0322   40.5301 N   0  0  0  0  0  0  0  0  0  0  0  0
    1.4118   26.3940   27.7855 C   0  0  0  0  0  0  0  0  0  0  0  0
    2.4085   26.7842   31.9639 C   0  0  0  0  0  0  0  0  0  0  0  0
    3.2193   19.6321   35.4353 O   0  0  0  0  0  0  0  0  0  0  0  0
    3.0441   17.2270   39.2840 N   0  0  0  0  0  0  0  0  0  0  0  0
    3.6891   21.5322   33.2914 C   0  0  0  0  0  0  0  0  0  0  0  0
    3.5921   20.9083   41.3524 C   0  0  0  0  0  0  0  0  0  0  0  0
    4.0143   17.6045   40.6487 H   0  0  0  0  0  0  0  0  0  0  0  0
    4.5109   26.0489   30.4434 H   0  0  0  0  0  0  0  0  0  0  0  0
    0.1284   14.5655   42.3041 H   0  0  0  0  0  0  0  0  0  0  0  0
   -0.6964   15.7236   41.2062 H   0  0  0  0  0  0  0  0  0  0  0  0
   -0.6314   13.9784   40.7860 H   0  0  0  0  0  0  0  0  0  0  0  0
    3.0810   14.4445   40.8485 H   0  0  0  0  0  0  0  0  0  0  0  0
    1.9676   14.7949   42.3168 H   0  0  0  0  0  0  0  0  0  0  0  0
    3.7946   20.6339   34.1539 H   0  0  0  0  0  0  0  0  0  0  0  0
    4.6631   23.6188   33.5816 H   0  0  0  0  0  0  0  0  0  0  0  0
    2.6926   27.8203   30.0387 H   0  0  0  0  0  0  0  0  0  0  0  0
    2.7668   24.8423   33.8753 H   0  0  0  0  0  0  0  0  0  0  0  0
    4.0496   16.2094   41.7605 H   0  0  0  0  0  0  0  0  0  0  0  0
    2.4019   16.8414   42.3956 H   0  0  0  0  0  0  0  0  0  0  0  0
    2.1850   22.3806   34.6374 H   0  0  0  0  0  0  0  0  0  0  0  0
    3.7073   22.8537   35.1305 H   0  0  0  0  0  0  0  0  0  0  0  0
    2.6142   18.5841   43.0454 H   0  0  0  0  0  0  0  0  0  0  0  0
    0.4756   28.2594   31.6598 H   0  0  0  0  0  0  0  0  0  0  0  0
    0.8869   29.0215   30.0860 H   0  0  0  0  0  0  0  0  0  0  0  0
   -0.1525   27.5572   30.1304 H   0  0  0  0  0  0  0  0  0  0  0  0
    2.1544   20.4032   36.2767 H   0  0  0  0  0  0  0  0  0  0  0  0
    0.8941   25.3402   29.8558 H   0  0  0  0  0  0  0  0  0  0  0  0
    4.7379   23.5264   29.4633 H   0  0  0  0  0  0  0  0  0  0  0  0
    5.7561   24.2150   30.7772 H   0  0  0  0  0  0  0  0  0  0  0  0
    1.7837   13.1144   40.0902 H   0  0  0  0  0  0  0  0  0  0  0  0
    0.3292   13.7049   39.2170 H   0  0  0  0  0  0  0  0  0  0  0  0
    1.9575   14.3137   38.7643 H   0  0  0  0  0  0  0  0  0  0  0  0
    2.3346   26.7838   27.3312 H   0  0  0  0  0  0  0  0  0  0  0  0
    1.0701   25.5127   27.2230 H   0  0  0  0  0  0  0  0  0  0  0  0
    0.6333   27.1707   27.7584 H   0  0  0  0  0  0  0  0  0  0  0  0
    3.0445   27.5800   32.3788 H   0  0  0  0  0  0  0  0  0  0  0  0
    1.5410   26.6271   32.6218 H   0  0  0  0  0  0  0  0  0  0  0  0
    2.0489   17.1080   39.0468 H   0  0  0  0  0  0  0  0  0  0  0  0
    2.9152   21.0222   32.6991 H   0  0  0  0  0  0  0  0  0  0  0  0
    4.4885   20.7800   33.2196 H   0  0  0  0  0  0  0  0  0  0  0  0
    3.9011   20.4827   42.3185 H   0  0  0  0  0  0  0  0  0  0  0  0
    4.4647   21.3534   40.8519 H   0  0  0  0  0  0  0  0  0  0  0  0
    2.8306   21.6841   41.5202 H   0  0  0  0  0  0  0  0  0  0  0  0
  1 21  1  0
  2  1  1  0
  2 18  1  0
  3 25  1  0
  3 14  1  0
  5  1  1  0
  5 33  1  0
  6 16  2  0
  7 18  1  0
  8 20  1  0
  8 30  1  0
  8 23  1  0
  9 32  1  0
 10 16  1  0
 10 19  2  0
 11  9  1  0
 13 22  1  0
 13 29  1  0
 14 17  2  0
 15  3  1  0
 16 12  2  0
 16 31  1  0
 17  9  1  0
 19  5  2  0
 23 10  1  0
 24 28  1  0
 24 15  1  0
 24 13  1  0
 25 11  1  0
 26 27  1  0
 27  4  1  0
 27  7  1  0
 29 14  1  0
 30 23  1  0
 31  2  1  0
 32 20  1  0
  2 34  1  1
  3 35  1  6
  4 36  1  0
  4 37  1  0
  4 38  1  0
  7 39  1  0
  7 40  1  0
  8 41  1  1
  9 42  1  1
 13 43  1  6
 17 44  1  0
 18 45  1  0
 18 46  1  0
 20 47  1  0
 20 48  1  0
 21 49  1  0
 22 50  1  0
 22 51  1  0
 22 52  1  0
 23 53  1  6
 24 54  1  1
 25 55  1  0
 25 56  1  0
 26 57  1  0
 26 58  1  0
 26 59  1  0
 28 60  1  0
 28 61  1  0
 28 62  1  0
 29 63  1  0
 29 64  1  0
 31 65  1  0
 32 66  1  0
 32 67  1  0
 33 68  1  0
 33 69  1  0
 33 70  1  0
M  END
>  <mol_id>  (69) 
2026-09-18-3war-s0-n100-0069

>  <rmsd_to_ref>  (69) 


$$$$

     RDKit          3D

 60 62  0  0  0  0  0  0  0  0999 V2000
    3.0707   25.4298   30.7355 C   0  0  0  0  0  0  0  0  0  0  0  0
    2.5866   21.1348   38.5683 C   0  0  1  0  0  0  0  0  0  0  0  0
    0.3953   27.7451   32.8088 C   0  0  0  0  0  0  0  0  0  0  0  0
    1.9847   24.4896   35.6906 O   0  0  0  0  0  0  0  0  0  0  0  0
    3.3438   24.5839   32.2210 C   0  0  0  0  0  0  0  0  0  0  0  0
    3.5482   18.2142   38.6138 C   0  0  0  0  0  0  0  0  0  0  0  0
    0.0887   20.3531   42.7159 C   0  0  0  0  0  0  0  0  0  0  0  0
    3.5863   19.1149   39.7498 O   0  0  0  0  0  0  0  0  0  0  0  0
    1.9767   27.7624   30.4596 O   0  0  0  0  0  0  0  0  0  0  0  0
   -0.2670   26.7536   31.9872 C   0  0  0  0  0  0  0  0  0  0  0  0
    1.8716   20.4530   41.0056 C   0  0  2  0  0  0  0  0  0  0  0  0
    2.3363   24.2470   33.3487 C   0  0  2  0  0  0  0  0  0  0  0  0
    2.4340   20.0724   39.6770 C   0  0  1  0  0  0  0  0  0  0  0  0
    1.3121   25.4197   33.3784 C   0  0  0  0  0  0  0  0  0  0  0  0
    1.3963   18.9531   41.9219 O   0  0  0  0  0  0  0  0  0  0  0  0
    2.1468   26.6326   31.1133 C   0  0  1  0  0  0  0  0  0  0  0  0
    0.9551   19.6032   41.7687 C   0  0  1  0  0  0  0  0  0  0  0  0
    2.1474   21.3123   37.2964 C   0  0  0  0  0  0  0  0  0  0  0  0
    1.1809   21.6604   40.5072 C   0  0  0  0  0  0  0  0  0  0  0  0
    2.5462   23.6887   34.6228 C   0  0  2  0  0  0  0  0  0  0  0  0
    2.0545   22.1056   39.1550 C   0  0  0  0  0  0  0  0  0  0  0  0
    1.0124   26.1361   32.2139 C   0  0  0  0  0  0  0  0  0  0  0  0
    2.3271   22.4237   35.0314 C   0  0  0  0  0  0  0  0  0  0  0  0
    3.2402   21.8947   36.2197 C   0  0  0  0  0  0  0  0  0  0  0  0
    2.5728   24.7755   30.0049 H   0  0  0  0  0  0  0  0  0  0  0  0
    4.0114   25.7633   30.2731 H   0  0  0  0  0  0  0  0  0  0  0  0
    3.6113   20.8722   38.2664 H   0  0  0  0  0  0  0  0  0  0  0  0
    0.7593   28.6923   32.3842 H   0  0  0  0  0  0  0  0  0  0  0  0
    0.2374   28.2710   33.7619 H   0  0  0  0  0  0  0  0  0  0  0  0
    2.3014   24.1452   36.5631 H   0  0  0  0  0  0  0  0  0  0  0  0
    3.7437   23.6074   31.9104 H   0  0  0  0  0  0  0  0  0  0  0  0
    3.9092   25.3681   32.7457 H   0  0  0  0  0  0  0  0  0  0  0  0
    3.5371   17.1739   38.9710 H   0  0  0  0  0  0  0  0  0  0  0  0
    2.6415   18.4085   38.0221 H   0  0  0  0  0  0  0  0  0  0  0  0
    4.4371   18.3771   37.9868 H   0  0  0  0  0  0  0  0  0  0  0  0
    0.4168   20.1562   43.7473 H   0  0  0  0  0  0  0  0  0  0  0  0
    0.1633   21.4304   42.5068 H   0  0  0  0  0  0  0  0  0  0  0  0
   -0.9549   20.0273   42.5947 H   0  0  0  0  0  0  0  0  0  0  0  0
    1.8934   28.5079   31.1056 H   0  0  0  0  0  0  0  0  0  0  0  0
   -0.4963   27.0456   30.9518 H   0  0  0  0  0  0  0  0  0  0  0  0
   -1.2526   26.3025   32.1745 H   0  0  0  0  0  0  0  0  0  0  0  0
    2.6546   20.4730   41.7779 H   0  0  0  0  0  0  0  0  0  0  0  0
    2.0858   23.2339   33.0009 H   0  0  0  0  0  0  0  0  0  0  0  0
    1.5616   19.5293   39.2847 H   0  0  0  0  0  0  0  0  0  0  0  0
    0.3629   24.9988   33.7415 H   0  0  0  0  0  0  0  0  0  0  0  0
    1.8164   26.1700   34.0051 H   0  0  0  0  0  0  0  0  0  0  0  0
    1.5115   18.8556   42.9004 H   0  0  0  0  0  0  0  0  0  0  0  0
    2.9235   27.3676   31.3710 H   0  0  0  0  0  0  0  0  0  0  0  0
    0.0503   19.1883   41.3005 H   0  0  0  0  0  0  0  0  0  0  0  0
    1.7981   20.3379   36.9243 H   0  0  0  0  0  0  0  0  0  0  0  0
    1.3650   22.0826   37.3632 H   0  0  0  0  0  0  0  0  0  0  0  0
    0.1389   21.4311   40.2401 H   0  0  0  0  0  0  0  0  0  0  0  0
    1.1356   22.4604   41.2609 H   0  0  0  0  0  0  0  0  0  0  0  0
    3.6262   23.6717   34.4145 H   0  0  0  0  0  0  0  0  0  0  0  0
    2.8464   22.8034   39.4648 H   0  0  0  0  0  0  0  0  0  0  0  0
    1.3493   22.5674   38.4483 H   0  0  0  0  0  0  0  0  0  0  0  0
    1.2792   22.3550   35.3589 H   0  0  0  0  0  0  0  0  0  0  0  0
    2.5779   21.7909   34.1674 H   0  0  0  0  0  0  0  0  0  0  0  0
    3.9167   21.0992   35.8740 H   0  0  0  0  0  0  0  0  0  0  0  0
    3.8928   22.6723   36.6432 H   0  0  0  0  0  0  0  0  0  0  0  0
  1 16  1  0
  1  5  1  0
  2 18  1  0
  2 21  1  0
  2 13  1  0
  5 12  1  0
  6  8  1  0
 10 22  1  0
 10  3  1  0
 11 17  1  0
 12 14  1  0
 12 20  1  0
 13  8  1  0
 13 11  1  0
 16  9  1  0
 16 22  1  0
 17 15  1  0
 17  7  1  0
 19 11  1  0
 20 23  1  0
 20  4  1  0
 21 19  1  0
 22  3  1  0
 22 14  1  0
 23 24  1  0
 24 18  1  0
  1 25  1  0
  1 26  1  0
  2 27  1  6
  3 28  1  0
  3 29  1  0
  4 30  1  0
  5 31  1  0
  5 32  1  0
  6 33  1  0
  6 34  1  0
  6 35  1  0
  7 36  1  0
  7 37  1  0
  7 38  1  0
  9 39  1  0
 10 40  1  0
 10 41  1  0
 11 42  1  1
 12 43  1  6
 13 44  1  6
 14 45  1  0
 14 46  1  0
 15 47  1  0
 16 48  1  1
 17 49  1  6
 18 50  1  0
 18 51  1  0
 19 52  1  0
 19 53  1  0
 20 54  1  1
 21 55  1  0
 21 56  1  0
 23 57  1  0
 23 58  1  0
 24 59  1  0
 24 60  1  0
M  END
>  <mol_id>  (70) 
2026-09-18-3war-s0-n100-0071

>  <rmsd_to_ref>  (70) 


$$$$

     RDKit          3D

 52 52  0  0  0  0  0  0  0  0999 V2000
    0.7409   17.4850   41.4149 O   0  0  0  0  0  0  0  0  0  0  0  0
    2.2501   18.1296   39.6101 N   0  0  0  0  0  0  0  0  0  0  0  0
    1.1938   28.6102   33.7550 O   0  0  0  0  0  0  0  0  0  0  0  0
    2.8970   26.5424   30.1843 C   0  0  0  0  0  0  0  0  0  0  0  0
    1.8062   21.3041   37.1848 C   0  0  0  0  0  0  0  0  0  0  0  0
    2.4584   22.5530   33.9033 C   0  0  0  0  0  0  0  0  0  0  0  0
    1.2090   25.9164   33.3587 C   0  0  0  0  0  0  0  0  0  0  0  0
    2.3390   22.3097   35.1366 C   0  0  0  0  0  0  0  0  0  0  0  0
    2.5589   19.4671   39.8209 C   0  0  0  0  0  0  0  0  0  0  0  0
    0.4395   28.1058   32.3421 C   0  0  0  0  0  0  0  0  0  0  0  0
    2.2077   14.7561   39.0601 C   0  0  0  0  0  0  0  0  0  0  0  0
    2.3373   20.1213   40.8544 O   0  0  0  0  0  0  0  0  0  0  0  0
    3.1337   20.1152   38.6279 C   0  0  0  0  0  0  0  0  0  0  0  0
    3.4325   25.9132   31.2422 C   0  0  0  0  0  0  0  0  0  0  0  0
    1.4546   24.7165   34.1215 C   0  0  0  0  0  0  0  0  0  0  0  0
    2.0454   21.9301   36.2557 C   0  0  0  0  0  0  0  0  0  0  0  0
    1.4438   15.8427   39.4739 O   0  0  0  0  0  0  0  0  0  0  0  0
    2.4396   23.7471   33.3935 C   0  0  0  0  0  0  0  0  0  0  0  0
    2.8617   16.3907   41.2172 O   0  0  0  0  0  0  0  0  0  0  0  0
    1.8173   16.9349   40.4884 S   0  0  0  0  0  4  0  0  0  0  0  0
    2.2415   21.2467   38.3608 C   0  0  0  0  0  0  0  0  0  0  0  0
    1.1795   26.7980   32.2099 C   0  0  1  0  0  0  0  0  0  0  0  0
    2.1221   26.5353   31.3123 C   0  0  0  0  0  0  0  0  0  0  0  0
    0.9985   17.3175   42.3560 H   0  0  0  0  0  0  0  0  0  0  0  0
    2.3298   17.8682   38.6170 H   0  0  0  0  0  0  0  0  0  0  0  0
    1.1078   27.9052   34.4446 H   0  0  0  0  0  0  0  0  0  0  0  0
    2.5803   25.9511   29.3124 H   0  0  0  0  0  0  0  0  0  0  0  0
    3.2599   27.3491   29.5304 H   0  0  0  0  0  0  0  0  0  0  0  0
    1.9490   20.2746   36.8246 H   0  0  0  0  0  0  0  0  0  0  0  0
    0.9049   21.8763   37.4498 H   0  0  0  0  0  0  0  0  0  0  0  0
    3.4232   22.1167   33.6054 H   0  0  0  0  0  0  0  0  0  0  0  0
    1.5120   22.1461   33.5174 H   0  0  0  0  0  0  0  0  0  0  0  0
    0.1370   25.9905   33.5940 H   0  0  0  0  0  0  0  0  0  0  0  0
    2.2880   26.1199   33.4248 H   0  0  0  0  0  0  0  0  0  0  0  0
   -0.6445   27.9674   32.4678 H   0  0  0  0  0  0  0  0  0  0  0  0
    0.4847   28.7911   31.4829 H   0  0  0  0  0  0  0  0  0  0  0  0
    2.6847   14.2890   39.9343 H   0  0  0  0  0  0  0  0  0  0  0  0
    1.5595   14.0215   38.5599 H   0  0  0  0  0  0  0  0  0  0  0  0
    2.9828   15.0987   38.3588 H   0  0  0  0  0  0  0  0  0  0  0  0
    4.1565   20.4656   38.8303 H   0  0  0  0  0  0  0  0  0  0  0  0
    3.2064   19.4280   37.7720 H   0  0  0  0  0  0  0  0  0  0  0  0
    3.5265   24.8172   31.2460 H   0  0  0  0  0  0  0  0  0  0  0  0
    4.3711   25.9898   31.8108 H   0  0  0  0  0  0  0  0  0  0  0  0
    1.8866   24.9966   35.0935 H   0  0  0  0  0  0  0  0  0  0  0  0
    0.4953   24.1928   34.2464 H   0  0  0  0  0  0  0  0  0  0  0  0
    2.1381   23.6711   32.3384 H   0  0  0  0  0  0  0  0  0  0  0  0
    3.4507   24.1651   33.5077 H   0  0  0  0  0  0  0  0  0  0  0  0
    2.6554   16.4495   42.1836 H   0  0  0  0  0  0  0  0  0  0  0  0
    2.7939   22.1752   38.5675 H   0  0  0  0  0  0  0  0  0  0  0  0
    1.3646   21.1117   39.0109 H   0  0  0  0  0  0  0  0  0  0  0  0
    0.3581   26.5907   31.5083 H   0  0  0  0  0  0  0  0  0  0  0  0
    1.6573   25.5929   30.9871 H   0  0  0  0  0  0  0  0  0  0  0  0
  2  9  1  0
  2 20  1  0
  4 23  1  0
  4 14  1  0
  5 21  1  0
  6  8  1  0
  7 15  1  0
  8 16  3  0
  9 12  2  0
 10  3  1  0
 11 17  1  0
 13  9  1  0
 16  5  1  0
 17 20  1  0
 18 15  1  0
 18  6  1  0
 20  1  1  0
 20 19  1  0
 21 13  1  0
 22 10  1  0
 22  7  1  0
 23 14  1  0
 23 22  1  0
  1 24  1  0
  2 25  1  0
  3 26  1  0
  4 27  1  0
  4 28  1  0
  5 29  1  0
  5 30  1  0
  6 31  1  0
  6 32  1  0
  7 33  1  0
  7 34  1  0
 10 35  1  0
 10 36  1  0
 11 37  1  0
 11 38  1  0
 11 39  1  0
 13 40  1  0
 13 41  1  0
 14 42  1  0
 14 43  1  0
 15 44  1  0
 15 45  1  0
 18 46  1  0
 18 47  1  0
 19 48  1  0
 21 49  1  0
 21 50  1  0
 22 51  1  6
 23 52  1  0
M  END
>  <mol_id>  (71) 
2026-09-18-3war-s0-n100-0072

>  <rmsd_to_ref>  (71) 


$$$$

     RDKit          3D

 28 28  0  0  0  0  0  0  0  0999 V2000
    4.0110   20.7500   34.9510 O   0  0  0  0  0  0  0  0  0  0  0  0
    2.7910   19.6790   40.2640 C   0  0  0  0  0  0  0  0  0  0  0  0
    4.0490   22.1110   32.8880 C   0  0  1  0  0  0  0  0  0  0  0  0
    4.0440   21.9050   34.4040 C   0  0  1  0  0  0  0  0  0  0  0  0
    1.7620   20.8160   39.9060 C   0  0  0  0  0  0  0  0  0  0  0  0
    2.2900   20.7510   37.3790 C   0  0  0  0  0  0  0  0  0  0  0  0
    0.8980   21.3520   41.0340 C   0  0  0  0  0  0  0  0  0  0  0  0
    1.6250   21.2380   38.5940 C   0  0  0  0  0  0  0  0  0  0  0  0
    2.4950   19.6020   37.0560 O   0  0  0  0  0  0  0  0  0  0  0  0
    4.4000   22.1330   31.3450 C   0  0  0  0  0  0  0  0  0  0  0  0
    2.6780   22.1340   33.5880 C   0  0  0  0  0  0  0  0  0  0  0  0
    5.2260   22.6780   33.9220 C   0  0  0  0  0  0  0  0  0  0  0  0
    2.6740   21.6680   36.4050 O   0  0  0  0  0  0  0  0  0  0  0  0
    4.0139   20.8511   35.9358 H   0  0  0  0  0  0  0  0  0  0  0  0
    2.8724   19.5891   41.3573 H   0  0  0  0  0  0  0  0  0  0  0  0
    2.4438   18.7242   39.8424 H   0  0  0  0  0  0  0  0  0  0  0  0
    3.7756   19.9295   39.8424 H   0  0  0  0  0  0  0  0  0  0  0  0
    1.3440   21.0753   42.0007 H   0  0  0  0  0  0  0  0  0  0  0  0
    0.8356   22.4477   40.9592 H   0  0  0  0  0  0  0  0  0  0  0  0
   -0.1114   20.9213   40.9592 H   0  0  0  0  0  0  0  0  0  0  0  0
    0.9115   22.0608   38.4392 H   0  0  0  0  0  0  0  0  0  0  0  0
    5.4905   22.2014   31.2180 H   0  0  0  0  0  0  0  0  0  0  0  0
    4.0329   21.2101   30.8723 H   0  0  0  0  0  0  0  0  0  0  0  0
    3.9206   23.0029   30.8723 H   0  0  0  0  0  0  0  0  0  0  0  0
    2.1223   23.0779   33.6895 H   0  0  0  0  0  0  0  0  0  0  0  0
    1.7262   21.5940   33.4761 H   0  0  0  0  0  0  0  0  0  0  0  0
    6.2278   22.2237   33.9274 H   0  0  0  0  0  0  0  0  0  0  0  0
    5.6779   23.6553   34.1470 H   0  0  0  0  0  0  0  0  0  0  0  0
  3 10  1  6
  3 11  1  0
  3 12  1  0
  3  4  1  0
  4  1  1  6
  5  2  1  0
  5  7  1  0
  6  8  1  0
  8  5  2  3
  9  6  1  0
 11  4  1  0
 12  4  1  0
 13  6  2  0
  1 14  1  0
  2 15  1  0
  2 16  1  0
  2 17  1  0
  7 18  1  0
  7 19  1  0
  7 20  1  0
  8 21  1  0
 10 22  1  0
 10 23  1  0
 10 24  1  0
 11 25  1  0
 11 26  1  0
 12 27  1  0
 12 28  1  0
M  CHG  1   9  -1
M  END
>  <mol_id>  (72) 
2026-09-18-3war-s0-n100-0073

>  <rmsd_to_ref>  (72) 


$$$$

     RDKit          3D

 49 51  0  0  0  0  0  0  0  0999 V2000
    1.9280   21.8430   35.8380 C   0  0  0  0  0  0  0  0  0  0  0  0
    2.9450   23.6730   32.8590 C   0  0  0  0  0  0  0  0  0  0  0  0
    1.5890   24.8020   29.5030 C   0  0  0  0  0  0  0  0  0  0  0  0
    3.6810   19.7270   38.5140 C   0  0  0  0  0  0  0  0  0  0  0  0
    3.0350   25.6060   28.7440 S   0  0  0  0  0  0  0  0  0  0  0  0
    2.0410   19.2690   40.5420 N   0  0  0  0  0  0  0  0  0  0  0  0
    2.6590   17.1220   39.9200 O   0  0  0  0  0  0  0  0  0  0  0  0
    3.1440   22.1270   35.0370 C   0  0  0  0  0  0  0  0  0  0  0  0
    2.6210   20.1030   39.5740 C   0  0  0  0  0  0  0  0  0  0  0  0
    1.0720   17.0030   41.7320 C   0  0  0  0  0  0  0  0  0  0  0  0
    0.3230   17.4230   42.8040 C   0  0  0  0  0  0  0  0  0  0  0  0
    1.1460   15.6630   41.4320 C   0  0  0  0  0  0  0  0  0  0  0  0
    3.2170   20.1430   37.1150 C   0  0  0  0  0  0  0  0  0  0  0  0
    2.0480   21.0580   37.1690 C   0  0  0  0  0  0  0  0  0  0  0  0
    4.3700   25.2290   31.2350 C   0  0  2  0  0  0  0  0  0  0  0  0
    2.9220   23.0730   33.8760 C   0  0  0  0  0  0  0  0  0  0  0  0
   -0.3930   16.5470   43.6450 C   0  0  0  0  0  0  0  0  0  0  0  0
    4.2690   26.5290   31.0690 C   0  0  0  0  0  0  0  0  0  0  0  0
    4.4340   25.8320   29.9170 C   0  0  2  0  0  0  0  0  0  0  0  0
    1.7260   24.7950   31.0430 C   0  0  0  0  0  0  0  0  0  0  0  0
    1.9290   17.9830   40.8930 C   0  0  0  0  0  0  0  0  0  0  0  0
    3.0490   24.3340   31.5540 C   0  0  2  0  0  0  0  0  0  0  0  0
    0.4790   14.7130   42.2590 C   0  0  0  0  0  0  0  0  0  0  0  0
   -0.2900   15.1410   43.3720 C   0  0  0  0  0  0  0  0  0  0  0  0
    1.2470   21.2706   35.1910 H   0  0  0  0  0  0  0  0  0  0  0  0
    1.5959   22.8411   36.1598 H   0  0  0  0  0  0  0  0  0  0  0  0
    1.5178   23.7660   29.1403 H   0  0  0  0  0  0  0  0  0  0  0  0
    0.6827   25.3609   29.2269 H   0  0  0  0  0  0  0  0  0  0  0  0
    4.6250   20.2404   38.7491 H   0  0  0  0  0  0  0  0  0  0  0  0
    3.8261   18.6367   38.5294 H   0  0  0  0  0  0  0  0  0  0  0  0
    3.8986   22.5710   35.7030 H   0  0  0  0  0  0  0  0  0  0  0  0
    3.4650   21.1683   34.6035 H   0  0  0  0  0  0  0  0  0  0  0  0
    2.2807   21.1490   39.5690 H   0  0  0  0  0  0  0  0  0  0  0  0
    0.2795   18.5011   43.0178 H   0  0  0  0  0  0  0  0  0  0  0  0
    1.7187   15.3251   40.5557 H   0  0  0  0  0  0  0  0  0  0  0  0
    2.9373   19.2414   36.5503 H   0  0  0  0  0  0  0  0  0  0  0  0
    4.0452   20.6762   36.6254 H   0  0  0  0  0  0  0  0  0  0  0  0
    2.1784   21.7671   37.9998 H   0  0  0  0  0  0  0  0  0  0  0  0
    1.1333   20.4668   37.3235 H   0  0  0  0  0  0  0  0  0  0  0  0
    5.0040   24.5874   31.8646 H   0  0  0  0  0  0  0  0  0  0  0  0
   -1.0057   16.9252   44.4766 H   0  0  0  0  0  0  0  0  0  0  0  0
    3.3029   27.0179   31.2628 H   0  0  0  0  0  0  0  0  0  0  0  0
    4.8142   27.3778   31.5075 H   0  0  0  0  0  0  0  0  0  0  0  0
    5.1349   25.8507   29.0694 H   0  0  0  0  0  0  0  0  0  0  0  0
    1.5580   25.8198   31.4056 H   0  0  0  0  0  0  0  0  0  0  0  0
    0.9834   24.0739   31.4153 H   0  0  0  0  0  0  0  0  0  0  0  0
    3.3372   23.5290   30.8619 H   0  0  0  0  0  0  0  0  0  0  0  0
    0.5610   13.6397   42.0327 H   0  0  0  0  0  0  0  0  0  0  0  0
   -0.7989   14.4079   44.0151 H   0  0  0  0  0  0  0  0  0  0  0  0
  1 14  1  0
  2 16  3  0
  3 20  1  0
  4  9  1  0
  5  3  1  0
  5 19  1  0
  6 21  1  0
  7 21  2  0
  8  1  1  0
  9  6  2  3
 10 11  2  0
 11 17  1  0
 12 10  1  0
 12 23  2  0
 13 14  1  0
 13  4  1  0
 15 18  1  0
 15 22  1  0
 16  8  1  0
 19 18  1  0
 19 15  1  0
 20 22  1  0
 21 10  1  0
 22  2  1  0
 23 24  1  0
 24 17  2  0
  1 25  1  0
  1 26  1  0
  3 27  1  0
  3 28  1  0
  4 29  1  0
  4 30  1  0
  8 31  1  0
  8 32  1  0
  9 33  1  0
 11 34  1  0
 12 35  1  0
 13 36  1  0
 13 37  1  0
 14 38  1  0
 14 39  1  0
 15 40  1  1
 17 41  1  0
 18 42  1  0
 18 43  1  0
 19 44  1  6
 20 45  1  0
 20 46  1  0
 22 47  1  6
 23 48  1  0
 24 49  1  0
M  END
>  <mol_id>  (73) 
2026-09-18-3war-s0-n100-0074

>  <rmsd_to_ref>  (73) 


$$$$

     RDKit          3D

 44 45  0  0  0  0  0  0  0  0999 V2000
    3.1330   23.3790   34.2410 C   0  0  0  0  0  0  0  0  0  0  0  0
    2.9300   22.6150   35.0540 C   0  0  0  0  0  0  0  0  0  0  0  0
    1.6850   18.5540   40.8760 C   0  0  0  0  0  0  0  0  0  0  0  0
    0.5280   20.5960   41.6970 O   0  0  0  0  0  0  0  0  0  0  0  0
    1.2580   16.9190   42.4410 C   0  0  0  0  0  0  0  0  0  0  0  0
    4.1790   23.9950   31.7850 C   0  0  0  0  0  0  0  0  0  0  0  0
    0.3880   17.1270   43.1120 C   0  0  0  0  0  0  0  0  0  0  0  0
    2.9860   18.4450   37.2130 C   0  0  0  0  0  0  0  0  0  0  0  0
    2.4670   25.4130   32.8150 C   0  0  0  0  0  0  0  0  0  0  0  0
    1.8930   17.2250   41.1970 C   0  0  0  0  0  0  0  0  0  0  0  0
    2.6210   20.7990   36.5550 C   0  0  0  0  0  0  0  0  0  0  0  0
    1.2860   26.8410   31.3490 F   0  0  0  0  0  0  0  0  0  0  0  0
    2.1280   25.8570   31.5370 C   0  0  0  0  0  0  0  0  0  0  0  0
    2.5110   19.7720   37.5170 C   0  0  0  0  0  0  0  0  0  0  0  0
    2.2300   19.1140   39.8170 C   0  0  0  0  0  0  0  0  0  0  0  0
    3.7910   24.4090   30.5200 C   0  0  0  0  0  0  0  0  0  0  0  0
    0.2870   18.6640   43.0070 C   0  0  0  0  0  0  0  0  0  0  0  0
    2.7260   25.2830   30.3550 C   0  0  0  0  0  0  0  0  0  0  0  0
    3.3000   24.3180   32.9780 C   0  0  0  0  0  0  0  0  0  0  0  0
    0.8040   19.3160   41.8610 C   0  0  0  0  0  0  0  0  0  0  0  0
    2.0220   20.0300   38.8280 C   0  0  0  0  0  0  0  0  0  0  0  0
    2.6410   21.7060   35.8460 C   0  0  0  0  0  0  0  0  0  0  0  0
    1.7790   26.2320   33.9830 C   0  0  0  0  0  0  0  0  0  0  0  0
   -0.0467   21.0663   42.3517 H   0  0  0  0  0  0  0  0  0  0  0  0
    2.0840   17.1431   43.1320 H   0  0  0  0  0  0  0  0  0  0  0  0
    0.6962   16.1056   41.9585 H   0  0  0  0  0  0  0  0  0  0  0  0
    5.1168   23.4368   31.9223 H   0  0  0  0  0  0  0  0  0  0  0  0
   -0.5274   16.6373   42.7483 H   0  0  0  0  0  0  0  0  0  0  0  0
    0.5109   16.7523   44.1389 H   0  0  0  0  0  0  0  0  0  0  0  0
    3.1805   17.9017   38.1495 H   0  0  0  0  0  0  0  0  0  0  0  0
    2.2243   17.9078   36.6288 H   0  0  0  0  0  0  0  0  0  0  0  0
    3.9156   18.5132   36.6288 H   0  0  0  0  0  0  0  0  0  0  0  0
    1.4705   16.5883   40.4057 H   0  0  0  0  0  0  0  0  0  0  0  0
    2.9735   17.0393   41.2869 H   0  0  0  0  0  0  0  0  0  0  0  0
    3.1596   19.5049   40.2563 H   0  0  0  0  0  0  0  0  0  0  0  0
    1.8554   18.3049   39.1727 H   0  0  0  0  0  0  0  0  0  0  0  0
    4.3337   24.0404   29.6370 H   0  0  0  0  0  0  0  0  0  0  0  0
   -0.7810   18.9203   43.0675 H   0  0  0  0  0  0  0  0  0  0  0  0
    0.9302   19.0237   43.8236 H   0  0  0  0  0  0  0  0  0  0  0  0
    2.3482   25.5314   29.3522 H   0  0  0  0  0  0  0  0  0  0  0  0
    1.4795   20.9625   39.0427 H   0  0  0  0  0  0  0  0  0  0  0  0
    2.1117   25.8360   34.9538 H   0  0  0  0  0  0  0  0  0  0  0  0
    2.0614   27.2921   33.9032 H   0  0  0  0  0  0  0  0  0  0  0  0
    0.6860   26.1367   33.9032 H   0  0  0  0  0  0  0  0  0  0  0  0
  1  2  3  0
  2 22  1  0
  3 10  1  0
  3 20  2  0
  4 20  1  0
  5  7  1  0
  6 19  2  0
  8 14  1  0
  9 19  1  0
  9 23  1  0
 10  5  1  0
 11 14  1  0
 12 13  1  0
 13  9  2  0
 14 21  2  3
 15  3  1  0
 16  6  1  0
 17  7  1  0
 18 16  2  0
 18 13  1  0
 19  1  1  0
 20 17  1  0
 21 15  1  0
 22 11  3  0
  4 24  1  0
  5 25  1  0
  5 26  1  0
  6 27  1  0
  7 28  1  0
  7 29  1  0
  8 30  1  0
  8 31  1  0
  8 32  1  0
 10 33  1  0
 10 34  1  0
 15 35  1  0
 15 36  1  0
 16 37  1  0
 17 38  1  0
 17 39  1  0
 18 40  1  0
 21 41  1  0
 23 42  1  0
 23 43  1  0
 23 44  1  0
M  END
>  <mol_id>  (74) 
2026-09-18-3war-s0-n100-0075

>  <rmsd_to_ref>  (74) 


$$$$

     RDKit          3D

 64 68  0  0  0  0  0  0  0  0999 V2000
    3.8700   18.9080   39.5270 C   0  0  0  0  0  0  0  0  0  0  0  0
    2.7240   24.7790   28.8210 C   0  0  0  0  0  0  0  0  0  0  0  0
    0.2160   16.6870   42.7780 N   0  0  0  0  0  0  0  0  0  0  0  0
    1.5830   25.6930   29.2800 C   0  0  0  0  0  0  0  0  0  0  0  0
    0.4410   18.7510   42.2780 C   0  0  0  0  0  0  0  0  0  0  0  0
    4.5840   17.5120   38.9710 S   0  0  0  0  0  0  0  0  0  0  0  0
    4.4440   19.4940   40.6580 O   0  0  0  0  0  0  0  0  0  0  0  0
    4.0380   23.8590   33.3330 C   0  0  2  0  0  0  0  0  0  0  0  0
    1.4190   25.9450   30.6740 C   0  0  0  0  0  0  0  0  0  0  0  0
    0.0250   17.9790   43.2600 N   0  0  0  0  0  0  0  0  0  0  0  0
    4.0620   22.2320   34.2820 N   0  0  0  0  0  0  0  0  0  0  0  0
    1.3160   15.7960   40.7260 C   0  0  1  0  0  0  0  0  0  0  0  0
    3.6920   24.3360   29.7430 C   0  0  0  0  0  0  0  0  0  0  0  0
    2.4570   19.9650   37.8180 C   0  0  0  0  0  0  0  0  0  0  0  0
    2.3330   21.5670   35.8060 C   0  0  0  0  0  0  0  0  0  0  0  0
    3.6290   19.8950   36.9790 C   0  0  0  0  0  0  0  0  0  0  0  0
    3.2710   24.6520   32.0350 C   0  0  2  0  0  0  0  0  0  0  0  0
    4.4790   23.7340   30.8710 C   0  0  1  0  0  0  0  0  0  0  0  0
    0.2760   26.7370   31.2280 C   0  0  0  0  0  0  0  0  0  0  0  0
    0.8800   26.1960   28.3510 F   0  0  0  0  0  0  0  0  0  0  0  0
    2.7320   19.2020   38.9980 O   0  0  0  0  0  0  0  0  0  0  0  0
    3.3780   16.1590   39.1520 C   0  0  0  0  0  0  0  0  0  0  0  0
    4.5570   20.9790   34.8820 C   0  0  0  0  0  0  0  0  0  0  0  0
    0.6910   14.7880   39.7990 C   0  0  0  0  0  0  0  0  0  0  0  0
    2.7310   16.0550   40.2200 C   0  0  0  0  0  0  0  0  0  0  0  0
    0.9960   18.1970   41.2270 N   0  0  0  0  0  0  0  0  0  0  0  0
    2.2670   25.3030   31.4770 C   0  0  0  0  0  0  0  0  0  0  0  0
    3.7100   21.0700   36.1820 C   0  0  1  0  0  0  0  0  0  0  0  0
    2.5700   22.3010   34.6450 C   0  0  0  0  0  0  0  0  0  0  0  0
    3.6580   23.2430   32.0350 C   0  0  1  0  0  0  0  0  0  0  0  0
    0.7550   16.9110   41.5470 C   0  0  0  0  0  0  0  0  0  0  0  0
    2.2567   23.8786   28.3956 H   0  0  0  0  0  0  0  0  0  0  0  0
    3.3018   25.4221   28.1408 H   0  0  0  0  0  0  0  0  0  0  0  0
    0.3249   19.8432   42.3382 H   0  0  0  0  0  0  0  0  0  0  0  0
    4.5280   24.4335   34.1329 H   0  0  0  0  0  0  0  0  0  0  0  0
    1.0066   15.2402   41.6234 H   0  0  0  0  0  0  0  0  0  0  0  0
    4.3027   23.8486   28.9687 H   0  0  0  0  0  0  0  0  0  0  0  0
    3.2107   24.9861   30.4885 H   0  0  0  0  0  0  0  0  0  0  0  0
    1.5900   19.5418   37.2896 H   0  0  0  0  0  0  0  0  0  0  0  0
    2.2236   21.0088   38.0748 H   0  0  0  0  0  0  0  0  0  0  0  0
    1.6496   20.7275   35.6103 H   0  0  0  0  0  0  0  0  0  0  0  0
    1.8533   22.1568   36.6010 H   0  0  0  0  0  0  0  0  0  0  0  0
    4.5272   19.8162   37.6090 H   0  0  0  0  0  0  0  0  0  0  0  0
    3.5615   19.0121   36.3263 H   0  0  0  0  0  0  0  0  0  0  0  0
    5.4654   23.4121   30.5057 H   0  0  0  0  0  0  0  0  0  0  0  0
    0.3115   26.7124   32.3272 H   0  0  0  0  0  0  0  0  0  0  0  0
    0.3498   27.7785   30.8820 H   0  0  0  0  0  0  0  0  0  0  0  0
   -0.6733   26.3021   30.8820 H   0  0  0  0  0  0  0  0  0  0  0  0
    2.6434   16.2728   38.3412 H   0  0  0  0  0  0  0  0  0  0  0  0
    3.9989   15.2512   39.1332 H   0  0  0  0  0  0  0  0  0  0  0  0
    4.3121   20.0934   34.2773 H   0  0  0  0  0  0  0  0  0  0  0  0
    5.6458   20.8773   35.0006 H   0  0  0  0  0  0  0  0  0  0  0  0
    0.2022   13.9997   40.3903 H   0  0  0  0  0  0  0  0  0  0  0  0
   -0.0563   15.2872   39.1646 H   0  0  0  0  0  0  0  0  0  0  0  0
    1.4704   14.3406   39.1646 H   0  0  0  0  0  0  0  0  0  0  0  0
    3.2885   15.2551   40.7292 H   0  0  0  0  0  0  0  0  0  0  0  0
    2.6035   17.1449   40.2972 H   0  0  0  0  0  0  0  0  0  0  0  0
    1.4682   18.6144   40.4123 H   0  0  0  0  0  0  0  0  0  0  0  0
    2.2928   26.1173   32.2161 H   0  0  0  0  0  0  0  0  0  0  0  0
    2.0849   24.4038   30.8701 H   0  0  0  0  0  0  0  0  0  0  0  0
    4.2426   21.7699   36.8426 H   0  0  0  0  0  0  0  0  0  0  0  0
    2.2824   23.3497   34.8107 H   0  0  0  0  0  0  0  0  0  0  0  0
    1.9754   21.8799   33.8209 H   0  0  0  0  0  0  0  0  0  0  0  0
    3.3287   22.1953   31.9730 H   0  0  0  0  0  0  0  0  0  0  0  0
  1  7  2  0
  2  4  1  0
  2 13  1  0
  3 10  1  0
  4  9  2  0
  5 10  2  0
  6 22  1  0
  6  1  1  0
  8 11  1  0
  9 19  1  0
  9 27  1  0
 11 29  1  0
 11 23  1  0
 12 24  1  0
 12 31  1  0
 14 21  1  0
 15 28  1  0
 16 14  1  0
 17 27  1  6
 17  8  1  0
 18 13  1  0
 18 30  1  0
 18 17  1  0
 20  4  1  0
 21  1  1  0
 22 25  1  0
 23 28  1  0
 25 12  1  0
 26 31  1  0
 26  5  1  0
 28 16  1  0
 29 15  1  0
 30 17  1  0
 30  8  1  0
 31  3  2  0
  2 32  1  0
  2 33  1  0
  5 34  1  0
  8 35  1  6
 12 36  1  1
 13 37  1  0
 13 38  1  0
 14 39  1  0
 14 40  1  0
 15 41  1  0
 15 42  1  0
 16 43  1  0
 16 44  1  0
 18 45  1  1
 19 46  1  0
 19 47  1  0
 19 48  1  0
 22 49  1  0
 22 50  1  0
 23 51  1  0
 23 52  1  0
 24 53  1  0
 24 54  1  0
 24 55  1  0
 25 56  1  0
 25 57  1  0
 26 58  1  0
 27 59  1  0
 27 60  1  0
 28 61  1  1
 29 62  1  0
 29 63  1  0
 30 64  1  1
M  END
>  <mol_id>  (75) 
2026-09-18-3war-s0-n100-0076

>  <rmsd_to_ref>  (75) 


$$$$

     RDKit          3D

 65 67  0  0  0  0  0  0  0  0999 V2000
    3.3723   25.8264   32.8913 N   0  0  0  0  0  0  0  0  0  0  0  0
    3.6236   24.6896   33.7406 N   0  0  0  0  0  0  0  0  0  0  0  0
    0.3601   27.0372   30.0653 F   0  0  0  0  0  0  0  0  0  0  0  0
    4.1626   15.7717   36.2375 C   0  0  0  0  0  0  0  0  0  0  0  0
    3.4535   14.4015   36.5206 C   0  0  1  0  0  0  0  0  0  0  0  0
    2.8383   19.1778   38.9168 C   0  0  0  0  0  0  0  0  0  0  0  0
    2.3618   26.6040   33.0584 C   0  0  0  0  0  0  0  0  0  0  0  0
    0.0035   27.8004   32.3980 C   0  0  0  0  0  0  0  0  0  0  0  0
    1.0926   20.5434   41.8387 C   0  0  0  0  0  0  0  0  0  0  0  0
    3.0358   20.2048   36.7326 N   0  0  0  0  0  0  0  0  0  0  0  0
    0.7629   21.9012   41.3745 C   0  0  0  0  0  0  0  0  0  0  0  0
    2.4189   21.3821   36.9392 C   0  0  0  0  0  0  0  0  0  0  0  0
    3.4316   14.4272   38.0200 C   0  0  1  0  0  0  0  0  0  0  0  0
    2.0834   27.3364   35.5009 C   0  0  0  0  0  0  0  0  0  0  0  0
    1.8891   21.4168   39.3091 C   0  0  0  0  0  0  0  0  0  0  0  0
    2.1070   19.8530   41.0269 C   0  0  0  0  0  0  0  0  0  0  0  0
    4.4483   13.5280   38.3593 O   0  0  0  0  0  0  0  0  0  0  0  0
    1.0959   22.2841   40.1369 C   0  0  0  0  0  0  0  0  0  0  0  0
    0.4536   27.8313   33.7780 C   0  0  0  0  0  0  0  0  0  0  0  0
    4.4363   26.6191   32.6584 O   0  0  0  0  0  0  0  0  0  0  0  0
    1.6723   27.1984   34.1496 C   0  0  0  0  0  0  0  0  0  0  0  0
    2.7141   25.1845   30.1103 C   0  0  0  0  0  0  0  0  0  0  0  0
    3.9446   17.9877   37.1237 C   0  0  0  0  0  0  0  0  0  0  0  0
    3.4148   16.5752   37.2649 N   0  0  0  0  0  0  0  0  0  0  0  0
    2.0892   14.2450   36.1023 N   0  0  0  0  0  0  0  0  0  0  0  0
    3.2039   19.2524   37.5809 C   0  0  0  0  0  0  0  0  0  0  0  0
    2.2031   20.1550   39.6959 C   0  0  2  0  0  0  0  0  0  0  0  0
    2.8992   26.2458   30.9147 O   0  0  0  0  0  0  0  0  0  0  0  0
    0.7408   27.1598   31.4486 C   0  0  0  0  0  0  0  0  0  0  0  0
    3.5473   15.8243   38.5055 C   0  0  0  0  0  0  0  0  0  0  0  0
    1.9480   26.6453   31.7970 C   0  0  0  0  0  0  0  0  0  0  0  0
    1.8885   21.9137   37.9971 C   0  0  0  0  0  0  0  0  0  0  0  0
    3.6580   24.9962   34.7234 H   0  0  0  0  0  0  0  0  0  0  0  0
    2.8683   23.9992   33.6226 H   0  0  0  0  0  0  0  0  0  0  0  0
    5.2440   15.7357   36.4358 H   0  0  0  0  0  0  0  0  0  0  0  0
    4.1292   16.1405   35.2017 H   0  0  0  0  0  0  0  0  0  0  0  0
    3.9789   13.6006   35.9798 H   0  0  0  0  0  0  0  0  0  0  0  0
    3.0763   18.2339   39.4289 H   0  0  0  0  0  0  0  0  0  0  0  0
   -0.9373   28.2967   32.1178 H   0  0  0  0  0  0  0  0  0  0  0  0
    1.4675   20.6140   42.8705 H   0  0  0  0  0  0  0  0  0  0  0  0
    0.1693   19.9510   41.7575 H   0  0  0  0  0  0  0  0  0  0  0  0
    0.2428   22.6007   42.0454 H   0  0  0  0  0  0  0  0  0  0  0  0
    2.3512   22.0137   36.0412 H   0  0  0  0  0  0  0  0  0  0  0  0
    2.4998   14.1067   38.5090 H   0  0  0  0  0  0  0  0  0  0  0  0
    1.2561   27.0502   36.1669 H   0  0  0  0  0  0  0  0  0  0  0  0
    2.9485   26.6837   35.6895 H   0  0  0  0  0  0  0  0  0  0  0  0
    2.3643   28.3824   35.6937 H   0  0  0  0  0  0  0  0  0  0  0  0
    3.0859   20.0702   41.4793 H   0  0  0  0  0  0  0  0  0  0  0  0
    1.7862   18.8009   41.0385 H   0  0  0  0  0  0  0  0  0  0  0  0
    4.5653   13.5179   39.3424 H   0  0  0  0  0  0  0  0  0  0  0  0
    0.7637   23.2601   39.7535 H   0  0  0  0  0  0  0  0  0  0  0  0
   -0.1504   28.3464   34.5396 H   0  0  0  0  0  0  0  0  0  0  0  0
    4.8419   26.8888   33.5203 H   0  0  0  0  0  0  0  0  0  0  0  0
    2.6552   24.2695   30.7182 H   0  0  0  0  0  0  0  0  0  0  0  0
    1.7782   25.3108   29.5462 H   0  0  0  0  0  0  0  0  0  0  0  0
    3.5573   25.1048   29.4084 H   0  0  0  0  0  0  0  0  0  0  0  0
    4.9034   17.9974   37.6628 H   0  0  0  0  0  0  0  0  0  0  0  0
    3.8955   18.1112   36.0317 H   0  0  0  0  0  0  0  0  0  0  0  0
    1.4800   14.1917   36.9311 H   0  0  0  0  0  0  0  0  0  0  0  0
    1.8127   15.0514   35.5243 H   0  0  0  0  0  0  0  0  0  0  0  0
    1.9961   13.3797   35.5515 H   0  0  0  0  0  0  0  0  0  0  0  0
    1.3754   20.0876   38.9746 H   0  0  0  0  0  0  0  0  0  0  0  0
    2.7421   16.0718   39.2129 H   0  0  0  0  0  0  0  0  0  0  0  0
    4.4758   16.0315   39.0579 H   0  0  0  0  0  0  0  0  0  0  0  0
    1.3740   22.8743   37.8465 H   0  0  0  0  0  0  0  0  0  0  0  0
  1  7  1  0
  1  2  1  0
  3 29  1  0
  4  5  1  0
  4 24  1  0
  5 25  1  0
  5 13  1  0
  7 21  2  0
  8 19  2  0
 10 12  2  0
 10 26  1  0
 11  9  1  0
 12 32  1  0
 13 17  1  0
 13 30  1  0
 15 27  1  0
 15 18  1  0
 16  9  1  0
 18 11  2  0
 19 21  1  0
 20  1  1  0
 21 14  1  0
 22 28  1  0
 23 24  1  0
 23 26  1  0
 24 30  1  0
 26  6  2  0
 27  6  1  0
 27 16  1  0
 28 31  1  0
 29 31  2  0
 29  8  1  0
 31  7  1  0
 32 15  2  0
  2 33  1  0
  2 34  1  0
  4 35  1  0
  4 36  1  0
  5 37  1  1
  6 38  1  0
  8 39  1  0
  9 40  1  0
  9 41  1  0
 11 42  1  0
 12 43  1  0
 13 44  1  1
 14 45  1  0
 14 46  1  0
 14 47  1  0
 16 48  1  0
 16 49  1  0
 17 50  1  0
 18 51  1  0
 19 52  1  0
 20 53  1  0
 22 54  1  0
 22 55  1  0
 22 56  1  0
 23 57  1  0
 23 58  1  0
 25 59  1  0
 25 60  1  0
 25 61  1  0
 27 62  1  6
 30 63  1  0
 30 64  1  0
 32 65  1  0
M  CHG  1  25   1
M  END
>  <mol_id>  (76) 
2026-09-18-3war-s0-n100-0077

>  <rmsd_to_ref>  (76) 


$$$$

     RDKit          3D

 41 41  0  0  0  0  0  0  0  0999 V2000
    1.0640   20.4300   40.9190 C   0  0  0  0  0  0  0  0  0  0  0  0
    1.9380   19.8800   39.7380 C   0  0  0  0  0  0  0  0  0  0  0  0
    4.0580   22.0550   34.1860 C   0  0  0  0  0  0  0  0  0  0  0  0
    3.7340   23.5660   33.4580 S   0  0  0  0  0  0  0  0  0  0  0  0
    2.4970   18.6390   39.9890 C   0  0  0  0  0  0  0  0  0  0  0  0
    1.7710   26.3860   29.3150 C   0  0  0  0  0  0  0  0  0  0  0  0
    2.1900   20.5990   38.5980 C   0  0  0  0  0  0  0  0  0  0  0  0
    3.5400   18.7290   37.8370 C   0  0  0  0  0  0  0  0  0  0  0  0
    3.7760   25.4820   32.0320 C   0  0  0  0  0  0  0  0  0  0  0  0
    3.3800   20.6270   36.2950 C   0  0  2  0  0  0  0  0  0  0  0  0
    2.6700   25.9190   30.4490 C   0  0  0  0  0  0  0  0  0  0  0  0
    3.2560   18.0600   38.9810 C   0  0  0  0  0  0  0  0  0  0  0  0
    3.6400   19.7990   35.1670 O   0  0  0  0  0  0  0  0  0  0  0  0
    3.0400   20.0430   37.6300 C   0  0  0  0  0  0  0  0  0  0  0  0
    3.1430   21.7970   35.4240 C   0  0  0  0  0  0  0  0  0  0  0  0
    2.2150   25.9180   31.6530 C   0  0  0  0  0  0  0  0  0  0  0  0
    3.8920   25.4660   30.6420 C   0  0  0  0  0  0  0  0  0  0  0  0
    1.5205   20.1427   41.8777 H   0  0  0  0  0  0  0  0  0  0  0  0
    1.0077   21.5266   40.8537 H   0  0  0  0  0  0  0  0  0  0  0  0
    0.0510   20.0063   40.8537 H   0  0  0  0  0  0  0  0  0  0  0  0
    5.1090   22.0345   34.5102 H   0  0  0  0  0  0  0  0  0  0  0  0
    3.8565   21.2688   33.4435 H   0  0  0  0  0  0  0  0  0  0  0  0
    3.5320   24.5082   34.4319 H   0  0  0  0  0  0  0  0  0  0  0  0
    2.3454   18.1299   40.9522 H   0  0  0  0  0  0  0  0  0  0  0  0
    0.8679   26.8551   29.7325 H   0  0  0  0  0  0  0  0  0  0  0  0
    2.3114   27.1174   28.6961 H   0  0  0  0  0  0  0  0  0  0  0  0
    1.4834   25.5233   28.6961 H   0  0  0  0  0  0  0  0  0  0  0  0
    1.7360   21.5893   38.4458 H   0  0  0  0  0  0  0  0  0  0  0  0
    4.1610   18.2521   37.0644 H   0  0  0  0  0  0  0  0  0  0  0  0
    4.3739   26.2425   32.5556 H   0  0  0  0  0  0  0  0  0  0  0  0
    4.0515   24.6481   32.6944 H   0  0  0  0  0  0  0  0  0  0  0  0
    3.7820   20.9808   37.2558 H   0  0  0  0  0  0  0  0  0  0  0  0
    2.3101   24.8889   30.3101 H   0  0  0  0  0  0  0  0  0  0  0  0
    3.6351   17.0360   39.1137 H   0  0  0  0  0  0  0  0  0  0  0  0
    3.9219   18.9012   35.4746 H   0  0  0  0  0  0  0  0  0  0  0  0
    3.2186   22.6883   36.0643 H   0  0  0  0  0  0  0  0  0  0  0  0
    2.1654   21.5766   34.9704 H   0  0  0  0  0  0  0  0  0  0  0  0
    1.8881   26.8952   32.0380 H   0  0  0  0  0  0  0  0  0  0  0  0
    1.3250   25.3565   31.9733 H   0  0  0  0  0  0  0  0  0  0  0  0
    4.0515   24.4582   30.2311 H   0  0  0  0  0  0  0  0  0  0  0  0
    4.7301   26.0090   30.1808 H   0  0  0  0  0  0  0  0  0  0  0  0
  2  5  1  0
  2  1  1  0
  3 15  1  0
  4  3  1  0
  6 11  1  0
  7  2  2  0
  8 12  1  0
 10 13  1  0
 10 14  1  0
 11 17  1  0
 11 16  1  0
 12  5  2  0
 14  8  2  0
 14  7  1  0
 15 10  1  0
 16  9  1  0
 17  9  1  0
  1 18  1  0
  1 19  1  0
  1 20  1  0
  3 21  1  0
  3 22  1  0
  4 23  1  0
  5 24  1  0
  6 25  1  0
  6 26  1  0
  6 27  1  0
  7 28  1  0
  8 29  1  0
  9 30  1  0
  9 31  1  0
 10 32  1  1
 11 33  1  0
 12 34  1  0
 13 35  1  0
 15 36  1  0
 15 37  1  0
 16 38  1  0
 16 39  1  0
 17 40  1  0
 17 41  1  0
M  END
>  <mol_id>  (77) 
2026-09-18-3war-s0-n100-0078

>  <rmsd_to_ref>  (77) 


$$$$

     RDKit          3D

 79 82  0  0  0  0  0  0  0  0999 V2000
    0.8371   25.9168   29.6643 C   0  0  0  0  0  0  0  0  0  0  0  0
    3.6718   23.5404   32.8396 C   0  0  0  0  0  0  0  0  0  0  0  0
   -0.2342   20.6284   42.6142 C   0  0  0  0  0  0  0  0  0  0  0  0
    5.1591   24.4585   29.9927 C   0  0  0  0  0  0  0  0  0  0  0  0
    1.8168   20.8278   41.1811 C   0  0  2  0  0  0  0  0  0  0  0  0
    0.7820   19.5841   42.2145 C   0  0  1  0  0  0  0  0  0  0  0  0
    1.8399   24.8838   29.2679 C   0  0  2  0  0  0  0  0  0  0  0  0
    3.0449   20.6751   35.5904 C   0  0  0  0  0  0  0  0  0  0  0  0
    3.4408   22.7632   34.1068 C   0  0  2  0  0  0  0  0  0  0  0  0
    1.2635   18.5494   43.2409 C   0  0  2  0  0  0  0  0  0  0  0  0
    0.9837   25.8539   31.2287 C   0  0  0  0  0  0  0  0  0  0  0  0
    1.6693   23.0141   28.0870 F   0  0  0  0  0  0  0  0  0  0  0  0
    2.3645   25.4426   31.3629 C   0  0  0  0  0  0  0  0  0  0  0  0
    3.4461   21.2191   34.1374 C   0  0  0  0  0  0  0  0  0  0  0  0
    4.0091   24.9031   29.1299 C   0  0  2  0  0  0  0  0  0  0  0  0
    3.0656   24.7077   30.2641 C   0  0  2  0  0  0  0  0  0  0  0  0
    0.0763   19.1734   45.6069 N   0  0  0  0  0  0  0  0  0  0  0  0
    3.5191   24.6963   27.5100 S   0  0  0  0  0  0  0  0  0  0  0  0
    0.7983   18.2068   41.6198 C   0  0  0  0  0  0  0  0  0  0  0  0
    3.2911   19.9005   37.6606 C   0  0  0  0  0  0  0  0  0  0  0  0
    4.2571   22.4450   32.0463 C   0  0  0  0  0  0  0  0  0  0  0  0
   -0.1628   17.7630   46.1347 C   0  0  0  0  0  0  0  0  0  0  0  0
    3.3005   20.7798   36.6417 C   0  0  0  0  0  0  0  0  0  0  0  0
    2.8614   20.2260   38.8369 C   0  0  0  0  0  0  0  0  0  0  0  0
    3.5305   21.9101   30.8535 C   0  0  0  0  0  0  0  0  0  0  0  0
   -0.0981   17.4327   44.7818 C   0  0  0  0  0  0  0  0  0  0  0  0
    0.0104   18.5660   44.1557 C   0  0  2  0  0  0  0  0  0  0  0  0
    0.8398   21.7587   41.8599 S   0  0  0  0  0  0  0  0  0  0  0  0
    1.6457   21.9138   38.8758 O   0  0  0  0  0  0  0  0  0  0  0  0
    1.8205   24.3531   27.9659 C   0  0  2  0  0  0  0  0  0  0  0  0
    1.9861   21.0027   39.6812 C   0  0  0  0  0  0  0  0  0  0  0  0
    2.5443   23.4114   34.9982 C   0  0  0  0  0  0  0  0  0  0  0  0
   -0.1781   25.6464   29.3382 H   0  0  0  0  0  0  0  0  0  0  0  0
    0.9981   26.9117   29.2236 H   0  0  0  0  0  0  0  0  0  0  0  0
    2.7353   23.9188   32.4039 H   0  0  0  0  0  0  0  0  0  0  0  0
    4.2778   24.4538   32.9314 H   0  0  0  0  0  0  0  0  0  0  0  0
   -1.2192   20.5289   42.1349 H   0  0  0  0  0  0  0  0  0  0  0  0
   -0.5951   20.7456   43.6467 H   0  0  0  0  0  0  0  0  0  0  0  0
    4.9039   24.6122   31.0516 H   0  0  0  0  0  0  0  0  0  0  0  0
    5.3598   23.3917   29.8150 H   0  0  0  0  0  0  0  0  0  0  0  0
    6.0542   25.0467   29.7422 H   0  0  0  0  0  0  0  0  0  0  0  0
    2.9135   20.7427   41.1806 H   0  0  0  0  0  0  0  0  0  0  0  0
    1.4172   23.8818   29.4339 H   0  0  0  0  0  0  0  0  0  0  0  0
    3.1776   19.5920   35.4510 H   0  0  0  0  0  0  0  0  0  0  0  0
    2.2321   21.4109   35.6793 H   0  0  0  0  0  0  0  0  0  0  0  0
    4.4566   22.8210   34.5249 H   0  0  0  0  0  0  0  0  0  0  0  0
    2.1172   18.2514   43.8673 H   0  0  0  0  0  0  0  0  0  0  0  0
    0.8089   26.8369   31.6902 H   0  0  0  0  0  0  0  0  0  0  0  0
    0.2628   25.1870   31.7242 H   0  0  0  0  0  0  0  0  0  0  0  0
    2.9460   26.3582   31.5458 H   0  0  0  0  0  0  0  0  0  0  0  0
    2.3127   24.6872   32.1608 H   0  0  0  0  0  0  0  0  0  0  0  0
    2.7233   20.8417   33.3992 H   0  0  0  0  0  0  0  0  0  0  0  0
    4.4600   20.8662   33.8974 H   0  0  0  0  0  0  0  0  0  0  0  0
    4.2604   25.7792   28.5139 H   0  0  0  0  0  0  0  0  0  0  0  0
    3.6428   24.0092   30.8877 H   0  0  0  0  0  0  0  0  0  0  0  0
   -0.6719   19.8466   45.8253 H   0  0  0  0  0  0  0  0  0  0  0  0
    0.8761   19.7415   45.9210 H   0  0  0  0  0  0  0  0  0  0  0  0
   -0.1425   17.6777   41.4074 H   0  0  0  0  0  0  0  0  0  0  0  0
    1.2536   17.7205   40.7444 H   0  0  0  0  0  0  0  0  0  0  0  0
    4.3316   19.5690   37.7924 H   0  0  0  0  0  0  0  0  0  0  0  0
    2.5385   19.1690   37.3311 H   0  0  0  0  0  0  0  0  0  0  0  0
    5.2348   22.8003   31.6886 H   0  0  0  0  0  0  0  0  0  0  0  0
    4.2502   21.5964   32.7462 H   0  0  0  0  0  0  0  0  0  0  0  0
    0.6378   17.3484   46.7648 H   0  0  0  0  0  0  0  0  0  0  0  0
   -0.9944   17.4852   46.7990 H   0  0  0  0  0  0  0  0  0  0  0  0
    4.3393   21.1409   36.6208 H   0  0  0  0  0  0  0  0  0  0  0  0
    2.3920   21.3248   36.9380 H   0  0  0  0  0  0  0  0  0  0  0  0
    2.5811   19.2230   39.1911 H   0  0  0  0  0  0  0  0  0  0  0  0
    3.5722   21.0655   38.8397 H   0  0  0  0  0  0  0  0  0  0  0  0
    2.6996   21.2708   31.1866 H   0  0  0  0  0  0  0  0  0  0  0  0
    3.1340   22.7471   30.2599 H   0  0  0  0  0  0  0  0  0  0  0  0
    4.2234   21.3191   30.2367 H   0  0  0  0  0  0  0  0  0  0  0  0
    0.7771   16.7970   44.5821 H   0  0  0  0  0  0  0  0  0  0  0  0
   -0.9838   16.8678   44.4554 H   0  0  0  0  0  0  0  0  0  0  0  0
   -0.6784   19.0131   43.4237 H   0  0  0  0  0  0  0  0  0  0  0  0
    1.0516   24.7338   27.2775 H   0  0  0  0  0  0  0  0  0  0  0  0
    2.8759   23.2489   36.0343 H   0  0  0  0  0  0  0  0  0  0  0  0
    2.5291   24.4900   34.7830 H   0  0  0  0  0  0  0  0  0  0  0  0
    1.5337   22.9971   34.8675 H   0  0  0  0  0  0  0  0  0  0  0  0
  1 11  1  0
  2  9  1  0
  5 31  1  0
  5 28  1  0
  5  6  1  0
  6 19  1  6
  6  3  1  0
  6 10  1  0
  7  1  1  0
  7 16  1  0
  8 23  1  0
  9 32  1  0
 10 19  1  0
 10 27  1  0
 11 13  1  0
 14  9  1  0
 14  8  1  0
 15  4  1  0
 15 16  1  0
 16 13  1  0
 17 22  1  0
 18 30  1  0
 18 15  1  0
 20 24  1  0
 21  2  1  0
 23 20  1  0
 24 31  1  0
 25 21  1  0
 26 22  1  0
 27 26  1  0
 27 17  1  0
 28  3  1  0
 29 31  2  0
 30 12  1  0
 30  7  1  0
  1 33  1  0
  1 34  1  0
  2 35  1  0
  2 36  1  0
  3 37  1  0
  3 38  1  0
  4 39  1  0
  4 40  1  0
  4 41  1  0
  5 42  1  1
  7 43  1  1
  8 44  1  0
  8 45  1  0
  9 46  1  1
 10 47  1  1
 11 48  1  0
 11 49  1  0
 13 50  1  0
 13 51  1  0
 14 52  1  0
 14 53  1  0
 15 54  1  6
 16 55  1  1
 17 56  1  0
 17 57  1  0
 19 58  1  0
 19 59  1  0
 20 60  1  0
 20 61  1  0
 21 62  1  0
 21 63  1  0
 22 64  1  0
 22 65  1  0
 23 66  1  0
 23 67  1  0
 24 68  1  0
 24 69  1  0
 25 70  1  0
 25 71  1  0
 25 72  1  0
 26 73  1  0
 26 74  1  0
 27 75  1  6
 30 76  1  6
 32 77  1  0
 32 78  1  0
 32 79  1  0
M  CHG  1  17   1
M  END
>  <mol_id>  (78) 
2026-09-18-3war-s0-n100-0079

>  <rmsd_to_ref>  (78) 


$$$$

     RDKit          3D

 74 76  0  0  0  0  0  0  0  0999 V2000
    4.0924   24.5467   31.6281 S   0  0  0  0  0  0  0  0  0  0  0  0
    2.4897   19.7070   38.5362 C   0  0  0  0  0  0  0  0  0  0  0  0
    1.8334   25.8024   29.0423 S   0  0  0  0  0  0  0  0  0  0  0  0
    1.5111   16.2844   36.4247 C   0  0  0  0  0  0  0  0  0  0  0  0
    1.1876   28.6635   31.8710 S   0  0  0  0  0  0  0  0  0  0  0  0
    2.4959   15.9979   37.6585 C   0  0  1  0  0  0  0  0  0  0  0  0
    2.8129   25.9608   30.6094 C   0  0  1  0  0  0  0  0  0  0  0  0
    2.6958   13.9087   37.0280 O   0  0  0  0  0  0  0  0  0  0  0  0
    2.7987   28.9644   33.4426 C   0  0  0  0  0  0  0  0  0  0  0  0
    4.6695   14.9589   37.6134 O   0  0  0  0  0  0  0  0  0  0  0  0
    1.2376   23.0498   37.7545 F   0  0  0  0  0  0  0  0  0  0  0  0
    3.4218   14.8821   37.5055 C   0  0  0  0  0  0  0  0  0  0  0  0
    0.7976   27.0994   29.4345 C   0  0  0  0  0  0  0  0  0  0  0  0
   -1.2786   21.9755   41.4011 C   0  0  0  0  0  0  0  0  0  0  0  0
    1.5364   20.7213   40.4903 N   0  0  0  0  0  0  0  0  0  0  0  0
    2.6886   21.0318   36.6254 O   0  0  0  0  0  0  0  0  0  0  0  0
    2.2206   20.9604   37.8648 C   0  0  0  0  0  0  0  0  0  0  0  0
   -1.7782   21.2593   42.7484 C   0  0  0  0  0  0  0  0  0  0  0  0
    3.1200   22.8712   34.7080 O   0  0  0  0  0  0  0  0  0  0  0  0
    2.9914   17.1676   38.1637 N   0  0  0  0  0  0  0  0  0  0  0  0
    1.3062   21.8738   39.8695 C   0  0  0  0  0  0  0  0  0  0  0  0
    2.1243   15.7189   39.9295 C   0  0  0  0  0  0  0  0  0  0  0  0
    1.3467   15.2681   35.4756 O   0  0  0  0  0  0  0  0  0  0  0  0
    2.0630   19.7026   39.9330 C   0  0  0  0  0  0  0  0  0  0  0  0
    0.7082   27.1413   30.9414 C   0  0  1  0  0  0  0  0  0  0  0  0
    3.0236   18.5149   37.8978 C   0  0  0  0  0  0  0  0  0  0  0  0
    1.2269   23.4459   33.6102 O   0  0  0  0  0  0  0  0  0  0  0  0
   -0.0123   22.7302   41.7081 C   0  0  0  0  0  0  0  0  0  0  0  0
    1.6255   21.9839   38.4547 C   0  0  0  0  0  0  0  0  0  0  0  0
    1.0464   27.6349   33.1717 C   0  0  1  0  0  0  0  0  0  0  0  0
    2.0732   26.3092   33.1775 C   0  0  1  0  0  0  0  0  0  0  0  0
    2.4269   23.6960   33.9095 C   0  0  0  0  0  0  0  0  0  0  0  0
    1.8826   26.0481   31.4367 C   0  0  2  0  0  0  0  0  0  0  0  0
    0.7207   22.9987   40.5233 O   0  0  0  0  0  0  0  0  0  0  0  0
    2.4389   14.3305   40.5367 C   0  0  0  0  0  0  0  0  0  0  0  0
    1.6936   28.3155   34.3243 C   0  0  0  0  0  0  0  0  0  0  0  0
    3.6301   27.0968   30.4980 C   0  0  0  0  0  0  0  0  0  0  0  0
    2.9349   16.7158   39.2998 O   0  0  0  0  0  0  0  0  0  0  0  0
    3.0958   24.8259   33.1602 C   0  0  1  0  0  0  0  0  0  0  0  0
    0.5182   16.5087   36.8416 H   0  0  0  0  0  0  0  0  0  0  0  0
    1.9883   17.1073   35.8723 H   0  0  0  0  0  0  0  0  0  0  0  0
    1.8827   15.5682   38.4644 H   0  0  0  0  0  0  0  0  0  0  0  0
    3.5344   29.4670   34.0877 H   0  0  0  0  0  0  0  0  0  0  0  0
    3.3013   28.1846   32.8517 H   0  0  0  0  0  0  0  0  0  0  0  0
    2.3417   29.7007   32.7649 H   0  0  0  0  0  0  0  0  0  0  0  0
    1.2116   28.0443   29.0527 H   0  0  0  0  0  0  0  0  0  0  0  0
   -0.1960   26.9637   28.9823 H   0  0  0  0  0  0  0  0  0  0  0  0
   -2.0498   22.6732   41.0428 H   0  0  0  0  0  0  0  0  0  0  0  0
   -1.0920   21.2243   40.6195 H   0  0  0  0  0  0  0  0  0  0  0  0
    2.5503   21.8534   36.0906 H   0  0  0  0  0  0  0  0  0  0  0  0
   -1.4828   21.8657   43.6172 H   0  0  0  0  0  0  0  0  0  0  0  0
   -2.8734   21.1595   42.7262 H   0  0  0  0  0  0  0  0  0  0  0  0
   -1.3206   20.2618   42.8248 H   0  0  0  0  0  0  0  0  0  0  0  0
    1.3615   15.4955   39.1691 H   0  0  0  0  0  0  0  0  0  0  0  0
    2.0249   16.2437   40.8911 H   0  0  0  0  0  0  0  0  0  0  0  0
    1.1415   14.4163   35.9364 H   0  0  0  0  0  0  0  0  0  0  0  0
    2.2009   18.7865   40.5260 H   0  0  0  0  0  0  0  0  0  0  0  0
   -0.3608   26.9885   31.1509 H   0  0  0  0  0  0  0  0  0  0  0  0
    4.1021   18.7268   37.8538 H   0  0  0  0  0  0  0  0  0  0  0  0
    2.2483   18.4732   37.1185 H   0  0  0  0  0  0  0  0  0  0  0  0
   -0.2704   23.6823   42.1948 H   0  0  0  0  0  0  0  0  0  0  0  0
    0.6104   22.1134   42.3728 H   0  0  0  0  0  0  0  0  0  0  0  0
   -0.0203   27.3661   33.1745 H   0  0  0  0  0  0  0  0  0  0  0  0
    1.2166   25.6466   33.3706 H   0  0  0  0  0  0  0  0  0  0  0  0
    1.6557   24.9724   31.3993 H   0  0  0  0  0  0  0  0  0  0  0  0
    2.3794   14.3879   41.6336 H   0  0  0  0  0  0  0  0  0  0  0  0
    1.7088   13.5950   40.1679 H   0  0  0  0  0  0  0  0  0  0  0  0
    3.4522   14.0217   40.2402 H   0  0  0  0  0  0  0  0  0  0  0  0
    2.0906   27.6167   35.0754 H   0  0  0  0  0  0  0  0  0  0  0  0
    1.0790   28.9685   34.9613 H   0  0  0  0  0  0  0  0  0  0  0  0
    3.8455   27.4934   31.5012 H   0  0  0  0  0  0  0  0  0  0  0  0
    4.5729   26.8231   30.0018 H   0  0  0  0  0  0  0  0  0  0  0  0
    3.1124   27.8641   29.9037 H   0  0  0  0  0  0  0  0  0  0  0  0
    3.9948   24.9694   33.7776 H   0  0  0  0  0  0  0  0  0  0  0  0
  1 39  1  0
  2 24  1  0
  3 13  1  0
  3  7  1  0
  5 30  1  0
  6  4  1  0
  6 20  1  0
  7 37  1  6
  7 33  1  0
  7  1  1  0
  8 12  2  0
  9 36  1  0
 11 29  1  0
 12 10  1  0
 12  6  1  0
 14 28  1  0
 14 18  1  0
 16 17  1  0
 17  2  2  0
 17 29  1  0
 20 38  1  0
 21 15  1  0
 21 34  1  0
 22 35  1  0
 23  4  1  0
 24 15  2  0
 25 13  1  0
 25 33  1  0
 25  5  1  0
 26 20  1  0
 26  2  1  0
 27 32  2  0
 29 21  2  0
 30 36  1  0
 31 30  1  0
 32 19  1  0
 33 31  1  0
 34 28  1  0
 38 22  1  0
 39 31  1  0
 39 32  1  0
  4 40  1  0
  4 41  1  0
  6 42  1  1
  9 43  1  0
  9 44  1  0
  9 45  1  0
 13 46  1  0
 13 47  1  0
 14 48  1  0
 14 49  1  0
 16 50  1  0
 18 51  1  0
 18 52  1  0
 18 53  1  0
 22 54  1  0
 22 55  1  0
 23 56  1  0
 24 57  1  0
 25 58  1  6
 26 59  1  0
 26 60  1  0
 28 61  1  0
 28 62  1  0
 30 63  1  1
 31 64  1  6
 33 65  1  1
 35 66  1  0
 35 67  1  0
 35 68  1  0
 36 69  1  0
 36 70  1  0
 37 71  1  0
 37 72  1  0
 37 73  1  0
 39 74  1  1
M  CHG  2  10  -1  19  -1
M  END
>  <mol_id>  (79) 
2026-09-18-3war-s0-n100-0080

>  <rmsd_to_ref>  (79) 


$$$$

     RDKit          3D

 53 54  0  0  0  0  0  0  0  0999 V2000
    0.8824   28.9970   31.9644 C   0  0  0  0  0  0  0  0  0  0  0  0
    2.5447   22.0750   34.5801 C   0  0  0  0  0  0  0  0  0  0  0  0
    2.4734   17.2319   39.8294 C   0  0  0  0  0  0  0  0  0  0  0  0
    3.2082   19.2882   36.8891 N   0  0  0  0  0  0  0  0  0  0  0  0
    1.3198   22.5082   36.6723 C   0  0  0  0  0  0  0  0  0  0  0  0
    2.6061   25.1993   33.1656 C   0  0  0  0  0  0  0  0  0  0  0  0
    2.5673   14.9580   39.5395 O   0  0  0  0  0  0  0  0  0  0  0  0
    2.8099   20.4836   36.3514 C   0  0  0  0  0  0  0  0  0  0  0  0
    1.6758   20.8299   38.4034 C   0  0  0  0  0  0  0  0  0  0  0  0
    1.9191   21.2444   37.1476 C   0  0  0  0  0  0  0  0  0  0  0  0
    2.1516   15.9549   40.3525 C   0  0  0  0  0  0  0  0  0  0  0  0
    1.1807   28.6968   33.3566 C   0  0  0  0  0  0  0  0  0  0  0  0
    3.7042   13.8520   37.6633 C   0  0  0  0  0  0  0  0  0  0  0  0
    1.3613   26.7220   31.2615 C   0  0  0  0  0  0  0  0  0  0  0  0
    2.7904   18.7735   38.0615 C   0  0  0  0  0  0  0  0  0  0  0  0
    4.8790   13.4792   37.8512 O   0  0  0  0  0  0  0  0  0  0  0  0
    1.8098   26.2996   32.7380 C   0  0  0  0  0  0  0  0  0  0  0  0
    1.9914   19.6313   38.8442 C   0  0  0  0  0  0  0  0  0  0  0  0
    3.3140   15.1947   38.3472 C   0  0  0  0  0  0  0  0  0  0  0  0
    1.6860   22.9130   35.4136 C   0  0  0  0  0  0  0  0  0  0  0  0
    1.6316   27.3685   33.6218 C   0  0  0  0  0  0  0  0  0  0  0  0
    1.3997   25.6658   30.1017 C   0  0  0  0  0  0  0  0  0  0  0  0
    2.9195   13.3765   36.8962 O   0  0  0  0  0  0  0  0  0  0  0  0
    2.5726   25.3825   34.7606 N   0  0  0  0  0  0  0  0  0  0  0  0
    3.0775   20.9269   35.0458 C   0  0  0  0  0  0  0  0  0  0  0  0
    2.9590   17.5121   38.5746 C   0  0  0  0  0  0  0  0  0  0  0  0
    0.9127   28.0215   31.0229 C   0  0  0  0  0  0  0  0  0  0  0  0
    0.6295   30.0270   31.6722 H   0  0  0  0  0  0  0  0  0  0  0  0
    2.7619   22.3878   33.5481 H   0  0  0  0  0  0  0  0  0  0  0  0
    1.5437   17.8142   39.9103 H   0  0  0  0  0  0  0  0  0  0  0  0
    3.3769   17.4431   40.4203 H   0  0  0  0  0  0  0  0  0  0  0  0
    0.6212   23.0903   37.2911 H   0  0  0  0  0  0  0  0  0  0  0  0
    3.6318   25.2693   32.7744 H   0  0  0  0  0  0  0  0  0  0  0  0
    2.2434   24.2207   32.8183 H   0  0  0  0  0  0  0  0  0  0  0  0
    1.1877   21.5293   39.0981 H   0  0  0  0  0  0  0  0  0  0  0  0
    2.6365   15.8398   41.3331 H   0  0  0  0  0  0  0  0  0  0  0  0
    1.0572   15.8887   40.4413 H   0  0  0  0  0  0  0  0  0  0  0  0
    1.0661   29.4458   34.1541 H   0  0  0  0  0  0  0  0  0  0  0  0
    1.6302   19.2969   39.8279 H   0  0  0  0  0  0  0  0  0  0  0  0
    4.2293   15.7502   38.5993 H   0  0  0  0  0  0  0  0  0  0  0  0
    2.6919   15.7768   37.6515 H   0  0  0  0  0  0  0  0  0  0  0  0
    1.3290   23.8793   35.0277 H   0  0  0  0  0  0  0  0  0  0  0  0
    1.8739   27.1549   34.6734 H   0  0  0  0  0  0  0  0  0  0  0  0
    1.3267   24.6533   30.5253 H   0  0  0  0  0  0  0  0  0  0  0  0
    0.5546   25.8397   29.4193 H   0  0  0  0  0  0  0  0  0  0  0  0
    2.3448   25.7641   29.5474 H   0  0  0  0  0  0  0  0  0  0  0  0
    1.7913   24.8375   35.1524 H   0  0  0  0  0  0  0  0  0  0  0  0
    3.4600   25.0488   35.1632 H   0  0  0  0  0  0  0  0  0  0  0  0
    2.4449   26.3786   34.9891 H   0  0  0  0  0  0  0  0  0  0  0  0
    3.7312   20.3290   34.3937 H   0  0  0  0  0  0  0  0  0  0  0  0
    2.4731   16.8133   37.8778 H   0  0  0  0  0  0  0  0  0  0  0  0
    4.0491   17.4170   38.6867 H   0  0  0  0  0  0  0  0  0  0  0  0
    0.5625   28.2695   30.0100 H   0  0  0  0  0  0  0  0  0  0  0  0
  1 12  2  0
  2 25  1  0
  2 20  2  0
  3 11  1  0
  4 15  2  0
  5 10  2  0
  6 24  1  0
  7 11  1  0
  8  4  1  0
  8 10  1  0
  9 18  2  0
 10  9  1  0
 12 21  1  0
 13 16  1  0
 13 19  1  0
 14 17  1  0
 15 26  1  0
 15 18  1  0
 17  6  1  0
 17 21  2  0
 19  7  1  0
 20  5  1  0
 22 14  1  0
 23 13  2  0
 25  8  2  0
 26  3  1  0
 27 14  2  0
 27  1  1  0
  1 28  1  0
  2 29  1  0
  3 30  1  0
  3 31  1  0
  5 32  1  0
  6 33  1  0
  6 34  1  0
  9 35  1  0
 11 36  1  0
 11 37  1  0
 12 38  1  0
 18 39  1  0
 19 40  1  0
 19 41  1  0
 20 42  1  0
 21 43  1  0
 22 44  1  0
 22 45  1  0
 22 46  1  0
 24 47  1  0
 24 48  1  0
 24 49  1  0
 25 50  1  0
 26 51  1  0
 26 52  1  0
 27 53  1  0
M  CHG  2  16  -1  24   1
M  END
>  <mol_id>  (80) 
2026-09-18-3war-s0-n100-0082

>  <rmsd_to_ref>  (80) 


$$$$

     RDKit          3D

 73 76  0  0  0  0  0  0  0  0999 V2000
    2.0970   25.0110   28.4400 C   0  0  0  0  0  0  0  0  0  0  0  0
    2.6210   17.3300   39.8300 C   0  0  0  0  0  0  0  0  0  0  0  0
   -1.6460   20.3620   43.1560 C   0  0  0  0  0  0  0  0  0  0  0  0
    1.3830   20.2550   41.6070 C   0  0  0  0  0  0  0  0  0  0  0  0
    2.8420   21.0890   35.9390 C   0  0  0  0  0  0  0  0  0  0  0  0
    3.8890   13.4270   38.1320 O   0  0  0  0  0  0  0  0  0  0  0  0
    4.2700   12.6570   35.1970 O   0  0  0  0  0  0  0  0  0  0  0  0
    2.8430   18.5590   37.7820 C   0  0  0  0  0  0  0  0  0  0  0  0
    1.9110   19.6180   40.4100 C   0  0  0  0  0  0  0  0  0  0  0  0
    4.3350   25.1470   27.5250 C   0  0  0  0  0  0  0  0  0  0  0  0
    4.1840   23.6670   30.8580 C   0  0  2  0  0  0  0  0  0  0  0  0
    0.3790   20.5520   41.8700 N   0  0  0  0  0  0  0  0  0  0  0  0
    2.1720   18.3350   40.5440 C   0  0  0  0  0  0  0  0  0  0  0  0
    3.0790   15.9450   37.7700 C   0  0  0  0  0  0  0  0  0  0  0  0
    2.3380   15.0940   36.8820 C   0  0  0  0  0  0  0  0  0  0  0  0
    2.8890   22.4870   33.7970 C   0  0  0  0  0  0  0  0  0  0  0  0
   -1.9490   21.6950   42.5290 C   0  0  2  0  0  0  0  0  0  0  0  0
    2.5470   24.1870   30.8430 C   0  0  0  0  0  0  0  0  0  0  0  0
    4.5400   23.5080   32.0130 C   0  0  0  0  0  0  0  0  0  0  0  0
   -0.5830   21.1150   42.7710 C   0  0  1  0  0  0  0  0  0  0  0  0
    2.9090   25.3460   27.4290 C   0  0  0  0  0  0  0  0  0  0  0  0
    4.8970   24.6060   28.5490 C   0  0  0  0  0  0  0  0  0  0  0  0
    1.9270   13.3520   35.0150 O   0  0  0  0  0  0  0  0  0  0  0  0
    2.7360   24.6350   29.5550 C   0  0  0  0  0  0  0  0  0  0  0  0
    3.0800   13.8130   37.0930 C   0  0  2  0  0  0  0  0  0  0  0  0
   -2.2140   23.0130   43.3320 C   0  0  0  0  0  0  0  0  0  0  0  0
    2.6510   20.8950   37.0610 C   0  0  0  0  0  0  0  0  0  0  0  0
    3.6870   22.9600   32.9110 C   0  0  0  0  0  0  0  0  0  0  0  0
    2.1040   20.3810   39.3220 C   0  0  0  0  0  0  0  0  0  0  0  0
    3.2810   21.5600   34.8120 C   0  0  0  0  0  0  0  0  0  0  0  0
    2.9990   12.8190   35.9160 C   0  0  0  0  0  0  0  0  0  0  0  0
   -2.2130   21.5560   41.0790 C   0  0  0  0  0  0  0  0  0  0  0  0
   -3.4760   23.7500   43.2860 C   0  0  0  0  0  0  0  0  0  0  0  0
    4.2050   24.2580   29.5460 C   0  0  0  0  0  0  0  0  0  0  0  0
    2.8470   17.3620   38.4460 C   0  0  0  0  0  0  0  0  0  0  0  0
    2.5590   19.8650   38.1250 C   0  0  0  0  0  0  0  0  0  0  0  0
    1.0003   25.0420   28.3612 H   0  0  0  0  0  0  0  0  0  0  0  0
    2.8370   16.3893   40.3577 H   0  0  0  0  0  0  0  0  0  0  0  0
   -1.8423   20.2110   44.2278 H   0  0  0  0  0  0  0  0  0  0  0  0
   -1.9643   19.3316   42.9394 H   0  0  0  0  0  0  0  0  0  0  0  0
    2.1377   20.4714   42.3774 H   0  0  0  0  0  0  0  0  0  0  0  0
    3.4457   13.6385   38.9916 H   0  0  0  0  0  0  0  0  0  0  0  0
    5.0086   12.5629   35.8495 H   0  0  0  0  0  0  0  0  0  0  0  0
    3.1349   18.4554   36.7265 H   0  0  0  0  0  0  0  0  0  0  0  0
    4.9692   25.4716   26.6869 H   0  0  0  0  0  0  0  0  0  0  0  0
    5.0005   22.9307   30.8238 H   0  0  0  0  0  0  0  0  0  0  0  0
    1.2007   17.9469   40.8844 H   0  0  0  0  0  0  0  0  0  0  0  0
    3.1577   18.5270   40.9928 H   0  0  0  0  0  0  0  0  0  0  0  0
    4.0244   16.0913   37.2271 H   0  0  0  0  0  0  0  0  0  0  0  0
    2.8192   15.3743   38.6738 H   0  0  0  0  0  0  0  0  0  0  0  0
    2.3992   15.4368   35.8386 H   0  0  0  0  0  0  0  0  0  0  0  0
    1.2559   15.0457   37.0735 H   0  0  0  0  0  0  0  0  0  0  0  0
    1.8392   22.8147   33.7743 H   0  0  0  0  0  0  0  0  0  0  0  0
    1.8113   23.3748   30.9383 H   0  0  0  0  0  0  0  0  0  0  0  0
    2.1546   24.8534   31.6253 H   0  0  0  0  0  0  0  0  0  0  0  0
    5.5511   23.8087   32.3250 H   0  0  0  0  0  0  0  0  0  0  0  0
    0.3007   21.6015   43.2096 H   0  0  0  0  0  0  0  0  0  0  0  0
    2.4827   25.7791   26.5121 H   0  0  0  0  0  0  0  0  0  0  0  0
    5.9853   24.4462   28.5554 H   0  0  0  0  0  0  0  0  0  0  0  0
    1.1883   13.7193   35.5623 H   0  0  0  0  0  0  0  0  0  0  0  0
    3.9521   14.2319   36.5696 H   0  0  0  0  0  0  0  0  0  0  0  0
   -2.0548   22.7568   44.3898 H   0  0  0  0  0  0  0  0  0  0  0  0
   -1.5392   23.7141   42.8191 H   0  0  0  0  0  0  0  0  0  0  0  0
    2.4594   21.8700   37.5329 H   0  0  0  0  0  0  0  0  0  0  0  0
    1.8915   21.4583   39.3869 H   0  0  0  0  0  0  0  0  0  0  0  0
    4.2517   21.1073   34.5613 H   0  0  0  0  0  0  0  0  0  0  0  0
    2.7697   11.8095   36.2879 H   0  0  0  0  0  0  0  0  0  0  0  0
   -3.1772   21.0483   40.9289 H   0  0  0  0  0  0  0  0  0  0  0  0
   -2.2474   22.5529   40.6153 H   0  0  0  0  0  0  0  0  0  0  0  0
   -1.4105   20.9635   40.6153 H   0  0  0  0  0  0  0  0  0  0  0  0
   -3.8206   23.9513   44.3110 H   0  0  0  0  0  0  0  0  0  0  0  0
   -3.3255   24.7022   42.7562 H   0  0  0  0  0  0  0  0  0  0  0  0
   -4.2313   23.1510   42.7562 H   0  0  0  0  0  0  0  0  0  0  0  0
  1 24  2  0
  2 13  1  0
  4 12  2  3
  5 27  2  0
  7 31  1  0
  8 36  2  0
  8 35  1  0
  9 13  1  0
  9  4  1  0
 10 22  1  0
 11 19  1  0
 14 35  1  0
 15 25  1  0
 15 14  1  0
 16 30  1  0
 17 32  1  6
 17 20  1  0
 17  3  1  0
 17 26  1  0
 18 11  1  0
 19 28  2  0
 20 12  1  0
 20  3  1  0
 21 10  2  0
 21  1  1  0
 22 34  2  0
 23 31  1  0
 24 18  1  0
 25  6  1  0
 27 36  1  0
 28 16  2  0
 29  9  2  0
 30  5  2  0
 31 25  1  0
 33 26  1  0
 34 24  1  0
 34 11  1  0
 35  2  2  0
 36 29  1  0
  1 37  1  0
  2 38  1  0
  3 39  1  0
  3 40  1  0
  4 41  1  0
  6 42  1  0
  7 43  1  0
  8 44  1  0
 10 45  1  0
 11 46  1  6
 13 47  1  0
 13 48  1  0
 14 49  1  0
 14 50  1  0
 15 51  1  0
 15 52  1  0
 16 53  1  0
 18 54  1  0
 18 55  1  0
 19 56  1  0
 20 57  1  1
 21 58  1  0
 22 59  1  0
 23 60  1  0
 25 61  1  1
 26 62  1  0
 26 63  1  0
 27 64  1  0
 29 65  1  0
 30 66  1  0
 31 67  1  0
 32 68  1  0
 32 69  1  0
 32 70  1  0
 33 71  1  0
 33 72  1  0
 33 73  1  0
M  END
>  <mol_id>  (81) 
2026-09-18-3war-s0-n100-0083

>  <rmsd_to_ref>  (81) 


$$$$

     RDKit          3D

 52 56  0  0  0  0  0  0  0  0999 V2000
    1.2578   26.4774   31.9985 C   0  0  2  0  0  0  0  0  0  0  0  0
    3.3231   12.7413   39.1478 N   0  0  0  0  0  0  0  0  0  0  0  0
    1.9836   21.9804   35.8105 S   0  0  0  0  0  0  0  0  0  0  0  0
    3.3179   22.6691   33.5480 C   0  0  1  0  0  0  0  0  0  0  0  0
    1.3668   22.0398   38.3844 N   0  0  0  0  0  0  0  0  0  0  0  0
    1.9225   21.2203   37.4641 C   0  0  0  0  0  0  0  0  0  0  0  0
    0.4929   21.7721   40.5857 O   0  0  0  0  0  0  0  0  0  0  0  0
    1.5094   19.9413   39.4194 C   0  0  0  0  0  0  0  0  0  0  0  0
    0.3463   28.5862   31.5518 F   0  0  0  0  0  0  0  0  0  0  0  0
    3.2202   13.7687   38.3419 C   0  0  0  0  0  0  0  0  0  0  0  0
    2.7839   18.6592   37.8941 C   0  0  0  0  0  0  0  0  0  0  0  0
    1.8003   25.7722   33.0690 C   0  0  0  0  0  0  0  0  0  0  0  0
    2.7974   25.0298   30.5700 C   0  0  2  0  0  0  0  0  0  0  0  0
    2.1211   19.8464   38.1744 C   0  0  0  0  0  0  0  0  0  0  0  0
    1.3686   18.7506   40.2409 C   0  0  0  0  0  0  0  0  0  0  0  0
    3.2904   21.6551   34.6220 C   0  0  0  0  0  0  0  0  0  0  0  0
    2.4331   15.2293   40.0958 C   0  0  0  0  0  0  0  0  0  0  0  0
    1.0633   21.3709   39.5593 C   0  0  0  0  0  0  0  0  0  0  0  0
    3.2321   16.2506   38.1618 C   0  0  0  0  0  0  0  0  0  0  0  0
    2.2576   22.4348   32.6935 F   0  0  0  0  0  0  0  0  0  0  0  0
    3.0194   15.1087   38.8554 C   0  0  0  0  0  0  0  0  0  0  0  0
   -0.0100   27.2217   31.8256 C   0  0  0  0  0  0  0  0  0  0  0  0
    3.4825   24.0765   33.9777 C   0  0  0  0  0  0  0  0  0  0  0  0
    1.9932   17.5750   39.8227 C   0  0  0  0  0  0  0  0  0  0  0  0
    1.9476   26.2883   30.7285 C   0  0  1  0  0  0  0  0  0  0  0  0
    2.8205   17.4867   38.6167 C   0  0  0  0  0  0  0  0  0  0  0  0
    1.9681   16.4124   40.5799 C   0  0  0  0  0  0  0  0  0  0  0  0
    1.3837   24.9663   30.2448 C   0  0  0  0  0  0  0  0  0  0  0  0
    3.0668   24.9848   32.9054 C   0  0  0  0  0  0  0  0  0  0  0  0
    3.8007   24.9458   31.7478 N   0  0  0  0  0  0  0  0  0  0  0  0
    1.2299   27.0500   32.9372 H   0  0  0  0  0  0  0  0  0  0  0  0
    3.4656   11.7968   38.7626 H   0  0  0  0  0  0  0  0  0  0  0  0
    4.2581   22.5374   32.9924 H   0  0  0  0  0  0  0  0  0  0  0  0
    3.2873   13.6113   37.2552 H   0  0  0  0  0  0  0  0  0  0  0  0
    3.3640   18.6540   36.9594 H   0  0  0  0  0  0  0  0  0  0  0  0
    1.2947   25.7924   34.0457 H   0  0  0  0  0  0  0  0  0  0  0  0
    3.5385   24.4199   30.0326 H   0  0  0  0  0  0  0  0  0  0  0  0
    0.7828   18.7756   41.1717 H   0  0  0  0  0  0  0  0  0  0  0  0
    3.1251   20.6646   34.1728 H   0  0  0  0  0  0  0  0  0  0  0  0
    4.2531   21.6920   35.1528 H   0  0  0  0  0  0  0  0  0  0  0  0
    2.3366   14.3301   40.7219 H   0  0  0  0  0  0  0  0  0  0  0  0
    3.7545   16.1914   37.1956 H   0  0  0  0  0  0  0  0  0  0  0  0
   -0.5834   26.8037   30.9852 H   0  0  0  0  0  0  0  0  0  0  0  0
   -0.6369   27.1497   32.7266 H   0  0  0  0  0  0  0  0  0  0  0  0
    2.8640   24.2591   34.8688 H   0  0  0  0  0  0  0  0  0  0  0  0
    4.5417   24.2588   34.2121 H   0  0  0  0  0  0  0  0  0  0  0  0
    2.1393   27.3296   30.4303 H   0  0  0  0  0  0  0  0  0  0  0  0
    1.5604   16.4486   41.6009 H   0  0  0  0  0  0  0  0  0  0  0  0
    1.0703   24.8590   29.1959 H   0  0  0  0  0  0  0  0  0  0  0  0
    0.5509   24.3241   30.5673 H   0  0  0  0  0  0  0  0  0  0  0  0
    4.3332   24.0657   31.6964 H   0  0  0  0  0  0  0  0  0  0  0  0
    4.4730   25.7253   31.7133 H   0  0  0  0  0  0  0  0  0  0  0  0
  1 22  1  0
  1 12  1  0
  3  6  1  0
  4 20  1  0
  4 23  1  0
  4 16  1  0
  5 18  1  0
  6 14  1  0
  6  5  2  0
  8 18  1  0
  8 15  2  0
  9 22  1  0
 10 21  1  0
 10  2  2  3
 11 14  2  0
 11 26  1  0
 13 28  1  0
 13 25  1  0
 13 30  1  0
 14  8  1  0
 16  3  1  0
 17 27  1  0
 18  7  2  0
 19 26  2  0
 19 21  1  0
 21 17  2  0
 24 15  1  0
 24 27  2  0
 25 28  1  0
 25  1  1  0
 26 24  1  0
 29 12  2  0
 29 23  1  0
 30 29  1  0
  1 31  1  1
  2 32  1  0
  4 33  1  6
 10 34  1  0
 11 35  1  0
 12 36  1  0
 13 37  1  6
 15 38  1  0
 16 39  1  0
 16 40  1  0
 17 41  1  0
 19 42  1  0
 22 43  1  0
 22 44  1  0
 23 45  1  0
 23 46  1  0
 25 47  1  6
 27 48  1  0
 28 49  1  0
 28 50  1  0
 30 51  1  0
 30 52  1  0
M  CHG  1  30   1
M  END
>  <mol_id>  (82) 
2026-09-18-3war-s0-n100-0084

>  <rmsd_to_ref>  (82) 


$$$$

     RDKit          3D

 40 41  0  0  0  0  0  0  0  0999 V2000
    3.8420   22.8600   32.7350 O   0  0  0  0  0  0  0  0  0  0  0  0
    1.2530   17.6560   41.5760 C   0  0  0  0  0  0  0  0  0  0  0  0
    2.7580   21.0270   35.9210 C   0  0  0  0  0  0  0  0  0  0  0  0
    1.5930   24.9820   30.2280 S   0  0  0  0  0  0  0  0  0  0  0  0
    3.6630   22.7890   34.1310 C   0  0  2  0  0  0  0  0  0  0  0  0
    3.0570   19.8680   37.9090 N   0  0  0  0  0  0  0  0  0  0  0  0
    2.0870   15.8380   40.1050 N   0  0  0  0  0  0  0  0  0  0  0  0
    3.3680   23.8480   31.9090 C   0  0  1  0  0  0  0  0  0  0  0  0
    2.6840   20.0980   40.1590 O   0  0  0  0  0  0  0  0  0  0  0  0
    1.8690   21.8140   36.2770 O   0  0  0  0  0  0  0  0  0  0  0  0
    2.6300   24.1590   29.1900 C   0  0  0  0  0  0  0  0  0  0  0  0
    2.0200   17.1350   40.3430 C   0  0  0  0  0  0  0  0  0  0  0  0
    3.1360   19.9370   36.7150 N   0  0  0  0  0  0  0  0  0  0  0  0
    1.5070   25.0550   32.7420 O   0  0  0  0  0  0  0  0  0  0  0  0
    3.5450   21.3710   34.6970 C   0  0  0  0  0  0  0  0  0  0  0  0
    4.2650   23.9390   30.8020 C   0  0  0  0  0  0  0  0  0  0  0  0
    2.2220   24.6130   31.7570 C   0  0  0  0  0  0  0  0  0  0  0  0
    2.4920   23.5460   34.3470 O   0  0  0  0  0  0  0  0  0  0  0  0
    2.6330   15.5710   38.9150 C   0  0  0  0  0  0  0  0  0  0  0  0
    2.7170   19.3910   39.2600 C   0  0  0  0  0  0  0  0  0  0  0  0
    3.6950   23.4360   29.7160 C   0  0  0  0  0  0  0  0  0  0  0  0
    2.6240   17.9550   39.4210 C   0  0  0  0  0  0  0  0  0  0  0  0
    3.1980   16.9420   38.1120 S   0  0  0  0  0  0  0  0  0  0  0  0
    1.7564   17.3141   42.4924 H   0  0  0  0  0  0  0  0  0  0  0  0
    1.2325   18.7557   41.5574 H   0  0  0  0  0  0  0  0  0  0  0  0
    0.2232   17.2697   41.5574 H   0  0  0  0  0  0  0  0  0  0  0  0
    4.5468   23.1733   34.6613 H   0  0  0  0  0  0  0  0  0  0  0  0
    3.5830   20.7173   38.1599 H   0  0  0  0  0  0  0  0  0  0  0  0
    2.8862   24.1901   32.8368 H   0  0  0  0  0  0  0  0  0  0  0  0
    3.0580   24.9069   28.5063 H   0  0  0  0  0  0  0  0  0  0  0  0
    1.9879   23.3849   28.7444 H   0  0  0  0  0  0  0  0  0  0  0  0
    3.5188   19.1154   36.2257 H   0  0  0  0  0  0  0  0  0  0  0  0
    3.1206   20.7598   33.8868 H   0  0  0  0  0  0  0  0  0  0  0  0
    4.5722   21.1984   35.0507 H   0  0  0  0  0  0  0  0  0  0  0  0
    4.5194   24.9944   30.6247 H   0  0  0  0  0  0  0  0  0  0  0  0
    5.1781   23.3690   31.0284 H   0  0  0  0  0  0  0  0  0  0  0  0
    2.3381   23.6455   35.3199 H   0  0  0  0  0  0  0  0  0  0  0  0
    2.7068   14.5552   38.4994 H   0  0  0  0  0  0  0  0  0  0  0  0
    3.3267   22.4300   29.9657 H   0  0  0  0  0  0  0  0  0  0  0  0
    4.4743   23.4536   28.9398 H   0  0  0  0  0  0  0  0  0  0  0  0
  1  5  1  0
  3 10  2  0
  3 13  1  0
  4 17  1  0
  5 18  1  0
  5 15  1  0
  6 20  1  0
  7 12  1  0
  8  1  1  0
 11 21  1  0
 11  4  1  0
 12  2  1  0
 13  6  1  0
 15  3  1  0
 16  8  1  0
 17  8  1  0
 17 14  2  0
 19  7  2  0
 20 22  1  0
 20  9  2  0
 21 16  1  0
 22 12  2  0
 23 19  1  0
 23 22  1  0
  2 24  1  0
  2 25  1  0
  2 26  1  0
  5 27  1  1
  6 28  1  0
  8 29  1  1
 11 30  1  0
 11 31  1  0
 13 32  1  0
 15 33  1  0
 15 34  1  0
 16 35  1  0
 16 36  1  0
 18 37  1  0
 19 38  1  0
 21 39  1  0
 21 40  1  0
M  END
>  <mol_id>  (83) 
2026-09-18-3war-s0-n100-0085

>  <rmsd_to_ref>  (83) 


$$$$

     RDKit          3D

 65 65  0  0  0  0  0  0  0  0999 V2000
    2.7351   20.8800   36.5938 C   0  0  0  0  0  0  0  0  0  0  0  0
    1.0696   16.8373   40.1033 C   0  0  0  0  0  0  0  0  0  0  0  0
    1.7943   25.2184   35.3787 C   0  0  0  0  0  0  0  0  0  0  0  0
    1.4848   26.0806   32.9287 C   0  0  0  0  0  0  0  0  0  0  0  0
    0.3193   28.0996   32.3224 C   0  0  0  0  0  0  0  0  0  0  0  0
    2.3637   18.8176   37.1989 C   0  0  0  0  0  0  0  0  0  0  0  0
    0.2752   27.7298   33.4103 C   0  0  0  0  0  0  0  0  0  0  0  0
    1.2330   16.5807   41.6664 C   0  0  0  0  0  0  0  0  0  0  0  0
    1.8904   20.2012   37.6607 C   0  0  0  0  0  0  0  0  0  0  0  0
    1.7529   26.5718   31.6134 C   0  0  0  0  0  0  0  0  0  0  0  0
    4.4073   22.9454   35.4112 O   0  0  0  0  0  0  0  0  0  0  0  0
    1.9373   17.7413   38.0302 O   0  0  0  0  0  0  0  0  0  0  0  0
    2.6248   24.3746   34.9311 C   0  0  0  0  0  0  0  0  0  0  0  0
    3.3783   15.6622   37.2212 C   0  0  0  0  0  0  0  0  0  0  0  0
    3.0322   23.0591   35.3240 C   0  0  0  0  0  0  0  0  0  0  0  0
    1.6306   26.4066   34.2067 C   0  0  0  0  0  0  0  0  0  0  0  0
    2.1916   22.1207   35.7605 C   0  0  0  0  0  0  0  0  0  0  0  0
    3.0555   15.6627   38.7407 C   0  0  1  0  0  0  0  0  0  0  0  0
    2.2603   17.1122   39.2726 C   0  0  2  0  0  0  0  0  0  0  0  0
    0.3725   27.0049   34.6511 C   0  0  0  0  0  0  0  0  0  0  0  0
    4.3670   13.1687   38.6378 O   0  0  0  0  0  0  0  0  0  0  0  0
    3.1846   18.2344   39.7886 C   0  0  0  0  0  0  0  0  0  0  0  0
    2.4241   12.1580   38.9721 O   0  0  0  0  0  0  0  0  0  0  0  0
    3.1962   13.3013   38.9642 C   0  0  0  0  0  0  0  0  0  0  0  0
    1.5358   27.8116   31.0278 C   0  0  0  0  0  0  0  0  0  0  0  0
    2.4151   14.4896   39.3992 C   0  0  0  0  0  0  0  0  0  0  0  0
    3.6514   21.2229   37.0966 H   0  0  0  0  0  0  0  0  0  0  0  0
    2.8129   20.0976   35.8244 H   0  0  0  0  0  0  0  0  0  0  0  0
    0.5886   15.9418   39.6829 H   0  0  0  0  0  0  0  0  0  0  0  0
    0.5062   17.7810   40.0589 H   0  0  0  0  0  0  0  0  0  0  0  0
    0.8246   24.7334   35.5643 H   0  0  0  0  0  0  0  0  0  0  0  0
    2.1421   25.6478   36.3299 H   0  0  0  0  0  0  0  0  0  0  0  0
    2.0005   25.1094   32.8995 H   0  0  0  0  0  0  0  0  0  0  0  0
    0.4578   26.4740   32.9069 H   0  0  0  0  0  0  0  0  0  0  0  0
   -0.6232   27.7405   31.8834 H   0  0  0  0  0  0  0  0  0  0  0  0
    0.6013   29.1395   32.5443 H   0  0  0  0  0  0  0  0  0  0  0  0
    1.9767   18.6427   36.1842 H   0  0  0  0  0  0  0  0  0  0  0  0
    3.4627   18.8313   37.2426 H   0  0  0  0  0  0  0  0  0  0  0  0
    0.7724   28.6255   33.8110 H   0  0  0  0  0  0  0  0  0  0  0  0
   -0.4154   26.9467   33.0641 H   0  0  0  0  0  0  0  0  0  0  0  0
    0.2796   16.2208   42.0805 H   0  0  0  0  0  0  0  0  0  0  0  0
    2.0144   15.8249   41.8341 H   0  0  0  0  0  0  0  0  0  0  0  0
    1.5179   17.5194   42.1642 H   0  0  0  0  0  0  0  0  0  0  0  0
    2.1879   20.4523   38.6895 H   0  0  0  0  0  0  0  0  0  0  0  0
    0.8138   20.4173   37.7248 H   0  0  0  0  0  0  0  0  0  0  0  0
    2.8347   26.4134   31.4927 H   0  0  0  0  0  0  0  0  0  0  0  0
    0.9264   26.0477   31.1112 H   0  0  0  0  0  0  0  0  0  0  0  0
    4.8170   22.0834   35.6744 H   0  0  0  0  0  0  0  0  0  0  0  0
    2.2902   24.2279   33.8936 H   0  0  0  0  0  0  0  0  0  0  0  0
    3.5105   24.8795   35.3441 H   0  0  0  0  0  0  0  0  0  0  0  0
    3.6879   14.6528   36.9124 H   0  0  0  0  0  0  0  0  0  0  0  0
    2.4828   15.9601   36.6560 H   0  0  0  0  0  0  0  0  0  0  0  0
    4.1928   16.3734   37.0191 H   0  0  0  0  0  0  0  0  0  0  0  0
    2.5629   26.9888   34.1643 H   0  0  0  0  0  0  0  0  0  0  0  0
    1.1166   22.2052   35.5431 H   0  0  0  0  0  0  0  0  0  0  0  0
    4.0953   15.5909   39.0923 H   0  0  0  0  0  0  0  0  0  0  0  0
    0.4700   27.6468   35.5391 H   0  0  0  0  0  0  0  0  0  0  0  0
   -0.4576   26.3668   34.9884 H   0  0  0  0  0  0  0  0  0  0  0  0
    3.2096   18.2123   40.8881 H   0  0  0  0  0  0  0  0  0  0  0  0
    4.2007   18.0823   39.3955 H   0  0  0  0  0  0  0  0  0  0  0  0
    2.8025   19.2088   39.4500 H   0  0  0  0  0  0  0  0  0  0  0  0
    2.4016   28.4897   31.0494 H   0  0  0  0  0  0  0  0  0  0  0  0
    1.2900   27.9186   29.9610 H   0  0  0  0  0  0  0  0  0  0  0  0
    2.4566   14.5952   40.4933 H   0  0  0  0  0  0  0  0  0  0  0  0
    1.3546   14.3997   39.1213 H   0  0  0  0  0  0  0  0  0  0  0  0
  1  9  1  0
  2  8  1  0
  4 16  1  0
  5  7  1  0
  6  9  1  0
  6 12  1  0
  7 20  1  0
 10  4  1  0
 11 15  1  0
 19 12  1  6
 13  3  1  0
 13 15  1  0
 15 17  2  3
 16 20  1  0
 16  3  1  0
 17  1  1  0
 18 14  1  0
 18 19  1  0
 18 26  1  0
 19 22  1  0
 19  2  1  0
 21 24  2  0
 24 26  1  0
 24 23  1  0
 25 10  1  0
 25  5  1  0
  1 27  1  0
  1 28  1  0
  2 29  1  0
  2 30  1  0
  3 31  1  0
  3 32  1  0
  4 33  1  0
  4 34  1  0
  5 35  1  0
  5 36  1  0
  6 37  1  0
  6 38  1  0
  7 39  1  0
  7 40  1  0
  8 41  1  0
  8 42  1  0
  8 43  1  0
  9 44  1  0
  9 45  1  0
 10 46  1  0
 10 47  1  0
 11 48  1  0
 13 49  1  0
 13 50  1  0
 14 51  1  0
 14 52  1  0
 14 53  1  0
 16 54  1  0
 17 55  1  0
 18 56  1  1
 20 57  1  0
 20 58  1  0
 22 59  1  0
 22 60  1  0
 22 61  1  0
 25 62  1  0
 25 63  1  0
 26 64  1  0
 26 65  1  0
M  CHG  1  23  -1
M  END
>  <mol_id>  (84) 
2026-09-18-3war-s0-n100-0086

>  <rmsd_to_ref>  (84) 


$$$$

     RDKit          3D

 63 64  0  0  0  0  0  0  0  0999 V2000
    1.8193   22.2625   35.5309 C   0  0  0  0  0  0  0  0  0  0  0  0
    1.0012   16.8238   41.0374 C   0  0  0  0  0  0  0  0  0  0  0  0
    2.4566   28.2916   33.8890 O   0  0  0  0  0  0  0  0  0  0  0  0
    3.3005   22.1199   34.9281 C   0  0  0  0  0  0  0  0  0  0  0  0
    1.0992   28.4468   33.0620 C   0  0  0  0  0  0  0  0  0  0  0  0
    0.8321   26.4318   29.9420 C   0  0  0  0  0  0  0  0  0  0  0  0
    3.5093   18.8261   38.5551 S   0  0  0  0  0  0  0  0  0  0  0  0
    0.9145   14.5462   41.4682 O   0  0  0  0  0  0  0  0  0  0  0  0
    1.6493   21.0546   36.5076 C   0  0  0  0  0  0  0  0  0  0  0  0
    2.2114   15.1268   39.8562 O   0  0  0  0  0  0  0  0  0  0  0  0
    2.8797   17.4384   39.4300 C   0  0  0  0  0  0  0  0  0  0  0  0
   -0.0887   17.1070   41.7560 C   0  0  0  0  0  0  0  0  0  0  0  0
    2.4249   25.1881   31.6873 C   0  0  0  0  0  0  0  0  0  0  0  0
    0.4875   19.4503   41.5375 C   0  0  0  0  0  0  0  0  0  0  0  0
    1.5706   19.1581   40.7365 N   0  0  0  0  0  0  0  0  0  0  0  0
    3.6042   23.3409   34.0138 C   0  0  0  0  0  0  0  0  0  0  0  0
    0.2156   20.6395   41.8572 O   0  0  0  0  0  0  0  0  0  0  0  0
    2.6957   20.9983   37.6294 C   0  0  0  0  0  0  0  0  0  0  0  0
    2.4354   26.7843   31.6703 C   0  0  0  0  0  0  0  0  0  0  0  0
    1.7958   17.8041   40.4036 C   0  0  1  0  0  0  0  0  0  0  0  0
   -0.4233   18.4860   42.0544 C   0  0  0  0  0  0  0  0  0  0  0  0
    0.3005   28.9655   33.9310 O   0  0  0  0  0  0  0  0  0  0  0  0
    1.1880   26.0147   28.9169 O   0  0  0  0  0  0  0  0  0  0  0  0
   -0.0048   27.0878   30.9865 C   0  0  0  0  0  0  0  0  0  0  0  0
    1.5477   29.0737   31.9396 C   0  0  0  0  0  0  0  0  0  0  0  0
    1.1599   27.5345   31.9491 C   0  0  1  0  0  0  0  0  0  0  0  0
    1.3984   15.4213   40.7882 C   0  0  0  0  0  0  0  0  0  0  0  0
    2.3168   20.0390   38.6684 C   0  0  2  0  0  0  0  0  0  0  0  0
    2.3521   20.2841   40.2282 C   0  0  0  0  0  0  0  0  0  0  0  0
    1.0704   22.2151   34.7266 H   0  0  0  0  0  0  0  0  0  0  0  0
    1.6776   23.2255   36.0434 H   0  0  0  0  0  0  0  0  0  0  0  0
    2.2570   28.3163   34.8584 H   0  0  0  0  0  0  0  0  0  0  0  0
    4.0300   22.0864   35.7507 H   0  0  0  0  0  0  0  0  0  0  0  0
    3.3708   21.1930   34.3399 H   0  0  0  0  0  0  0  0  0  0  0  0
    1.7181   27.0617   30.1097 H   0  0  0  0  0  0  0  0  0  0  0  0
    0.1245   25.5904   29.9789 H   0  0  0  0  0  0  0  0  0  0  0  0
    0.6529   21.1217   36.9688 H   0  0  0  0  0  0  0  0  0  0  0  0
    1.7815   20.1424   35.9071 H   0  0  0  0  0  0  0  0  0  0  0  0
    2.4712   16.7210   38.7031 H   0  0  0  0  0  0  0  0  0  0  0  0
    3.7107   17.0074   40.0076 H   0  0  0  0  0  0  0  0  0  0  0  0
   -0.7327   16.2937   42.1216 H   0  0  0  0  0  0  0  0  0  0  0  0
    2.3728   24.8328   32.7271 H   0  0  0  0  0  0  0  0  0  0  0  0
    1.5502   24.8212   31.1302 H   0  0  0  0  0  0  0  0  0  0  0  0
    3.3444   24.8103   31.2163 H   0  0  0  0  0  0  0  0  0  0  0  0
    3.7626   24.2343   34.6358 H   0  0  0  0  0  0  0  0  0  0  0  0
    4.5101   23.1402   33.4229 H   0  0  0  0  0  0  0  0  0  0  0  0
    2.7548   23.5118   33.3361 H   0  0  0  0  0  0  0  0  0  0  0  0
    3.6633   20.6979   37.2010 H   0  0  0  0  0  0  0  0  0  0  0  0
    2.7637   21.9957   38.0886 H   0  0  0  0  0  0  0  0  0  0  0  0
    3.1689   27.1080   32.4235 H   0  0  0  0  0  0  0  0  0  0  0  0
    2.6579   27.0313   30.6217 H   0  0  0  0  0  0  0  0  0  0  0  0
    2.5127   17.7192   41.2336 H   0  0  0  0  0  0  0  0  0  0  0  0
   -1.4176   18.6951   41.6329 H   0  0  0  0  0  0  0  0  0  0  0  0
   -0.3849   18.5822   43.1495 H   0  0  0  0  0  0  0  0  0  0  0  0
    0.6091   28.7336   34.8426 H   0  0  0  0  0  0  0  0  0  0  0  0
    1.7705   25.2280   29.0649 H   0  0  0  0  0  0  0  0  0  0  0  0
   -0.5702   27.9442   30.5906 H   0  0  0  0  0  0  0  0  0  0  0  0
   -0.7921   26.4653   31.4366 H   0  0  0  0  0  0  0  0  0  0  0  0
    2.6006   29.3810   31.8578 H   0  0  0  0  0  0  0  0  0  0  0  0
    1.2525   29.9593   31.3577 H   0  0  0  0  0  0  0  0  0  0  0  0
    1.2467   19.9309   38.4376 H   0  0  0  0  0  0  0  0  0  0  0  0
    3.3826   20.2599   40.6124 H   0  0  0  0  0  0  0  0  0  0  0  0
    1.9585   21.2661   40.5294 H   0  0  0  0  0  0  0  0  0  0  0  0
  1  9  1  0
  2 12  2  0
  4  1  1  0
  5  3  1  0
  5 22  1  0
  6 24  1  0
  7 28  1  0
  7 11  1  0
  9 18  1  0
 10 27  2  0
 12 21  1  0
 14 17  2  0
 14 21  1  0
 15 14  1  0
 16  4  1  0
 19 13  1  0
 26 19  1  1
 20 11  1  0
 20 15  1  0
 20  2  1  0
 23  6  1  0
 25 26  1  0
 25  5  1  0
 26 24  1  0
 26  5  1  0
 27  2  1  0
 27  8  1  0
 28 18  1  0
 28 29  1  0
 29 15  1  0
  1 30  1  0
  1 31  1  0
  3 32  1  0
  4 33  1  0
  4 34  1  0
  6 35  1  0
  6 36  1  0
  9 37  1  0
  9 38  1  0
 11 39  1  0
 11 40  1  0
 12 41  1  0
 13 42  1  0
 13 43  1  0
 13 44  1  0
 16 45  1  0
 16 46  1  0
 16 47  1  0
 18 48  1  0
 18 49  1  0
 19 50  1  0
 19 51  1  0
 20 52  1  1
 21 53  1  0
 21 54  1  0
 22 55  1  0
 23 56  1  0
 24 57  1  0
 24 58  1  0
 25 59  1  0
 25 60  1  0
 28 61  1  6
 29 62  1  0
 29 63  1  0
M  CHG  1   8  -1
M  END
>  <mol_id>  (85) 
2026-09-18-3war-s0-n100-0087

>  <rmsd_to_ref>  (85) 


$$$$

     RDKit          3D

 46 46  0  0  0  0  0  0  0  0999 V2000
    3.7462   21.0824   35.8680 C   0  0  0  0  0  0  0  0  0  0  0  0
    2.9034   16.9020   37.5037 C   0  0  0  0  0  0  0  0  0  0  0  0
    2.8631   18.0372   39.5963 C   0  0  0  0  0  0  0  0  0  0  0  0
    2.1389   24.0330   34.5080 C   0  0  0  0  0  0  0  0  0  0  0  0
    2.6584   19.2371   39.0591 C   0  0  0  0  0  0  0  0  0  0  0  0
    2.9379   16.9030   38.8811 C   0  0  0  0  0  0  0  0  0  0  0  0
    0.5083   28.0470   32.4541 C   0  0  0  0  0  0  0  0  0  0  0  0
    3.2205   22.0671   35.0499 C   0  0  0  0  0  0  0  0  0  0  0  0
    1.4751   27.1866   33.2228 C   0  0  0  0  0  0  0  0  0  0  0  0
    2.7905   19.3593   37.6554 C   0  0  0  0  0  0  0  0  0  0  0  0
    2.7789   20.6931   37.0855 C   0  0  0  0  0  0  0  0  0  0  0  0
    2.7110   22.8248   34.1755 C   0  0  0  0  0  0  0  0  0  0  0  0
    4.0947   25.3076   35.5157 C   0  0  0  0  0  0  0  0  0  0  0  0
    2.7537   25.1401   35.2388 C   0  0  0  0  0  0  0  0  0  0  0  0
    0.8804   26.7530   34.6013 C   0  0  0  0  0  0  0  0  0  0  0  0
    2.8488   18.1476   36.8748 C   0  0  0  0  0  0  0  0  0  0  0  0
    1.9036   26.2826   35.7371 C   0  0  0  0  0  0  0  0  0  0  0  0
    2.6733   26.7168   32.3121 C   0  0  0  0  0  0  0  0  0  0  0  0
    4.7003   21.4425   36.2804 H   0  0  0  0  0  0  0  0  0  0  0  0
    3.8776   20.1803   35.2523 H   0  0  0  0  0  0  0  0  0  0  0  0
    2.9182   15.9652   36.9273 H   0  0  0  0  0  0  0  0  0  0  0  0
    2.9775   17.9704   40.6883 H   0  0  0  0  0  0  0  0  0  0  0  0
    1.0977   24.1823   34.1862 H   0  0  0  0  0  0  0  0  0  0  0  0
    2.3958   20.1035   39.6839 H   0  0  0  0  0  0  0  0  0  0  0  0
    3.0297   15.9440   39.4120 H   0  0  0  0  0  0  0  0  0  0  0  0
   -0.2042   28.5112   33.1518 H   0  0  0  0  0  0  0  0  0  0  0  0
    1.0620   28.8325   31.9188 H   0  0  0  0  0  0  0  0  0  0  0  0
   -0.0393   27.4261   31.7298 H   0  0  0  0  0  0  0  0  0  0  0  0
    2.5024   22.3900   35.8181 H   0  0  0  0  0  0  0  0  0  0  0  0
    4.0282   21.8502   34.3353 H   0  0  0  0  0  0  0  0  0  0  0  0
    2.3406   27.1997   33.9016 H   0  0  0  0  0  0  0  0  0  0  0  0
    3.0166   21.3853   37.9067 H   0  0  0  0  0  0  0  0  0  0  0  0
    1.7806   20.7501   36.6273 H   0  0  0  0  0  0  0  0  0  0  0  0
    1.9255   22.2376   33.6773 H   0  0  0  0  0  0  0  0  0  0  0  0
    3.5912   23.1353   33.5935 H   0  0  0  0  0  0  0  0  0  0  0  0
    4.2851   25.0598   36.5705 H   0  0  0  0  0  0  0  0  0  0  0  0
    4.6882   24.6435   34.8702 H   0  0  0  0  0  0  0  0  0  0  0  0
    4.3802   26.3531   35.3274 H   0  0  0  0  0  0  0  0  0  0  0  0
    0.3175   27.6096   35.0004 H   0  0  0  0  0  0  0  0  0  0  0  0
    0.2828   25.8571   34.3770 H   0  0  0  0  0  0  0  0  0  0  0  0
    2.8501   18.2052   35.7764 H   0  0  0  0  0  0  0  0  0  0  0  0
    1.3376   25.9545   36.6214 H   0  0  0  0  0  0  0  0  0  0  0  0
    2.5583   27.1267   35.9994 H   0  0  0  0  0  0  0  0  0  0  0  0
    3.4309   26.2157   32.9326 H   0  0  0  0  0  0  0  0  0  0  0  0
    2.3017   26.0160   31.5500 H   0  0  0  0  0  0  0  0  0  0  0  0
    3.1233   27.5907   31.8184 H   0  0  0  0  0  0  0  0  0  0  0  0
  1 11  1  0
  2  6  2  0
  4 12  1  0
  4 14  2  3
  5  3  2  0
  6  3  1  0
  7  9  1  0
  8  1  1  0
  9 15  1  0
 10  5  1  0
 11 10  1  0
 12  8  1  0
 14 17  1  0
 14 13  1  0
 15 17  1  0
 16 10  2  0
 16  2  1  0
 18  9  1  0
  1 19  1  0
  1 20  1  0
  2 21  1  0
  3 22  1  0
  4 23  1  0
  5 24  1  0
  6 25  1  0
  7 26  1  0
  7 27  1  0
  7 28  1  0
  8 29  1  0
  8 30  1  0
  9 31  1  0
 11 32  1  0
 11 33  1  0
 12 34  1  0
 12 35  1  0
 13 36  1  0
 13 37  1  0
 13 38  1  0
 15 39  1  0
 15 40  1  0
 16 41  1  0
 17 42  1  0
 17 43  1  0
 18 44  1  0
 18 45  1  0
 18 46  1  0
M  END
>  <mol_id>  (86) 
2026-09-18-3war-s0-n100-0088

>  <rmsd_to_ref>  (86) 


$$$$

     RDKit          3D

 78 80  0  0  0  0  0  0  0  0999 V2000
    0.7739   14.6634   41.8295 C   0  0  2  0  0  0  0  0  0  0  0  0
    1.4590   27.0674   30.5858 C   0  0  0  0  0  0  0  0  0  0  0  0
    0.0748   19.3949   42.9374 C   0  0  0  0  0  0  0  0  0  0  0  0
    2.0383   23.5914   35.0677 C   0  0  0  0  0  0  0  0  0  0  0  0
    1.1265   17.2989   42.3236 C   0  0  0  0  0  0  0  0  0  0  0  0
    2.3258   20.0633   39.9890 C   0  0  0  0  0  0  0  0  0  0  0  0
    1.4072   26.9278   33.7086 C   0  0  0  0  0  0  0  0  0  0  0  0
    3.6537   18.1581   39.4145 O   0  0  0  0  0  0  0  0  0  0  0  0
    1.6059   19.3258   41.0281 C   0  0  0  0  0  0  0  0  0  0  0  0
    2.5550   24.7936   34.6145 C   0  0  0  0  0  0  0  0  0  0  0  0
    1.7559   17.9782   41.2473 C   0  0  0  0  0  0  0  0  0  0  0  0
    3.5744   17.3013   37.0772 C   0  0  0  0  0  0  0  0  0  0  0  0
    2.9257   19.5469   37.6726 C   0  0  0  0  0  0  0  0  0  0  0  0
    0.7210   20.0475   41.9350 C   0  0  0  0  0  0  0  0  0  0  0  0
    2.9812   19.2628   38.9584 C   0  0  2  0  0  0  0  0  0  0  0  0
    3.4124   17.0334   38.6043 C   0  0  0  0  0  0  0  0  0  0  0  0
    1.6750   27.9246   31.5844 C   0  0  0  0  0  0  0  0  0  0  0  0
    2.5448   25.4155   28.6800 C   0  0  0  0  0  0  0  0  0  0  0  0
   -0.6678   20.0068   43.7380 O   0  0  0  0  0  0  0  0  0  0  0  0
   -0.4754   13.1520   41.3485 N   0  0  0  0  0  0  0  0  0  0  0  0
    1.3954   15.8855   42.5226 C   0  0  0  0  0  0  0  0  0  0  0  0
    1.9129   25.1490   32.1452 C   0  0  0  0  0  0  0  0  0  0  0  0
    1.1433   26.2238   28.6358 C   0  0  2  0  0  0  0  0  0  0  0  0
    1.9916   25.6433   30.9721 C   0  0  0  0  0  0  0  0  0  0  0  0
    0.6095   14.0019   40.7052 N   0  0  0  0  0  0  0  0  0  0  0  0
    3.4038   25.3951   29.9270 S   0  0  0  0  0  0  0  0  0  0  0  0
    0.9159   27.1457   27.2373 C   0  0  0  0  0  0  0  0  0  0  0  0
    2.1267   24.3605   32.0255 C   0  0  0  0  0  0  0  0  0  0  0  0
    0.7137   27.1961   29.6060 C   0  0  0  0  0  0  0  0  0  0  0  0
    0.2606   18.0211   43.1418 C   0  0  0  0  0  0  0  0  0  0  0  0
    1.0811   27.9058   32.7093 C   0  0  0  0  0  0  0  0  0  0  0  0
    2.6789   20.8667   37.2964 O   0  0  0  0  0  0  0  0  0  0  0  0
    4.0946   24.7047   34.6442 C   0  0  0  0  0  0  0  0  0  0  0  0
    1.8265   25.6354   33.6325 C   0  0  0  0  0  0  0  0  0  0  0  0
   -0.2869   13.8351   42.5610 C   0  0  0  0  0  0  0  0  0  0  0  0
    3.2324   18.5632   36.6856 C   0  0  0  0  0  0  0  0  0  0  0  0
    1.7056   15.2239   41.6635 H   0  0  0  0  0  0  0  0  0  0  0  0
    2.1704   23.5231   36.1575 H   0  0  0  0  0  0  0  0  0  0  0  0
    0.9669   23.5378   34.8241 H   0  0  0  0  0  0  0  0  0  0  0  0
    2.5670   22.7584   34.5813 H   0  0  0  0  0  0  0  0  0  0  0  0
    1.6046   20.7264   39.4890 H   0  0  0  0  0  0  0  0  0  0  0  0
    3.1393   20.5863   40.5132 H   0  0  0  0  0  0  0  0  0  0  0  0
    1.2963   27.2959   34.7392 H   0  0  0  0  0  0  0  0  0  0  0  0
    2.2573   25.5893   35.3133 H   0  0  0  0  0  0  0  0  0  0  0  0
    2.3908   17.4004   40.5595 H   0  0  0  0  0  0  0  0  0  0  0  0
    4.6273   17.1312   36.8081 H   0  0  0  0  0  0  0  0  0  0  0  0
    2.8838   16.6159   36.5638 H   0  0  0  0  0  0  0  0  0  0  0  0
    0.5749   21.1302   41.8068 H   0  0  0  0  0  0  0  0  0  0  0  0
    2.0624   18.6652   38.8660 H   0  0  0  0  0  0  0  0  0  0  0  0
    2.3834   16.6903   38.7874 H   0  0  0  0  0  0  0  0  0  0  0  0
    4.1666   16.2800   38.8755 H   0  0  0  0  0  0  0  0  0  0  0  0
    2.7463   27.8367   31.8182 H   0  0  0  0  0  0  0  0  0  0  0  0
    1.2465   28.8408   31.1520 H   0  0  0  0  0  0  0  0  0  0  0  0
    2.8803   24.8697   27.7858 H   0  0  0  0  0  0  0  0  0  0  0  0
   -0.2526   12.1474   41.3923 H   0  0  0  0  0  0  0  0  0  0  0  0
    1.1963   15.7203   43.5918 H   0  0  0  0  0  0  0  0  0  0  0  0
    2.3795   15.8505   42.0324 H   0  0  0  0  0  0  0  0  0  0  0  0
    0.5837   25.2908   28.7985 H   0  0  0  0  0  0  0  0  0  0  0  0
    2.4608   25.0351   30.1847 H   0  0  0  0  0  0  0  0  0  0  0  0
    1.4388   13.4679   40.4086 H   0  0  0  0  0  0  0  0  0  0  0  0
    0.7710   28.2007   27.5131 H   0  0  0  0  0  0  0  0  0  0  0  0
    1.8004   27.0542   26.5898 H   0  0  0  0  0  0  0  0  0  0  0  0
    0.0282   26.7824   26.6989 H   0  0  0  0  0  0  0  0  0  0  0  0
    2.3039   23.8769   32.9974 H   0  0  0  0  0  0  0  0  0  0  0  0
    1.3160   23.8369   31.4977 H   0  0  0  0  0  0  0  0  0  0  0  0
    3.0451   24.3173   31.4217 H   0  0  0  0  0  0  0  0  0  0  0  0
    0.8024   28.2113   29.1918 H   0  0  0  0  0  0  0  0  0  0  0  0
   -0.3394   27.0423   29.8841 H   0  0  0  0  0  0  0  0  0  0  0  0
    0.6264   17.9016   44.1723 H   0  0  0  0  0  0  0  0  0  0  0  0
   -0.7247   17.5974   42.8975 H   0  0  0  0  0  0  0  0  0  0  0  0
    0.3024   28.6536   32.9204 H   0  0  0  0  0  0  0  0  0  0  0  0
    2.6321   21.1075   36.3373 H   0  0  0  0  0  0  0  0  0  0  0  0
    4.4328   24.5451   35.6787 H   0  0  0  0  0  0  0  0  0  0  0  0
    4.4255   23.8643   34.0164 H   0  0  0  0  0  0  0  0  0  0  0  0
    4.5235   25.6415   34.2587 H   0  0  0  0  0  0  0  0  0  0  0  0
    0.0981   13.2158   43.3846 H   0  0  0  0  0  0  0  0  0  0  0  0
   -1.1211   14.3023   43.1048 H   0  0  0  0  0  0  0  0  0  0  0  0
    3.1936   18.8201   35.6167 H   0  0  0  0  0  0  0  0  0  0  0  0
  1 21  1  0
  1 35  1  0
  2 24  2  0
  2 17  1  0
  3 30  1  0
  3 19  2  0
  5 21  1  0
  5 30  1  0
  6  9  1  0
  7 34  1  0
  9 11  1  0
  9 14  2  0
 10 33  1  0
 10  4  1  0
 11  5  2  0
 12 16  1  0
 13 15  1  0
 14  3  1  0
 15  8  1  0
 15  6  1  0
 16  8  1  0
 17 31  1  0
 18 26  2  0
 20 35  1  0
 22 28  1  0
 22 34  2  0
 23 27  1  0
 23 18  1  0
 23 29  1  0
 24 22  1  0
 25 20  1  0
 25  1  1  0
 29  2  1  0
 31  7  2  0
 32 13  1  0
 34 10  1  0
 36 12  1  0
 36 13  2  0
  1 37  1  1
  4 38  1  0
  4 39  1  0
  4 40  1  0
  6 41  1  0
  6 42  1  0
  7 43  1  0
 10 44  1  0
 11 45  1  0
 12 46  1  0
 12 47  1  0
 14 48  1  0
 15 49  1  6
 16 50  1  0
 16 51  1  0
 17 52  1  0
 17 53  1  0
 18 54  1  0
 20 55  1  0
 21 56  1  0
 21 57  1  0
 23 58  1  6
 24 59  1  0
 25 60  1  0
 27 61  1  0
 27 62  1  0
 27 63  1  0
 28 64  1  0
 28 65  1  0
 28 66  1  0
 29 67  1  0
 29 68  1  0
 30 69  1  0
 30 70  1  0
 31 71  1  0
 32 72  1  0
 33 73  1  0
 33 74  1  0
 33 75  1  0
 35 76  1  0
 35 77  1  0
 36 78  1  0
M  END
>  <mol_id>  (87) 
2026-09-18-3war-s0-n100-0089

>  <rmsd_to_ref>  (87) 


$$$$

     RDKit          3D

 86 88  0  0  0  0  0  0  0  0999 V2000
    3.3160   27.6120   27.9320 C   0  0  0  0  0  0  0  0  0  0  0  0
    3.0530   12.6350   34.9120 C   0  0  0  0  0  0  0  0  0  0  0  0
    4.4590   12.0140   34.2830 C   0  0  0  0  0  0  0  0  0  0  0  0
    1.7650   15.3660   42.0480 C   0  0  0  0  0  0  0  0  0  0  0  0
    1.9300   16.4650   40.9860 C   0  0  0  0  0  0  0  0  0  0  0  0
    1.4150   17.7910   41.3200 C   0  0  0  0  0  0  0  0  0  0  0  0
    3.2130   11.6670   32.1730 C   0  0  0  0  0  0  0  0  0  0  0  0
    2.3980   25.3330   35.8100 S   0  0  0  0  0  0  0  0  0  0  0  0
    0.5930   18.0420   42.5630 C   0  0  0  0  0  0  0  0  0  0  0  0
    3.3900   14.8240   37.9810 C   0  0  0  0  0  0  0  0  0  0  0  0
    1.6390   26.0380   33.4750 N   0  0  0  0  0  0  0  0  0  0  0  0
    3.1650   13.3500   37.3850 C   0  0  0  0  0  0  0  0  0  0  0  0
    1.9310   20.7340   39.2790 C   0  0  0  0  0  0  0  0  0  0  0  0
    4.5980   27.0160   27.9700 C   0  0  0  0  0  0  0  0  0  0  0  0
    3.0550   20.6820   36.3350 O   0  0  0  0  0  0  0  0  0  0  0  0
    2.3150   21.8260   36.3420 C   0  0  0  0  0  0  0  0  0  0  0  0
    2.5000   24.1240   34.6890 C   0  0  1  0  0  0  0  0  0  0  0  0
    2.5020   16.2250   39.7330 C   0  0  0  0  0  0  0  0  0  0  0  0
    3.5750   10.8480   33.3890 C   0  0  0  0  0  0  0  0  0  0  0  0
    1.5640   26.5480   34.7300 C   0  0  0  0  0  0  0  0  0  0  0  0
    4.5880   26.1060   29.1920 C   0  0  0  0  0  0  0  0  0  0  0  0
    2.2850   24.7130   33.2660 C   0  0  0  0  0  0  0  0  0  0  0  0
    1.3520   26.6630   31.0140 C   0  0  0  0  0  0  0  0  0  0  0  0
    2.5030   18.5230   39.1880 C   0  0  0  0  0  0  0  0  0  0  0  0
    2.7050   22.6570   35.0900 C   0  0  0  0  0  0  0  0  0  0  0  0
    0.5530   27.9550   32.8750 F   0  0  0  0  0  0  0  0  0  0  0  0
    1.7890   18.7770   40.4020 C   0  0  0  0  0  0  0  0  0  0  0  0
    3.5530   19.8910   37.4110 C   0  0  0  0  0  0  0  0  0  0  0  0
    2.7590   19.6780   38.4950 C   0  0  2  0  0  0  0  0  0  0  0  0
    1.2210   26.8220   32.4270 C   0  0  1  0  0  0  0  0  0  0  0  0
    2.3860   26.1130   29.9640 C   0  0  0  0  0  0  0  0  0  0  0  0
    3.4820   13.1580   36.0380 N   0  0  0  0  0  0  0  0  0  0  0  0
    2.8070   17.2130   38.8550 N   0  0  0  0  0  0  0  0  0  0  0  0
    2.5010   26.4180   28.1550 C   0  0  0  0  0  0  0  0  0  0  0  0
    2.9360   14.7890   39.3790 C   0  0  0  0  0  0  0  0  0  0  0  0
    1.5270   20.1390   40.4800 N   0  0  0  0  0  0  0  0  0  0  0  0
    3.1836   28.3566   28.7307 H   0  0  0  0  0  0  0  0  0  0  0  0
    3.0848   28.1782   27.0177 H   0  0  0  0  0  0  0  0  0  0  0  0
    2.3096   11.8447   35.0929 H   0  0  0  0  0  0  0  0  0  0  0  0
    2.5412   13.3494   34.2504 H   0  0  0  0  0  0  0  0  0  0  0  0
    5.0192   12.7244   33.6573 H   0  0  0  0  0  0  0  0  0  0  0  0
    5.2667   11.6922   34.9568 H   0  0  0  0  0  0  0  0  0  0  0  0
    1.8320   15.8124   43.0511 H   0  0  0  0  0  0  0  0  0  0  0  0
    0.7843   14.8829   41.9264 H   0  0  0  0  0  0  0  0  0  0  0  0
    2.5606   14.6162   41.9264 H   0  0  0  0  0  0  0  0  0  0  0  0
    2.7875   12.6297   32.4927 H   0  0  0  0  0  0  0  0  0  0  0  0
    4.1154   11.8470   31.5703 H   0  0  0  0  0  0  0  0  0  0  0  0
    2.4724   11.1209   31.5703 H   0  0  0  0  0  0  0  0  0  0  0  0
    1.2094   17.8538   43.4544 H   0  0  0  0  0  0  0  0  0  0  0  0
    0.2479   19.0865   42.5697 H   0  0  0  0  0  0  0  0  0  0  0  0
   -0.2767   17.3685   42.5697 H   0  0  0  0  0  0  0  0  0  0  0  0
    2.8021   15.5576   37.4098 H   0  0  0  0  0  0  0  0  0  0  0  0
    4.4475   15.1196   37.9160 H   0  0  0  0  0  0  0  0  0  0  0  0
    3.7822   12.6556   37.9739 H   0  0  0  0  0  0  0  0  0  0  0  0
    2.0810   13.1757   37.4523 H   0  0  0  0  0  0  0  0  0  0  0  0
    1.0500   21.0328   38.6920 H   0  0  0  0  0  0  0  0  0  0  0  0
    2.5327   21.6341   39.4737 H   0  0  0  0  0  0  0  0  0  0  0  0
    4.7769   26.4305   27.0561 H   0  0  0  0  0  0  0  0  0  0  0  0
    5.3968   27.7699   28.0292 H   0  0  0  0  0  0  0  0  0  0  0  0
    1.2439   21.5780   36.3067 H   0  0  0  0  0  0  0  0  0  0  0  0
    2.5099   22.4017   37.2588 H   0  0  0  0  0  0  0  0  0  0  0  0
    1.4099   23.9854   34.7393 H   0  0  0  0  0  0  0  0  0  0  0  0
    2.6813   10.5085   33.9330 H   0  0  0  0  0  0  0  0  0  0  0  0
    4.1214    9.9177   33.1745 H   0  0  0  0  0  0  0  0  0  0  0  0
    2.0761   27.5202   34.7799 H   0  0  0  0  0  0  0  0  0  0  0  0
    0.5213   26.7156   35.0379 H   0  0  0  0  0  0  0  0  0  0  0  0
    4.5947   26.7187   30.1055 H   0  0  0  0  0  0  0  0  0  0  0  0
    3.6829   25.4810   29.1764 H   0  0  0  0  0  0  0  0  0  0  0  0
    5.4791   25.4613   29.1764 H   0  0  0  0  0  0  0  0  0  0  0  0
    1.6313   24.0563   32.6732 H   0  0  0  0  0  0  0  0  0  0  0  0
    3.2330   24.8045   32.7156 H   0  0  0  0  0  0  0  0  0  0  0  0
    0.4543   27.0412   30.5030 H   0  0  0  0  0  0  0  0  0  0  0  0
    2.2329   22.1035   34.2649 H   0  0  0  0  0  0  0  0  0  0  0  0
    3.7666   22.7646   35.3572 H   0  0  0  0  0  0  0  0  0  0  0  0
    3.8039   18.9036   36.9961 H   0  0  0  0  0  0  0  0  0  0  0  0
    4.3899   20.4836   37.8091 H   0  0  0  0  0  0  0  0  0  0  0  0
    1.9080   19.4679   37.8304 H   0  0  0  0  0  0  0  0  0  0  0  0
    2.1728   27.3728   32.4533 H   0  0  0  0  0  0  0  0  0  0  0  0
    3.1571   25.4445   30.3745 H   0  0  0  0  0  0  0  0  0  0  0  0
    4.3910   12.6820   36.1282 H   0  0  0  0  0  0  0  0  0  0  0  0
    3.0676   14.0686   35.7929 H   0  0  0  0  0  0  0  0  0  0  0  0
    1.4939   26.5746   27.7412 H   0  0  0  0  0  0  0  0  0  0  0  0
    2.9610   25.5517   27.6572 H   0  0  0  0  0  0  0  0  0  0  0  0
    2.0869   14.0979   39.4858 H   0  0  0  0  0  0  0  0  0  0  0  0
    3.7350   14.4379   40.0486 H   0  0  0  0  0  0  0  0  0  0  0  0
    1.1073   20.6274   41.2839 H   0  0  0  0  0  0  0  0  0  0  0  0
  1 14  1  0
  1 34  1  0
  2 32  1  0
  3  2  1  0
  5  6  2  0
  5  4  1  0
  6  9  1  0
  7 19  1  0
 10 35  1  0
 11 20  1  0
 12 10  1  0
 13 36  1  0
 14 21  1  0
 15 16  1  0
 15 28  1  0
 17 25  1  0
 17  8  1  0
 18  5  1  0
 19  3  1  0
 20  8  1  0
 22 11  1  0
 22 17  1  0
 23 30  1  0
 24 27  2  0
 25 16  1  0
 27 36  1  0
 27  6  1  0
 29 28  1  0
 29 24  1  0
 29 13  1  0
 30 26  1  0
 30 11  1  0
 31 23  2  3
 32 12  1  0
 33 24  1  0
 33 18  2  0
 34 31  1  0
 35 18  1  0
  1 37  1  0
  1 38  1  0
  2 39  1  0
  2 40  1  0
  3 41  1  0
  3 42  1  0
  4 43  1  0
  4 44  1  0
  4 45  1  0
  7 46  1  0
  7 47  1  0
  7 48  1  0
  9 49  1  0
  9 50  1  0
  9 51  1  0
 10 52  1  0
 10 53  1  0
 12 54  1  0
 12 55  1  0
 13 56  1  0
 13 57  1  0
 14 58  1  0
 14 59  1  0
 16 60  1  0
 16 61  1  0
 17 62  1  6
 19 63  1  0
 19 64  1  0
 20 65  1  0
 20 66  1  0
 21 67  1  0
 21 68  1  0
 21 69  1  0
 22 70  1  0
 22 71  1  0
 23 72  1  0
 25 73  1  0
 25 74  1  0
 28 75  1  0
 28 76  1  0
 29 77  1  6
 30 78  1  1
 31 79  1  0
 32 80  1  0
 32 81  1  0
 34 82  1  0
 34 83  1  0
 35 84  1  0
 35 85  1  0
 36 86  1  0
M  CHG  1  32   1
M  END
>  <mol_id>  (88) 
2026-09-18-3war-s0-n100-0090

>  <rmsd_to_ref>  (88) 


$$$$

     RDKit          3D

 92 92  0  0  0  0  0  0  0  0999 V2000
    1.5509   21.1320   37.6488 C   0  0  0  0  0  0  0  0  0  0  0  0
    1.1240   20.9982   40.0950 C   0  0  0  0  0  0  0  0  0  0  0  0
    2.5791   28.3048   33.8035 O   0  0  0  0  0  0  0  0  0  0  0  0
    2.5463   23.4383   34.5924 C   0  0  0  0  0  0  0  0  0  0  0  0
   -0.3545   13.4410   42.0588 O   0  0  0  0  0  0  0  0  0  0  0  0
   -1.1242   14.7419   43.6233 C   0  0  0  0  0  0  0  0  0  0  0  0
    1.7286   27.3571   31.6032 C   0  0  2  0  0  0  0  0  0  0  0  0
   -1.7894   21.4764   30.3360 C   0  0  0  0  0  0  0  0  0  0  0  0
    0.3918   27.5057   31.8012 O   0  0  0  0  0  0  0  0  0  0  0  0
    1.3692   27.9297   34.0223 C   0  0  0  0  0  0  0  0  0  0  0  0
    2.7092   21.2701   35.6803 O   0  0  0  0  0  0  0  0  0  0  0  0
    3.0500   26.2495   29.3388 O   0  0  0  0  0  0  0  0  0  0  0  0
   -1.5330   13.3628   43.0843 C   0  0  1  0  0  0  0  0  0  0  0  0
    1.3258   25.6024   34.7472 C   0  0  0  0  0  0  0  0  0  0  0  0
    0.8841   22.1557   33.7822 C   0  0  0  0  0  0  0  0  0  0  0  0
    0.9960   26.5746   34.0905 C   0  0  0  0  0  0  0  0  0  0  0  0
    0.7873   20.1838   41.0945 C   0  0  1  0  0  0  0  0  0  0  0  0
    4.1666   27.2972   31.4095 O   0  0  0  0  0  0  0  0  0  0  0  0
    0.1249   16.9767   43.1388 C   0  0  0  0  0  0  0  0  0  0  0  0
    1.9418   22.0153   34.9139 C   0  0  2  0  0  0  0  0  0  0  0  0
    2.5390   25.6812   32.9305 O   0  0  0  0  0  0  0  0  0  0  0  0
    1.1016   24.8152   30.1985 C   0  0  0  0  0  0  0  0  0  0  0  0
    1.5382   18.8700   38.9076 C   0  0  0  0  0  0  0  0  0  0  0  0
    0.9781   18.7802   41.2155 C   0  0  0  0  0  0  0  0  0  0  0  0
   -0.0674   15.5217   43.0086 C   0  0  2  0  0  0  0  0  0  0  0  0
    1.2044   18.0804   40.1231 C   0  0  0  0  0  0  0  0  0  0  0  0
   -0.2003   14.9028   41.8182 C   0  0  2  0  0  0  0  0  0  0  0  0
   -2.8933   13.6933   42.5493 O   0  0  0  0  0  0  0  0  0  0  0  0
    1.3186   22.0459   36.1232 C   0  0  1  0  0  0  0  0  0  0  0  0
    1.9604   24.7997   33.6787 C   0  0  1  0  0  0  0  0  0  0  0  0
    1.0104   17.9367   42.5558 C   0  0  0  0  0  0  0  0  0  0  0  0
    3.4184   27.8908   34.7809 O   0  0  0  0  0  0  0  0  0  0  0  0
    5.1840   28.7615   29.4682 C   0  0  0  0  0  0  0  0  0  0  0  0
   -1.1600   15.5957   41.0471 O   0  0  0  0  0  0  0  0  0  0  0  0
    2.6423   26.4737   30.9214 C   0  0  0  0  0  0  0  0  0  0  0  0
    0.1559   20.9436   42.3695 C   0  0  0  0  0  0  0  0  0  0  0  0
    1.9524   26.0576   31.7211 N   0  0  0  0  0  0  0  0  0  0  0  0
   -1.5383   11.6759   43.3345 C   0  0  0  0  0  0  0  0  0  0  0  0
    1.4328   20.1718   38.8501 C   0  0  0  0  0  0  0  0  0  0  0  0
    1.5948   22.0353   38.2750 H   0  0  0  0  0  0  0  0  0  0  0  0
    1.7581   20.2479   37.0279 H   0  0  0  0  0  0  0  0  0  0  0  0
    0.2900   21.6834   39.8830 H   0  0  0  0  0  0  0  0  0  0  0  0
    2.0128   21.5806   40.3792 H   0  0  0  0  0  0  0  0  0  0  0  0
    2.7342   23.8644   35.5890 H   0  0  0  0  0  0  0  0  0  0  0  0
    3.2600   23.0894   33.8317 H   0  0  0  0  0  0  0  0  0  0  0  0
   -2.0287   15.3670   43.5891 H   0  0  0  0  0  0  0  0  0  0  0  0
   -0.6879   14.4893   44.6009 H   0  0  0  0  0  0  0  0  0  0  0  0
    1.8599   28.4354   31.7762 H   0  0  0  0  0  0  0  0  0  0  0  0
   -1.5428   21.3770   31.4033 H   0  0  0  0  0  0  0  0  0  0  0  0
   -1.6913   22.5294   30.0335 H   0  0  0  0  0  0  0  0  0  0  0  0
   -1.1005   20.8584   29.7414 H   0  0  0  0  0  0  0  0  0  0  0  0
   -2.8230   21.1407   30.1656 H   0  0  0  0  0  0  0  0  0  0  0  0
    0.1954   27.4663   32.7708 H   0  0  0  0  0  0  0  0  0  0  0  0
    1.0818   28.3740   34.9867 H   0  0  0  0  0  0  0  0  0  0  0  0
    0.8632   28.2555   33.1016 H   0  0  0  0  0  0  0  0  0  0  0  0
    3.9407   25.8206   29.2850 H   0  0  0  0  0  0  0  0  0  0  0  0
    2.0385   25.8655   35.5427 H   0  0  0  0  0  0  0  0  0  0  0  0
    0.5107   25.1025   35.2910 H   0  0  0  0  0  0  0  0  0  0  0  0
   -0.1243   22.1635   34.2216 H   0  0  0  0  0  0  0  0  0  0  0  0
    1.0536   23.0956   33.2364 H   0  0  0  0  0  0  0  0  0  0  0  0
    0.9750   21.3072   33.0880 H   0  0  0  0  0  0  0  0  0  0  0  0
   -0.0847   26.6364   34.2860 H   0  0  0  0  0  0  0  0  0  0  0  0
    1.5854   26.2823   33.2090 H   0  0  0  0  0  0  0  0  0  0  0  0
   -0.1914   20.0102   40.6234 H   0  0  0  0  0  0  0  0  0  0  0  0
    4.3187   27.1627   32.3785 H   0  0  0  0  0  0  0  0  0  0  0  0
   -0.8679   17.3766   42.8850 H   0  0  0  0  0  0  0  0  0  0  0  0
    0.6685   16.9147   44.0932 H   0  0  0  0  0  0  0  0  0  0  0  0
    1.3482   24.7158   31.2658 H   0  0  0  0  0  0  0  0  0  0  0  0
    1.1997   25.8682   29.8960 H   0  0  0  0  0  0  0  0  0  0  0  0
    1.7905   24.1973   29.6039 H   0  0  0  0  0  0  0  0  0  0  0  0
    0.0681   24.4796   30.0281 H   0  0  0  0  0  0  0  0  0  0  0  0
    1.8903   18.3330   38.0146 H   0  0  0  0  0  0  0  0  0  0  0  0
    0.9037   15.5348   43.5252 H   0  0  0  0  0  0  0  0  0  0  0  0
    1.1502   16.9818   40.1104 H   0  0  0  0  0  0  0  0  0  0  0  0
    0.6881   14.9441   41.1708 H   0  0  0  0  0  0  0  0  0  0  0  0
   -3.5258   13.8062   43.3026 H   0  0  0  0  0  0  0  0  0  0  0  0
    1.9034   22.9349   36.4020 H   0  0  0  0  0  0  0  0  0  0  0  0
    1.5149   24.2444   32.8402 H   0  0  0  0  0  0  0  0  0  0  0  0
    1.9612   17.3882   42.4833 H   0  0  0  0  0  0  0  0  0  0  0  0
    0.7171   18.7680   43.2137 H   0  0  0  0  0  0  0  0  0  0  0  0
    3.0339   28.1185   35.6643 H   0  0  0  0  0  0  0  0  0  0  0  0
    5.4306   28.6621   30.5356 H   0  0  0  0  0  0  0  0  0  0  0  0
    5.2821   29.8145   29.1657 H   0  0  0  0  0  0  0  0  0  0  0  0
    5.8729   28.1435   28.8736 H   0  0  0  0  0  0  0  0  0  0  0  0
    4.1505   28.4258   29.2978 H   0  0  0  0  0  0  0  0  0  0  0  0
   -1.7496   16.1186   41.6462 H   0  0  0  0  0  0  0  0  0  0  0  0
    0.6491   20.5914   43.2875 H   0  0  0  0  0  0  0  0  0  0  0  0
    0.3096   22.0276   42.2635 H   0  0  0  0  0  0  0  0  0  0  0  0
   -0.9217   20.7299   42.4271 H   0  0  0  0  0  0  0  0  0  0  0  0
   -1.2997   11.4605   44.3864 H   0  0  0  0  0  0  0  0  0  0  0  0
   -2.5331   11.2727   43.0941 H   0  0  0  0  0  0  0  0  0  0  0  0
   -0.7854   11.2065   42.6842 H   0  0  0  0  0  0  0  0  0  0  0  0
  1 39  1  0
  2 17  1  0
  3 32  1  0
 20  4  1  1
  5 13  1  0
  7  9  1  0
  7 37  1  0
 10  3  1  0
 10 16  1  0
 11 29  1  0
 12 35  1  0
 13 38  1  0
 13  6  1  0
 16 14  1  0
 17 24  1  0
 17 36  1  0
 20 15  1  0
 20 11  1  0
 20 29  1  0
 21 30  1  0
 23 26  1  0
 24 31  1  0
 25 19  1  0
 25  6  1  0
 26 24  2  0
 27 34  1  0
 27  5  1  0
 27 25  1  0
 13 28  1  6
 29  1  1  0
 30 14  1  0
 30  4  1  0
 31 19  1  0
 35  7  1  0
 35 37  1  0
 35 18  1  0
 37 21  1  0
 39 23  2  0
 39  2  1  0
  1 40  1  0
  1 41  1  0
  2 42  1  0
  2 43  1  0
  4 44  1  0
  4 45  1  0
  6 46  1  0
  6 47  1  0
  7 48  1  1
  8 49  1  0
  8 50  1  0
  8 51  1  0
  8 52  1  0
  9 53  1  0
 10 54  1  0
 10 55  1  0
 12 56  1  0
 14 57  1  0
 14 58  1  0
 15 59  1  0
 15 60  1  0
 15 61  1  0
 16 62  1  0
 16 63  1  0
 17 64  1  6
 18 65  1  0
 19 66  1  0
 19 67  1  0
 22 68  1  0
 22 69  1  0
 22 70  1  0
 22 71  1  0
 23 72  1  0
 25 73  1  1
 26 74  1  0
 27 75  1  6
 28 76  1  0
 29 77  1  1
 30 78  1  6
 31 79  1  0
 31 80  1  0
 32 81  1  0
 33 82  1  0
 33 83  1  0
 33 84  1  0
 33 85  1  0
 34 86  1  0
 36 87  1  0
 36 88  1  0
 36 89  1  0
 38 90  1  0
 38 91  1  0
 38 92  1  0
M  END
>  <mol_id>  (89) 
2026-09-18-3war-s0-n100-0091

>  <rmsd_to_ref>  (89) 


$$$$

     RDKit          3D

 47 50  0  0  0  0  0  0  0  0999 V2000
    5.9080   24.3740   28.9630 C   0  0  0  0  0  0  0  0  0  0  0  0
    2.6940   17.5480   38.0160 N   0  0  0  0  0  0  0  0  0  0  0  0
    4.9030   25.3960   28.4830 C   0  0  0  0  0  0  0  0  0  0  0  0
    0.8920   18.4730   42.6430 O   0  0  0  0  0  0  0  0  0  0  0  0
    3.3380   22.6350   33.0380 C   0  0  2  0  0  0  0  0  0  0  0  0
    2.4290   21.2710   36.6230 C   0  0  0  0  0  0  0  0  0  0  0  0
    2.4030   15.4920   39.4070 C   0  0  0  0  0  0  0  0  0  0  0  0
    1.8660   17.8850   40.3740 C   0  0  0  0  0  0  0  0  0  0  0  0
    2.5530   16.1330   38.0640 C   0  0  0  0  0  0  0  0  0  0  0  0
    3.0370   21.6350   35.2360 C   0  0  0  0  0  0  0  0  0  0  0  0
    1.3330   18.8950   41.4240 C   0  0  0  0  0  0  0  0  0  0  0  0
    4.5740   22.7060   30.8570 C   0  0  0  0  0  0  0  0  0  0  0  0
    3.8090   23.7090   30.0840 C   0  0  0  0  0  0  0  0  0  0  0  0
    2.2010   23.4470   32.2350 S   0  0  0  0  0  0  0  0  0  0  0  0
    2.5690   19.8840   38.7800 C   0  0  2  0  0  0  0  0  0  0  0  0
    2.5950   24.2600   30.6340 C   0  0  0  0  0  0  0  0  0  0  0  0
    1.7480   20.7550   39.6610 C   0  0  0  0  0  0  0  0  0  0  0  0
    1.8140   25.2820   30.0730 C   0  0  0  0  0  0  0  0  0  0  0  0
    3.3240   22.0690   34.3110 C   0  0  0  0  0  0  0  0  0  0  0  0
    2.2910   15.2560   36.9050 O   0  0  0  0  0  0  0  0  0  0  0  0
    2.9520   20.3320   37.4260 C   0  0  0  0  0  0  0  0  0  0  0  0
    4.3640   22.4770   32.3080 N   0  0  0  0  0  0  0  0  0  0  0  0
    2.0670   16.4330   40.4940 C   0  0  0  0  0  0  0  0  0  0  0  0
    1.9040   16.0220   41.6610 O   0  0  0  0  0  0  0  0  0  0  0  0
    2.3470   18.3910   39.0540 C   0  0  0  0  0  0  0  0  0  0  0  0
    4.4080   24.0920   28.8530 C   0  0  0  0  0  0  0  0  0  0  0  0
    1.3660   20.4570   41.1210 C   0  0  0  0  0  0  0  0  0  0  0  0
    6.6166   23.9133   28.2590 H   0  0  0  0  0  0  0  0  0  0  0  0
    6.6738   24.3182   29.7506 H   0  0  0  0  0  0  0  0  0  0  0  0
    4.8988   25.6989   27.4255 H   0  0  0  0  0  0  0  0  0  0  0  0
    4.6527   26.4228   28.7879 H   0  0  0  0  0  0  0  0  0  0  0  0
    0.5548   19.1302   43.3021 H   0  0  0  0  0  0  0  0  0  0  0  0
    2.9634   21.6915   32.6144 H   0  0  0  0  0  0  0  0  0  0  0  0
    1.5300   21.8082   36.9595 H   0  0  0  0  0  0  0  0  0  0  0  0
    3.3520   14.9970   39.6606 H   0  0  0  0  0  0  0  0  0  0  0  0
    1.5618   14.7876   39.3282 H   0  0  0  0  0  0  0  0  0  0  0  0
    5.3312   22.1039   30.3335 H   0  0  0  0  0  0  0  0  0  0  0  0
    3.5960   20.0806   39.1214 H   0  0  0  0  0  0  0  0  0  0  0  0
    2.2797   21.7175   39.6922 H   0  0  0  0  0  0  0  0  0  0  0  0
    0.7654   20.6362   39.1810 H   0  0  0  0  0  0  0  0  0  0  0  0
    1.3582   25.8785   30.8770 H   0  0  0  0  0  0  0  0  0  0  0  0
    2.4494   25.9297   29.4511 H   0  0  0  0  0  0  0  0  0  0  0  0
    1.0222   24.8390   29.4511 H   0  0  0  0  0  0  0  0  0  0  0  0
    3.8180   19.8031   37.0013 H   0  0  0  0  0  0  0  0  0  0  0  0
    3.6971   23.4469   28.3159 H   0  0  0  0  0  0  0  0  0  0  0  0
    2.1038   20.9316   41.7847 H   0  0  0  0  0  0  0  0  0  0  0  0
    0.3565   20.8574   41.2956 H   0  0  0  0  0  0  0  0  0  0  0  0
  2  9  1  0
  2 25  2  0
  3 26  1  0
  3  1  1  0
  5 19  1  0
  6 21  2  3
  7 23  1  0
  8 23  1  0
  8 11  2  0
  9  7  1  0
 10  6  1  0
 11  4  1  0
 12 22  2  0
 13 16  2  0
 13 12  1  0
 14  5  1  0
 15 21  1  0
 15 25  1  0
 15 17  1  0
 16 14  1  0
 17 27  1  0
 18 16  1  0
 19 10  3  0
 20  9  2  0
 22  5  1  0
 23 24  2  0
 25  8  1  0
 26  1  1  0
 26 13  1  0
 27 11  1  0
  1 28  1  0
  1 29  1  0
  3 30  1  0
  3 31  1  0
  4 32  1  0
  5 33  1  1
  6 34  1  0
  7 35  1  0
  7 36  1  0
 12 37  1  0
 15 38  1  1
 17 39  1  0
 17 40  1  0
 18 41  1  0
 18 42  1  0
 18 43  1  0
 21 44  1  0
 26 45  1  0
 27 46  1  0
 27 47  1  0
M  END
>  <mol_id>  (90) 
2026-09-18-3war-s0-n100-0092

>  <rmsd_to_ref>  (90) 


$$$$

     RDKit          3D

 47 51  0  0  0  0  0  0  0  0999 V2000
    2.8140   15.8690   39.0210 C   0  0  0  0  0  0  0  0  0  0  0  0
    3.8740   23.6470   31.9280 C   0  0  0  0  0  0  0  0  0  0  0  0
    1.2880   21.1250   39.8310 C   0  0  0  0  0  0  0  0  0  0  0  0
    1.9980   20.7460   38.5340 N   0  0  0  0  0  0  0  0  0  0  0  0
    1.0870   26.1600   30.5850 C   0  0  0  0  0  0  0  0  0  0  0  0
    2.0290   25.2950   31.5100 C   0  0  2  0  0  0  0  0  0  0  0  0
    3.1170   22.2280   33.9410 N   0  0  0  0  0  0  0  0  0  0  0  0
    3.2680   24.6840   31.1350 C   0  0  0  0  0  0  0  0  0  0  0  0
    4.4140   16.3440   37.3900 N   0  0  0  0  0  0  0  0  0  0  0  0
    3.7900   14.0920   37.7540 C   0  0  0  0  0  0  0  0  0  0  0  0
    2.1440   23.9230   35.2030 C   0  0  0  0  0  0  0  0  0  0  0  0
    1.9750   16.9240   40.1890 S   0  0  0  0  0  0  0  0  0  0  0  0
    2.2750   24.2760   33.7690 C   0  0  0  0  0  0  0  0  0  0  0  0
    1.6390   25.2180   32.8800 C   0  0  0  0  0  0  0  0  0  0  0  0
    3.0070   14.6710   38.7030 N   0  0  0  0  0  0  0  0  0  0  0  0
    4.5830   15.0850   37.0790 C   0  0  0  0  0  0  0  0  0  0  0  0
    1.7890   21.8020   37.3930 C   0  0  0  0  0  0  0  0  0  0  0  0
    3.1590   18.0650   38.3020 C   0  0  0  0  0  0  0  0  0  0  0  0
    3.4430   16.7580   38.1450 C   0  0  0  0  0  0  0  0  0  0  0  0
    3.1520   23.3270   33.1560 C   0  0  2  0  0  0  0  0  0  0  0  0
    2.5670   22.5850   35.1970 C   0  0  0  0  0  0  0  0  0  0  0  0
    2.4290   18.4610   39.4500 C   0  0  0  0  0  0  0  0  0  0  0  0
    2.4980   21.5790   36.1950 C   0  0  0  0  0  0  0  0  0  0  0  0
    2.1310   19.8530   39.8070 C   0  0  2  0  0  0  0  0  0  0  0  0
    3.9321   22.7351   31.3155 H   0  0  0  0  0  0  0  0  0  0  0  0
    4.8619   24.0222   32.2334 H   0  0  0  0  0  0  0  0  0  0  0  0
    1.6319   21.9969   40.4068 H   0  0  0  0  0  0  0  0  0  0  0  0
    0.2455   21.3516   40.0990 H   0  0  0  0  0  0  0  0  0  0  0  0
    0.4205   26.7720   31.2104 H   0  0  0  0  0  0  0  0  0  0  0  0
    1.6995   26.8170   29.9499 H   0  0  0  0  0  0  0  0  0  0  0  0
    0.4845   25.4939   29.9499 H   0  0  0  0  0  0  0  0  0  0  0  0
    2.6315   26.1882   31.7317 H   0  0  0  0  0  0  0  0  0  0  0  0
    4.0719   21.8645   34.0713 H   0  0  0  0  0  0  0  0  0  0  0  0
    2.5391   21.4989   33.4990 H   0  0  0  0  0  0  0  0  0  0  0  0
    3.1102   24.2550   30.1345 H   0  0  0  0  0  0  0  0  0  0  0  0
    3.9812   25.5132   31.2522 H   0  0  0  0  0  0  0  0  0  0  0  0
    3.8139   13.0147   37.5331 H   0  0  0  0  0  0  0  0  0  0  0  0
    2.7944   24.5480   35.8325 H   0  0  0  0  0  0  0  0  0  0  0  0
    1.1348   24.0744   35.6136 H   0  0  0  0  0  0  0  0  0  0  0  0
    0.8483   25.8810   33.2612 H   0  0  0  0  0  0  0  0  0  0  0  0
    5.3179   14.7905   36.3154 H   0  0  0  0  0  0  0  0  0  0  0  0
    0.7167   21.8227   37.1484 H   0  0  0  0  0  0  0  0  0  0  0  0
    2.1830   22.7474   37.7941 H   0  0  0  0  0  0  0  0  0  0  0  0
    3.4855   18.8064   37.5578 H   0  0  0  0  0  0  0  0  0  0  0  0
    3.9907   23.7178   33.7509 H   0  0  0  0  0  0  0  0  0  0  0  0
    3.0028   20.6153   36.0324 H   0  0  0  0  0  0  0  0  0  0  0  0
    2.5231   19.4405   40.7483 H   0  0  0  0  0  0  0  0  0  0  0  0
  1 12  1  0
  4 24  1  0
  4  3  1  0
  6  5  1  0
  6 14  1  0
  7 21  1  0
  8  6  1  0
  8  2  1  0
  9 19  1  0
 10 15  2  0
 13 11  1  0
 14 13  2  0
 15  1  1  0
 16  9  2  0
 16 10  1  0
 17  4  1  0
 18 22  2  0
 19 18  1  0
 19  1  2  0
 20  2  1  0
 20 13  1  0
 20  7  1  0
 21 11  1  0
 21 23  2  3
 22 12  1  0
 23 17  1  0
 24 22  1  0
 24  3  1  0
  2 25  1  0
  2 26  1  0
  3 27  1  0
  3 28  1  0
  5 29  1  0
  5 30  1  0
  5 31  1  0
  6 32  1  6
  7 33  1  0
  7 34  1  0
  8 35  1  0
  8 36  1  0
 10 37  1  0
 11 38  1  0
 11 39  1  0
 14 40  1  0
 16 41  1  0
 17 42  1  0
 17 43  1  0
 18 44  1  0
 20 45  1  1
 23 46  1  0
 24 47  1  1
M  CHG  1   7   1
M  END
>  <mol_id>  (91) 
2026-09-18-3war-s0-n100-0093

>  <rmsd_to_ref>  (91) 


$$$$

     RDKit          3D

 67 68  0  0  0  0  0  0  0  0999 V2000
    2.6320   22.7764   34.7756 C   0  0  0  0  0  0  0  0  0  0  0  0
    3.0771   19.6948   37.0735 S   0  0  0  0  0  0  0  0  0  0  0  0
    3.0610   24.1356   32.3117 C   0  0  0  0  0  0  0  0  0  0  0  0
    2.3387   20.0253   40.9367 C   0  0  2  0  0  0  0  0  0  0  0  0
    2.4189   22.0842   36.1233 C   0  0  0  0  0  0  0  0  0  0  0  0
    2.0779   21.3042   38.4835 N   0  0  0  0  0  0  0  0  0  0  0  0
    2.3080   20.2225   39.3439 C   0  0  0  0  0  0  0  0  0  0  0  0
    4.1918   17.1694   38.2228 C   0  0  0  0  0  0  0  0  0  0  0  0
    2.4449   21.0642   37.0882 C   0  0  0  0  0  0  0  0  0  0  0  0
    1.4256   18.6417   41.4774 S   0  0  0  0  0  0  0  0  0  0  0  0
    0.0583   27.7925   33.4697 C   0  0  0  0  0  0  0  0  0  0  0  0
    1.1943   26.0592   34.9863 C   0  0  0  0  0  0  0  0  0  0  0  0
    0.3934   27.2244   32.3052 C   0  0  0  0  0  0  0  0  0  0  0  0
    3.3871   14.3170   38.5488 C   0  0  0  0  0  0  0  0  0  0  0  0
    0.8205   27.4733   34.7773 C   0  0  0  0  0  0  0  0  0  0  0  0
    3.4387   16.3277   37.1878 C   0  0  0  0  0  0  0  0  0  0  0  0
    2.9286   19.1162   38.5996 C   0  0  0  0  0  0  0  0  0  0  0  0
    1.6367   25.7254   31.3240 C   0  0  0  0  0  0  0  0  0  0  0  0
    2.6386   15.2074   37.5037 C   0  0  0  0  0  0  0  0  0  0  0  0
    3.4251   17.9358   39.0817 N   0  0  0  0  0  0  0  0  0  0  0  0
    0.6349   26.5476   31.1266 C   0  0  0  0  0  0  0  0  0  0  0  0
    1.3273   23.7392   34.5361 C   0  0  0  0  0  0  0  0  0  0  0  0
    1.6856   25.0449   34.2847 C   0  0  1  0  0  0  0  0  0  0  0  0
    2.7682   14.4568   39.8587 O   0  0  0  0  0  0  0  0  0  0  0  0
    0.8344   21.1773   42.5523 C   0  0  0  0  0  0  0  0  0  0  0  0
    2.0610   25.2730   32.7959 C   0  0  1  0  0  0  0  0  0  0  0  0
    1.7657   21.3002   41.5159 C   0  0  0  0  0  0  0  0  0  0  0  0
    3.5510   23.3805   34.7997 H   0  0  0  0  0  0  0  0  0  0  0  0
    2.7393   22.0421   33.9635 H   0  0  0  0  0  0  0  0  0  0  0  0
    3.5520   23.6828   33.1857 H   0  0  0  0  0  0  0  0  0  0  0  0
    2.5006   23.3631   31.7647 H   0  0  0  0  0  0  0  0  0  0  0  0
    3.8222   24.5742   31.6497 H   0  0  0  0  0  0  0  0  0  0  0  0
    3.3688   19.8332   41.2714 H   0  0  0  0  0  0  0  0  0  0  0  0
    2.9596   22.8294   36.7252 H   0  0  0  0  0  0  0  0  0  0  0  0
    1.5708   21.5572   35.6617 H   0  0  0  0  0  0  0  0  0  0  0  0
    4.8593   17.8508   37.6752 H   0  0  0  0  0  0  0  0  0  0  0  0
    4.7044   16.4405   38.8678 H   0  0  0  0  0  0  0  0  0  0  0  0
    1.5503   18.5148   42.8358 H   0  0  0  0  0  0  0  0  0  0  0  0
   -0.9938   27.5276   33.6520 H   0  0  0  0  0  0  0  0  0  0  0  0
    0.3165   28.8480   33.2990 H   0  0  0  0  0  0  0  0  0  0  0  0
    1.9229   26.1384   35.8065 H   0  0  0  0  0  0  0  0  0  0  0  0
    0.1573   25.7064   34.8854 H   0  0  0  0  0  0  0  0  0  0  0  0
    0.2967   28.1823   31.7731 H   0  0  0  0  0  0  0  0  0  0  0  0
    1.0903   26.5559   32.8319 H   0  0  0  0  0  0  0  0  0  0  0  0
    4.4393   14.6320   38.6079 H   0  0  0  0  0  0  0  0  0  0  0  0
    3.3287   13.2649   38.2332 H   0  0  0  0  0  0  0  0  0  0  0  0
    1.7453   28.0689   34.7805 H   0  0  0  0  0  0  0  0  0  0  0  0
    0.1223   27.7165   35.5918 H   0  0  0  0  0  0  0  0  0  0  0  0
    4.2055   15.9579   36.4913 H   0  0  0  0  0  0  0  0  0  0  0  0
    2.6707   17.0435   36.8595 H   0  0  0  0  0  0  0  0  0  0  0  0
    2.5223   26.2007   30.8771 H   0  0  0  0  0  0  0  0  0  0  0  0
    1.2664   24.7879   30.8836 H   0  0  0  0  0  0  0  0  0  0  0  0
    1.6821   15.5467   37.9279 H   0  0  0  0  0  0  0  0  0  0  0  0
    2.4459   14.6229   36.5920 H   0  0  0  0  0  0  0  0  0  0  0  0
    3.2352   17.6298   40.0468 H   0  0  0  0  0  0  0  0  0  0  0  0
    0.8919   27.2636   30.3320 H   0  0  0  0  0  0  0  0  0  0  0  0
   -0.2610   25.9880   30.8195 H   0  0  0  0  0  0  0  0  0  0  0  0
    0.7570   23.3563   33.6770 H   0  0  0  0  0  0  0  0  0  0  0  0
    0.7231   23.7249   35.4551 H   0  0  0  0  0  0  0  0  0  0  0  0
    2.6096   25.1334   34.8749 H   0  0  0  0  0  0  0  0  0  0  0  0
    3.4415   14.2791   40.5624 H   0  0  0  0  0  0  0  0  0  0  0  0
    1.3605   21.1640   43.5183 H   0  0  0  0  0  0  0  0  0  0  0  0
    0.1401   22.0301   42.5246 H   0  0  0  0  0  0  0  0  0  0  0  0
    0.2702   20.2411   42.4292 H   0  0  0  0  0  0  0  0  0  0  0  0
    1.8551   26.2543   33.2484 H   0  0  0  0  0  0  0  0  0  0  0  0
    2.6077   21.8958   41.8984 H   0  0  0  0  0  0  0  0  0  0  0  0
    1.2043   21.7568   40.6874 H   0  0  0  0  0  0  0  0  0  0  0  0
  1  5  1  0
  2 17  1  0
  4 27  1  0
  4 10  1  0
  5  9  1  0
  6  7  1  0
  7  4  1  0
  8 20  1  0
  9  2  1  0
  9  6  2  0
 11 15  1  0
 13 11  1  0
 14 24  1  0
 15 12  1  0
 16 19  1  0
 16  8  1  0
 17 20  1  0
 17  7  2  0
 18 26  1  0
 19 14  1  0
 21 18  1  0
 21 13  1  0
 22  1  1  0
 23 22  1  0
 23 12  1  0
 26  3  1  0
 26 23  1  0
 27 25  1  0
  1 28  1  0
  1 29  1  0
  3 30  1  0
  3 31  1  0
  3 32  1  0
  4 33  1  1
  5 34  1  0
  5 35  1  0
  8 36  1  0
  8 37  1  0
 10 38  1  0
 11 39  1  0
 11 40  1  0
 12 41  1  0
 12 42  1  0
 13 43  1  0
 13 44  1  0
 14 45  1  0
 14 46  1  0
 15 47  1  0
 15 48  1  0
 16 49  1  0
 16 50  1  0
 18 51  1  0
 18 52  1  0
 19 53  1  0
 19 54  1  0
 20 55  1  0
 21 56  1  0
 21 57  1  0
 22 58  1  0
 22 59  1  0
 23 60  1  1
 24 61  1  0
 25 62  1  0
 25 63  1  0
 25 64  1  0
 26 65  1  1
 27 66  1  0
 27 67  1  0
M  END
>  <mol_id>  (92) 
2026-09-18-3war-s0-n100-0094

>  <rmsd_to_ref>  (92) 


$$$$

     RDKit          3D

 44 45  0  0  0  0  0  0  0  0999 V2000
    2.9642   17.9945   38.7496 O   0  0  0  0  0  0  0  0  0  0  0  0
    3.9555   23.6671   33.2017 N   0  0  0  0  0  0  0  0  0  0  0  0
    2.6556   26.1439   30.3228 C   0  0  0  0  0  0  0  0  0  0  0  0
    3.0674   20.3270   38.5527 C   0  0  1  0  0  0  0  0  0  0  0  0
    2.1043   23.1928   34.4193 O   0  0  0  0  0  0  0  0  0  0  0  0
    0.7815   27.6298   31.7406 C   0  0  0  0  0  0  0  0  0  0  0  0
    1.4956   21.0180   40.5454 C   0  0  0  0  0  0  0  0  0  0  0  0
    2.8577   19.0854   39.5726 C   0  0  1  0  0  0  0  0  0  0  0  0
    2.9654   21.2295   36.2306 C   0  0  0  0  0  0  0  0  0  0  0  0
    3.9797   24.4762   32.0115 C   0  0  0  0  0  0  0  0  0  0  0  0
    3.3911   22.9678   34.1948 C   0  0  0  0  0  0  0  0  0  0  0  0
    2.7433   17.6660   41.1135 O   0  0  0  0  0  0  0  0  0  0  0  0
    3.6953   20.3607   37.1895 C   0  0  0  0  0  0  0  0  0  0  0  0
    4.1596   21.7994   35.1258 S   0  0  0  0  0  0  0  0  0  0  0  0
    1.4904   26.2941   31.3424 C   0  0  2  0  0  0  0  0  0  0  0  0
    2.8394   25.7029   32.0710 C   0  0  2  0  0  0  0  0  0  0  0  0
    2.1764   21.6199   39.1500 S   0  0  0  0  0  0  0  0  0  0  0  0
    0.3455   27.6642   33.1870 C   0  0  0  0  0  0  0  0  0  0  0  0
    1.7037   18.5820   41.5174 N   0  0  0  0  0  0  0  0  0  0  0  0
    1.5586   19.4252   40.3032 C   0  0  1  0  0  0  0  0  0  0  0  0
    3.0990   17.1804   39.2965 H   0  0  0  0  0  0  0  0  0  0  0  0
    4.9586   23.5678   33.4133 H   0  0  0  0  0  0  0  0  0  0  0  0
    2.6224   25.3597   29.5522 H   0  0  0  0  0  0  0  0  0  0  0  0
    3.1772   26.8054   29.6154 H   0  0  0  0  0  0  0  0  0  0  0  0
    4.1101   20.2152   38.2204 H   0  0  0  0  0  0  0  0  0  0  0  0
   -0.1070   27.7571   31.1046 H   0  0  0  0  0  0  0  0  0  0  0  0
    1.5104   28.4414   31.5995 H   0  0  0  0  0  0  0  0  0  0  0  0
    2.0798   21.3092   41.4308 H   0  0  0  0  0  0  0  0  0  0  0  0
    0.4793   21.3936   40.7357 H   0  0  0  0  0  0  0  0  0  0  0  0
    3.5592   18.8751   40.3933 H   0  0  0  0  0  0  0  0  0  0  0  0
    2.1940   20.6528   35.6992 H   0  0  0  0  0  0  0  0  0  0  0  0
    2.4515   22.0582   36.7398 H   0  0  0  0  0  0  0  0  0  0  0  0
    4.9790   24.9236   31.9051 H   0  0  0  0  0  0  0  0  0  0  0  0
    3.7429   23.8301   31.1533 H   0  0  0  0  0  0  0  0  0  0  0  0
    3.1667   17.2723   41.9172 H   0  0  0  0  0  0  0  0  0  0  0  0
    4.7245   20.7361   37.2878 H   0  0  0  0  0  0  0  0  0  0  0  0
    3.6656   19.3361   36.7904 H   0  0  0  0  0  0  0  0  0  0  0  0
    0.4549   25.9252   31.3028 H   0  0  0  0  0  0  0  0  0  0  0  0
    3.0206   25.7993   33.1517 H   0  0  0  0  0  0  0  0  0  0  0  0
    1.1960   27.3998   33.8326 H   0  0  0  0  0  0  0  0  0  0  0  0
   -0.0065   28.6752   33.4400 H   0  0  0  0  0  0  0  0  0  0  0  0
   -0.4703   26.9426   33.3414 H   0  0  0  0  0  0  0  0  0  0  0  0
    0.8287   18.0844   41.7360 H   0  0  0  0  0  0  0  0  0  0  0  0
    0.6077   19.2180   39.7906 H   0  0  0  0  0  0  0  0  0  0  0  0
  2 11  1  0
  3 15  1  0
  3 16  1  0
  4 13  1  0
  4 17  1  0
  4  8  1  0
  6 18  1  0
  8  1  1  0
  8 20  1  0
  9 13  1  0
 10  2  1  0
 11  5  2  0
 11 14  1  0
 12 19  1  0
 14  9  1  0
 15  6  1  0
 15 16  1  0
 16 10  1  0
 17  7  1  0
 20  7  1  0
 20 19  1  0
  1 21  1  0
  2 22  1  0
  3 23  1  0
  3 24  1  0
  4 25  1  1
  6 26  1  0
  6 27  1  0
  7 28  1  0
  7 29  1  0
  8 30  1  1
  9 31  1  0
  9 32  1  0
 10 33  1  0
 10 34  1  0
 12 35  1  0
 13 36  1  0
 13 37  1  0
 15 38  1  6
 16 39  1  1
 18 40  1  0
 18 41  1  0
 18 42  1  0
 19 43  1  0
 20 44  1  6
M  END
>  <mol_id>  (93) 
2026-09-18-3war-s0-n100-0095

>  <rmsd_to_ref>  (93) 


$$$$

     RDKit          3D

 47 49  0  0  0  0  0  0  0  0999 V2000
    5.8980   23.2000   28.2910 C   0  0  0  0  0  0  0  0  0  0  0  0
    3.9460   23.9870   29.8850 N   0  0  0  0  0  0  0  0  0  0  0  0
    4.6840   24.0900   28.5930 C   0  0  0  0  0  0  0  0  0  0  0  0
    1.7000   20.3300   39.5260 C   0  0  0  0  0  0  0  0  0  0  0  0
    2.9090   23.4370   34.3560 C   0  0  0  0  0  0  0  0  0  0  0  0
    1.8470   16.9440   41.0150 C   0  0  0  0  0  0  0  0  0  0  0  0
    3.2950   25.6360   32.5180 C   0  0  0  0  0  0  0  0  0  0  0  0
    2.7350   22.1010   35.3380 C   0  0  0  0  0  0  0  0  0  0  0  0
    1.8220   20.9940   38.3020 C   0  0  0  0  0  0  0  0  0  0  0  0
    2.4150   24.6790   34.6720 C   0  0  0  0  0  0  0  0  0  0  0  0
    3.8350   24.3780   32.1940 C   0  0  0  0  0  0  0  0  0  0  0  0
    2.3490   19.0270   39.6590 C   0  0  0  0  0  0  0  0  0  0  0  0
    2.8060   21.2710   35.9080 C   0  0  0  0  0  0  0  0  0  0  0  0
    4.1510   17.6910   39.0270 O   0  0  0  0  0  0  0  0  0  0  0  0
    4.5200   24.0960   30.9940 N   0  0  0  0  0  0  0  0  0  0  0  0
    3.3380   18.7320   38.6950 C   0  0  0  0  0  0  0  0  0  0  0  0
    1.0650   20.5260   40.6940 N   0  0  0  0  0  0  0  0  0  0  0  0
    1.7870   18.4180   40.7840 C   0  0  1  0  0  0  0  0  0  0  0  0
    3.6360   23.2360   33.1580 C   0  0  0  0  0  0  0  0  0  0  0  0
    2.6580   20.5190   37.2700 C   0  0  0  0  0  0  0  0  0  0  0  0
    1.1880   16.6760   42.4520 C   0  0  0  0  0  0  0  0  0  0  0  0
    3.4320   19.4480   37.5020 C   0  0  0  0  0  0  0  0  0  0  0  0
    2.6980   25.7670   33.8250 C   0  0  0  0  0  0  0  0  0  0  0  0
    1.0080   19.3560   41.4580 C   0  0  0  0  0  0  0  0  0  0  0  0
    6.3525   22.8668   29.2357 H   0  0  0  0  0  0  0  0  0  0  0  0
    5.5746   22.3234   27.7105 H   0  0  0  0  0  0  0  0  0  0  0  0
    6.6367   23.7721   27.7105 H   0  0  0  0  0  0  0  0  0  0  0  0
    5.0348   25.1298   28.5177 H   0  0  0  0  0  0  0  0  0  0  0  0
    3.9404   23.7313   27.8660 H   0  0  0  0  0  0  0  0  0  0  0  0
    2.8922   16.6012   41.0073 H   0  0  0  0  0  0  0  0  0  0  0  0
    1.3105   16.3974   40.2254 H   0  0  0  0  0  0  0  0  0  0  0  0
    3.3263   26.4776   31.8104 H   0  0  0  0  0  0  0  0  0  0  0  0
    1.2471   21.9174   38.1382 H   0  0  0  0  0  0  0  0  0  0  0  0
    1.8053   24.8218   35.5764 H   0  0  0  0  0  0  0  0  0  0  0  0
    3.1784   20.5014   35.2158 H   0  0  0  0  0  0  0  0  0  0  0  0
    4.8743   17.4119   38.4113 H   0  0  0  0  0  0  0  0  0  0  0  0
    0.6682   21.4290   40.9907 H   0  0  0  0  0  0  0  0  0  0  0  0
    2.3283   17.8524   41.5567 H   0  0  0  0  0  0  0  0  0  0  0  0
    3.1190   22.4391   32.6032 H   0  0  0  0  0  0  0  0  0  0  0  0
    4.6554   23.0265   33.5142 H   0  0  0  0  0  0  0  0  0  0  0  0
    1.8983   16.9648   43.2407 H   0  0  0  0  0  0  0  0  0  0  0  0
    0.2685   17.2716   42.5505 H   0  0  0  0  0  0  0  0  0  0  0  0
    0.9452   15.6077   42.5505 H   0  0  0  0  0  0  0  0  0  0  0  0
    4.1546   19.1286   36.7366 H   0  0  0  0  0  0  0  0  0  0  0  0
    2.4491   26.7777   34.1808 H   0  0  0  0  0  0  0  0  0  0  0  0
    1.4133   19.5368   42.4645 H   0  0  0  0  0  0  0  0  0  0  0  0
   -0.0274   19.0056   41.5810 H   0  0  0  0  0  0  0  0  0  0  0  0
  1  3  1  0
  2 15  2  3
  3  2  1  0
  4 12  2  0
  4 17  1  0
  5 10  1  0
  5  8  2  0
  6 21  1  0
  7 23  1  0
  8 13  2  0
  9  4  1  0
 11  7  2  0
 11 19  1  0
 12 18  1  0
 13 20  1  0
 15 11  1  0
 16 14  1  0
 16 12  1  0
 17 24  1  0
 18  6  1  0
 18 24  1  0
 19  5  1  0
 20 22  1  0
 20  9  2  0
 22 16  2  0
 23 10  2  0
  1 25  1  0
  1 26  1  0
  1 27  1  0
  3 28  1  0
  3 29  1  0
  6 30  1  0
  6 31  1  0
  7 32  1  0
  9 33  1  0
 10 34  1  0
 13 35  1  0
 14 36  1  0
 17 37  1  0
 18 38  1  1
 19 39  1  0
 19 40  1  0
 21 41  1  0
 21 42  1  0
 21 43  1  0
 22 44  1  0
 23 45  1  0
 24 46  1  0
 24 47  1  0
M  END
>  <mol_id>  (94) 
2026-09-18-3war-s0-n100-0096

>  <rmsd_to_ref>  (94) 


$$$$

     RDKit          3D

 70 73  0  0  0  0  0  0  0  0999 V2000
    2.0260   15.8964   36.2548 C   0  0  0  0  0  0  0  0  0  0  0  0
   -1.4108   20.7960   42.4281 O   0  0  0  0  0  0  0  0  0  0  0  0
   -0.4497   20.8558   41.5424 C   0  0  0  0  0  0  0  0  0  0  0  0
    2.5901   16.0038   38.7496 C   0  0  0  0  0  0  0  0  0  0  0  0
    3.0678   25.5870   32.2877 C   0  0  1  0  0  0  0  0  0  0  0  0
    2.2591   26.4884   31.3202 C   0  0  0  0  0  0  0  0  0  0  0  0
    2.4346   24.5436   33.3098 C   0  0  0  0  0  0  0  0  0  0  0  0
    0.1414   22.1289   41.1857 C   0  0  0  0  0  0  0  0  0  0  0  0
    2.2071   26.8793   28.6829 C   0  0  0  0  0  0  0  0  0  0  0  0
    2.6902   19.6407   38.3044 C   0  0  0  0  0  0  0  0  0  0  0  0
    2.9144   14.6451   36.1219 C   0  0  0  0  0  0  0  0  0  0  0  0
    4.5671   25.2844   32.0642 C   0  0  0  0  0  0  0  0  0  0  0  0
    1.0590   22.1402   40.1625 C   0  0  0  0  0  0  0  0  0  0  0  0
    2.3387   22.3592   35.5409 C   0  0  0  0  0  0  0  0  0  0  0  0
    1.3976   21.0382   39.4725 C   0  0  0  0  0  0  0  0  0  0  0  0
    1.0407   19.7878   39.9235 C   0  0  0  0  0  0  0  0  0  0  0  0
    2.4255   16.7240   37.4142 C   0  0  0  0  0  0  0  0  0  0  0  0
    2.2783   13.8182   39.6992 O   0  0  0  0  0  0  0  0  0  0  0  0
    1.3671   23.5716   35.6572 C   0  0  0  0  0  0  0  0  0  0  0  0
    2.2012   20.9185   38.1933 N   0  0  0  0  0  0  0  0  0  0  0  0
    2.3152   14.5848   38.5452 C   0  0  0  0  0  0  0  0  0  0  0  0
    3.2932   14.0674   37.5030 C   0  0  0  0  0  0  0  0  0  0  0  0
    3.5230   19.2699   37.5790 O   0  0  0  0  0  0  0  0  0  0  0  0
    4.0308   25.5648   29.7016 C   0  0  0  0  0  0  0  0  0  0  0  0
    2.1347   24.9880   34.8190 C   0  0  0  0  0  0  0  0  0  0  0  0
    1.9647   18.9948   39.2129 O   0  0  0  0  0  0  0  0  0  0  0  0
    1.3071   27.5735   31.5389 C   0  0  0  0  0  0  0  0  0  0  0  0
    2.8495   26.3467   29.9010 C   0  0  0  0  0  0  0  0  0  0  0  0
    1.0931   27.9019   28.8195 C   0  0  0  0  0  0  0  0  0  0  0  0
    2.4969   21.7408   36.9159 C   0  0  0  0  0  0  0  0  0  0  0  0
    0.6821   28.0938   30.3365 C   0  0  0  0  0  0  0  0  0  0  0  0
    5.0056   25.0750   30.6399 C   0  0  0  0  0  0  0  0  0  0  0  0
    0.0018   19.7178   40.9189 C   0  0  0  0  0  0  0  0  0  0  0  0
    0.6808   28.8978   27.4739 Cl  0  0  0  0  0  0  0  0  0  0  0  0
    0.9804   15.5803   36.3846 H   0  0  0  0  0  0  0  0  0  0  0  0
    2.1420   16.5007   35.3429 H   0  0  0  0  0  0  0  0  0  0  0  0
   -1.8101   19.9221   42.6669 H   0  0  0  0  0  0  0  0  0  0  0  0
    3.6187   16.1337   39.1174 H   0  0  0  0  0  0  0  0  0  0  0  0
    1.8936   16.4205   39.4921 H   0  0  0  0  0  0  0  0  0  0  0  0
    2.8844   26.5686   32.7490 H   0  0  0  0  0  0  0  0  0  0  0  0
    1.4773   24.2162   32.8783 H   0  0  0  0  0  0  0  0  0  0  0  0
    3.2230   23.7845   33.4199 H   0  0  0  0  0  0  0  0  0  0  0  0
   -0.1340   23.0533   41.7146 H   0  0  0  0  0  0  0  0  0  0  0  0
    2.5316   26.5393   27.6884 H   0  0  0  0  0  0  0  0  0  0  0  0
    2.3686   13.8788   35.5519 H   0  0  0  0  0  0  0  0  0  0  0  0
    3.8408   14.9344   35.6042 H   0  0  0  0  0  0  0  0  0  0  0  0
    5.1425   26.1295   32.4701 H   0  0  0  0  0  0  0  0  0  0  0  0
    4.7481   24.3236   32.5684 H   0  0  0  0  0  0  0  0  0  0  0  0
    1.5376   23.0942   39.8966 H   0  0  0  0  0  0  0  0  0  0  0  0
    1.9236   21.6157   34.8444 H   0  0  0  0  0  0  0  0  0  0  0  0
    3.3158   22.6923   35.1610 H   0  0  0  0  0  0  0  0  0  0  0  0
    3.3885   17.1963   37.1699 H   0  0  0  0  0  0  0  0  0  0  0  0
    1.5930   17.4266   37.5668 H   0  0  0  0  0  0  0  0  0  0  0  0
    2.2668   14.4132   40.4904 H   0  0  0  0  0  0  0  0  0  0  0  0
    0.4078   23.3287   35.1770 H   0  0  0  0  0  0  0  0  0  0  0  0
    1.1777   23.8097   36.7143 H   0  0  0  0  0  0  0  0  0  0  0  0
    1.2834   14.4842   38.1773 H   0  0  0  0  0  0  0  0  0  0  0  0
    3.2467   12.9689   37.4678 H   0  0  0  0  0  0  0  0  0  0  0  0
    4.3145   14.3790   37.7670 H   0  0  0  0  0  0  0  0  0  0  0  0
    3.6643   24.6554   29.2029 H   0  0  0  0  0  0  0  0  0  0  0  0
    4.6501   26.3630   29.2667 H   0  0  0  0  0  0  0  0  0  0  0  0
    3.0728   25.2612   35.3244 H   0  0  0  0  0  0  0  0  0  0  0  0
    1.4677   25.8624   34.8421 H   0  0  0  0  0  0  0  0  0  0  0  0
    1.0804   27.9676   32.5406 H   0  0  0  0  0  0  0  0  0  0  0  0
    3.4649   21.2627   36.7052 H   0  0  0  0  0  0  0  0  0  0  0  0
    1.7431   22.4603   37.2682 H   0  0  0  0  0  0  0  0  0  0  0  0
   -0.2105   28.7143   30.5044 H   0  0  0  0  0  0  0  0  0  0  0  0
    5.1552   23.9989   30.4683 H   0  0  0  0  0  0  0  0  0  0  0  0
    5.9398   25.6346   30.4847 H   0  0  0  0  0  0  0  0  0  0  0  0
   -0.4346   18.7431   41.1826 H   0  0  0  0  0  0  0  0  0  0  0  0
  1 17  1  0
  3  2  1  0
  5  7  1  0
  6 27  1  0
  6  5  1  0
  7 25  1  0
  8  3  2  0
  9 29  2  0
  9 28  1  0
 10 26  1  0
 11  1  1  0
 11 22  1  0
 12  5  1  0
 13  8  1  0
 14 19  1  0
 14 30  1  0
 15 16  1  0
 15 13  2  0
 16 33  2  0
 17  4  1  0
 20 10  1  0
 20 15  1  0
 21  4  1  0
 21 18  1  0
 22 21  1  0
 23 10  2  0
 24 28  1  0
 24 32  1  0
 25 19  1  0
 26 16  1  0
 28  6  2  0
 29 31  1  0
 30 20  1  0
 31 27  2  0
 32 12  1  0
 33  3  1  0
 34 29  1  0
  1 35  1  0
  1 36  1  0
  2 37  1  0
  4 38  1  0
  4 39  1  0
  5 40  1  1
  7 41  1  0
  7 42  1  0
  8 43  1  0
  9 44  1  0
 11 45  1  0
 11 46  1  0
 12 47  1  0
 12 48  1  0
 13 49  1  0
 14 50  1  0
 14 51  1  0
 17 52  1  0
 17 53  1  0
 18 54  1  0
 19 55  1  0
 19 56  1  0
 21 57  1  0
 22 58  1  0
 22 59  1  0
 24 60  1  0
 24 61  1  0
 25 62  1  0
 25 63  1  0
 27 64  1  0
 30 65  1  0
 30 66  1  0
 31 67  1  0
 32 68  1  0
 32 69  1  0
 33 70  1  0
M  END
>  <mol_id>  (95) 
2026-09-18-3war-s0-n100-0097

>  <rmsd_to_ref>  (95) 


$$$$

     RDKit          3D

 44 44  0  0  0  0  0  0  0  0999 V2000
    1.1150   21.1390   40.9120 C   0  0  0  0  0  0  0  0  0  0  0  0
    1.7220   18.4730   41.9080 C   0  0  0  0  0  0  0  0  0  0  0  0
    3.0190   18.4900   37.5060 C   0  0  0  0  0  0  0  0  0  0  0  0
    2.1290   19.2010   39.6240 C   0  0  0  0  0  0  0  0  0  0  0  0
    2.3910   21.4620   36.2610 C   0  0  0  0  0  0  0  0  0  0  0  0
    2.2320   20.7950   37.3830 C   0  0  0  0  0  0  0  0  0  0  0  0
    3.1740   21.7330   35.0280 C   0  0  0  0  0  0  0  0  0  0  0  0
    1.4680   19.7560   40.8920 C   0  0  0  0  0  0  0  0  0  0  0  0
    3.3900   17.5010   38.6030 C   0  0  0  0  0  0  0  0  0  0  0  0
    2.4280   19.6370   38.2480 C   0  0  0  0  0  0  0  0  0  0  0  0
    3.0770   23.9480   30.1920 C   0  0  0  0  0  0  0  0  0  0  0  0
    3.9940   24.0160   31.3710 C   0  0  0  0  0  0  0  0  0  0  0  0
    3.5780   23.1750   35.0070 C   0  0  0  0  0  0  0  0  0  0  0  0
    4.3620   23.6640   33.6410 C   0  0  0  0  0  0  0  0  0  0  0  0
    2.6440   18.0600   39.6920 O   0  0  0  0  0  0  0  0  0  0  0  0
    3.4630   24.3940   32.7480 C   0  0  0  0  0  0  0  0  0  0  0  0
    1.0279   21.4802   41.9541 H   0  0  0  0  0  0  0  0  0  0  0  0
    1.8928   21.7234   40.3986 H   0  0  0  0  0  0  0  0  0  0  0  0
    0.1523   21.2792   40.3986 H   0  0  0  0  0  0  0  0  0  0  0  0
    1.6547   18.8131   42.9519 H   0  0  0  0  0  0  0  0  0  0  0  0
    0.9590   17.7025   41.7234 H   0  0  0  0  0  0  0  0  0  0  0  0
    2.7211   18.0513   41.7234 H   0  0  0  0  0  0  0  0  0  0  0  0
    2.2852   18.0509   36.8141 H   0  0  0  0  0  0  0  0  0  0  0  0
    3.8802   18.7818   36.8869 H   0  0  0  0  0  0  0  0  0  0  0  0
    1.4214   21.2340   35.7943 H   0  0  0  0  0  0  0  0  0  0  0  0
    3.0298   22.1772   36.7999 H   0  0  0  0  0  0  0  0  0  0  0  0
    2.6322   21.5586   38.0662 H   0  0  0  0  0  0  0  0  0  0  0  0
    1.4059   20.2512   36.9015 H   0  0  0  0  0  0  0  0  0  0  0  0
    4.0729   21.0991   35.0164 H   0  0  0  0  0  0  0  0  0  0  0  0
    2.5594   21.5089   34.1437 H   0  0  0  0  0  0  0  0  0  0  0  0
    0.5975   20.1891   41.4065 H   0  0  0  0  0  0  0  0  0  0  0  0
    3.0606   16.4794   38.3623 H   0  0  0  0  0  0  0  0  0  0  0  0
    4.4690   17.3887   38.7851 H   0  0  0  0  0  0  0  0  0  0  0  0
    2.0366   23.8708   30.5407 H   0  0  0  0  0  0  0  0  0  0  0  0
    3.1935   24.8572   29.5840 H   0  0  0  0  0  0  0  0  0  0  0  0
    3.3263   23.0659   29.5840 H   0  0  0  0  0  0  0  0  0  0  0  0
    4.4498   23.0200   31.4725 H   0  0  0  0  0  0  0  0  0  0  0  0
    4.6524   24.8611   31.1214 H   0  0  0  0  0  0  0  0  0  0  0  0
    2.6689   23.7848   35.1145 H   0  0  0  0  0  0  0  0  0  0  0  0
    4.2934   23.3039   35.8326 H   0  0  0  0  0  0  0  0  0  0  0  0
    5.1986   24.3203   33.9229 H   0  0  0  0  0  0  0  0  0  0  0  0
    4.7298   22.7723   33.1123 H   0  0  0  0  0  0  0  0  0  0  0  0
    3.5292   25.4790   32.9162 H   0  0  0  0  0  0  0  0  0  0  0  0
    2.4013   24.1460   32.8935 H   0  0  0  0  0  0  0  0  0  0  0  0
  3 10  1  0
  3  9  1  0
  4 15  1  0
  4  8  1  0
  5  6  1  0
  6 10  1  0
  7  5  1  0
  8  1  1  0
  8  2  1  0
  9 15  1  0
 10  4  2  0
 11 12  1  0
 12 16  1  0
 13  7  1  0
 14 13  1  0
 16 14  1  0
  1 17  1  0
  1 18  1  0
  1 19  1  0
  2 20  1  0
  2 21  1  0
  2 22  1  0
  3 23  1  0
  3 24  1  0
  5 25  1  0
  5 26  1  0
  6 27  1  0
  6 28  1  0
  7 29  1  0
  7 30  1  0
  8 31  1  0
  9 32  1  0
  9 33  1  0
 11 34  1  0
 11 35  1  0
 11 36  1  0
 12 37  1  0
 12 38  1  0
 13 39  1  0
 13 40  1  0
 14 41  1  0
 14 42  1  0
 16 43  1  0
 16 44  1  0
M  END
>  <mol_id>  (96) 
2026-09-18-3war-s0-n100-0098

>  <rmsd_to_ref>  (96) 


$$$$

     RDKit          3D

 35 35  0  0  0  0  0  0  0  0999 V2000
    2.6530   20.9480   36.5880 C   0  0  0  0  0  0  0  0  0  0  0  0
    1.7010   20.8770   39.0310 C   0  0  0  0  0  0  0  0  0  0  0  0
    1.5270   18.1560   41.4200 O   0  0  0  0  0  0  0  0  0  0  0  0
    2.4720   20.3140   38.0110 C   0  0  0  0  0  0  0  0  0  0  0  0
    3.8720   24.5300   30.9220 O   0  0  0  0  0  0  0  0  0  0  0  0
    3.9970   23.1890   31.0630 C   0  0  0  0  0  0  0  0  0  0  0  0
    4.4350   22.3570   34.9590 C   0  0  0  0  0  0  0  0  0  0  0  0
    2.7320   25.2610   30.6540 C   0  0  0  0  0  0  0  0  0  0  0  0
    2.0040   18.8720   40.4040 C   0  0  0  0  0  0  0  0  0  0  0  0
    5.8820   24.0480   32.6300 C   0  0  0  0  0  0  0  0  0  0  0  0
    1.4990   20.1720   40.2420 C   0  0  0  0  0  0  0  0  0  0  0  0
    3.8240   21.2780   34.3130 O   0  0  0  0  0  0  0  0  0  0  0  0
    2.8360   18.3240   39.3830 C   0  0  0  0  0  0  0  0  0  0  0  0
    3.9440   21.1120   35.7490 C   0  0  2  0  0  0  0  0  0  0  0  0
    1.7100   21.5200   36.1760 O   0  0  0  0  0  0  0  0  0  0  0  0
    4.7750   23.7500   31.7080 C   0  0  0  0  0  0  0  0  0  0  0  0
    3.0230   19.0460   38.2280 C   0  0  0  0  0  0  0  0  0  0  0  0
    1.2497   21.8706   38.8928 H   0  0  0  0  0  0  0  0  0  0  0  0
    1.8543   17.2342   41.5727 H   0  0  0  0  0  0  0  0  0  0  0  0
    3.1927   22.6387   31.5732 H   0  0  0  0  0  0  0  0  0  0  0  0
    4.1198   22.3929   30.3140 H   0  0  0  0  0  0  0  0  0  0  0  0
    3.9066   23.3171   35.0540 H   0  0  0  0  0  0  0  0  0  0  0  0
    5.3875   22.8976   34.8565 H   0  0  0  0  0  0  0  0  0  0  0  0
    2.2597   25.5638   31.6002 H   0  0  0  0  0  0  0  0  0  0  0  0
    2.9988   26.1569   30.0741 H   0  0  0  0  0  0  0  0  0  0  0  0
    2.0291   24.6448   30.0741 H   0  0  0  0  0  0  0  0  0  0  0  0
    5.5303   23.9533   33.6679 H   0  0  0  0  0  0  0  0  0  0  0  0
    6.7052   23.3395   32.4557 H   0  0  0  0  0  0  0  0  0  0  0  0
    6.2382   25.0740   32.4557 H   0  0  0  0  0  0  0  0  0  0  0  0
    0.9417   20.6468   41.0630 H   0  0  0  0  0  0  0  0  0  0  0  0
    3.3179   17.3443   39.5170 H   0  0  0  0  0  0  0  0  0  0  0  0
    4.4194   20.4711   36.5061 H   0  0  0  0  0  0  0  0  0  0  0  0
    5.1836   24.3395   30.8740 H   0  0  0  0  0  0  0  0  0  0  0  0
    4.1996   23.4269   32.5880 H   0  0  0  0  0  0  0  0  0  0  0  0
    3.6390   18.6031   37.4315 H   0  0  0  0  0  0  0  0  0  0  0  0
  1  4  1  0
  2 11  2  0
  4 17  2  0
  4  2  1  0
  5  6  1  0
  6 16  1  0
  7 14  1  0
  8  5  1  0
  9  3  1  0
 11  9  1  0
 12  7  1  0
 12 14  1  0
 13  9  2  0
 14  1  1  0
 15  1  2  0
 16 10  1  0
 17 13  1  0
  2 18  1  0
  3 19  1  0
  6 20  1  0
  6 21  1  0
  7 22  1  0
  7 23  1  0
  8 24  1  0
  8 25  1  0
  8 26  1  0
 10 27  1  0
 10 28  1  0
 10 29  1  0
 11 30  1  0
 13 31  1  0
 14 32  1  6
 16 33  1  0
 16 34  1  0
 17 35  1  0
M  END
>  <mol_id>  (97) 
2026-09-18-3war-s0-n100-0099

>  <rmsd_to_ref>  (97) 


$$$$

     RDKit          3D

 34 35  0  0  0  0  0  0  0  0999 V2000
    3.8910   22.5300   34.1720 C   0  0  0  0  0  0  0  0  0  0  0  0
    1.8940   24.3280   33.7330 S   0  0  0  0  0  0  0  0  0  0  0  0
    1.8750   19.0310   40.4850 C   0  0  0  0  0  0  0  0  0  0  0  0
    3.2330   24.4280   32.6100 C   0  0  0  0  0  0  0  0  0  0  0  0
    2.6280   18.0340   39.5670 S   0  0  0  0  0  0  0  0  0  0  0  0
    2.5930   20.1320   38.6900 C   0  0  1  0  0  0  0  0  0  0  0  0
    4.3540   23.6350   33.2810 C   0  0  0  0  0  0  0  0  0  0  0  0
    2.9480   19.0790   38.0660 C   0  0  0  0  0  0  0  0  0  0  0  0
    2.1570   21.2120   37.6380 C   0  0  0  0  0  0  0  0  0  0  0  0
    1.2710   21.3200   40.3690 N   0  0  0  0  0  0  0  0  0  0  0  0
    1.9520   22.2160   35.5430 N   0  0  0  0  0  0  0  0  0  0  0  0
    1.8960   20.1260   39.8500 C   0  0  1  0  0  0  0  0  0  0  0  0
    2.3930   22.6070   34.1690 C   0  0  2  0  0  0  0  0  0  0  0  0
    2.3220   21.2060   36.2150 C   0  0  0  0  0  0  0  0  0  0  0  0
    4.2258   21.5573   33.7824 H   0  0  0  0  0  0  0  0  0  0  0  0
    4.3006   22.6290   35.1881 H   0  0  0  0  0  0  0  0  0  0  0  0
    0.8398   18.6989   40.6529 H   0  0  0  0  0  0  0  0  0  0  0  0
    2.3385   19.1155   41.4790 H   0  0  0  0  0  0  0  0  0  0  0  0
    3.5348   25.4746   32.4568 H   0  0  0  0  0  0  0  0  0  0  0  0
    2.9766   24.0317   31.6164 H   0  0  0  0  0  0  0  0  0  0  0  0
    3.5150   20.3875   39.2328 H   0  0  0  0  0  0  0  0  0  0  0  0
    4.9837   23.1978   32.4922 H   0  0  0  0  0  0  0  0  0  0  0  0
    4.8950   24.3454   33.9234 H   0  0  0  0  0  0  0  0  0  0  0  0
    2.3051   18.8329   37.2080 H   0  0  0  0  0  0  0  0  0  0  0  0
    3.9311   19.0413   37.5741 H   0  0  0  0  0  0  0  0  0  0  0  0
    1.6538   22.0984   38.0516 H   0  0  0  0  0  0  0  0  0  0  0  0
    1.2843   21.2947   41.3986 H   0  0  0  0  0  0  0  0  0  0  0  0
    1.7866   22.1485   40.0393 H   0  0  0  0  0  0  0  0  0  0  0  0
    0.2964   21.3684   40.0393 H   0  0  0  0  0  0  0  0  0  0  0  0
    0.9282   22.1257   35.4748 H   0  0  0  0  0  0  0  0  0  0  0  0
    2.4329   22.9511   36.0808 H   0  0  0  0  0  0  0  0  0  0  0  0
    2.8155   20.3666   40.4037 H   0  0  0  0  0  0  0  0  0  0  0  0
    1.9261   21.9382   33.4310 H   0  0  0  0  0  0  0  0  0  0  0  0
    2.7649   20.3346   35.7105 H   0  0  0  0  0  0  0  0  0  0  0  0
  2 13  1  0
  4  7  1  0
  4  2  1  0
  5  3  1  0
  6  9  1  0
  6 12  1  0
  7  1  1  0
  8  6  1  0
  8  5  1  0
 11 14  1  0
 12 10  1  0
 12  3  1  0
 13  1  1  0
 13 11  1  0
 14  9  2  3
  1 15  1  0
  1 16  1  0
  3 17  1  0
  3 18  1  0
  4 19  1  0
  4 20  1  0
  6 21  1  1
  7 22  1  0
  7 23  1  0
  8 24  1  0
  8 25  1  0
  9 26  1  0
 10 27  1  0
 10 28  1  0
 10 29  1  0
 11 30  1  0
 11 31  1  0
 12 32  1  6
 13 33  1  6
 14 34  1  0
M  CHG  2  10   1  11   1
M  END
>  <mol_id>  (98) 
2026-09-18-3war-s0-n100-0100

>  <rmsd_to_ref>  (98) 


$$$$
