3war.A
     RDKit          3D

 13 13  0  0  0  0  0  0  0  0999 V2000
    2.0001   18.6245   40.6926 N   0  0  0  0  0  0  0  0  0  0  0  0
    2.5782   18.5757   39.4013 C   0  0  0  0  0  0  0  0  0  0  0  0
    2.4967   19.7718   38.6000 C   0  0  0  0  0  0  0  0  0  0  0  0
    1.8538   20.9004   39.0765 C   0  0  0  0  0  0  0  0  0  0  0  0
    1.3289   20.9112   40.3502 C   0  0  0  0  0  0  0  0  0  0  0  0
    1.3818   19.7712   41.1205 C   0  0  0  0  0  0  0  0  0  0  0  0
    3.0116   19.7599   37.1684 C   0  0  0  0  0  0  0  0  0  0  0  0
    3.7306   18.7870   36.7954 O   0  0  0  0  0  0  0  0  0  0  0  0
    2.6655   20.7081   36.4973 O   0  0  0  0  0  0  0  0  0  0  0  0
    3.0681   17.6653   39.0256 H   0  0  0  0  0  0  0  0  0  0  0  0
    1.7616   21.7908   38.4372 H   0  0  0  0  0  0  0  0  0  0  0  0
    0.8693   21.8270   40.7502 H   0  0  0  0  0  0  0  0  0  0  0  0
    0.9112   19.7806   42.1147 H   0  0  0  0  0  0  0  0  0  0  0  0
  1  2  1  0
  1  6  2  0
  2  3  2  0
  3  4  1  0
  3  7  1  0
  4  5  2  0
  5  6  1  0
  7  8  1  0
  7  9  2  0
  2 10  1  0
  4 11  1  0
  5 12  1  0
  6 13  1  0
M  CHG  1   8  -1
M  END
>  <mol_id>  (1) 
2026-09-16-3war-s0-n100-0001

>  <rmsd_to_ref>  (1) 
0.0

>  <pose_kind>  (1) 
native

$$$$
3war.A
     RDKit          3D

 13 13  0  0  0  0  0  0  0  0999 V2000
    2.4277   18.8612   40.9130 N   0  0  0  0  0  0  0  0  0  0  0  0
    2.6427   18.7375   39.6096 C   0  0  0  0  0  0  0  0  0  0  0  0
    2.2952   19.8002   38.7934 C   0  0  0  0  0  0  0  0  0  0  0  0
    1.7458   20.9360   39.3455 C   0  0  0  0  0  0  0  0  0  0  0  0
    1.5425   21.0127   40.7138 C   0  0  0  0  0  0  0  0  0  0  0  0
    1.8958   19.9414   41.5135 C   0  0  0  0  0  0  0  0  0  0  0  0
    2.5015   19.7330   37.3688 C   0  0  0  0  0  0  0  0  0  0  0  0
    3.0383   18.6593   36.7065 O   0  0  0  0  0  0  0  0  0  0  0  0
    2.1629   20.7390   36.6724 O   0  0  0  0  0  0  0  0  0  0  0  0
    3.0798   17.8306   39.1817 H   0  0  0  0  0  0  0  0  0  0  0  0
    1.4708   21.7740   38.7091 H   0  0  0  0  0  0  0  0  0  0  0  0
    1.1186   21.8784   41.1768 H   0  0  0  0  0  0  0  0  0  0  0  0
    1.7665   19.9304   42.5866 H   0  0  0  0  0  0  0  0  0  0  0  0
  1  2  1  0
  1  6  2  0
  2  3  2  0
  3  4  1  0
  3  7  1  0
  4  5  2  0
  5  6  1  0
  7  8  1  0
  7  9  2  0
  2 10  1  0
  4 11  1  0
  5 12  1  0
  6 13  1  0
M  CHG  1   8  -1
M  END
>  <mol_id>  (2) 
2026-09-16-3war-s0-n100-0002

>  <rmsd_to_ref>  (2) 
0.5000000000005038

>  <pose_kind>  (2) 
conformer

$$$$
3war.A
     RDKit          3D

 13 13  0  0  0  0  0  0  0  0999 V2000
    1.6858   18.4203   40.5729 N   0  0  0  0  0  0  0  0  0  0  0  0
    2.2405   18.3733   39.2713 C   0  0  0  0  0  0  0  0  0  0  0  0
    2.2562   19.6039   38.5197 C   0  0  0  0  0  0  0  0  0  0  0  0
    1.7232   20.7647   39.0513 C   0  0  0  0  0  0  0  0  0  0  0  0
    1.2178   20.7697   40.3329 C   0  0  0  0  0  0  0  0  0  0  0  0
    1.1783   19.5989   41.0563 C   0  0  0  0  0  0  0  0  0  0  0  0
    2.7495   19.6051   37.0804 C   0  0  0  0  0  0  0  0  0  0  0  0
    3.3736   18.5882   36.6572 O   0  0  0  0  0  0  0  0  0  0  0  0
    2.4811   20.6072   36.4534 O   0  0  0  0  0  0  0  0  0  0  0  0
    2.6419   17.4392   38.8517 H   0  0  0  0  0  0  0  0  0  0  0  0
    1.7029   21.6853   38.4495 H   0  0  0  0  0  0  0  0  0  0  0  0
    0.8473   21.7056   40.7766 H   0  0  0  0  0  0  0  0  0  0  0  0
    0.7233   19.6093   42.0576 H   0  0  0  0  0  0  0  0  0  0  0  0
  1  2  1  0
  1  6  2  0
  2  3  2  0
  3  4  1  0
  3  7  1  0
  4  5  2  0
  5  6  1  0
  7  8  1  0
  7  9  2  0
  2 10  1  0
  4 11  1  0
  5 12  1  0
  6 13  1  0
M  CHG  1   8  -1
M  END
>  <mol_id>  (3) 
2026-09-16-3war-s0-n100-0003

>  <rmsd_to_ref>  (3) 
0.5459183673475069

>  <pose_kind>  (3) 
rigid

$$$$
3war.A
     RDKit          3D

 13 13  0  0  0  0  0  0  0  0999 V2000
    1.2704   18.7559   40.6735 N   0  0  0  0  0  0  0  0  0  0  0  0
    2.0498   18.5392   39.6219 C   0  0  0  0  0  0  0  0  0  0  0  0
    2.3081   19.6057   38.7780 C   0  0  0  0  0  0  0  0  0  0  0  0
    1.7595   20.8398   39.0473 C   0  0  0  0  0  0  0  0  0  0  0  0
    0.9520   21.0113   40.1600 C   0  0  0  0  0  0  0  0  0  0  0  0
    0.7050   19.9346   40.9917 C   0  0  0  0  0  0  0  0  0  0  0  0
    3.1463   19.4404   37.6175 C   0  0  0  0  0  0  0  0  0  0  0  0
    3.7461   18.2644   37.2476 O   0  0  0  0  0  0  0  0  0  0  0  0
    3.3466   20.4551   36.8813 O   0  0  0  0  0  0  0  0  0  0  0  0
    2.4803   17.5546   39.4175 H   0  0  0  0  0  0  0  0  0  0  0  0
    1.9590   21.6814   38.3877 H   0  0  0  0  0  0  0  0  0  0  0  0
    0.5095   21.9548   40.3999 H   0  0  0  0  0  0  0  0  0  0  0  0
    0.0861   19.9942   41.8758 H   0  0  0  0  0  0  0  0  0  0  0  0
  1  2  1  0
  1  6  2  0
  2  3  2  0
  3  4  1  0
  3  7  1  0
  4  5  2  0
  5  6  1  0
  7  8  1  0
  7  9  2  0
  2 10  1  0
  4 11  1  0
  5 12  1  0
  6 13  1  0
M  CHG  1   8  -1
M  END
>  <mol_id>  (4) 
2026-09-16-3war-s0-n100-0004

>  <rmsd_to_ref>  (4) 
0.5918367346971042

>  <pose_kind>  (4) 
conformer

$$$$
3war.A
     RDKit          3D

 13 13  0  0  0  0  0  0  0  0999 V2000
    2.1256   18.3332   40.6643 N   0  0  0  0  0  0  0  0  0  0  0  0
    2.6959   18.6813   39.4162 C   0  0  0  0  0  0  0  0  0  0  0  0
    2.3137   19.9518   38.8514 C   0  0  0  0  0  0  0  0  0  0  0  0
    1.4067   20.7706   39.5002 C   0  0  0  0  0  0  0  0  0  0  0  0
    0.8974   20.4031   40.7264 C   0  0  0  0  0  0  0  0  0  0  0  0
    1.2378   19.1848   41.2700 C   0  0  0  0  0  0  0  0  0  0  0  0
    2.8134   20.3465   37.4696 C   0  0  0  0  0  0  0  0  0  0  0  0
    3.7547   19.6742   36.9553 O   0  0  0  0  0  0  0  0  0  0  0  0
    2.2380   21.2907   36.9730 O   0  0  0  0  0  0  0  0  0  0  0  0
    3.3998   18.0119   38.9000 H   0  0  0  0  0  0  0  0  0  0  0  0
    1.0916   21.7169   39.0362 H   0  0  0  0  0  0  0  0  0  0  0  0
    0.2215   21.0804   41.2690 H   0  0  0  0  0  0  0  0  0  0  0  0
    0.7811   18.8838   42.2244 H   0  0  0  0  0  0  0  0  0  0  0  0
  1  2  1  0
  1  6  2  0
  2  3  2  0
  3  4  1  0
  3  7  1  0
  4  5  2  0
  5  6  1  0
  7  8  1  0
  7  9  2  0
  2 10  1  0
  4 11  1  0
  5 12  1  0
  6 13  1  0
M  CHG  1   8  -1
M  END
>  <mol_id>  (5) 
2026-09-16-3war-s0-n100-0005

>  <rmsd_to_ref>  (5) 
0.6377551020422293

>  <pose_kind>  (5) 
rigid

$$$$
3war.A
     RDKit          3D

 13 13  0  0  0  0  0  0  0  0999 V2000
    1.5927   18.8171   40.5994 N   0  0  0  0  0  0  0  0  0  0  0  0
    2.3447   18.4678   39.5636 C   0  0  0  0  0  0  0  0  0  0  0  0
    2.5604   19.4114   38.5740 C   0  0  0  0  0  0  0  0  0  0  0  0
    1.9994   20.6638   38.6886 C   0  0  0  0  0  0  0  0  0  0  0  0
    1.2218   20.9764   39.7919 C   0  0  0  0  0  0  0  0  0  0  0  0
    1.0172   20.0212   40.7705 C   0  0  0  0  0  0  0  0  0  0  0  0
    3.3671   19.0988   37.4215 C   0  0  0  0  0  0  0  0  0  0  0  0
    3.9755   17.8907   37.1976 O   0  0  0  0  0  0  0  0  0  0  0  0
    3.5289   20.0051   36.5474 O   0  0  0  0  0  0  0  0  0  0  0  0
    2.7855   17.4699   39.4827 H   0  0  0  0  0  0  0  0  0  0  0  0
    2.1654   21.4092   37.9141 H   0  0  0  0  0  0  0  0  0  0  0  0
    0.7707   21.9382   39.9140 H   0  0  0  0  0  0  0  0  0  0  0  0
    0.4233   20.1939   41.6570 H   0  0  0  0  0  0  0  0  0  0  0  0
  1  2  1  0
  1  6  2  0
  2  3  2  0
  3  4  1  0
  3  7  1  0
  4  5  2  0
  5  6  1  0
  7  8  1  0
  7  9  2  0
  2 10  1  0
  4 11  1  0
  5 12  1  0
  6 13  1  0
M  CHG  1   8  -1
M  END
>  <mol_id>  (6) 
2026-09-16-3war-s0-n100-0006

>  <rmsd_to_ref>  (6) 
0.6836734693904697

>  <pose_kind>  (6) 
conformer

$$$$
3war.A
     RDKit          3D

 13 13  0  0  0  0  0  0  0  0999 V2000
    2.9735   18.5081   40.7141 N   0  0  0  0  0  0  0  0  0  0  0  0
    3.0934   18.3690   39.3104 C   0  0  0  0  0  0  0  0  0  0  0  0
    2.5723   19.4402   38.4977 C   0  0  0  0  0  0  0  0  0  0  0  0
    1.9600   20.5361   39.0792 C   0  0  0  0  0  0  0  0  0  0  0  0
    1.8896   20.6418   40.4510 C   0  0  0  0  0  0  0  0  0  0  0  0
    2.3654   19.6188   41.2402 C   0  0  0  0  0  0  0  0  0  0  0  0
    2.5814   19.3129   36.9817 C   0  0  0  0  0  0  0  0  0  0  0  0
    3.2752   18.3920   36.4591 O   0  0  0  0  0  0  0  0  0  0  0  0
    1.8942   20.1249   36.4006 O   0  0  0  0  0  0  0  0  0  0  0  0
    3.5634   17.4826   38.8594 H   0  0  0  0  0  0  0  0  0  0  0  0
    1.5286   21.3246   38.4450 H   0  0  0  0  0  0  0  0  0  0  0  0
    1.4551   21.5400   40.9140 H   0  0  0  0  0  0  0  0  0  0  0  0
    2.2536   19.6952   42.3319 H   0  0  0  0  0  0  0  0  0  0  0  0
  1  2  1  0
  1  6  2  0
  2  3  2  0
  3  4  1  0
  3  7  1  0
  4  5  2  0
  5  6  1  0
  7  8  1  0
  7  9  2  0
  2 10  1  0
  4 11  1  0
  5 12  1  0
  6 13  1  0
M  CHG  1   8  -1
M  END
>  <mol_id>  (7) 
2026-09-16-3war-s0-n100-0007

>  <rmsd_to_ref>  (7) 
0.7295918367361827

>  <pose_kind>  (7) 
rigid

$$$$
3war.A
     RDKit          3D

 13 13  0  0  0  0  0  0  0  0999 V2000
    2.5477   18.7395   40.6464 N   0  0  0  0  0  0  0  0  0  0  0  0
    2.6678   18.7896   39.3260 C   0  0  0  0  0  0  0  0  0  0  0  0
    2.6558   20.0354   38.7226 C   0  0  0  0  0  0  0  0  0  0  0  0
    2.5220   21.1682   39.4942 C   0  0  0  0  0  0  0  0  0  0  0  0
    2.3999   21.0591   40.8699 C   0  0  0  0  0  0  0  0  0  0  0  0
    2.4140   19.8064   41.4552 C   0  0  0  0  0  0  0  0  0  0  0  0
    2.7819   20.1624   37.2927 C   0  0  0  0  0  0  0  0  0  0  0  0
    2.9203   19.1111   36.4237 O   0  0  0  0  0  0  0  0  0  0  0  0
    2.7640   21.3311   36.7973 O   0  0  0  0  0  0  0  0  0  0  0  0
    2.7736   17.8832   38.7227 H   0  0  0  0  0  0  0  0  0  0  0  0
    2.5119   22.1497   39.0255 H   0  0  0  0  0  0  0  0  0  0  0  0
    2.2944   21.9166   41.5000 H   0  0  0  0  0  0  0  0  0  0  0  0
    2.3237   19.6451   42.5202 H   0  0  0  0  0  0  0  0  0  0  0  0
  1  2  1  0
  1  6  2  0
  2  3  2  0
  3  4  1  0
  3  7  1  0
  4  5  2  0
  5  6  1  0
  7  8  1  0
  7  9  2  0
  2 10  1  0
  4 11  1  0
  5 12  1  0
  6 13  1  0
M  CHG  1   8  -1
M  END
>  <mol_id>  (8) 
2026-09-16-3war-s0-n100-0008

>  <rmsd_to_ref>  (8) 
0.7755102040824801

>  <pose_kind>  (8) 
conformer

$$$$
3war.A
     RDKit          3D

 13 13  0  0  0  0  0  0  0  0999 V2000
    2.7486   18.6959   40.7812 N   0  0  0  0  0  0  0  0  0  0  0  0
    3.3819   19.0620   39.5692 C   0  0  0  0  0  0  0  0  0  0  0  0
    2.8099   20.1647   38.8367 C   0  0  0  0  0  0  0  0  0  0  0  0
    1.6753   20.8080   39.2979 C   0  0  0  0  0  0  0  0  0  0  0  0
    1.1080   20.4350   40.4967 C   0  0  0  0  0  0  0  0  0  0  0  0
    1.6308   19.3719   41.1983 C   0  0  0  0  0  0  0  0  0  0  0  0
    3.3815   20.5494   37.4802 C   0  0  0  0  0  0  0  0  0  0  0  0
    4.5014   20.0669   37.1401 O   0  0  0  0  0  0  0  0  0  0  0  0
    2.6837   21.2973   36.8298 O   0  0  0  0  0  0  0  0  0  0  0  0
    4.2713   18.5288   39.2023 H   0  0  0  0  0  0  0  0  0  0  0  0
    1.2252   21.6189   38.7064 H   0  0  0  0  0  0  0  0  0  0  0  0
    0.2407   20.9843   40.8918 H   0  0  0  0  0  0  0  0  0  0  0  0
    1.1341   19.0535   42.1267 H   0  0  0  0  0  0  0  0  0  0  0  0
  1  2  1  0
  1  6  2  0
  2  3  2  0
  3  4  1  0
  3  7  1  0
  4  5  2  0
  5  6  1  0
  7  8  1  0
  7  9  2  0
  2 10  1  0
  4 11  1  0
  5 12  1  0
  6 13  1  0
M  CHG  1   8  -1
M  END
>  <mol_id>  (9) 
2026-09-16-3war-s0-n100-0009

>  <rmsd_to_ref>  (9) 
0.8214285714303413

>  <pose_kind>  (9) 
rigid

$$$$
3war.A
     RDKit          3D

 13 13  0  0  0  0  0  0  0  0999 V2000
    1.7474   19.6552   41.0654 N   0  0  0  0  0  0  0  0  0  0  0  0
    2.3375   19.1953   39.9698 C   0  0  0  0  0  0  0  0  0  0  0  0
    2.0267   19.8020   38.7649 C   0  0  0  0  0  0  0  0  0  0  0  0
    1.1301   20.8470   38.7362 C   0  0  0  0  0  0  0  0  0  0  0  0
    0.5422   21.2880   39.9107 C   0  0  0  0  0  0  0  0  0  0  0  0
    0.8648   20.6700   41.1048 C   0  0  0  0  0  0  0  0  0  0  0  0
    2.6312   19.3527   37.5364 C   0  0  0  0  0  0  0  0  0  0  0  0
    3.5344   18.3258   37.4395 O   0  0  0  0  0  0  0  0  0  0  0  0
    2.3067   19.9482   36.4632 O   0  0  0  0  0  0  0  0  0  0  0  0
    3.0483   18.3645   40.0041 H   0  0  0  0  0  0  0  0  0  0  0  0
    0.8821   21.3274   37.7925 H   0  0  0  0  0  0  0  0  0  0  0  0
   -0.1579   22.0962   39.9261 H   0  0  0  0  0  0  0  0  0  0  0  0
    0.4462   20.9601   42.0582 H   0  0  0  0  0  0  0  0  0  0  0  0
  1  2  1  0
  1  6  2  0
  2  3  2  0
  3  4  1  0
  3  7  1  0
  4  5  2  0
  5  6  1  0
  7  8  1  0
  7  9  2  0
  2 10  1  0
  4 11  1  0
  5 12  1  0
  6 13  1  0
M  CHG  1   8  -1
M  END
>  <mol_id>  (10) 
2026-09-16-3war-s0-n100-0010

>  <rmsd_to_ref>  (10) 
0.867346938778937

>  <pose_kind>  (10) 
conformer

$$$$
3war.A
     RDKit          3D

 13 13  0  0  0  0  0  0  0  0999 V2000
    1.0044   18.1723   40.4783 N   0  0  0  0  0  0  0  0  0  0  0  0
    2.0378   18.2098   39.5115 C   0  0  0  0  0  0  0  0  0  0  0  0
    2.4875   19.5107   39.0815 C   0  0  0  0  0  0  0  0  0  0  0  0
    1.9048   20.6617   39.5811 C   0  0  0  0  0  0  0  0  0  0  0  0
    0.9200   20.5777   40.5408 C   0  0  0  0  0  0  0  0  0  0  0  0
    0.4665   19.3430   40.9478 C   0  0  0  0  0  0  0  0  0  0  0  0
    3.5269   19.6247   37.9763 C   0  0  0  0  0  0  0  0  0  0  0  0
    4.1622   18.5833   37.6378 O   0  0  0  0  0  0  0  0  0  0  0  0
    3.6447   20.7346   37.5037 O   0  0  0  0  0  0  0  0  0  0  0  0
    2.4785   17.2871   39.1061 H   0  0  0  0  0  0  0  0  0  0  0  0
    2.2285   21.6459   39.2114 H   0  0  0  0  0  0  0  0  0  0  0  0
    0.4976   21.4934   40.9802 H   0  0  0  0  0  0  0  0  0  0  0  0
   -0.3568   19.2939   41.6757 H   0  0  0  0  0  0  0  0  0  0  0  0
  1  2  1  0
  1  6  2  0
  2  3  2  0
  3  4  1  0
  3  7  1  0
  4  5  2  0
  5  6  1  0
  7  8  1  0
  7  9  2  0
  2 10  1  0
  4 11  1  0
  5 12  1  0
  6 13  1  0
M  CHG  1   8  -1
M  END
>  <mol_id>  (11) 
2026-09-16-3war-s0-n100-0011

>  <rmsd_to_ref>  (11) 
0.9132653061230979

>  <pose_kind>  (11) 
rigid

$$$$
3war.A
     RDKit          3D

 13 13  0  0  0  0  0  0  0  0999 V2000
    2.6737   19.6898   41.0397 N   0  0  0  0  0  0  0  0  0  0  0  0
    2.8527   19.1220   39.8540 C   0  0  0  0  0  0  0  0  0  0  0  0
    2.6985   19.9132   38.7286 C   0  0  0  0  0  0  0  0  0  0  0  0
    2.3696   21.2434   38.8670 C   0  0  0  0  0  0  0  0  0  0  0  0
    2.1941   21.7859   40.1297 C   0  0  0  0  0  0  0  0  0  0  0  0
    2.3522   20.9805   41.2424 C   0  0  0  0  0  0  0  0  0  0  0  0
    2.8783   19.3610   37.4097 C   0  0  0  0  0  0  0  0  0  0  0  0
    3.2054   18.0558   37.1467 O   0  0  0  0  0  0  0  0  0  0  0  0
    2.7235   20.1359   36.4161 O   0  0  0  0  0  0  0  0  0  0  0  0
    3.1138   18.0643   39.7556 H   0  0  0  0  0  0  0  0  0  0  0  0
    2.2472   21.8698   37.9863 H   0  0  0  0  0  0  0  0  0  0  0  0
    1.9386   22.8141   40.2749 H   0  0  0  0  0  0  0  0  0  0  0  0
    2.2312   21.3345   42.2565 H   0  0  0  0  0  0  0  0  0  0  0  0
  1  2  1  0
  1  6  2  0
  2  3  2  0
  3  4  1  0
  3  7  1  0
  4  5  2  0
  5  6  1  0
  7  8  1  0
  7  9  2  0
  2 10  1  0
  4 11  1  0
  5 12  1  0
  6 13  1  0
M  CHG  1   8  -1
M  END
>  <mol_id>  (12) 
2026-09-16-3war-s0-n100-0012

>  <rmsd_to_ref>  (12) 
0.9591836734730502

>  <pose_kind>  (12) 
conformer

$$$$
3war.A
     RDKit          3D

 13 13  0  0  0  0  0  0  0  0999 V2000
    2.3639   19.4840   41.4553 N   0  0  0  0  0  0  0  0  0  0  0  0
    2.9786   18.8972   40.3231 C   0  0  0  0  0  0  0  0  0  0  0  0
    2.7362   19.5226   39.0466 C   0  0  0  0  0  0  0  0  0  0  0  0
    1.9138   20.6306   38.9462 C   0  0  0  0  0  0  0  0  0  0  0  0
    1.3579   21.1840   40.0788 C   0  0  0  0  0  0  0  0  0  0  0  0
    1.5643   20.5875   41.3024 C   0  0  0  0  0  0  0  0  0  0  0  0
    3.2868   18.8897   37.7774 C   0  0  0  0  0  0  0  0  0  0  0  0
    4.1574   17.9774   37.8884 O   0  0  0  0  0  0  0  0  0  0  0  0
    2.8176   19.3263   36.7485 O   0  0  0  0  0  0  0  0  0  0  0  0
    3.6134   18.0034   40.4132 H   0  0  0  0  0  0  0  0  0  0  0  0
    1.7034   21.0706   37.9602 H   0  0  0  0  0  0  0  0  0  0  0  0
    0.7516   22.0988   40.0058 H   0  0  0  0  0  0  0  0  0  0  0  0
    1.0702   21.0113   42.1891 H   0  0  0  0  0  0  0  0  0  0  0  0
  1  2  1  0
  1  6  2  0
  2  3  2  0
  3  4  1  0
  3  7  1  0
  4  5  2  0
  5  6  1  0
  7  8  1  0
  7  9  2  0
  2 10  1  0
  4 11  1  0
  5 12  1  0
  6 13  1  0
M  CHG  1   8  -1
M  END
>  <mol_id>  (13) 
2026-09-16-3war-s0-n100-0013

>  <rmsd_to_ref>  (13) 
1.0051020408203215

>  <pose_kind>  (13) 
rigid

$$$$
3war.A
     RDKit          3D

 13 13  0  0  0  0  0  0  0  0999 V2000
    3.3827   19.3582   40.6585 N   0  0  0  0  0  0  0  0  0  0  0  0
    3.3551   18.8959   39.4152 C   0  0  0  0  0  0  0  0  0  0  0  0
    2.8237   19.7140   38.4330 C   0  0  0  0  0  0  0  0  0  0  0  0
    2.3468   20.9622   38.7662 C   0  0  0  0  0  0  0  0  0  0  0  0
    2.3997   21.3959   40.0810 C   0  0  0  0  0  0  0  0  0  0  0  0
    2.9339   20.5651   41.0486 C   0  0  0  0  0  0  0  0  0  0  0  0
    2.7629   19.2747   37.0619 C   0  0  0  0  0  0  0  0  0  0  0  0
    3.2048   18.0578   36.6106 O   0  0  0  0  0  0  0  0  0  0  0  0
    2.2647   20.0691   36.2061 O   0  0  0  0  0  0  0  0  0  0  0  0
    3.7367   17.9026   39.1616 H   0  0  0  0  0  0  0  0  0  0  0  0
    1.9281   21.6092   37.9987 H   0  0  0  0  0  0  0  0  0  0  0  0
    2.0389   22.3583   40.3759 H   0  0  0  0  0  0  0  0  0  0  0  0
    3.0075   20.8362   42.0924 H   0  0  0  0  0  0  0  0  0  0  0  0
  1  2  1  0
  1  6  2  0
  2  3  2  0
  3  4  1  0
  3  7  1  0
  4  5  2  0
  5  6  1  0
  7  8  1  0
  7  9  2  0
  2 10  1  0
  4 11  1  0
  5 12  1  0
  6 13  1  0
M  CHG  1   8  -1
M  END
>  <mol_id>  (14) 
2026-09-16-3war-s0-n100-0014

>  <rmsd_to_ref>  (14) 
1.0510204081670007

>  <pose_kind>  (14) 
conformer

$$$$
3war.A
     RDKit          3D

 13 13  0  0  0  0  0  0  0  0999 V2000
    1.1986   19.4413   40.9420 N   0  0  0  0  0  0  0  0  0  0  0  0
    2.0807   18.9175   39.9665 C   0  0  0  0  0  0  0  0  0  0  0  0
    2.7872   19.8671   39.1429 C   0  0  0  0  0  0  0  0  0  0  0  0
    2.5798   21.2267   39.2934 C   0  0  0  0  0  0  0  0  0  0  0  0
    1.7317   21.6923   40.2742 C   0  0  0  0  0  0  0  0  0  0  0  0
    1.0353   20.7981   41.0560 C   0  0  0  0  0  0  0  0  0  0  0  0
    3.6772   19.3730   38.0122 C   0  0  0  0  0  0  0  0  0  0  0  0
    3.9827   18.1449   37.9793 O   0  0  0  0  0  0  0  0  0  0  0  0
    4.0118   20.2274   37.2201 O   0  0  0  0  0  0  0  0  0  0  0  0
    2.2210   17.8336   39.8423 H   0  0  0  0  0  0  0  0  0  0  0  0
    3.0929   21.9372   38.6288 H   0  0  0  0  0  0  0  0  0  0  0  0
    1.6114   22.7742   40.4322 H   0  0  0  0  0  0  0  0  0  0  0  0
    0.3226   21.1859   41.7987 H   0  0  0  0  0  0  0  0  0  0  0  0
  1  2  1  0
  1  6  2  0
  2  3  2  0
  3  4  1  0
  3  7  1  0
  4  5  2  0
  5  6  1  0
  7  8  1  0
  7  9  2  0
  2 10  1  0
  4 11  1  0
  5 12  1  0
  6 13  1  0
M  CHG  1   8  -1
M  END
>  <mol_id>  (15) 
2026-09-16-3war-s0-n100-0015

>  <rmsd_to_ref>  (15) 
1.0969387755140037

>  <pose_kind>  (15) 
rigid

$$$$
3war.A
     RDKit          3D

 13 13  0  0  0  0  0  0  0  0999 V2000
    3.4267   19.0056   40.5238 N   0  0  0  0  0  0  0  0  0  0  0  0
    3.2624   18.6174   39.2658 C   0  0  0  0  0  0  0  0  0  0  0  0
    2.7906   19.5499   38.3579 C   0  0  0  0  0  0  0  0  0  0  0  0
    2.5097   20.8314   38.7767 C   0  0  0  0  0  0  0  0  0  0  0  0
    2.6993   21.1841   40.1030 C   0  0  0  0  0  0  0  0  0  0  0  0
    3.1713   20.2395   40.9957 C   0  0  0  0  0  0  0  0  0  0  0  0
    2.5891   19.1956   36.9757 C   0  0  0  0  0  0  0  0  0  0  0  0
    2.8327   17.9561   36.4429 O   0  0  0  0  0  0  0  0  0  0  0  0
    2.1544   20.0936   36.1906 O   0  0  0  0  0  0  0  0  0  0  0  0
    3.4888   17.5967   38.9439 H   0  0  0  0  0  0  0  0  0  0  0  0
    2.1387   21.5682   38.0678 H   0  0  0  0  0  0  0  0  0  0  0  0
    2.4918   22.1693   40.4634 H   0  0  0  0  0  0  0  0  0  0  0  0
    3.3431   20.4428   42.0433 H   0  0  0  0  0  0  0  0  0  0  0  0
  1  2  1  0
  1  6  2  0
  2  3  2  0
  3  4  1  0
  3  7  1  0
  4  5  2  0
  5  6  1  0
  7  8  1  0
  7  9  2  0
  2 10  1  0
  4 11  1  0
  5 12  1  0
  6 13  1  0
M  CHG  1   8  -1
M  END
>  <mol_id>  (16) 
2026-09-16-3war-s0-n100-0016

>  <rmsd_to_ref>  (16) 
1.1428571428578715

>  <pose_kind>  (16) 
conformer

$$$$
3war.A
     RDKit          3D

 13 13  0  0  0  0  0  0  0  0999 V2000
    2.9210   18.0415   40.0222 N   0  0  0  0  0  0  0  0  0  0  0  0
    2.7253   18.1960   38.6286 C   0  0  0  0  0  0  0  0  0  0  0  0
    2.1757   19.4507   38.1781 C   0  0  0  0  0  0  0  0  0  0  0  0
    1.8339   20.4394   39.0835 C   0  0  0  0  0  0  0  0  0  0  0  0
    2.0669   20.2555   40.4288 C   0  0  0  0  0  0  0  0  0  0  0  0
    2.5734   19.0560   40.8766 C   0  0  0  0  0  0  0  0  0  0  0  0
    1.8503   19.6488   36.7052 C   0  0  0  0  0  0  0  0  0  0  0  0
    2.3043   18.8121   35.8706 O   0  0  0  0  0  0  0  0  0  0  0  0
    1.1575   20.6138   36.4644 O   0  0  0  0  0  0  0  0  0  0  0  0
    2.9814   17.3941   37.9205 H   0  0  0  0  0  0  0  0  0  0  0  0
    1.3753   21.3741   38.7286 H   0  0  0  0  0  0  0  0  0  0  0  0
    1.8493   21.0638   41.1425 H   0  0  0  0  0  0  0  0  0  0  0  0
    2.7037   18.9063   41.9586 H   0  0  0  0  0  0  0  0  0  0  0  0
  1  2  1  0
  1  6  2  0
  2  3  2  0
  3  4  1  0
  3  7  1  0
  4  5  2  0
  5  6  1  0
  7  8  1  0
  7  9  2  0
  2 10  1  0
  4 11  1  0
  5 12  1  0
  6 13  1  0
M  CHG  1   8  -1
M  END
>  <mol_id>  (17) 
2026-09-16-3war-s0-n100-0017

>  <rmsd_to_ref>  (17) 
1.1887755102092874

>  <pose_kind>  (17) 
rigid

$$$$
3war.A
     RDKit          3D

 13 13  0  0  0  0  0  0  0  0999 V2000
    1.5112   17.7903   39.4856 N   0  0  0  0  0  0  0  0  0  0  0  0
    2.2009   18.0201   38.3757 C   0  0  0  0  0  0  0  0  0  0  0  0
    2.8975   19.2127   38.2827 C   0  0  0  0  0  0  0  0  0  0  0  0
    2.8569   20.1120   39.3249 C   0  0  0  0  0  0  0  0  0  0  0  0
    2.1206   19.8219   40.4620 C   0  0  0  0  0  0  0  0  0  0  0  0
    1.4311   18.6257   40.5373 C   0  0  0  0  0  0  0  0  0  0  0  0
    3.6671   19.5263   37.1054 C   0  0  0  0  0  0  0  0  0  0  0  0
    3.7828   18.7132   36.0076 O   0  0  0  0  0  0  0  0  0  0  0  0
    4.2845   20.6352   37.0784 O   0  0  0  0  0  0  0  0  0  0  0  0
    2.2262   17.2986   37.5538 H   0  0  0  0  0  0  0  0  0  0  0  0
    3.4023   21.0506   39.2573 H   0  0  0  0  0  0  0  0  0  0  0  0
    2.0664   20.4962   41.2902 H   0  0  0  0  0  0  0  0  0  0  0  0
    0.8371   18.3328   41.3915 H   0  0  0  0  0  0  0  0  0  0  0  0
  1  2  1  0
  1  6  2  0
  2  3  2  0
  3  4  1  0
  3  7  1  0
  4  5  2  0
  5  6  1  0
  7  8  1  0
  7  9  2  0
  2 10  1  0
  4 11  1  0
  5 12  1  0
  6 13  1  0
M  CHG  1   8  -1
M  END
>  <mol_id>  (18) 
2026-09-16-3war-s0-n100-0018

>  <rmsd_to_ref>  (18) 
1.2346938775512135

>  <pose_kind>  (18) 
conformer

$$$$
3war.A
     RDKit          3D

 13 13  0  0  0  0  0  0  0  0999 V2000
    0.9985   18.9857   40.5534 N   0  0  0  0  0  0  0  0  0  0  0  0
    2.2079   19.0650   39.8219 C   0  0  0  0  0  0  0  0  0  0  0  0
    2.2638   20.0255   38.7478 C   0  0  0  0  0  0  0  0  0  0  0  0
    1.1651   20.8081   38.4405 C   0  0  0  0  0  0  0  0  0  0  0  0
    0.0172   20.7159   39.1967 C   0  0  0  0  0  0  0  0  0  0  0  0
   -0.0585   19.7905   40.2133 C   0  0  0  0  0  0  0  0  0  0  0  0
    3.4974   20.0970   37.8603 C   0  0  0  0  0  0  0  0  0  0  0  0
    4.5462   19.4970   38.2378 O   0  0  0  0  0  0  0  0  0  0  0  0
    3.3512   20.7339   36.8393 O   0  0  0  0  0  0  0  0  0  0  0  0
    3.0676   18.4222   40.0625 H   0  0  0  0  0  0  0  0  0  0  0  0
    1.2082   21.5053   37.5907 H   0  0  0  0  0  0  0  0  0  0  0  0
   -0.8356   21.3789   38.9890 H   0  0  0  0  0  0  0  0  0  0  0  0
   -1.0006   19.6931   40.7729 H   0  0  0  0  0  0  0  0  0  0  0  0
  1  2  1  0
  1  6  2  0
  2  3  2  0
  3  4  1  0
  3  7  1  0
  4  5  2  0
  5  6  1  0
  7  8  1  0
  7  9  2  0
  2 10  1  0
  4 11  1  0
  5 12  1  0
  6 13  1  0
M  CHG  1   8  -1
M  END
>  <mol_id>  (19) 
2026-09-16-3war-s0-n100-0019

>  <rmsd_to_ref>  (19) 
1.2806122449011814

>  <pose_kind>  (19) 
rigid

$$$$
3war.A
     RDKit          3D

 13 13  0  0  0  0  0  0  0  0999 V2000
    2.8959   18.8429   40.8951 N   0  0  0  0  0  0  0  0  0  0  0  0
    2.7027   18.8732   39.5828 C   0  0  0  0  0  0  0  0  0  0  0  0
    2.8960   20.0777   38.9286 C   0  0  0  0  0  0  0  0  0  0  0  0
    3.2765   21.1914   39.6436 C   0  0  0  0  0  0  0  0  0  0  0  0
    3.4647   21.1044   41.0135 C   0  0  0  0  0  0  0  0  0  0  0  0
    3.2670   19.8929   41.6501 C   0  0  0  0  0  0  0  0  0  0  0  0
    2.7035   20.1814   37.5042 C   0  0  0  0  0  0  0  0  0  0  0  0
    2.3267   19.1456   36.6889 O   0  0  0  0  0  0  0  0  0  0  0  0
    2.8958   21.3124   36.9606 O   0  0  0  0  0  0  0  0  0  0  0  0
    2.4004   17.9823   39.0246 H   0  0  0  0  0  0  0  0  0  0  0  0
    3.4299   22.1405   39.1349 H   0  0  0  0  0  0  0  0  0  0  0  0
    3.7599   21.9482   41.6004 H   0  0  0  0  0  0  0  0  0  0  0  0
    3.3950   19.7508   42.7139 H   0  0  0  0  0  0  0  0  0  0  0  0
  1  2  1  0
  1  6  2  0
  2  3  2  0
  3  4  1  0
  3  7  1  0
  4  5  2  0
  5  6  1  0
  7  8  1  0
  7  9  2  0
  2 10  1  0
  4 11  1  0
  5 12  1  0
  6 13  1  0
M  CHG  1   8  -1
M  END
>  <mol_id>  (20) 
2026-09-16-3war-s0-n100-0020

>  <rmsd_to_ref>  (20) 
1.326530612247875

>  <pose_kind>  (20) 
conformer

$$$$
3war.A
     RDKit          3D

 13 13  0  0  0  0  0  0  0  0999 V2000
    2.9964   17.3734   39.9052 N   0  0  0  0  0  0  0  0  0  0  0  0
    3.0659   18.0331   38.6546 C   0  0  0  0  0  0  0  0  0  0  0  0
    2.4179   19.3173   38.5530 C   0  0  0  0  0  0  0  0  0  0  0  0
    1.7384   19.8545   39.6318 C   0  0  0  0  0  0  0  0  0  0  0  0
    1.7197   19.1891   40.8380 C   0  0  0  0  0  0  0  0  0  0  0  0
    2.3173   17.9534   40.9458 C   0  0  0  0  0  0  0  0  0  0  0  0
    2.3712   20.0373   37.2135 C   0  0  0  0  0  0  0  0  0  0  0  0
    3.1192   19.6218   36.2804 O   0  0  0  0  0  0  0  0  0  0  0  0
    1.5907   20.9633   37.1626 O   0  0  0  0  0  0  0  0  0  0  0  0
    3.5913   17.5858   37.7979 H   0  0  0  0  0  0  0  0  0  0  0  0
    1.2122   20.8147   39.5263 H   0  0  0  0  0  0  0  0  0  0  0  0
    1.2291   19.6432   41.7115 H   0  0  0  0  0  0  0  0  0  0  0  0
    2.2476   17.4121   41.9008 H   0  0  0  0  0  0  0  0  0  0  0  0
  1  2  1  0
  1  6  2  0
  2  3  2  0
  3  4  1  0
  3  7  1  0
  4  5  2  0
  5  6  1  0
  7  8  1  0
  7  9  2  0
  2 10  1  0
  4 11  1  0
  5 12  1  0
  6 13  1  0
M  CHG  1   8  -1
M  END
>  <mol_id>  (21) 
2026-09-16-3war-s0-n100-0021

>  <rmsd_to_ref>  (21) 
1.3724489795974857

>  <pose_kind>  (21) 
rigid

$$$$
3war.A
     RDKit          3D

 13 13  0  0  0  0  0  0  0  0999 V2000
    1.7065   19.5423   41.0326 N   0  0  0  0  0  0  0  0  0  0  0  0
    1.9860   18.6783   40.0653 C   0  0  0  0  0  0  0  0  0  0  0  0
    1.9611   19.1388   38.7601 C   0  0  0  0  0  0  0  0  0  0  0  0
    1.6529   20.4566   38.5052 C   0  0  0  0  0  0  0  0  0  0  0  0
    1.3689   21.3170   39.5533 C   0  0  0  0  0  0  0  0  0  0  0  0
    1.3985   20.8393   40.8506 C   0  0  0  0  0  0  0  0  0  0  0  0
    2.2547   18.2541   37.6611 C   0  0  0  0  0  0  0  0  0  0  0  0
    2.5738   16.9270   37.7897 O   0  0  0  0  0  0  0  0  0  0  0  0
    2.2161   18.7343   36.4865 O   0  0  0  0  0  0  0  0  0  0  0  0
    2.2295   17.6335   40.2791 H   0  0  0  0  0  0  0  0  0  0  0  0
    1.6319   20.8241   37.4817 H   0  0  0  0  0  0  0  0  0  0  0  0
    1.1256   22.3459   39.3928 H   0  0  0  0  0  0  0  0  0  0  0  0
    1.1882   21.4516   41.7161 H   0  0  0  0  0  0  0  0  0  0  0  0
  1  2  1  0
  1  6  2  0
  2  3  2  0
  3  4  1  0
  3  7  1  0
  4  5  2  0
  5  6  1  0
  7  8  1  0
  7  9  2  0
  2 10  1  0
  4 11  1  0
  5 12  1  0
  6 13  1  0
M  CHG  1   8  -1
M  END
>  <mol_id>  (22) 
2026-09-16-3war-s0-n100-0022

>  <rmsd_to_ref>  (22) 
1.4183673469417586

>  <pose_kind>  (22) 
conformer

$$$$
3war.A
     RDKit          3D

 13 13  0  0  0  0  0  0  0  0999 V2000
    3.5134   18.7648   40.6366 N   0  0  0  0  0  0  0  0  0  0  0  0
    3.1311   18.9759   39.2900 C   0  0  0  0  0  0  0  0  0  0  0  0
    2.6414   20.2875   38.9445 C   0  0  0  0  0  0  0  0  0  0  0  0
    2.5302   21.2770   39.9051 C   0  0  0  0  0  0  0  0  0  0  0  0
    2.9395   21.0346   41.1980 C   0  0  0  0  0  0  0  0  0  0  0  0
    3.3914   19.7820   41.5480 C   0  0  0  0  0  0  0  0  0  0  0  0
    2.1238   20.5559   37.5393 C   0  0  0  0  0  0  0  0  0  0  0  0
    2.3702   19.7056   36.6344 O   0  0  0  0  0  0  0  0  0  0  0  0
    1.4967   21.5861   37.4182 O   0  0  0  0  0  0  0  0  0  0  0  0
    3.2043   18.1746   38.5400 H   0  0  0  0  0  0  0  0  0  0  0  0
    2.1142   22.2591   39.6359 H   0  0  0  0  0  0  0  0  0  0  0  0
    2.9054   21.8387   41.9479 H   0  0  0  0  0  0  0  0  0  0  0  0
    3.6642   19.5904   42.5963 H   0  0  0  0  0  0  0  0  0  0  0  0
  1  2  1  0
  1  6  2  0
  2  3  2  0
  3  4  1  0
  3  7  1  0
  4  5  2  0
  5  6  1  0
  7  8  1  0
  7  9  2  0
  2 10  1  0
  4 11  1  0
  5 12  1  0
  6 13  1  0
M  CHG  1   8  -1
M  END
>  <mol_id>  (23) 
2026-09-16-3war-s0-n100-0023

>  <rmsd_to_ref>  (23) 
1.4642857142883767

>  <pose_kind>  (23) 
rigid

$$$$
3war.A
     RDKit          3D

 13 13  0  0  0  0  0  0  0  0999 V2000
    3.2559   20.5162   41.2857 N   0  0  0  0  0  0  0  0  0  0  0  0
    3.4043   19.6627   40.2809 C   0  0  0  0  0  0  0  0  0  0  0  0
    2.8390   19.9948   39.0617 C   0  0  0  0  0  0  0  0  0  0  0  0
    2.1506   21.1799   38.9268 C   0  0  0  0  0  0  0  0  0  0  0  0
    2.0254   22.0356   40.0092 C   0  0  0  0  0  0  0  0  0  0  0  0
    2.5967   21.6873   41.2193 C   0  0  0  0  0  0  0  0  0  0  0  0
    2.9620   19.1135   37.9283 C   0  0  0  0  0  0  0  0  0  0  0  0
    3.6211   17.9114   37.9407 O   0  0  0  0  0  0  0  0  0  0  0  0
    2.4223   19.4723   36.8367 O   0  0  0  0  0  0  0  0  0  0  0  0
    3.9532   18.7239   40.3992 H   0  0  0  0  0  0  0  0  0  0  0  0
    1.7043   21.4461   37.9713 H   0  0  0  0  0  0  0  0  0  0  0  0
    1.4982   22.9635   39.9410 H   0  0  0  0  0  0  0  0  0  0  0  0
    2.5396   22.3043   42.1049 H   0  0  0  0  0  0  0  0  0  0  0  0
  1  2  1  0
  1  6  2  0
  2  3  2  0
  3  4  1  0
  3  7  1  0
  4  5  2  0
  5  6  1  0
  7  8  1  0
  7  9  2  0
  2 10  1  0
  4 11  1  0
  5 12  1  0
  6 13  1  0
M  CHG  1   8  -1
M  END
>  <mol_id>  (24) 
2026-09-16-3war-s0-n100-0024

>  <rmsd_to_ref>  (24) 
1.5102040816335676

>  <pose_kind>  (24) 
conformer

$$$$
3war.A
     RDKit          3D

 13 13  0  0  0  0  0  0  0  0999 V2000
    0.6688   18.8166   41.1780 N   0  0  0  0  0  0  0  0  0  0  0  0
    1.2169   18.3424   39.9620 C   0  0  0  0  0  0  0  0  0  0  0  0
    2.4025   19.0028   39.4746 C   0  0  0  0  0  0  0  0  0  0  0  0
    2.9518   20.0698   40.1630 C   0  0  0  0  0  0  0  0  0  0  0  0
    2.4001   20.4802   41.3567 C   0  0  0  0  0  0  0  0  0  0  0  0
    1.2571   19.8724   41.8257 C   0  0  0  0  0  0  0  0  0  0  0  0
    2.9886   18.6082   38.1272 C   0  0  0  0  0  0  0  0  0  0  0  0
    2.5807   17.5405   37.5828 O   0  0  0  0  0  0  0  0  0  0  0  0
    3.8091   19.3830   37.6848 O   0  0  0  0  0  0  0  0  0  0  0  0
    0.7584   17.5067   39.4129 H   0  0  0  0  0  0  0  0  0  0  0  0
    3.8308   20.5914   39.7564 H   0  0  0  0  0  0  0  0  0  0  0  0
    2.8709   21.2903   41.9330 H   0  0  0  0  0  0  0  0  0  0  0  0
    0.7995   20.2471   42.7532 H   0  0  0  0  0  0  0  0  0  0  0  0
  1  2  1  0
  1  6  2  0
  2  3  2  0
  3  4  1  0
  3  7  1  0
  4  5  2  0
  5  6  1  0
  7  8  1  0
  7  9  2  0
  2 10  1  0
  4 11  1  0
  5 12  1  0
  6 13  1  0
M  CHG  1   8  -1
M  END
>  <mol_id>  (25) 
2026-09-16-3war-s0-n100-0025

>  <rmsd_to_ref>  (25) 
1.5561224489822343

>  <pose_kind>  (25) 
rigid

$$$$
3war.A
     RDKit          3D

 13 13  0  0  0  0  0  0  0  0999 V2000
    0.5692   18.2913   39.9093 N   0  0  0  0  0  0  0  0  0  0  0  0
    1.6912   17.8984   39.3202 C   0  0  0  0  0  0  0  0  0  0  0  0
    2.5725   18.8758   38.8910 C   0  0  0  0  0  0  0  0  0  0  0  0
    2.2670   20.2048   39.0832 C   0  0  0  0  0  0  0  0  0  0  0  0
    1.0807   20.5603   39.7044 C   0  0  0  0  0  0  0  0  0  0  0  0
    0.2126   19.5703   40.1266 C   0  0  0  0  0  0  0  0  0  0  0  0
    3.8095   18.5192   38.2435 C   0  0  0  0  0  0  0  0  0  0  0  0
    4.2212   17.2348   37.9977 O   0  0  0  0  0  0  0  0  0  0  0  0
    4.5770   19.4597   37.8720 O   0  0  0  0  0  0  0  0  0  0  0  0
    1.9238   16.8397   39.1727 H   0  0  0  0  0  0  0  0  0  0  0  0
    2.9557   20.9771   38.7480 H   0  0  0  0  0  0  0  0  0  0  0  0
    0.8110   21.5817   39.8702 H   0  0  0  0  0  0  0  0  0  0  0  0
   -0.7289   19.7728   40.6176 H   0  0  0  0  0  0  0  0  0  0  0  0
  1  2  1  0
  1  6  2  0
  2  3  2  0
  3  4  1  0
  3  7  1  0
  4  5  2  0
  5  6  1  0
  7  8  1  0
  7  9  2  0
  2 10  1  0
  4 11  1  0
  5 12  1  0
  6 13  1  0
M  CHG  1   8  -1
M  END
>  <mol_id>  (26) 
2026-09-16-3war-s0-n100-0026

>  <rmsd_to_ref>  (26) 
1.6020408163309565

>  <pose_kind>  (26) 
conformer

$$$$
3war.A
     RDKit          3D

 13 13  0  0  0  0  0  0  0  0999 V2000
    1.0005   19.8372   39.6721 N   0  0  0  0  0  0  0  0  0  0  0  0
    1.8027   18.8663   39.0255 C   0  0  0  0  0  0  0  0  0  0  0  0
    3.0935   19.2948   38.5462 C   0  0  0  0  0  0  0  0  0  0  0  0
    3.5034   20.6078   38.6950 C   0  0  0  0  0  0  0  0  0  0  0  0
    2.7006   21.5123   39.3549 C   0  0  0  0  0  0  0  0  0  0  0  0
    1.4575   21.1235   39.8015 C   0  0  0  0  0  0  0  0  0  0  0  0
    3.9665   18.3297   37.7583 C   0  0  0  0  0  0  0  0  0  0  0  0
    3.6598   17.1014   37.7608 O   0  0  0  0  0  0  0  0  0  0  0  0
    4.8964   18.8461   37.1770 O   0  0  0  0  0  0  0  0  0  0  0  0
    1.4566   17.8305   38.8945 H   0  0  0  0  0  0  0  0  0  0  0  0
    4.4722   20.9301   38.2857 H   0  0  0  0  0  0  0  0  0  0  0  0
    3.0513   22.5410   39.5243 H   0  0  0  0  0  0  0  0  0  0  0  0
    0.8078   21.8716   40.2791 H   0  0  0  0  0  0  0  0  0  0  0  0
  1  2  1  0
  1  6  2  0
  2  3  2  0
  3  4  1  0
  3  7  1  0
  4  5  2  0
  5  6  1  0
  7  8  1  0
  7  9  2  0
  2 10  1  0
  4 11  1  0
  5 12  1  0
  6 13  1  0
M  CHG  1   8  -1
M  END
>  <mol_id>  (27) 
2026-09-16-3war-s0-n100-0027

>  <rmsd_to_ref>  (27) 
1.6479591836758303

>  <pose_kind>  (27) 
rigid

$$$$
3war.A
     RDKit          3D

 13 13  0  0  0  0  0  0  0  0999 V2000
    3.5453   18.3389   40.9620 N   0  0  0  0  0  0  0  0  0  0  0  0
    2.9613   18.1220   39.7906 C   0  0  0  0  0  0  0  0  0  0  0  0
    2.2473   19.1626   39.2217 C   0  0  0  0  0  0  0  0  0  0  0  0
    2.1637   20.3724   39.8744 C   0  0  0  0  0  0  0  0  0  0  0  0
    2.7930   20.5453   41.0965 C   0  0  0  0  0  0  0  0  0  0  0  0
    3.5018   19.4947   41.6495 C   0  0  0  0  0  0  0  0  0  0  0  0
    1.5882   18.9955   37.9511 C   0  0  0  0  0  0  0  0  0  0  0  0
    1.6003   17.8422   37.2099 O   0  0  0  0  0  0  0  0  0  0  0  0
    0.9486   19.9859   37.4801 O   0  0  0  0  0  0  0  0  0  0  0  0
    3.0342   17.1569   39.2809 H   0  0  0  0  0  0  0  0  0  0  0  0
    1.6041   21.1935   39.4321 H   0  0  0  0  0  0  0  0  0  0  0  0
    2.7494   21.4703   41.6313 H   0  0  0  0  0  0  0  0  0  0  0  0
    4.0170   19.5569   42.5977 H   0  0  0  0  0  0  0  0  0  0  0  0
  1  2  1  0
  1  6  2  0
  2  3  2  0
  3  4  1  0
  3  7  1  0
  4  5  2  0
  5  6  1  0
  7  8  1  0
  7  9  2  0
  2 10  1  0
  4 11  1  0
  5 12  1  0
  6 13  1  0
M  CHG  1   8  -1
M  END
>  <mol_id>  (28) 
2026-09-16-3war-s0-n100-0028

>  <rmsd_to_ref>  (28) 
1.6938775510212667

>  <pose_kind>  (28) 
conformer

$$$$
3war.A
     RDKit          3D

 13 13  0  0  0  0  0  0  0  0999 V2000
    3.5822   18.1019   40.1406 N   0  0  0  0  0  0  0  0  0  0  0  0
    3.3094   18.7813   38.9290 C   0  0  0  0  0  0  0  0  0  0  0  0
    2.9516   20.1750   39.0241 C   0  0  0  0  0  0  0  0  0  0  0  0
    2.8565   20.7988   40.2553 C   0  0  0  0  0  0  0  0  0  0  0  0
    3.1572   20.1051   41.4069 C   0  0  0  0  0  0  0  0  0  0  0  0
    3.4819   18.7690   41.3345 C   0  0  0  0  0  0  0  0  0  0  0  0
    2.5527   20.9409   37.7714 C   0  0  0  0  0  0  0  0  0  0  0  0
    2.7898   20.4161   36.6440 O   0  0  0  0  0  0  0  0  0  0  0  0
    2.0204   22.0099   37.9788 O   0  0  0  0  0  0  0  0  0  0  0  0
    3.3678   18.2686   37.9575 H   0  0  0  0  0  0  0  0  0  0  0  0
    2.5401   21.8507   40.3148 H   0  0  0  0  0  0  0  0  0  0  0  0
    3.1380   20.6166   42.3806 H   0  0  0  0  0  0  0  0  0  0  0  0
    3.6675   18.2169   42.2676 H   0  0  0  0  0  0  0  0  0  0  0  0
  1  2  1  0
  1  6  2  0
  2  3  2  0
  3  4  1  0
  3  7  1  0
  4  5  2  0
  5  6  1  0
  7  8  1  0
  7  9  2  0
  2 10  1  0
  4 11  1  0
  5 12  1  0
  6 13  1  0
M  CHG  1   8  -1
M  END
>  <mol_id>  (29) 
2026-09-16-3war-s0-n100-0029

>  <rmsd_to_ref>  (29) 
1.7397959183709022

>  <pose_kind>  (29) 
rigid

$$$$
3war.A
     RDKit          3D

 13 13  0  0  0  0  0  0  0  0999 V2000
    2.5887   19.8349   40.4150 N   0  0  0  0  0  0  0  0  0  0  0  0
    2.5225   18.9023   39.4736 C   0  0  0  0  0  0  0  0  0  0  0  0
    2.1634   19.2974   38.1965 C   0  0  0  0  0  0  0  0  0  0  0  0
    1.8896   20.6227   37.9417 C   0  0  0  0  0  0  0  0  0  0  0  0
    1.9737   21.5562   38.9621 C   0  0  0  0  0  0  0  0  0  0  0  0
    2.3340   21.1433   40.2315 C   0  0  0  0  0  0  0  0  0  0  0  0
    2.0723   18.3363   37.1265 C   0  0  0  0  0  0  0  0  0  0  0  0
    2.3204   16.9944   37.2579 O   0  0  0  0  0  0  0  0  0  0  0  0
    1.7382   18.7587   35.9769 O   0  0  0  0  0  0  0  0  0  0  0  0
    2.7422   17.8522   39.6871 H   0  0  0  0  0  0  0  0  0  0  0  0
    1.6069   20.9389   36.9401 H   0  0  0  0  0  0  0  0  0  0  0  0
    1.7681   22.5932   38.8008 H   0  0  0  0  0  0  0  0  0  0  0  0
    2.4197   21.8142   41.0747 H   0  0  0  0  0  0  0  0  0  0  0  0
  1  2  1  0
  1  6  2  0
  2  3  2  0
  3  4  1  0
  3  7  1  0
  4  5  2  0
  5  6  1  0
  7  8  1  0
  7  9  2  0
  2 10  1  0
  4 11  1  0
  5 12  1  0
  6 13  1  0
M  CHG  1   8  -1
M  END
>  <mol_id>  (30) 
2026-09-16-3war-s0-n100-0030

>  <rmsd_to_ref>  (30) 
1.785714285715669

>  <pose_kind>  (30) 
conformer

$$$$
3war.A
     RDKit          3D

 13 13  0  0  0  0  0  0  0  0999 V2000
    1.0840   17.9685   40.0206 N   0  0  0  0  0  0  0  0  0  0  0  0
    2.1565   18.3994   39.2032 C   0  0  0  0  0  0  0  0  0  0  0  0
    2.9634   19.4871   39.6984 C   0  0  0  0  0  0  0  0  0  0  0  0
    2.6718   20.0906   40.9087 C   0  0  0  0  0  0  0  0  0  0  0  0
    1.6342   19.6203   41.6835 C   0  0  0  0  0  0  0  0  0  0  0  0
    0.8428   18.5952   41.2161 C   0  0  0  0  0  0  0  0  0  0  0  0
    4.0716   20.0633   38.8298 C   0  0  0  0  0  0  0  0  0  0  0  0
    4.4314   19.4145   37.8040 O   0  0  0  0  0  0  0  0  0  0  0  0
    4.5118   21.1270   39.2093 O   0  0  0  0  0  0  0  0  0  0  0  0
    2.3652   17.9252   38.2328 H   0  0  0  0  0  0  0  0  0  0  0  0
    3.2694   20.9475   41.2529 H   0  0  0  0  0  0  0  0  0  0  0  0
    1.4389   20.0622   42.6718 H   0  0  0  0  0  0  0  0  0  0  0  0
   -0.0137   18.2672   41.8235 H   0  0  0  0  0  0  0  0  0  0  0  0
  1  2  1  0
  1  6  2  0
  2  3  2  0
  3  4  1  0
  3  7  1  0
  4  5  2  0
  5  6  1  0
  7  8  1  0
  7  9  2  0
  2 10  1  0
  4 11  1  0
  5 12  1  0
  6 13  1  0
M  CHG  1   8  -1
M  END
>  <mol_id>  (31) 
2026-09-16-3war-s0-n100-0031

>  <rmsd_to_ref>  (31) 
1.831632653065115

>  <pose_kind>  (31) 
rigid

$$$$
3war.A
     RDKit          3D

 13 13  0  0  0  0  0  0  0  0999 V2000
    0.3638   20.3128   40.4568 N   0  0  0  0  0  0  0  0  0  0  0  0
    0.6592   20.0445   39.1914 C   0  0  0  0  0  0  0  0  0  0  0  0
    1.9880   19.8282   38.8696 C   0  0  0  0  0  0  0  0  0  0  0  0
    2.9500   19.8960   39.8528 C   0  0  0  0  0  0  0  0  0  0  0  0
    2.5867   20.1798   41.1593 C   0  0  0  0  0  0  0  0  0  0  0  0
    1.2545   20.3931   41.4621 C   0  0  0  0  0  0  0  0  0  0  0  0
    2.3789   19.5321   37.5146 C   0  0  0  0  0  0  0  0  0  0  0  0
    1.5147   19.4386   36.4544 O   0  0  0  0  0  0  0  0  0  0  0  0
    3.6124   19.3434   37.2809 O   0  0  0  0  0  0  0  0  0  0  0  0
   -0.1132   19.9931   38.4184 H   0  0  0  0  0  0  0  0  0  0  0  0
    3.9956   19.7269   39.6057 H   0  0  0  0  0  0  0  0  0  0  0  0
    3.3063   20.2404   41.9480 H   0  0  0  0  0  0  0  0  0  0  0  0
    0.8983   20.6186   42.4574 H   0  0  0  0  0  0  0  0  0  0  0  0
  1  2  1  0
  1  6  2  0
  2  3  2  0
  3  4  1  0
  3  7  1  0
  4  5  2  0
  5  6  1  0
  7  8  1  0
  7  9  2  0
  2 10  1  0
  4 11  1  0
  5 12  1  0
  6 13  1  0
M  CHG  1   8  -1
M  END
>  <mol_id>  (32) 
2026-09-16-3war-s0-n100-0032

>  <rmsd_to_ref>  (32) 
1.877551020408251

>  <pose_kind>  (32) 
conformer

$$$$
3war.A
     RDKit          3D

 13 13  0  0  0  0  0  0  0  0999 V2000
    2.3414   18.3044   41.3539 N   0  0  0  0  0  0  0  0  0  0  0  0
    1.6521   18.0940   40.1355 C   0  0  0  0  0  0  0  0  0  0  0  0
    1.6029   19.1988   39.2100 C   0  0  0  0  0  0  0  0  0  0  0  0
    2.1851   20.4133   39.5262 C   0  0  0  0  0  0  0  0  0  0  0  0
    2.8689   20.5643   40.7126 C   0  0  0  0  0  0  0  0  0  0  0  0
    2.9086   19.5252   41.6151 C   0  0  0  0  0  0  0  0  0  0  0  0
    0.7983   19.0738   37.9248 C   0  0  0  0  0  0  0  0  0  0  0  0
    0.4035   17.9242   37.5712 O   0  0  0  0  0  0  0  0  0  0  0  0
    0.5973   20.1212   37.3487 O   0  0  0  0  0  0  0  0  0  0  0  0
    1.1749   17.1301   39.9048 H   0  0  0  0  0  0  0  0  0  0  0  0
    2.1020   21.2601   38.8289 H   0  0  0  0  0  0  0  0  0  0  0  0
    3.3811   21.5113   40.9381 H   0  0  0  0  0  0  0  0  0  0  0  0
    3.4135   19.6798   42.5800 H   0  0  0  0  0  0  0  0  0  0  0  0
  1  2  1  0
  1  6  2  0
  2  3  2  0
  3  4  1  0
  3  7  1  0
  4  5  2  0
  5  6  1  0
  7  8  1  0
  7  9  2  0
  2 10  1  0
  4 11  1  0
  5 12  1  0
  6 13  1  0
M  CHG  1   8  -1
M  END
>  <mol_id>  (33) 
2026-09-16-3war-s0-n100-0033

>  <rmsd_to_ref>  (33) 
1.92346938775521

>  <pose_kind>  (33) 
rigid

$$$$
3war.A
     RDKit          3D

 13 13  0  0  0  0  0  0  0  0999 V2000
    1.7887   18.3960   40.3011 N   0  0  0  0  0  0  0  0  0  0  0  0
    3.0811   18.4463   40.0054 C   0  0  0  0  0  0  0  0  0  0  0  0
    3.4742   19.2678   38.9629 C   0  0  0  0  0  0  0  0  0  0  0  0
    2.5313   19.9973   38.2735 C   0  0  0  0  0  0  0  0  0  0  0  0
    1.1939   19.9077   38.6239 C   0  0  0  0  0  0  0  0  0  0  0  0
    0.8197   19.0819   39.6679 C   0  0  0  0  0  0  0  0  0  0  0  0
    4.8621   19.3698   38.5887 C   0  0  0  0  0  0  0  0  0  0  0  0
    5.8878   18.6949   39.1986 O   0  0  0  0  0  0  0  0  0  0  0  0
    5.1613   20.1396   37.6245 O   0  0  0  0  0  0  0  0  0  0  0  0
    3.8217   17.8625   40.5598 H   0  0  0  0  0  0  0  0  0  0  0  0
    2.8344   20.6444   37.4535 H   0  0  0  0  0  0  0  0  0  0  0  0
    0.4348   20.4593   38.1109 H   0  0  0  0  0  0  0  0  0  0  0  0
   -0.2032   18.9624   39.9961 H   0  0  0  0  0  0  0  0  0  0  0  0
  1  2  1  0
  1  6  2  0
  2  3  2  0
  3  4  1  0
  3  7  1  0
  4  5  2  0
  5  6  1  0
  7  8  1  0
  7  9  2  0
  2 10  1  0
  4 11  1  0
  5 12  1  0
  6 13  1  0
M  CHG  1   8  -1
M  END
>  <mol_id>  (34) 
2026-09-16-3war-s0-n100-0034

>  <rmsd_to_ref>  (34) 
1.9693877551026358

>  <pose_kind>  (34) 
conformer

$$$$
3war.A
     RDKit          3D

 13 13  0  0  0  0  0  0  0  0999 V2000
    3.1292   20.8443   40.9680 N   0  0  0  0  0  0  0  0  0  0  0  0
    3.8522   20.3036   39.8776 C   0  0  0  0  0  0  0  0  0  0  0  0
    3.2235   20.3587   38.5811 C   0  0  0  0  0  0  0  0  0  0  0  0
    1.9569   20.8950   38.4310 C   0  0  0  0  0  0  0  0  0  0  0  0
    1.3014   21.4342   39.5161 C   0  0  0  0  0  0  0  0  0  0  0  0
    1.8801   21.3721   40.7639 C   0  0  0  0  0  0  0  0  0  0  0  0
    3.9017   19.7109   37.3832 C   0  0  0  0  0  0  0  0  0  0  0  0
    5.1146   19.3650   37.4925 O   0  0  0  0  0  0  0  0  0  0  0  0
    3.1911   19.5746   36.4107 O   0  0  0  0  0  0  0  0  0  0  0  0
    4.8500   19.8607   40.0135 H   0  0  0  0  0  0  0  0  0  0  0  0
    1.4725   20.8906   37.4435 H   0  0  0  0  0  0  0  0  0  0  0  0
    0.3194   21.9126   39.3861 H   0  0  0  0  0  0  0  0  0  0  0  0
    1.3205   21.7597   41.6280 H   0  0  0  0  0  0  0  0  0  0  0  0
  1  2  1  0
  1  6  2  0
  2  3  2  0
  3  4  1  0
  3  7  1  0
  4  5  2  0
  5  6  1  0
  7  8  1  0
  7  9  2  0
  2 10  1  0
  4 11  1  0
  5 12  1  0
  6 13  1  0
M  CHG  1   8  -1
M  END
>  <mol_id>  (35) 
2026-09-16-3war-s0-n100-0035

>  <rmsd_to_ref>  (35) 
2.015306122450609

>  <pose_kind>  (35) 
rigid

$$$$
3war.A
     RDKit          3D

 13 13  0  0  0  0  0  0  0  0999 V2000
    2.8661   17.2974   38.6210 N   0  0  0  0  0  0  0  0  0  0  0  0
    3.2633   18.3537   37.9232 C   0  0  0  0  0  0  0  0  0  0  0  0
    2.4152   19.4463   37.8653 C   0  0  0  0  0  0  0  0  0  0  0  0
    1.2048   19.4085   38.5210 C   0  0  0  0  0  0  0  0  0  0  0  0
    0.8389   18.2796   39.2359 C   0  0  0  0  0  0  0  0  0  0  0  0
    1.6988   17.1977   39.2827 C   0  0  0  0  0  0  0  0  0  0  0  0
    2.7840   20.6265   37.1252 C   0  0  0  0  0  0  0  0  0  0  0  0
    3.9583   20.7809   36.4346 O   0  0  0  0  0  0  0  0  0  0  0  0
    1.9649   21.5963   37.1087 O   0  0  0  0  0  0  0  0  0  0  0  0
    4.2270   18.3729   37.4061 H   0  0  0  0  0  0  0  0  0  0  0  0
    0.5345   20.2641   38.4790 H   0  0  0  0  0  0  0  0  0  0  0  0
   -0.0927   18.2151   39.7570 H   0  0  0  0  0  0  0  0  0  0  0  0
    1.4803   16.2854   39.8196 H   0  0  0  0  0  0  0  0  0  0  0  0
  1  2  1  0
  1  6  2  0
  2  3  2  0
  3  4  1  0
  3  7  1  0
  4  5  2  0
  5  6  1  0
  7  8  1  0
  7  9  2  0
  2 10  1  0
  4 11  1  0
  5 12  1  0
  6 13  1  0
M  CHG  1   8  -1
M  END
>  <mol_id>  (36) 
2026-09-16-3war-s0-n100-0036

>  <rmsd_to_ref>  (36) 
2.061224489797364

>  <pose_kind>  (36) 
conformer

$$$$
3war.A
     RDKit          3D

 13 13  0  0  0  0  0  0  0  0999 V2000
    1.1632   18.3647   38.2091 N   0  0  0  0  0  0  0  0  0  0  0  0
    1.7151   19.4703   37.5184 C   0  0  0  0  0  0  0  0  0  0  0  0
    2.4270   20.4469   38.3052 C   0  0  0  0  0  0  0  0  0  0  0  0
    2.5329   20.3090   39.6777 C   0  0  0  0  0  0  0  0  0  0  0  0
    2.0029   19.2025   40.3043 C   0  0  0  0  0  0  0  0  0  0  0  0
    1.3039   18.2709   39.5700 C   0  0  0  0  0  0  0  0  0  0  0  0
    2.9626   21.7074   37.6425 C   0  0  0  0  0  0  0  0  0  0  0  0
    3.0002   21.7532   36.3780 O   0  0  0  0  0  0  0  0  0  0  0  0
    3.3042   22.5790   38.4126 O   0  0  0  0  0  0  0  0  0  0  0  0
    1.6059   19.5796   36.4293 H   0  0  0  0  0  0  0  0  0  0  0  0
    3.0413   21.0842   40.2697 H   0  0  0  0  0  0  0  0  0  0  0  0
    2.1374   19.0639   41.3872 H   0  0  0  0  0  0  0  0  0  0  0  0
    0.8419   17.4210   40.0935 H   0  0  0  0  0  0  0  0  0  0  0  0
  1  2  1  0
  1  6  2  0
  2  3  2  0
  3  4  1  0
  3  7  1  0
  4  5  2  0
  5  6  1  0
  7  8  1  0
  7  9  2  0
  2 10  1  0
  4 11  1  0
  5 12  1  0
  6 13  1  0
M  CHG  1   8  -1
M  END
>  <mol_id>  (37) 
2026-09-16-3war-s0-n100-0037

>  <rmsd_to_ref>  (37) 
2.107142857146948

>  <pose_kind>  (37) 
rigid

$$$$
3war.A
     RDKit          3D

 13 13  0  0  0  0  0  0  0  0999 V2000
    0.5798   17.6805   38.0315 N   0  0  0  0  0  0  0  0  0  0  0  0
    1.3306   18.4586   37.2626 C   0  0  0  0  0  0  0  0  0  0  0  0
    2.3296   19.1985   37.8714 C   0  0  0  0  0  0  0  0  0  0  0  0
    2.5142   19.1090   39.2333 C   0  0  0  0  0  0  0  0  0  0  0  0
    1.7014   18.2803   39.9896 C   0  0  0  0  0  0  0  0  0  0  0  0
    0.7086   17.5487   39.3642 C   0  0  0  0  0  0  0  0  0  0  0  0
    3.1818   20.0640   37.0959 C   0  0  0  0  0  0  0  0  0  0  0  0
    3.0943   20.2354   35.7385 O   0  0  0  0  0  0  0  0  0  0  0  0
    4.0803   20.7174   37.7104 O   0  0  0  0  0  0  0  0  0  0  0  0
    1.1753   18.5221   36.1816 H   0  0  0  0  0  0  0  0  0  0  0  0
    3.2976   19.6880   39.7170 H   0  0  0  0  0  0  0  0  0  0  0  0
    1.8158   18.1861   41.0486 H   0  0  0  0  0  0  0  0  0  0  0  0
    0.0382   16.8831   39.8895 H   0  0  0  0  0  0  0  0  0  0  0  0
  1  2  1  0
  1  6  2  0
  2  3  2  0
  3  4  1  0
  3  7  1  0
  4  5  2  0
  5  6  1  0
  7  8  1  0
  7  9  2  0
  2 10  1  0
  4 11  1  0
  5 12  1  0
  6 13  1  0
M  CHG  1   8  -1
M  END
>  <mol_id>  (38) 
2026-09-16-3war-s0-n100-0038

>  <rmsd_to_ref>  (38) 
2.1530612244903167

>  <pose_kind>  (38) 
conformer

$$$$
3war.A
     RDKit          3D

 13 13  0  0  0  0  0  0  0  0999 V2000
    1.5271   16.8497   39.2603 N   0  0  0  0  0  0  0  0  0  0  0  0
    1.1769   17.6361   38.1365 C   0  0  0  0  0  0  0  0  0  0  0  0
    1.6860   18.9845   38.0944 C   0  0  0  0  0  0  0  0  0  0  0  0
    2.4587   19.4818   39.1287 C   0  0  0  0  0  0  0  0  0  0  0  0
    2.7970   18.6716   40.1904 C   0  0  0  0  0  0  0  0  0  0  0  0
    2.3031   17.3879   40.2545 C   0  0  0  0  0  0  0  0  0  0  0  0
    1.2709   19.9151   36.9646 C   0  0  0  0  0  0  0  0  0  0  0  0
    0.6989   19.4148   35.9522 O   0  0  0  0  0  0  0  0  0  0  0  0
    1.5269   21.0850   37.1516 O   0  0  0  0  0  0  0  0  0  0  0  0
    0.5441   17.2359   37.3306 H   0  0  0  0  0  0  0  0  0  0  0  0
    2.8037   20.5260   39.1034 H   0  0  0  0  0  0  0  0  0  0  0  0
    3.4591   19.0487   40.9837 H   0  0  0  0  0  0  0  0  0  0  0  0
    2.5395   16.7721   41.1348 H   0  0  0  0  0  0  0  0  0  0  0  0
  1  2  1  0
  1  6  2  0
  2  3  2  0
  3  4  1  0
  3  7  1  0
  4  5  2  0
  5  6  1  0
  7  8  1  0
  7  9  2  0
  2 10  1  0
  4 11  1  0
  5 12  1  0
  6 13  1  0
M  CHG  1   8  -1
M  END
>  <mol_id>  (39) 
2026-09-16-3war-s0-n100-0039

>  <rmsd_to_ref>  (39) 
2.1989795918382398

>  <pose_kind>  (39) 
rigid

$$$$
3war.A
     RDKit          3D

 13 13  0  0  0  0  0  0  0  0999 V2000
    1.6597   22.1086   40.0513 N   0  0  0  0  0  0  0  0  0  0  0  0
    2.4673   21.0561   40.0398 C   0  0  0  0  0  0  0  0  0  0  0  0
    2.4131   20.2116   38.9442 C   0  0  0  0  0  0  0  0  0  0  0  0
    1.5388   20.4813   37.9149 C   0  0  0  0  0  0  0  0  0  0  0  0
    0.7170   21.5950   37.9778 C   0  0  0  0  0  0  0  0  0  0  0  0
    0.7850   22.4273   39.0799 C   0  0  0  0  0  0  0  0  0  0  0  0
    3.2625   19.0501   38.8667 C   0  0  0  0  0  0  0  0  0  0  0  0
    4.1695   18.6796   39.8257 O   0  0  0  0  0  0  0  0  0  0  0  0
    3.1674   18.3135   37.8372 O   0  0  0  0  0  0  0  0  0  0  0  0
    3.1581   20.8513   40.8629 H   0  0  0  0  0  0  0  0  0  0  0  0
    1.4918   19.8214   37.0517 H   0  0  0  0  0  0  0  0  0  0  0  0
    0.0264   21.8354   37.1975 H   0  0  0  0  0  0  0  0  0  0  0  0
    0.1754   23.3122   39.1971 H   0  0  0  0  0  0  0  0  0  0  0  0
  1  2  1  0
  1  6  2  0
  2  3  2  0
  3  4  1  0
  3  7  1  0
  4  5  2  0
  5  6  1  0
  7  8  1  0
  7  9  2  0
  2 10  1  0
  4 11  1  0
  5 12  1  0
  6 13  1  0
M  CHG  1   8  -1
M  END
>  <mol_id>  (40) 
2026-09-16-3war-s0-n100-0040

>  <rmsd_to_ref>  (40) 
2.24489795918765

>  <pose_kind>  (40) 
conformer

$$$$
3war.A
     RDKit          3D

 13 13  0  0  0  0  0  0  0  0999 V2000
    2.6945   17.5646   38.1158 N   0  0  0  0  0  0  0  0  0  0  0  0
    3.2776   18.6688   37.4490 C   0  0  0  0  0  0  0  0  0  0  0  0
    3.5432   19.8464   38.2378 C   0  0  0  0  0  0  0  0  0  0  0  0
    3.2111   19.8887   39.5802 C   0  0  0  0  0  0  0  0  0  0  0  0
    2.6696   18.7804   40.1937 C   0  0  0  0  0  0  0  0  0  0  0  0
    2.3923   17.6551   39.4503 C   0  0  0  0  0  0  0  0  0  0  0  0
    4.0796   21.1017   37.5662 C   0  0  0  0  0  0  0  0  0  0  0  0
    4.5235   21.0092   36.3842 O   0  0  0  0  0  0  0  0  0  0  0  0
    4.0201   22.1045   38.2446 O   0  0  0  0  0  0  0  0  0  0  0  0
    3.5176   18.6303   36.3762 H   0  0  0  0  0  0  0  0  0  0  0  0
    3.3797   20.8089   40.1587 H   0  0  0  0  0  0  0  0  0  0  0  0
    2.4595   18.7944   41.2734 H   0  0  0  0  0  0  0  0  0  0  0  0
    1.9113   16.7982   39.9445 H   0  0  0  0  0  0  0  0  0  0  0  0
  1  2  1  0
  1  6  2  0
  2  3  2  0
  3  4  1  0
  3  7  1  0
  4  5  2  0
  5  6  1  0
  7  8  1  0
  7  9  2  0
  2 10  1  0
  4 11  1  0
  5 12  1  0
  6 13  1  0
M  CHG  1   8  -1
M  END
>  <mol_id>  (41) 
2026-09-16-3war-s0-n100-0041

>  <rmsd_to_ref>  (41) 
2.290816326533832

>  <pose_kind>  (41) 
rigid

$$$$
3war.A
     RDKit          3D

 13 13  0  0  0  0  0  0  0  0999 V2000
    3.7382   19.4479   39.8402 N   0  0  0  0  0  0  0  0  0  0  0  0
    2.8791   19.5027   38.8306 C   0  0  0  0  0  0  0  0  0  0  0  0
    2.9364   20.6026   37.9920 C   0  0  0  0  0  0  0  0  0  0  0  0
    3.8660   21.5920   38.2235 C   0  0  0  0  0  0  0  0  0  0  0  0
    4.7402   21.4848   39.2931 C   0  0  0  0  0  0  0  0  0  0  0  0
    4.6683   20.3790   40.1201 C   0  0  0  0  0  0  0  0  0  0  0  0
    2.0329   20.7260   36.8762 C   0  0  0  0  0  0  0  0  0  0  0  0
    1.0685   19.8090   36.5462 O   0  0  0  0  0  0  0  0  0  0  0  0
    2.1336   21.7572   36.1427 O   0  0  0  0  0  0  0  0  0  0  0  0
    2.1447   18.7111   38.6559 H   0  0  0  0  0  0  0  0  0  0  0  0
    3.9157   22.4584   37.5679 H   0  0  0  0  0  0  0  0  0  0  0  0
    5.4744   22.2333   39.5029 H   0  0  0  0  0  0  0  0  0  0  0  0
    5.3167   20.2285   40.9718 H   0  0  0  0  0  0  0  0  0  0  0  0
  1  2  1  0
  1  6  2  0
  2  3  2  0
  3  4  1  0
  3  7  1  0
  4  5  2  0
  5  6  1  0
  7  8  1  0
  7  9  2  0
  2 10  1  0
  4 11  1  0
  5 12  1  0
  6 13  1  0
M  CHG  1   8  -1
M  END
>  <mol_id>  (42) 
2026-09-16-3war-s0-n100-0042

>  <rmsd_to_ref>  (42) 
2.3367346938793627

>  <pose_kind>  (42) 
conformer

$$$$
3war.A
     RDKit          3D

 13 13  0  0  0  0  0  0  0  0999 V2000
    2.3916   18.2816   40.2290 N   0  0  0  0  0  0  0  0  0  0  0  0
    2.7668   19.2700   39.2875 C   0  0  0  0  0  0  0  0  0  0  0  0
    1.8841   19.4774   38.1663 C   0  0  0  0  0  0  0  0  0  0  0  0
    0.7385   18.7159   38.0173 C   0  0  0  0  0  0  0  0  0  0  0  0
    0.3990   17.7834   38.9727 C   0  0  0  0  0  0  0  0  0  0  0  0
    1.2411   17.5602   40.0391 C   0  0  0  0  0  0  0  0  0  0  0  0
    2.2732   20.4552   37.0675 C   0  0  0  0  0  0  0  0  0  0  0  0
    3.2320   21.2531   37.2838 O   0  0  0  0  0  0  0  0  0  0  0  0
    1.6139   20.3678   36.0542 O   0  0  0  0  0  0  0  0  0  0  0  0
    3.6913   19.8544   39.4060 H   0  0  0  0  0  0  0  0  0  0  0  0
    0.0976   18.8555   37.1343 H   0  0  0  0  0  0  0  0  0  0  0  0
   -0.5411   17.2192   38.8841 H   0  0  0  0  0  0  0  0  0  0  0  0
    0.9816   16.7752   40.7645 H   0  0  0  0  0  0  0  0  0  0  0  0
  1  2  1  0
  1  6  2  0
  2  3  2  0
  3  4  1  0
  3  7  1  0
  4  5  2  0
  5  6  1  0
  7  8  1  0
  7  9  2  0
  2 10  1  0
  4 11  1  0
  5 12  1  0
  6 13  1  0
M  CHG  1   8  -1
M  END
>  <mol_id>  (43) 
2026-09-16-3war-s0-n100-0043

>  <rmsd_to_ref>  (43) 
2.382653061225204

>  <pose_kind>  (43) 
rigid

$$$$
3war.A
     RDKit          3D

 13 13  0  0  0  0  0  0  0  0999 V2000
    2.4211   19.5888   39.1336 N   0  0  0  0  0  0  0  0  0  0  0  0
    2.2690   20.0014   37.8819 C   0  0  0  0  0  0  0  0  0  0  0  0
    1.5006   19.2229   37.0335 C   0  0  0  0  0  0  0  0  0  0  0  0
    0.9253   18.0628   37.5024 C   0  0  0  0  0  0  0  0  0  0  0  0
    1.1164   17.6780   38.8196 C   0  0  0  0  0  0  0  0  0  0  0  0
    1.8870   18.4681   39.6525 C   0  0  0  0  0  0  0  0  0  0  0  0
    1.2943   19.6121   35.6614 C   0  0  0  0  0  0  0  0  0  0  0  0
    1.8138   20.7411   35.0825 O   0  0  0  0  0  0  0  0  0  0  0  0
    0.5801   18.8575   34.9319 O   0  0  0  0  0  0  0  0  0  0  0  0
    2.7306   20.9248   37.5199 H   0  0  0  0  0  0  0  0  0  0  0  0
    0.3207   17.4472   36.8404 H   0  0  0  0  0  0  0  0  0  0  0  0
    0.6852   16.7841   39.2178 H   0  0  0  0  0  0  0  0  0  0  0  0
    2.0788   18.2310   40.6895 H   0  0  0  0  0  0  0  0  0  0  0  0
  1  2  1  0
  1  6  2  0
  2  3  2  0
  3  4  1  0
  3  7  1  0
  4  5  2  0
  5  6  1  0
  7  8  1  0
  7  9  2  0
  2 10  1  0
  4 11  1  0
  5 12  1  0
  6 13  1  0
M  CHG  1   8  -1
M  END
>  <mol_id>  (44) 
2026-09-16-3war-s0-n100-0044

>  <rmsd_to_ref>  (44) 
2.4285714285716637

>  <pose_kind>  (44) 
conformer

$$$$
3war.A
     RDKit          3D

 13 13  0  0  0  0  0  0  0  0999 V2000
    3.7792   18.7317   39.0272 N   0  0  0  0  0  0  0  0  0  0  0  0
    2.9059   18.1081   38.1039 C   0  0  0  0  0  0  0  0  0  0  0  0
    1.6025   18.7001   37.9304 C   0  0  0  0  0  0  0  0  0  0  0  0
    1.2274   19.8126   38.6624 C   0  0  0  0  0  0  0  0  0  0  0  0
    2.1201   20.4023   39.5303 C   0  0  0  0  0  0  0  0  0  0  0  0
    3.3614   19.8380   39.7213 C   0  0  0  0  0  0  0  0  0  0  0  0
    0.5801   18.0272   37.0267 C   0  0  0  0  0  0  0  0  0  0  0  0
    0.9756   17.1102   36.2487 O   0  0  0  0  0  0  0  0  0  0  0  0
   -0.5533   18.4394   37.1485 O   0  0  0  0  0  0  0  0  0  0  0  0
    3.2082   17.2112   37.5434 H   0  0  0  0  0  0  0  0  0  0  0  0
    0.2145   20.2270   38.5512 H   0  0  0  0  0  0  0  0  0  0  0  0
    1.8422   21.3204   40.0687 H   0  0  0  0  0  0  0  0  0  0  0  0
    4.0423   20.2908   40.4571 H   0  0  0  0  0  0  0  0  0  0  0  0
  1  2  1  0
  1  6  2  0
  2  3  2  0
  3  4  1  0
  3  7  1  0
  4  5  2  0
  5  6  1  0
  7  8  1  0
  7  9  2  0
  2 10  1  0
  4 11  1  0
  5 12  1  0
  6 13  1  0
M  CHG  1   8  -1
M  END
>  <mol_id>  (45) 
2026-09-16-3war-s0-n100-0045

>  <rmsd_to_ref>  (45) 
2.4744897959189753

>  <pose_kind>  (45) 
rigid

$$$$
3war.A
     RDKit          3D

 13 13  0  0  0  0  0  0  0  0999 V2000
    1.6934   21.8178   39.5484 N   0  0  0  0  0  0  0  0  0  0  0  0
    2.1701   20.6560   39.1205 C   0  0  0  0  0  0  0  0  0  0  0  0
    3.5293   20.4275   39.2505 C   0  0  0  0  0  0  0  0  0  0  0  0
    4.3351   21.3940   39.8101 C   0  0  0  0  0  0  0  0  0  0  0  0
    3.7852   22.5904   40.2408 C   0  0  0  0  0  0  0  0  0  0  0  0
    2.4256   22.8010   40.1030 C   0  0  0  0  0  0  0  0  0  0  0  0
    4.1136   19.1874   38.8063 C   0  0  0  0  0  0  0  0  0  0  0  0
    3.4154   18.1544   38.2359 O   0  0  0  0  0  0  0  0  0  0  0  0
    5.3656   19.0359   38.9519 O   0  0  0  0  0  0  0  0  0  0  0  0
    1.5209   19.8952   38.6775 H   0  0  0  0  0  0  0  0  0  0  0  0
    5.4037   21.2200   39.9147 H   0  0  0  0  0  0  0  0  0  0  0  0
    4.3803   23.3629   40.6798 H   0  0  0  0  0  0  0  0  0  0  0  0
    1.9282   23.7082   40.4160 H   0  0  0  0  0  0  0  0  0  0  0  0
  1  2  1  0
  1  6  2  0
  2  3  2  0
  3  4  1  0
  3  7  1  0
  4  5  2  0
  5  6  1  0
  7  8  1  0
  7  9  2  0
  2 10  1  0
  4 11  1  0
  5 12  1  0
  6 13  1  0
M  CHG  1   8  -1
M  END
>  <mol_id>  (46) 
2026-09-16-3war-s0-n100-0046

>  <rmsd_to_ref>  (46) 
2.520408163267438

>  <pose_kind>  (46) 
conformer

$$$$
3war.A
     RDKit          3D

 13 13  0  0  0  0  0  0  0  0999 V2000
    1.5737   19.4320   39.0895 N   0  0  0  0  0  0  0  0  0  0  0  0
    1.5539   18.4910   38.0321 C   0  0  0  0  0  0  0  0  0  0  0  0
    2.8236   18.1274   37.4532 C   0  0  0  0  0  0  0  0  0  0  0  0
    3.9979   18.7031   37.9043 C   0  0  0  0  0  0  0  0  0  0  0  0
    3.9720   19.5946   38.9542 C   0  0  0  0  0  0  0  0  0  0  0  0
    2.7662   19.9665   39.5051 C   0  0  0  0  0  0  0  0  0  0  0  0
    2.8678   17.1955   36.2514 C   0  0  0  0  0  0  0  0  0  0  0  0
    1.8183   16.5569   35.9458 O   0  0  0  0  0  0  0  0  0  0  0  0
    3.9346   17.1593   35.6770 O   0  0  0  0  0  0  0  0  0  0  0  0
    0.6113   18.0563   37.6680 H   0  0  0  0  0  0  0  0  0  0  0  0
    4.9541   18.4484   37.4238 H   0  0  0  0  0  0  0  0  0  0  0  0
    4.9111   20.0080   39.3509 H   0  0  0  0  0  0  0  0  0  0  0  0
    2.7592   20.7193   40.3071 H   0  0  0  0  0  0  0  0  0  0  0  0
  1  2  1  0
  1  6  2  0
  2  3  2  0
  3  4  1  0
  3  7  1  0
  4  5  2  0
  5  6  1  0
  7  8  1  0
  7  9  2  0
  2 10  1  0
  4 11  1  0
  5 12  1  0
  6 13  1  0
M  CHG  1   8  -1
M  END
>  <mol_id>  (47) 
2026-09-16-3war-s0-n100-0047

>  <rmsd_to_ref>  (47) 
2.566326530612927

>  <pose_kind>  (47) 
rigid

$$$$
3war.A
     RDKit          3D

 13 13  0  0  0  0  0  0  0  0999 V2000
    2.5598   19.6617   41.3127 N   0  0  0  0  0  0  0  0  0  0  0  0
    1.4459   19.4471   40.6247 C   0  0  0  0  0  0  0  0  0  0  0  0
    1.2345   20.2028   39.4844 C   0  0  0  0  0  0  0  0  0  0  0  0
    2.1685   21.1397   39.1015 C   0  0  0  0  0  0  0  0  0  0  0  0
    3.3154   21.3237   39.8569 C   0  0  0  0  0  0  0  0  0  0  0  0
    3.5096   20.5597   40.9928 C   0  0  0  0  0  0  0  0  0  0  0  0
    0.0460   20.0212   38.6902 C   0  0  0  0  0  0  0  0  0  0  0  0
   -0.9512   19.1229   38.9697 O   0  0  0  0  0  0  0  0  0  0  0  0
   -0.0920   20.7437   37.6554 O   0  0  0  0  0  0  0  0  0  0  0  0
    0.7106   18.7001   40.9379 H   0  0  0  0  0  0  0  0  0  0  0  0
    2.0078   21.7364   38.2065 H   0  0  0  0  0  0  0  0  0  0  0  0
    4.0616   22.0415   39.5899 H   0  0  0  0  0  0  0  0  0  0  0  0
    4.3786   20.6483   41.6295 H   0  0  0  0  0  0  0  0  0  0  0  0
  1  2  1  0
  1  6  2  0
  2  3  2  0
  3  4  1  0
  3  7  1  0
  4  5  2  0
  5  6  1  0
  7  8  1  0
  7  9  2  0
  2 10  1  0
  4 11  1  0
  5 12  1  0
  6 13  1  0
M  CHG  1   8  -1
M  END
>  <mol_id>  (48) 
2026-09-16-3war-s0-n100-0048

>  <rmsd_to_ref>  (48) 
2.6122448979607773

>  <pose_kind>  (48) 
conformer

$$$$
3war.A
     RDKit          3D

 13 13  0  0  0  0  0  0  0  0999 V2000
    3.6060   19.7541   41.1760 N   0  0  0  0  0  0  0  0  0  0  0  0
    3.2150   18.4779   40.7045 C   0  0  0  0  0  0  0  0  0  0  0  0
    2.5463   18.4263   39.4280 C   0  0  0  0  0  0  0  0  0  0  0  0
    2.2813   19.5854   38.7205 C   0  0  0  0  0  0  0  0  0  0  0  0
    2.7043   20.8035   39.2056 C   0  0  0  0  0  0  0  0  0  0  0  0
    3.3270   20.8715   40.4317 C   0  0  0  0  0  0  0  0  0  0  0  0
    2.0138   17.1002   38.9058 C   0  0  0  0  0  0  0  0  0  0  0  0
    2.3918   16.0341   39.4743 O   0  0  0  0  0  0  0  0  0  0  0  0
    1.2466   17.1943   37.9721 O   0  0  0  0  0  0  0  0  0  0  0  0
    3.4125   17.5655   41.2864 H   0  0  0  0  0  0  0  0  0  0  0  0
    1.7319   19.5343   37.7689 H   0  0  0  0  0  0  0  0  0  0  0  0
    2.5451   21.7181   38.6157 H   0  0  0  0  0  0  0  0  0  0  0  0
    3.6109   21.8574   40.8284 H   0  0  0  0  0  0  0  0  0  0  0  0
  1  2  1  0
  1  6  2  0
  2  3  2  0
  3  4  1  0
  3  7  1  0
  4  5  2  0
  5  6  1  0
  7  8  1  0
  7  9  2  0
  2 10  1  0
  4 11  1  0
  5 12  1  0
  6 13  1  0
M  CHG  1   8  -1
M  END
>  <mol_id>  (49) 
2026-09-16-3war-s0-n100-0049

>  <rmsd_to_ref>  (49) 
2.658163265309956

>  <pose_kind>  (49) 
rigid

$$$$
3war.A
     RDKit          3D

 13 13  0  0  0  0  0  0  0  0999 V2000
    3.2474   19.7837   39.6672 N   0  0  0  0  0  0  0  0  0  0  0  0
    3.0671   19.8765   38.3560 C   0  0  0  0  0  0  0  0  0  0  0  0
    4.1469   19.6033   37.5340 C   0  0  0  0  0  0  0  0  0  0  0  0
    5.3567   19.2490   38.0886 C   0  0  0  0  0  0  0  0  0  0  0  0
    5.4904   19.1670   39.4652 C   0  0  0  0  0  0  0  0  0  0  0  0
    4.4009   19.4435   40.2705 C   0  0  0  0  0  0  0  0  0  0  0  0
    4.0209   19.6850   36.1008 C   0  0  0  0  0  0  0  0  0  0  0  0
    2.8718   20.0260   35.4354 O   0  0  0  0  0  0  0  0  0  0  0  0
    5.0461   19.4231   35.3994 O   0  0  0  0  0  0  0  0  0  0  0  0
    2.1016   20.1588   37.9261 H   0  0  0  0  0  0  0  0  0  0  0  0
    6.2086   19.0332   37.4477 H   0  0  0  0  0  0  0  0  0  0  0  0
    6.4141   18.8952   39.9303 H   0  0  0  0  0  0  0  0  0  0  0  0
    4.4314   19.3998   41.3501 H   0  0  0  0  0  0  0  0  0  0  0  0
  1  2  1  0
  1  6  2  0
  2  3  2  0
  3  4  1  0
  3  7  1  0
  4  5  2  0
  5  6  1  0
  7  8  1  0
  7  9  2  0
  2 10  1  0
  4 11  1  0
  5 12  1  0
  6 13  1  0
M  CHG  1   8  -1
M  END
>  <mol_id>  (50) 
2026-09-16-3war-s0-n100-0050

>  <rmsd_to_ref>  (50) 
2.7040816326550288

>  <pose_kind>  (50) 
conformer

$$$$
3war.A
     RDKit          3D

 13 13  0  0  0  0  0  0  0  0999 V2000
    1.5664   20.8478   41.7587 N   0  0  0  0  0  0  0  0  0  0  0  0
    2.5939   20.0108   41.2608 C   0  0  0  0  0  0  0  0  0  0  0  0
    2.2137   19.0067   40.2982 C   0  0  0  0  0  0  0  0  0  0  0  0
    0.8938   18.8625   39.9097 C   0  0  0  0  0  0  0  0  0  0  0  0
   -0.0687   19.7174   40.4004 C   0  0  0  0  0  0  0  0  0  0  0  0
    0.2748   20.6688   41.3345 C   0  0  0  0  0  0  0  0  0  0  0  0
    3.2485   18.0118   39.7941 C   0  0  0  0  0  0  0  0  0  0  0  0
    4.4707   18.2434   40.0292 O   0  0  0  0  0  0  0  0  0  0  0  0
    2.7891   17.0571   39.2052 O   0  0  0  0  0  0  0  0  0  0  0  0
    3.6364   20.1216   41.5936 H   0  0  0  0  0  0  0  0  0  0  0  0
    0.6122   18.0639   39.2076 H   0  0  0  0  0  0  0  0  0  0  0  0
   -1.1077   19.6401   40.0474 H   0  0  0  0  0  0  0  0  0  0  0  0
   -0.5151   21.3082   41.7555 H   0  0  0  0  0  0  0  0  0  0  0  0
  1  2  1  0
  1  6  2  0
  2  3  2  0
  3  4  1  0
  3  7  1  0
  4  5  2  0
  5  6  1  0
  7  8  1  0
  7  9  2  0
  2 10  1  0
  4 11  1  0
  5 12  1  0
  6 13  1  0
M  CHG  1   8  -1
M  END
>  <mol_id>  (51) 
2026-09-16-3war-s0-n100-0051

>  <rmsd_to_ref>  (51) 
2.750000000002198

>  <pose_kind>  (51) 
rigid

$$$$
3war.A
     RDKit          3D

 13 13  0  0  0  0  0  0  0  0999 V2000
    2.9581   19.8068   39.5136 N   0  0  0  0  0  0  0  0  0  0  0  0
    2.6747   18.6182   38.9968 C   0  0  0  0  0  0  0  0  0  0  0  0
    1.7076   18.5570   38.0081 C   0  0  0  0  0  0  0  0  0  0  0  0
    1.0775   19.7099   37.5951 C   0  0  0  0  0  0  0  0  0  0  0  0
    1.4118   20.9259   38.1687 C   0  0  0  0  0  0  0  0  0  0  0  0
    2.3801   20.9677   39.1549 C   0  0  0  0  0  0  0  0  0  0  0  0
    1.3509   17.2985   37.4036 C   0  0  0  0  0  0  0  0  0  0  0  0
    1.9069   16.0888   37.7306 O   0  0  0  0  0  0  0  0  0  0  0  0
    0.4571   17.3060   36.5020 O   0  0  0  0  0  0  0  0  0  0  0  0
    3.1814   17.7087   39.3324 H   0  0  0  0  0  0  0  0  0  0  0  0
    0.3170   19.6679   36.8186 H   0  0  0  0  0  0  0  0  0  0  0  0
    0.9435   21.8406   37.8729 H   0  0  0  0  0  0  0  0  0  0  0  0
    2.6915   21.8787   39.6462 H   0  0  0  0  0  0  0  0  0  0  0  0
  1  2  1  0
  1  6  2  0
  2  3  2  0
  3  4  1  0
  3  7  1  0
  4  5  2  0
  5  6  1  0
  7  8  1  0
  7  9  2  0
  2 10  1  0
  4 11  1  0
  5 12  1  0
  6 13  1  0
M  CHG  1   8  -1
M  END
>  <mol_id>  (52) 
2026-09-16-3war-s0-n100-0052

>  <rmsd_to_ref>  (52) 
2.7959183673490173

>  <pose_kind>  (52) 
conformer

$$$$
3war.A
     RDKit          3D

 13 13  0  0  0  0  0  0  0  0999 V2000
   -0.5525   18.5859   40.1449 N   0  0  0  0  0  0  0  0  0  0  0  0
   -0.1151   19.7230   39.4239 C   0  0  0  0  0  0  0  0  0  0  0  0
    1.1171   20.3377   39.8521 C   0  0  0  0  0  0  0  0  0  0  0  0
    1.8148   19.8422   40.9391 C   0  0  0  0  0  0  0  0  0  0  0  0
    1.3654   18.7168   41.5945 C   0  0  0  0  0  0  0  0  0  0  0  0
    0.1809   18.1296   41.2099 C   0  0  0  0  0  0  0  0  0  0  0  0
    1.5958   21.6181   39.1841 C   0  0  0  0  0  0  0  0  0  0  0  0
    1.0445   21.9748   38.1017 O   0  0  0  0  0  0  0  0  0  0  0  0
    2.4808   22.1981   39.7754 O   0  0  0  0  0  0  0  0  0  0  0  0
   -0.6900   20.1203   38.5744 H   0  0  0  0  0  0  0  0  0  0  0  0
    2.7301   20.3477   41.2808 H   0  0  0  0  0  0  0  0  0  0  0  0
    1.9507   18.2889   42.4217 H   0  0  0  0  0  0  0  0  0  0  0  0
   -0.1905   17.2635   41.7774 H   0  0  0  0  0  0  0  0  0  0  0  0
  1  2  1  0
  1  6  2  0
  2  3  2  0
  3  4  1  0
  3  7  1  0
  4  5  2  0
  5  6  1  0
  7  8  1  0
  7  9  2  0
  2 10  1  0
  4 11  1  0
  5 12  1  0
  6 13  1  0
M  CHG  1   8  -1
M  END
>  <mol_id>  (53) 
2026-09-16-3war-s0-n100-0053

>  <rmsd_to_ref>  (53) 
2.841836734694491

>  <pose_kind>  (53) 
rigid

$$$$
3war.A
     RDKit          3D

 13 13  0  0  0  0  0  0  0  0999 V2000
    1.4946   18.2261   36.5747 N   0  0  0  0  0  0  0  0  0  0  0  0
    2.5336   18.9975   36.8676 C   0  0  0  0  0  0  0  0  0  0  0  0
    2.2848   20.2065   37.4943 C   0  0  0  0  0  0  0  0  0  0  0  0
    0.9900   20.5695   37.7915 C   0  0  0  0  0  0  0  0  0  0  0  0
   -0.0588   19.7258   37.4633 C   0  0  0  0  0  0  0  0  0  0  0  0
    0.2087   18.5222   36.8376 C   0  0  0  0  0  0  0  0  0  0  0  0
    3.3668   21.0928   37.8409 C   0  0  0  0  0  0  0  0  0  0  0  0
    4.6922   20.8412   37.5967 O   0  0  0  0  0  0  0  0  0  0  0  0
    3.0762   22.1876   38.4142 O   0  0  0  0  0  0  0  0  0  0  0  0
    3.5582   18.6992   36.6270 H   0  0  0  0  0  0  0  0  0  0  0  0
    0.7886   21.5182   38.2839 H   0  0  0  0  0  0  0  0  0  0  0  0
   -1.0762   19.9750   37.6788 H   0  0  0  0  0  0  0  0  0  0  0  0
   -0.5577   17.8153   36.5526 H   0  0  0  0  0  0  0  0  0  0  0  0
  1  2  1  0
  1  6  2  0
  2  3  2  0
  3  4  1  0
  3  7  1  0
  4  5  2  0
  5  6  1  0
  7  8  1  0
  7  9  2  0
  2 10  1  0
  4 11  1  0
  5 12  1  0
  6 13  1  0
M  CHG  1   8  -1
M  END
>  <mol_id>  (54) 
2026-09-16-3war-s0-n100-0054

>  <rmsd_to_ref>  (54) 
2.887755102042912

>  <pose_kind>  (54) 
conformer

$$$$
3war.A
     RDKit          3D

 13 13  0  0  0  0  0  0  0  0999 V2000
    3.6854   18.0811   38.2158 N   0  0  0  0  0  0  0  0  0  0  0  0
    3.8254   19.3815   37.6742 C   0  0  0  0  0  0  0  0  0  0  0  0
    2.7126   20.2839   37.8374 C   0  0  0  0  0  0  0  0  0  0  0  0
    1.5551   19.8722   38.4737 C   0  0  0  0  0  0  0  0  0  0  0  0
    1.4735   18.6055   39.0090 C   0  0  0  0  0  0  0  0  0  0  0  0
    2.5199   17.7258   38.8449 C   0  0  0  0  0  0  0  0  0  0  0  0
    2.7572   21.6635   37.1975 C   0  0  0  0  0  0  0  0  0  0  0  0
    3.8657   22.0870   36.7568 O   0  0  0  0  0  0  0  0  0  0  0  0
    1.6915   22.2400   37.1608 O   0  0  0  0  0  0  0  0  0  0  0  0
    4.7429   19.6901   37.1518 H   0  0  0  0  0  0  0  0  0  0  0  0
    0.6984   20.5578   38.5523 H   0  0  0  0  0  0  0  0  0  0  0  0
    0.5758   18.2980   39.5654 H   0  0  0  0  0  0  0  0  0  0  0  0
    2.4173   16.7014   39.2324 H   0  0  0  0  0  0  0  0  0  0  0  0
  1  2  1  0
  1  6  2  0
  2  3  2  0
  3  4  1  0
  3  7  1  0
  4  5  2  0
  5  6  1  0
  7  8  1  0
  7  9  2  0
  2 10  1  0
  4 11  1  0
  5 12  1  0
  6 13  1  0
M  CHG  1   8  -1
M  END
>  <mol_id>  (55) 
2026-09-16-3war-s0-n100-0055

>  <rmsd_to_ref>  (55) 
2.9336734693906013

>  <pose_kind>  (55) 
rigid

$$$$
3war.A
     RDKit          3D

 13 13  0  0  0  0  0  0  0  0999 V2000
    0.6405   21.0226   38.5687 N   0  0  0  0  0  0  0  0  0  0  0  0
    1.7036   20.2914   38.8779 C   0  0  0  0  0  0  0  0  0  0  0  0
    2.7580   20.9216   39.5163 C   0  0  0  0  0  0  0  0  0  0  0  0
    2.6772   22.2650   39.8078 C   0  0  0  0  0  0  0  0  0  0  0  0
    1.5431   22.9819   39.4624 C   0  0  0  0  0  0  0  0  0  0  0  0
    0.4997   22.3360   38.8253 C   0  0  0  0  0  0  0  0  0  0  0  0
    3.9432   20.1871   39.8807 C   0  0  0  0  0  0  0  0  0  0  0  0
    4.1386   18.8510   39.6436 O   0  0  0  0  0  0  0  0  0  0  0  0
    4.8768   20.8195   40.4640 O   0  0  0  0  0  0  0  0  0  0  0  0
    1.7572   19.2248   38.6416 H   0  0  0  0  0  0  0  0  0  0  0  0
    3.5026   22.7653   40.3092 H   0  0  0  0  0  0  0  0  0  0  0  0
    1.4457   24.0258   39.6730 H   0  0  0  0  0  0  0  0  0  0  0  0
   -0.4140   22.8304   38.5267 H   0  0  0  0  0  0  0  0  0  0  0  0
  1  2  1  0
  1  6  2  0
  2  3  2  0
  3  4  1  0
  3  7  1  0
  4  5  2  0
  5  6  1  0
  7  8  1  0
  7  9  2  0
  2 10  1  0
  4 11  1  0
  5 12  1  0
  6 13  1  0
M  CHG  1   8  -1
M  END
>  <mol_id>  (56) 
2026-09-16-3war-s0-n100-0056

>  <rmsd_to_ref>  (56) 
2.9795918367375522

>  <pose_kind>  (56) 
conformer

$$$$
3war.A
     RDKit          3D

 13 13  0  0  0  0  0  0  0  0999 V2000
    0.6094   20.6876   39.1456 N   0  0  0  0  0  0  0  0  0  0  0  0
    1.8224   20.1656   39.6560 C   0  0  0  0  0  0  0  0  0  0  0  0
    2.9538   21.0585   39.7008 C   0  0  0  0  0  0  0  0  0  0  0  0
    2.8492   22.3573   39.2358 C   0  0  0  0  0  0  0  0  0  0  0  0
    1.6413   22.8306   38.7723 C   0  0  0  0  0  0  0  0  0  0  0  0
    0.5567   21.9850   38.7053 C   0  0  0  0  0  0  0  0  0  0  0  0
    4.3116   20.5373   40.1476 C   0  0  0  0  0  0  0  0  0  0  0  0
    4.3657   19.4060   40.7133 O   0  0  0  0  0  0  0  0  0  0  0  0
    5.2427   21.2736   39.9029 O   0  0  0  0  0  0  0  0  0  0  0  0
    1.8984   19.1246   40.0031 H   0  0  0  0  0  0  0  0  0  0  0  0
    3.7322   23.0132   39.2361 H   0  0  0  0  0  0  0  0  0  0  0  0
    1.5437   23.8799   38.4569 H   0  0  0  0  0  0  0  0  0  0  0  0
   -0.3858   22.3640   38.2833 H   0  0  0  0  0  0  0  0  0  0  0  0
  1  2  1  0
  1  6  2  0
  2  3  2  0
  3  4  1  0
  3  7  1  0
  4  5  2  0
  5  6  1  0
  7  8  1  0
  7  9  2  0
  2 10  1  0
  4 11  1  0
  5 12  1  0
  6 13  1  0
M  CHG  1   8  -1
M  END
>  <mol_id>  (57) 
2026-09-16-3war-s0-n100-0057

>  <rmsd_to_ref>  (57) 
3.0255102040818085

>  <pose_kind>  (57) 
rigid

$$$$
3war.A
     RDKit          3D

 13 13  0  0  0  0  0  0  0  0999 V2000
    2.5913   18.8726   37.2640 N   0  0  0  0  0  0  0  0  0  0  0  0
    3.7545   19.5079   37.2041 C   0  0  0  0  0  0  0  0  0  0  0  0
    4.3725   19.8389   38.3978 C   0  0  0  0  0  0  0  0  0  0  0  0
    3.7748   19.5062   39.5931 C   0  0  0  0  0  0  0  0  0  0  0  0
    2.5588   18.8423   39.5985 C   0  0  0  0  0  0  0  0  0  0  0  0
    1.9562   18.5198   38.3965 C   0  0  0  0  0  0  0  0  0  0  0  0
    5.6373   20.5294   38.4056 C   0  0  0  0  0  0  0  0  0  0  0  0
    6.3263   20.9115   37.2836 O   0  0  0  0  0  0  0  0  0  0  0  0
    6.1550   20.8060   39.5313 O   0  0  0  0  0  0  0  0  0  0  0  0
    4.2203   19.7674   36.2489 H   0  0  0  0  0  0  0  0  0  0  0  0
    4.2558   19.7638   40.5340 H   0  0  0  0  0  0  0  0  0  0  0  0
    2.0660   18.5684   40.5072 H   0  0  0  0  0  0  0  0  0  0  0  0
    1.0095   18.0034   38.3241 H   0  0  0  0  0  0  0  0  0  0  0  0
  1  2  1  0
  1  6  2  0
  2  3  2  0
  3  4  1  0
  3  7  1  0
  4  5  2  0
  5  6  1  0
  7  8  1  0
  7  9  2  0
  2 10  1  0
  4 11  1  0
  5 12  1  0
  6 13  1  0
M  CHG  1   8  -1
M  END
>  <mol_id>  (58) 
2026-09-16-3war-s0-n100-0058

>  <rmsd_to_ref>  (58) 
3.0714285714297676

>  <pose_kind>  (58) 
conformer

$$$$
3war.A
     RDKit          3D

 13 13  0  0  0  0  0  0  0  0999 V2000
    3.9688   20.4107   40.0063 N   0  0  0  0  0  0  0  0  0  0  0  0
    2.8983   20.7586   39.1478 C   0  0  0  0  0  0  0  0  0  0  0  0
    1.5902   20.8740   39.7434 C   0  0  0  0  0  0  0  0  0  0  0  0
    1.4019   20.6252   41.0913 C   0  0  0  0  0  0  0  0  0  0  0  0
    2.4777   20.3155   41.8942 C   0  0  0  0  0  0  0  0  0  0  0  0
    3.7299   20.1828   41.3372 C   0  0  0  0  0  0  0  0  0  0  0  0
    0.3801   21.1506   38.8637 C   0  0  0  0  0  0  0  0  0  0  0  0
    0.5763   21.5278   37.6713 O   0  0  0  0  0  0  0  0  0  0  0  0
   -0.6904   20.9681   39.4022 O   0  0  0  0  0  0  0  0  0  0  0  0
    3.0575   20.9332   38.0735 H   0  0  0  0  0  0  0  0  0  0  0  0
    0.3912   20.6746   41.5227 H   0  0  0  0  0  0  0  0  0  0  0  0
    2.3368   20.1748   42.9760 H   0  0  0  0  0  0  0  0  0  0  0  0
    4.5684   19.8833   41.9829 H   0  0  0  0  0  0  0  0  0  0  0  0
  1  2  1  0
  1  6  2  0
  2  3  2  0
  3  4  1  0
  3  7  1  0
  4  5  2  0
  5  6  1  0
  7  8  1  0
  7  9  2  0
  2 10  1  0
  4 11  1  0
  5 12  1  0
  6 13  1  0
M  CHG  1   8  -1
M  END
>  <mol_id>  (59) 
2026-09-16-3war-s0-n100-0059

>  <rmsd_to_ref>  (59) 
3.117346938778757

>  <pose_kind>  (59) 
rigid

$$$$
3war.A
     RDKit          3D

 13 13  0  0  0  0  0  0  0  0999 V2000
    1.3884   19.9344   37.8764 N   0  0  0  0  0  0  0  0  0  0  0  0
    1.6367   18.6337   37.7944 C   0  0  0  0  0  0  0  0  0  0  0  0
    2.9577   18.2327   37.6925 C   0  0  0  0  0  0  0  0  0  0  0  0
    3.9603   19.1768   37.6793 C   0  0  0  0  0  0  0  0  0  0  0  0
    3.6454   20.5232   37.7678 C   0  0  0  0  0  0  0  0  0  0  0  0
    2.3203   20.9049   37.8689 C   0  0  0  0  0  0  0  0  0  0  0  0
    3.2984   16.8356   37.5998 C   0  0  0  0  0  0  0  0  0  0  0  0
    2.3910   15.8079   37.6029 O   0  0  0  0  0  0  0  0  0  0  0  0
    4.5271   16.5295   37.5085 O   0  0  0  0  0  0  0  0  0  0  0  0
    0.8324   17.8922   37.8057 H   0  0  0  0  0  0  0  0  0  0  0  0
    5.0000   18.8676   37.5995 H   0  0  0  0  0  0  0  0  0  0  0  0
    4.3974   21.2834   37.7607 H   0  0  0  0  0  0  0  0  0  0  0  0
    2.0007   21.9350   37.9415 H   0  0  0  0  0  0  0  0  0  0  0  0
  1  2  1  0
  1  6  2  0
  2  3  2  0
  3  4  1  0
  3  7  1  0
  4  5  2  0
  5  6  1  0
  7  8  1  0
  7  9  2  0
  2 10  1  0
  4 11  1  0
  5 12  1  0
  6 13  1  0
M  CHG  1   8  -1
M  END
>  <mol_id>  (60) 
2026-09-16-3war-s0-n100-0060

>  <rmsd_to_ref>  (60) 
3.1632653061257487

>  <pose_kind>  (60) 
conformer

$$$$
3war.A
     RDKit          3D

 13 13  0  0  0  0  0  0  0  0999 V2000
    1.6618   19.2364   37.8167 N   0  0  0  0  0  0  0  0  0  0  0  0
    2.0440   20.5251   37.3727 C   0  0  0  0  0  0  0  0  0  0  0  0
    2.9501   21.2673   38.2140 C   0  0  0  0  0  0  0  0  0  0  0  0
    3.3954   20.7397   39.4129 C   0  0  0  0  0  0  0  0  0  0  0  0
    3.0182   19.4700   39.7921 C   0  0  0  0  0  0  0  0  0  0  0  0
    2.1386   18.7563   39.0094 C   0  0  0  0  0  0  0  0  0  0  0  0
    3.3266   22.6947   37.8459 C   0  0  0  0  0  0  0  0  0  0  0  0
    3.0455   23.1108   36.6838 O   0  0  0  0  0  0  0  0  0  0  0  0
    3.8682   23.3204   38.7316 O   0  0  0  0  0  0  0  0  0  0  0  0
    1.6662   20.9422   36.4275 H   0  0  0  0  0  0  0  0  0  0  0  0
    4.0517   21.3351   40.0646 H   0  0  0  0  0  0  0  0  0  0  0  0
    3.4183   19.0283   40.7166 H   0  0  0  0  0  0  0  0  0  0  0  0
    1.8065   17.7656   39.3531 H   0  0  0  0  0  0  0  0  0  0  0  0
  1  2  1  0
  1  6  2  0
  2  3  2  0
  3  4  1  0
  3  7  1  0
  4  5  2  0
  5  6  1  0
  7  8  1  0
  7  9  2  0
  2 10  1  0
  4 11  1  0
  5 12  1  0
  6 13  1  0
M  CHG  1   8  -1
M  END
>  <mol_id>  (61) 
2026-09-16-3war-s0-n100-0061

>  <rmsd_to_ref>  (61) 
3.209183673471126

>  <pose_kind>  (61) 
rigid

$$$$
3war.A
     RDKit          3D

 13 13  0  0  0  0  0  0  0  0999 V2000
    4.0042   17.2724   36.9078 N   0  0  0  0  0  0  0  0  0  0  0  0
    3.3697   18.4104   36.6574 C   0  0  0  0  0  0  0  0  0  0  0  0
    3.0452   19.2197   37.7327 C   0  0  0  0  0  0  0  0  0  0  0  0
    3.3831   18.8294   39.0094 C   0  0  0  0  0  0  0  0  0  0  0  0
    4.0458   17.6301   39.2148 C   0  0  0  0  0  0  0  0  0  0  0  0
    4.3618   16.8347   38.1288 C   0  0  0  0  0  0  0  0  0  0  0  0
    2.3561   20.4693   37.5324 C   0  0  0  0  0  0  0  0  0  0  0  0
    1.9692   20.9620   36.3129 O   0  0  0  0  0  0  0  0  0  0  0  0
    2.0855   21.1682   38.5571 O   0  0  0  0  0  0  0  0  0  0  0  0
    3.1061   18.7107   35.6391 H   0  0  0  0  0  0  0  0  0  0  0  0
    3.1307   19.4612   39.8580 H   0  0  0  0  0  0  0  0  0  0  0  0
    4.3236   17.2955   40.1917 H   0  0  0  0  0  0  0  0  0  0  0  0
    4.8770   15.8882   38.2131 H   0  0  0  0  0  0  0  0  0  0  0  0
  1  2  1  0
  1  6  2  0
  2  3  2  0
  3  4  1  0
  3  7  1  0
  4  5  2  0
  5  6  1  0
  7  8  1  0
  7  9  2  0
  2 10  1  0
  4 11  1  0
  5 12  1  0
  6 13  1  0
M  CHG  1   8  -1
M  END
>  <mol_id>  (62) 
2026-09-16-3war-s0-n100-0062

>  <rmsd_to_ref>  (62) 
3.255102040818503

>  <pose_kind>  (62) 
conformer

$$$$
3war.A
     RDKit          3D

 13 13  0  0  0  0  0  0  0  0999 V2000
    2.8988   19.8043   39.3649 N   0  0  0  0  0  0  0  0  0  0  0  0
    2.3474   18.5028   39.2866 C   0  0  0  0  0  0  0  0  0  0  0  0
    1.7842   18.1036   38.0206 C   0  0  0  0  0  0  0  0  0  0  0  0
    1.7664   18.9762   36.9472 C   0  0  0  0  0  0  0  0  0  0  0  0
    2.3387   20.2242   37.0612 C   0  0  0  0  0  0  0  0  0  0  0  0
    2.8635   20.6273   38.2686 C   0  0  0  0  0  0  0  0  0  0  0  0
    1.0898   16.7559   37.8927 C   0  0  0  0  0  0  0  0  0  0  0  0
    1.2449   15.9085   38.8204 O   0  0  0  0  0  0  0  0  0  0  0  0
    0.4255   16.6212   36.8879 O   0  0  0  0  0  0  0  0  0  0  0  0
    2.3485   17.8257   40.1535 H   0  0  0  0  0  0  0  0  0  0  0  0
    1.2945   18.6731   36.0010 H   0  0  0  0  0  0  0  0  0  0  0  0
    2.3764   20.8959   36.1909 H   0  0  0  0  0  0  0  0  0  0  0  0
    3.2688   21.6461   38.3571 H   0  0  0  0  0  0  0  0  0  0  0  0
  1  2  1  0
  1  6  2  0
  2  3  2  0
  3  4  1  0
  3  7  1  0
  4  5  2  0
  5  6  1  0
  7  8  1  0
  7  9  2  0
  2 10  1  0
  4 11  1  0
  5 12  1  0
  6 13  1  0
M  CHG  1   8  -1
M  END
>  <mol_id>  (63) 
2026-09-16-3war-s0-n100-0063

>  <rmsd_to_ref>  (63) 
3.301020408165824

>  <pose_kind>  (63) 
rigid

$$$$
3war.A
     RDKit          3D

 13 13  0  0  0  0  0  0  0  0999 V2000
    1.2940   20.3493   36.5856 N   0  0  0  0  0  0  0  0  0  0  0  0
    2.2181   19.4061   36.7142 C   0  0  0  0  0  0  0  0  0  0  0  0
    1.9844   18.3923   37.6273 C   0  0  0  0  0  0  0  0  0  0  0  0
    0.8209   18.3899   38.3643 C   0  0  0  0  0  0  0  0  0  0  0  0
   -0.1114   19.3999   38.1905 C   0  0  0  0  0  0  0  0  0  0  0  0
    0.1391   20.4043   37.2737 C   0  0  0  0  0  0  0  0  0  0  0  0
    2.9461   17.3361   37.8175 C   0  0  0  0  0  0  0  0  0  0  0  0
    4.1360   17.2319   37.1445 O   0  0  0  0  0  0  0  0  0  0  0  0
    2.6759   16.4343   38.6692 O   0  0  0  0  0  0  0  0  0  0  0  0
    3.1388   19.4177   36.1236 H   0  0  0  0  0  0  0  0  0  0  0  0
    0.6320   17.5960   39.0832 H   0  0  0  0  0  0  0  0  0  0  0  0
   -1.0252   19.4301   38.7450 H   0  0  0  0  0  0  0  0  0  0  0  0
   -0.5414   21.2228   37.0855 H   0  0  0  0  0  0  0  0  0  0  0  0
  1  2  1  0
  1  6  2  0
  2  3  2  0
  3  4  1  0
  3  7  1  0
  4  5  2  0
  5  6  1  0
  7  8  1  0
  7  9  2  0
  2 10  1  0
  4 11  1  0
  5 12  1  0
  6 13  1  0
M  CHG  1   8  -1
M  END
>  <mol_id>  (64) 
2026-09-16-3war-s0-n100-0064

>  <rmsd_to_ref>  (64) 
3.3469387755107096

>  <pose_kind>  (64) 
conformer

$$$$
3war.A
     RDKit          3D

 13 13  0  0  0  0  0  0  0  0999 V2000
    2.3084   20.6393   40.6542 N   0  0  0  0  0  0  0  0  0  0  0  0
    1.3515   21.2860   39.8356 C   0  0  0  0  0  0  0  0  0  0  0  0
    0.1561   20.5466   39.5136 C   0  0  0  0  0  0  0  0  0  0  0  0
   -0.0200   19.2524   39.9699 C   0  0  0  0  0  0  0  0  0  0  0  0
    0.9260   18.6724   40.7864 C   0  0  0  0  0  0  0  0  0  0  0  0
    2.0814   19.3581   41.0873 C   0  0  0  0  0  0  0  0  0  0  0  0
   -0.8693   21.1436   38.5613 C   0  0  0  0  0  0  0  0  0  0  0  0
   -0.7807   22.3736   38.2753 O   0  0  0  0  0  0  0  0  0  0  0  0
   -1.6937   20.3577   38.1465 O   0  0  0  0  0  0  0  0  0  0  0  0
    1.5127   22.3078   39.4615 H   0  0  0  0  0  0  0  0  0  0  0  0
   -0.9170   18.6854   39.6802 H   0  0  0  0  0  0  0  0  0  0  0  0
    0.7589   17.6655   41.1964 H   0  0  0  0  0  0  0  0  0  0  0  0
    2.8500   18.8605   41.6970 H   0  0  0  0  0  0  0  0  0  0  0  0
  1  2  1  0
  1  6  2  0
  2  3  2  0
  3  4  1  0
  3  7  1  0
  4  5  2  0
  5  6  1  0
  7  8  1  0
  7  9  2  0
  2 10  1  0
  4 11  1  0
  5 12  1  0
  6 13  1  0
M  CHG  1   8  -1
M  END
>  <mol_id>  (65) 
2026-09-16-3war-s0-n100-0065

>  <rmsd_to_ref>  (65) 
3.3928571428598473

>  <pose_kind>  (65) 
rigid

$$$$
3war.A
     RDKit          3D

 13 13  0  0  0  0  0  0  0  0999 V2000
    2.2363   19.1802   39.9722 N   0  0  0  0  0  0  0  0  0  0  0  0
    1.9274   20.4283   39.6445 C   0  0  0  0  0  0  0  0  0  0  0  0
    1.4248   20.6577   38.3752 C   0  0  0  0  0  0  0  0  0  0  0  0
    1.2620   19.6046   37.5029 C   0  0  0  0  0  0  0  0  0  0  0  0
    1.6006   18.3202   37.8965 C   0  0  0  0  0  0  0  0  0  0  0  0
    2.1012   18.1098   39.1682 C   0  0  0  0  0  0  0  0  0  0  0  0
    1.0689   21.9890   37.9536 C   0  0  0  0  0  0  0  0  0  0  0  0
    1.1859   23.1126   38.7305 O   0  0  0  0  0  0  0  0  0  0  0  0
    0.6132   22.1368   36.7779 O   0  0  0  0  0  0  0  0  0  0  0  0
    2.0609   21.2574   40.3454 H   0  0  0  0  0  0  0  0  0  0  0  0
    0.8676   19.7790   36.5044 H   0  0  0  0  0  0  0  0  0  0  0  0
    1.4876   17.4790   37.2461 H   0  0  0  0  0  0  0  0  0  0  0  0
    2.3861   17.1370   39.5433 H   0  0  0  0  0  0  0  0  0  0  0  0
  1  2  1  0
  1  6  2  0
  2  3  2  0
  3  4  1  0
  3  7  1  0
  4  5  2  0
  5  6  1  0
  7  8  1  0
  7  9  2  0
  2 10  1  0
  4 11  1  0
  5 12  1  0
  6 13  1  0
M  CHG  1   8  -1
M  END
>  <mol_id>  (66) 
2026-09-16-3war-s0-n100-0066

>  <rmsd_to_ref>  (66) 
3.4387755102043025

>  <pose_kind>  (66) 
conformer

$$$$
3war.A
     RDKit          3D

 13 13  0  0  0  0  0  0  0  0999 V2000
    2.4479   20.0080   36.7345 N   0  0  0  0  0  0  0  0  0  0  0  0
    3.1473   21.0930   37.3158 C   0  0  0  0  0  0  0  0  0  0  0  0
    2.5847   21.6720   38.5106 C   0  0  0  0  0  0  0  0  0  0  0  0
    1.3979   21.1944   39.0373 C   0  0  0  0  0  0  0  0  0  0  0  0
    0.7655   20.1188   38.4532 C   0  0  0  0  0  0  0  0  0  0  0  0
    1.2797   19.5671   37.3013 C   0  0  0  0  0  0  0  0  0  0  0  0
    3.2316   22.9004   39.1329 C   0  0  0  0  0  0  0  0  0  0  0  0
    4.3894   23.2333   38.7439 O   0  0  0  0  0  0  0  0  0  0  0  0
    2.5515   23.4668   39.9611 O   0  0  0  0  0  0  0  0  0  0  0  0
    4.0791   21.4774   36.8753 H   0  0  0  0  0  0  0  0  0  0  0  0
    0.9584   21.6743   39.9242 H   0  0  0  0  0  0  0  0  0  0  0  0
   -0.1466   19.7023   38.9054 H   0  0  0  0  0  0  0  0  0  0  0  0
    0.7339   18.7432   36.8183 H   0  0  0  0  0  0  0  0  0  0  0  0
  1  2  1  0
  1  6  2  0
  2  3  2  0
  3  4  1  0
  3  7  1  0
  4  5  2  0
  5  6  1  0
  7  8  1  0
  7  9  2  0
  2 10  1  0
  4 11  1  0
  5 12  1  0
  6 13  1  0
M  CHG  1   8  -1
M  END
>  <mol_id>  (67) 
2026-09-16-3war-s0-n100-0067

>  <rmsd_to_ref>  (67) 
3.4846938775528997

>  <pose_kind>  (67) 
rigid

$$$$
3war.A
     RDKit          3D

 13 13  0  0  0  0  0  0  0  0999 V2000
    0.6197   22.5557   40.5466 N   0  0  0  0  0  0  0  0  0  0  0  0
    1.4537   21.6995   41.1225 C   0  0  0  0  0  0  0  0  0  0  0  0
    1.9134   20.6360   40.3650 C   0  0  0  0  0  0  0  0  0  0  0  0
    1.5006   20.4974   39.0585 C   0  0  0  0  0  0  0  0  0  0  0  0
    0.6279   21.4208   38.5060 C   0  0  0  0  0  0  0  0  0  0  0  0
    0.1792   22.4768   39.2777 C   0  0  0  0  0  0  0  0  0  0  0  0
    2.8213   19.6688   40.9280 C   0  0  0  0  0  0  0  0  0  0  0  0
    3.3006   19.7014   42.2120 O   0  0  0  0  0  0  0  0  0  0  0  0
    3.2080   18.7153   40.1843 O   0  0  0  0  0  0  0  0  0  0  0  0
    1.7752   21.8192   42.1613 H   0  0  0  0  0  0  0  0  0  0  0  0
    1.8585   19.6637   38.4586 H   0  0  0  0  0  0  0  0  0  0  0  0
    0.2865   21.3448   37.4954 H   0  0  0  0  0  0  0  0  0  0  0  0
   -0.5012   23.2338   38.9141 H   0  0  0  0  0  0  0  0  0  0  0  0
  1  2  1  0
  1  6  2  0
  2  3  2  0
  3  4  1  0
  3  7  1  0
  4  5  2  0
  5  6  1  0
  7  8  1  0
  7  9  2  0
  2 10  1  0
  4 11  1  0
  5 12  1  0
  6 13  1  0
M  CHG  1   8  -1
M  END
>  <mol_id>  (68) 
2026-09-16-3war-s0-n100-0068

>  <rmsd_to_ref>  (68) 
3.5306122449000803

>  <pose_kind>  (68) 
conformer

$$$$
3war.A
     RDKit          3D

 13 13  0  0  0  0  0  0  0  0999 V2000
    2.9802   17.5735   41.8910 N   0  0  0  0  0  0  0  0  0  0  0  0
    3.3197   18.9333   42.0902 C   0  0  0  0  0  0  0  0  0  0  0  0
    3.4059   19.7670   40.9168 C   0  0  0  0  0  0  0  0  0  0  0  0
    3.1906   19.2391   39.6562 C   0  0  0  0  0  0  0  0  0  0  0  0
    2.8362   17.9157   39.5122 C   0  0  0  0  0  0  0  0  0  0  0  0
    2.7683   17.1021   40.6209 C   0  0  0  0  0  0  0  0  0  0  0  0
    3.8591   21.2134   41.0481 C   0  0  0  0  0  0  0  0  0  0  0  0
    3.9025   21.7281   42.2039 O   0  0  0  0  0  0  0  0  0  0  0  0
    4.1541   21.7492   40.0016 O   0  0  0  0  0  0  0  0  0  0  0  0
    3.5094   19.3363   43.0960 H   0  0  0  0  0  0  0  0  0  0  0  0
    3.3026   19.8773   38.7673 H   0  0  0  0  0  0  0  0  0  0  0  0
    2.6083   17.5105   38.5152 H   0  0  0  0  0  0  0  0  0  0  0  0
    2.5358   16.0359   40.4829 H   0  0  0  0  0  0  0  0  0  0  0  0
  1  2  1  0
  1  6  2  0
  2  3  2  0
  3  4  1  0
  3  7  1  0
  4  5  2  0
  5  6  1  0
  7  8  1  0
  7  9  2  0
  2 10  1  0
  4 11  1  0
  5 12  1  0
  6 13  1  0
M  CHG  1   8  -1
M  END
>  <mol_id>  (69) 
2026-09-16-3war-s0-n100-0069

>  <rmsd_to_ref>  (69) 
3.57653061224502

>  <pose_kind>  (69) 
rigid

$$$$
3war.A
     RDKit          3D

 13 13  0  0  0  0  0  0  0  0999 V2000
   -0.6565   23.0366   38.1865 N   0  0  0  0  0  0  0  0  0  0  0  0
    0.5777   23.2824   37.7663 C   0  0  0  0  0  0  0  0  0  0  0  0
    1.4501   22.2127   37.6619 C   0  0  0  0  0  0  0  0  0  0  0  0
    1.0219   20.9458   37.9909 C   0  0  0  0  0  0  0  0  0  0  0  0
   -0.2784   20.7448   38.4247 C   0  0  0  0  0  0  0  0  0  0  0  0
   -1.1358   21.8252   38.5228 C   0  0  0  0  0  0  0  0  0  0  0  0
    2.8051   22.4085   37.2120 C   0  0  0  0  0  0  0  0  0  0  0  0
    3.3439   23.6183   36.8576 O   0  0  0  0  0  0  0  0  0  0  0  0
    3.5581   21.3892   37.1368 O   0  0  0  0  0  0  0  0  0  0  0  0
    0.9073   24.2929   37.5075 H   0  0  0  0  0  0  0  0  0  0  0  0
    1.7030   20.1016   37.9108 H   0  0  0  0  0  0  0  0  0  0  0  0
   -0.6451   19.7755   38.6885 H   0  0  0  0  0  0  0  0  0  0  0  0
   -2.1618   21.7438   38.8531 H   0  0  0  0  0  0  0  0  0  0  0  0
  1  2  1  0
  1  6  2  0
  2  3  2  0
  3  4  1  0
  3  7  1  0
  4  5  2  0
  5  6  1  0
  7  8  1  0
  7  9  2  0
  2 10  1  0
  4 11  1  0
  5 12  1  0
  6 13  1  0
M  CHG  1   8  -1
M  END
>  <mol_id>  (70) 
2026-09-16-3war-s0-n100-0070

>  <rmsd_to_ref>  (70) 
3.6224489795925994

>  <pose_kind>  (70) 
conformer

$$$$
3war.A
     RDKit          3D

 13 13  0  0  0  0  0  0  0  0999 V2000
    2.6728   16.8764   38.6510 N   0  0  0  0  0  0  0  0  0  0  0  0
    2.6713   18.2736   38.8791 C   0  0  0  0  0  0  0  0  0  0  0  0
    3.3260   18.7443   40.0746 C   0  0  0  0  0  0  0  0  0  0  0  0
    3.9014   17.8540   40.9636 C   0  0  0  0  0  0  0  0  0  0  0  0
    3.9024   16.5043   40.6873 C   0  0  0  0  0  0  0  0  0  0  0  0
    3.2649   16.0374   39.5597 C   0  0  0  0  0  0  0  0  0  0  0  0
    3.2792   20.2227   40.4307 C   0  0  0  0  0  0  0  0  0  0  0  0
    2.8930   21.0427   39.5469 O   0  0  0  0  0  0  0  0  0  0  0  0
    3.6177   20.4818   41.5654 O   0  0  0  0  0  0  0  0  0  0  0  0
    2.1918   18.9697   38.1752 H   0  0  0  0  0  0  0  0  0  0  0  0
    4.3589   18.2244   41.8928 H   0  0  0  0  0  0  0  0  0  0  0  0
    4.4105   15.8024   41.3649 H   0  0  0  0  0  0  0  0  0  0  0  0
    3.2294   14.9525   39.3815 H   0  0  0  0  0  0  0  0  0  0  0  0
  1  2  1  0
  1  6  2  0
  2  3  2  0
  3  4  1  0
  3  7  1  0
  4  5  2  0
  5  6  1  0
  7  8  1  0
  7  9  2  0
  2 10  1  0
  4 11  1  0
  5 12  1  0
  6 13  1  0
M  CHG  1   8  -1
M  END
>  <mol_id>  (71) 
2026-09-16-3war-s0-n100-0071

>  <rmsd_to_ref>  (71) 
3.668367346940574

>  <pose_kind>  (71) 
rigid

$$$$
3war.A
     RDKit          3D

 13 13  0  0  0  0  0  0  0  0999 V2000
    2.7563   19.4066   42.5802 N   0  0  0  0  0  0  0  0  0  0  0  0
    3.0289   20.6923   42.3994 C   0  0  0  0  0  0  0  0  0  0  0  0
    3.2356   21.1333   41.1036 C   0  0  0  0  0  0  0  0  0  0  0  0
    3.1542   20.2425   40.0564 C   0  0  0  0  0  0  0  0  0  0  0  0
    2.8663   18.9096   40.3014 C   0  0  0  0  0  0  0  0  0  0  0  0
    2.6628   18.4872   41.6022 C   0  0  0  0  0  0  0  0  0  0  0  0
    3.5357   22.5170   40.8354 C   0  0  0  0  0  0  0  0  0  0  0  0
    3.6424   23.4933   41.7921 O   0  0  0  0  0  0  0  0  0  0  0  0
    3.7151   22.8615   39.6269 O   0  0  0  0  0  0  0  0  0  0  0  0
    3.0911   21.3913   43.2386 H   0  0  0  0  0  0  0  0  0  0  0  0
    3.3156   20.5834   39.0362 H   0  0  0  0  0  0  0  0  0  0  0  0
    2.7953   18.1904   39.5133 H   0  0  0  0  0  0  0  0  0  0  0  0
    2.4348   17.4647   41.8680 H   0  0  0  0  0  0  0  0  0  0  0  0
  1  2  1  0
  1  6  2  0
  2  3  2  0
  3  4  1  0
  3  7  1  0
  4  5  2  0
  5  6  1  0
  7  8  1  0
  7  9  2  0
  2 10  1  0
  4 11  1  0
  5 12  1  0
  6 13  1  0
M  CHG  1   8  -1
M  END
>  <mol_id>  (72) 
2026-09-16-3war-s0-n100-0072

>  <rmsd_to_ref>  (72) 
3.714285714287407

>  <pose_kind>  (72) 
conformer

$$$$
3war.A
     RDKit          3D

 13 13  0  0  0  0  0  0  0  0999 V2000
    2.3569   19.3380   39.3121 N   0  0  0  0  0  0  0  0  0  0  0  0
    1.7732   20.6247   39.4001 C   0  0  0  0  0  0  0  0  0  0  0  0
    2.6723   21.7492   39.4799 C   0  0  0  0  0  0  0  0  0  0  0  0
    4.0427   21.5600   39.4966 C   0  0  0  0  0  0  0  0  0  0  0  0
    4.5668   20.2911   39.3818 C   0  0  0  0  0  0  0  0  0  0  0  0
    3.7217   19.2055   39.3241 C   0  0  0  0  0  0  0  0  0  0  0  0
    2.1145   23.1515   39.6727 C   0  0  0  0  0  0  0  0  0  0  0  0
    0.8736   23.3346   39.5014 O   0  0  0  0  0  0  0  0  0  0  0  0
    2.9356   23.9843   39.9916 O   0  0  0  0  0  0  0  0  0  0  0  0
    0.6816   20.7606   39.4074 H   0  0  0  0  0  0  0  0  0  0  0  0
    4.7150   22.4242   39.6016 H   0  0  0  0  0  0  0  0  0  0  0  0
    5.6562   20.1457   39.3366 H   0  0  0  0  0  0  0  0  0  0  0  0
    4.1569   18.1961   39.2860 H   0  0  0  0  0  0  0  0  0  0  0  0
  1  2  1  0
  1  6  2  0
  2  3  2  0
  3  4  1  0
  3  7  1  0
  4  5  2  0
  5  6  1  0
  7  8  1  0
  7  9  2  0
  2 10  1  0
  4 11  1  0
  5 12  1  0
  6 13  1  0
M  CHG  1   8  -1
M  END
>  <mol_id>  (73) 
2026-09-16-3war-s0-n100-0073

>  <rmsd_to_ref>  (73) 
3.76020408163456

>  <pose_kind>  (73) 
rigid

$$$$
3war.A
     RDKit          3D

 13 13  0  0  0  0  0  0  0  0999 V2000
    2.2831   16.6233   36.4693 N   0  0  0  0  0  0  0  0  0  0  0  0
    1.2946   17.4834   36.6777 C   0  0  0  0  0  0  0  0  0  0  0  0
    1.5622   18.6015   37.4488 C   0  0  0  0  0  0  0  0  0  0  0  0
    2.8236   18.7878   37.9692 C   0  0  0  0  0  0  0  0  0  0  0  0
    3.8201   17.8579   37.7206 C   0  0  0  0  0  0  0  0  0  0  0  0
    3.5344   16.7472   36.9482 C   0  0  0  0  0  0  0  0  0  0  0  0
    0.5346   19.5760   37.7147 C   0  0  0  0  0  0  0  0  0  0  0  0
   -0.7539   19.4992   37.2526 O   0  0  0  0  0  0  0  0  0  0  0  0
    0.8401   20.5805   38.4284 O   0  0  0  0  0  0  0  0  0  0  0  0
    0.2962   17.3254   36.2594 H   0  0  0  0  0  0  0  0  0  0  0  0
    3.0396   19.6644   38.5758 H   0  0  0  0  0  0  0  0  0  0  0  0
    4.8103   17.9701   38.1083 H   0  0  0  0  0  0  0  0  0  0  0  0
    4.2606   15.9818   36.7133 H   0  0  0  0  0  0  0  0  0  0  0  0
  1  2  1  0
  1  6  2  0
  2  3  2  0
  3  4  1  0
  3  7  1  0
  4  5  2  0
  5  6  1  0
  7  8  1  0
  7  9  2  0
  2 10  1  0
  4 11  1  0
  5 12  1  0
  6 13  1  0
M  CHG  1   8  -1
M  END
>  <mol_id>  (74) 
2026-09-16-3war-s0-n100-0074

>  <rmsd_to_ref>  (74) 
3.806122448982704

>  <pose_kind>  (74) 
conformer

$$$$
3war.A
     RDKit          3D

 13 13  0  0  0  0  0  0  0  0999 V2000
    2.9525   17.7014   37.3894 N   0  0  0  0  0  0  0  0  0  0  0  0
    2.1788   18.8637   37.6233 C   0  0  0  0  0  0  0  0  0  0  0  0
    1.0365   18.7278   38.4928 C   0  0  0  0  0  0  0  0  0  0  0  0
    0.7087   17.5019   39.0440 C   0  0  0  0  0  0  0  0  0  0  0  0
    1.5061   16.4031   38.8102 C   0  0  0  0  0  0  0  0  0  0  0  0
    2.5893   16.5121   37.9671 C   0  0  0  0  0  0  0  0  0  0  0  0
    0.1069   19.9121   38.7113 C   0  0  0  0  0  0  0  0  0  0  0  0
    0.4932   21.0578   38.3358 O   0  0  0  0  0  0  0  0  0  0  0  0
   -0.9523   19.6359   39.2317 O   0  0  0  0  0  0  0  0  0  0  0  0
    2.4378   19.8282   37.1620 H   0  0  0  0  0  0  0  0  0  0  0  0
   -0.1904   17.4044   39.6702 H   0  0  0  0  0  0  0  0  0  0  0  0
    1.2783   15.4424   39.2951 H   0  0  0  0  0  0  0  0  0  0  0  0
    3.1844   15.6130   37.7494 H   0  0  0  0  0  0  0  0  0  0  0  0
  1  2  1  0
  1  6  2  0
  2  3  2  0
  3  4  1  0
  3  7  1  0
  4  5  2  0
  5  6  1  0
  7  8  1  0
  7  9  2  0
  2 10  1  0
  4 11  1  0
  5 12  1  0
  6 13  1  0
M  CHG  1   8  -1
M  END
>  <mol_id>  (75) 
2026-09-16-3war-s0-n100-0075

>  <rmsd_to_ref>  (75) 
3.852040816327705

>  <pose_kind>  (75) 
rigid

$$$$
3war.A
     RDKit          3D

 13 13  0  0  0  0  0  0  0  0999 V2000
    1.8509   17.7052   37.4213 N   0  0  0  0  0  0  0  0  0  0  0  0
    0.9531   18.6809   37.3727 C   0  0  0  0  0  0  0  0  0  0  0  0
    0.7712   19.4491   38.5097 C   0  0  0  0  0  0  0  0  0  0  0  0
    1.5127   19.1853   39.6398 C   0  0  0  0  0  0  0  0  0  0  0  0
    2.4375   18.1536   39.6365 C   0  0  0  0  0  0  0  0  0  0  0  0
    2.6057   17.3968   38.4916 C   0  0  0  0  0  0  0  0  0  0  0  0
   -0.1875   20.5250   38.5261 C   0  0  0  0  0  0  0  0  0  0  0  0
   -0.9808   20.8813   37.4662 O   0  0  0  0  0  0  0  0  0  0  0  0
   -0.3096   21.1942   39.5980 O   0  0  0  0  0  0  0  0  0  0  0  0
    0.3694   18.8817   36.4696 H   0  0  0  0  0  0  0  0  0  0  0  0
    1.3740   19.7857   40.5361 H   0  0  0  0  0  0  0  0  0  0  0  0
    3.0305   17.9205   40.4952 H   0  0  0  0  0  0  0  0  0  0  0  0
    3.3072   16.5779   38.4162 H   0  0  0  0  0  0  0  0  0  0  0  0
  1  2  1  0
  1  6  2  0
  2  3  2  0
  3  4  1  0
  3  7  1  0
  4  5  2  0
  5  6  1  0
  7  8  1  0
  7  9  2  0
  2 10  1  0
  4 11  1  0
  5 12  1  0
  6 13  1  0
M  CHG  1   8  -1
M  END
>  <mol_id>  (76) 
2026-09-16-3war-s0-n100-0076

>  <rmsd_to_ref>  (76) 
3.897959183676141

>  <pose_kind>  (76) 
conformer

$$$$
3war.A
     RDKit          3D

 13 13  0  0  0  0  0  0  0  0999 V2000
    0.5544   21.8163   38.2390 N   0  0  0  0  0  0  0  0  0  0  0  0
    1.0054   20.8137   39.1308 C   0  0  0  0  0  0  0  0  0  0  0  0
    2.1879   21.1056   39.9028 C   0  0  0  0  0  0  0  0  0  0  0  0
    2.8564   22.3068   39.7466 C   0  0  0  0  0  0  0  0  0  0  0  0
    2.3658   23.2644   38.8862 C   0  0  0  0  0  0  0  0  0  0  0  0
    1.2489   22.9935   38.1279 C   0  0  0  0  0  0  0  0  0  0  0  0
    2.7824   20.0378   40.8089 C   0  0  0  0  0  0  0  0  0  0  0  0
    2.0882   19.0105   41.0646 O   0  0  0  0  0  0  0  0  0  0  0  0
    3.9033   20.2754   41.2046 O   0  0  0  0  0  0  0  0  0  0  0  0
    0.4771   19.8541   39.2304 H   0  0  0  0  0  0  0  0  0  0  0  0
    3.7814   22.4975   40.3104 H   0  0  0  0  0  0  0  0  0  0  0  0
    2.8643   24.2415   38.8053 H   0  0  0  0  0  0  0  0  0  0  0  0
    0.9012   23.7485   37.4074 H   0  0  0  0  0  0  0  0  0  0  0  0
  1  2  1  0
  1  6  2  0
  2  3  2  0
  3  4  1  0
  3  7  1  0
  4  5  2  0
  5  6  1  0
  7  8  1  0
  7  9  2  0
  2 10  1  0
  4 11  1  0
  5 12  1  0
  6 13  1  0
M  CHG  1   8  -1
M  END
>  <mol_id>  (77) 
2026-09-16-3war-s0-n100-0077

>  <rmsd_to_ref>  (77) 
3.9438775510205026

>  <pose_kind>  (77) 
rigid

$$$$
3war.A
     RDKit          3D

 13 13  0  0  0  0  0  0  0  0999 V2000
    1.6027   19.7894   40.0397 N   0  0  0  0  0  0  0  0  0  0  0  0
    0.4264   19.2067   39.8472 C   0  0  0  0  0  0  0  0  0  0  0  0
    0.3878   18.0768   39.0483 C   0  0  0  0  0  0  0  0  0  0  0  0
    1.5493   17.5967   38.4853 C   0  0  0  0  0  0  0  0  0  0  0  0
    2.7517   18.2442   38.7190 C   0  0  0  0  0  0  0  0  0  0  0  0
    2.7711   19.3714   39.5195 C   0  0  0  0  0  0  0  0  0  0  0  0
   -0.8564   17.3942   38.7976 C   0  0  0  0  0  0  0  0  0  0  0  0
   -2.0729   17.7764   39.3013 O   0  0  0  0  0  0  0  0  0  0  0  0
   -0.8286   16.3636   38.0568 O   0  0  0  0  0  0  0  0  0  0  0  0
   -0.4901   19.5965   40.2995 H   0  0  0  0  0  0  0  0  0  0  0  0
    1.5250   16.7094   37.8568 H   0  0  0  0  0  0  0  0  0  0  0  0
    3.6726   17.9000   38.2984 H   0  0  0  0  0  0  0  0  0  0  0  0
    3.6705   19.9269   39.7450 H   0  0  0  0  0  0  0  0  0  0  0  0
  1  2  1  0
  1  6  2  0
  2  3  2  0
  3  4  1  0
  3  7  1  0
  4  5  2  0
  5  6  1  0
  7  8  1  0
  7  9  2  0
  2 10  1  0
  4 11  1  0
  5 12  1  0
  6 13  1  0
M  CHG  1   8  -1
M  END
>  <mol_id>  (78) 
2026-09-16-3war-s0-n100-0078

>  <rmsd_to_ref>  (78) 
3.989795918369861

>  <pose_kind>  (78) 
conformer

$$$$
3war.A
     RDKit          3D

 13 13  0  0  0  0  0  0  0  0999 V2000
    3.2545   17.1044   37.3132 N   0  0  0  0  0  0  0  0  0  0  0  0
    3.8548   16.7827   38.5542 C   0  0  0  0  0  0  0  0  0  0  0  0
    3.4658   17.5729   39.6960 C   0  0  0  0  0  0  0  0  0  0  0  0
    2.5650   18.6143   39.5621 C   0  0  0  0  0  0  0  0  0  0  0  0
    1.9855   18.8744   38.3396 C   0  0  0  0  0  0  0  0  0  0  0  0
    2.3606   18.1413   37.2361 C   0  0  0  0  0  0  0  0  0  0  0  0
    4.1419   17.3447   41.0397 C   0  0  0  0  0  0  0  0  0  0  0  0
    4.8418   16.3008   41.1919 O   0  0  0  0  0  0  0  0  0  0  0  0
    3.9479   18.2164   41.8593 O   0  0  0  0  0  0  0  0  0  0  0  0
    4.5859   15.9657   38.6437 H   0  0  0  0  0  0  0  0  0  0  0  0
    2.3110   19.2359   40.4334 H   0  0  0  0  0  0  0  0  0  0  0  0
    1.2260   19.6645   38.2455 H   0  0  0  0  0  0  0  0  0  0  0  0
    1.9276   18.3966   36.2576 H   0  0  0  0  0  0  0  0  0  0  0  0
  1  2  1  0
  1  6  2  0
  2  3  2  0
  3  4  1  0
  3  7  1  0
  4  5  2  0
  5  6  1  0
  7  8  1  0
  7  9  2  0
  2 10  1  0
  4 11  1  0
  5 12  1  0
  6 13  1  0
M  CHG  1   8  -1
M  END
>  <mol_id>  (79) 
2026-09-16-3war-s0-n100-0079

>  <rmsd_to_ref>  (79) 
4.035714285714853

>  <pose_kind>  (79) 
rigid

$$$$
3war.A
     RDKit          3D

 13 13  0  0  0  0  0  0  0  0999 V2000
   -0.4421   19.7109   37.5542 N   0  0  0  0  0  0  0  0  0  0  0  0
    0.5163   19.3361   38.3917 C   0  0  0  0  0  0  0  0  0  0  0  0
    0.7998   17.9845   38.4865 C   0  0  0  0  0  0  0  0  0  0  0  0
    0.0929   17.0818   37.7236 C   0  0  0  0  0  0  0  0  0  0  0  0
   -0.8985   17.5273   36.8644 C   0  0  0  0  0  0  0  0  0  0  0  0
   -1.1679   18.8811   36.7828 C   0  0  0  0  0  0  0  0  0  0  0  0
    1.8285   17.5083   39.3763 C   0  0  0  0  0  0  0  0  0  0  0  0
    2.5963   18.3082   40.1827 O   0  0  0  0  0  0  0  0  0  0  0  0
    2.0428   16.2578   39.4199 O   0  0  0  0  0  0  0  0  0  0  0  0
    1.0717   20.0618   38.9931 H   0  0  0  0  0  0  0  0  0  0  0  0
    0.3113   16.0186   37.7940 H   0  0  0  0  0  0  0  0  0  0  0  0
   -1.4672   16.8554   36.2573 H   0  0  0  0  0  0  0  0  0  0  0  0
   -1.9256   19.3001   36.1358 H   0  0  0  0  0  0  0  0  0  0  0  0
  1  2  1  0
  1  6  2  0
  2  3  2  0
  3  4  1  0
  3  7  1  0
  4  5  2  0
  5  6  1  0
  7  8  1  0
  7  9  2  0
  2 10  1  0
  4 11  1  0
  5 12  1  0
  6 13  1  0
M  CHG  1   8  -1
M  END
>  <mol_id>  (80) 
2026-09-16-3war-s0-n100-0080

>  <rmsd_to_ref>  (80) 
4.081632653063207

>  <pose_kind>  (80) 
conformer

$$$$
3war.A
     RDKit          3D

 13 13  0  0  0  0  0  0  0  0999 V2000
    4.6103   19.6773   43.0575 N   0  0  0  0  0  0  0  0  0  0  0  0
    3.3940   20.2948   42.6788 C   0  0  0  0  0  0  0  0  0  0  0  0
    2.6272   19.6524   41.6402 C   0  0  0  0  0  0  0  0  0  0  0  0
    3.0879   18.4986   41.0312 C   0  0  0  0  0  0  0  0  0  0  0  0
    4.2646   17.9179   41.4508 C   0  0  0  0  0  0  0  0  0  0  0  0
    5.0176   18.5292   42.4280 C   0  0  0  0  0  0  0  0  0  0  0  0
    1.3595   20.3118   41.1178 C   0  0  0  0  0  0  0  0  0  0  0  0
    0.8654   21.2729   41.7771 O   0  0  0  0  0  0  0  0  0  0  0  0
    0.9353   19.8456   40.0824 O   0  0  0  0  0  0  0  0  0  0  0  0
    3.0489   21.2239   43.1560 H   0  0  0  0  0  0  0  0  0  0  0  0
    2.5134   18.0441   40.2106 H   0  0  0  0  0  0  0  0  0  0  0  0
    4.6012   16.9695   41.0068 H   0  0  0  0  0  0  0  0  0  0  0  0
    5.9804   18.0806   42.7140 H   0  0  0  0  0  0  0  0  0  0  0  0
  1  2  1  0
  1  6  2  0
  2  3  2  0
  3  4  1  0
  3  7  1  0
  4  5  2  0
  5  6  1  0
  7  8  1  0
  7  9  2  0
  2 10  1  0
  4 11  1  0
  5 12  1  0
  6 13  1  0
M  CHG  1   8  -1
M  END
>  <mol_id>  (81) 
2026-09-16-3war-s0-n100-0081

>  <rmsd_to_ref>  (81) 
4.127551020408788

>  <pose_kind>  (81) 
rigid

$$$$
3war.A
     RDKit          3D

 13 13  0  0  0  0  0  0  0  0999 V2000
    3.3887   17.8857   37.6028 N   0  0  0  0  0  0  0  0  0  0  0  0
    2.5388   18.9042   37.6240 C   0  0  0  0  0  0  0  0  0  0  0  0
    2.8897   20.0534   36.9365 C   0  0  0  0  0  0  0  0  0  0  0  0
    4.0889   20.1077   36.2615 C   0  0  0  0  0  0  0  0  0  0  0  0
    4.9400   19.0146   36.2719 C   0  0  0  0  0  0  0  0  0  0  0  0
    4.5728   17.8752   36.9641 C   0  0  0  0  0  0  0  0  0  0  0  0
    2.0134   21.1972   36.9179 C   0  0  0  0  0  0  0  0  0  0  0  0
    0.7985   21.2615   37.5500 O   0  0  0  0  0  0  0  0  0  0  0  0
    2.3897   22.2221   36.2702 O   0  0  0  0  0  0  0  0  0  0  0  0
    1.5887   18.8503   38.1635 H   0  0  0  0  0  0  0  0  0  0  0  0
    4.3699   21.0079   35.7196 H   0  0  0  0  0  0  0  0  0  0  0  0
    5.8784   19.0212   35.7593 H   0  0  0  0  0  0  0  0  0  0  0  0
    5.1852   16.9860   37.0159 H   0  0  0  0  0  0  0  0  0  0  0  0
  1  2  1  0
  1  6  2  0
  2  3  2  0
  3  4  1  0
  3  7  1  0
  4  5  2  0
  5  6  1  0
  7  8  1  0
  7  9  2  0
  2 10  1  0
  4 11  1  0
  5 12  1  0
  6 13  1  0
M  CHG  1   8  -1
M  END
>  <mol_id>  (82) 
2026-09-16-3war-s0-n100-0082

>  <rmsd_to_ref>  (82) 
4.173469387755337

>  <pose_kind>  (82) 
conformer

$$$$
3war.A
     RDKit          3D

 13 13  0  0  0  0  0  0  0  0999 V2000
    3.0107   17.5596   39.9681 N   0  0  0  0  0  0  0  0  0  0  0  0
    2.5829   18.7858   40.5316 C   0  0  0  0  0  0  0  0  0  0  0  0
    3.6031   19.7557   40.8444 C   0  0  0  0  0  0  0  0  0  0  0  0
    4.9393   19.4737   40.6231 C   0  0  0  0  0  0  0  0  0  0  0  0
    5.3074   18.2773   40.0478 C   0  0  0  0  0  0  0  0  0  0  0  0
    4.3471   17.3333   39.7610 C   0  0  0  0  0  0  0  0  0  0  0  0
    3.2241   21.0550   41.5395 C   0  0  0  0  0  0  0  0  0  0  0  0
    1.9998   21.3721   41.5966 O   0  0  0  0  0  0  0  0  0  0  0  0
    4.1589   21.6774   41.9953 O   0  0  0  0  0  0  0  0  0  0  0  0
    1.5189   18.9898   40.7225 H   0  0  0  0  0  0  0  0  0  0  0  0
    5.7093   20.2063   40.9069 H   0  0  0  0  0  0  0  0  0  0  0  0
    6.3644   18.0770   39.8184 H   0  0  0  0  0  0  0  0  0  0  0  0
    4.6633   16.3627   39.3509 H   0  0  0  0  0  0  0  0  0  0  0  0
  1  2  1  0
  1  6  2  0
  2  3  2  0
  3  4  1  0
  3  7  1  0
  4  5  2  0
  5  6  1  0
  7  8  1  0
  7  9  2  0
  2 10  1  0
  4 11  1  0
  5 12  1  0
  6 13  1  0
M  CHG  1   8  -1
M  END
>  <mol_id>  (83) 
2026-09-16-3war-s0-n100-0083

>  <rmsd_to_ref>  (83) 
4.21938775510281

>  <pose_kind>  (83) 
rigid

$$$$
3war.A
     RDKit          3D

 13 13  0  0  0  0  0  0  0  0999 V2000
    2.9367   21.0864   38.7561 N   0  0  0  0  0  0  0  0  0  0  0  0
    1.8248   21.6867   39.1605 C   0  0  0  0  0  0  0  0  0  0  0  0
    1.0487   22.3210   38.2058 C   0  0  0  0  0  0  0  0  0  0  0  0
    1.4440   22.3124   36.8866 C   0  0  0  0  0  0  0  0  0  0  0  0
    2.6150   21.6701   36.5183 C   0  0  0  0  0  0  0  0  0  0  0  0
    3.3775   21.0418   37.4857 C   0  0  0  0  0  0  0  0  0  0  0  0
   -0.1714   22.9926   38.5759 C   0  0  0  0  0  0  0  0  0  0  0  0
   -0.6657   23.0684   39.8524 O   0  0  0  0  0  0  0  0  0  0  0  0
   -0.8405   23.5564   37.6560 O   0  0  0  0  0  0  0  0  0  0  0  0
    1.5203   21.6874   40.2112 H   0  0  0  0  0  0  0  0  0  0  0  0
    0.8382   22.8092   36.1321 H   0  0  0  0  0  0  0  0  0  0  0  0
    2.9525   21.6432   35.5040 H   0  0  0  0  0  0  0  0  0  0  0  0
    4.3009   20.5220   37.2722 H   0  0  0  0  0  0  0  0  0  0  0  0
  1  2  1  0
  1  6  2  0
  2  3  2  0
  3  4  1  0
  3  7  1  0
  4  5  2  0
  5  6  1  0
  7  8  1  0
  7  9  2  0
  2 10  1  0
  4 11  1  0
  5 12  1  0
  6 13  1  0
M  CHG  1   8  -1
M  END
>  <mol_id>  (84) 
2026-09-16-3war-s0-n100-0084

>  <rmsd_to_ref>  (84) 
4.2653061224507

>  <pose_kind>  (84) 
conformer

$$$$
3war.A
     RDKit          3D

 13 13  0  0  0  0  0  0  0  0999 V2000
   -1.0303   19.7638   35.9910 N   0  0  0  0  0  0  0  0  0  0  0  0
   -0.4722   20.7701   36.8157 C   0  0  0  0  0  0  0  0  0  0  0  0
    0.9593   20.9380   36.7688 C   0  0  0  0  0  0  0  0  0  0  0  0
    1.7414   20.1245   35.9685 C   0  0  0  0  0  0  0  0  0  0  0  0
    1.1522   19.1756   35.1619 C   0  0  0  0  0  0  0  0  0  0  0  0
   -0.2112   18.9901   35.2094 C   0  0  0  0  0  0  0  0  0  0  0  0
    1.6349   21.9345   37.6990 C   0  0  0  0  0  0  0  0  0  0  0  0
    0.9111   22.7757   38.3081 O   0  0  0  0  0  0  0  0  0  0  0  0
    2.8389   21.8182   37.7782 O   0  0  0  0  0  0  0  0  0  0  0  0
   -1.1028   21.3964   37.4638 H   0  0  0  0  0  0  0  0  0  0  0  0
    2.8358   20.2355   35.9761 H   0  0  0  0  0  0  0  0  0  0  0  0
    1.7687   18.5686   34.4827 H   0  0  0  0  0  0  0  0  0  0  0  0
   -0.6596   18.1927   34.5985 H   0  0  0  0  0  0  0  0  0  0  0  0
  1  2  1  0
  1  6  2  0
  2  3  2  0
  3  4  1  0
  3  7  1  0
  4  5  2  0
  5  6  1  0
  7  8  1  0
  7  9  2  0
  2 10  1  0
  4 11  1  0
  5 12  1  0
  6 13  1  0
M  CHG  1   8  -1
M  END
>  <mol_id>  (85) 
2026-09-16-3war-s0-n100-0085

>  <rmsd_to_ref>  (85) 
4.311224489796712

>  <pose_kind>  (85) 
rigid

$$$$
3war.A
     RDKit          3D

 13 13  0  0  0  0  0  0  0  0999 V2000
    3.4302   16.1705   36.7492 N   0  0  0  0  0  0  0  0  0  0  0  0
    3.0005   17.1286   37.5600 C   0  0  0  0  0  0  0  0  0  0  0  0
    2.8761   18.4063   37.0420 C   0  0  0  0  0  0  0  0  0  0  0  0
    3.1955   18.6443   35.7237 C   0  0  0  0  0  0  0  0  0  0  0  0
    3.6399   17.6068   34.9202 C   0  0  0  0  0  0  0  0  0  0  0  0
    3.7580   16.3371   35.4549 C   0  0  0  0  0  0  0  0  0  0  0  0
    2.4150   19.4939   37.8672 C   0  0  0  0  0  0  0  0  0  0  0  0
    2.0684   19.3801   39.1889 O   0  0  0  0  0  0  0  0  0  0  0  0
    2.3214   20.6432   37.3359 O   0  0  0  0  0  0  0  0  0  0  0  0
    2.7495   16.9283   38.6058 H   0  0  0  0  0  0  0  0  0  0  0  0
    3.0996   19.6462   35.3114 H   0  0  0  0  0  0  0  0  0  0  0  0
    3.8968   17.7548   33.8928 H   0  0  0  0  0  0  0  0  0  0  0  0
    4.0976   15.4812   34.8888 H   0  0  0  0  0  0  0  0  0  0  0  0
  1  2  1  0
  1  6  2  0
  2  3  2  0
  3  4  1  0
  3  7  1  0
  4  5  2  0
  5  6  1  0
  7  8  1  0
  7  9  2  0
  2 10  1  0
  4 11  1  0
  5 12  1  0
  6 13  1  0
M  CHG  1   8  -1
M  END
>  <mol_id>  (86) 
2026-09-16-3war-s0-n100-0086

>  <rmsd_to_ref>  (86) 
4.357142857144494

>  <pose_kind>  (86) 
conformer

$$$$
3war.A
     RDKit          3D

 13 13  0  0  0  0  0  0  0  0999 V2000
    2.5295   21.0502   40.9009 N   0  0  0  0  0  0  0  0  0  0  0  0
    1.5530   20.4349   41.7204 C   0  0  0  0  0  0  0  0  0  0  0  0
    1.1405   19.1007   41.3611 C   0  0  0  0  0  0  0  0  0  0  0  0
    1.6656   18.4741   40.2449 C   0  0  0  0  0  0  0  0  0  0  0  0
    2.6337   19.1009   39.4915 C   0  0  0  0  0  0  0  0  0  0  0  0
    3.0244   20.3821   39.8104 C   0  0  0  0  0  0  0  0  0  0  0  0
    0.0269   18.4174   42.1406 C   0  0  0  0  0  0  0  0  0  0  0  0
   -0.3358   18.9249   43.2422 O   0  0  0  0  0  0  0  0  0  0  0  0
   -0.4281   17.4263   41.6113 O   0  0  0  0  0  0  0  0  0  0  0  0
    1.1276   20.9519   42.5933 H   0  0  0  0  0  0  0  0  0  0  0  0
    1.3093   17.4736   39.9586 H   0  0  0  0  0  0  0  0  0  0  0  0
    3.0930   18.5799   38.6385 H   0  0  0  0  0  0  0  0  0  0  0  0
    3.7597   20.8879   39.1673 H   0  0  0  0  0  0  0  0  0  0  0  0
  1  2  1  0
  1  6  2  0
  2  3  2  0
  3  4  1  0
  3  7  1  0
  4  5  2  0
  5  6  1  0
  7  8  1  0
  7  9  2  0
  2 10  1  0
  4 11  1  0
  5 12  1  0
  6 13  1  0
M  CHG  1   8  -1
M  END
>  <mol_id>  (87) 
2026-09-16-3war-s0-n100-0087

>  <rmsd_to_ref>  (87) 
4.4030612244918625

>  <pose_kind>  (87) 
rigid

$$$$
3war.A
     RDKit          3D

 13 13  0  0  0  0  0  0  0  0999 V2000
    4.2751   17.2291   36.2247 N   0  0  0  0  0  0  0  0  0  0  0  0
    3.2197   17.1661   37.0262 C   0  0  0  0  0  0  0  0  0  0  0  0
    3.3743   17.5942   38.3335 C   0  0  0  0  0  0  0  0  0  0  0  0
    4.5963   18.0652   38.7594 C   0  0  0  0  0  0  0  0  0  0  0  0
    5.6663   18.1096   37.8804 C   0  0  0  0  0  0  0  0  0  0  0  0
    5.4933   17.6778   36.5783 C   0  0  0  0  0  0  0  0  0  0  0  0
    2.2692   17.5531   39.2576 C   0  0  0  0  0  0  0  0  0  0  0  0
    1.0098   17.1065   38.9507 O   0  0  0  0  0  0  0  0  0  0  0  0
    2.4721   17.9591   40.4432 O   0  0  0  0  0  0  0  0  0  0  0  0
    2.2535   16.7901   36.6774 H   0  0  0  0  0  0  0  0  0  0  0  0
    4.7236   18.4029   39.7854 H   0  0  0  0  0  0  0  0  0  0  0  0
    6.6291   18.4690   38.1763 H   0  0  0  0  0  0  0  0  0  0  0  0
    6.2816   17.6834   35.8388 H   0  0  0  0  0  0  0  0  0  0  0  0
  1  2  1  0
  1  6  2  0
  2  3  2  0
  3  4  1  0
  3  7  1  0
  4  5  2  0
  5  6  1  0
  7  8  1  0
  7  9  2  0
  2 10  1  0
  4 11  1  0
  5 12  1  0
  6 13  1  0
M  CHG  1   8  -1
M  END
>  <mol_id>  (88) 
2026-09-16-3war-s0-n100-0088

>  <rmsd_to_ref>  (88) 
4.448979591838045

>  <pose_kind>  (88) 
conformer

$$$$
3war.A
     RDKit          3D

 13 13  0  0  0  0  0  0  0  0999 V2000
    2.6432   21.2855   38.0911 N   0  0  0  0  0  0  0  0  0  0  0  0
    3.4973   22.0550   38.9174 C   0  0  0  0  0  0  0  0  0  0  0  0
    4.5784   21.3603   39.5716 C   0  0  0  0  0  0  0  0  0  0  0  0
    4.7433   19.9962   39.4104 C   0  0  0  0  0  0  0  0  0  0  0  0
    3.9038   19.2922   38.5752 C   0  0  0  0  0  0  0  0  0  0  0  0
    2.8554   19.9373   37.9585 C   0  0  0  0  0  0  0  0  0  0  0  0
    5.4756   22.1060   40.5481 C   0  0  0  0  0  0  0  0  0  0  0  0
    5.4197   23.3706   40.5716 O   0  0  0  0  0  0  0  0  0  0  0  0
    6.1736   21.3956   41.2391 O   0  0  0  0  0  0  0  0  0  0  0  0
    3.3429   23.1355   39.0543 H   0  0  0  0  0  0  0  0  0  0  0  0
    5.5461   19.4727   39.9503 H   0  0  0  0  0  0  0  0  0  0  0  0
    4.0705   18.2188   38.4018 H   0  0  0  0  0  0  0  0  0  0  0  0
    2.1633   19.3502   37.3369 H   0  0  0  0  0  0  0  0  0  0  0  0
  1  2  1  0
  1  6  2  0
  2  3  2  0
  3  4  1  0
  3  7  1  0
  4  5  2  0
  5  6  1  0
  7  8  1  0
  7  9  2  0
  2 10  1  0
  4 11  1  0
  5 12  1  0
  6 13  1  0
M  CHG  1   8  -1
M  END
>  <mol_id>  (89) 
2026-09-16-3war-s0-n100-0089

>  <rmsd_to_ref>  (89) 
4.4948979591838265

>  <pose_kind>  (89) 
rigid

$$$$
3war.A
     RDKit          3D

 13 13  0  0  0  0  0  0  0  0999 V2000
    7.0077   20.0705   38.7359 N   0  0  0  0  0  0  0  0  0  0  0  0
    6.3442   19.6667   39.8115 C   0  0  0  0  0  0  0  0  0  0  0  0
    5.5550   20.5940   40.4701 C   0  0  0  0  0  0  0  0  0  0  0  0
    5.4811   21.8864   40.0002 C   0  0  0  0  0  0  0  0  0  0  0  0
    6.1951   22.2553   38.8717 C   0  0  0  0  0  0  0  0  0  0  0  0
    6.9782   21.3157   38.2269 C   0  0  0  0  0  0  0  0  0  0  0  0
    4.8075   20.2230   41.6450 C   0  0  0  0  0  0  0  0  0  0  0  0
    4.8016   18.9715   42.2047 O   0  0  0  0  0  0  0  0  0  0  0  0
    4.1016   21.1169   42.2056 O   0  0  0  0  0  0  0  0  0  0  0  0
    6.4102   18.6375   40.1762 H   0  0  0  0  0  0  0  0  0  0  0  0
    4.8626   22.6192   40.5136 H   0  0  0  0  0  0  0  0  0  0  0  0
    6.1616   23.2493   38.4788 H   0  0  0  0  0  0  0  0  0  0  0  0
    7.5614   21.5313   37.3428 H   0  0  0  0  0  0  0  0  0  0  0  0
  1  2  1  0
  1  6  2  0
  2  3  2  0
  3  4  1  0
  3  7  1  0
  4  5  2  0
  5  6  1  0
  7  8  1  0
  7  9  2  0
  2 10  1  0
  4 11  1  0
  5 12  1  0
  6 13  1  0
M  CHG  1   8  -1
M  END
>  <mol_id>  (90) 
2026-09-16-3war-s0-n100-0090

>  <rmsd_to_ref>  (90) 
4.5408163265313

>  <pose_kind>  (90) 
conformer

$$$$
3war.A
     RDKit          3D

 13 13  0  0  0  0  0  0  0  0999 V2000
    4.2353   18.0565   36.1602 N   0  0  0  0  0  0  0  0  0  0  0  0
    3.5661   18.3961   37.3606 C   0  0  0  0  0  0  0  0  0  0  0  0
    4.0943   19.5056   38.1153 C   0  0  0  0  0  0  0  0  0  0  0  0
    5.2228   20.1806   37.6854 C   0  0  0  0  0  0  0  0  0  0  0  0
    5.8258   19.8323   36.4967 C   0  0  0  0  0  0  0  0  0  0  0  0
    5.3452   18.7633   35.7743 C   0  0  0  0  0  0  0  0  0  0  0  0
    3.4831   19.8640   39.4616 C   0  0  0  0  0  0  0  0  0  0  0  0
    2.3681   19.3512   39.7722 O   0  0  0  0  0  0  0  0  0  0  0  0
    4.1474   20.6227   40.1341 O   0  0  0  0  0  0  0  0  0  0  0  0
    2.6820   17.8381   37.7027 H   0  0  0  0  0  0  0  0  0  0  0  0
    5.6394   20.9967   38.2938 H   0  0  0  0  0  0  0  0  0  0  0  0
    6.6881   20.4062   36.1260 H   0  0  0  0  0  0  0  0  0  0  0  0
    5.8703   18.4656   34.8547 H   0  0  0  0  0  0  0  0  0  0  0  0
  1  2  1  0
  1  6  2  0
  2  3  2  0
  3  4  1  0
  3  7  1  0
  4  5  2  0
  5  6  1  0
  7  8  1  0
  7  9  2  0
  2 10  1  0
  4 11  1  0
  5 12  1  0
  6 13  1  0
M  CHG  1   8  -1
M  END
>  <mol_id>  (91) 
2026-09-16-3war-s0-n100-0091

>  <rmsd_to_ref>  (91) 
4.5867346938792055

>  <pose_kind>  (91) 
rigid

$$$$
3war.A
     RDKit          3D

 13 13  0  0  0  0  0  0  0  0999 V2000
    1.4535   21.4972   38.2948 N   0  0  0  0  0  0  0  0  0  0  0  0
    0.2371   21.6891   38.7887 C   0  0  0  0  0  0  0  0  0  0  0  0
   -0.7217   20.7222   38.5395 C   0  0  0  0  0  0  0  0  0  0  0  0
   -0.3937   19.6079   37.7996 C   0  0  0  0  0  0  0  0  0  0  0  0
    0.8924   19.4572   37.3071 C   0  0  0  0  0  0  0  0  0  0  0  0
    1.8371   20.4332   37.5660 C   0  0  0  0  0  0  0  0  0  0  0  0
   -2.0630   20.8672   39.0460 C   0  0  0  0  0  0  0  0  0  0  0  0
   -2.5063   21.9286   39.7921 O   0  0  0  0  0  0  0  0  0  0  0  0
   -2.8982   19.9476   38.7847 O   0  0  0  0  0  0  0  0  0  0  0  0
   -0.0125   22.5781   39.3752 H   0  0  0  0  0  0  0  0  0  0  0  0
   -1.1430   18.8450   37.6006 H   0  0  0  0  0  0  0  0  0  0  0  0
    1.1825   18.6055   36.7292 H   0  0  0  0  0  0  0  0  0  0  0  0
    2.8580   20.3827   37.2147 H   0  0  0  0  0  0  0  0  0  0  0  0
  1  2  1  0
  1  6  2  0
  2  3  2  0
  3  4  1  0
  3  7  1  0
  4  5  2  0
  5  6  1  0
  7  8  1  0
  7  9  2  0
  2 10  1  0
  4 11  1  0
  5 12  1  0
  6 13  1  0
M  CHG  1   8  -1
M  END
>  <mol_id>  (92) 
2026-09-16-3war-s0-n100-0092

>  <rmsd_to_ref>  (92) 
4.6326530612245085

>  <pose_kind>  (92) 
conformer

$$$$
3war.A
     RDKit          3D

 13 13  0  0  0  0  0  0  0  0999 V2000
    3.0819   18.7866   39.1420 N   0  0  0  0  0  0  0  0  0  0  0  0
    2.5290   19.6186   40.1451 C   0  0  0  0  0  0  0  0  0  0  0  0
    2.6755   19.1845   41.5123 C   0  0  0  0  0  0  0  0  0  0  0  0
    3.3072   17.9907   41.8119 C   0  0  0  0  0  0  0  0  0  0  0  0
    3.8539   17.2260   40.8049 C   0  0  0  0  0  0  0  0  0  0  0  0
    3.7058   17.6170   39.4930 C   0  0  0  0  0  0  0  0  0  0  0  0
    2.0230   19.9803   42.6328 C   0  0  0  0  0  0  0  0  0  0  0  0
    1.5863   21.1397   42.3724 O   0  0  0  0  0  0  0  0  0  0  0  0
    1.9731   19.4068   43.6995 O   0  0  0  0  0  0  0  0  0  0  0  0
    2.0103   20.5552   39.8925 H   0  0  0  0  0  0  0  0  0  0  0  0
    3.3731   17.6514   42.8563 H   0  0  0  0  0  0  0  0  0  0  0  0
    4.4066   16.3064   41.0477 H   0  0  0  0  0  0  0  0  0  0  0  0
    4.1022   16.9682   38.6982 H   0  0  0  0  0  0  0  0  0  0  0  0
  1  2  1  0
  1  6  2  0
  2  3  2  0
  3  4  1  0
  3  7  1  0
  4  5  2  0
  5  6  1  0
  7  8  1  0
  7  9  2  0
  2 10  1  0
  4 11  1  0
  5 12  1  0
  6 13  1  0
M  CHG  1   8  -1
M  END
>  <mol_id>  (93) 
2026-09-16-3war-s0-n100-0093

>  <rmsd_to_ref>  (93) 
4.678571428573114

>  <pose_kind>  (93) 
rigid

$$$$
3war.A
     RDKit          3D

 13 13  0  0  0  0  0  0  0  0999 V2000
    3.4477   18.1841   39.0239 N   0  0  0  0  0  0  0  0  0  0  0  0
    2.8504   17.9040   40.1750 C   0  0  0  0  0  0  0  0  0  0  0  0
    3.4299   18.3830   41.3374 C   0  0  0  0  0  0  0  0  0  0  0  0
    4.5890   19.1235   41.2694 C   0  0  0  0  0  0  0  0  0  0  0  0
    5.1716   19.3872   40.0404 C   0  0  0  0  0  0  0  0  0  0  0  0
    4.5787   18.9006   38.8898 C   0  0  0  0  0  0  0  0  0  0  0  0
    2.8338   18.1158   42.6218 C   0  0  0  0  0  0  0  0  0  0  0  0
    1.6848   17.3932   42.8153 O   0  0  0  0  0  0  0  0  0  0  0  0
    3.4112   18.5813   43.6521 O   0  0  0  0  0  0  0  0  0  0  0  0
    1.9297   17.3148   40.2175 H   0  0  0  0  0  0  0  0  0  0  0  0
    5.0487   19.5024   42.1794 H   0  0  0  0  0  0  0  0  0  0  0  0
    6.0711   19.9583   39.9497 H   0  0  0  0  0  0  0  0  0  0  0  0
    4.9762   19.0665   37.8985 H   0  0  0  0  0  0  0  0  0  0  0  0
  1  2  1  0
  1  6  2  0
  2  3  2  0
  3  4  1  0
  3  7  1  0
  4  5  2  0
  5  6  1  0
  7  8  1  0
  7  9  2  0
  2 10  1  0
  4 11  1  0
  5 12  1  0
  6 13  1  0
M  CHG  1   8  -1
M  END
>  <mol_id>  (94) 
2026-09-16-3war-s0-n100-0094

>  <rmsd_to_ref>  (94) 
4.724489795918522

>  <pose_kind>  (94) 
conformer

$$$$
3war.A
     RDKit          3D

 13 13  0  0  0  0  0  0  0  0999 V2000
    6.5775   21.5674   39.6578 N   0  0  0  0  0  0  0  0  0  0  0  0
    5.4590   21.6425   40.5224 C   0  0  0  0  0  0  0  0  0  0  0  0
    4.7819   20.4068   40.8286 C   0  0  0  0  0  0  0  0  0  0  0  0
    5.2025   19.2125   40.2714 C   0  0  0  0  0  0  0  0  0  0  0  0
    6.3127   19.1829   39.4560 C   0  0  0  0  0  0  0  0  0  0  0  0
    6.9586   20.3567   39.1389 C   0  0  0  0  0  0  0  0  0  0  0  0
    3.5166   20.4267   41.6732 C   0  0  0  0  0  0  0  0  0  0  0  0
    3.2290   21.4872   42.3019 O   0  0  0  0  0  0  0  0  0  0  0  0
    2.8792   19.3958   41.6556 O   0  0  0  0  0  0  0  0  0  0  0  0
    5.1214   22.6016   40.9424 H   0  0  0  0  0  0  0  0  0  0  0  0
    4.6496   18.2846   40.4796 H   0  0  0  0  0  0  0  0  0  0  0  0
    6.6815   18.2253   39.0599 H   0  0  0  0  0  0  0  0  0  0  0  0
    7.8110   20.3221   38.4444 H   0  0  0  0  0  0  0  0  0  0  0  0
  1  2  1  0
  1  6  2  0
  2  3  2  0
  3  4  1  0
  3  7  1  0
  4  5  2  0
  5  6  1  0
  7  8  1  0
  7  9  2  0
  2 10  1  0
  4 11  1  0
  5 12  1  0
  6 13  1  0
M  CHG  1   8  -1
M  END
>  <mol_id>  (95) 
2026-09-16-3war-s0-n100-0095

>  <rmsd_to_ref>  (95) 
4.770408163266444

>  <pose_kind>  (95) 
rigid

$$$$
