
     RDKit          3D

 48 50  0  0  0  0  0  0  0  0999 V2000
    2.3127   24.3772   34.6563 C   0  0  0  0  0  0  0  0  0  0  0  0
   -1.2830   20.1055   45.5926 N   0  0  0  0  0  0  0  0  0  0  0  0
    3.5846   23.7948   34.1524 C   0  0  1  0  0  0  0  0  0  0  0  0
    4.2910   21.9766   40.0768 C   0  0  0  0  0  0  0  0  0  0  0  0
    0.6338   18.6865   44.2007 C   0  0  0  0  0  0  0  0  0  0  0  0
    4.9127   22.7752   31.9094 S   0  0  0  0  0  4  0  0  0  0  0  0
    1.5771   18.1902   43.5351 N   0  0  0  0  0  0  0  0  0  0  0  0
    3.7195   21.5685   41.3397 C   0  0  0  0  0  0  0  0  0  0  0  0
    2.6104   20.6678   38.8313 C   0  0  0  0  0  0  0  0  0  0  0  0
    1.5797   16.8891   44.1427 O   0  0  0  0  0  0  0  0  0  0  0  0
    2.2573   21.4859   33.1957 S   0  0  0  0  0  0  0  0  0  0  0  0
    2.1025   20.2130   40.0152 C   0  0  0  0  0  0  0  0  0  0  0  0
    3.6308   21.6950   38.9271 C   0  0  1  0  0  0  0  0  0  0  0  0
    0.3658   20.0093   43.8829 C   0  0  0  0  0  0  0  0  0  0  0  0
    2.4669   23.0201   35.4116 C   0  0  2  0  0  0  0  0  0  0  0  0
    4.1372   22.4103   30.6246 O   0  0  0  0  0  0  0  0  0  0  0  0
   -0.0806   18.0715   45.1907 C   0  0  0  0  0  0  0  0  0  0  0  0
    2.5366   22.9193   32.0951 C   0  0  0  0  0  0  0  0  0  0  0  0
   -0.6206   20.7402   44.5700 C   0  0  0  0  0  0  0  0  0  0  0  0
   -1.7444   18.1730   47.1545 C   0  0  0  0  0  0  0  0  0  0  0  0
    5.5468   22.8240   40.0016 F   0  0  0  0  0  0  0  0  0  0  0  0
    1.7832   20.3953   42.6236 C   0  0  0  0  0  0  0  0  0  0  0  0
    2.3263   21.7227   34.8033 N   0  0  0  0  0  0  0  0  0  0  0  0
    3.9095   22.2309   37.7746 F   0  0  0  0  0  0  0  0  0  0  0  0
    3.5970   23.6430   32.6836 C   0  0  1  0  0  0  0  0  0  0  0  0
    2.6144   20.7179   41.2983 C   0  0  0  0  0  0  0  0  0  0  0  0
   -1.0174   18.7815   45.9657 C   0  0  1  0  0  0  0  0  0  0  0  0
    2.3816   25.2978   35.2543 H   0  0  0  0  0  0  0  0  0  0  0  0
    1.4518   24.7363   34.0733 H   0  0  0  0  0  0  0  0  0  0  0  0
    4.6801   23.8923   34.1345 H   0  0  0  0  0  0  0  0  0  0  0  0
    5.3082   21.6723   32.6192 H   0  0  0  0  0  0  0  0  0  0  0  0
    2.1634   18.5905   42.7890 H   0  0  0  0  0  0  0  0  0  0  0  0
    4.1390   21.9147   42.2957 H   0  0  0  0  0  0  0  0  0  0  0  0
    2.2660   20.2782   37.8620 H   0  0  0  0  0  0  0  0  0  0  0  0
    1.4870   16.9830   45.1239 H   0  0  0  0  0  0  0  0  0  0  0  0
    1.3008   19.4599   40.0088 H   0  0  0  0  0  0  0  0  0  0  0  0
    4.4101   20.9362   38.7627 H   0  0  0  0  0  0  0  0  0  0  0  0
    2.2010   22.7674   36.4486 H   0  0  0  0  0  0  0  0  0  0  0  0
    0.0797   17.0009   45.3857 H   0  0  0  0  0  0  0  0  0  0  0  0
    1.6316   23.5419   32.0367 H   0  0  0  0  0  0  0  0  0  0  0  0
    2.7754   22.6062   31.0681 H   0  0  0  0  0  0  0  0  0  0  0  0
   -0.8527   21.7806   44.2986 H   0  0  0  0  0  0  0  0  0  0  0  0
   -1.4409   18.6929   48.0752 H   0  0  0  0  0  0  0  0  0  0  0  0
   -2.8302   18.2797   47.0142 H   0  0  0  0  0  0  0  0  0  0  0  0
   -1.4880   17.1063   47.2344 H   0  0  0  0  0  0  0  0  0  0  0  0
    1.4547   21.3269   35.1835 H   0  0  0  0  0  0  0  0  0  0  0  0
    3.6090   24.7305   32.5186 H   0  0  0  0  0  0  0  0  0  0  0  0
   -1.8265   18.4335   45.3066 H   0  0  0  0  0  0  0  0  0  0  0  0
  2 27  1  0
  3  1  1  0
  3 15  1  0
  4  8  2  0
  5 17  2  0
  7 10  1  0
  7  5  1  0
  9 13  1  0
  9 12  2  0
 11 23  1  0
 12 26  1  0
 13 24  1  0
 13  4  1  0
 14  5  1  0
 14 19  1  0
 15  1  1  0
 16  6  2  0
 17 27  1  0
 18 25  1  0
 18 11  1  0
 19  2  2  0
 21  4  1  0
 22 14  2  0
 23 15  1  0
 25  6  1  0
 25  3  1  0
 26  8  1  0
 26 22  2  0
 27 20  1  0
  1 28  1  0
  1 29  1  0
  3 30  1  1
  6 31  1  1
  7 32  1  0
  8 33  1  0
  9 34  1  0
 10 35  1  0
 12 36  1  0
 13 37  1  1
 15 38  1  1
 17 39  1  0
 18 40  1  0
 18 41  1  0
 19 42  1  0
 20 43  1  0
 20 44  1  0
 20 45  1  0
 23 46  1  0
 25 47  1  6
 27 48  1  6
M  END
>  <mol_id>  (1) 
2026-09-18-6fnk-s0-n100-0001

>  <rmsd_to_ref>  (1) 


$$$$

     RDKit          3D

 58 58  0  0  0  0  0  0  0  0999 V2000
    1.3808   15.8005   36.9035 N   0  0  0  0  0  0  0  0  0  0  0  0
    2.4512   24.4057   33.9383 C   0  0  0  0  0  0  0  0  0  0  0  0
    0.5616   17.0963   39.9438 C   0  0  0  0  0  0  0  0  0  0  0  0
   -0.5139   16.0115   40.2506 C   0  0  0  0  0  0  0  0  0  0  0  0
    2.0426   23.3993   36.2892 C   0  0  1  0  0  0  0  0  0  0  0  0
    4.5439   20.6571   39.7439 N   0  0  0  0  0  0  0  0  0  0  0  0
   -2.2858   13.5705   41.0433 O   0  0  0  0  0  0  0  0  0  0  0  0
    5.2818   21.3194   40.8143 C   0  0  0  0  0  0  0  0  0  0  0  0
    2.3187   22.3951   37.3631 C   0  0  0  0  0  0  0  0  0  0  0  0
    0.9744   26.5114   34.6632 C   0  0  2  0  0  0  0  0  0  0  0  0
    1.9992   18.3847   38.5695 C   0  0  0  0  0  0  0  0  0  0  0  0
    3.0717   21.5546   37.9447 C   0  0  0  0  0  0  0  0  0  0  0  0
   -3.6942   14.4831   39.5451 O   0  0  0  0  0  0  0  0  0  0  0  0
    0.3605   16.6188   37.3892 C   0  0  0  0  0  0  0  0  0  0  0  0
    2.2935   21.3130   40.3127 C   0  0  0  0  0  0  0  0  0  0  0  0
    0.6417   25.3687   35.5795 C   0  0  0  0  0  0  0  0  0  0  0  0
    1.0534   24.3923   36.4045 C   0  0  0  0  0  0  0  0  0  0  0  0
    3.1575   21.1602   39.3427 C   0  0  0  0  0  0  0  0  0  0  0  0
    5.0612   20.9086   42.2097 C   0  0  0  0  0  0  0  0  0  0  0  0
    3.3515   23.9618   35.2663 S   0  0  0  0  0  0  0  0  0  0  0  0
   -0.6974   16.7933   36.7702 O   0  0  0  0  0  0  0  0  0  0  0  0
   -1.3936   15.1448   39.4217 C   0  0  0  0  0  0  0  0  0  0  0  0
    0.9391   17.3967   38.6161 C   0  0  0  0  0  0  0  0  0  0  0  0
    1.0765   26.7724   33.2709 C   0  0  0  0  0  0  0  0  0  0  0  0
    2.2077   25.9927   33.8678 C   0  0  2  0  0  0  0  0  0  0  0  0
   -2.5811   14.3311   40.0389 C   0  0  0  0  0  0  0  0  0  0  0  0
    1.2112   15.1953   36.0875 H   0  0  0  0  0  0  0  0  0  0  0  0
    2.3037   15.8017   37.3609 H   0  0  0  0  0  0  0  0  0  0  0  0
    2.9828   24.0888   33.0289 H   0  0  0  0  0  0  0  0  0  0  0  0
    1.4685   23.9183   34.0204 H   0  0  0  0  0  0  0  0  0  0  0  0
    1.0354   17.6379   40.7758 H   0  0  0  0  0  0  0  0  0  0  0  0
   -0.6552   15.8491   41.3293 H   0  0  0  0  0  0  0  0  0  0  0  0
    1.5152   22.5749   35.7870 H   0  0  0  0  0  0  0  0  0  0  0  0
    5.1336   20.7084   38.9010 H   0  0  0  0  0  0  0  0  0  0  0  0
    4.3518   19.7231   40.1333 H   0  0  0  0  0  0  0  0  0  0  0  0
    6.3514   21.1731   40.6033 H   0  0  0  0  0  0  0  0  0  0  0  0
    4.9042   22.3522   40.7869 H   0  0  0  0  0  0  0  0  0  0  0  0
    2.1035   23.0353   38.2313 H   0  0  0  0  0  0  0  0  0  0  0  0
    2.0337   21.6037   36.6543 H   0  0  0  0  0  0  0  0  0  0  0  0
    0.4768   27.2161   35.3456 H   0  0  0  0  0  0  0  0  0  0  0  0
    2.2776   18.6724   39.5941 H   0  0  0  0  0  0  0  0  0  0  0  0
    2.8748   17.9592   38.0574 H   0  0  0  0  0  0  0  0  0  0  0  0
    1.6495   19.2722   38.0217 H   0  0  0  0  0  0  0  0  0  0  0  0
    2.8717   20.6110   37.4161 H   0  0  0  0  0  0  0  0  0  0  0  0
    3.9928   22.1553   37.9163 H   0  0  0  0  0  0  0  0  0  0  0  0
    2.5302   20.9474   41.3228 H   0  0  0  0  0  0  0  0  0  0  0  0
    1.3301   21.8070   40.1184 H   0  0  0  0  0  0  0  0  0  0  0  0
   -0.0340   25.8968   36.2683 H   0  0  0  0  0  0  0  0  0  0  0  0
    0.7577   24.6775   34.7316 H   0  0  0  0  0  0  0  0  0  0  0  0
    0.1357   23.8166   36.5954 H   0  0  0  0  0  0  0  0  0  0  0  0
    1.6216   25.0450   37.0836 H   0  0  0  0  0  0  0  0  0  0  0  0
    5.1778   21.7797   42.8711 H   0  0  0  0  0  0  0  0  0  0  0  0
    4.0449   20.5012   42.3157 H   0  0  0  0  0  0  0  0  0  0  0  0
    5.7958   20.1378   42.4855 H   0  0  0  0  0  0  0  0  0  0  0  0
   -1.2042   15.0730   38.3405 H   0  0  0  0  0  0  0  0  0  0  0  0
    0.3848   26.2708   32.5781 H   0  0  0  0  0  0  0  0  0  0  0  0
    1.0330   27.6958   32.6748 H   0  0  0  0  0  0  0  0  0  0  0  0
    3.2960   26.0971   33.7459 H   0  0  0  0  0  0  0  0  0  0  0  0
  1 14  1  0
  2 20  1  0
  3  4  1  0
  5 17  1  0
  5  9  1  0
  6  8  1  0
  8 19  1  0
  9 12  1  0
 10 24  1  0
 10 16  1  0
 11 23  1  0
 12 18  1  0
 13 26  2  0
 14 23  1  0
 16 17  1  0
 18  6  1  0
 18 15  2  3
 20  5  1  0
 21 14  2  0
 22  4  2  3
 22 26  1  0
 23  3  2  3
 25 24  1  0
 25  2  1  0
 25 10  1  0
 26  7  1  0
  1 27  1  0
  1 28  1  0
  2 29  1  0
  2 30  1  0
  3 31  1  0
  4 32  1  0
  5 33  1  6
  6 34  1  0
  6 35  1  0
  8 36  1  0
  8 37  1  0
  9 38  1  0
  9 39  1  0
 10 40  1  1
 11 41  1  0
 11 42  1  0
 11 43  1  0
 12 44  1  0
 12 45  1  0
 15 46  1  0
 15 47  1  0
 16 48  1  0
 16 49  1  0
 17 50  1  0
 17 51  1  0
 19 52  1  0
 19 53  1  0
 19 54  1  0
 22 55  1  0
 24 56  1  0
 24 57  1  0
 25 58  1  1
M  CHG  2   6   1   7  -1
M  END
>  <mol_id>  (2) 
2026-09-18-6fnk-s0-n100-0002

>  <rmsd_to_ref>  (2) 


$$$$

     RDKit          3D

 52 54  0  0  0  0  0  0  0  0999 V2000
    2.7211   17.6417   38.6644 N   0  0  0  0  0  0  0  0  0  0  0  0
    2.7471   23.6144   34.5694 C   0  0  0  0  0  0  0  0  0  0  0  0
    3.4141   22.8395   35.7364 C   0  0  0  0  0  0  0  0  0  0  0  0
    2.3798   18.6824   39.2114 C   0  0  2  0  0  0  0  0  0  0  0  0
    0.2974   26.1463   33.1381 C   0  0  2  0  0  0  0  0  0  0  0  0
    1.4413   14.1059   38.5721 S   0  0  0  0  0  0  0  0  0  0  0  0
    3.4066   16.7567   37.6128 C   0  0  0  0  0  0  0  0  0  0  0  0
    1.1351   15.7831   37.9474 N   0  0  0  0  0  0  0  0  0  0  0  0
    1.9535   19.8461   42.7111 C   0  0  0  0  0  0  0  0  0  0  0  0
    2.4002   15.6118   37.3470 C   0  0  2  0  0  0  0  0  0  0  0  0
    2.9345   22.8045   37.2226 C   0  0  0  0  0  0  0  0  0  0  0  0
    2.4514   18.8231   38.0941 O   0  0  0  0  0  0  0  0  0  0  0  0
    2.4374   20.7524   40.2154 C   0  0  0  0  0  0  0  0  0  0  0  0
    1.7298   21.5815   41.0718 C   0  0  0  0  0  0  0  0  0  0  0  0
    1.9860   25.6491   32.9136 S   0  0  0  0  0  0  0  0  0  0  0  0
   -0.1331   25.9466   34.2746 C   0  0  0  0  0  0  0  0  0  0  0  0
    2.1285   18.8363   41.6618 C   0  0  0  0  0  0  0  0  0  0  0  0
    0.1479   25.3815   35.0726 C   0  0  0  0  0  0  0  0  0  0  0  0
    2.1975   21.6466   37.8427 C   0  0  0  0  0  0  0  0  0  0  0  0
    2.8400   21.0815   39.0167 O   0  0  0  0  0  0  0  0  0  0  0  0
    4.2847   16.9110   36.9368 O   0  0  0  0  0  0  0  0  0  0  0  0
    1.9091   24.6141   33.9534 C   0  0  0  0  0  0  0  0  0  0  0  0
    2.1227   19.6315   44.0428 O   0  0  0  0  0  0  0  0  0  0  0  0
    1.4408   21.0862   42.3491 C   0  0  0  0  0  0  0  0  0  0  0  0
   -0.5567   26.2580   31.8892 C   0  0  0  0  0  0  0  0  0  0  0  0
    2.9231   14.2558   37.4977 C   0  0  0  0  0  0  0  0  0  0  0  0
    1.0144   19.3543   44.9291 C   0  0  0  0  0  0  0  0  0  0  0  0
    2.2668   19.2708   40.4017 C   0  0  0  0  0  0  0  0  0  0  0  0
    4.3145   22.2565   35.4928 H   0  0  0  0  0  0  0  0  0  0  0  0
    1.9539   19.1517   40.1105 H   0  0  0  0  0  0  0  0  0  0  0  0
    0.1818   27.2372   33.2179 H   0  0  0  0  0  0  0  0  0  0  0  0
    0.3430   15.8769   37.2957 H   0  0  0  0  0  0  0  0  0  0  0  0
    2.2280   15.7148   36.2655 H   0  0  0  0  0  0  0  0  0  0  0  0
    3.8403   22.9419   37.8315 H   0  0  0  0  0  0  0  0  0  0  0  0
    2.1449   23.5701   37.2057 H   0  0  0  0  0  0  0  0  0  0  0  0
    1.4087   22.5866   40.7609 H   0  0  0  0  0  0  0  0  0  0  0  0
   -1.0485   26.5220   34.4772 H   0  0  0  0  0  0  0  0  0  0  0  0
    2.1456   17.7626   41.9003 H   0  0  0  0  0  0  0  0  0  0  0  0
   -0.4490   25.3991   35.9964 H   0  0  0  0  0  0  0  0  0  0  0  0
    1.0486   24.7529   35.0116 H   0  0  0  0  0  0  0  0  0  0  0  0
    1.1951   21.9937   38.1335 H   0  0  0  0  0  0  0  0  0  0  0  0
    2.1743   20.8493   37.0851 H   0  0  0  0  0  0  0  0  0  0  0  0
    0.9037   24.5958   34.3992 H   0  0  0  0  0  0  0  0  0  0  0  0
    0.8220   21.6655   43.0502 H   0  0  0  0  0  0  0  0  0  0  0  0
   -1.6005   26.4548   32.1752 H   0  0  0  0  0  0  0  0  0  0  0  0
   -0.1859   27.0837   31.2641 H   0  0  0  0  0  0  0  0  0  0  0  0
   -0.5029   25.3166   31.3228 H   0  0  0  0  0  0  0  0  0  0  0  0
    2.9246   13.6359   36.5891 H   0  0  0  0  0  0  0  0  0  0  0  0
    3.9504   14.0060   37.8016 H   0  0  0  0  0  0  0  0  0  0  0  0
    1.3394   19.4785   45.9725 H   0  0  0  0  0  0  0  0  0  0  0  0
    0.1910   20.0519   44.7159 H   0  0  0  0  0  0  0  0  0  0  0  0
    0.6696   18.3214   44.7730 H   0  0  0  0  0  0  0  0  0  0  0  0
  1  4  1  0
  2  3  2  0
  3 11  1  0
  4 28  1  0
  5 25  1  0
  5 16  1  0
  7  1  1  0
  8  6  1  0
  9 23  1  0
 10 26  1  0
 10  7  1  0
 10  8  1  0
 11 19  1  0
 12  1  1  0
 12  4  1  0
 13 28  2  0
 13 14  1  0
 14 24  2  0
 15  5  1  0
 15 22  1  0
 16 18  2  3
 17  9  2  0
 19 20  1  0
 20 13  1  0
 21  7  2  0
 22  2  2  0
 23 27  1  0
 24  9  1  0
 26  6  1  0
 28 17  1  0
  3 29  1  0
  4 30  1  6
  5 31  1  1
  8 32  1  0
 10 33  1  6
 11 34  1  0
 11 35  1  0
 14 36  1  0
 16 37  1  0
 17 38  1  0
 18 39  1  0
 18 40  1  0
 19 41  1  0
 19 42  1  0
 22 43  1  0
 24 44  1  0
 25 45  1  0
 25 46  1  0
 25 47  1  0
 26 48  1  0
 26 49  1  0
 27 50  1  0
 27 51  1  0
 27 52  1  0
M  END
>  <mol_id>  (3) 
2026-09-18-6fnk-s0-n100-0003

>  <rmsd_to_ref>  (3) 


$$$$

     RDKit          3D

 63 65  0  0  0  0  0  0  0  0999 V2000
    1.8183   21.0496   41.5550 O   0  0  0  0  0  0  0  0  0  0  0  0
    0.1185   18.0198   40.8854 C   0  0  1  0  0  0  0  0  0  0  0  0
    1.3572   18.5983   42.9905 C   0  0  0  0  0  0  0  0  0  0  0  0
    0.8255   17.2428   43.5722 C   0  0  0  0  0  0  0  0  0  0  0  0
    0.9977   18.8504   41.6183 C   0  0  2  0  0  0  0  0  0  0  0  0
    0.1263   18.1515   39.5195 O   0  0  0  0  0  0  0  0  0  0  0  0
   -1.0145   29.6424   35.4572 C   0  0  0  0  0  0  0  0  0  0  0  0
    1.5139   23.4108   36.0773 C   0  0  0  0  0  0  0  0  0  0  0  0
    2.6882   25.1960   33.0368 C   0  0  1  0  0  0  0  0  0  0  0  0
   -0.6837   17.1590   41.6403 C   0  0  0  0  0  0  0  0  0  0  0  0
    1.5108   20.0610   40.9292 C   0  0  0  0  0  0  0  0  0  0  0  0
    0.4044   26.0642   34.1009 C   0  0  0  0  0  0  0  0  0  0  0  0
    1.7673   21.4914   37.6351 C   0  0  0  0  0  0  0  0  0  0  0  0
    2.2810   24.5526   35.5401 C   0  0  0  0  0  0  0  0  0  0  0  0
    0.2106   16.9651   38.6939 C   0  0  0  0  0  0  0  0  0  0  0  0
    3.9033   21.1560   39.0772 C   0  0  0  0  0  0  0  0  0  0  0  0
    3.0408   24.2082   34.2566 C   0  0  0  0  0  0  0  0  0  0  0  0
    2.3093   22.1907   36.4618 C   0  0  0  0  0  0  0  0  0  0  0  0
    1.5559   25.2382   32.0506 C   0  0  0  0  0  0  0  0  0  0  0  0
    1.6504   26.1762   33.2779 C   0  0  2  0  0  0  0  0  0  0  0  0
    2.3971   20.9205   38.7757 C   0  0  0  0  0  0  0  0  0  0  0  0
   -0.3665   16.6657   42.9009 C   0  0  0  0  0  0  0  0  0  0  0  0
    1.6765   19.9889   39.5561 N   0  0  0  0  0  0  0  0  0  0  0  0
    1.0307   28.6046   34.0046 N   0  0  0  0  0  0  0  0  0  0  0  0
    0.0094   29.1965   34.7036 C   0  0  0  0  0  0  0  0  0  0  0  0
    0.8900   27.2837   33.5548 C   0  0  2  0  0  0  0  0  0  0  0  0
   -0.6528   18.8008   40.9563 H   0  0  0  0  0  0  0  0  0  0  0  0
    0.9537   19.4161   43.6056 H   0  0  0  0  0  0  0  0  0  0  0  0
    2.4551   18.5363   43.0162 H   0  0  0  0  0  0  0  0  0  0  0  0
    1.6391   16.5057   43.5039 H   0  0  0  0  0  0  0  0  0  0  0  0
    0.5050   17.4682   44.6001 H   0  0  0  0  0  0  0  0  0  0  0  0
    1.8557   18.2733   41.2432 H   0  0  0  0  0  0  0  0  0  0  0  0
   -0.7071   29.6720   36.5129 H   0  0  0  0  0  0  0  0  0  0  0  0
   -1.2980   30.6534   35.1294 H   0  0  0  0  0  0  0  0  0  0  0  0
   -1.8745   28.9658   35.3446 H   0  0  0  0  0  0  0  0  0  0  0  0
    0.7850   23.1074   35.3114 H   0  0  0  0  0  0  0  0  0  0  0  0
    1.0660   23.7746   37.0138 H   0  0  0  0  0  0  0  0  0  0  0  0
    3.7610   25.1178   32.8068 H   0  0  0  0  0  0  0  0  0  0  0  0
   -1.6429   16.8469   41.2017 H   0  0  0  0  0  0  0  0  0  0  0  0
   -0.4974   25.5859   33.6910 H   0  0  0  0  0  0  0  0  0  0  0  0
    0.1345   25.6845   35.0973 H   0  0  0  0  0  0  0  0  0  0  0  0
    0.6719   21.3910   37.6306 H   0  0  0  0  0  0  0  0  0  0  0  0
    1.5825   25.3746   35.3247 H   0  0  0  0  0  0  0  0  0  0  0  0
    3.0255   24.8365   36.2985 H   0  0  0  0  0  0  0  0  0  0  0  0
    0.4636   16.0983   39.3222 H   0  0  0  0  0  0  0  0  0  0  0  0
   -0.7578   16.7912   38.2020 H   0  0  0  0  0  0  0  0  0  0  0  0
    0.9900   17.1043   37.9303 H   0  0  0  0  0  0  0  0  0  0  0  0
    4.0507   21.2413   40.1639 H   0  0  0  0  0  0  0  0  0  0  0  0
    4.4910   20.3094   38.6927 H   0  0  0  0  0  0  0  0  0  0  0  0
    4.2343   22.0842   38.5883 H   0  0  0  0  0  0  0  0  0  0  0  0
    2.7836   23.1802   33.9615 H   0  0  0  0  0  0  0  0  0  0  0  0
    4.1147   24.3163   34.4693 H   0  0  0  0  0  0  0  0  0  0  0  0
    2.3135   21.4938   35.6108 H   0  0  0  0  0  0  0  0  0  0  0  0
    3.3224   22.5304   36.7232 H   0  0  0  0  0  0  0  0  0  0  0  0
    1.7137   25.6293   31.0347 H   0  0  0  0  0  0  0  0  0  0  0  0
    0.8225   24.5239   31.6482 H   0  0  0  0  0  0  0  0  0  0  0  0
   -0.9721   15.8822   43.3799 H   0  0  0  0  0  0  0  0  0  0  0  0
    1.2408   19.1948   39.0659 H   0  0  0  0  0  0  0  0  0  0  0  0
    1.2001   29.1872   33.1723 H   0  0  0  0  0  0  0  0  0  0  0  0
    1.7911   28.5428   34.6966 H   0  0  0  0  0  0  0  0  0  0  0  0
    0.6742   29.9915   35.0724 H   0  0  0  0  0  0  0  0  0  0  0  0
   -0.6979   28.9133   33.9102 H   0  0  0  0  0  0  0  0  0  0  0  0
    0.5215   28.1347   32.9630 H   0  0  0  0  0  0  0  0  0  0  0  0
  2  6  1  0
  2 10  1  0
  2  5  1  0
  3  4  1  0
  5 11  1  0
  5  3  1  0
  8 18  1  0
  9 20  1  0
  9 17  1  0
 10 22  2  0
 11  1  2  0
 13 21  2  3
 14  8  1  0
 15  6  1  0
 17 14  1  0
 18 13  1  0
 19  9  1  0
 20 19  1  6
 20 26  1  0
 20 12  1  0
 21 16  1  0
 21 23  1  0
 22  4  1  0
 23 11  1  0
 24 25  1  0
 25  7  1  0
 26 12  1  0
 26 24  1  0
  2 27  1  1
  3 28  1  0
  3 29  1  0
  4 30  1  0
  4 31  1  0
  5 32  1  6
  7 33  1  0
  7 34  1  0
  7 35  1  0
  8 36  1  0
  8 37  1  0
  9 38  1  6
 10 39  1  0
 12 40  1  0
 12 41  1  0
 13 42  1  0
 14 43  1  0
 14 44  1  0
 15 45  1  0
 15 46  1  0
 15 47  1  0
 16 48  1  0
 16 49  1  0
 16 50  1  0
 17 51  1  0
 17 52  1  0
 18 53  1  0
 18 54  1  0
 19 55  1  0
 19 56  1  0
 22 57  1  0
 23 58  1  0
 24 59  1  0
 24 60  1  0
 25 61  1  0
 25 62  1  0
 26 63  1  6
M  CHG  1  24   1
M  END
>  <mol_id>  (4) 
2026-09-18-6fnk-s0-n100-0004

>  <rmsd_to_ref>  (4) 


$$$$

     RDKit          3D

 42 41  0  0  0  0  0  0  0  0999 V2000
    4.1731   23.3691   35.8592 C   0  0  0  0  0  0  0  0  0  0  0  0
    2.7117   22.5225   35.9691 C   0  0  0  0  0  0  0  0  0  0  0  0
    0.5505   21.1457   40.4491 C   0  0  0  0  0  0  0  0  0  0  0  0
    2.6530   22.4081   37.5118 C   0  0  1  0  0  0  0  0  0  0  0  0
    5.7881   22.7384   39.0884 C   0  0  0  0  0  0  0  0  0  0  0  0
   -0.5464   21.2737   43.9815 N   0  0  0  0  0  0  0  0  0  0  0  0
   -0.0020   21.5356   42.7695 C   0  0  1  0  0  0  0  0  0  0  0  0
    5.5305   23.5582   36.8004 C   0  0  0  0  0  0  0  0  0  0  0  0
    0.5263   22.5173   42.2436 N   0  0  0  0  0  0  0  0  0  0  0  0
    1.7772   21.0642   37.3258 O   0  0  0  0  0  0  0  0  0  0  0  0
   -0.1257   22.3054   37.7671 O   0  0  0  0  0  0  0  0  0  0  0  0
    0.1653   20.0625   41.6647 S   0  0  0  0  0  0  0  0  0  0  0  0
    6.2979   22.9369   37.8070 C   0  0  0  0  0  0  0  0  0  0  0  0
    3.3459   22.2173   38.8573 C   0  0  0  0  0  0  0  0  0  0  0  0
    0.7170   21.4167   37.7797 C   0  0  0  0  0  0  0  0  0  0  0  0
    0.6351   22.4726   40.8763 C   0  0  0  0  0  0  0  0  0  0  0  0
    0.1671   20.1888   37.9585 F   0  0  0  0  0  0  0  0  0  0  0  0
    4.5924   22.9934   34.9142 H   0  0  0  0  0  0  0  0  0  0  0  0
    3.7318   24.3306   36.1603 H   0  0  0  0  0  0  0  0  0  0  0  0
    1.8658   23.0944   35.5601 H   0  0  0  0  0  0  0  0  0  0  0  0
    2.6553   21.5771   35.4097 H   0  0  0  0  0  0  0  0  0  0  0  0
   -0.2241   21.0817   39.6707 H   0  0  0  0  0  0  0  0  0  0  0  0
    1.5478   20.8665   40.0785 H   0  0  0  0  0  0  0  0  0  0  0  0
    2.7135   23.4710   37.7883 H   0  0  0  0  0  0  0  0  0  0  0  0
    6.2781   23.4303   39.7893 H   0  0  0  0  0  0  0  0  0  0  0  0
    4.7043   22.9264   39.0851 H   0  0  0  0  0  0  0  0  0  0  0  0
    5.9794   21.7017   39.4026 H   0  0  0  0  0  0  0  0  0  0  0  0
   -0.1304   21.8984   44.6870 H   0  0  0  0  0  0  0  0  0  0  0  0
   -1.5637   21.4297   43.9419 H   0  0  0  0  0  0  0  0  0  0  0  0
   -0.3590   20.2938   44.2375 H   0  0  0  0  0  0  0  0  0  0  0  0
   -0.9839   21.8661   42.3998 H   0  0  0  0  0  0  0  0  0  0  0  0
    6.2959   23.7030   36.0238 H   0  0  0  0  0  0  0  0  0  0  0  0
    4.9611   24.1264   37.5508 H   0  0  0  0  0  0  0  0  0  0  0  0
   -0.0319   23.3471   42.4898 H   0  0  0  0  0  0  0  0  0  0  0  0
    1.4917   22.5426   42.6017 H   0  0  0  0  0  0  0  0  0  0  0  0
    6.5688   21.9426   37.4225 H   0  0  0  0  0  0  0  0  0  0  0  0
    7.1002   23.6691   37.9807 H   0  0  0  0  0  0  0  0  0  0  0  0
    2.7606   22.7144   39.6449 H   0  0  0  0  0  0  0  0  0  0  0  0
    3.4233   21.1430   39.0808 H   0  0  0  0  0  0  0  0  0  0  0  0
    4.3534   22.6569   38.8165 H   0  0  0  0  0  0  0  0  0  0  0  0
    1.6035   22.8958   40.5707 H   0  0  0  0  0  0  0  0  0  0  0  0
   -0.1782   23.0581   40.4228 H   0  0  0  0  0  0  0  0  0  0  0  0
  1  2  1  0
  1  8  1  0
  2  4  1  0
  3 16  1  0
  3 12  1  0
  4 14  1  0
  7  6  1  0
  8 13  1  0
  9  7  1  0
 10  4  1  0
 10 15  1  0
 12  7  1  0
 13  5  1  0
 15 11  2  0
 16  9  1  0
 17 15  1  0
  1 18  1  0
  1 19  1  0
  2 20  1  0
  2 21  1  0
  3 22  1  0
  3 23  1  0
  4 24  1  1
  5 25  1  0
  5 26  1  0
  5 27  1  0
  6 28  1  0
  6 29  1  0
  6 30  1  0
  7 31  1  6
  8 32  1  0
  8 33  1  0
  9 34  1  0
  9 35  1  0
 13 36  1  0
 13 37  1  0
 14 38  1  0
 14 39  1  0
 14 40  1  0
 16 41  1  0
 16 42  1  0
M  CHG  2   6   1   9   1
M  END
>  <mol_id>  (5) 
2026-09-18-6fnk-s0-n100-0005

>  <rmsd_to_ref>  (5) 


$$$$

     RDKit          3D

 53 56  0  0  0  0  0  0  0  0999 V2000
    1.4489   17.8333   38.3573 C   0  0  0  0  0  0  0  0  0  0  0  0
   -0.0630   16.4001   40.6531 N   0  0  0  0  0  0  0  0  0  0  0  0
    2.8194   25.9093   31.7457 C   0  0  0  0  0  0  0  0  0  0  0  0
    2.8248   21.4362   37.8457 C   0  0  0  0  0  0  0  0  0  0  0  0
    3.3588   24.3631   33.7304 C   0  0  0  0  0  0  0  0  0  0  0  0
   -0.3183   15.3017   41.4248 C   0  0  0  0  0  0  0  0  0  0  0  0
    4.3244   19.5162   41.8994 F   0  0  0  0  0  0  0  0  0  0  0  0
    1.0738   24.7356   34.9174 C   0  0  2  0  0  0  0  0  0  0  0  0
   -1.5504   14.8571   41.1290 N   0  0  0  0  0  0  0  0  0  0  0  0
    2.1830   23.6255   34.5416 S   0  0  2  0  0  4  0  0  0  0  0  0
    1.7215   17.9642   39.8004 C   0  0  0  0  0  0  0  0  0  0  0  0
   -1.1098   16.5911   39.8704 C   0  0  0  0  0  0  0  0  0  0  0  0
    2.6307   20.0327   37.5690 C   0  0  0  0  0  0  0  0  0  0  0  0
    3.2526   18.8440   41.5172 C   0  0  0  0  0  0  0  0  0  0  0  0
    2.1300   24.2640   37.5978 S   0  0  0  0  0  0  0  0  0  0  0  0
    2.5442   22.6177   36.9728 C   0  0  2  0  0  0  0  0  0  0  0  0
    1.0609   17.2221   40.8194 C   0  0  0  0  0  0  0  0  0  0  0  0
    2.8512   18.7687   40.1990 C   0  0  0  0  0  0  0  0  0  0  0  0
    1.9767   18.9413   37.5653 N   0  0  0  0  0  0  0  0  0  0  0  0
    1.1655   25.6586   33.7475 C   0  0  0  0  0  0  0  0  0  0  0  0
    2.7459   22.5508   35.6086 C   0  0  0  0  0  0  0  0  0  0  0  0
    1.2334   25.1853   36.3767 C   0  0  0  0  0  0  0  0  0  0  0  0
    0.7143   17.0102   37.8049 O   0  0  0  0  0  0  0  0  0  0  0  0
    1.4754   17.3639   42.2351 C   0  0  0  0  0  0  0  0  0  0  0  0
    2.5254   18.1715   42.5342 C   0  0  0  0  0  0  0  0  0  0  0  0
   -2.0299   15.6779   40.1316 C   0  0  0  0  0  0  0  0  0  0  0  0
    2.3179   25.1411   32.9796 C   0  0  1  0  0  0  0  0  0  0  0  0
    3.6739   26.5413   32.0296 H   0  0  0  0  0  0  0  0  0  0  0  0
    3.1336   25.1942   30.9713 H   0  0  0  0  0  0  0  0  0  0  0  0
    2.0096   26.5421   31.3537 H   0  0  0  0  0  0  0  0  0  0  0  0
    2.2307   21.6201   38.7530 H   0  0  0  0  0  0  0  0  0  0  0  0
    3.9228   21.4553   37.7826 H   0  0  0  0  0  0  0  0  0  0  0  0
    4.0221   24.9796   34.3548 H   0  0  0  0  0  0  0  0  0  0  0  0
    4.1264   23.7841   33.1961 H   0  0  0  0  0  0  0  0  0  0  0  0
    0.3675   14.8580   42.1615 H   0  0  0  0  0  0  0  0  0  0  0  0
    0.0126   24.4579   34.9996 H   0  0  0  0  0  0  0  0  0  0  0  0
    1.4496   22.7251   33.8148 H   0  0  0  0  0  0  0  0  0  0  0  0
   -1.2019   17.3874   39.1172 H   0  0  0  0  0  0  0  0  0  0  0  0
    2.8411   20.0729   36.4901 H   0  0  0  0  0  0  0  0  0  0  0  0
    2.8807   19.8322   38.6213 H   0  0  0  0  0  0  0  0  0  0  0  0
    3.6120   22.8813   36.9863 H   0  0  0  0  0  0  0  0  0  0  0  0
    3.4047   19.3346   39.4352 H   0  0  0  0  0  0  0  0  0  0  0  0
    1.7032   18.7635   36.5883 H   0  0  0  0  0  0  0  0  0  0  0  0
    0.2453   25.6215   33.1459 H   0  0  0  0  0  0  0  0  0  0  0  0
    1.2899   26.7106   34.0442 H   0  0  0  0  0  0  0  0  0  0  0  0
    2.3313   21.5809   35.2966 H   0  0  0  0  0  0  0  0  0  0  0  0
    3.8247   22.7589   35.5541 H   0  0  0  0  0  0  0  0  0  0  0  0
    1.7141   26.1739   36.3347 H   0  0  0  0  0  0  0  0  0  0  0  0
    0.2025   25.0794   36.7456 H   0  0  0  0  0  0  0  0  0  0  0  0
    0.9412   16.8239   43.0307 H   0  0  0  0  0  0  0  0  0  0  0  0
    2.8184   18.3073   43.5858 H   0  0  0  0  0  0  0  0  0  0  0  0
   -3.0089   15.5890   39.6380 H   0  0  0  0  0  0  0  0  0  0  0  0
    1.7476   24.3545   32.4639 H   0  0  0  0  0  0  0  0  0  0  0  0
  1 11  1  0
  2 17  1  0
  2  6  1  0
  8 20  1  0
  8 22  1  0
  9  6  2  0
 10  5  1  0
 10  8  1  0
 10 21  1  0
 11 18  1  0
 11 17  2  0
 12 26  2  0
 12  2  1  0
 13  4  1  0
 14  7  1  0
 14 25  1  0
 16 15  1  0
 16  4  1  0
 17 24  1  0
 18 14  2  0
 19 13  1  0
 19  1  1  0
 21 16  1  0
 22 15  1  0
 23  1  2  0
 24 25  2  0
 26  9  1  0
 27  3  1  0
 27 20  1  0
 27  5  1  0
  3 28  1  0
  3 29  1  0
  3 30  1  0
  4 31  1  0
  4 32  1  0
  5 33  1  0
  5 34  1  0
  6 35  1  0
  8 36  1  1
 10 37  1  6
 12 38  1  0
 13 39  1  0
 13 40  1  0
 16 41  1  6
 18 42  1  0
 19 43  1  0
 20 44  1  0
 20 45  1  0
 21 46  1  0
 21 47  1  0
 22 48  1  0
 22 49  1  0
 24 50  1  0
 25 51  1  0
 26 52  1  0
 27 53  1  6
M  END
>  <mol_id>  (6) 
2026-09-18-6fnk-s0-n100-0006

>  <rmsd_to_ref>  (6) 


$$$$

     RDKit          3D

 65 65  0  0  0  0  0  0  0  0999 V2000
    0.3370   17.9330   38.8850 N   0  0  0  0  0  0  0  0  0  0  0  0
    3.6850   24.1700   35.3440 C   0  0  0  0  0  0  0  0  0  0  0  0
    4.2400   21.4290   38.2300 C   0  0  0  0  0  0  0  0  0  0  0  0
    4.6880   24.1600   34.9340 O   0  0  0  0  0  0  0  0  0  0  0  0
    2.1440   18.8080   41.9650 C   0  0  0  0  0  0  0  0  0  0  0  0
   -3.3340   14.6850   39.5700 O   0  0  0  0  0  0  0  0  0  0  0  0
    4.4420   22.9070   37.5050 C   0  0  2  0  0  0  0  0  0  0  0  0
    2.5390   24.3590   34.4870 C   0  0  2  0  0  0  0  0  0  0  0  0
    2.0430   19.9250   40.9730 C   0  0  0  0  0  0  0  0  0  0  0  0
    1.5940   18.7960   38.3840 C   0  0  0  0  0  0  0  0  0  0  0  0
    5.7450   23.5920   37.9610 C   0  0  0  0  0  0  0  0  0  0  0  0
   -2.0710   15.0920   39.6530 C   0  0  2  0  0  0  0  0  0  0  0  0
    2.5770   25.5270   33.2830 C   0  0  0  0  0  0  0  0  0  0  0  0
    2.6470   21.3870   38.7910 S   0  0  0  0  0  0  0  0  0  0  0  0
    0.3160   17.6790   36.1100 C   0  0  0  0  0  0  0  0  0  0  0  0
    1.8170   25.3100   32.0560 C   0  0  0  0  0  0  0  0  0  0  0  0
   -1.5560   15.9670   40.7690 C   0  0  0  0  0  0  0  0  0  0  0  0
    2.0960   19.8450   39.4060 C   0  0  1  0  0  0  0  0  0  0  0  0
   -1.4670   16.3450   38.7290 C   0  0  0  0  0  0  0  0  0  0  0  0
    1.4010   26.3360   33.1690 C   0  0  0  0  0  0  0  0  0  0  0  0
    1.2760   24.2170   35.2450 C   0  0  0  0  0  0  0  0  0  0  0  0
   -0.3860   16.9910   38.1770 C   0  0  1  0  0  0  0  0  0  0  0  0
    6.9020   22.5690   38.0630 C   0  0  0  0  0  0  0  0  0  0  0  0
   -0.6510   17.2180   36.8690 O   0  0  0  0  0  0  0  0  0  0  0  0
    3.3590   23.5510   36.7650 C   0  0  0  0  0  0  0  0  0  0  0  0
    0.6815   17.4279   39.7139 H   0  0  0  0  0  0  0  0  0  0  0  0
   -0.3675   18.6840   38.9081 H   0  0  0  0  0  0  0  0  0  0  0  0
    4.9421   21.3179   39.0695 H   0  0  0  0  0  0  0  0  0  0  0  0
    4.4361   20.6084   37.5242 H   0  0  0  0  0  0  0  0  0  0  0  0
    2.1069   19.2188   42.9847 H   0  0  0  0  0  0  0  0  0  0  0  0
    1.3052   18.1114   41.8195 H   0  0  0  0  0  0  0  0  0  0  0  0
    3.0942   18.2732   41.8195 H   0  0  0  0  0  0  0  0  0  0  0  0
   -3.7029   14.5661   40.4810 H   0  0  0  0  0  0  0  0  0  0  0  0
    4.5264   22.9356   36.4086 H   0  0  0  0  0  0  0  0  0  0  0  0
    2.6055   23.5132   33.7869 H   0  0  0  0  0  0  0  0  0  0  0  0
    1.0773   20.4036   41.1929 H   0  0  0  0  0  0  0  0  0  0  0  0
    3.0278   20.3839   41.1451 H   0  0  0  0  0  0  0  0  0  0  0  0
    2.4213   18.1046   38.1657 H   0  0  0  0  0  0  0  0  0  0  0  0
    1.2585   19.3553   37.4982 H   0  0  0  0  0  0  0  0  0  0  0  0
    6.0162   24.3706   37.2328 H   0  0  0  0  0  0  0  0  0  0  0  0
    5.5796   24.0348   38.9543 H   0  0  0  0  0  0  0  0  0  0  0  0
   -1.8150   14.0300   39.5245 H   0  0  0  0  0  0  0  0  0  0  0  0
    3.6433   25.7457   33.4414 H   0  0  0  0  0  0  0  0  0  0  0  0
    1.1273   18.0658   36.7443 H   0  0  0  0  0  0  0  0  0  0  0  0
    0.7020   16.8680   35.4749 H   0  0  0  0  0  0  0  0  0  0  0  0
   -0.0710   18.4895   35.4749 H   0  0  0  0  0  0  0  0  0  0  0  0
    1.2454   24.3819   31.9080 H   0  0  0  0  0  0  0  0  0  0  0  0
    2.0186   25.3417   30.9751 H   0  0  0  0  0  0  0  0  0  0  0  0
   -1.8200   15.5185   41.7381 H   0  0  0  0  0  0  0  0  0  0  0  0
   -0.4623   16.0546   40.6913 H   0  0  0  0  0  0  0  0  0  0  0  0
   -2.0103   16.9658   40.6913 H   0  0  0  0  0  0  0  0  0  0  0  0
    2.2787   18.7618   39.4637 H   0  0  0  0  0  0  0  0  0  0  0  0
   -2.0471   16.1721   37.8105 H   0  0  0  0  0  0  0  0  0  0  0  0
   -1.3286   16.9338   39.6478 H   0  0  0  0  0  0  0  0  0  0  0  0
    1.4862   27.4176   32.9874 H   0  0  0  0  0  0  0  0  0  0  0  0
    0.5049   26.5172   33.7807 H   0  0  0  0  0  0  0  0  0  0  0  0
    1.4910   24.2412   36.3235 H   0  0  0  0  0  0  0  0  0  0  0  0
    0.5988   25.0447   34.9875 H   0  0  0  0  0  0  0  0  0  0  0  0
    0.7995   23.2596   34.9875 H   0  0  0  0  0  0  0  0  0  0  0  0
    0.4587   16.2931   38.2739 H   0  0  0  0  0  0  0  0  0  0  0  0
    7.1249   22.3719   39.1220 H   0  0  0  0  0  0  0  0  0  0  0  0
    6.6068   21.6312   37.5697 H   0  0  0  0  0  0  0  0  0  0  0  0
    7.7966   22.9769   37.5697 H   0  0  0  0  0  0  0  0  0  0  0  0
    2.9741   24.3665   37.3949 H   0  0  0  0  0  0  0  0  0  0  0  0
    2.6539   22.7345   36.5502 H   0  0  0  0  0  0  0  0  0  0  0  0
  2 25  1  0
  3 14  1  0
  4  2  2  0
  6 12  1  0
  7 25  1  0
  7 11  1  0
  7  3  1  0
  8 21  1  0
  8  2  1  0
  9  5  1  0
 10  1  1  0
 11 23  1  0
 12 17  1  0
 13  8  1  0
 14 18  1  0
 15 24  1  0
 16 20  1  0
 16 13  1  0
 18 10  1  0
 18  9  1  0
 19 12  1  0
 20 13  1  0
 22 19  1  0
 22  1  1  0
 24 22  1  0
  1 26  1  0
  1 27  1  0
  3 28  1  0
  3 29  1  0
  5 30  1  0
  5 31  1  0
  5 32  1  0
  6 33  1  0
  7 34  1  6
  8 35  1  6
  9 36  1  0
  9 37  1  0
 10 38  1  0
 10 39  1  0
 11 40  1  0
 11 41  1  0
 12 42  1  6
 13 43  1  0
 15 44  1  0
 15 45  1  0
 15 46  1  0
 16 47  1  0
 16 48  1  0
 17 49  1  0
 17 50  1  0
 17 51  1  0
 18 52  1  1
 19 53  1  0
 19 54  1  0
 20 55  1  0
 20 56  1  0
 21 57  1  0
 21 58  1  0
 21 59  1  0
 22 60  1  6
 23 61  1  0
 23 62  1  0
 23 63  1  0
 25 64  1  0
 25 65  1  0
M  CHG  1   1   1
M  END
>  <mol_id>  (7) 
2026-09-18-6fnk-s0-n100-0007

>  <rmsd_to_ref>  (7) 


$$$$

     RDKit          3D

 48 50  0  0  0  0  0  0  0  0999 V2000
    4.7860   22.5422   35.4203 C   0  0  0  0  0  0  0  0  0  0  0  0
    2.6808   21.3866   39.6279 C   0  0  0  0  0  0  0  0  0  0  0  0
   -1.3288   17.1786   39.7389 C   0  0  0  0  0  0  0  0  0  0  0  0
    1.3975   20.7322   43.3559 C   0  0  0  0  0  0  0  0  0  0  0  0
   -0.0924   16.9294   41.6358 C   0  0  0  0  0  0  0  0  0  0  0  0
    2.0556   17.9918   41.1811 C   0  0  0  0  0  0  0  0  0  0  0  0
    1.4983   19.5695   43.7348 O   0  0  0  0  0  0  0  0  0  0  0  0
    2.4162   22.1583   36.0784 C   0  0  0  0  0  0  0  0  0  0  0  0
    2.8615   21.9747   37.3793 C   0  0  0  0  0  0  0  0  0  0  0  0
    0.6831   17.4484   40.7795 C   0  0  0  0  0  0  0  0  0  0  0  0
    3.0506   22.3073   33.6763 C   0  0  0  0  0  0  0  0  0  0  0  0
    0.0269   17.6460   39.7899 C   0  0  0  0  0  0  0  0  0  0  0  0
    5.1374   22.3939   36.7192 C   0  0  0  0  0  0  0  0  0  0  0  0
   -1.1733   16.2496   41.7526 N   0  0  0  0  0  0  0  0  0  0  0  0
   -1.8449   16.3900   40.7193 C   0  0  0  0  0  0  0  0  0  0  0  0
    2.0571   21.7219   38.5249 C   0  0  0  0  0  0  0  0  0  0  0  0
    4.2003   21.9199   37.6847 C   0  0  0  0  0  0  0  0  0  0  0  0
    4.4393   21.5451   39.4359 S   0  0  0  0  0  0  0  0  0  0  0  0
    3.3816   22.3307   35.0154 C   0  0  0  0  0  0  0  0  0  0  0  0
    6.2808   22.5828   36.9827 C   0  0  0  0  0  0  0  0  0  0  0  0
    1.9165   21.2286   42.0797 N   0  0  0  0  0  0  0  0  0  0  0  0
    0.6888   21.7112   44.1609 C   0  0  0  0  0  0  0  0  0  0  0  0
    3.7294   23.1938   32.7387 C   0  0  0  0  0  0  0  0  0  0  0  0
   -3.0735   15.8527   40.8572 O   0  0  0  0  0  0  0  0  0  0  0  0
    2.6202   19.3555   41.2565 N   0  0  0  0  0  0  0  0  0  0  0  0
    2.1329   20.5911   40.8184 C   0  0  2  0  0  0  0  0  0  0  0  0
    7.3046   22.5541   37.5014 O   0  0  0  0  0  0  0  0  0  0  0  0
    5.5421   22.8187   34.6708 H   0  0  0  0  0  0  0  0  0  0  0  0
   -1.9649   18.0749   39.6943 H   0  0  0  0  0  0  0  0  0  0  0  0
   -1.3132   16.5004   38.8730 H   0  0  0  0  0  0  0  0  0  0  0  0
   -0.3390   17.8102   42.2469 H   0  0  0  0  0  0  0  0  0  0  0  0
    0.5188   16.0157   41.6756 H   0  0  0  0  0  0  0  0  0  0  0  0
    2.7683   17.2067   41.4737 H   0  0  0  0  0  0  0  0  0  0  0  0
    1.8091   21.2781   35.8203 H   0  0  0  0  0  0  0  0  0  0  0  0
    1.8961   23.1269   36.1164 H   0  0  0  0  0  0  0  0  0  0  0  0
    3.2260   21.2799   33.3244 H   0  0  0  0  0  0  0  0  0  0  0  0
    2.0147   22.6772   33.6669 H   0  0  0  0  0  0  0  0  0  0  0  0
    0.4625   18.1801   38.9326 H   0  0  0  0  0  0  0  0  0  0  0  0
   -1.4397   15.6812   42.5692 H   0  0  0  0  0  0  0  0  0  0  0  0
    0.9609   21.8041   38.4868 H   0  0  0  0  0  0  0  0  0  0  0  0
    2.1744   22.2257   42.0934 H   0  0  0  0  0  0  0  0  0  0  0  0
    0.9374   21.5625   45.2221 H   0  0  0  0  0  0  0  0  0  0  0  0
    0.9871   22.7242   43.8529 H   0  0  0  0  0  0  0  0  0  0  0  0
   -0.3949   21.5885   44.0175 H   0  0  0  0  0  0  0  0  0  0  0  0
    4.2973   23.9526   33.2972 H   0  0  0  0  0  0  0  0  0  0  0  0
    4.4181   22.6075   32.1127 H   0  0  0  0  0  0  0  0  0  0  0  0
    2.9849   23.6904   32.0991 H   0  0  0  0  0  0  0  0  0  0  0  0
    1.2612   20.4632   40.1598 H   0  0  0  0  0  0  0  0  0  0  0  0
  1 13  1  0
  2 26  1  0
  3 12  1  0
  3 15  1  0
  4  7  2  0
  4 22  1  0
  5 14  1  0
  6 25  2  3
  8  9  1  0
  9 17  2  0
  9 16  1  0
 10  6  1  0
 10  5  1  0
 11 19  1  0
 12 10  2  0
 13 20  2  0
 13 17  1  0
 15 24  2  0
 15 14  1  0
 16  2  2  0
 17 18  1  0
 18  2  1  0
 19  1  2  0
 19  8  1  0
 20 27  2  0
 21  4  1  0
 23 11  1  0
 26 25  1  0
 26 21  1  0
  1 28  1  0
  3 29  1  0
  3 30  1  0
  5 31  1  0
  5 32  1  0
  6 33  1  0
  8 34  1  0
  8 35  1  0
 11 36  1  0
 11 37  1  0
 12 38  1  0
 14 39  1  0
 16 40  1  0
 21 41  1  0
 22 42  1  0
 22 43  1  0
 22 44  1  0
 23 45  1  0
 23 46  1  0
 23 47  1  0
 26 48  1  6
M  END
>  <mol_id>  (8) 
2026-09-18-6fnk-s0-n100-0008

>  <rmsd_to_ref>  (8) 


$$$$

     RDKit          3D

 58 59  0  0  0  0  0  0  0  0999 V2000
    0.2010   25.7110   32.3050 C   0  0  0  0  0  0  0  0  0  0  0  0
   -0.6830   15.7860   39.2310 C   0  0  2  0  0  0  0  0  0  0  0  0
    1.9610   20.1210   41.9970 C   0  0  0  0  0  0  0  0  0  0  0  0
    2.5070   19.5170   38.4040 N   0  0  0  0  0  0  0  0  0  0  0  0
    1.5280   18.0470   40.2000 N   0  0  0  0  0  0  0  0  0  0  0  0
    2.9360   20.6910   38.0120 C   0  0  0  0  0  0  0  0  0  0  0  0
    3.6920   20.3360   42.2330 C   0  0  0  0  0  0  0  0  0  0  0  0
    1.0120   24.3510   34.6240 C   0  0  0  0  0  0  0  0  0  0  0  0
    1.3910   17.8180   41.6560 C   0  0  0  0  0  0  0  0  0  0  0  0
    3.2180   24.5710   33.7590 C   0  0  0  0  0  0  0  0  0  0  0  0
    1.7210   18.8730   42.6760 C   0  0  0  0  0  0  0  0  0  0  0  0
    3.7320   23.5660   34.3350 C   0  0  0  0  0  0  0  0  0  0  0  0
    1.6750   23.3090   35.4390 C   0  0  0  0  0  0  0  0  0  0  0  0
    2.7020   22.6930   35.0770 C   0  0  2  0  0  0  0  0  0  0  0  0
    1.6260   16.9180   39.4260 C   0  0  0  0  0  0  0  0  0  0  0  0
    1.8040   25.0240   33.8030 C   0  0  0  0  0  0  0  0  0  0  0  0
    0.9930   27.2760   34.0390 C   0  0  0  0  0  0  0  0  0  0  0  0
    3.8770   21.2880   38.7480 O   0  0  0  0  0  0  0  0  0  0  0  0
    1.3660   26.1740   33.0460 C   0  0  0  0  0  0  0  0  0  0  0  0
    2.7380   16.5070   39.5670 O   0  0  0  0  0  0  0  0  0  0  0  0
    2.8320   21.6020   35.8710 N   0  0  0  0  0  0  0  0  0  0  0  0
    2.6890   21.1780   36.8420 N   0  0  0  0  0  0  0  0  0  0  0  0
    1.7600   19.4230   39.6610 C   0  0  0  0  0  0  0  0  0  0  0  0
   -1.3440   14.6350   39.5040 O   0  0  0  0  0  0  0  0  0  0  0  0
   -1.0260   16.4770   37.9430 C   0  0  0  0  0  0  0  0  0  0  0  0
    0.4620   16.3600   38.3850 C   0  0  2  0  0  0  0  0  0  0  0  0
   -0.5827   25.3995   33.0112 H   0  0  0  0  0  0  0  0  0  0  0  0
   -0.1788   26.5265   31.6720 H   0  0  0  0  0  0  0  0  0  0  0  0
    0.4846   24.8572   31.6720 H   0  0  0  0  0  0  0  0  0  0  0  0
   -0.7100   15.7998   40.3306 H   0  0  0  0  0  0  0  0  0  0  0  0
    1.3898   20.9419   42.4550 H   0  0  0  0  0  0  0  0  0  0  0  0
    1.6534   20.1186   40.9409 H   0  0  0  0  0  0  0  0  0  0  0  0
    3.9146   20.3636   43.3099 H   0  0  0  0  0  0  0  0  0  0  0  0
    4.2323   19.4981   41.7683 H   0  0  0  0  0  0  0  0  0  0  0  0
    4.0109   21.2807   41.7683 H   0  0  0  0  0  0  0  0  0  0  0  0
    0.2332   23.8634   34.0193 H   0  0  0  0  0  0  0  0  0  0  0  0
    0.6214   25.0899   35.3392 H   0  0  0  0  0  0  0  0  0  0  0  0
    0.3378   17.5491   41.8249 H   0  0  0  0  0  0  0  0  0  0  0  0
    2.1780   17.0722   41.8413 H   0  0  0  0  0  0  0  0  0  0  0  0
    3.9024   25.1824   33.1525 H   0  0  0  0  0  0  0  0  0  0  0  0
    2.6214   18.5776   43.2345 H   0  0  0  0  0  0  0  0  0  0  0  0
    0.8824   18.9867   43.3787 H   0  0  0  0  0  0  0  0  0  0  0  0
    4.2315   22.9465   33.5756 H   0  0  0  0  0  0  0  0  0  0  0  0
    4.4363   23.9485   35.0884 H   0  0  0  0  0  0  0  0  0  0  0  0
    1.9368   23.7946   36.3907 H   0  0  0  0  0  0  0  0  0  0  0  0
    0.9240   22.5058   35.4083 H   0  0  0  0  0  0  0  0  0  0  0  0
    2.8336   22.1004   34.1597 H   0  0  0  0  0  0  0  0  0  0  0  0
    1.1194   26.9024   35.0659 H   0  0  0  0  0  0  0  0  0  0  0  0
    1.6464   28.1470   33.8826 H   0  0  0  0  0  0  0  0  0  0  0  0
   -0.0551   27.5711   33.8826 H   0  0  0  0  0  0  0  0  0  0  0  0
    2.1275   26.5785   32.3630 H   0  0  0  0  0  0  0  0  0  0  0  0
    2.3030   20.9199   35.3091 H   0  0  0  0  0  0  0  0  0  0  0  0
    1.6608   21.1166   36.8484 H   0  0  0  0  0  0  0  0  0  0  0  0
    1.3889   20.3182   40.1815 H   0  0  0  0  0  0  0  0  0  0  0  0
   -1.4113   14.5178   40.4847 H   0  0  0  0  0  0  0  0  0  0  0  0
   -1.5293   17.4550   37.9613 H   0  0  0  0  0  0  0  0  0  0  0  0
   -1.5920   16.2016   37.0409 H   0  0  0  0  0  0  0  0  0  0  0  0
    1.2813   16.3291   37.6517 H   0  0  0  0  0  0  0  0  0  0  0  0
  1 19  1  0
  2 24  1  0
  3  7  1  0
  3 11  1  0
  4 23  2  3
  5  9  1  0
  6  4  1  0
  6 18  2  0
  8 13  1  0
  9 11  1  0
 10 16  2  0
 10 12  1  0
 12 14  1  0
 14 13  1  0
 14 21  1  0
 15 20  2  0
 15  5  1  0
 16  8  1  0
 19 16  1  0
 19 17  1  0
 21 22  1  0
 22  6  1  0
 23  5  1  0
 25 26  1  0
 25  2  1  0
 26  2  1  0
 26 15  1  0
  1 27  1  0
  1 28  1  0
  1 29  1  0
  2 30  1  1
  3 31  1  0
  3 32  1  0
  7 33  1  0
  7 34  1  0
  7 35  1  0
  8 36  1  0
  8 37  1  0
  9 38  1  0
  9 39  1  0
 10 40  1  0
 11 41  1  0
 11 42  1  0
 12 43  1  0
 12 44  1  0
 13 45  1  0
 13 46  1  0
 14 47  1  6
 17 48  1  0
 17 49  1  0
 17 50  1  0
 19 51  1  0
 21 52  1  0
 22 53  1  0
 23 54  1  0
 24 55  1  0
 25 56  1  0
 25 57  1  0
 26 58  1  6
M  END
>  <mol_id>  (9) 
2026-09-18-6fnk-s0-n100-0009

>  <rmsd_to_ref>  (9) 


$$$$

     RDKit          3D

 63 65  0  0  0  0  0  0  0  0999 V2000
   -0.1631   20.9938   43.8404 C   0  0  0  0  0  0  0  0  0  0  0  0
    0.2941   16.2632   36.8484 C   0  0  0  0  0  0  0  0  0  0  0  0
    3.1165   23.9993   34.3845 C   0  0  2  0  0  0  0  0  0  0  0  0
    0.8591   21.3121   42.6945 O   0  0  0  0  0  0  0  0  0  0  0  0
    1.6022   25.6988   32.6867 C   0  0  0  0  0  0  0  0  0  0  0  0
    2.3313   21.0837   38.5224 C   0  0  0  0  0  0  0  0  0  0  0  0
    1.6334   20.2316   42.2120 C   0  0  2  0  0  0  0  0  0  0  0  0
    4.6610   23.9890   34.6860 C   0  0  0  0  0  0  0  0  0  0  0  0
    1.1546   17.2550   37.4046 C   0  0  0  0  0  0  0  0  0  0  0  0
    1.5968   22.9453   36.2169 C   0  0  0  0  0  0  0  0  0  0  0  0
    0.8626   17.8360   38.7523 C   0  0  0  0  0  0  0  0  0  0  0  0
    2.4974   25.2933   33.8367 N   0  0  0  0  0  0  0  0  0  0  0  0
    2.0440   20.0996   39.5976 C   0  0  1  0  0  0  0  0  0  0  0  0
    2.5353   22.2040   37.4606 S   0  0  0  0  0  4  0  0  0  0  0  0
    2.2796   20.4200   41.0466 N   0  0  0  0  0  0  0  0  0  0  0  0
   -2.0309   14.8938   40.5533 C   0  0  0  0  0  0  0  0  0  0  0  0
   -1.2017   16.3326   38.8280 C   0  0  0  0  0  0  0  0  0  0  0  0
    0.8568   27.0066   32.8016 C   0  0  0  0  0  0  0  0  0  0  0  0
   -0.8416   15.8334   37.5814 C   0  0  0  0  0  0  0  0  0  0  0  0
    1.5556   18.9248   39.2628 N   0  0  0  0  0  0  0  0  0  0  0  0
    2.1248   23.8878   35.4903 C   0  0  2  0  0  0  0  0  0  0  0  0
    1.2959   24.7220   34.6199 C   0  0  1  0  0  0  0  0  0  0  0  0
    0.7303   26.1047   35.1855 C   0  0  0  0  0  0  0  0  0  0  0  0
   -2.2743   15.8622   39.5108 O   0  0  0  0  0  0  0  0  0  0  0  0
    0.2761   27.1062   34.1475 C   0  0  0  0  0  0  0  0  0  0  0  0
    1.5882   19.0030   43.0754 C   0  0  0  0  0  0  0  0  0  0  0  0
   -0.3011   17.2970   39.4906 C   0  0  0  0  0  0  0  0  0  0  0  0
    0.3262   21.1288   44.8162 H   0  0  0  0  0  0  0  0  0  0  0  0
   -1.0233   21.6753   43.7641 H   0  0  0  0  0  0  0  0  0  0  0  0
   -0.5094   19.9542   43.7446 H   0  0  0  0  0  0  0  0  0  0  0  0
    0.5095   15.8346   35.8585 H   0  0  0  0  0  0  0  0  0  0  0  0
    3.2167   23.1264   33.7228 H   0  0  0  0  0  0  0  0  0  0  0  0
    0.8526   24.9041   32.5586 H   0  0  0  0  0  0  0  0  0  0  0  0
    2.2888   25.8450   31.8397 H   0  0  0  0  0  0  0  0  0  0  0  0
    3.4090   21.0525   38.7405 H   0  0  0  0  0  0  0  0  0  0  0  0
    1.5258   20.6509   37.9110 H   0  0  0  0  0  0  0  0  0  0  0  0
    2.5005   20.5992   42.7803 H   0  0  0  0  0  0  0  0  0  0  0  0
    4.8223   24.0051   35.7740 H   0  0  0  0  0  0  0  0  0  0  0  0
    5.1113   23.0793   34.2620 H   0  0  0  0  0  0  0  0  0  0  0  0
    5.1290   24.8753   34.2328 H   0  0  0  0  0  0  0  0  0  0  0  0
    2.0361   17.5943   36.8409 H   0  0  0  0  0  0  0  0  0  0  0  0
    0.5599   22.6239   36.0392 H   0  0  0  0  0  0  0  0  0  0  0  0
    3.0701   19.7116   39.5166 H   0  0  0  0  0  0  0  0  0  0  0  0
    3.6301   21.7546   36.7703 H   0  0  0  0  0  0  0  0  0  0  0  0
    3.1883   19.9691   41.2252 H   0  0  0  0  0  0  0  0  0  0  0  0
    1.9759   21.3998   40.9537 H   0  0  0  0  0  0  0  0  0  0  0  0
   -2.0183   15.4011   41.5293 H   0  0  0  0  0  0  0  0  0  0  0  0
   -2.8287   14.1366   40.5438 H   0  0  0  0  0  0  0  0  0  0  0  0
   -1.0601   14.4059   40.3811 H   0  0  0  0  0  0  0  0  0  0  0  0
    1.5514   27.8435   32.6363 H   0  0  0  0  0  0  0  0  0  0  0  0
    0.0577   27.0480   32.0467 H   0  0  0  0  0  0  0  0  0  0  0  0
   -1.4782   15.0553   37.1350 H   0  0  0  0  0  0  0  0  0  0  0  0
    2.2068   18.3729   39.8394 H   0  0  0  0  0  0  0  0  0  0  0  0
    2.5255   23.9911   36.5096 H   0  0  0  0  0  0  0  0  0  0  0  0
    0.4395   24.1468   34.2382 H   0  0  0  0  0  0  0  0  0  0  0  0
   -0.1291   25.8775   35.8335 H   0  0  0  0  0  0  0  0  0  0  0  0
    1.5734   26.5796   35.7087 H   0  0  0  0  0  0  0  0  0  0  0  0
    0.5116   28.1089   34.5334 H   0  0  0  0  0  0  0  0  0  0  0  0
   -0.7936   26.8927   34.0050 H   0  0  0  0  0  0  0  0  0  0  0  0
    1.7097   19.2914   44.1300 H   0  0  0  0  0  0  0  0  0  0  0  0
    0.6205   18.4970   42.9427 H   0  0  0  0  0  0  0  0  0  0  0  0
    2.4014   18.3212   42.7858 H   0  0  0  0  0  0  0  0  0  0  0  0
   -0.4940   17.6128   40.5264 H   0  0  0  0  0  0  0  0  0  0  0  0
  2 19  2  0
  2  9  1  0
  3  8  1  0
  3 21  1  0
  4  1  1  0
  5 18  1  0
  7  4  1  0
  7 26  1  0
  9 11  2  0
 10 14  2  3
 11 20  1  0
 11 27  1  0
 12  5  1  0
 12  3  1  0
 12 22  1  0
 13  6  1  0
 13 15  1  0
 14  6  1  0
 15  7  1  0
 17 24  1  0
 17 27  2  0
 18 25  1  0
 19 17  1  0
 20 13  1  0
 21 10  1  0
 22 23  1  0
 22 21  1  0
 24 16  1  0
 25 23  1  0
  1 28  1  0
  1 29  1  0
  1 30  1  0
  2 31  1  0
  3 32  1  6
  5 33  1  0
  5 34  1  0
  6 35  1  0
  6 36  1  0
  7 37  1  1
  8 38  1  0
  8 39  1  0
  8 40  1  0
  9 41  1  0
 10 42  1  0
 13 43  1  6
 14 44  1  6
 15 45  1  0
 15 46  1  0
 16 47  1  0
 16 48  1  0
 16 49  1  0
 18 50  1  0
 18 51  1  0
 19 52  1  0
 20 53  1  0
 21 54  1  1
 22 55  1  6
 23 56  1  0
 23 57  1  0
 25 58  1  0
 25 59  1  0
 26 60  1  0
 26 61  1  0
 26 62  1  0
 27 63  1  0
M  CHG  1  15   1
M  END
>  <mol_id>  (10) 
2026-09-18-6fnk-s0-n100-0010

>  <rmsd_to_ref>  (10) 


$$$$

     RDKit          3D

 70 72  0  0  0  0  0  0  0  0999 V2000
    2.1587   20.2627   43.0988 C   0  0  0  0  0  0  0  0  0  0  0  0
    3.4312   22.4166   43.2931 C   0  0  0  0  0  0  0  0  0  0  0  0
    4.0686   23.3587   35.1514 C   0  0  0  0  0  0  0  0  0  0  0  0
   -0.4649   18.7492   42.9662 O   0  0  0  0  0  0  0  0  0  0  0  0
   -2.2679   15.3463   39.6066 C   0  0  0  0  0  0  0  0  0  0  0  0
    4.2703   23.4828   33.9423 C   0  0  0  0  0  0  0  0  0  0  0  0
    3.0685   24.0603   33.0085 C   0  0  0  0  0  0  0  0  0  0  0  0
    1.0615   20.9106   40.7636 C   0  0  0  0  0  0  0  0  0  0  0  0
   -1.1703   15.8410   38.6212 C   0  0  0  0  0  0  0  0  0  0  0  0
    1.4208   21.1493   38.1349 S   0  0  0  0  0  0  0  0  0  0  0  0
    2.6806   25.0228   33.5447 C   0  0  1  0  0  0  0  0  0  0  0  0
    1.6918   25.2888   34.4543 C   0  0  0  0  0  0  0  0  0  0  0  0
    2.1156   21.6609   43.7247 C   0  0  0  0  0  0  0  0  0  0  0  0
   -1.5905   14.7930   40.8625 C   0  0  0  0  0  0  0  0  0  0  0  0
    1.2011   20.2883   41.9267 C   0  0  1  0  0  0  0  0  0  0  0  0
   -0.2772   16.9810   40.5884 N   0  0  0  0  0  0  0  0  0  0  0  0
    3.2207   21.8344   39.9704 C   0  0  0  0  0  0  0  0  0  0  0  0
    2.3242   25.4356   31.7648 C   0  0  0  0  0  0  0  0  0  0  0  0
    0.7922   17.9179   41.1318 C   0  0  0  0  0  0  0  0  0  0  0  0
    0.3663   18.9286   42.0766 C   0  0  0  0  0  0  0  0  0  0  0  0
    1.7283   25.8083   32.9851 C   0  0  2  0  0  0  0  0  0  0  0  0
    2.8493   21.1968   37.1511 C   0  0  0  0  0  0  0  0  0  0  0  0
   -0.5309   15.7921   41.3531 C   0  0  0  0  0  0  0  0  0  0  0  0
    0.0287   16.6486   39.1716 C   0  0  0  0  0  0  0  0  0  0  0  0
    1.8868   21.2832   39.6618 C   0  0  1  0  0  0  0  0  0  0  0  0
    2.4935   21.3058   35.7672 C   0  0  0  0  0  0  0  0  0  0  0  0
    2.5839   22.3848   35.0039 C   0  0  0  0  0  0  0  0  0  0  0  0
    3.1771   20.0322   42.7528 H   0  0  0  0  0  0  0  0  0  0  0  0
    1.8743   19.4905   43.8288 H   0  0  0  0  0  0  0  0  0  0  0  0
    3.8419   22.9602   44.1566 H   0  0  0  0  0  0  0  0  0  0  0  0
    4.1716   21.6872   42.9329 H   0  0  0  0  0  0  0  0  0  0  0  0
    3.1974   23.1294   42.4886 H   0  0  0  0  0  0  0  0  0  0  0  0
    3.8951   24.3221   35.6530 H   0  0  0  0  0  0  0  0  0  0  0  0
    4.8861   22.9336   35.7523 H   0  0  0  0  0  0  0  0  0  0  0  0
   -2.8639   14.5548   39.1289 H   0  0  0  0  0  0  0  0  0  0  0  0
   -2.9311   16.1812   39.8768 H   0  0  0  0  0  0  0  0  0  0  0  0
    5.1277   24.1618   33.8244 H   0  0  0  0  0  0  0  0  0  0  0  0
    4.4153   22.4520   33.5867 H   0  0  0  0  0  0  0  0  0  0  0  0
    3.4480   24.3073   32.0061 H   0  0  0  0  0  0  0  0  0  0  0  0
    2.2661   23.3191   32.8788 H   0  0  0  0  0  0  0  0  0  0  0  0
    0.2823   20.3085   40.2733 H   0  0  0  0  0  0  0  0  0  0  0  0
    1.0937   21.9125   41.2165 H   0  0  0  0  0  0  0  0  0  0  0  0
   -1.6705   16.4762   37.8753 H   0  0  0  0  0  0  0  0  0  0  0  0
   -0.7124   14.9118   38.2512 H   0  0  0  0  0  0  0  0  0  0  0  0
    0.9803   24.5072   34.7588 H   0  0  0  0  0  0  0  0  0  0  0  0
    1.6172   25.7222   35.4626 H   0  0  0  0  0  0  0  0  0  0  0  0
    1.2326   22.2075   43.3618 H   0  0  0  0  0  0  0  0  0  0  0  0
    2.0511   21.5921   44.8206 H   0  0  0  0  0  0  0  0  0  0  0  0
   -2.3440   14.6413   41.6494 H   0  0  0  0  0  0  0  0  0  0  0  0
   -1.1087   13.8325   40.6273 H   0  0  0  0  0  0  0  0  0  0  0  0
    1.1836   21.3879   41.9515 H   0  0  0  0  0  0  0  0  0  0  0  0
    3.2744   22.0874   41.0396 H   0  0  0  0  0  0  0  0  0  0  0  0
    3.9909   21.0862   39.7316 H   0  0  0  0  0  0  0  0  0  0  0  0
    3.3910   22.7403   39.3702 H   0  0  0  0  0  0  0  0  0  0  0  0
    2.9558   26.1276   31.1885 H   0  0  0  0  0  0  0  0  0  0  0  0
    2.0733   24.9434   30.8136 H   0  0  0  0  0  0  0  0  0  0  0  0
    1.5530   17.2987   41.6297 H   0  0  0  0  0  0  0  0  0  0  0  0
    1.1493   18.4798   40.2563 H   0  0  0  0  0  0  0  0  0  0  0  0
    1.0088   26.5767   32.6660 H   0  0  0  0  0  0  0  0  0  0  0  0
    3.4599   22.0654   37.4388 H   0  0  0  0  0  0  0  0  0  0  0  0
    3.4208   20.2693   37.3029 H   0  0  0  0  0  0  0  0  0  0  0  0
   -0.8374   16.1168   42.3584 H   0  0  0  0  0  0  0  0  0  0  0  0
    0.4113   15.2293   41.2790 H   0  0  0  0  0  0  0  0  0  0  0  0
    0.9467   16.0451   39.1160 H   0  0  0  0  0  0  0  0  0  0  0  0
    0.1867   17.5634   38.5815 H   0  0  0  0  0  0  0  0  0  0  0  0
    2.3148   20.2708   39.6199 H   0  0  0  0  0  0  0  0  0  0  0  0
    3.1033   20.5456   35.2570 H   0  0  0  0  0  0  0  0  0  0  0  0
    1.3991   21.2462   35.8606 H   0  0  0  0  0  0  0  0  0  0  0  0
    1.7333   23.0375   35.2500 H   0  0  0  0  0  0  0  0  0  0  0  0
    2.5936   22.0044   33.9718 H   0  0  0  0  0  0  0  0  0  0  0  0
  1 13  1  0
  2 13  1  0
  3 27  1  0
  5 14  1  0
  6  3  1  0
  7  6  1  0
  9 24  1  0
  9  5  1  0
 10 25  1  0
 11  7  1  1
 11 12  1  0
 14 23  1  0
 15  8  1  0
 15 20  1  0
 15  1  1  0
 16 19  1  0
 16 23  1  0
 18 11  1  0
 19 20  1  0
 20  4  2  0
 21 18  1  0
 21 11  1  0
 21 12  1  0
 22 10  1  0
 24 16  1  0
 25 17  1  0
 25  8  1  0
 26 22  1  0
 27 26  1  0
  1 28  1  0
  1 29  1  0
  2 30  1  0
  2 31  1  0
  2 32  1  0
  3 33  1  0
  3 34  1  0
  5 35  1  0
  5 36  1  0
  6 37  1  0
  6 38  1  0
  7 39  1  0
  7 40  1  0
  8 41  1  0
  8 42  1  0
  9 43  1  0
  9 44  1  0
 12 45  1  0
 12 46  1  0
 13 47  1  0
 13 48  1  0
 14 49  1  0
 14 50  1  0
 15 51  1  1
 17 52  1  0
 17 53  1  0
 17 54  1  0
 18 55  1  0
 18 56  1  0
 19 57  1  0
 19 58  1  0
 21 59  1  1
 22 60  1  0
 22 61  1  0
 23 62  1  0
 23 63  1  0
 24 64  1  0
 24 65  1  0
 25 66  1  6
 26 67  1  0
 26 68  1  0
 27 69  1  0
 27 70  1  0
M  END
>  <mol_id>  (11) 
2026-09-18-6fnk-s0-n100-0011

>  <rmsd_to_ref>  (11) 


$$$$

     RDKit          3D

 56 58  0  0  0  0  0  0  0  0999 V2000
    2.3729   21.2974   38.9080 C   0  0  0  0  0  0  0  0  0  0  0  0
    3.1946   21.7357   38.1110 C   0  0  0  0  0  0  0  0  0  0  0  0
   -0.5279   17.2525   38.3506 C   0  0  1  0  0  0  0  0  0  0  0  0
   -1.7161   16.1146   40.5345 C   0  0  0  0  0  0  0  0  0  0  0  0
    3.2537   23.5040   35.4886 C   0  0  0  0  0  0  0  0  0  0  0  0
   -3.0915   15.8500   40.0743 O   0  0  0  0  0  0  0  0  0  0  0  0
    3.4069   24.3182   34.0823 C   0  0  0  0  0  0  0  0  0  0  0  0
   -0.8661   17.0862   39.9516 C   0  0  1  0  0  0  0  0  0  0  0  0
    0.5933   21.6332   43.1435 O   0  0  0  0  0  0  0  0  0  0  0  0
    5.4969   24.0565   32.8383 C   0  0  0  0  0  0  0  0  0  0  0  0
    2.1856   20.2600   41.9359 O   0  0  0  0  0  0  0  0  0  0  0  0
    0.8555   19.1543   43.7181 O   0  0  0  0  0  0  0  0  0  0  0  0
    0.3106   17.8532   40.9632 S   0  0  0  0  0  0  0  0  0  0  0  0
   -0.0334   19.3787   45.0496 S   0  0  0  0  0  0  0  0  0  0  0  0
    2.7759   25.0299   35.4530 C   0  0  0  0  0  0  0  0  0  0  0  0
    1.8042   19.9769   39.4698 C   0  0  1  0  0  0  0  0  0  0  0  0
    1.8441   20.2105   40.8824 C   0  0  1  0  0  0  0  0  0  0  0  0
    6.5330   23.8646   31.7127 C   0  0  0  0  0  0  0  0  0  0  0  0
    0.4766   19.4366   40.1266 C   0  0  2  0  0  0  0  0  0  0  0  0
    4.7513   24.8824   30.6295 C   0  0  0  0  0  0  0  0  0  0  0  0
    6.5062   24.9221   30.3507 S   0  0  0  0  0  0  0  0  0  0  0  0
   -1.6005   16.4159   37.6420 O   0  0  0  0  0  0  0  0  0  0  0  0
    2.4985   22.9112   36.9865 C   0  0  0  0  0  0  0  0  0  0  0  0
   -1.2826   17.6370   37.0501 C   0  0  0  0  0  0  0  0  0  0  0  0
    4.8547   25.3837   32.0439 C   0  0  0  0  0  0  0  0  0  0  0  0
    1.2292   20.3960   43.0149 C   0  0  0  0  0  0  0  0  0  0  0  0
    2.7009   21.7912   39.8346 H   0  0  0  0  0  0  0  0  0  0  0  0
    1.5675   21.3632   38.1617 H   0  0  0  0  0  0  0  0  0  0  0  0
    4.0042   22.2238   38.6733 H   0  0  0  0  0  0  0  0  0  0  0  0
    3.5651   20.8875   37.5166 H   0  0  0  0  0  0  0  0  0  0  0  0
    0.5036   17.5483   38.5927 H   0  0  0  0  0  0  0  0  0  0  0  0
   -1.8029   16.3904   41.5958 H   0  0  0  0  0  0  0  0  0  0  0  0
   -1.2100   15.1840   40.2382 H   0  0  0  0  0  0  0  0  0  0  0  0
    3.7925   22.5456   35.5245 H   0  0  0  0  0  0  0  0  0  0  0  0
   -3.6922   15.7718   40.8574 H   0  0  0  0  0  0  0  0  0  0  0  0
    4.4018   24.6081   33.7137 H   0  0  0  0  0  0  0  0  0  0  0  0
    3.0738   24.1710   33.0443 H   0  0  0  0  0  0  0  0  0  0  0  0
   -1.8488   17.5743   39.8737 H   0  0  0  0  0  0  0  0  0  0  0  0
    4.7941   23.2173   32.9465 H   0  0  0  0  0  0  0  0  0  0  0  0
    5.8281   24.1463   33.8834 H   0  0  0  0  0  0  0  0  0  0  0  0
    0.7532   19.2074   46.1581 H   0  0  0  0  0  0  0  0  0  0  0  0
    1.7041   25.2722   35.5037 H   0  0  0  0  0  0  0  0  0  0  0  0
    3.0071   25.9319   36.0387 H   0  0  0  0  0  0  0  0  0  0  0  0
    2.1765   19.4125   38.6023 H   0  0  0  0  0  0  0  0  0  0  0  0
    2.4677   20.9061   41.4631 H   0  0  0  0  0  0  0  0  0  0  0  0
    7.5276   23.9591   32.1727 H   0  0  0  0  0  0  0  0  0  0  0  0
    6.2750   22.8841   31.2859 H   0  0  0  0  0  0  0  0  0  0  0  0
   -0.5710   19.5007   39.7973 H   0  0  0  0  0  0  0  0  0  0  0  0
    4.3249   23.8708   30.5591 H   0  0  0  0  0  0  0  0  0  0  0  0
    4.1019   25.4301   29.9306 H   0  0  0  0  0  0  0  0  0  0  0  0
    2.3118   23.8114   37.5904 H   0  0  0  0  0  0  0  0  0  0  0  0
    1.6886   22.3023   36.5584 H   0  0  0  0  0  0  0  0  0  0  0  0
   -0.7416   17.6517   36.0925 H   0  0  0  0  0  0  0  0  0  0  0  0
   -1.8736   18.5119   36.7412 H   0  0  0  0  0  0  0  0  0  0  0  0
    5.5252   26.2530   32.1118 H   0  0  0  0  0  0  0  0  0  0  0  0
    3.8983   25.7307   32.4623 H   0  0  0  0  0  0  0  0  0  0  0  0
  2  1  1  0
  3  8  1  0
  5 15  1  0
  5 23  1  0
  6  4  1  0
  7  5  1  0
  7 15  1  0
  8  4  1  0
  8 13  1  0
 11 26  1  0
 12 14  1  0
 16  1  1  0
 16 19  1  0
 16 17  1  0
 17 11  1  0
 18 10  1  0
 19 17  1  0
 19 13  1  0
 20 25  1  0
 21 20  1  0
 21 18  1  0
 22  3  1  0
 23  2  1  0
 24 22  1  0
 24  3  1  0
 25 10  1  0
 26  9  2  0
 26 12  1  0
  1 27  1  0
  1 28  1  0
  2 29  1  0
  2 30  1  0
  3 31  1  1
  4 32  1  0
  4 33  1  0
  5 34  1  0
  6 35  1  0
  7 36  1  0
  7 37  1  0
  8 38  1  6
 10 39  1  0
 10 40  1  0
 14 41  1  0
 15 42  1  0
 15 43  1  0
 16 44  1  1
 17 45  1  6
 18 46  1  0
 18 47  1  0
 19 48  1  6
 20 49  1  0
 20 50  1  0
 23 51  1  0
 23 52  1  0
 24 53  1  0
 24 54  1  0
 25 55  1  0
 25 56  1  0
M  END
>  <mol_id>  (12) 
2026-09-18-6fnk-s0-n100-0012

>  <rmsd_to_ref>  (12) 


$$$$

     RDKit          3D

 68 70  0  0  0  0  0  0  0  0999 V2000
    3.2175   24.2639   32.8918 C   0  0  0  0  0  0  0  0  0  0  0  0
   -0.1983   15.4257   38.6834 C   0  0  0  0  0  0  0  0  0  0  0  0
    0.7930   17.8927   43.9936 C   0  0  0  0  0  0  0  0  0  0  0  0
    3.5084   22.5650   36.0125 C   0  0  1  0  0  0  0  0  0  0  0  0
    6.2911   23.7870   35.6518 C   0  0  1  0  0  0  0  0  0  0  0  0
    3.4755   24.4656   34.7405 C   0  0  2  0  0  0  0  0  0  0  0  0
    1.7558   18.3204   39.7457 O   0  0  0  0  0  0  0  0  0  0  0  0
    1.4277   16.1074   42.6042 C   0  0  0  0  0  0  0  0  0  0  0  0
    3.9472   21.8527   37.9619 C   0  0  0  0  0  0  0  0  0  0  0  0
    0.4996   16.3993   40.4607 N   0  0  0  0  0  0  0  0  0  0  0  0
    5.8171   22.8083   36.9945 C   0  0  1  0  0  0  0  0  0  0  0  0
    5.4624   22.4161   33.1583 C   0  0  0  0  0  0  0  0  0  0  0  0
    1.7168   17.5900   42.5424 C   0  0  0  0  0  0  0  0  0  0  0  0
    2.8726   16.4699   39.9109 O   0  0  0  0  0  0  0  0  0  0  0  0
    4.5277   24.3099   33.8555 C   0  0  1  0  0  0  0  0  0  0  0  0
    2.5226   20.7163   36.4592 O   0  0  0  0  0  0  0  0  0  0  0  0
    7.0000   23.6360   37.3439 C   0  0  0  0  0  0  0  0  0  0  0  0
   -0.2455   13.9434   38.8180 N   0  0  0  0  0  0  0  0  0  0  0  0
    3.2284   17.8229   43.0108 C   0  0  0  0  0  0  0  0  0  0  0  0
    1.7365   17.2130   40.3350 C   0  0  0  0  0  0  0  0  0  0  0  0
    0.4146   15.5858   41.6528 C   0  0  0  0  0  0  0  0  0  0  0  0
   -0.8591   16.0744   40.0554 C   0  0  1  0  0  0  0  0  0  0  0  0
    4.7599   22.4666   37.0998 C   0  0  2  0  0  0  0  0  0  0  0  0
    2.8328   21.6656   37.0173 C   0  0  2  0  0  0  0  0  0  0  0  0
    2.5254   23.3462   35.6594 O   0  0  0  0  0  0  0  0  0  0  0  0
   -1.7751   16.8178   39.4066 C   0  0  0  0  0  0  0  0  0  0  0  0
    5.3747   23.1899   34.5714 C   0  0  2  0  0  0  0  0  0  0  0  0
    2.8478   23.3261   32.4516 H   0  0  0  0  0  0  0  0  0  0  0  0
    2.7743   24.7877   32.0320 H   0  0  0  0  0  0  0  0  0  0  0  0
    0.8442   15.7595   38.5752 H   0  0  0  0  0  0  0  0  0  0  0  0
   -0.7582   15.7508   37.7941 H   0  0  0  0  0  0  0  0  0  0  0  0
    1.4535   17.8209   44.8704 H   0  0  0  0  0  0  0  0  0  0  0  0
    0.3552   18.9007   43.9461 H   0  0  0  0  0  0  0  0  0  0  0  0
   -0.0114   17.1471   44.0785 H   0  0  0  0  0  0  0  0  0  0  0  0
    3.9395   22.6195   35.0019 H   0  0  0  0  0  0  0  0  0  0  0  0
    6.6434   24.5394   34.9308 H   0  0  0  0  0  0  0  0  0  0  0  0
    3.4169   25.1474   35.6016 H   0  0  0  0  0  0  0  0  0  0  0  0
    1.8154   19.0487   40.4136 H   0  0  0  0  0  0  0  0  0  0  0  0
    2.3711   15.5755   42.4114 H   0  0  0  0  0  0  0  0  0  0  0  0
    1.0005   15.9375   43.6035 H   0  0  0  0  0  0  0  0  0  0  0  0
    4.3579   20.9004   38.3284 H   0  0  0  0  0  0  0  0  0  0  0  0
    3.7247   22.3779   38.9025 H   0  0  0  0  0  0  0  0  0  0  0  0
    5.6727   21.8517   37.5180 H   0  0  0  0  0  0  0  0  0  0  0  0
    5.7126   21.3594   33.3339 H   0  0  0  0  0  0  0  0  0  0  0  0
    4.4928   22.4827   32.6430 H   0  0  0  0  0  0  0  0  0  0  0  0
    6.2416   22.8786   32.5346 H   0  0  0  0  0  0  0  0  0  0  0  0
    1.5346   18.1260   41.5993 H   0  0  0  0  0  0  0  0  0  0  0  0
    3.4113   16.2114   40.7003 H   0  0  0  0  0  0  0  0  0  0  0  0
    5.3950   24.8382   33.4325 H   0  0  0  0  0  0  0  0  0  0  0  0
    2.3176   20.0015   37.1126 H   0  0  0  0  0  0  0  0  0  0  0  0
    7.9798   23.1561   37.4844 H   0  0  0  0  0  0  0  0  0  0  0  0
    7.2278   24.3505   38.1487 H   0  0  0  0  0  0  0  0  0  0  0  0
   -0.2101   13.6880   39.8152 H   0  0  0  0  0  0  0  0  0  0  0  0
   -1.1191   13.5886   38.4036 H   0  0  0  0  0  0  0  0  0  0  0  0
    0.5601   13.5283   38.3285 H   0  0  0  0  0  0  0  0  0  0  0  0
    3.2656   17.8930   44.1079 H   0  0  0  0  0  0  0  0  0  0  0  0
    3.8500   16.9794   42.6759 H   0  0  0  0  0  0  0  0  0  0  0  0
    3.6089   18.7564   42.5706 H   0  0  0  0  0  0  0  0  0  0  0  0
    1.7648   17.5039   41.3955 H   0  0  0  0  0  0  0  0  0  0  0  0
   -0.5911   15.6620   42.0918 H   0  0  0  0  0  0  0  0  0  0  0  0
    0.6010   14.5268   41.4208 H   0  0  0  0  0  0  0  0  0  0  0  0
   -1.4202   15.7448   40.9423 H   0  0  0  0  0  0  0  0  0  0  0  0
    5.0371   21.4833   36.6918 H   0  0  0  0  0  0  0  0  0  0  0  0
    1.8734   21.7750   37.5443 H   0  0  0  0  0  0  0  0  0  0  0  0
   -2.3512   17.4075   40.1348 H   0  0  0  0  0  0  0  0  0  0  0  0
   -1.2668   17.4962   38.7055 H   0  0  0  0  0  0  0  0  0  0  0  0
   -2.4555   16.1572   38.8493 H   0  0  0  0  0  0  0  0  0  0  0  0
    5.2348   22.4233   35.3477 H   0  0  0  0  0  0  0  0  0  0  0  0
  2 18  1  0
  2 22  1  0
  4 25  1  0
  4 24  1  0
  4 23  1  0
  5 11  1  0
  5 17  1  0
  6  1  1  0
  6 25  1  0
  7 20  1  0
  8 13  1  0
 10 21  1  0
 11 23  1  0
 11 17  1  0
 13 19  1  0
 13  3  1  0
 14 20  1  0
 15  1  1  0
 15 27  1  0
 15  6  1  0
 20 10  1  0
 21  8  1  0
 22 26  1  0
 22 10  1  0
 23  9  1  0
 24 16  1  0
 24  9  1  0
 27 12  1  0
 27  5  1  0
  1 28  1  0
  1 29  1  0
  2 30  1  0
  2 31  1  0
  3 32  1  0
  3 33  1  0
  3 34  1  0
  4 35  1  6
  5 36  1  1
  6 37  1  1
  7 38  1  0
  8 39  1  0
  8 40  1  0
  9 41  1  0
  9 42  1  0
 11 43  1  6
 12 44  1  0
 12 45  1  0
 12 46  1  0
 13 47  1  0
 14 48  1  0
 15 49  1  6
 16 50  1  0
 17 51  1  0
 17 52  1  0
 18 53  1  0
 18 54  1  0
 18 55  1  0
 19 56  1  0
 19 57  1  0
 19 58  1  0
 20 59  1  0
 21 60  1  0
 21 61  1  0
 22 62  1  1
 23 63  1  6
 24 64  1  1
 26 65  1  0
 26 66  1  0
 26 67  1  0
 27 68  1  1
M  CHG  1  18   1
M  END
>  <mol_id>  (13) 
2026-09-18-6fnk-s0-n100-0013

>  <rmsd_to_ref>  (13) 


$$$$

     RDKit          3D

 77 79  0  0  0  0  0  0  0  0999 V2000
    2.9477   24.2435   34.0203 C   0  0  0  0  0  0  0  0  0  0  0  0
    2.7966   25.1494   32.8093 C   0  0  0  0  0  0  0  0  0  0  0  0
    1.3130   19.7741   40.4493 C   0  0  0  0  0  0  0  0  0  0  0  0
    1.1183   22.4521   37.8201 C   0  0  0  0  0  0  0  0  0  0  0  0
   -0.9655   14.3117   40.7615 O   0  0  0  0  0  0  0  0  0  0  0  0
    1.6374   20.8001   42.9806 C   0  0  2  0  0  0  0  0  0  0  0  0
    0.6824   17.1032   42.0005 C   0  0  0  0  0  0  0  0  0  0  0  0
    1.4391   22.7636   36.6141 C   0  0  0  0  0  0  0  0  0  0  0  0
    1.5083   26.0637   32.6813 C   0  0  2  0  0  0  0  0  0  0  0  0
   -0.4828   15.4584   40.3725 C   0  0  1  0  0  0  0  0  0  0  0  0
   -0.4134   28.6733   34.8343 C   0  0  0  0  0  0  0  0  0  0  0  0
    2.9694   20.7481   43.6144 O   0  0  0  0  0  0  0  0  0  0  0  0
   -0.9753   17.1503   39.0996 O   0  0  0  0  0  0  0  0  0  0  0  0
    1.4083   19.4711   42.0022 C   0  0  0  0  0  0  0  0  0  0  0  0
   -1.5295   14.5890   43.0323 O   0  0  0  0  0  0  0  0  0  0  0  0
   -0.6397   17.2178   37.8986 C   0  0  0  0  0  0  0  0  0  0  0  0
    1.6249   22.9466   35.2817 C   0  0  0  0  0  0  0  0  0  0  0  0
    1.6169   22.1684   42.1376 C   0  0  0  0  0  0  0  0  0  0  0  0
    1.9283   21.3908   38.5582 C   0  0  0  0  0  0  0  0  0  0  0  0
   -1.2134   12.3373   42.1517 C   0  0  0  0  0  0  0  0  0  0  0  0
    1.5982   21.1488   39.9562 C   0  0  2  0  0  0  0  0  0  0  0  0
    0.9168   28.1363   34.1130 C   0  0  0  0  0  0  0  0  0  0  0  0
    1.1132   18.1844   42.2154 C   0  0  0  0  0  0  0  0  0  0  0  0
    1.3136   27.0388   33.6141 C   0  0  1  0  0  0  0  0  0  0  0  0
    1.4871   22.2552   40.8840 C   0  0  0  0  0  0  0  0  0  0  0  0
    3.7781   21.8668   44.1844 C   0  0  0  0  0  0  0  0  0  0  0  0
    0.7219   29.5053   34.7162 C   0  0  0  0  0  0  0  0  0  0  0  0
    0.4195   20.5479   44.0197 C   0  0  0  0  0  0  0  0  0  0  0  0
    0.4722   26.2054   33.8839 C   0  0  0  0  0  0  0  0  0  0  0  0
   -1.3180   13.8462   42.0310 C   0  0  0  0  0  0  0  0  0  0  0  0
   -1.2902   16.5628   39.8875 C   0  0  0  0  0  0  0  0  0  0  0  0
    0.4560   16.0845   41.2028 C   0  0  0  0  0  0  0  0  0  0  0  0
    1.9599   24.3730   34.8993 C   0  0  0  0  0  0  0  0  0  0  0  0
    3.8959   24.4865   34.5221 H   0  0  0  0  0  0  0  0  0  0  0  0
    2.9261   23.2058   33.6561 H   0  0  0  0  0  0  0  0  0  0  0  0
    3.6685   25.8200   32.7992 H   0  0  0  0  0  0  0  0  0  0  0  0
    2.7023   24.4468   31.9681 H   0  0  0  0  0  0  0  0  0  0  0  0
    2.0219   19.0995   39.9468 H   0  0  0  0  0  0  0  0  0  0  0  0
    0.2464   19.6319   40.2214 H   0  0  0  0  0  0  0  0  0  0  0  0
    0.2686   22.9460   38.3142 H   0  0  0  0  0  0  0  0  0  0  0  0
    0.2496   16.7914   42.9625 H   0  0  0  0  0  0  0  0  0  0  0  0
    1.2613   23.8349   36.7887 H   0  0  0  0  0  0  0  0  0  0  0  0
    1.7683   21.7231   36.4759 H   0  0  0  0  0  0  0  0  0  0  0  0
    1.4941   25.9011   31.5934 H   0  0  0  0  0  0  0  0  0  0  0  0
   -0.0771   14.9396   39.4915 H   0  0  0  0  0  0  0  0  0  0  0  0
   -1.3154   28.8840   34.2410 H   0  0  0  0  0  0  0  0  0  0  0  0
   -1.0439   28.3270   35.6666 H   0  0  0  0  0  0  0  0  0  0  0  0
    0.2934   17.7936   37.8104 H   0  0  0  0  0  0  0  0  0  0  0  0
   -0.4830   16.2030   37.5040 H   0  0  0  0  0  0  0  0  0  0  0  0
   -1.4338   17.7163   37.3234 H   0  0  0  0  0  0  0  0  0  0  0  0
    2.4505   22.2974   34.9547 H   0  0  0  0  0  0  0  0  0  0  0  0
    0.6728   22.6991   34.7896 H   0  0  0  0  0  0  0  0  0  0  0  0
    1.7249   23.1081   42.6993 H   0  0  0  0  0  0  0  0  0  0  0  0
    2.7298   20.8304   38.0546 H   0  0  0  0  0  0  0  0  0  0  0  0
   -1.2543   12.0506   43.2129 H   0  0  0  0  0  0  0  0  0  0  0  0
   -2.0491   11.8675   41.6124 H   0  0  0  0  0  0  0  0  0  0  0  0
   -0.2608   11.9999   41.7172 H   0  0  0  0  0  0  0  0  0  0  0  0
    0.5312   21.2884   39.7284 H   0  0  0  0  0  0  0  0  0  0  0  0
    1.2900   27.7641   35.0786 H   0  0  0  0  0  0  0  0  0  0  0  0
    2.2454   27.6186   33.6885 H   0  0  0  0  0  0  0  0  0  0  0  0
    1.2728   23.2492   40.4642 H   0  0  0  0  0  0  0  0  0  0  0  0
    3.6561   21.8875   45.2774 H   0  0  0  0  0  0  0  0  0  0  0  0
    4.8391   21.7155   43.9366 H   0  0  0  0  0  0  0  0  0  0  0  0
    3.4347   22.8212   43.7589 H   0  0  0  0  0  0  0  0  0  0  0  0
    1.2830   29.7699   35.6246 H   0  0  0  0  0  0  0  0  0  0  0  0
    0.8545   30.5172   34.3056 H   0  0  0  0  0  0  0  0  0  0  0  0
    0.7647   20.7482   45.0448 H   0  0  0  0  0  0  0  0  0  0  0  0
   -0.4158   21.2209   43.7760 H   0  0  0  0  0  0  0  0  0  0  0  0
    0.0829   19.5033   43.9436 H   0  0  0  0  0  0  0  0  0  0  0  0
   -0.5923   26.3995   33.6864 H   0  0  0  0  0  0  0  0  0  0  0  0
    0.1859   25.6147   34.7665 H   0  0  0  0  0  0  0  0  0  0  0  0
   -2.2580   16.1336   39.5889 H   0  0  0  0  0  0  0  0  0  0  0  0
   -1.2681   17.2652   40.7338 H   0  0  0  0  0  0  0  0  0  0  0  0
    0.6888   15.2539   41.8854 H   0  0  0  0  0  0  0  0  0  0  0  0
    0.8412   16.6588   40.3473 H   0  0  0  0  0  0  0  0  0  0  0  0
    2.2902   24.9467   35.7778 H   0  0  0  0  0  0  0  0  0  0  0  0
    1.0958   24.9170   34.4901 H   0  0  0  0  0  0  0  0  0  0  0  0
  1 33  1  0
  2  1  1  0
  3 14  1  0
  4 19  2  3
  5 30  1  0
  6 12  1  1
  6 28  1  0
  7 23  2  0
  8  4  1  0
  9  2  1  0
  9 24  1  0
  9 29  1  0
 10 31  1  0
 10  5  1  0
 10 32  1  0
 12 26  1  0
 13 31  1  0
 14 23  2  0
 14  6  1  0
 16 13  1  0
 17  8  1  0
 18  6  1  0
 20 30  1  0
 21 19  1  0
 21  3  1  0
 21 25  1  0
 22 27  1  0
 22 11  1  0
 24 29  1  0
 24 22  1  0
 25 18  2  0
 27 11  1  0
 30 15  2  0
 32  7  1  0
 33 17  1  0
  1 34  1  0
  1 35  1  0
  2 36  1  0
  2 37  1  0
  3 38  1  0
  3 39  1  0
  4 40  1  0
  7 41  1  0
  8 42  1  0
  8 43  1  0
  9 44  1  6
 10 45  1  6
 11 46  1  0
 11 47  1  0
 16 48  1  0
 16 49  1  0
 16 50  1  0
 17 51  1  0
 17 52  1  0
 18 53  1  0
 19 54  1  0
 20 55  1  0
 20 56  1  0
 20 57  1  0
 21 58  1  1
 22 59  1  0
 24 60  1  1
 25 61  1  0
 26 62  1  0
 26 63  1  0
 26 64  1  0
 27 65  1  0
 27 66  1  0
 28 67  1  0
 28 68  1  0
 28 69  1  0
 29 70  1  0
 29 71  1  0
 31 72  1  0
 31 73  1  0
 32 74  1  0
 32 75  1  0
 33 76  1  0
 33 77  1  0
M  END
>  <mol_id>  (14) 
2026-09-18-6fnk-s0-n100-0014

>  <rmsd_to_ref>  (14) 


$$$$

     RDKit          3D

 51 51  0  0  0  0  0  0  0  0999 V2000
    1.1844   20.5764   41.5617 C   0  0  0  0  0  0  0  0  0  0  0  0
   -0.0142   23.3760   34.9226 C   0  0  0  0  0  0  0  0  0  0  0  0
    2.7985   22.3208   38.5527 C   0  0  1  0  0  0  0  0  0  0  0  0
    2.7552   15.4071   37.2659 C   0  0  0  0  0  0  0  0  0  0  0  0
    3.6755   17.2642   36.2969 F   0  0  0  0  0  0  0  0  0  0  0  0
    1.6872   17.6266   37.6204 N   0  0  0  0  0  0  0  0  0  0  0  0
    2.2130   21.3824   40.9129 N   0  0  0  0  0  0  0  0  0  0  0  0
    1.4870   20.4030   38.9125 O   0  0  0  0  0  0  0  0  0  0  0  0
   -0.1294   22.8039   36.0074 C   0  0  0  0  0  0  0  0  0  0  0  0
    2.1877   24.1234   35.1278 C   0  0  0  0  0  0  0  0  0  0  0  0
    0.7591   17.1165   38.6543 C   0  0  0  0  0  0  0  0  0  0  0  0
    2.1184   21.3032   39.4464 C   0  0  0  0  0  0  0  0  0  0  0  0
    1.9831   22.8442   37.2248 C   0  0  0  0  0  0  0  0  0  0  0  0
    0.9224   24.2797   34.3345 C   0  0  0  0  0  0  0  0  0  0  0  0
    4.4196   24.2437   39.0658 C   0  0  0  0  0  0  0  0  0  0  0  0
    0.6131   22.6556   37.1485 C   0  0  0  0  0  0  0  0  0  0  0  0
    0.6309   14.7481   38.1298 O   0  0  0  0  0  0  0  0  0  0  0  0
    4.0903   22.7546   38.8896 C   0  0  0  0  0  0  0  0  0  0  0  0
    1.9559   14.4504   37.8930 C   0  0  0  0  0  0  0  0  0  0  0  0
    1.7968   19.9221   42.7974 C   0  0  0  0  0  0  0  0  0  0  0  0
    2.5639   23.5476   36.1982 C   0  0  0  0  0  0  0  0  0  0  0  0
   -0.0558   15.9517   38.0799 C   0  0  0  0  0  0  0  0  0  0  0  0
    0.3925   25.1442   33.1355 C   0  0  0  0  0  0  0  0  0  0  0  0
    2.5204   16.7549   36.9917 C   0  0  0  0  0  0  0  0  0  0  0  0
    0.8274   19.8006   40.8683 H   0  0  0  0  0  0  0  0  0  0  0  0
    0.3328   21.2099   41.8508 H   0  0  0  0  0  0  0  0  0  0  0  0
   -0.8375   23.1296   34.2360 H   0  0  0  0  0  0  0  0  0  0  0  0
    3.2287   21.5058   37.9522 H   0  0  0  0  0  0  0  0  0  0  0  0
    3.7353   15.0362   36.9314 H   0  0  0  0  0  0  0  0  0  0  0  0
    2.9178   21.9378   41.4184 H   0  0  0  0  0  0  0  0  0  0  0  0
   -1.0676   23.2278   36.3946 H   0  0  0  0  0  0  0  0  0  0  0  0
    0.1583   21.8218   35.6038 H   0  0  0  0  0  0  0  0  0  0  0  0
    3.0231   24.6558   34.6497 H   0  0  0  0  0  0  0  0  0  0  0  0
    1.3351   16.7672   39.5239 H   0  0  0  0  0  0  0  0  0  0  0  0
    0.0779   17.9222   38.9653 H   0  0  0  0  0  0  0  0  0  0  0  0
    4.2924   24.5249   40.1216 H   0  0  0  0  0  0  0  0  0  0  0  0
    5.4601   24.4277   38.7600 H   0  0  0  0  0  0  0  0  0  0  0  0
    3.7422   24.8453   38.4419 H   0  0  0  0  0  0  0  0  0  0  0  0
    0.0844   22.3665   38.0687 H   0  0  0  0  0  0  0  0  0  0  0  0
    4.3418   22.2669   39.8430 H   0  0  0  0  0  0  0  0  0  0  0  0
    4.6682   22.4909   37.9915 H   0  0  0  0  0  0  0  0  0  0  0  0
    2.3747   13.4783   38.1923 H   0  0  0  0  0  0  0  0  0  0  0  0
    1.2093   20.1956   43.6863 H   0  0  0  0  0  0  0  0  0  0  0  0
    1.7894   18.8289   42.6751 H   0  0  0  0  0  0  0  0  0  0  0  0
    2.8329   20.2702   42.9213 H   0  0  0  0  0  0  0  0  0  0  0  0
    3.6511   23.6377   36.3400 H   0  0  0  0  0  0  0  0  0  0  0  0
   -0.2998   16.1753   37.0309 H   0  0  0  0  0  0  0  0  0  0  0  0
   -0.9634   15.8445   38.6920 H   0  0  0  0  0  0  0  0  0  0  0  0
   -0.3523   25.8650   33.5042 H   0  0  0  0  0  0  0  0  0  0  0  0
    1.2316   25.6869   32.6758 H   0  0  0  0  0  0  0  0  0  0  0  0
   -0.0731   24.4865   32.3869 H   0  0  0  0  0  0  0  0  0  0  0  0
  1 20  1  0
  2  9  1  0
  3 18  1  0
  3 12  1  0
  4 19  2  0
  5 24  1  0
  6 11  1  0
  7  1  1  0
  8 12  2  0
  9 16  1  0
 10 21  2  0
 12  7  1  0
 13 16  2  0
 13  3  1  0
 14 10  1  0
 14  2  2  0
 17 22  1  0
 18 15  1  0
 19 17  1  0
 21 13  1  0
 22 11  1  0
 23 14  1  0
 24  4  1  0
 24  6  2  0
  1 25  1  0
  1 26  1  0
  2 27  1  0
  3 28  1  6
  4 29  1  0
  7 30  1  0
  9 31  1  0
  9 32  1  0
 10 33  1  0
 11 34  1  0
 11 35  1  0
 15 36  1  0
 15 37  1  0
 15 38  1  0
 16 39  1  0
 18 40  1  0
 18 41  1  0
 19 42  1  0
 20 43  1  0
 20 44  1  0
 20 45  1  0
 21 46  1  0
 22 47  1  0
 22 48  1  0
 23 49  1  0
 23 50  1  0
 23 51  1  0
M  END
>  <mol_id>  (15) 
2026-09-18-6fnk-s0-n100-0015

>  <rmsd_to_ref>  (15) 


$$$$

     RDKit          3D

 55 57  0  0  0  0  0  0  0  0999 V2000
    1.4460   18.1220   40.3950 C   0  0  0  0  0  0  0  0  0  0  0  0
    1.4960   26.3280   33.5420 C   0  0  1  0  0  0  0  0  0  0  0  0
    1.7160   18.1500   38.9190 C   0  0  1  0  0  0  0  0  0  0  0  0
    1.0910   23.2250   35.6020 C   0  0  0  0  0  0  0  0  0  0  0  0
    2.7470   22.3100   35.2830 N   0  0  0  0  0  0  0  0  0  0  0  0
    3.4140   22.8310   34.3390 N   0  0  0  0  0  0  0  0  0  0  0  0
    2.1080   22.2600   36.3140 N   0  0  0  0  0  0  0  0  0  0  0  0
    2.2030   25.7560   32.5080 C   0  0  0  0  0  0  0  0  0  0  0  0
    2.9050   24.5030   32.6680 C   0  0  0  0  0  0  0  0  0  0  0  0
    2.7560   19.8700   35.7850 O   0  0  0  0  0  0  0  0  0  0  0  0
    3.3140   19.5760   43.1060 N   0  0  0  0  0  0  0  0  0  0  0  0
    2.6650   23.9360   33.8940 C   0  0  2  0  0  0  0  0  0  0  0  0
    0.8400   15.5750   39.0310 S   0  0  0  0  0  0  0  0  0  0  0  0
    1.5800   24.3050   34.7390 C   0  0  1  0  0  0  0  0  0  0  0  0
    0.9050   18.4730   43.4850 Cl  0  0  0  0  0  0  0  0  0  0  0  0
    3.8760   20.3250   42.1340 O   0  0  0  0  0  0  0  0  0  0  0  0
    1.2220   17.0490   38.1520 C   0  0  0  0  0  0  0  0  0  0  0  0
    1.2430   27.5850   33.5380 F   0  0  0  0  0  0  0  0  0  0  0  0
    2.1540   19.2220   41.1200 C   0  0  2  0  0  0  0  0  0  0  0  0
    0.9710   25.5690   34.5720 C   0  0  0  0  0  0  0  0  0  0  0  0
    2.3340   20.5760   38.1420 N   0  0  0  0  0  0  0  0  0  0  0  0
    2.3300   19.2840   38.5870 O   0  0  0  0  0  0  0  0  0  0  0  0
   -0.3250   16.8430   36.4190 C   0  0  0  0  0  0  0  0  0  0  0  0
    3.1800   20.3480   41.0210 C   0  0  0  0  0  0  0  0  0  0  0  0
    2.2060   19.0540   42.5950 C   0  0  1  0  0  0  0  0  0  0  0  0
    1.0870   17.0270   36.8120 N   0  0  0  0  0  0  0  0  0  0  0  0
    2.0650   20.7830   36.7180 C   0  0  1  0  0  0  0  0  0  0  0  0
    0.3636   18.2289   40.5592 H   0  0  0  0  0  0  0  0  0  0  0  0
    1.8180   17.1644   40.7882 H   0  0  0  0  0  0  0  0  0  0  0  0
    2.4013   26.5121   34.1391 H   0  0  0  0  0  0  0  0  0  0  0  0
    2.6617   17.6123   39.0818 H   0  0  0  0  0  0  0  0  0  0  0  0
    0.4379   22.5944   34.9808 H   0  0  0  0  0  0  0  0  0  0  0  0
    0.6279   23.7647   36.4412 H   0  0  0  0  0  0  0  0  0  0  0  0
    3.4573   21.6155   35.5550 H   0  0  0  0  0  0  0  0  0  0  0  0
    4.3359   23.1384   34.6802 H   0  0  0  0  0  0  0  0  0  0  0  0
    2.9574   26.4961   32.2028 H   0  0  0  0  0  0  0  0  0  0  0  0
    1.4051   25.4879   31.7998 H   0  0  0  0  0  0  0  0  0  0  0  0
    2.5740   23.8070   31.8832 H   0  0  0  0  0  0  0  0  0  0  0  0
    3.9837   24.7038   32.5901 H   0  0  0  0  0  0  0  0  0  0  0  0
    3.2662   19.1959   36.3001 H   0  0  0  0  0  0  0  0  0  0  0  0
    3.9591   18.8265   43.3939 H   0  0  0  0  0  0  0  0  0  0  0  0
    1.9327   23.2551   33.4357 H   0  0  0  0  0  0  0  0  0  0  0  0
    1.5971   25.0029   35.5891 H   0  0  0  0  0  0  0  0  0  0  0  0
    1.6532   19.4598   40.1699 H   0  0  0  0  0  0  0  0  0  0  0  0
    1.0887   26.1333   35.5089 H   0  0  0  0  0  0  0  0  0  0  0  0
   -0.0810   25.3773   34.3139 H   0  0  0  0  0  0  0  0  0  0  0  0
    1.6171   21.0909   38.6729 H   0  0  0  0  0  0  0  0  0  0  0  0
   -0.9491   16.7617   37.3212 H   0  0  0  0  0  0  0  0  0  0  0  0
   -0.6547   17.7058   35.8216 H   0  0  0  0  0  0  0  0  0  0  0  0
   -0.4226   15.9245   35.8216 H   0  0  0  0  0  0  0  0  0  0  0  0
    3.8411   20.1833   40.1574 H   0  0  0  0  0  0  0  0  0  0  0  0
    2.6863   21.3214   40.8839 H   0  0  0  0  0  0  0  0  0  0  0  0
    2.0508   18.0748   43.0715 H   0  0  0  0  0  0  0  0  0  0  0  0
    1.8675   17.1257   36.1472 H   0  0  0  0  0  0  0  0  0  0  0  0
    1.0179   20.4677   36.5989 H   0  0  0  0  0  0  0  0  0  0  0  0
  2 18  1  0
  2 20  1  0
  3  1  1  0
  4  7  1  0
  5  7  1  0
  6  5  1  0
  7 27  1  0
  8  9  1  0
  8  2  1  0
 12  9  1  0
 12  6  1  0
 12 14  1  0
 14 20  1  0
 14  4  1  0
 16 11  1  0
 17  3  1  0
 17 13  2  0
 19  1  1  0
 19 25  1  0
 21 22  1  0
 22  3  1  0
 23 26  1  0
 24 19  1  0
 24 16  1  0
 25 11  1  0
 25 15  1  0
 26 17  1  0
 27 10  1  0
 27 21  1  0
  1 28  1  0
  1 29  1  0
  2 30  1  1
  3 31  1  1
  4 32  1  0
  4 33  1  0
  5 34  1  0
  6 35  1  0
  8 36  1  0
  8 37  1  0
  9 38  1  0
  9 39  1  0
 10 40  1  0
 11 41  1  0
 12 42  1  1
 14 43  1  1
 19 44  1  1
 20 45  1  0
 20 46  1  0
 21 47  1  0
 23 48  1  0
 23 49  1  0
 23 50  1  0
 24 51  1  0
 24 52  1  0
 25 53  1  6
 26 54  1  0
 27 55  1  1
M  END
>  <mol_id>  (16) 
2026-09-18-6fnk-s0-n100-0016

>  <rmsd_to_ref>  (16) 


$$$$

     RDKit          3D

 93 95  0  0  0  0  0  0  0  0999 V2000
    3.4248   20.3880   42.1832 C   0  0  0  0  0  0  0  0  0  0  0  0
    2.1184   18.7339   40.9416 F   0  0  0  0  0  0  0  0  0  0  0  0
    0.9566   11.4852   41.5292 C   0  0  0  0  0  0  0  0  0  0  0  0
    1.7909   11.0844   39.1140 N   0  0  0  0  0  0  0  0  0  0  0  0
    1.4676   15.0132   38.4976 C   0  0  2  0  0  0  0  0  0  0  0  0
   -0.1670   28.3164   34.1625 C   0  0  0  0  0  0  0  0  0  0  0  0
    0.5180   26.1685   33.0856 C   0  0  0  0  0  0  0  0  0  0  0  0
    4.9775   21.7797   41.1353 C   0  0  0  0  0  0  0  0  0  0  0  0
    4.6772   15.1298   40.3957 N   0  0  0  0  0  0  0  0  0  0  0  0
    1.3779   12.8183   41.5986 C   0  0  1  0  0  0  0  0  0  0  0  0
    0.4611   28.0028   35.5750 C   0  0  0  0  0  0  0  0  0  0  0  0
   -0.1430   25.6885   35.0591 C   0  0  0  0  0  0  0  0  0  0  0  0
    2.2995   14.2222   39.5313 C   0  0  1  0  0  0  0  0  0  0  0  0
   -1.6323   27.7132   35.9689 C   0  0  0  0  0  0  0  0  0  0  0  0
   -1.4037   27.0238   34.2694 S   0  0  2  0  0  4  0  0  0  0  0  0
    3.1620   17.7790   38.3343 C   0  0  2  0  0  0  0  0  0  0  0  0
   -0.7411   24.3159   36.1196 C   0  0  0  0  0  0  0  0  0  0  0  0
   -0.1189   23.6571   35.2545 C   0  0  0  0  0  0  0  0  0  0  0  0
    2.2998   17.3211   37.1265 O   0  0  0  0  0  0  0  0  0  0  0  0
   -1.2535   29.0706   36.2622 O   0  0  0  0  0  0  0  0  0  0  0  0
    1.9563   16.5550   38.4614 C   0  0  1  0  0  0  0  0  0  0  0  0
   -0.0677   14.1056   39.9889 C   0  0  0  0  0  0  0  0  0  0  0  0
    1.8561   10.7341   40.5946 C   0  0  0  0  0  0  0  0  0  0  0  0
    3.3619   15.1501   40.1466 C   0  0  0  0  0  0  0  0  0  0  0  0
    0.2811   24.0643   34.1158 C   0  0  0  0  0  0  0  0  0  0  0  0
    0.1476   14.5802   38.6406 O   0  0  0  0  0  0  0  0  0  0  0  0
    3.4476   19.2926   38.5227 C   0  0  0  0  0  0  0  0  0  0  0  0
   -1.0041   25.4739   34.4502 C   0  0  1  0  0  0  0  0  0  0  0  0
   -0.0515   22.1851   35.8141 C   0  0  0  0  0  0  0  0  0  0  0  0
    0.8784   27.6148   33.2423 N   0  0  0  0  0  0  0  0  0  0  0  0
    3.0237   19.7464   41.0015 C   0  0  0  0  0  0  0  0  0  0  0  0
    3.7287   20.0175   39.8604 C   0  0  0  0  0  0  0  0  0  0  0  0
    1.2602   13.6738   40.3726 N   0  0  0  0  0  0  0  0  0  0  0  0
    2.6771   19.9453   37.6199 C   0  0  0  0  0  0  0  0  0  0  0  0
   -0.4003   29.5216   33.8242 C   0  0  0  0  0  0  0  0  0  0  0  0
    0.7029   13.5704   42.7444 C   0  0  0  0  0  0  0  0  0  0  0  0
    4.7109   21.1535   39.9787 C   0  0  0  0  0  0  0  0  0  0  0  0
    4.3116   21.3412   42.3069 C   0  0  0  0  0  0  0  0  0  0  0  0
   -0.4844   25.0987   33.5828 C   0  0  1  0  0  0  0  0  0  0  0  0
    2.9381   20.0512   43.1104 H   0  0  0  0  0  0  0  0  0  0  0  0
    1.0040   11.0315   42.5302 H   0  0  0  0  0  0  0  0  0  0  0  0
   -0.0789   11.4427   41.1607 H   0  0  0  0  0  0  0  0  0  0  0  0
    1.8408   12.1069   39.0006 H   0  0  0  0  0  0  0  0  0  0  0  0
    2.5823   10.6453   38.6222 H   0  0  0  0  0  0  0  0  0  0  0  0
    0.9056   10.7378   38.7178 H   0  0  0  0  0  0  0  0  0  0  0  0
    1.6174   14.8257   37.4242 H   0  0  0  0  0  0  0  0  0  0  0  0
    0.3571   26.1125   31.9989 H   0  0  0  0  0  0  0  0  0  0  0  0
    1.2603   25.8690   33.8400 H   0  0  0  0  0  0  0  0  0  0  0  0
    5.6950   22.6126   41.1730 H   0  0  0  0  0  0  0  0  0  0  0  0
    4.8352   15.1866   41.4120 H   0  0  0  0  0  0  0  0  0  0  0  0
    5.0817   14.2545   40.0338 H   0  0  0  0  0  0  0  0  0  0  0  0
    5.1267   15.9328   39.9330 H   0  0  0  0  0  0  0  0  0  0  0  0
    2.4574   12.6732   41.7525 H   0  0  0  0  0  0  0  0  0  0  0  0
   -0.1238   28.5095   36.3568 H   0  0  0  0  0  0  0  0  0  0  0  0
    0.4450   26.9171   35.7505 H   0  0  0  0  0  0  0  0  0  0  0  0
    1.4999   28.3634   35.6025 H   0  0  0  0  0  0  0  0  0  0  0  0
   -0.4316   25.6739   36.1205 H   0  0  0  0  0  0  0  0  0  0  0  0
    0.6318   24.9286   34.8793 H   0  0  0  0  0  0  0  0  0  0  0  0
    0.2511   26.6823   34.7999 H   0  0  0  0  0  0  0  0  0  0  0  0
    2.9361   13.3966   39.1803 H   0  0  0  0  0  0  0  0  0  0  0  0
   -1.0555   27.0705   36.6503 H   0  0  0  0  0  0  0  0  0  0  0  0
   -2.7261   27.7303   36.0846 H   0  0  0  0  0  0  0  0  0  0  0  0
   -2.2788   26.8820   33.2248 H   0  0  0  0  0  0  0  0  0  0  0  0
    4.1280   17.8059   38.8598 H   0  0  0  0  0  0  0  0  0  0  0  0
   -0.9253   25.3895   35.9661 H   0  0  0  0  0  0  0  0  0  0  0  0
   -1.1032   23.8208   37.0327 H   0  0  0  0  0  0  0  0  0  0  0  0
   -1.1783   29.1877   37.2424 H   0  0  0  0  0  0  0  0  0  0  0  0
    1.3492   16.3152   39.3468 H   0  0  0  0  0  0  0  0  0  0  0  0
   -0.7812   13.2687   40.0087 H   0  0  0  0  0  0  0  0  0  0  0  0
   -0.4994   14.8617   40.6611 H   0  0  0  0  0  0  0  0  0  0  0  0
    1.6110    9.6660   40.6905 H   0  0  0  0  0  0  0  0  0  0  0  0
    2.8739   11.0160   40.9022 H   0  0  0  0  0  0  0  0  0  0  0  0
    3.2617   16.0532   39.5266 H   0  0  0  0  0  0  0  0  0  0  0  0
    3.0950   14.8807   41.1792 H   0  0  0  0  0  0  0  0  0  0  0  0
    1.3172   24.4189   34.2196 H   0  0  0  0  0  0  0  0  0  0  0  0
    0.1916   23.2134   33.4244 H   0  0  0  0  0  0  0  0  0  0  0  0
   -1.8393   24.8166   34.7335 H   0  0  0  0  0  0  0  0  0  0  0  0
    0.0154   22.2128   36.9117 H   0  0  0  0  0  0  0  0  0  0  0  0
   -0.9577   21.6376   35.5158 H   0  0  0  0  0  0  0  0  0  0  0  0
    0.8348   21.6777   35.4054 H   0  0  0  0  0  0  0  0  0  0  0  0
    1.8142   27.6911   33.6659 H   0  0  0  0  0  0  0  0  0  0  0  0
    0.8809   28.0693   32.3181 H   0  0  0  0  0  0  0  0  0  0  0  0
    2.7079   21.0434   37.5623 H   0  0  0  0  0  0  0  0  0  0  0  0
    2.0207   19.3773   36.9443 H   0  0  0  0  0  0  0  0  0  0  0  0
   -0.4466   30.1527   34.7240 H   0  0  0  0  0  0  0  0  0  0  0  0
    0.4048   29.8802   33.1660 H   0  0  0  0  0  0  0  0  0  0  0  0
   -1.3608   29.5732   33.2903 H   0  0  0  0  0  0  0  0  0  0  0  0
    1.1537   13.2640   43.6999 H   0  0  0  0  0  0  0  0  0  0  0  0
    0.8408   14.6526   42.6041 H   0  0  0  0  0  0  0  0  0  0  0  0
   -0.3718   13.3358   42.7541 H   0  0  0  0  0  0  0  0  0  0  0  0
    5.2360   21.4866   39.0713 H   0  0  0  0  0  0  0  0  0  0  0  0
    4.5332   21.7876   43.2875 H   0  0  0  0  0  0  0  0  0  0  0  0
   -1.1619   24.8180   32.7628 H   0  0  0  0  0  0  0  0  0  0  0  0
  1 38  1  0
  2 31  1  0
  3 10  1  0
  4 23  1  0
  5 26  1  0
  5 21  1  0
  5 13  1  0
  6 11  1  0
  7 30  1  0
  7 39  1  0
  8 38  2  0
 10 36  1  0
 13 24  1  0
 13 33  1  0
 14 20  1  0
 15  6  1  0
 15 28  1  0
 15 14  1  0
 16 27  1  0
 18 29  1  0
 18 17  2  3
 19 16  1  0
 21 19  1  0
 21 16  1  0
 22 33  1  0
 23  3  1  0
 24  9  1  0
 25 18  1  0
 26 22  1  0
 27 32  1  0
 28 12  1  0
 30  6  1  0
 31  1  2  0
 32 37  2  0
 32 31  1  0
 33 10  1  0
 34 27  2  3
 35  6  1  0
 37  8  1  0
 39 25  1  0
 39 28  1  0
  1 40  1  0
  3 41  1  0
  3 42  1  0
  4 43  1  0
  4 44  1  0
  4 45  1  0
  5 46  1  6
  7 47  1  0
  7 48  1  0
  8 49  1  0
  9 50  1  0
  9 51  1  0
  9 52  1  0
 10 53  1  1
 11 54  1  0
 11 55  1  0
 11 56  1  0
 12 57  1  0
 12 58  1  0
 12 59  1  0
 13 60  1  6
 14 61  1  0
 14 62  1  0
 15 63  1  6
 16 64  1  6
 17 65  1  0
 17 66  1  0
 20 67  1  0
 21 68  1  1
 22 69  1  0
 22 70  1  0
 23 71  1  0
 23 72  1  0
 24 73  1  0
 24 74  1  0
 25 75  1  0
 25 76  1  0
 28 77  1  1
 29 78  1  0
 29 79  1  0
 29 80  1  0
 30 81  1  0
 30 82  1  0
 34 83  1  0
 34 84  1  0
 35 85  1  0
 35 86  1  0
 35 87  1  0
 36 88  1  0
 36 89  1  0
 36 90  1  0
 37 91  1  0
 38 92  1  0
 39 93  1  6
M  CHG  3   4   1   9   1  30   1
M  END
>  <mol_id>  (17) 
2026-09-18-6fnk-s0-n100-0017

>  <rmsd_to_ref>  (17) 


$$$$

     RDKit          3D

 58 61  0  0  0  0  0  0  0  0999 V2000
    3.2723   22.5396   37.4231 C   0  0  0  0  0  0  0  0  0  0  0  0
   -0.6075   17.6567   44.6956 C   0  0  0  0  0  0  0  0  0  0  0  0
    3.9352   21.9392   36.4870 C   0  0  0  0  0  0  0  0  0  0  0  0
    0.9379   16.3552   36.6838 C   0  0  0  0  0  0  0  0  0  0  0  0
    1.7144   19.9055   42.8119 C   0  0  0  0  0  0  0  0  0  0  0  0
    1.6366   18.1736   38.0648 C   0  0  0  0  0  0  0  0  0  0  0  0
    2.9192   25.7287   33.0233 C   0  0  0  0  0  0  0  0  0  0  0  0
    1.7198   26.1542   33.6624 C   0  0  0  0  0  0  0  0  0  0  0  0
    2.6263   18.0132   37.4127 O   0  0  0  0  0  0  0  0  0  0  0  0
   -0.9619   18.8446   45.2574 N   0  0  0  0  0  0  0  0  0  0  0  0
   -0.9763   16.5718   45.0657 O   0  0  0  0  0  0  0  0  0  0  0  0
    3.4221   24.6504   33.6617 C   0  0  2  0  0  0  0  0  0  0  0  0
    3.0854   20.5251   40.7696 C   0  0  0  0  0  0  0  0  0  0  0  0
    4.9956   22.9598   35.7446 C   0  0  0  0  0  0  0  0  0  0  0  0
    2.8578   23.9009   34.8545 C   0  0  2  0  0  0  0  0  0  0  0  0
    0.5871   17.5402   37.5589 O   0  0  0  0  0  0  0  0  0  0  0  0
    0.2566   18.1845   43.6491 C   0  0  1  0  0  0  0  0  0  0  0  0
    2.3454   20.1958   41.8533 C   0  0  0  0  0  0  0  0  0  0  0  0
    1.8341   18.9543   39.2716 C   0  0  0  0  0  0  0  0  0  0  0  0
    0.6124   19.3570   43.6524 C   0  0  2  0  0  0  0  0  0  0  0  0
    2.7066   21.3569   38.3898 C   0  0  0  0  0  0  0  0  0  0  0  0
    1.6548   24.4064   35.3821 C   0  0  0  0  0  0  0  0  0  0  0  0
    0.8780   16.9430   42.7497 C   0  0  0  0  0  0  0  0  0  0  0  0
    4.0209   23.3839   34.6988 C   0  0  1  0  0  0  0  0  0  0  0  0
    2.5471   20.3347   39.3313 C   0  0  1  0  0  0  0  0  0  0  0  0
    1.0979   25.5271   34.7204 C   0  0  0  0  0  0  0  0  0  0  0  0
   -0.3862   19.8756   44.5936 C   0  0  0  0  0  0  0  0  0  0  0  0
   -0.7691   21.0987   44.7466 O   0  0  0  0  0  0  0  0  0  0  0  0
    4.6288   23.7657   33.4199 C   0  0  0  0  0  0  0  0  0  0  0  0
    2.4392   23.1157   36.9941 H   0  0  0  0  0  0  0  0  0  0  0  0
    3.9040   23.2497   37.9769 H   0  0  0  0  0  0  0  0  0  0  0  0
    4.4953   21.1011   36.9274 H   0  0  0  0  0  0  0  0  0  0  0  0
    3.2186   21.5798   35.7338 H   0  0  0  0  0  0  0  0  0  0  0  0
    1.1813   15.4902   37.3182 H   0  0  0  0  0  0  0  0  0  0  0  0
    0.0807   16.1083   36.0401 H   0  0  0  0  0  0  0  0  0  0  0  0
    1.8065   16.6064   36.0574 H   0  0  0  0  0  0  0  0  0  0  0  0
    3.3689   26.2073   32.1408 H   0  0  0  0  0  0  0  0  0  0  0  0
    1.2457   27.0684   33.2756 H   0  0  0  0  0  0  0  0  0  0  0  0
   -1.5817   18.9457   46.0737 H   0  0  0  0  0  0  0  0  0  0  0  0
    3.3255   21.5937   40.8715 H   0  0  0  0  0  0  0  0  0  0  0  0
    3.9047   19.7924   40.8129 H   0  0  0  0  0  0  0  0  0  0  0  0
    5.3244   23.7871   36.3906 H   0  0  0  0  0  0  0  0  0  0  0  0
    5.9647   22.5545   35.4179 H   0  0  0  0  0  0  0  0  0  0  0  0
    2.2860   23.2945   35.5724 H   0  0  0  0  0  0  0  0  0  0  0  0
   -0.0660   18.8787   42.8592 H   0  0  0  0  0  0  0  0  0  0  0  0
    0.8266   19.1263   39.6784 H   0  0  0  0  0  0  0  0  0  0  0  0
    2.5695   18.3271   39.7967 H   0  0  0  0  0  0  0  0  0  0  0  0
    1.3333   19.1360   44.4534 H   0  0  0  0  0  0  0  0  0  0  0  0
    1.9038   21.9787   38.8127 H   0  0  0  0  0  0  0  0  0  0  0  0
    3.3267   20.6570   37.8106 H   0  0  0  0  0  0  0  0  0  0  0  0
    1.1729   23.9546   36.2617 H   0  0  0  0  0  0  0  0  0  0  0  0
    1.2644   16.1617   43.4207 H   0  0  0  0  0  0  0  0  0  0  0  0
    0.0873   16.5206   42.1122 H   0  0  0  0  0  0  0  0  0  0  0  0
    1.6954   17.3211   42.1181 H   0  0  0  0  0  0  0  0  0  0  0  0
    3.4800   19.8678   38.9826 H   0  0  0  0  0  0  0  0  0  0  0  0
    0.1276   25.9139   35.0652 H   0  0  0  0  0  0  0  0  0  0  0  0
    4.5810   23.0443   32.5909 H   0  0  0  0  0  0  0  0  0  0  0  0
    5.6684   24.0413   33.1895 H   0  0  0  0  0  0  0  0  0  0  0  0
  1 21  1  0
  2 11  2  0
  2 10  1  0
  3  1  1  0
  4 16  1  0
  6 19  1  0
  7  8  2  0
  8 26  1  0
  9  6  2  0
 12  7  1  0
 12 24  1  0
 12 15  1  0
 13 18  1  0
 14  3  1  0
 15 22  1  0
 16  6  1  0
 17 23  1  0
 17 20  1  0
 17  2  1  0
 18  5  3  0
 19 25  1  0
 20  5  1  0
 20 27  1  0
 24 15  1  0
 24 14  1  1
 25 21  1  0
 25 13  1  0
 26 22  2  0
 27 28  2  0
 27 10  1  0
 12 29  1  6
 29 24  1  0
  1 30  1  0
  1 31  1  0
  3 32  1  0
  3 33  1  0
  4 34  1  0
  4 35  1  0
  4 36  1  0
  7 37  1  0
  8 38  1  0
 10 39  1  0
 13 40  1  0
 13 41  1  0
 14 42  1  0
 14 43  1  0
 15 44  1  6
 17 45  1  6
 19 46  1  0
 19 47  1  0
 20 48  1  1
 21 49  1  0
 21 50  1  0
 22 51  1  0
 23 52  1  0
 23 53  1  0
 23 54  1  0
 25 55  1  6
 26 56  1  0
 29 57  1  0
 29 58  1  0
M  END
>  <mol_id>  (18) 
2026-09-18-6fnk-s0-n100-0018

>  <rmsd_to_ref>  (18) 


$$$$

     RDKit          3D

 66 68  0  0  0  0  0  0  0  0999 V2000
    0.4007   15.3025   40.0360 C   0  0  0  0  0  0  0  0  0  0  0  0
    3.4741   20.4108   41.4176 O   0  0  0  0  0  0  0  0  0  0  0  0
    3.9375   20.9966   39.2987 C   0  0  1  0  0  0  0  0  0  0  0  0
    2.6399   17.0740   39.4109 C   0  0  0  0  0  0  0  0  0  0  0  0
    0.3934   19.9869   44.7549 C   0  0  0  0  0  0  0  0  0  0  0  0
    1.8764   17.1002   38.0804 C   0  0  0  0  0  0  0  0  0  0  0  0
    0.8691   16.3095   40.9363 C   0  0  0  0  0  0  0  0  0  0  0  0
    2.0187   24.4439   30.8055 C   0  0  0  0  0  0  0  0  0  0  0  0
    1.1620   18.9481   43.9108 N   0  0  0  0  0  0  0  0  0  0  0  0
    3.5401   21.9209   38.1534 C   0  0  0  0  0  0  0  0  0  0  0  0
    1.7470   24.3541   29.9837 C   0  0  0  0  0  0  0  0  0  0  0  0
    1.8143   17.3869   40.6321 C   0  0  1  0  0  0  0  0  0  0  0  0
    3.8276   23.8482   31.9211 C   0  0  2  0  0  0  0  0  0  0  0  0
    2.3062   25.8555   32.9551 C   0  0  0  0  0  0  0  0  0  0  0  0
    2.5434   19.3673   41.9732 C   0  0  2  0  0  0  0  0  0  0  0  0
    6.3716   22.0183   39.3831 C   0  0  0  0  0  0  0  0  0  0  0  0
    3.1898   20.4272   44.1562 O   0  0  0  0  0  0  0  0  0  0  0  0
    0.3022   15.4214   38.6925 O   0  0  0  0  0  0  0  0  0  0  0  0
    0.9212   21.0891   43.9852 C   0  0  0  0  0  0  0  0  0  0  0  0
    2.9629   22.8079   33.3491 C   0  0  1  0  0  0  0  0  0  0  0  0
    1.9630   20.0064   43.2878 C   0  0  2  0  0  0  0  0  0  0  0  0
    5.2172   21.2273   39.9276 O   0  0  0  0  0  0  0  0  0  0  0  0
    2.5852   17.8171   41.8611 C   0  0  0  0  0  0  0  0  0  0  0  0
    4.8184   23.2819   32.9593 C   0  0  2  0  0  0  0  0  0  0  0  0
    3.9305   23.9073   33.9297 C   0  0  0  0  0  0  0  0  0  0  0  0
    2.8746   21.1173   40.4009 C   0  0  0  0  0  0  0  0  0  0  0  0
    2.7021   24.9486   32.0077 C   0  0  0  0  0  0  0  0  0  0  0  0
    0.4508   16.7005   38.1888 C   0  0  0  0  0  0  0  0  0  0  0  0
    1.0607   14.4382   40.2014 H   0  0  0  0  0  0  0  0  0  0  0  0
   -0.6665   15.2942   40.3024 H   0  0  0  0  0  0  0  0  0  0  0  0
    4.0158   20.0058   38.8275 H   0  0  0  0  0  0  0  0  0  0  0  0
    3.4526   17.8129   39.3513 H   0  0  0  0  0  0  0  0  0  0  0  0
    2.9936   16.0402   39.5389 H   0  0  0  0  0  0  0  0  0  0  0  0
   -0.7000   19.8867   44.6871 H   0  0  0  0  0  0  0  0  0  0  0  0
    0.5184   19.9878   45.8478 H   0  0  0  0  0  0  0  0  0  0  0  0
    2.3755   16.4117   37.3827 H   0  0  0  0  0  0  0  0  0  0  0  0
    1.8866   18.1431   37.7307 H   0  0  0  0  0  0  0  0  0  0  0  0
   -0.0391   16.8193   41.2904 H   0  0  0  0  0  0  0  0  0  0  0  0
    1.5068   15.6891   41.5831 H   0  0  0  0  0  0  0  0  0  0  0  0
    1.7140   18.2826   44.4706 H   0  0  0  0  0  0  0  0  0  0  0  0
    0.6431   18.2830   43.3197 H   0  0  0  0  0  0  0  0  0  0  0  0
    3.2232   22.8928   38.5596 H   0  0  0  0  0  0  0  0  0  0  0  0
    4.4008   22.0663   37.4840 H   0  0  0  0  0  0  0  0  0  0  0  0
    2.7096   21.4706   37.5901 H   0  0  0  0  0  0  0  0  0  0  0  0
    1.4035   24.2406   28.9448 H   0  0  0  0  0  0  0  0  0  0  0  0
    1.2509   18.2873   40.3460 H   0  0  0  0  0  0  0  0  0  0  0  0
    4.1896   23.9883   30.8918 H   0  0  0  0  0  0  0  0  0  0  0  0
    2.9746   26.1027   33.7930 H   0  0  0  0  0  0  0  0  0  0  0  0
    1.3200   26.3365   32.8777 H   0  0  0  0  0  0  0  0  0  0  0  0
    1.9261   19.1375   41.0921 H   0  0  0  0  0  0  0  0  0  0  0  0
    6.9606   22.4285   40.2167 H   0  0  0  0  0  0  0  0  0  0  0  0
    7.0090   21.3630   38.7713 H   0  0  0  0  0  0  0  0  0  0  0  0
    5.9908   22.8428   38.7625 H   0  0  0  0  0  0  0  0  0  0  0  0
    2.9499   20.3716   45.1150 H   0  0  0  0  0  0  0  0  0  0  0  0
    0.2034   21.5487   43.2897 H   0  0  0  0  0  0  0  0  0  0  0  0
    1.2803   22.0113   44.4655 H   0  0  0  0  0  0  0  0  0  0  0  0
    2.0973   22.1730   33.5896 H   0  0  0  0  0  0  0  0  0  0  0  0
    2.1287   17.3708   42.7568 H   0  0  0  0  0  0  0  0  0  0  0  0
    3.6292   17.4801   41.7796 H   0  0  0  0  0  0  0  0  0  0  0  0
    5.8814   23.0146   32.8662 H   0  0  0  0  0  0  0  0  0  0  0  0
    3.6528   24.9530   33.7311 H   0  0  0  0  0  0  0  0  0  0  0  0
    4.1558   24.0621   34.9952 H   0  0  0  0  0  0  0  0  0  0  0  0
    2.7026   22.1662   40.6839 H   0  0  0  0  0  0  0  0  0  0  0  0
    1.8790   20.7469   40.1151 H   0  0  0  0  0  0  0  0  0  0  0  0
   -0.0647   17.4060   38.8569 H   0  0  0  0  0  0  0  0  0  0  0  0
    0.0185   16.7168   37.1774 H   0  0  0  0  0  0  0  0  0  0  0  0
  1  7  1  0
  2 15  1  0
  3 10  1  0
  3 22  1  0
  3 26  1  0
  4 12  1  0
  6 28  1  0
  6  4  1  0
  8 27  1  0
  9  5  1  0
 11  8  3  0
 12  7  1  0
 12 23  1  0
 13 27  1  0
 13 24  1  0
 13 20  1  0
 15 23  1  0
 15 21  1  0
 16 22  1  0
 18  1  1  0
 19  5  1  0
 20 25  1  0
 21  9  1  0
 21 19  1  0
 21 17  1  1
 24 20  1  0
 24 25  1  0
 26  2  1  0
 27 14  2  3
 28 18  1  0
  1 29  1  0
  1 30  1  0
  3 31  1  6
  4 32  1  0
  4 33  1  0
  5 34  1  0
  5 35  1  0
  6 36  1  0
  6 37  1  0
  7 38  1  0
  7 39  1  0
  9 40  1  0
  9 41  1  0
 10 42  1  0
 10 43  1  0
 10 44  1  0
 11 45  1  0
 12 46  1  6
 13 47  1  6
 14 48  1  0
 14 49  1  0
 15 50  1  6
 16 51  1  0
 16 52  1  0
 16 53  1  0
 17 54  1  0
 19 55  1  0
 19 56  1  0
 20 57  1  1
 23 58  1  0
 23 59  1  0
 24 60  1  6
 25 61  1  0
 25 62  1  0
 26 63  1  0
 26 64  1  0
 28 65  1  0
 28 66  1  0
M  CHG  1   9   1
M  END
>  <mol_id>  (19) 
2026-09-18-6fnk-s0-n100-0019

>  <rmsd_to_ref>  (19) 


$$$$

     RDKit          3D

 66 67  0  0  0  0  0  0  0  0999 V2000
    0.9487   26.1928   33.6789 C   0  0  2  0  0  0  0  0  0  0  0  0
   -0.7028   15.6978   40.7603 C   0  0  0  0  0  0  0  0  0  0  0  0
    0.4775   28.6613   34.0738 C   0  0  0  0  0  0  0  0  0  0  0  0
    2.1187   25.5585   34.2238 C   0  0  0  0  0  0  0  0  0  0  0  0
    4.2569   21.2713   39.9971 C   0  0  0  0  0  0  0  0  0  0  0  0
    1.4673   18.2075   38.9872 C   0  0  0  0  0  0  0  0  0  0  0  0
    2.2853   20.3566   39.0518 N   0  0  0  0  0  0  0  0  0  0  0  0
    6.6426   21.2447   41.5585 C   0  0  0  0  0  0  0  0  0  0  0  0
    0.3841   17.3865   39.2867 N   0  0  0  0  0  0  0  0  0  0  0  0
    5.5196   20.6351   42.0994 N   0  0  0  0  0  0  0  0  0  0  0  0
    0.5418   16.1977   40.2147 C   0  0  0  0  0  0  0  0  0  0  0  0
    0.8762   26.2777   32.2197 F   0  0  0  0  0  0  0  0  0  0  0  0
    2.3400   19.2903   41.1638 C   0  0  0  0  0  0  0  0  0  0  0  0
    0.6789   27.5437   33.1131 C   0  0  0  0  0  0  0  0  0  0  0  0
    2.0726   17.8975   38.0087 O   0  0  0  0  0  0  0  0  0  0  0  0
    2.0483   20.0177   36.2055 C   0  0  0  0  0  0  0  0  0  0  0  0
   -2.0979   16.0898   40.0850 C   0  0  0  0  0  0  0  0  0  0  0  0
    4.3230   20.7030   41.3182 C   0  0  2  0  0  0  0  0  0  0  0  0
    5.6189   19.8109   43.3591 C   0  0  0  0  0  0  0  0  0  0  0  0
    2.4670   24.1586   33.9525 C   0  0  0  0  0  0  0  0  0  0  0  0
   -2.0027   17.4476   39.3770 C   0  0  0  0  0  0  0  0  0  0  0  0
    2.2154   21.3479   36.1992 C   0  0  0  0  0  0  0  0  0  0  0  0
    3.0840   21.3260   38.9798 C   0  0  0  0  0  0  0  0  0  0  0  0
    1.7929   23.2405   34.9589 C   0  0  0  0  0  0  0  0  0  0  0  0
    2.4222   22.3340   37.6285 S   0  0  0  0  0  0  0  0  0  0  0  0
    1.3481   28.1175   35.4484 S   0  0  0  0  0  0  0  0  0  0  0  0
   -0.7413   17.4341   38.4898 C   0  0  0  0  0  0  0  0  0  0  0  0
    3.1383   20.1437   41.8009 C   0  0  0  0  0  0  0  0  0  0  0  0
    2.0825   19.2653   39.8091 C   0  0  0  0  0  0  0  0  0  0  0  0
    2.3946   21.9114   34.8747 N   0  0  0  0  0  0  0  0  0  0  0  0
    0.4434   25.7385   34.5440 H   0  0  0  0  0  0  0  0  0  0  0  0
   -0.6387   14.5999   40.7379 H   0  0  0  0  0  0  0  0  0  0  0  0
   -0.7569   16.1870   41.7441 H   0  0  0  0  0  0  0  0  0  0  0  0
   -0.5886   28.8004   34.3062 H   0  0  0  0  0  0  0  0  0  0  0  0
    0.8156   29.6367   33.6941 H   0  0  0  0  0  0  0  0  0  0  0  0
    2.9757   26.1564   33.8801 H   0  0  0  0  0  0  0  0  0  0  0  0
    1.8709   25.5208   35.2948 H   0  0  0  0  0  0  0  0  0  0  0  0
    5.1884   21.7437   39.6519 H   0  0  0  0  0  0  0  0  0  0  0  0
    7.3377   21.5158   42.3667 H   0  0  0  0  0  0  0  0  0  0  0  0
    7.1392   20.5496   40.8656 H   0  0  0  0  0  0  0  0  0  0  0  0
    6.3411   22.1519   41.0145 H   0  0  0  0  0  0  0  0  0  0  0  0
    1.0231   15.3837   39.6529 H   0  0  0  0  0  0  0  0  0  0  0  0
    1.1437   16.5426   41.0683 H   0  0  0  0  0  0  0  0  0  0  0  0
    1.8358   18.5299   41.7784 H   0  0  0  0  0  0  0  0  0  0  0  0
    1.5328   27.8093   32.4724 H   0  0  0  0  0  0  0  0  0  0  0  0
   -0.2851   27.4431   32.5929 H   0  0  0  0  0  0  0  0  0  0  0  0
    1.9250   19.4743   35.2571 H   0  0  0  0  0  0  0  0  0  0  0  0
    2.0345   19.4696   37.1592 H   0  0  0  0  0  0  0  0  0  0  0  0
   -2.3710   15.3187   39.3495 H   0  0  0  0  0  0  0  0  0  0  0  0
   -2.8623   16.1579   40.8731 H   0  0  0  0  0  0  0  0  0  0  0  0
    4.0404   21.6743   41.7503 H   0  0  0  0  0  0  0  0  0  0  0  0
    5.9882   20.4411   44.1815 H   0  0  0  0  0  0  0  0  0  0  0  0
    4.6256   19.4155   43.6178 H   0  0  0  0  0  0  0  0  0  0  0  0
    6.3153   18.9750   43.1965 H   0  0  0  0  0  0  0  0  0  0  0  0
    2.1337   23.8920   32.9387 H   0  0  0  0  0  0  0  0  0  0  0  0
    3.5574   24.0395   34.0354 H   0  0  0  0  0  0  0  0  0  0  0  0
   -2.8954   17.6076   38.7545 H   0  0  0  0  0  0  0  0  0  0  0  0
   -1.9423   18.2607   40.1154 H   0  0  0  0  0  0  0  0  0  0  0  0
    1.9299   23.6430   35.9734 H   0  0  0  0  0  0  0  0  0  0  0  0
    0.7176   23.1744   34.7365 H   0  0  0  0  0  0  0  0  0  0  0  0
    1.0046   28.8764   36.5361 H   0  0  0  0  0  0  0  0  0  0  0  0
   -0.7637   16.5507   37.8348 H   0  0  0  0  0  0  0  0  0  0  0  0
   -0.7162   18.3468   37.8763 H   0  0  0  0  0  0  0  0  0  0  0  0
    2.8324   20.4396   42.8152 H   0  0  0  0  0  0  0  0  0  0  0  0
    1.9137   21.3381   34.1669 H   0  0  0  0  0  0  0  0  0  0  0  0
    3.3851   21.9466   34.5946 H   0  0  0  0  0  0  0  0  0  0  0  0
  1 12  1  0
  1  4  1  0
  3 26  1  0
  5 18  1  0
  6 29  1  0
  7 23  1  0
  7 29  2  0
  8 10  1  0
  9  6  1  0
  9 11  1  0
 10 19  1  0
 11  2  1  0
 13 28  2  0
 14  1  1  0
 14  3  1  0
 15  6  2  0
 16 22  2  3
 17  2  1  0
 18 28  1  0
 18 10  1  0
 20  4  1  0
 20 24  1  0
 21 17  1  0
 22 25  1  0
 23  5  2  0
 24 30  1  0
 25 23  1  0
 27 21  1  0
 27  9  1  0
 29 13  1  0
 30 22  1  0
  1 31  1  1
  2 32  1  0
  2 33  1  0
  3 34  1  0
  3 35  1  0
  4 36  1  0
  4 37  1  0
  5 38  1  0
  8 39  1  0
  8 40  1  0
  8 41  1  0
 11 42  1  0
 11 43  1  0
 13 44  1  0
 14 45  1  0
 14 46  1  0
 16 47  1  0
 16 48  1  0
 17 49  1  0
 17 50  1  0
 18 51  1  1
 19 52  1  0
 19 53  1  0
 19 54  1  0
 20 55  1  0
 20 56  1  0
 21 57  1  0
 21 58  1  0
 24 59  1  0
 24 60  1  0
 26 61  1  0
 27 62  1  0
 27 63  1  0
 28 64  1  0
 30 65  1  0
 30 66  1  0
M  CHG  1  30   1
M  END
>  <mol_id>  (20) 
2026-09-18-6fnk-s0-n100-0020

>  <rmsd_to_ref>  (20) 


$$$$

     RDKit          3D

 59 60  0  0  0  0  0  0  0  0999 V2000
    1.6771   26.9605   33.5120 C   0  0  0  0  0  0  0  0  0  0  0  0
   -1.4361   15.2661   40.1614 O   0  0  0  0  0  0  0  0  0  0  0  0
   -0.5514   16.1048   39.5203 C   0  0  0  0  0  0  0  0  0  0  0  0
    2.5966   23.5157   35.4337 C   0  0  0  0  0  0  0  0  0  0  0  0
    2.9148   25.9978   33.1160 C   0  0  2  0  0  0  0  0  0  0  0  0
    3.2592   22.2006   37.4295 C   0  0  0  0  0  0  0  0  0  0  0  0
    2.5885   22.6615   34.6858 O   0  0  0  0  0  0  0  0  0  0  0  0
    0.2483   17.0462   37.3307 C   0  0  0  0  0  0  0  0  0  0  0  0
    2.4726   27.4267   35.7596 C   0  0  0  0  0  0  0  0  0  0  0  0
   -0.6962   15.9600   42.3351 C   0  0  0  0  0  0  0  0  0  0  0  0
    1.0312   18.8945   43.4924 O   0  0  0  0  0  0  0  0  0  0  0  0
    2.7628   25.5776   31.6581 C   0  0  0  0  0  0  0  0  0  0  0  0
    1.2465   17.9128   39.4888 C   0  0  0  0  0  0  0  0  0  0  0  0
   -0.5272   16.0314   38.0651 C   0  0  0  0  0  0  0  0  0  0  0  0
    3.5384   25.3515   34.1761 C   0  0  0  0  0  0  0  0  0  0  0  0
   -1.5502   15.1991   41.4994 C   0  0  0  0  0  0  0  0  0  0  0  0
    0.4745   18.3433   44.6958 C   0  0  0  0  0  0  0  0  0  0  0  0
    0.2935   17.0069   41.7822 C   0  0  0  0  0  0  0  0  0  0  0  0
    4.2469   25.4649   31.3946 C   0  0  0  0  0  0  0  0  0  0  0  0
    1.3083   27.7725   34.8274 C   0  0  0  0  0  0  0  0  0  0  0  0
    2.1054   25.8986   36.1375 C   0  0  0  0  0  0  0  0  0  0  0  0
    2.7274   24.8665   35.2456 N   0  0  0  0  0  0  0  0  0  0  0  0
    1.2352   17.8241   37.9980 C   0  0  0  0  0  0  0  0  0  0  0  0
    1.1247   18.2822   42.2118 C   0  0  0  0  0  0  0  0  0  0  0  0
    0.3282   17.0286   40.2463 C   0  0  0  0  0  0  0  0  0  0  0  0
   -2.4669   14.4906   41.9764 O   0  0  0  0  0  0  0  0  0  0  0  0
    2.4304   23.0810   36.7236 O   0  0  0  0  0  0  0  0  0  0  0  0
    4.4855   23.0481   38.0900 C   0  0  0  0  0  0  0  0  0  0  0  0
    0.7979   26.3176   33.3576 H   0  0  0  0  0  0  0  0  0  0  0  0
    2.0235   27.8313   32.9360 H   0  0  0  0  0  0  0  0  0  0  0  0
    3.9462   26.3581   32.9875 H   0  0  0  0  0  0  0  0  0  0  0  0
    3.6622   21.4416   36.7429 H   0  0  0  0  0  0  0  0  0  0  0  0
    2.6831   21.6988   38.2209 H   0  0  0  0  0  0  0  0  0  0  0  0
    0.0629   17.2038   36.2580 H   0  0  0  0  0  0  0  0  0  0  0  0
    2.4858   28.0730   36.6496 H   0  0  0  0  0  0  0  0  0  0  0  0
    3.4701   27.5615   35.3157 H   0  0  0  0  0  0  0  0  0  0  0  0
   -1.3541   16.5006   43.0314 H   0  0  0  0  0  0  0  0  0  0  0  0
   -0.0135   15.1879   42.7196 H   0  0  0  0  0  0  0  0  0  0  0  0
    2.2329   24.6208   31.5409 H   0  0  0  0  0  0  0  0  0  0  0  0
    2.1757   26.2322   30.9972 H   0  0  0  0  0  0  0  0  0  0  0  0
    1.9162   18.6131   40.0094 H   0  0  0  0  0  0  0  0  0  0  0  0
   -1.0729   15.2403   37.5298 H   0  0  0  0  0  0  0  0  0  0  0  0
    4.0776   24.4882   33.7592 H   0  0  0  0  0  0  0  0  0  0  0  0
    4.1609   26.1308   34.6400 H   0  0  0  0  0  0  0  0  0  0  0  0
    0.8646   18.8927   45.5653 H   0  0  0  0  0  0  0  0  0  0  0  0
   -0.6215   18.4327   44.6672 H   0  0  0  0  0  0  0  0  0  0  0  0
    0.7539   17.2826   44.7768 H   0  0  0  0  0  0  0  0  0  0  0  0
    4.7910   25.4754   32.3506 H   0  0  0  0  0  0  0  0  0  0  0  0
    4.4549   24.5237   30.8646 H   0  0  0  0  0  0  0  0  0  0  0  0
    4.5751   26.3138   30.7767 H   0  0  0  0  0  0  0  0  0  0  0  0
    1.2637   28.8536   34.6293 H   0  0  0  0  0  0  0  0  0  0  0  0
    0.3214   27.5175   35.2411 H   0  0  0  0  0  0  0  0  0  0  0  0
    2.4426   25.7098   37.1674 H   0  0  0  0  0  0  0  0  0  0  0  0
    1.0167   25.8008   36.0142 H   0  0  0  0  0  0  0  0  0  0  0  0
    1.9943   18.3633   37.4124 H   0  0  0  0  0  0  0  0  0  0  0  0
    1.8157   18.7215   41.4771 H   0  0  0  0  0  0  0  0  0  0  0  0
    4.3759   23.0592   39.1845 H   0  0  0  0  0  0  0  0  0  0  0  0
    5.4428   22.5771   37.8221 H   0  0  0  0  0  0  0  0  0  0  0  0
    4.4652   24.0799   37.7089 H   0  0  0  0  0  0  0  0  0  0  0  0
  1 20  1  0
  2 16  1  0
  3  2  1  0
  3 25  1  0
  4 27  1  0
  5 12  1  0
  5  1  1  0
  5 15  1  0
  6 28  1  0
  7  4  2  0
  8 23  2  0
  8 14  1  0
  9 21  1  0
 11 17  1  0
 13 25  2  0
 14  3  2  0
 15 22  1  0
 16 26  2  0
 16 10  1  0
 18 24  2  3
 18 10  1  0
 19 12  1  0
 20  9  1  0
 22  4  1  0
 22 21  1  0
 23 13  1  0
 24 11  1  0
 25 18  1  0
 27  6  1  0
  1 29  1  0
  1 30  1  0
  5 31  1  6
  6 32  1  0
  6 33  1  0
  8 34  1  0
  9 35  1  0
  9 36  1  0
 10 37  1  0
 10 38  1  0
 12 39  1  0
 12 40  1  0
 13 41  1  0
 14 42  1  0
 15 43  1  0
 15 44  1  0
 17 45  1  0
 17 46  1  0
 17 47  1  0
 19 48  1  0
 19 49  1  0
 19 50  1  0
 20 51  1  0
 20 52  1  0
 21 53  1  0
 21 54  1  0
 23 55  1  0
 24 56  1  0
 28 57  1  0
 28 58  1  0
 28 59  1  0
M  END
>  <mol_id>  (21) 
2026-09-18-6fnk-s0-n100-0021

>  <rmsd_to_ref>  (21) 


$$$$

     RDKit          3D

 62 64  0  0  0  0  0  0  0  0999 V2000
    2.4984   27.4811   31.2586 C   0  0  0  0  0  0  0  0  0  0  0  0
    1.2160   26.1487   32.8461 C   0  0  2  0  0  0  0  0  0  0  0  0
    2.2686   25.9234   31.8583 C   0  0  0  0  0  0  0  0  0  0  0  0
   -1.6863   15.4899   39.8348 C   0  0  2  0  0  0  0  0  0  0  0  0
    1.1050   18.8538   42.6331 O   0  0  0  0  0  0  0  0  0  0  0  0
    1.1800   19.3070   41.3822 C   0  0  0  0  0  0  0  0  0  0  0  0
    0.2273   17.0750   40.5427 C   0  0  1  0  0  0  0  0  0  0  0  0
    1.6827   25.1982   30.5813 C   0  0  0  0  0  0  0  0  0  0  0  0
   -1.0978   15.6329   38.5267 C   0  0  0  0  0  0  0  0  0  0  0  0
   -0.6367   15.8589   40.8159 C   0  0  0  0  0  0  0  0  0  0  0  0
    2.4147   24.8140   34.1796 C   0  0  0  0  0  0  0  0  0  0  0  0
    1.9636   20.2275   38.5136 O   0  0  0  0  0  0  0  0  0  0  0  0
    3.7929   21.3798   39.4032 C   0  0  0  0  0  0  0  0  0  0  0  0
    0.0403   16.0430   38.3964 C   0  0  0  0  0  0  0  0  0  0  0  0
    0.7910   16.9230   39.2321 C   0  0  0  0  0  0  0  0  0  0  0  0
    4.3288   21.2965   41.7850 C   0  0  0  0  0  0  0  0  0  0  0  0
   -0.0977   26.6083   32.0367 C   0  0  0  0  0  0  0  0  0  0  0  0
    2.2944   20.1433   40.9660 C   0  0  0  0  0  0  0  0  0  0  0  0
    3.2631   20.4899   41.9905 C   0  0  0  0  0  0  0  0  0  0  0  0
    2.6294   20.5457   39.6635 C   0  0  0  0  0  0  0  0  0  0  0  0
    0.4635   18.7454   40.5110 N   0  0  0  0  0  0  0  0  0  0  0  0
    4.5605   21.7808   40.4563 C   0  0  0  0  0  0  0  0  0  0  0  0
    1.4467   26.0444   34.2114 C   0  0  0  0  0  0  0  0  0  0  0  0
    1.9778   24.4930   32.8990 C   0  0  1  0  0  0  0  0  0  0  0  0
    1.9630   21.5432   36.3863 C   0  0  0  0  0  0  0  0  0  0  0  0
    1.4853   21.1421   37.5207 C   0  0  0  0  0  0  0  0  0  0  0  0
   -2.4956   14.2073   40.0728 C   0  0  0  0  0  0  0  0  0  0  0  0
    2.5394   28.1938   32.0954 H   0  0  0  0  0  0  0  0  0  0  0  0
    3.4426   27.5217   30.6958 H   0  0  0  0  0  0  0  0  0  0  0  0
    1.6632   27.7446   30.5931 H   0  0  0  0  0  0  0  0  0  0  0  0
   -2.5275   16.1867   39.9648 H   0  0  0  0  0  0  0  0  0  0  0  0
    0.2807   16.9556   41.6349 H   0  0  0  0  0  0  0  0  0  0  0  0
    1.0117   24.3856   30.8967 H   0  0  0  0  0  0  0  0  0  0  0  0
    1.1207   25.9228   29.9737 H   0  0  0  0  0  0  0  0  0  0  0  0
    2.5081   24.7817   29.9851 H   0  0  0  0  0  0  0  0  0  0  0  0
   -1.1279   14.6378   38.0589 H   0  0  0  0  0  0  0  0  0  0  0  0
   -1.6993   16.4355   38.0751 H   0  0  0  0  0  0  0  0  0  0  0  0
   -1.1407   16.0308   41.7785 H   0  0  0  0  0  0  0  0  0  0  0  0
    0.0704   15.0173   40.7763 H   0  0  0  0  0  0  0  0  0  0  0  0
    3.4803   25.0810   34.2353 H   0  0  0  0  0  0  0  0  0  0  0  0
    2.3804   24.0615   34.9812 H   0  0  0  0  0  0  0  0  0  0  0  0
    4.0484   21.6811   38.3766 H   0  0  0  0  0  0  0  0  0  0  0  0
    0.6525   15.1305   38.3456 H   0  0  0  0  0  0  0  0  0  0  0  0
   -0.1477   16.7452   37.5709 H   0  0  0  0  0  0  0  0  0  0  0  0
    1.8107   16.5232   39.3343 H   0  0  0  0  0  0  0  0  0  0  0  0
    0.7818   17.9142   38.7552 H   0  0  0  0  0  0  0  0  0  0  0  0
    4.9981   21.5727   42.6131 H   0  0  0  0  0  0  0  0  0  0  0  0
   -0.9208   26.7864   32.7443 H   0  0  0  0  0  0  0  0  0  0  0  0
    0.1176   27.5347   31.4840 H   0  0  0  0  0  0  0  0  0  0  0  0
   -0.3874   25.8178   31.3287 H   0  0  0  0  0  0  0  0  0  0  0  0
    3.1212   20.0700   42.9972 H   0  0  0  0  0  0  0  0  0  0  0  0
    0.0186   19.3104   39.7737 H   0  0  0  0  0  0  0  0  0  0  0  0
    5.3789   22.4947   40.2815 H   0  0  0  0  0  0  0  0  0  0  0  0
    1.9299   26.9434   34.6216 H   0  0  0  0  0  0  0  0  0  0  0  0
    0.5530   25.9374   34.8437 H   0  0  0  0  0  0  0  0  0  0  0  0
    1.9450   23.4075   32.7246 H   0  0  0  0  0  0  0  0  0  0  0  0
    1.4029   22.2703   35.7800 H   0  0  0  0  0  0  0  0  0  0  0  0
    2.9289   21.1568   36.0288 H   0  0  0  0  0  0  0  0  0  0  0  0
    0.5156   21.5958   37.7733 H   0  0  0  0  0  0  0  0  0  0  0  0
   -2.6198   14.0474   41.1539 H   0  0  0  0  0  0  0  0  0  0  0  0
   -3.4843   14.3047   39.6006 H   0  0  0  0  0  0  0  0  0  0  0  0
   -1.9626   13.3508   39.6343 H   0  0  0  0  0  0  0  0  0  0  0  0
  1  3  1  0
  2 17  1  1
  2 24  1  0
  2 23  1  0
  3  2  1  0
  3 24  1  0
  4 27  1  0
  4 10  1  0
  6  5  2  0
  7 21  1  0
  7 10  1  0
  8  3  1  0
  9  4  1  0
 11 23  1  0
 12 20  1  0
 13 20  2  0
 13 22  1  0
 14  9  1  0
 14 15  1  0
 15  7  1  0
 16 19  1  0
 18  6  1  0
 18 19  2  0
 20 18  1  0
 21  6  1  0
 22 16  2  0
 24 11  1  0
 25 26  2  3
 26 12  1  0
  1 28  1  0
  1 29  1  0
  1 30  1  0
  4 31  1  6
  7 32  1  1
  8 33  1  0
  8 34  1  0
  8 35  1  0
  9 36  1  0
  9 37  1  0
 10 38  1  0
 10 39  1  0
 11 40  1  0
 11 41  1  0
 13 42  1  0
 14 43  1  0
 14 44  1  0
 15 45  1  0
 15 46  1  0
 16 47  1  0
 17 48  1  0
 17 49  1  0
 17 50  1  0
 19 51  1  0
 21 52  1  0
 22 53  1  0
 23 54  1  0
 23 55  1  0
 24 56  1  6
 25 57  1  0
 25 58  1  0
 26 59  1  0
 27 60  1  0
 27 61  1  0
 27 62  1  0
M  END
>  <mol_id>  (22) 
2026-09-18-6fnk-s0-n100-0022

>  <rmsd_to_ref>  (22) 


$$$$

     RDKit          3D

 63 63  0  0  0  0  0  0  0  0999 V2000
    2.0324   16.1603   38.9038 C   0  0  0  0  0  0  0  0  0  0  0  0
    1.8951   18.1460   40.7478 C   0  0  0  0  0  0  0  0  0  0  0  0
    2.2758   20.5932   39.4805 O   0  0  0  0  0  0  0  0  0  0  0  0
    0.5589   26.5421   33.1850 C   0  0  0  0  0  0  0  0  0  0  0  0
    2.3236   22.7429   36.2760 C   0  0  0  0  0  0  0  0  0  0  0  0
    2.8025   19.0893   43.1646 C   0  0  0  0  0  0  0  0  0  0  0  0
   -1.5738   16.0291   40.4770 C   0  0  0  0  0  0  0  0  0  0  0  0
    4.9948   20.2809   42.8482 C   0  0  0  0  0  0  0  0  0  0  0  0
    2.7299   21.6584   38.4991 C   0  0  1  0  0  0  0  0  0  0  0  0
    0.5293   17.4253   41.2498 C   0  0  0  0  0  0  0  0  0  0  0  0
    3.6655   20.2444   43.6141 C   0  0  0  0  0  0  0  0  0  0  0  0
   -0.0341   16.2098   40.4185 C   0  0  2  0  0  0  0  0  0  0  0  0
    0.6117   25.3594   32.2661 C   0  0  0  0  0  0  0  0  0  0  0  0
    2.0466   24.0585   36.3430 O   0  0  0  0  0  0  0  0  0  0  0  0
    2.6488   20.5656   40.8668 C   0  0  0  0  0  0  0  0  0  0  0  0
    4.2658   21.5569   38.0783 C   0  0  0  0  0  0  0  0  0  0  0  0
   -0.0267   27.6713   32.4560 C   0  0  0  0  0  0  0  0  0  0  0  0
    2.5860   17.4043   39.5454 C   0  0  0  0  0  0  0  0  0  0  0  0
    1.0913   26.2174   35.7527 C   0  0  0  0  0  0  0  0  0  0  0  0
    0.4452   16.1085   38.9280 C   0  0  0  0  0  0  0  0  0  0  0  0
    2.8030   22.3049   35.2052 O   0  0  0  0  0  0  0  0  0  0  0  0
    1.8530   21.9356   37.3587 C   0  0  0  0  0  0  0  0  0  0  0  0
    1.0910   27.1207   34.5427 C   0  0  0  0  0  0  0  0  0  0  0  0
    2.3278   19.2925   41.6628 C   0  0  0  0  0  0  0  0  0  0  0  0
    1.1870   24.7043   35.4402 C   0  0  0  0  0  0  0  0  0  0  0  0
    2.3692   16.1251   37.8573 H   0  0  0  0  0  0  0  0  0  0  0  0
    2.4005   15.2989   39.4805 H   0  0  0  0  0  0  0  0  0  0  0  0
    0.6236   25.6427   33.8149 H   0  0  0  0  0  0  0  0  0  0  0  0
    3.3814   18.1568   43.2370 H   0  0  0  0  0  0  0  0  0  0  0  0
    1.9145   19.0393   43.8119 H   0  0  0  0  0  0  0  0  0  0  0  0
   -1.9094   16.0803   41.5233 H   0  0  0  0  0  0  0  0  0  0  0  0
   -2.0591   16.8277   39.8968 H   0  0  0  0  0  0  0  0  0  0  0  0
   -1.8446   15.0511   40.0525 H   0  0  0  0  0  0  0  0  0  0  0  0
    5.8235   20.4190   43.5582 H   0  0  0  0  0  0  0  0  0  0  0  0
    5.1312   19.3341   42.3051 H   0  0  0  0  0  0  0  0  0  0  0  0
    4.9826   21.1159   42.1321 H   0  0  0  0  0  0  0  0  0  0  0  0
    2.6284   22.5614   39.1190 H   0  0  0  0  0  0  0  0  0  0  0  0
    0.7116   17.0619   42.2719 H   0  0  0  0  0  0  0  0  0  0  0  0
   -0.2400   18.2039   41.1400 H   0  0  0  0  0  0  0  0  0  0  0  0
    3.1244   21.1856   43.4372 H   0  0  0  0  0  0  0  0  0  0  0  0
    3.8858   20.1163   44.6842 H   0  0  0  0  0  0  0  0  0  0  0  0
    0.4323   15.3755   40.9630 H   0  0  0  0  0  0  0  0  0  0  0  0
    0.9978   24.4869   32.8134 H   0  0  0  0  0  0  0  0  0  0  0  0
   -0.3994   25.1400   31.8925 H   0  0  0  0  0  0  0  0  0  0  0  0
    1.2755   25.5834   31.4180 H   0  0  0  0  0  0  0  0  0  0  0  0
    3.1461   21.4247   41.3410 H   0  0  0  0  0  0  0  0  0  0  0  0
    4.8982   21.6498   38.9736 H   0  0  0  0  0  0  0  0  0  0  0  0
    4.4509   20.5848   37.5979 H   0  0  0  0  0  0  0  0  0  0  0  0
    4.5071   22.3661   37.3733 H   0  0  0  0  0  0  0  0  0  0  0  0
   -0.1165   28.5359   33.1300 H   0  0  0  0  0  0  0  0  0  0  0  0
    0.6203   27.9344   31.6063 H   0  0  0  0  0  0  0  0  0  0  0  0
   -1.0235   27.3908   32.0848 H   0  0  0  0  0  0  0  0  0  0  0  0
    3.5261   17.8177   39.1513 H   0  0  0  0  0  0  0  0  0  0  0  0
    1.9509   26.4908   36.3822 H   0  0  0  0  0  0  0  0  0  0  0  0
    0.1210   26.3679   36.2487 H   0  0  0  0  0  0  0  0  0  0  0  0
    0.0377   16.9505   38.3493 H   0  0  0  0  0  0  0  0  0  0  0  0
    0.0922   15.1670   38.4820 H   0  0  0  0  0  0  0  0  0  0  0  0
    0.9575   22.4327   37.7599 H   0  0  0  0  0  0  0  0  0  0  0  0
    1.7173   20.9465   36.8970 H   0  0  0  0  0  0  0  0  0  0  0  0
    2.1297   27.4420   34.3755 H   0  0  0  0  0  0  0  0  0  0  0  0
    0.3765   27.9173   34.7978 H   0  0  0  0  0  0  0  0  0  0  0  0
    0.1847   24.2572   35.5150 H   0  0  0  0  0  0  0  0  0  0  0  0
    1.5886   24.5806   34.4236 H   0  0  0  0  0  0  0  0  0  0  0  0
  1 18  1  0
  2 10  1  0
  2 24  1  0
  3 15  1  0
  4 23  1  0
  5 14  1  0
  5 22  1  0
  6 11  1  0
  8 11  1  0
  9 16  1  0
  9  3  1  0
 12  7  1  0
 12 10  1  0
 13  4  1  0
 15 24  2  3
 17  4  1  0
 18  2  2  0
 20  1  1  0
 20 12  1  0
 21  5  2  0
 22  9  1  0
 23 19  1  0
 24  6  1  0
 25 19  1  0
 25 14  1  0
  1 26  1  0
  1 27  1  0
  4 28  1  0
  6 29  1  0
  6 30  1  0
  7 31  1  0
  7 32  1  0
  7 33  1  0
  8 34  1  0
  8 35  1  0
  8 36  1  0
  9 37  1  1
 10 38  1  0
 10 39  1  0
 11 40  1  0
 11 41  1  0
 12 42  1  1
 13 43  1  0
 13 44  1  0
 13 45  1  0
 15 46  1  0
 16 47  1  0
 16 48  1  0
 16 49  1  0
 17 50  1  0
 17 51  1  0
 17 52  1  0
 18 53  1  0
 19 54  1  0
 19 55  1  0
 20 56  1  0
 20 57  1  0
 22 58  1  0
 22 59  1  0
 23 60  1  0
 23 61  1  0
 25 62  1  0
 25 63  1  0
M  END
>  <mol_id>  (23) 
2026-09-18-6fnk-s0-n100-0023

>  <rmsd_to_ref>  (23) 


$$$$

     RDKit          3D

 68 69  0  0  0  0  0  0  0  0999 V2000
    0.1293   25.9782   33.1776 C   0  0  0  0  0  0  0  0  0  0  0  0
   -0.3922   16.4092   43.5101 O   0  0  0  0  0  0  0  0  0  0  0  0
    1.9181   21.3631   41.6245 C   0  0  2  0  0  0  0  0  0  0  0  0
    0.1138   15.9734   40.0212 C   0  0  0  0  0  0  0  0  0  0  0  0
    1.4267   20.0705   41.9510 N   0  0  0  0  0  0  0  0  0  0  0  0
    3.4757   23.7355   37.3663 C   0  0  1  0  0  0  0  0  0  0  0  0
   -0.0216   24.6922   30.0986 C   0  0  0  0  0  0  0  0  0  0  0  0
    0.8458   22.0598   41.6891 C   0  0  0  0  0  0  0  0  0  0  0  0
    0.4571   18.4984   42.6118 C   0  0  2  0  0  0  0  0  0  0  0  0
    0.1732   17.3484   42.3597 C   0  0  0  0  0  0  0  0  0  0  0  0
   -0.1063   16.6656   38.8036 O   0  0  0  0  0  0  0  0  0  0  0  0
    1.8081   24.5623   34.4372 C   0  0  0  0  0  0  0  0  0  0  0  0
    3.3130   22.4723   38.3370 C   0  0  1  0  0  0  0  0  0  0  0  0
    3.2063   24.5137   34.7063 C   0  0  0  0  0  0  0  0  0  0  0  0
    4.7300   23.0920   38.1824 C   0  0  0  0  0  0  0  0  0  0  0  0
    4.0859   23.6410   35.8240 C   0  0  1  0  0  0  0  0  0  0  0  0
    5.6238   23.9854   35.8215 C   0  0  0  0  0  0  0  0  0  0  0  0
    3.4407   21.8660   39.7728 C   0  0  0  0  0  0  0  0  0  0  0  0
    0.3472   16.9672   41.0243 C   0  0  0  0  0  0  0  0  0  0  0  0
    0.4674   20.3488   44.8665 C   0  0  0  0  0  0  0  0  0  0  0  0
    0.8759   18.1317   40.4766 C   0  0  0  0  0  0  0  0  0  0  0  0
    2.2250   21.0377   40.1194 C   0  0  0  0  0  0  0  0  0  0  0  0
   -0.2547   25.4353   31.4586 C   0  0  0  0  0  0  0  0  0  0  0  0
    1.2960   18.8223   41.4017 C   0  0  1  0  0  0  0  0  0  0  0  0
    0.7529   19.1704   44.2227 C   0  0  0  0  0  0  0  0  0  0  0  0
    1.6704   25.5443   33.2931 C   0  0  0  0  0  0  0  0  0  0  0  0
   -0.4951   25.4546   33.9165 H   0  0  0  0  0  0  0  0  0  0  0  0
   -0.0594   27.0445   33.3711 H   0  0  0  0  0  0  0  0  0  0  0  0
   -0.6262   15.4681   43.3106 H   0  0  0  0  0  0  0  0  0  0  0  0
    2.7362   21.8376   42.1862 H   0  0  0  0  0  0  0  0  0  0  0  0
    0.9899   15.3146   39.9295 H   0  0  0  0  0  0  0  0  0  0  0  0
   -0.7513   15.3456   40.2808 H   0  0  0  0  0  0  0  0  0  0  0  0
    1.9636   19.8602   42.8044 H   0  0  0  0  0  0  0  0  0  0  0  0
    0.4607   20.3279   41.7033 H   0  0  0  0  0  0  0  0  0  0  0  0
    2.7751   24.5748   37.2454 H   0  0  0  0  0  0  0  0  0  0  0  0
    0.6561   23.8404   30.2576 H   0  0  0  0  0  0  0  0  0  0  0  0
   -0.9840   24.3275   29.7103 H   0  0  0  0  0  0  0  0  0  0  0  0
    0.4269   25.3870   29.3733 H   0  0  0  0  0  0  0  0  0  0  0  0
    0.6908   22.3991   42.7239 H   0  0  0  0  0  0  0  0  0  0  0  0
    0.9355   22.9332   41.0264 H   0  0  0  0  0  0  0  0  0  0  0  0
   -0.0102   21.4457   41.3726 H   0  0  0  0  0  0  0  0  0  0  0  0
   -0.4208   19.1359   42.7928 H   0  0  0  0  0  0  0  0  0  0  0  0
   -0.1602   17.6379   38.9819 H   0  0  0  0  0  0  0  0  0  0  0  0
    1.4349   23.5700   34.1436 H   0  0  0  0  0  0  0  0  0  0  0  0
    1.2250   24.8665   35.3189 H   0  0  0  0  0  0  0  0  0  0  0  0
    2.4356   21.8312   38.1666 H   0  0  0  0  0  0  0  0  0  0  0  0
    3.6480   24.2229   33.7418 H   0  0  0  0  0  0  0  0  0  0  0  0
    3.2744   25.4854   35.2172 H   0  0  0  0  0  0  0  0  0  0  0  0
    5.5136   22.5423   37.6404 H   0  0  0  0  0  0  0  0  0  0  0  0
    5.4854   23.4845   38.8792 H   0  0  0  0  0  0  0  0  0  0  0  0
    3.9795   22.5988   35.4885 H   0  0  0  0  0  0  0  0  0  0  0  0
    5.9553   24.1905   36.8501 H   0  0  0  0  0  0  0  0  0  0  0  0
    6.1897   23.1332   35.4169 H   0  0  0  0  0  0  0  0  0  0  0  0
    5.7999   24.8727   35.1957 H   0  0  0  0  0  0  0  0  0  0  0  0
    4.3355   21.2276   39.8157 H   0  0  0  0  0  0  0  0  0  0  0  0
    3.5215   22.6907   40.4962 H   0  0  0  0  0  0  0  0  0  0  0  0
    0.7858   20.4973   45.9089 H   0  0  0  0  0  0  0  0  0  0  0  0
   -0.0798   21.1446   44.3399 H   0  0  0  0  0  0  0  0  0  0  0  0
    1.6992   17.8829   39.7909 H   0  0  0  0  0  0  0  0  0  0  0  0
    0.1058   18.6747   39.9093 H   0  0  0  0  0  0  0  0  0  0  0  0
    1.3730   21.3185   39.4828 H   0  0  0  0  0  0  0  0  0  0  0  0
    2.4012   19.9637   39.9595 H   0  0  0  0  0  0  0  0  0  0  0  0
   -0.3922   26.4407   31.0339 H   0  0  0  0  0  0  0  0  0  0  0  0
   -0.5607   24.4672   31.8821 H   0  0  0  0  0  0  0  0  0  0  0  0
    2.2453   18.6637   40.8691 H   0  0  0  0  0  0  0  0  0  0  0  0
    1.3021   18.4693   44.8684 H   0  0  0  0  0  0  0  0  0  0  0  0
    1.9934   25.0690   32.3551 H   0  0  0  0  0  0  0  0  0  0  0  0
    2.2982   26.4285   33.4774 H   0  0  0  0  0  0  0  0  0  0  0  0
  1 26  1  0
  3  8  1  0
  3  5  1  0
  4 19  1  0
  6 16  1  0
  6 13  1  0
  6 15  1  0
  7 23  1  0
  9 25  1  0
 10  9  1  0
 10  2  1  0
 11  4  1  0
 12 14  1  0
 13 15  1  0
 13 18  1  0
 14 16  1  0
 16 17  1  0
 18 22  1  0
 19 10  2  0
 21 19  1  0
 21 24  1  0
 22  3  1  0
 23  1  1  0
 24  5  1  0
 24  9  1  0
 25 20  2  3
 26 12  1  0
  1 27  1  0
  1 28  1  0
  2 29  1  0
  3 30  1  1
  4 31  1  0
  4 32  1  0
  5 33  1  0
  5 34  1  0
  6 35  1  1
  7 36  1  0
  7 37  1  0
  7 38  1  0
  8 39  1  0
  8 40  1  0
  8 41  1  0
  9 42  1  6
 11 43  1  0
 12 44  1  0
 12 45  1  0
 13 46  1  6
 14 47  1  0
 14 48  1  0
 15 49  1  0
 15 50  1  0
 16 51  1  6
 17 52  1  0
 17 53  1  0
 17 54  1  0
 18 55  1  0
 18 56  1  0
 20 57  1  0
 20 58  1  0
 21 59  1  0
 21 60  1  0
 22 61  1  0
 22 62  1  0
 23 63  1  0
 23 64  1  0
 24 65  1  1
 25 66  1  0
 26 67  1  0
 26 68  1  0
M  CHG  1   5   1
M  END
>  <mol_id>  (24) 
2026-09-18-6fnk-s0-n100-0024

>  <rmsd_to_ref>  (24) 


$$$$

     RDKit          3D

 97 99  0  0  0  0  0  0  0  0999 V2000
    1.1723   16.5673   38.6379 O   0  0  0  0  0  0  0  0  0  0  0  0
    3.5642   19.6929   42.3059 C   0  0  2  0  0  0  0  0  0  0  0  0
    2.0771   13.9222   40.1271 C   0  0  2  0  0  0  0  0  0  0  0  0
    2.7276   19.1807   43.6694 C   0  0  0  0  0  0  0  0  0  0  0  0
    3.8508   22.1982   37.3007 C   0  0  0  0  0  0  0  0  0  0  0  0
    1.6906   15.2083   41.8601 O   0  0  0  0  0  0  0  0  0  0  0  0
    4.4757   21.1114   42.2205 S   0  0  0  0  0  0  0  0  0  0  0  0
    4.9755   24.5036   34.6963 C   0  0  0  0  0  0  0  0  0  0  0  0
    1.0098   26.4738   33.3238 C   0  0  1  0  0  0  0  0  0  0  0  0
    4.9157   22.1634   39.9709 C   0  0  1  0  0  0  0  0  0  0  0  0
    3.7877   24.2756   34.6995 C   0  0  2  0  0  0  0  0  0  0  0  0
    0.4161   25.4866   32.7824 C   0  0  0  0  0  0  0  0  0  0  0  0
    2.4134   11.7109   40.4800 C   0  0  0  0  0  0  0  0  0  0  0  0
   -1.4627   29.1149   33.7634 C   0  0  0  0  0  0  0  0  0  0  0  0
    0.8051   28.8836   34.3652 C   0  0  0  0  0  0  0  0  0  0  0  0
   -0.7355   15.2417   38.9929 C   0  0  0  0  0  0  0  0  0  0  0  0
    1.0581   17.3746   43.4053 O   0  0  0  0  0  0  0  0  0  0  0  0
    4.1475   22.2808   36.0208 C   0  0  0  0  0  0  0  0  0  0  0  0
    3.0141   16.9762   37.3090 O   0  0  0  0  0  0  0  0  0  0  0  0
   -0.4756   30.1442   34.5817 S   0  0  0  0  0  0  0  0  0  0  0  0
    0.7783   15.5993   39.0553 C   0  0  2  0  0  0  0  0  0  0  0  0
    1.7443   18.4916   42.6924 C   0  0  2  0  0  0  0  0  0  0  0  0
    4.6402   15.9455   38.6758 N   0  0  0  0  0  0  0  0  0  0  0  0
    4.8057   22.6355   38.7323 C   0  0  1  0  0  0  0  0  0  0  0  0
    6.5510   24.1829   37.7017 C   0  0  0  0  0  0  0  0  0  0  0  0
    1.4215   15.3084   40.4723 C   0  0  2  0  0  0  0  0  0  0  0  0
    1.6869   24.0072   35.3059 O   0  0  0  0  0  0  0  0  0  0  0  0
    4.0448   21.1062   40.6167 C   0  0  0  0  0  0  0  0  0  0  0  0
    2.0849   13.3830   38.5885 N   0  0  0  0  0  0  0  0  0  0  0  0
    0.6461   12.3645   42.0267 O   0  0  0  0  0  0  0  0  0  0  0  0
   -1.0390   27.9203   33.4457 C   0  0  0  0  0  0  0  0  0  0  0  0
    2.3968   18.2425   41.3785 C   0  0  0  0  0  0  0  0  0  0  0  0
    2.4454   24.6377   34.7680 C   0  0  0  0  0  0  0  0  0  0  0  0
    1.3494   12.8268   40.6848 C   0  0  1  0  0  0  0  0  0  0  0  0
    0.1132   27.5271   34.1920 C   0  0  1  0  0  0  0  0  0  0  0  0
    2.1541   26.0674   34.3294 C   0  0  0  0  0  0  0  0  0  0  0  0
    3.6532   16.5004   38.1655 C   0  0  0  0  0  0  0  0  0  0  0  0
    3.5579   18.7282   41.2756 O   0  0  0  0  0  0  0  0  0  0  0  0
    2.5295   17.0452   38.7654 C   0  0  2  0  0  0  0  0  0  0  0  0
    4.3823   23.1215   34.8529 C   0  0  2  0  0  0  0  0  0  0  0  0
    6.2354   22.4361   40.7058 O   0  0  0  0  0  0  0  0  0  0  0  0
    5.4653   23.6231   38.3799 C   0  0  0  0  0  0  0  0  0  0  0  0
    4.4538   19.1417   42.6447 H   0  0  0  0  0  0  0  0  0  0  0  0
    3.0872   14.1586   40.4927 H   0  0  0  0  0  0  0  0  0  0  0  0
    3.2857   18.4950   44.3239 H   0  0  0  0  0  0  0  0  0  0  0  0
    2.3882   19.8808   44.4469 H   0  0  0  0  0  0  0  0  0  0  0  0
    2.9320   22.7948   37.4005 H   0  0  0  0  0  0  0  0  0  0  0  0
    3.9432   21.1063   37.3972 H   0  0  0  0  0  0  0  0  0  0  0  0
    0.9410   15.6048   42.3710 H   0  0  0  0  0  0  0  0  0  0  0  0
    5.4886   24.7913   33.7668 H   0  0  0  0  0  0  0  0  0  0  0  0
    5.6684   25.1454   35.2602 H   0  0  0  0  0  0  0  0  0  0  0  0
    1.3687   26.9549   32.4019 H   0  0  0  0  0  0  0  0  0  0  0  0
    4.0689   22.8571   40.0798 H   0  0  0  0  0  0  0  0  0  0  0  0
    3.8105   24.1422   33.6078 H   0  0  0  0  0  0  0  0  0  0  0  0
   -0.1059   24.9038   33.5557 H   0  0  0  0  0  0  0  0  0  0  0  0
   -0.3133   25.8561   32.0467 H   0  0  0  0  0  0  0  0  0  0  0  0
    1.1545   24.8468   32.2772 H   0  0  0  0  0  0  0  0  0  0  0  0
    2.7433   11.3347   41.4596 H   0  0  0  0  0  0  0  0  0  0  0  0
    1.9731   10.8865   39.8999 H   0  0  0  0  0  0  0  0  0  0  0  0
    3.2762   12.1222   39.9356 H   0  0  0  0  0  0  0  0  0  0  0  0
   -2.3628   28.9793   34.3809 H   0  0  0  0  0  0  0  0  0  0  0  0
   -1.5898   29.6069   32.7878 H   0  0  0  0  0  0  0  0  0  0  0  0
    1.4063   29.1122   33.4728 H   0  0  0  0  0  0  0  0  0  0  0  0
    1.4712   28.8627   35.2403 H   0  0  0  0  0  0  0  0  0  0  0  0
   -1.1562   15.2488   40.0093 H   0  0  0  0  0  0  0  0  0  0  0  0
   -1.2619   15.9823   38.3730 H   0  0  0  0  0  0  0  0  0  0  0  0
   -0.8581   14.2413   38.5524 H   0  0  0  0  0  0  0  0  0  0  0  0
    1.0227   17.5739   44.3744 H   0  0  0  0  0  0  0  0  0  0  0  0
    5.0958   21.7234   36.0265 H   0  0  0  0  0  0  0  0  0  0  0  0
    3.0735   22.2710   35.7832 H   0  0  0  0  0  0  0  0  0  0  0  0
    1.1212   14.8904   38.2872 H   0  0  0  0  0  0  0  0  0  0  0  0
    0.9063   19.1341   42.3842 H   0  0  0  0  0  0  0  0  0  0  0  0
    4.6427   15.7217   39.6812 H   0  0  0  0  0  0  0  0  0  0  0  0
    4.0029   23.3117   39.0614 H   0  0  0  0  0  0  0  0  0  0  0  0
    7.2139   24.6848   38.4219 H   0  0  0  0  0  0  0  0  0  0  0  0
    7.1078   23.3890   37.1824 H   0  0  0  0  0  0  0  0  0  0  0  0
    6.1861   24.9156   36.9669 H   0  0  0  0  0  0  0  0  0  0  0  0
    1.1476   16.3576   40.6572 H   0  0  0  0  0  0  0  0  0  0  0  0
    2.9805   21.3596   40.5020 H   0  0  0  0  0  0  0  0  0  0  0  0
    4.1857   20.1177   40.1552 H   0  0  0  0  0  0  0  0  0  0  0  0
    1.7398   12.4129   38.5629 H   0  0  0  0  0  0  0  0  0  0  0  0
    1.4745   13.9799   38.0123 H   0  0  0  0  0  0  0  0  0  0  0  0
    3.0455   13.4155   38.2182 H   0  0  0  0  0  0  0  0  0  0  0  0
    1.0179   12.8770   42.7878 H   0  0  0  0  0  0  0  0  0  0  0  0
   -1.8461   27.1981   33.6381 H   0  0  0  0  0  0  0  0  0  0  0  0
   -0.7554   27.9403   32.3831 H   0  0  0  0  0  0  0  0  0  0  0  0
    2.4636   17.1549   41.2274 H   0  0  0  0  0  0  0  0  0  0  0  0
    1.7774   18.7418   40.6189 H   0  0  0  0  0  0  0  0  0  0  0  0
    0.3820   13.1398   40.2651 H   0  0  0  0  0  0  0  0  0  0  0  0
   -0.0821   27.0071   35.1415 H   0  0  0  0  0  0  0  0  0  0  0  0
    3.0882   26.4358   33.8802 H   0  0  0  0  0  0  0  0  0  0  0  0
    1.7657   26.4944   35.2658 H   0  0  0  0  0  0  0  0  0  0  0  0
    2.4063   17.5520   39.7339 H   0  0  0  0  0  0  0  0  0  0  0  0
    4.5619   22.1414   34.3869 H   0  0  0  0  0  0  0  0  0  0  0  0
    6.6604   21.5762   40.9510 H   0  0  0  0  0  0  0  0  0  0  0  0
    5.6587   24.0511   39.3746 H   0  0  0  0  0  0  0  0  0  0  0  0
    4.9010   23.6332   37.4358 H   0  0  0  0  0  0  0  0  0  0  0  0
  1 21  1  0
  2  7  1  0
  2  4  1  0
  3 29  1  0
  3 26  1  0
  3 34  1  0
  8 11  1  0
  8 40  1  0
  9 12  1  0
  9 36  1  0
 10 41  1  0
 10 28  1  0
 11 40  1  0
 11 33  1  0
 14 20  1  0
 15 20  1  0
 18  5  1  0
 19 37  1  0
 19 39  1  0
 21 16  1  0
 21 26  1  0
 22 17  1  0
 22  4  1  0
 24  5  1  0
 24 10  1  0
 25 42  1  0
 26  6  1  0
 28  7  1  0
 31 14  1  0
 31 35  1  0
 32 22  1  0
 33 27  2  0
 34 13  1  0
 34 30  1  0
 35  9  1  0
 35 15  1  0
 36 33  1  0
 37 23  2  3
 37 39  1  0
 38 32  1  0
 38  2  1  0
 39  1  1  0
 40 18  1  0
 42 24  1  0
  2 43  1  6
  3 44  1  1
  4 45  1  0
  4 46  1  0
  5 47  1  0
  5 48  1  0
  6 49  1  0
  8 50  1  0
  8 51  1  0
  9 52  1  6
 10 53  1  1
 11 54  1  6
 12 55  1  0
 12 56  1  0
 12 57  1  0
 13 58  1  0
 13 59  1  0
 13 60  1  0
 14 61  1  0
 14 62  1  0
 15 63  1  0
 15 64  1  0
 16 65  1  0
 16 66  1  0
 16 67  1  0
 17 68  1  0
 18 69  1  0
 18 70  1  0
 21 71  1  6
 22 72  1  6
 23 73  1  0
 24 74  1  1
 25 75  1  0
 25 76  1  0
 25 77  1  0
 26 78  1  6
 28 79  1  0
 28 80  1  0
 29 81  1  0
 29 82  1  0
 29 83  1  0
 30 84  1  0
 31 85  1  0
 31 86  1  0
 32 87  1  0
 32 88  1  0
 34 89  1  6
 35 90  1  1
 36 91  1  0
 36 92  1  0
 39 93  1  1
 40 94  1  6
 41 95  1  0
 42 96  1  0
 42 97  1  0
M  CHG  1  29   1
M  END
>  <mol_id>  (25) 
2026-09-18-6fnk-s0-n100-0025

>  <rmsd_to_ref>  (25) 


$$$$

     RDKit          3D

 42 41  0  0  0  0  0  0  0  0999 V2000
    2.2470   19.6846   42.7367 C   0  0  0  0  0  0  0  0  0  0  0  0
   -0.3581   20.3425   45.4078 C   0  0  0  0  0  0  0  0  0  0  0  0
    2.3121   20.1277   39.3531 C   0  0  0  0  0  0  0  0  0  0  0  0
    1.5131   24.2737   35.4352 O   0  0  0  0  0  0  0  0  0  0  0  0
    2.6856   21.3168   38.6326 C   0  0  0  0  0  0  0  0  0  0  0  0
    3.6840   22.0869   36.4188 C   0  0  0  0  0  0  0  0  0  0  0  0
    2.0921   20.7595   41.6185 C   0  0  0  0  0  0  0  0  0  0  0  0
    3.1175   23.0675   34.2596 N   0  0  0  0  0  0  0  0  0  0  0  0
    3.1008   20.4384   40.5774 C   0  0  0  0  0  0  0  0  0  0  0  0
    1.8031   21.5210   35.1863 O   0  0  0  0  0  0  0  0  0  0  0  0
    2.8072   22.0996   35.2486 C   0  0  0  0  0  0  0  0  0  0  0  0
    0.6904   20.8706   44.5884 C   0  0  0  0  0  0  0  0  0  0  0  0
    2.0495   24.0686   34.1195 C   0  0  2  0  0  0  0  0  0  0  0  0
    3.5677   21.1664   37.4219 C   0  0  0  0  0  0  0  0  0  0  0  0
    2.0177   22.3005   38.7630 O   0  0  0  0  0  0  0  0  0  0  0  0
    2.3405   25.3696   33.4809 C   0  0  0  0  0  0  0  0  0  0  0  0
    1.1950   19.7171   43.7706 C   0  0  0  0  0  0  0  0  0  0  0  0
    3.2177   19.8404   43.2301 H   0  0  0  0  0  0  0  0  0  0  0  0
    2.1666   18.7059   42.2412 H   0  0  0  0  0  0  0  0  0  0  0  0
   -0.0654   20.4096   46.4661 H   0  0  0  0  0  0  0  0  0  0  0  0
   -1.2785   20.9222   45.2444 H   0  0  0  0  0  0  0  0  0  0  0  0
   -0.5358   19.2898   45.1426 H   0  0  0  0  0  0  0  0  0  0  0  0
    2.6456   19.2056   38.8546 H   0  0  0  0  0  0  0  0  0  0  0  0
    1.2371   19.9344   39.4826 H   0  0  0  0  0  0  0  0  0  0  0  0
    2.2305   24.1530   36.1066 H   0  0  0  0  0  0  0  0  0  0  0  0
    3.5689   23.0717   36.8954 H   0  0  0  0  0  0  0  0  0  0  0  0
    4.6482   21.8056   35.9704 H   0  0  0  0  0  0  0  0  0  0  0  0
    1.0794   20.7189   41.1909 H   0  0  0  0  0  0  0  0  0  0  0  0
    2.2445   21.7727   42.0189 H   0  0  0  0  0  0  0  0  0  0  0  0
    3.9862   23.0692   33.7062 H   0  0  0  0  0  0  0  0  0  0  0  0
    3.7034   19.5690   40.8792 H   0  0  0  0  0  0  0  0  0  0  0  0
    3.8028   21.2695   40.4146 H   0  0  0  0  0  0  0  0  0  0  0  0
    0.3009   21.6631   43.9325 H   0  0  0  0  0  0  0  0  0  0  0  0
    1.4920   21.3159   45.1959 H   0  0  0  0  0  0  0  0  0  0  0  0
    1.3541   23.6354   33.3856 H   0  0  0  0  0  0  0  0  0  0  0  0
    3.2378   20.2385   36.9319 H   0  0  0  0  0  0  0  0  0  0  0  0
    4.5605   21.2532   37.8874 H   0  0  0  0  0  0  0  0  0  0  0  0
    2.6961   26.0801   34.2417 H   0  0  0  0  0  0  0  0  0  0  0  0
    3.1166   25.2357   32.7130 H   0  0  0  0  0  0  0  0  0  0  0  0
    1.4252   25.7612   33.0129 H   0  0  0  0  0  0  0  0  0  0  0  0
    0.2993   19.3382   43.2566 H   0  0  0  0  0  0  0  0  0  0  0  0
    1.7538   19.2037   44.5670 H   0  0  0  0  0  0  0  0  0  0  0  0
  1 17  1  0
  3  9  1  0
  5 15  2  0
  5  3  1  0
  6 14  1  0
  7  1  1  0
  8 11  1  0
  9  7  1  0
 10 11  2  0
 11  6  1  0
 12  2  1  0
 13 16  1  0
 13  8  1  0
 13  4  1  0
 14  5  1  0
 17 12  1  0
  1 18  1  0
  1 19  1  0
  2 20  1  0
  2 21  1  0
  2 22  1  0
  3 23  1  0
  3 24  1  0
  4 25  1  0
  6 26  1  0
  6 27  1  0
  7 28  1  0
  7 29  1  0
  8 30  1  0
  9 31  1  0
  9 32  1  0
 12 33  1  0
 12 34  1  0
 13 35  1  6
 14 36  1  0
 14 37  1  0
 16 38  1  0
 16 39  1  0
 16 40  1  0
 17 41  1  0
 17 42  1  0
M  END
>  <mol_id>  (26) 
2026-09-18-6fnk-s0-n100-0026

>  <rmsd_to_ref>  (26) 


$$$$

     RDKit          3D

 43 41  0  0  0  0  0  0  0  0999 V2000
    4.5959   22.7830   35.2792 C   0  0  0  0  0  0  0  0  0  0  0  0
    4.9268   23.5899   32.9851 C   0  0  0  0  0  0  0  0  0  0  0  0
   -1.4383   15.5058   37.3844 O   0  0  0  0  0  0  0  0  0  0  0  0
   -1.5959   14.4691   40.7055 C   0  0  0  0  0  0  0  0  0  0  0  0
   -1.2790   15.6487   38.6058 C   0  0  0  0  0  0  0  0  0  0  0  0
    5.3632   22.9075   36.3403 C   0  0  0  0  0  0  0  0  0  0  0  0
    4.6623   22.2597   41.5342 C   0  0  0  0  0  0  0  0  0  0  0  0
   -0.5411   16.4926   39.1083 O   0  0  0  0  0  0  0  0  0  0  0  0
    4.8537   21.9705   37.1636 C   0  0  0  0  0  0  0  0  0  0  0  0
   -2.1236   14.8201   39.4080 O   0  0  0  0  0  0  0  0  0  0  0  0
    4.0393   24.8259   32.4831 C   0  0  0  0  0  0  0  0  0  0  0  0
    4.1813   21.2834   37.9751 C   0  0  0  0  0  0  0  0  0  0  0  0
    2.2553   22.1484   39.5005 C   0  0  0  0  0  0  0  0  0  0  0  0
    4.7234   21.1811   40.4393 C   0  0  0  0  0  0  0  0  0  0  0  0
    4.2478   22.9254   34.1431 C   0  0  0  0  0  0  0  0  0  0  0  0
    3.5795   21.2685   39.3853 C   0  0  2  0  0  0  0  0  0  0  0  0
    4.5561   21.6837   35.2838 H   0  0  0  0  0  0  0  0  0  0  0  0
    4.2594   23.8144   35.4609 H   0  0  0  0  0  0  0  0  0  0  0  0
    5.9165   23.9530   33.2996 H   0  0  0  0  0  0  0  0  0  0  0  0
    5.0452   22.8665   32.1651 H   0  0  0  0  0  0  0  0  0  0  0  0
   -2.2306   14.9069   41.4901 H   0  0  0  0  0  0  0  0  0  0  0  0
   -1.5834   13.3744   40.8123 H   0  0  0  0  0  0  0  0  0  0  0  0
   -0.5718   14.8588   40.8024 H   0  0  0  0  0  0  0  0  0  0  0  0
    6.4160   22.6987   36.0994 H   0  0  0  0  0  0  0  0  0  0  0  0
    5.3677   23.9206   36.7688 H   0  0  0  0  0  0  0  0  0  0  0  0
    4.6088   21.7775   42.5214 H   0  0  0  0  0  0  0  0  0  0  0  0
    5.5640   22.8875   41.4812 H   0  0  0  0  0  0  0  0  0  0  0  0
    3.7705   22.8856   41.3830 H   0  0  0  0  0  0  0  0  0  0  0  0
    4.8337   21.1957   36.3832 H   0  0  0  0  0  0  0  0  0  0  0  0
    5.0691   22.6554   37.9970 H   0  0  0  0  0  0  0  0  0  0  0  0
    3.6303   25.3608   33.3529 H   0  0  0  0  0  0  0  0  0  0  0  0
    4.6653   25.5109   31.8923 H   0  0  0  0  0  0  0  0  0  0  0  0
    3.2128   24.4543   31.8593 H   0  0  0  0  0  0  0  0  0  0  0  0
    3.2790   21.0969   37.3743 H   0  0  0  0  0  0  0  0  0  0  0  0
    5.0940   20.7897   38.3403 H   0  0  0  0  0  0  0  0  0  0  0  0
    2.0167   22.3148   40.5614 H   0  0  0  0  0  0  0  0  0  0  0  0
    2.4143   23.1170   39.0041 H   0  0  0  0  0  0  0  0  0  0  0  0
    1.4209   21.6204   39.0156 H   0  0  0  0  0  0  0  0  0  0  0  0
    5.6843   21.2791   39.9130 H   0  0  0  0  0  0  0  0  0  0  0  0
    4.6094   20.2118   40.9467 H   0  0  0  0  0  0  0  0  0  0  0  0
    3.2877   23.4559   34.2258 H   0  0  0  0  0  0  0  0  0  0  0  0
    4.4133   21.8872   33.8196 H   0  0  0  0  0  0  0  0  0  0  0  0
    3.0459   20.3572   39.6933 H   0  0  0  0  0  0  0  0  0  0  0  0
  1  6  1  0
  2 15  1  0
  3  5  2  0
  5  8  1  0
  5 10  1  0
  6  9  1  0
  9 12  1  0
 10  4  1  0
 11  2  1  0
 12 16  1  0
 14  7  1  0
 15  1  1  0
 16 13  1  0
 16 14  1  0
  1 17  1  0
  1 18  1  0
  2 19  1  0
  2 20  1  0
  4 21  1  0
  4 22  1  0
  4 23  1  0
  6 24  1  0
  6 25  1  0
  7 26  1  0
  7 27  1  0
  7 28  1  0
  9 29  1  0
  9 30  1  0
 11 31  1  0
 11 32  1  0
 11 33  1  0
 12 34  1  0
 12 35  1  0
 13 36  1  0
 13 37  1  0
 13 38  1  0
 14 39  1  0
 14 40  1  0
 15 41  1  0
 15 42  1  0
 16 43  1  6
M  CHG  1   8  -1
M  END
>  <mol_id>  (27) 
2026-09-18-6fnk-s0-n100-0027

>  <rmsd_to_ref>  (27) 


$$$$

     RDKit          3D

 80 81  0  0  0  0  0  0  0  0999 V2000
    4.7680   24.2603   31.7067 S   0  0  0  0  0  0  0  0  0  0  0  0
    2.5190   24.3477   33.6891 S   0  0  0  0  0  0  0  0  0  0  0  0
   -1.0172   20.8456   41.6413 C   0  0  0  0  0  0  0  0  0  0  0  0
    3.5245   21.9550   35.9329 C   0  0  0  0  0  0  0  0  0  0  0  0
    2.2179   21.5253   35.1006 O   0  0  0  0  0  0  0  0  0  0  0  0
    6.2803   23.5449   33.3883 C   0  0  0  0  0  0  0  0  0  0  0  0
    3.1267   20.5666   39.7018 C   0  0  0  0  0  0  0  0  0  0  0  0
    2.4186   19.5023   41.8846 C   0  0  0  0  0  0  0  0  0  0  0  0
    1.1258   19.5120   42.5994 C   0  0  1  0  0  0  0  0  0  0  0  0
   -1.0946   17.1129   46.3947 C   0  0  0  0  0  0  0  0  0  0  0  0
    0.5439   18.5604   43.4606 C   0  0  0  0  0  0  0  0  0  0  0  0
   -0.4883   19.0493   44.2466 N   0  0  0  0  0  0  0  0  0  0  0  0
   -4.5653   23.1796   40.0828 C   0  0  0  0  0  0  0  0  0  0  0  0
    2.0454   19.2796   38.1473 C   0  0  0  0  0  0  0  0  0  0  0  0
   -1.2476   18.1942   45.3120 C   0  0  0  0  0  0  0  0  0  0  0  0
    1.0127   20.3340   34.1031 C   0  0  0  0  0  0  0  0  0  0  0  0
    2.4229   19.5676   40.3639 C   0  0  1  0  0  0  0  0  0  0  0  0
    2.9153   20.3689   38.2852 C   0  0  0  0  0  0  0  0  0  0  0  0
    3.8791   21.1232   37.1096 C   0  0  0  0  0  0  0  0  0  0  0  0
    1.3781   18.4921   37.1269 C   0  0  0  0  0  0  0  0  0  0  0  0
    2.8427   22.7239   33.4087 C   0  0  2  0  0  0  0  0  0  0  0  0
   -0.4109   18.4210   46.6116 C   0  0  0  0  0  0  0  0  0  0  0  0
    2.1240   22.1025   34.7986 C   0  0  0  0  0  0  0  0  0  0  0  0
    5.2972   23.5066   33.1559 C   0  0  1  0  0  0  0  0  0  0  0  0
    4.4491   22.7853   34.0083 C   0  0  0  0  0  0  0  0  0  0  0  0
   -0.4042   20.4850   44.1029 N   0  0  0  0  0  0  0  0  0  0  0  0
    7.5651   23.2438   32.3752 C   0  0  0  0  0  0  0  0  0  0  0  0
   -3.7634   22.5117   39.1463 C   0  0  0  0  0  0  0  0  0  0  0  0
   -4.5902   24.7300   40.1266 C   0  0  0  0  0  0  0  0  0  0  0  0
    0.0819   20.6974   42.5695 C   0  0  2  0  0  0  0  0  0  0  0  0
    3.9234   25.1683   32.6784 C   0  0  0  0  0  0  0  0  0  0  0  0
    0.8695   17.3574   43.5775 O   0  0  0  0  0  0  0  0  0  0  0  0
    1.7556   18.6347   39.4536 N   0  0  0  0  0  0  0  0  0  0  0  0
   -1.9689   20.8161   42.1922 H   0  0  0  0  0  0  0  0  0  0  0  0
   -0.9268   21.8081   41.1166 H   0  0  0  0  0  0  0  0  0  0  0  0
   -0.9919   20.0250   40.9091 H   0  0  0  0  0  0  0  0  0  0  0  0
    3.3671   22.9837   36.2894 H   0  0  0  0  0  0  0  0  0  0  0  0
    4.3629   21.8295   35.2321 H   0  0  0  0  0  0  0  0  0  0  0  0
    6.4441   24.5687   33.7557 H   0  0  0  0  0  0  0  0  0  0  0  0
    6.3448   22.6491   34.0234 H   0  0  0  0  0  0  0  0  0  0  0  0
    3.7311   21.3587   40.1680 H   0  0  0  0  0  0  0  0  0  0  0  0
    2.9929   20.3681   42.2458 H   0  0  0  0  0  0  0  0  0  0  0  0
    2.8347   18.5085   42.1066 H   0  0  0  0  0  0  0  0  0  0  0  0
    0.6456   19.0256   41.7375 H   0  0  0  0  0  0  0  0  0  0  0  0
   -0.4960   16.2141   46.1854 H   0  0  0  0  0  0  0  0  0  0  0  0
   -1.8044   16.5132   46.9833 H   0  0  0  0  0  0  0  0  0  0  0  0
   -5.6000   22.8516   39.9043 H   0  0  0  0  0  0  0  0  0  0  0  0
   -4.1040   22.9099   41.0444 H   0  0  0  0  0  0  0  0  0  0  0  0
   -2.1225   18.2028   44.6452 H   0  0  0  0  0  0  0  0  0  0  0  0
    1.1200   20.2035   35.1901 H   0  0  0  0  0  0  0  0  0  0  0  0
    1.2826   21.3645   33.8290 H   0  0  0  0  0  0  0  0  0  0  0  0
    1.6778   19.6298   33.5818 H   0  0  0  0  0  0  0  0  0  0  0  0
   -0.0296   20.1381   33.8115 H   0  0  0  0  0  0  0  0  0  0  0  0
    3.3139   18.9231   40.3387 H   0  0  0  0  0  0  0  0  0  0  0  0
    4.4600   20.2949   36.6780 H   0  0  0  0  0  0  0  0  0  0  0  0
    4.2388   21.9455   37.7456 H   0  0  0  0  0  0  0  0  0  0  0  0
    0.9103   17.6113   37.5911 H   0  0  0  0  0  0  0  0  0  0  0  0
    0.6049   19.1036   36.6390 H   0  0  0  0  0  0  0  0  0  0  0  0
    2.1135   18.1644   36.3773 H   0  0  0  0  0  0  0  0  0  0  0  0
    2.6131   22.2646   32.4359 H   0  0  0  0  0  0  0  0  0  0  0  0
   -0.7773   19.1098   47.3870 H   0  0  0  0  0  0  0  0  0  0  0  0
    0.6233   18.7294   46.8240 H   0  0  0  0  0  0  0  0  0  0  0  0
    2.3463   22.8507   35.5737 H   0  0  0  0  0  0  0  0  0  0  0  0
    1.1367   21.8821   34.3663 H   0  0  0  0  0  0  0  0  0  0  0  0
    5.4634   22.5679   32.6071 H   0  0  0  0  0  0  0  0  0  0  0  0
    4.4419   23.2693   34.9961 H   0  0  0  0  0  0  0  0  0  0  0  0
    4.8281   21.7548   34.0749 H   0  0  0  0  0  0  0  0  0  0  0  0
   -1.3231   20.9232   44.2599 H   0  0  0  0  0  0  0  0  0  0  0  0
    8.4340   22.9252   32.9697 H   0  0  0  0  0  0  0  0  0  0  0  0
    7.2942   22.4477   31.6661 H   0  0  0  0  0  0  0  0  0  0  0  0
    7.8166   24.1595   31.8199 H   0  0  0  0  0  0  0  0  0  0  0  0
   -3.0445   21.8667   39.6728 H   0  0  0  0  0  0  0  0  0  0  0  0
   -4.3986   21.8957   38.4928 H   0  0  0  0  0  0  0  0  0  0  0  0
   -3.2181   23.2488   38.5385 H   0  0  0  0  0  0  0  0  0  0  0  0
   -4.4960   25.0690   41.1689 H   0  0  0  0  0  0  0  0  0  0  0  0
   -3.7523   25.1270   39.5348 H   0  0  0  0  0  0  0  0  0  0  0  0
   -5.5400   25.0935   39.7073 H   0  0  0  0  0  0  0  0  0  0  0  0
    0.5523   21.6162   42.1894 H   0  0  0  0  0  0  0  0  0  0  0  0
    4.6243   25.6167   33.3978 H   0  0  0  0  0  0  0  0  0  0  0  0
    3.4045   25.8729   32.0117 H   0  0  0  0  0  0  0  0  0  0  0  0
  1 31  1  0
  1 24  1  0
  4 19  1  0
  5  4  1  0
  7 17  1  0
  9  8  1  0
  9 11  1  0
 10 22  1  0
 11 32  2  0
 11 12  1  0
 12 15  1  0
 14 18  1  0
 14 33  2  0
 15 10  1  0
 15 22  1  0
 17  8  1  0
 18  7  2  0
 19 18  1  0
 20 14  1  0
 21  2  1  0
 21 25  1  0
 21 23  1  0
 23  5  1  0
 24  6  1  0
 24 25  1  0
 26 12  1  0
 27  6  1  0
 28 13  1  0
 29 13  1  0
 30  3  1  0
 30  9  1  0
 30 26  1  0
 31  2  1  0
 33 17  1  0
  3 34  1  0
  3 35  1  0
  3 36  1  0
  4 37  1  0
  4 38  1  0
  6 39  1  0
  6 40  1  0
  7 41  1  0
  8 42  1  0
  8 43  1  0
  9 44  1  6
 10 45  1  0
 10 46  1  0
 13 47  1  0
 13 48  1  0
 15 49  1  0
 16 50  1  0
 16 51  1  0
 16 52  1  0
 16 53  1  0
 17 54  1  6
 19 55  1  0
 19 56  1  0
 20 57  1  0
 20 58  1  0
 20 59  1  0
 21 60  1  6
 22 61  1  0
 22 62  1  0
 23 63  1  0
 23 64  1  0
 24 65  1  6
 25 66  1  0
 25 67  1  0
 26 68  1  0
 27 69  1  0
 27 70  1  0
 27 71  1  0
 28 72  1  0
 28 73  1  0
 28 74  1  0
 29 75  1  0
 29 76  1  0
 29 77  1  0
 30 78  1  1
 31 79  1  0
 31 80  1  0
M  END
>  <mol_id>  (28) 
2026-09-18-6fnk-s0-n100-0028

>  <rmsd_to_ref>  (28) 


$$$$

     RDKit          3D

 64 66  0  0  0  0  0  0  0  0999 V2000
    1.4156   25.6383   32.8473 S   0  0  0  0  0  0  0  0  0  0  0  0
    2.9113   19.4393   41.4131 C   0  0  1  0  0  0  0  0  0  0  0  0
    2.8562   24.9202   32.5914 C   0  0  2  0  0  0  0  0  0  0  0  0
    3.1562   14.9383   38.7158 S   0  0  0  0  0  0  0  0  0  0  0  0
    2.3465   16.4789   38.4434 C   0  0  2  0  0  0  0  0  0  0  0  0
    3.2435   21.6651   36.0454 C   0  0  0  0  0  0  0  0  0  0  0  0
    5.6064   24.8388   32.1526 C   0  0  0  0  0  0  0  0  0  0  0  0
    1.1899   24.8450   34.6551 S   0  0  0  0  0  0  0  0  0  0  0  0
    4.0728   19.3950   36.8679 O   0  0  0  0  0  0  0  0  0  0  0  0
    3.0411   17.8030   39.0353 C   0  0  0  0  0  0  0  0  0  0  0  0
    2.6059   19.3048   38.8887 C   0  0  1  0  0  0  0  0  0  0  0  0
    2.9119   20.1659   40.0772 C   0  0  0  0  0  0  0  0  0  0  0  0
    1.7032   13.9456   38.5714 C   0  0  0  0  0  0  0  0  0  0  0  0
    1.0040   16.2437   38.9963 C   0  0  0  0  0  0  0  0  0  0  0  0
    4.0574   19.7116   42.3179 C   0  0  0  0  0  0  0  0  0  0  0  0
    1.1610   22.8839   36.4670 C   0  0  0  0  0  0  0  0  0  0  0  0
    1.7775   12.7872   38.2338 O   0  0  0  0  0  0  0  0  0  0  0  0
    3.1859   24.8512   31.1690 C   0  0  0  0  0  0  0  0  0  0  0  0
    3.4002   20.7031   43.2318 C   0  0  0  0  0  0  0  0  0  0  0  0
    0.5676   14.8305   38.5534 C   0  0  0  0  0  0  0  0  0  0  0  0
    2.3187   23.5358   34.4643 C   0  0  0  0  0  0  0  0  0  0  0  0
    1.9550   20.5769   43.0923 N   0  0  0  0  0  0  0  0  0  0  0  0
    3.1401   21.4484   37.5050 C   0  0  0  0  0  0  0  0  0  0  0  0
    1.5555   19.6799   41.9742 C   0  0  0  0  0  0  0  0  0  0  0  0
    2.0674   22.3294   35.4197 C   0  0  1  0  0  0  0  0  0  0  0  0
    3.0877   23.7017   33.4679 C   0  0  0  0  0  0  0  0  0  0  0  0
    4.6569   24.9742   31.0374 C   0  0  0  0  0  0  0  0  0  0  0  0
    3.3401   19.9393   37.6746 C   0  0  0  0  0  0  0  0  0  0  0  0
    3.0939   18.3638   41.2720 H   0  0  0  0  0  0  0  0  0  0  0  0
    3.6591   25.5693   32.9709 H   0  0  0  0  0  0  0  0  0  0  0  0
    2.3717   16.7303   37.3728 H   0  0  0  0  0  0  0  0  0  0  0  0
    4.1286   22.2903   35.8558 H   0  0  0  0  0  0  0  0  0  0  0  0
    3.3073   20.6652   35.5914 H   0  0  0  0  0  0  0  0  0  0  0  0
    5.0565   24.8460   33.1053 H   0  0  0  0  0  0  0  0  0  0  0  0
    6.1557   23.8910   32.0535 H   0  0  0  0  0  0  0  0  0  0  0  0
    6.3170   25.6782   32.1331 H   0  0  0  0  0  0  0  0  0  0  0  0
    3.0693   17.6328   40.1216 H   0  0  0  0  0  0  0  0  0  0  0  0
    3.9123   17.8307   38.3642 H   0  0  0  0  0  0  0  0  0  0  0  0
    1.5129   19.2747   38.7685 H   0  0  0  0  0  0  0  0  0  0  0  0
    2.1576   20.9654   40.1230 H   0  0  0  0  0  0  0  0  0  0  0  0
    3.9358   20.5403   39.9308 H   0  0  0  0  0  0  0  0  0  0  0  0
    1.0334   16.3020   40.0943 H   0  0  0  0  0  0  0  0  0  0  0  0
    0.2946   17.0023   38.6339 H   0  0  0  0  0  0  0  0  0  0  0  0
    4.3836   18.8084   42.8545 H   0  0  0  0  0  0  0  0  0  0  0  0
    4.9782   20.0578   41.8258 H   0  0  0  0  0  0  0  0  0  0  0  0
    1.4851   22.5305   37.4570 H   0  0  0  0  0  0  0  0  0  0  0  0
    1.1984   23.9829   36.4398 H   0  0  0  0  0  0  0  0  0  0  0  0
    0.1312   22.5472   36.2765 H   0  0  0  0  0  0  0  0  0  0  0  0
    2.8525   23.8886   30.7541 H   0  0  0  0  0  0  0  0  0  0  0  0
    2.6824   25.6597   30.6187 H   0  0  0  0  0  0  0  0  0  0  0  0
    3.6915   20.4976   44.2725 H   0  0  0  0  0  0  0  0  0  0  0  0
    3.7156   21.7235   42.9685 H   0  0  0  0  0  0  0  0  0  0  0  0
    0.1562   14.8772   37.5343 H   0  0  0  0  0  0  0  0  0  0  0  0
   -0.2005   14.4526   39.2443 H   0  0  0  0  0  0  0  0  0  0  0  0
    1.5723   20.1977   43.9703 H   0  0  0  0  0  0  0  0  0  0  0  0
    1.5823   21.5142   42.8839 H   0  0  0  0  0  0  0  0  0  0  0  0
    3.9221   22.0083   38.0391 H   0  0  0  0  0  0  0  0  0  0  0  0
    2.1808   21.7956   37.9160 H   0  0  0  0  0  0  0  0  0  0  0  0
    0.8892   20.1798   41.2557 H   0  0  0  0  0  0  0  0  0  0  0  0
    0.9808   18.7844   42.2532 H   0  0  0  0  0  0  0  0  0  0  0  0
    1.6613   21.5033   34.8176 H   0  0  0  0  0  0  0  0  0  0  0  0
    3.8943   22.9871   33.2468 H   0  0  0  0  0  0  0  0  0  0  0  0
    4.9531   24.2113   30.3023 H   0  0  0  0  0  0  0  0  0  0  0  0
    4.7531   26.0475   30.8166 H   0  0  0  0  0  0  0  0  0  0  0  0
  1  8  1  0
  2 12  1  0
  2 24  1  0
  2 15  1  0
  3 18  1  0
  3  1  1  0
  3 26  1  0
  4 13  1  0
  5  4  1  0
  5 10  1  0
  5 14  1  0
  6 23  1  0
  9 28  2  0
 11 10  1  0
 11 12  1  0
 13 20  1  0
 15 19  1  0
 17 13  2  0
 19 22  1  0
 20 14  1  0
 21  8  1  0
 21 25  1  0
 23 28  1  0
 24 22  1  0
 25  6  1  0
 25 16  1  0
 26 21  2  0
 27 18  1  0
 27  7  1  0
 28 11  1  0
  2 29  1  6
  3 30  1  1
  5 31  1  6
  6 32  1  0
  6 33  1  0
  7 34  1  0
  7 35  1  0
  7 36  1  0
 10 37  1  0
 10 38  1  0
 11 39  1  6
 12 40  1  0
 12 41  1  0
 14 42  1  0
 14 43  1  0
 15 44  1  0
 15 45  1  0
 16 46  1  0
 16 47  1  0
 16 48  1  0
 18 49  1  0
 18 50  1  0
 19 51  1  0
 19 52  1  0
 20 53  1  0
 20 54  1  0
 22 55  1  0
 22 56  1  0
 23 57  1  0
 23 58  1  0
 24 59  1  0
 24 60  1  0
 25 61  1  6
 26 62  1  0
 27 63  1  0
 27 64  1  0
M  CHG  1  22   1
M  END
>  <mol_id>  (29) 
2026-09-18-6fnk-s0-n100-0029

>  <rmsd_to_ref>  (29) 


$$$$

     RDKit          3D

 66 66  0  0  0  0  0  0  0  0999 V2000
    2.8771   21.4495   40.9854 C   0  0  0  0  0  0  0  0  0  0  0  0
    1.0587   27.1367   32.9335 C   0  0  2  0  0  0  0  0  0  0  0  0
    2.1277   22.5973   38.9053 C   0  0  0  0  0  0  0  0  0  0  0  0
    2.7808   20.8547   37.5737 O   0  0  0  0  0  0  0  0  0  0  0  0
    0.4414   17.0673   39.3734 O   0  0  0  0  0  0  0  0  0  0  0  0
    4.3034   23.0221   32.6502 C   0  0  0  0  0  0  0  0  0  0  0  0
    0.9286   26.6577   34.3021 C   0  0  1  0  0  0  0  0  0  0  0  0
    0.4847   16.9405   40.7716 O   0  0  0  0  0  0  0  0  0  0  0  0
    2.4841   16.3869   38.7239 O   0  0  0  0  0  0  0  0  0  0  0  0
    4.6344   22.2191   39.3527 C   0  0  0  0  0  0  0  0  0  0  0  0
    2.1090   24.5663   32.9870 N   0  0  0  0  0  0  0  0  0  0  0  0
   -1.7914   16.1340   40.4008 C   0  0  0  0  0  0  0  0  0  0  0  0
    2.0075   20.2171   41.6747 C   0  0  0  0  0  0  0  0  0  0  0  0
    0.6668   15.0483   38.4739 O   0  0  0  0  0  0  0  0  0  0  0  0
    0.5035   28.2222   33.7043 C   0  0  2  0  0  0  0  0  0  0  0  0
    3.0512   23.9292   32.7715 C   0  0  0  0  0  0  0  0  0  0  0  0
   -0.7930   28.3387   34.4111 C   0  0  0  0  0  0  0  0  0  0  0  0
    0.7875   19.3055   43.6535 C   0  0  0  0  0  0  0  0  0  0  0  0
    2.7304   23.5107   35.4752 C   0  0  0  0  0  0  0  0  0  0  0  0
    1.5707   19.0857   40.8705 C   0  0  0  0  0  0  0  0  0  0  0  0
    1.7837   22.6524   36.2256 C   0  0  0  0  0  0  0  0  0  0  0  0
    0.8065   18.1255   41.4884 C   0  0  0  0  0  0  0  0  0  0  0  0
    1.6404   20.2164   43.0504 C   0  0  0  0  0  0  0  0  0  0  0  0
    0.4074   26.4835   31.6694 C   0  0  0  0  0  0  0  0  0  0  0  0
    2.2835   21.9271   37.5217 C   0  0  0  0  0  0  0  0  0  0  0  0
    1.1772   24.9635   33.9257 C   0  0  1  0  0  0  0  0  0  0  0  0
    0.3645   18.2288   42.8235 C   0  0  0  0  0  0  0  0  0  0  0  0
    1.2825   16.1504   38.7537 C   0  0  0  0  0  0  0  0  0  0  0  0
    2.2222   21.1566   43.8874 F   0  0  0  0  0  0  0  0  0  0  0  0
    0.2927   19.5584   44.8076 F   0  0  0  0  0  0  0  0  0  0  0  0
    3.6654   22.0001   42.0327 O   0  0  0  0  0  0  0  0  0  0  0  0
   -1.8518   15.4836   40.7951 C   0  0  0  0  0  0  0  0  0  0  0  0
    1.9519   24.6726   35.1591 C   0  0  0  0  0  0  0  0  0  0  0  0
    3.2450   22.1068   39.7029 N   0  0  0  0  0  0  0  0  0  0  0  0
    1.9392   27.1307   32.2743 H   0  0  0  0  0  0  0  0  0  0  0  0
    1.1709   22.3104   39.3660 H   0  0  0  0  0  0  0  0  0  0  0  0
    2.1303   23.6947   38.8300 H   0  0  0  0  0  0  0  0  0  0  0  0
    4.6974   22.8049   33.6540 H   0  0  0  0  0  0  0  0  0  0  0  0
    4.0273   22.0805   32.1530 H   0  0  0  0  0  0  0  0  0  0  0  0
    5.0735   23.5376   32.0575 H   0  0  0  0  0  0  0  0  0  0  0  0
    0.9395   26.4643   35.3849 H   0  0  0  0  0  0  0  0  0  0  0  0
    5.2342   22.3415   40.2667 H   0  0  0  0  0  0  0  0  0  0  0  0
    4.9539   21.3093   38.8235 H   0  0  0  0  0  0  0  0  0  0  0  0
    4.7786   23.0927   38.6999 H   0  0  0  0  0  0  0  0  0  0  0  0
    1.4768   24.1857   32.2684 H   0  0  0  0  0  0  0  0  0  0  0  0
    2.7077   25.3639   33.2444 H   0  0  0  0  0  0  0  0  0  0  0  0
   -1.7045   17.0717   39.8323 H   0  0  0  0  0  0  0  0  0  0  0  0
    0.6689   29.2919   33.5087 H   0  0  0  0  0  0  0  0  0  0  0  0
    3.6095   24.8088   32.4185 H   0  0  0  0  0  0  0  0  0  0  0  0
    2.4122   23.0882   32.4641 H   0  0  0  0  0  0  0  0  0  0  0  0
   -0.6154   28.4037   35.4947 H   0  0  0  0  0  0  0  0  0  0  0  0
   -1.3163   29.2442   34.0703 H   0  0  0  0  0  0  0  0  0  0  0  0
   -1.4102   27.4546   34.1930 H   0  0  0  0  0  0  0  0  0  0  0  0
    3.5980   23.7762   36.0972 H   0  0  0  0  0  0  0  0  0  0  0  0
    3.1422   23.0157   34.5833 H   0  0  0  0  0  0  0  0  0  0  0  0
    1.8422   19.0023   39.8078 H   0  0  0  0  0  0  0  0  0  0  0  0
    0.9344   23.2874   36.5180 H   0  0  0  0  0  0  0  0  0  0  0  0
    1.5633   21.8295   35.5297 H   0  0  0  0  0  0  0  0  0  0  0  0
   -0.4027   25.8082   31.9819 H   0  0  0  0  0  0  0  0  0  0  0  0
   -0.0018   27.2710   31.0194 H   0  0  0  0  0  0  0  0  0  0  0  0
    1.1690   25.9123   31.1183 H   0  0  0  0  0  0  0  0  0  0  0  0
    0.2232   24.5268   33.5951 H   0  0  0  0  0  0  0  0  0  0  0  0
   -0.3169   17.4667   43.2295 H   0  0  0  0  0  0  0  0  0  0  0  0
   -1.9387   14.5459   41.3635 H   0  0  0  0  0  0  0  0  0  0  0  0
    2.6608   25.5095   35.2424 H   0  0  0  0  0  0  0  0  0  0  0  0
    1.1063   24.4865   35.8376 H   0  0  0  0  0  0  0  0  0  0  0  0
  1 13  1  0
  1 31  2  0
  2 24  1  0
  2 15  1  0
  2  7  1  0
  3 34  1  0
  4 25  2  0
  5  8  1  0
  6 16  1  0
  7 26  1  0
  8 22  1  0
  9 28  1  0
 10 34  1  0
 11 26  1  0
 12 32  3  0
 13 23  2  0
 14 28  2  0
 15  7  1  0
 15 17  1  0
 16 11  1  0
 18 30  1  0
 19 21  1  0
 20 22  2  0
 20 13  1  0
 21 25  1  0
 22 27  1  0
 23 18  1  0
 23 29  1  0
 25  3  1  0
 26 33  1  0
 27 18  2  0
 28  5  1  0
 33 19  1  0
 34  1  1  0
  2 35  1  6
  3 36  1  0
  3 37  1  0
  6 38  1  0
  6 39  1  0
  6 40  1  0
  7 41  1  1
 10 42  1  0
 10 43  1  0
 10 44  1  0
 11 45  1  0
 11 46  1  0
 12 47  1  0
 15 48  1  1
 16 49  1  0
 16 50  1  0
 17 51  1  0
 17 52  1  0
 17 53  1  0
 19 54  1  0
 19 55  1  0
 20 56  1  0
 21 57  1  0
 21 58  1  0
 24 59  1  0
 24 60  1  0
 24 61  1  0
 26 62  1  1
 27 63  1  0
 32 64  1  0
 33 65  1  0
 33 66  1  0
M  CHG  2   9  -1  11   1
M  END
>  <mol_id>  (30) 
2026-09-18-6fnk-s0-n100-0030

>  <rmsd_to_ref>  (30) 


$$$$

     RDKit          3D

 63 64  0  0  0  0  0  0  0  0999 V2000
    2.3856   20.1536   39.2220 N   0  0  0  0  0  0  0  0  0  0  0  0
    3.3159   22.7263   36.8399 C   0  0  2  0  0  0  0  0  0  0  0  0
    1.5862   18.3702   41.4197 S   0  0  0  0  0  0  0  0  0  0  0  0
    0.8250   17.3473   39.9200 C   0  0  0  0  0  0  0  0  0  0  0  0
    2.5681   24.4581   35.0147 C   0  0  2  0  0  0  0  0  0  0  0  0
    1.2340   18.1936   38.7110 C   0  0  0  0  0  0  0  0  0  0  0  0
    4.4135   23.5847   37.4850 C   0  0  0  0  0  0  0  0  0  0  0  0
    3.5690   23.4355   34.4064 C   0  0  0  0  0  0  0  0  0  0  0  0
    0.8202   16.2878   37.1869 C   0  0  0  0  0  0  0  0  0  0  0  0
    0.5526   28.2797   33.6666 O   0  0  0  0  0  0  0  0  0  0  0  0
    2.6316   22.9473   35.4677 C   0  0  1  0  0  0  0  0  0  0  0  0
    5.7375   23.5914   36.7503 C   0  0  0  0  0  0  0  0  0  0  0  0
    2.6361   21.7537   37.6282 N   0  0  0  0  0  0  0  0  0  0  0  0
    1.9813   19.2070   38.6228 N   0  0  0  0  0  0  0  0  0  0  0  0
    0.5333   27.0596   33.4647 C   0  0  0  0  0  0  0  0  0  0  0  0
    2.9370   27.2149   34.4898 S   0  0  0  0  0  0  0  0  0  0  0  0
   -0.8014   18.4713   44.0130 C   0  0  0  0  0  0  0  0  0  0  0  0
    4.4430   21.3622   39.0806 O   0  0  0  0  0  0  0  0  0  0  0  0
    3.2912   21.1346   38.6370 C   0  0  0  0  0  0  0  0  0  0  0  0
    0.6843   17.8676   43.8221 C   0  0  0  0  0  0  0  0  0  0  0  0
   -0.2762   16.2853   39.5648 C   0  0  0  0  0  0  0  0  0  0  0  0
   -0.1341   15.6938   38.1810 C   0  0  0  0  0  0  0  0  0  0  0  0
    0.5130   17.5964   42.2922 C   0  0  0  0  0  0  0  0  0  0  0  0
    1.2375   24.1337   32.7771 C   0  0  0  0  0  0  0  0  0  0  0  0
    1.4416   24.8549   34.0735 C   0  0  2  0  0  0  0  0  0  0  0  0
    0.6179   17.8204   37.4016 C   0  0  0  0  0  0  0  0  0  0  0  0
    1.6850   26.2510   33.7909 C   0  0  1  0  0  0  0  0  0  0  0  0
   -0.9458   19.1177   45.3509 C   0  0  0  0  0  0  0  0  0  0  0  0
    4.3228   22.6328   36.4070 H   0  0  0  0  0  0  0  0  0  0  0  0
    2.6089   25.4277   35.5327 H   0  0  0  0  0  0  0  0  0  0  0  0
    4.0482   24.6208   37.5390 H   0  0  0  0  0  0  0  0  0  0  0  0
    4.6119   23.1386   38.4707 H   0  0  0  0  0  0  0  0  0  0  0  0
    3.4374   23.0980   33.3677 H   0  0  0  0  0  0  0  0  0  0  0  0
    4.6619   23.4158   34.2840 H   0  0  0  0  0  0  0  0  0  0  0  0
    0.5600   15.9922   36.1598 H   0  0  0  0  0  0  0  0  0  0  0  0
    1.8605   15.9583   37.3257 H   0  0  0  0  0  0  0  0  0  0  0  0
    1.8973   22.1321   35.5462 H   0  0  0  0  0  0  0  0  0  0  0  0
    6.5612   23.6102   37.4791 H   0  0  0  0  0  0  0  0  0  0  0  0
    5.8173   22.6864   36.1301 H   0  0  0  0  0  0  0  0  0  0  0  0
    5.7958   24.4825   36.1079 H   0  0  0  0  0  0  0  0  0  0  0  0
    1.6517   21.5233   37.4312 H   0  0  0  0  0  0  0  0  0  0  0  0
   -0.3636   26.5888   33.0355 H   0  0  0  0  0  0  0  0  0  0  0  0
    2.8106   27.2085   35.8539 H   0  0  0  0  0  0  0  0  0  0  0  0
   -1.5352   17.6566   43.9256 H   0  0  0  0  0  0  0  0  0  0  0  0
   -0.9751   19.2299   43.2356 H   0  0  0  0  0  0  0  0  0  0  0  0
    1.4774   18.5967   44.0442 H   0  0  0  0  0  0  0  0  0  0  0  0
    0.9850   17.0263   44.4639 H   0  0  0  0  0  0  0  0  0  0  0  0
   -0.2182   15.4678   40.2984 H   0  0  0  0  0  0  0  0  0  0  0  0
   -1.2436   16.8083   39.5902 H   0  0  0  0  0  0  0  0  0  0  0  0
   -1.1320   15.7315   37.7195 H   0  0  0  0  0  0  0  0  0  0  0  0
    0.3051   14.7054   38.3814 H   0  0  0  0  0  0  0  0  0  0  0  0
   -0.4924   17.9211   41.9859 H   0  0  0  0  0  0  0  0  0  0  0  0
    0.6562   16.5188   42.1237 H   0  0  0  0  0  0  0  0  0  0  0  0
    0.8070   23.1408   32.9737 H   0  0  0  0  0  0  0  0  0  0  0  0
    0.5512   24.7113   32.1403 H   0  0  0  0  0  0  0  0  0  0  0  0
    2.2042   24.0193   32.2649 H   0  0  0  0  0  0  0  0  0  0  0  0
    0.5156   24.5871   34.6034 H   0  0  0  0  0  0  0  0  0  0  0  0
    1.1054   18.3779   36.5883 H   0  0  0  0  0  0  0  0  0  0  0  0
   -0.4543   18.0657   37.4025 H   0  0  0  0  0  0  0  0  0  0  0  0
    2.2489   25.8967   32.9154 H   0  0  0  0  0  0  0  0  0  0  0  0
   -0.9392   18.3451   46.1339 H   0  0  0  0  0  0  0  0  0  0  0  0
   -0.1090   19.8127   45.5145 H   0  0  0  0  0  0  0  0  0  0  0  0
   -1.8954   19.6714   45.3901 H   0  0  0  0  0  0  0  0  0  0  0  0
  2  7  1  0
  2 13  1  0
  3 23  1  0
  4  3  1  0
  5 25  1  0
  5 11  1  0
  6  4  2  0
  8  5  1  0
  8 11  1  0
  9 26  1  0
  9 22  1  0
 11  2  1  0
 12  7  1  0
 13 19  1  0
 14  6  1  0
 14  1  2  3
 15 10  2  0
 15 27  1  0
 17 28  1  0
 19 18  2  0
 19  1  1  0
 20 17  1  0
 21  4  1  0
 22 21  1  0
 23 20  1  0
 25 24  1  0
 26  6  1  0
 27 25  1  0
 27 16  1  0
  2 29  1  6
  5 30  1  1
  7 31  1  0
  7 32  1  0
  8 33  1  0
  8 34  1  0
  9 35  1  0
  9 36  1  0
 11 37  1  6
 12 38  1  0
 12 39  1  0
 12 40  1  0
 13 41  1  0
 15 42  1  0
 16 43  1  0
 17 44  1  0
 17 45  1  0
 20 46  1  0
 20 47  1  0
 21 48  1  0
 21 49  1  0
 22 50  1  0
 22 51  1  0
 23 52  1  0
 23 53  1  0
 24 54  1  0
 24 55  1  0
 24 56  1  0
 25 57  1  1
 26 58  1  0
 26 59  1  0
 27 60  1  6
 28 61  1  0
 28 62  1  0
 28 63  1  0
M  END
>  <mol_id>  (31) 
2026-09-18-6fnk-s0-n100-0031

>  <rmsd_to_ref>  (31) 


$$$$

     RDKit          3D

 62 63  0  0  0  0  0  0  0  0999 V2000
    0.1907   23.8537   35.3722 C   0  0  0  0  0  0  0  0  0  0  0  0
   -0.0965   16.2823   39.9059 C   0  0  0  0  0  0  0  0  0  0  0  0
   -0.5911   15.3686   40.8760 C   0  0  0  0  0  0  0  0  0  0  0  0
    0.6879   26.9832   33.3668 C   0  0  0  0  0  0  0  0  0  0  0  0
   -0.8157   16.4693   38.7404 C   0  0  0  0  0  0  0  0  0  0  0  0
    4.5637   20.4369   40.6055 C   0  0  0  0  0  0  0  0  0  0  0  0
    2.3487   20.4434   37.9853 C   0  0  0  0  0  0  0  0  0  0  0  0
    1.2070   22.6578   35.2463 C   0  0  1  0  0  0  0  0  0  0  0  0
    0.2419   26.2751   34.7200 C   0  0  0  0  0  0  0  0  0  0  0  0
   -2.2450   13.6530   41.4192 C   0  0  0  0  0  0  0  0  0  0  0  0
    3.3691   19.6085   40.9136 C   0  0  0  0  0  0  0  0  0  0  0  0
    1.7930   20.4350   39.3245 C   0  0  0  0  0  0  0  0  0  0  0  0
    2.9844   23.1337   35.3545 Cl  0  0  0  0  0  0  0  0  0  0  0  0
    1.8062   18.0491   39.6299 N   0  0  0  0  0  0  0  0  0  0  0  0
    1.1249   17.0763   40.3051 C   0  0  0  0  0  0  0  0  0  0  0  0
    0.9576   21.7482   36.4476 C   0  0  0  0  0  0  0  0  0  0  0  0
    0.5838   24.8993   34.4853 C   0  0  0  0  0  0  0  0  0  0  0  0
    2.3435   19.2834   39.9519 C   0  0  2  0  0  0  0  0  0  0  0  0
   -2.0075   15.8311   38.5529 C   0  0  0  0  0  0  0  0  0  0  0  0
   -1.8158   14.7351   40.6562 C   0  0  0  0  0  0  0  0  0  0  0  0
    1.8139   24.8104   33.6762 C   0  0  0  0  0  0  0  0  0  0  0  0
    2.1155   21.9384   37.4488 C   0  0  0  0  0  0  0  0  0  0  0  0
   -2.3320   12.7969   42.1764 N   0  0  0  0  0  0  0  0  0  0  0  0
   -2.5602   15.0057   39.4783 C   0  0  0  0  0  0  0  0  0  0  0  0
    5.5423   20.5334   41.8287 C   0  0  0  0  0  0  0  0  0  0  0  0
    1.5993   25.9506   32.6649 C   0  0  0  0  0  0  0  0  0  0  0  0
   -0.8193   23.5074   35.1078 H   0  0  0  0  0  0  0  0  0  0  0  0
    0.1875   24.2285   36.4064 H   0  0  0  0  0  0  0  0  0  0  0  0
   -0.0150   15.1628   41.7903 H   0  0  0  0  0  0  0  0  0  0  0  0
   -0.1882   27.2145   32.7431 H   0  0  0  0  0  0  0  0  0  0  0  0
    1.2032   27.9382   33.5472 H   0  0  0  0  0  0  0  0  0  0  0  0
   -0.4248   17.1371   37.9585 H   0  0  0  0  0  0  0  0  0  0  0  0
    5.0992   19.9865   39.7568 H   0  0  0  0  0  0  0  0  0  0  0  0
    4.2198   21.4534   40.3640 H   0  0  0  0  0  0  0  0  0  0  0  0
    3.4222   20.2047   38.0105 H   0  0  0  0  0  0  0  0  0  0  0  0
    1.8745   19.6925   37.3362 H   0  0  0  0  0  0  0  0  0  0  0  0
    1.0407   22.2064   34.2571 H   0  0  0  0  0  0  0  0  0  0  0  0
    0.7950   26.6799   35.5803 H   0  0  0  0  0  0  0  0  0  0  0  0
   -0.8208   26.4254   34.9612 H   0  0  0  0  0  0  0  0  0  0  0  0
    3.7590   18.6442   41.2714 H   0  0  0  0  0  0  0  0  0  0  0  0
    2.8177   20.2791   41.5891 H   0  0  0  0  0  0  0  0  0  0  0  0
    2.0838   21.3460   39.8680 H   0  0  0  0  0  0  0  0  0  0  0  0
    0.6933   20.4091   39.3120 H   0  0  0  0  0  0  0  0  0  0  0  0
    1.1651   18.2776   38.8568 H   0  0  0  0  0  0  0  0  0  0  0  0
    2.7093   17.5546   39.6591 H   0  0  0  0  0  0  0  0  0  0  0  0
    0.8315   17.5613   41.2478 H   0  0  0  0  0  0  0  0  0  0  0  0
    1.8644   16.2717   40.1787 H   0  0  0  0  0  0  0  0  0  0  0  0
    0.0044   22.0171   36.9261 H   0  0  0  0  0  0  0  0  0  0  0  0
    0.9059   20.6983   36.1233 H   0  0  0  0  0  0  0  0  0  0  0  0
   -0.2342   24.4800   33.8811 H   0  0  0  0  0  0  0  0  0  0  0  0
    3.0681   19.1823   39.1305 H   0  0  0  0  0  0  0  0  0  0  0  0
   -2.5457   15.9931   37.6073 H   0  0  0  0  0  0  0  0  0  0  0  0
    2.7112   24.9807   34.2892 H   0  0  0  0  0  0  0  0  0  0  0  0
    1.9762   23.8256   33.2138 H   0  0  0  0  0  0  0  0  0  0  0  0
    3.0148   22.3277   36.9491 H   0  0  0  0  0  0  0  0  0  0  0  0
    1.8957   22.6642   38.2454 H   0  0  0  0  0  0  0  0  0  0  0  0
   -3.5536   14.5607   39.3203 H   0  0  0  0  0  0  0  0  0  0  0  0
    4.9766   20.3985   42.7624 H   0  0  0  0  0  0  0  0  0  0  0  0
    6.3089   19.7486   41.7478 H   0  0  0  0  0  0  0  0  0  0  0  0
    6.0274   21.5207   41.8333 H   0  0  0  0  0  0  0  0  0  0  0  0
    1.1124   25.5676   31.7560 H   0  0  0  0  0  0  0  0  0  0  0  0
    2.5553   26.4014   32.3599 H   0  0  0  0  0  0  0  0  0  0  0  0
  1  8  1  0
  2 15  1  0
  2  3  1  0
  4  9  1  0
  5  2  2  0
  6 11  1  0
  6 25  1  0
  7 12  1  0
  8 13  1  0
  8 16  1  0
 10 23  3  0
 14 18  1  0
 14 15  1  0
 16 22  1  0
 17  9  1  0
 17  1  1  0
 18 12  1  0
 18 11  1  0
 19  5  1  0
 19 24  2  0
 20  3  2  0
 20 10  1  0
 21 17  1  0
 22  7  1  0
 24 20  1  0
 26  4  1  0
 26 21  1  0
  1 27  1  0
  1 28  1  0
  3 29  1  0
  4 30  1  0
  4 31  1  0
  5 32  1  0
  6 33  1  0
  6 34  1  0
  7 35  1  0
  7 36  1  0
  8 37  1  6
  9 38  1  0
  9 39  1  0
 11 40  1  0
 11 41  1  0
 12 42  1  0
 12 43  1  0
 14 44  1  0
 14 45  1  0
 15 46  1  0
 15 47  1  0
 16 48  1  0
 16 49  1  0
 17 50  1  0
 18 51  1  6
 19 52  1  0
 21 53  1  0
 21 54  1  0
 22 55  1  0
 22 56  1  0
 24 57  1  0
 25 58  1  0
 25 59  1  0
 25 60  1  0
 26 61  1  0
 26 62  1  0
M  CHG  1  14   1
M  END
>  <mol_id>  (32) 
2026-09-18-6fnk-s0-n100-0032

>  <rmsd_to_ref>  (32) 


$$$$

     RDKit          3D

 74 75  0  0  0  0  0  0  0  0999 V2000
    1.8060   23.4551   30.6311 C   0  0  0  0  0  0  0  0  0  0  0  0
    2.9435   22.4780   43.1569 C   0  0  0  0  0  0  0  0  0  0  0  0
    2.0610   22.7276   35.4833 C   0  0  0  0  0  0  0  0  0  0  0  0
    3.5773   24.3098   33.8859 O   0  0  0  0  0  0  0  0  0  0  0  0
    1.8448   13.6651   39.2137 C   0  0  0  0  0  0  0  0  0  0  0  0
    1.7321   21.6948   43.7807 C   0  0  0  0  0  0  0  0  0  0  0  0
    0.9629   21.3778   40.0855 C   0  0  1  0  0  0  0  0  0  0  0  0
    3.2272   14.2662   37.2656 N   0  0  0  0  0  0  0  0  0  0  0  0
    2.3184   23.9586   33.2476 C   0  0  2  0  0  0  0  0  0  0  0  0
   -0.0078   13.3691   40.5015 N   0  0  0  0  0  0  0  0  0  0  0  0
    1.6195   25.1060   32.4455 C   0  0  1  0  0  0  0  0  0  0  0  0
    1.0347   17.5667   38.5264 S   0  0  0  0  0  0  0  0  0  0  0  0
    1.0211   11.1423   39.9077 C   0  0  0  0  0  0  0  0  0  0  0  0
    3.1338   13.3325   38.4193 C   0  0  0  0  0  0  0  0  0  0  0  0
    2.8486   22.2543   41.6035 C   0  0  0  0  0  0  0  0  0  0  0  0
    1.4778   18.8156   39.6564 C   0  0  0  0  0  0  0  0  0  0  0  0
    1.8495   16.2563   39.2201 C   0  0  0  0  0  0  0  0  0  0  0  0
    1.1424   22.7144   36.7501 C   0  0  0  0  0  0  0  0  0  0  0  0
    1.2335   14.8498   39.3888 N   0  0  0  0  0  0  0  0  0  0  0  0
    1.0342   12.6221   39.7724 C   0  0  0  0  0  0  0  0  0  0  0  0
    1.8843   24.8483   30.9848 C   0  0  0  0  0  0  0  0  0  0  0  0
    1.5469   21.6026   37.6391 C   0  0  0  0  0  0  0  0  0  0  0  0
    0.7993   21.3157   42.6531 C   0  0  0  0  0  0  0  0  0  0  0  0
    0.0971   25.4027   32.7004 C   0  0  0  0  0  0  0  0  0  0  0  0
    1.7838   22.0496   39.0431 C   0  0  0  0  0  0  0  0  0  0  0  0
    0.1863   14.7832   40.3589 O   0  0  0  0  0  0  0  0  0  0  0  0
    0.4351   19.9223   39.8649 C   0  0  0  0  0  0  0  0  0  0  0  0
    1.3852   23.2963   34.2805 C   0  0  0  0  0  0  0  0  0  0  0  0
    1.6017   21.4880   41.4048 N   0  0  0  0  0  0  0  0  0  0  0  0
    1.4435   22.8774   31.4942 H   0  0  0  0  0  0  0  0  0  0  0  0
    1.1110   23.3294   29.7877 H   0  0  0  0  0  0  0  0  0  0  0  0
    2.8037   23.0939   30.3410 H   0  0  0  0  0  0  0  0  0  0  0  0
    2.8691   23.5495   43.3942 H   0  0  0  0  0  0  0  0  0  0  0  0
    3.9037   22.1216   43.5578 H   0  0  0  0  0  0  0  0  0  0  0  0
    2.9531   23.3324   35.7032 H   0  0  0  0  0  0  0  0  0  0  0  0
    2.3200   21.6836   35.2530 H   0  0  0  0  0  0  0  0  0  0  0  0
    3.4539   24.3340   34.8679 H   0  0  0  0  0  0  0  0  0  0  0  0
    2.0936   20.7884   44.2884 H   0  0  0  0  0  0  0  0  0  0  0  0
    1.2089   22.3197   44.5194 H   0  0  0  0  0  0  0  0  0  0  0  0
    0.0315   21.9576   40.0059 H   0  0  0  0  0  0  0  0  0  0  0  0
    2.8435   15.1835   37.5344 H   0  0  0  0  0  0  0  0  0  0  0  0
    4.2138   14.3740   36.9902 H   0  0  0  0  0  0  0  0  0  0  0  0
    2.6889   13.8877   36.4732 H   0  0  0  0  0  0  0  0  0  0  0  0
    2.5659   23.2355   32.4565 H   0  0  0  0  0  0  0  0  0  0  0  0
   -0.7708   12.9346   41.0397 H   0  0  0  0  0  0  0  0  0  0  0  0
    2.0687   26.0344   32.8280 H   0  0  0  0  0  0  0  0  0  0  0  0
    0.6915   10.8697   40.9211 H   0  0  0  0  0  0  0  0  0  0  0  0
    0.3287   10.7126   39.1689 H   0  0  0  0  0  0  0  0  0  0  0  0
    2.0336   10.7492   39.7334 H   0  0  0  0  0  0  0  0  0  0  0  0
    3.0889   12.2955   38.0554 H   0  0  0  0  0  0  0  0  0  0  0  0
    4.0162   13.4420   39.0670 H   0  0  0  0  0  0  0  0  0  0  0  0
    3.7159   21.6828   41.2412 H   0  0  0  0  0  0  0  0  0  0  0  0
    2.8438   23.2038   41.0482 H   0  0  0  0  0  0  0  0  0  0  0  0
    1.6653   18.3397   40.6302 H   0  0  0  0  0  0  0  0  0  0  0  0
    2.3604   19.3112   39.2259 H   0  0  0  0  0  0  0  0  0  0  0  0
    2.7566   16.1143   38.6144 H   0  0  0  0  0  0  0  0  0  0  0  0
    1.9180   16.5827   40.2683 H   0  0  0  0  0  0  0  0  0  0  0  0
    1.2439   23.6691   37.2870 H   0  0  0  0  0  0  0  0  0  0  0  0
    0.0951   22.5768   36.4432 H   0  0  0  0  0  0  0  0  0  0  0  0
    2.8930   25.2144   30.7426 H   0  0  0  0  0  0  0  0  0  0  0  0
    1.1053   25.3747   30.4138 H   0  0  0  0  0  0  0  0  0  0  0  0
    0.7502   20.8442   37.6402 H   0  0  0  0  0  0  0  0  0  0  0  0
    2.4934   21.1949   37.2544 H   0  0  0  0  0  0  0  0  0  0  0  0
    0.4707   20.2713   42.7592 H   0  0  0  0  0  0  0  0  0  0  0  0
   -0.1095   21.9355   42.6460 H   0  0  0  0  0  0  0  0  0  0  0  0
   -0.1126   25.3431   33.7786 H   0  0  0  0  0  0  0  0  0  0  0  0
   -0.1460   26.4113   32.3348 H   0  0  0  0  0  0  0  0  0  0  0  0
   -0.5153   24.6615   32.1661 H   0  0  0  0  0  0  0  0  0  0  0  0
    1.5751   23.1285   39.0931 H   0  0  0  0  0  0  0  0  0  0  0  0
    2.8271   21.7836   39.2683 H   0  0  0  0  0  0  0  0  0  0  0  0
   -0.2119   19.9376   38.9754 H   0  0  0  0  0  0  0  0  0  0  0  0
   -0.0678   19.6602   40.8074 H   0  0  0  0  0  0  0  0  0  0  0  0
    0.6655   24.0547   34.6227 H   0  0  0  0  0  0  0  0  0  0  0  0
    0.9187   22.4443   33.7643 H   0  0  0  0  0  0  0  0  0  0  0  0
  1 21  1  0
  2  6  1  0
  3 18  1  0
  5 19  1  0
  5 20  2  0
  7 25  1  0
  7 29  1  0
  8 14  1  0
  9  4  1  0
  9 28  1  0
 11  9  1  0
 11 24  1  0
 12 17  1  0
 12 16  1  0
 14  5  1  0
 15 29  1  0
 15  2  1  0
 16 27  1  0
 17 19  1  0
 18 22  1  0
 19 26  1  0
 20 13  1  0
 20 10  1  0
 21 11  1  0
 22 25  1  0
 23  6  1  0
 26 10  1  0
 27  7  1  0
 28  3  1  0
 29 23  1  0
  1 30  1  0
  1 31  1  0
  1 32  1  0
  2 33  1  0
  2 34  1  0
  3 35  1  0
  3 36  1  0
  4 37  1  0
  6 38  1  0
  6 39  1  0
  7 40  1  1
  8 41  1  0
  8 42  1  0
  8 43  1  0
  9 44  1  6
 10 45  1  0
 11 46  1  1
 13 47  1  0
 13 48  1  0
 13 49  1  0
 14 50  1  0
 14 51  1  0
 15 52  1  0
 15 53  1  0
 16 54  1  0
 16 55  1  0
 17 56  1  0
 17 57  1  0
 18 58  1  0
 18 59  1  0
 21 60  1  0
 21 61  1  0
 22 62  1  0
 22 63  1  0
 23 64  1  0
 23 65  1  0
 24 66  1  0
 24 67  1  0
 24 68  1  0
 25 69  1  0
 25 70  1  0
 27 71  1  0
 27 72  1  0
 28 73  1  0
 28 74  1  0
M  CHG  1   8   1
M  END
>  <mol_id>  (33) 
2026-09-18-6fnk-s0-n100-0033

>  <rmsd_to_ref>  (33) 


$$$$

     RDKit          3D

 60 63  0  0  0  0  0  0  0  0999 V2000
    3.9460   23.9570   34.5820 C   0  0  2  0  0  0  0  0  0  0  0  0
   -1.7060   12.7700   40.4850 O   0  0  0  0  0  0  0  0  0  0  0  0
   -1.1780   14.8300   41.5020 C   0  0  2  0  0  0  0  0  0  0  0  0
    1.8900   18.2020   38.2620 C   0  0  0  0  0  0  0  0  0  0  0  0
    3.2610   23.1310   36.0060 S   0  0  1  0  0  4  0  0  0  0  0  0
    4.8460   25.1230   32.7060 C   0  0  2  0  0  0  0  0  0  0  0  0
   -1.7440   14.6470   43.7470 O   0  0  0  0  0  0  0  0  0  0  0  0
    0.3210   16.5940   40.2260 C   0  0  0  0  0  0  0  0  0  0  0  0
   -2.3030   12.9510   42.7610 O   0  0  0  0  0  0  0  0  0  0  0  0
    4.3010   21.9900   38.3670 C   0  0  0  0  0  0  0  0  0  0  0  0
    4.0830   21.1270   39.5460 C   0  0  2  0  0  0  0  0  0  0  0  0
    5.1530   21.4830   40.8720 Cl  0  0  0  0  0  0  0  0  0  0  0  0
    3.1450   19.9840   39.5600 C   0  0  0  0  0  0  0  0  0  0  0  0
    5.2330   25.7590   33.7690 C   0  0  0  0  0  0  0  0  0  0  0  0
   -1.8010   14.2080   42.7210 C   0  0  0  0  0  0  0  0  0  0  0  0
    4.8770   24.9530   35.0620 C   0  0  0  0  0  0  0  0  0  0  0  0
    3.3430   25.5460   32.3370 C   0  0  1  0  0  0  0  0  0  0  0  0
   -0.8790   14.7120   39.0420 C   0  0  0  0  0  0  0  0  0  0  0  0
   -1.1580   14.0960   40.4120 C   0  0  2  0  0  0  0  0  0  0  0  0
    1.4090   17.4600   39.2950 C   0  0  0  0  0  0  0  0  0  0  0  0
    1.6620   22.8200   35.1950 C   0  0  0  0  0  0  0  0  0  0  0  0
    3.1670   21.8600   37.3670 C   0  0  2  0  0  0  0  0  0  0  0  0
   -0.2810   16.0580   41.5340 C   0  0  0  0  0  0  0  0  0  0  0  0
   -0.2820   15.8030   39.0900 N   0  0  0  0  0  0  0  0  0  0  0  0
    2.7910   20.3650   37.0400 C   0  0  0  0  0  0  0  0  0  0  0  0
    3.2740   24.2980   33.0570 C   0  0  2  0  0  0  0  0  0  0  0  0
    3.1150   26.9220   31.4120 C   0  0  0  0  0  0  0  0  0  0  0  0
    2.5800   19.5070   38.3010 C   0  0  0  0  0  0  0  0  0  0  0  0
    4.2404   23.0281   34.0717 H   0  0  0  0  0  0  0  0  0  0  0  0
   -1.8138   12.5092   41.4339 H   0  0  0  0  0  0  0  0  0  0  0  0
   -2.0100   15.5494   41.4917 H   0  0  0  0  0  0  0  0  0  0  0  0
    1.7453   17.7712   37.2603 H   0  0  0  0  0  0  0  0  0  0  0  0
    4.1451   23.7626   36.8405 H   0  0  0  0  0  0  0  0  0  0  0  0
    5.8075   24.9330   32.2065 H   0  0  0  0  0  0  0  0  0  0  0  0
    4.3681   23.0370   38.6976 H   0  0  0  0  0  0  0  0  0  0  0  0
    5.2332   21.6748   37.8755 H   0  0  0  0  0  0  0  0  0  0  0  0
    3.2760   21.7934   39.8846 H   0  0  0  0  0  0  0  0  0  0  0  0
    2.8756   19.4980   40.5093 H   0  0  0  0  0  0  0  0  0  0  0  0
    6.3223   25.9057   33.7244 H   0  0  0  0  0  0  0  0  0  0  0  0
    4.7160   26.7293   33.8060 H   0  0  0  0  0  0  0  0  0  0  0  0
    4.4069   25.6024   35.8151 H   0  0  0  0  0  0  0  0  0  0  0  0
    5.7581   24.5183   35.5566 H   0  0  0  0  0  0  0  0  0  0  0  0
    3.3971   24.9392   31.4211 H   0  0  0  0  0  0  0  0  0  0  0  0
   -1.8401   14.8658   38.5296 H   0  0  0  0  0  0  0  0  0  0  0  0
   -0.2208   14.0122   38.5062 H   0  0  0  0  0  0  0  0  0  0  0  0
   -0.0787   13.9009   40.4953 H   0  0  0  0  0  0  0  0  0  0  0  0
    0.8861   22.6691   35.9600 H   0  0  0  0  0  0  0  0  0  0  0  0
    1.3952   23.6831   34.5674 H   0  0  0  0  0  0  0  0  0  0  0  0
    1.7381   21.9198   34.5674 H   0  0  0  0  0  0  0  0  0  0  0  0
    2.2214   22.1667   37.8380 H   0  0  0  0  0  0  0  0  0  0  0  0
   -0.8739   16.8751   41.9709 H   0  0  0  0  0  0  0  0  0  0  0  0
    0.5984   15.7187   42.1011 H   0  0  0  0  0  0  0  0  0  0  0  0
    0.5108   15.6689   38.4463 H   0  0  0  0  0  0  0  0  0  0  0  0
   -1.1210   16.3907   38.9819 H   0  0  0  0  0  0  0  0  0  0  0  0
    1.8614   20.3581   36.4520 H   0  0  0  0  0  0  0  0  0  0  0  0
    3.6332   19.9287   36.4828 H   0  0  0  0  0  0  0  0  0  0  0  0
    2.4434   23.5884   32.9282 H   0  0  0  0  0  0  0  0  0  0  0  0
    2.9713   27.7889   32.0736 H   0  0  0  0  0  0  0  0  0  0  0  0
    3.9980   27.0875   30.7772 H   0  0  0  0  0  0  0  0  0  0  0  0
    2.2258   26.7939   30.7772 H   0  0  0  0  0  0  0  0  0  0  0  0
  1 16  1  0
  1  5  1  0
  3 23  1  0
  3 15  1  0
  4 28  1  0
  4 20  2  0
  5 21  1  0
  6 26  1  0
  6 14  1  0
  8 23  1  0
 10 11  1  0
 11 13  1  0
 11 12  1  0
 14 16  1  0
 15  9  2  0
 15  7  1  0
 17 27  1  0
 17  6  1  0
 17 26  1  0
 18 24  1  0
 18 19  1  0
 19  2  1  0
 19  3  1  0
 20  8  2  0
 22  5  1  0
 22 10  1  0
 24  8  1  0
 25 22  1  0
 25 28  1  0
 26  1  1  0
 28 13  2  0
  1 29  1  6
  2 30  1  0
  3 31  1  6
  4 32  1  0
  5 33  1  0
  6 34  1  6
 10 35  1  0
 10 36  1  0
 11 37  1  1
 13 38  1  0
 14 39  1  0
 14 40  1  0
 16 41  1  0
 16 42  1  0
 17 43  1  1
 18 44  1  0
 18 45  1  0
 19 46  1  1
 21 47  1  0
 21 48  1  0
 21 49  1  0
 22 50  1  1
 23 51  1  0
 23 52  1  0
 24 53  1  0
 24 54  1  0
 25 55  1  0
 25 56  1  0
 26 57  1  6
 27 58  1  0
 27 59  1  0
 27 60  1  0
M  CHG  2   7  -1  24   1
M  END
>  <mol_id>  (34) 
2026-09-18-6fnk-s0-n100-0034

>  <rmsd_to_ref>  (34) 


$$$$

     RDKit          3D

 63 62  0  0  0  0  0  0  0  0999 V2000
    2.8760   20.2340   38.6920 N   0  0  0  0  0  0  0  0  0  0  0  0
    0.8690   26.9040   33.3690 C   0  0  2  0  0  0  0  0  0  0  0  0
    2.2960   23.3800   34.6020 C   0  0  0  0  0  0  0  0  0  0  0  0
   -1.2910   15.0830   40.5300 O   0  0  0  0  0  0  0  0  0  0  0  0
    2.3010   19.0230   38.3090 C   0  0  0  0  0  0  0  0  0  0  0  0
   -0.3390   15.9520   38.4680 C   0  0  0  0  0  0  0  0  0  0  0  0
    2.1680   16.7210   38.3790 O   0  0  0  0  0  0  0  0  0  0  0  0
    1.9210   25.0070   32.4190 S   0  0  0  0  0  0  0  0  0  0  0  0
    3.7710   21.9030   37.3090 C   0  0  0  0  0  0  0  0  0  0  0  0
    0.8820   25.6550   33.9600 C   0  0  0  0  0  0  0  0  0  0  0  0
    1.9560   23.1820   36.0080 C   0  0  0  0  0  0  0  0  0  0  0  0
    2.5970   21.7720   36.4050 C   0  0  2  0  0  0  0  0  0  0  0  0
   -2.6250   15.5910   38.8950 O   0  0  0  0  0  0  0  0  0  0  0  0
   -1.4130   15.4880   39.3640 C   0  0  0  0  0  0  0  0  0  0  0  0
    4.3180   20.2460   43.2890 C   0  0  0  0  0  0  0  0  0  0  0  0
   -0.9450   16.8410   37.5100 N   0  0  0  0  0  0  0  0  0  0  0  0
    0.1160   27.4560   34.1040 C   0  0  0  0  0  0  0  0  0  0  0  0
    4.2480   20.9190   42.1690 C   0  0  0  0  0  0  0  0  0  0  0  0
    0.8790   25.6490   35.2140 F   0  0  0  0  0  0  0  0  0  0  0  0
    3.5700   20.2380   41.1980 C   0  0  0  0  0  0  0  0  0  0  0  0
    1.5310   26.7870   31.9990 C   0  0  0  0  0  0  0  0  0  0  0  0
    0.6760   27.9330   35.2120 C   0  0  0  0  0  0  0  0  0  0  0  0
    3.4300   20.7480   39.7590 C   0  0  0  0  0  0  0  0  0  0  0  0
    3.1390   19.0600   41.8150 C   0  0  0  0  0  0  0  0  0  0  0  0
    2.1430   17.9050   39.2560 C   0  0  0  0  0  0  0  0  0  0  0  0
    3.6430   19.0580   43.0550 C   0  0  0  0  0  0  0  0  0  0  0  0
    2.4760   21.3420   37.6760 C   0  0  1  0  0  0  0  0  0  0  0  0
    1.8820   18.9030   37.1260 O   0  0  0  0  0  0  0  0  0  0  0  0
    1.2368   27.9002   33.0823 H   0  0  0  0  0  0  0  0  0  0  0  0
    3.2444   23.9323   34.5284 H   0  0  0  0  0  0  0  0  0  0  0  0
    2.4018   22.4023   34.1092 H   0  0  0  0  0  0  0  0  0  0  0  0
    1.4979   23.9546   34.1092 H   0  0  0  0  0  0  0  0  0  0  0  0
    0.4302   16.4860   39.0452 H   0  0  0  0  0  0  0  0  0  0  0  0
    0.1461   15.1031   37.9640 H   0  0  0  0  0  0  0  0  0  0  0  0
    2.1853   15.9005   38.9327 H   0  0  0  0  0  0  0  0  0  0  0  0
    1.9542   24.8557   33.7802 H   0  0  0  0  0  0  0  0  0  0  0  0
    4.0872   22.8872   37.6851 H   0  0  0  0  0  0  0  0  0  0  0  0
    4.8235   21.5835   37.3197 H   0  0  0  0  0  0  0  0  0  0  0  0
   -0.0091   25.1089   33.6168 H   0  0  0  0  0  0  0  0  0  0  0  0
    1.8321   25.1895   33.6591 H   0  0  0  0  0  0  0  0  0  0  0  0
    2.3837   23.9865   36.6244 H   0  0  0  0  0  0  0  0  0  0  0  0
    0.8684   23.1978   36.1722 H   0  0  0  0  0  0  0  0  0  0  0  0
    2.3761   21.2905   35.4410 H   0  0  0  0  0  0  0  0  0  0  0  0
    4.8101   20.5580   44.2220 H   0  0  0  0  0  0  0  0  0  0  0  0
   -1.4532   17.5865   38.0069 H   0  0  0  0  0  0  0  0  0  0  0  0
   -0.2127   17.2598   36.9191 H   0  0  0  0  0  0  0  0  0  0  0  0
   -1.6025   16.3124   36.9191 H   0  0  0  0  0  0  0  0  0  0  0  0
   -0.3403   28.2965   33.5605 H   0  0  0  0  0  0  0  0  0  0  0  0
   -0.6176   26.7015   34.4244 H   0  0  0  0  0  0  0  0  0  0  0  0
    4.6849   21.9183   42.0258 H   0  0  0  0  0  0  0  0  0  0  0  0
    0.8467   26.9169   31.1476 H   0  0  0  0  0  0  0  0  0  0  0  0
    2.3152   27.4878   31.6766 H   0  0  0  0  0  0  0  0  0  0  0  0
    0.1726   27.5043   36.0911 H   0  0  0  0  0  0  0  0  0  0  0  0
    1.7417   27.6609   35.2307 H   0  0  0  0  0  0  0  0  0  0  0  0
    0.5769   29.0284   35.2307 H   0  0  0  0  0  0  0  0  0  0  0  0
    4.4699   20.9259   39.4476 H   0  0  0  0  0  0  0  0  0  0  0  0
    2.6352   21.4794   39.9671 H   0  0  0  0  0  0  0  0  0  0  0  0
    2.5050   18.2813   41.3660 H   0  0  0  0  0  0  0  0  0  0  0  0
    2.9718   17.8791   39.9788 H   0  0  0  0  0  0  0  0  0  0  0  0
    1.2275   17.9763   39.8617 H   0  0  0  0  0  0  0  0  0  0  0  0
    2.8241   18.9539   43.7820 H   0  0  0  0  0  0  0  0  0  0  0  0
    4.3423   18.2156   43.1617 H   0  0  0  0  0  0  0  0  0  0  0  0
    1.4687   21.3488   38.1180 H   0  0  0  0  0  0  0  0  0  0  0  0
  1 23  1  0
  2 21  1  0
  2 10  1  0
  2 17  1  0
  3 11  1  0
  5  1  1  0
  5 25  1  0
  6 14  1  0
  7 25  1  0
  9 27  1  0
 10 19  1  0
 12 11  1  0
 12  9  1  0
 12 27  1  0
 13 14  2  0
 14  4  1  0
 16  6  1  0
 17 22  1  0
 18 15  2  0
 20 24  2  0
 20 18  1  0
 21  8  1  0
 23 20  1  0
 24 26  1  0
 26 15  1  0
 27  1  1  0
 28  5  2  0
  2 29  1  1
  3 30  1  0
  3 31  1  0
  3 32  1  0
  6 33  1  0
  6 34  1  0
  7 35  1  0
  8 36  1  0
  9 37  1  0
  9 38  1  0
 10 39  1  0
 10 40  1  0
 11 41  1  0
 11 42  1  0
 12 43  1  6
 15 44  1  0
 16 45  1  0
 16 46  1  0
 16 47  1  0
 17 48  1  0
 17 49  1  0
 18 50  1  0
 21 51  1  0
 21 52  1  0
 22 53  1  0
 22 54  1  0
 22 55  1  0
 23 56  1  0
 23 57  1  0
 24 58  1  0
 25 59  1  0
 25 60  1  0
 26 61  1  0
 26 62  1  0
 27 63  1  1
M  CHG  2   4  -1  16   1
M  END
>  <mol_id>  (35) 
2026-09-18-6fnk-s0-n100-0035

>  <rmsd_to_ref>  (35) 


$$$$

     RDKit          3D

 48 48  0  0  0  0  0  0  0  0999 V2000
    6.0836   21.8510   42.5004 O   0  0  0  0  0  0  0  0  0  0  0  0
    2.1281   19.7773   40.7729 C   0  0  0  0  0  0  0  0  0  0  0  0
    5.1714   20.1474   43.5683 O   0  0  0  0  0  0  0  0  0  0  0  0
    2.0633   23.8669   35.1167 C   0  0  1  0  0  0  0  0  0  0  0  0
    3.3618   21.9764   38.0890 N   0  0  0  0  0  0  0  0  0  0  0  0
    4.1422   20.7911   41.5413 C   0  0  0  0  0  0  0  0  0  0  0  0
   -1.1419   15.9796   38.6440 N   0  0  0  0  0  0  0  0  0  0  0  0
    3.0412   19.9522   41.7881 C   0  0  0  0  0  0  0  0  0  0  0  0
    0.8524   14.6075   40.4668 P   0  0  0  0  0  5  0  0  0  0  0  0
    2.5942   22.5070   37.0571 C   0  0  2  0  0  0  0  0  0  0  0  0
    1.0907   16.0875   39.6064 C   0  0  0  0  0  0  0  0  0  0  0  0
    1.1426   25.6423   33.8225 N   0  0  0  0  0  0  0  0  0  0  0  0
    1.8721   14.5299   41.5555 O   0  0  0  0  0  0  0  0  0  0  0  0
   -0.5359   14.5387   40.8546 O   0  0  0  0  0  0  0  0  0  0  0  0
    3.0129   24.4783   32.9635 N   0  0  0  0  0  0  0  0  0  0  0  0
    1.3929   22.9950   37.1350 C   0  0  0  0  0  0  0  0  0  0  0  0
    1.0240   23.7783   36.0585 C   0  0  0  0  0  0  0  0  0  0  0  0
    5.1490   20.9229   42.5966 N   0  0  0  0  0  0  0  0  0  0  0  0
    1.2607   13.4687   39.4807 O   0  0  0  0  0  0  0  0  0  0  0  0
    2.1458   24.6756   33.9585 C   0  0  0  0  0  0  0  0  0  0  0  0
    2.2199   20.4717   39.5261 C   0  0  0  0  0  0  0  0  0  0  0  0
    3.2749   21.3643   39.3361 C   0  0  0  0  0  0  0  0  0  0  0  0
    0.2909   16.0927   38.3702 C   0  0  0  0  0  0  0  0  0  0  0  0
    4.2443   21.5318   40.3607 C   0  0  0  0  0  0  0  0  0  0  0  0
    3.2198   22.7388   35.4783 S   0  0  0  0  0  0  0  0  0  0  0  0
    1.2950   19.0756   40.9267 H   0  0  0  0  0  0  0  0  0  0  0  0
    1.5028   23.1101   34.5483 H   0  0  0  0  0  0  0  0  0  0  0  0
    4.3565   22.0708   37.8391 H   0  0  0  0  0  0  0  0  0  0  0  0
   -1.2923   15.9033   39.6600 H   0  0  0  0  0  0  0  0  0  0  0  0
   -1.6267   16.8153   38.2869 H   0  0  0  0  0  0  0  0  0  0  0  0
   -1.5154   15.1406   38.1776 H   0  0  0  0  0  0  0  0  0  0  0  0
    2.9137   19.4525   42.7598 H   0  0  0  0  0  0  0  0  0  0  0  0
    3.0124   23.5042   37.2589 H   0  0  0  0  0  0  0  0  0  0  0  0
    0.7823   16.9307   40.2420 H   0  0  0  0  0  0  0  0  0  0  0  0
    2.1549   16.1830   39.3452 H   0  0  0  0  0  0  0  0  0  0  0  0
    1.1377   26.2679   33.0043 H   0  0  0  0  0  0  0  0  0  0  0  0
    0.4092   25.7281   34.5406 H   0  0  0  0  0  0  0  0  0  0  0  0
    1.4154   14.4759   42.4322 H   0  0  0  0  0  0  0  0  0  0  0  0
   -0.6003   14.4725   41.8402 H   0  0  0  0  0  0  0  0  0  0  0  0
    3.0148   25.1094   32.1494 H   0  0  0  0  0  0  0  0  0  0  0  0
    0.6850   22.1563   37.2087 H   0  0  0  0  0  0  0  0  0  0  0  0
    1.3766   23.6491   38.0192 H   0  0  0  0  0  0  0  0  0  0  0  0
    0.7773   24.7884   36.4172 H   0  0  0  0  0  0  0  0  0  0  0  0
    0.1517   23.3161   35.5732 H   0  0  0  0  0  0  0  0  0  0  0  0
    1.4747   20.3056   38.7342 H   0  0  0  0  0  0  0  0  0  0  0  0
    0.6007   15.2437   37.7431 H   0  0  0  0  0  0  0  0  0  0  0  0
    0.4643   17.0503   37.8573 H   0  0  0  0  0  0  0  0  0  0  0  0
    5.0729   22.2424   40.2252 H   0  0  0  0  0  0  0  0  0  0  0  0
  1 18  1  0
  2  8  1  0
  4 20  1  0
  4 25  1  0
  4 17  1  0
  5 22  1  0
  6  8  2  0
  6 18  1  0
  9 14  1  0
  9 13  1  0
 10 16  1  0
 10  5  1  0
 11  9  1  0
 12 20  1  0
 15 20  2  3
 17 16  1  0
 18  3  2  0
 19  9  2  0
 21  2  2  0
 22 21  1  0
 22 24  2  0
 23  7  1  0
 23 11  1  0
 24  6  1  0
 25 10  1  0
  2 26  1  0
  4 27  1  1
  5 28  1  0
  7 29  1  0
  7 30  1  0
  7 31  1  0
  8 32  1  0
 10 33  1  6
 11 34  1  0
 11 35  1  0
 12 36  1  0
 12 37  1  0
 13 38  1  0
 14 39  1  0
 15 40  1  0
 16 41  1  0
 16 42  1  0
 17 43  1  0
 17 44  1  0
 21 45  1  0
 23 46  1  0
 23 47  1  0
 24 48  1  0
M  CHG  3   1  -1   7   1  18   1
M  END
>  <mol_id>  (36) 
2026-09-18-6fnk-s0-n100-0036

>  <rmsd_to_ref>  (36) 


$$$$

     RDKit          3D

 75 78  0  0  0  0  0  0  0  0999 V2000
    1.2376   23.0457   36.9458 C   0  0  1  0  0  0  0  0  0  0  0  0
   -3.8148   15.8968   37.8023 C   0  0  0  0  0  0  0  0  0  0  0  0
   -1.6630   24.3184   35.4778 O   0  0  0  0  0  0  0  0  0  0  0  0
   -0.0722   22.2519   37.0042 C   0  0  0  0  0  0  0  0  0  0  0  0
    0.7166   14.3668   35.0444 F   0  0  0  0  0  0  0  0  0  0  0  0
   -1.6948   16.0040   35.6455 F   0  0  0  0  0  0  0  0  0  0  0  0
    2.1822   24.7983   33.5733 C   0  0  0  0  0  0  0  0  0  0  0  0
   -0.1380   22.0831   35.5622 C   0  0  0  0  0  0  0  0  0  0  0  0
    2.4231   22.1026   37.1675 C   0  0  0  0  0  0  0  0  0  0  0  0
    0.5572   17.4432   44.1462 C   0  0  0  0  0  0  0  0  0  0  0  0
    2.3714   21.4471   39.3061 O   0  0  0  0  0  0  0  0  0  0  0  0
    1.3846   18.2723   42.0059 N   0  0  0  0  0  0  0  0  0  0  0  0
    2.2989   16.9949   38.7711 C   0  0  0  0  0  0  0  0  0  0  0  0
    2.0478   17.7616   40.0132 C   0  0  0  0  0  0  0  0  0  0  0  0
    2.2129   19.0690   40.1111 N   0  0  0  0  0  0  0  0  0  0  0  0
    0.4404   14.9091   36.1589 C   0  0  1  0  0  0  0  0  0  0  0  0
    1.2385   25.5769   32.9941 C   0  0  0  0  0  0  0  0  0  0  0  0
   -0.3713   24.2863   35.2234 C   0  0  0  0  0  0  0  0  0  0  0  0
    0.8196   23.2355   35.4856 C   0  0  1  0  0  0  0  0  0  0  0  0
    1.1958   16.5372   37.8859 C   0  0  1  0  0  0  0  0  0  0  0  0
    3.6465   24.0479   35.3049 O   0  0  0  0  0  0  0  0  0  0  0  0
    0.0415   26.3776   33.5496 C   0  0  0  0  0  0  0  0  0  0  0  0
    0.7470   19.9732   43.3909 C   0  0  0  0  0  0  0  0  0  0  0  0
    2.4568   21.0278   38.1679 C   0  0  0  0  0  0  0  0  0  0  0  0
    0.8607   18.5467   43.2451 C   0  0  0  0  0  0  0  0  0  0  0  0
    1.7126   17.1352   41.1838 N   0  0  0  0  0  0  0  0  0  0  0  0
    2.5508   19.7474   37.6298 O   0  0  0  0  0  0  0  0  0  0  0  0
    2.2726   24.2853   35.0503 S   0  0  0  0  0  4  0  0  0  0  0  0
    1.5446   15.4231   36.8792 C   0  0  0  0  0  0  0  0  0  0  0  0
   -1.1768   15.3098   37.9142 C   0  0  2  0  0  0  0  0  0  0  0  0
    1.2163   20.5794   42.1946 C   0  0  0  0  0  0  0  0  0  0  0  0
    0.3232   27.6566   34.1884 C   0  0  0  0  0  0  0  0  0  0  0  0
   -1.2579   26.1215   32.8175 C   0  0  0  0  0  0  0  0  0  0  0  0
   -0.1765   16.3557   38.5544 C   0  0  0  0  0  0  0  0  0  0  0  0
   -0.0881   25.3190   34.6452 O   0  0  0  0  0  0  0  0  0  0  0  0
    1.7072   19.4932   41.3424 C   0  0  0  0  0  0  0  0  0  0  0  0
    0.1639   20.7463   44.5795 C   0  0  0  0  0  0  0  0  0  0  0  0
   -0.8720   15.1762   36.4858 C   0  0  1  0  0  0  0  0  0  0  0  0
   -2.7353   14.6824   37.8991 S   0  0  0  0  0  0  0  0  0  0  0  0
    1.5323   23.8880   37.5889 H   0  0  0  0  0  0  0  0  0  0  0  0
   -4.0462   16.2632   38.8133 H   0  0  0  0  0  0  0  0  0  0  0  0
   -3.3917   16.7165   37.2031 H   0  0  0  0  0  0  0  0  0  0  0  0
   -4.7360   15.5313   37.3249 H   0  0  0  0  0  0  0  0  0  0  0  0
    0.0192   21.3011   37.5498 H   0  0  0  0  0  0  0  0  0  0  0  0
   -0.9346   22.6988   37.5204 H   0  0  0  0  0  0  0  0  0  0  0  0
    3.0023   24.4806   32.9126 H   0  0  0  0  0  0  0  0  0  0  0  0
    0.2563   21.1266   35.1886 H   0  0  0  0  0  0  0  0  0  0  0  0
   -1.0906   22.0697   35.0124 H   0  0  0  0  0  0  0  0  0  0  0  0
    2.5940   21.6100   36.1988 H   0  0  0  0  0  0  0  0  0  0  0  0
    3.1602   22.7994   37.5931 H   0  0  0  0  0  0  0  0  0  0  0  0
    0.6735   17.7778   45.1877 H   0  0  0  0  0  0  0  0  0  0  0  0
   -0.4779   17.1095   43.9815 H   0  0  0  0  0  0  0  0  0  0  0  0
    1.2470   16.6092   43.9498 H   0  0  0  0  0  0  0  0  0  0  0  0
    2.9510   17.6247   38.1482 H   0  0  0  0  0  0  0  0  0  0  0  0
    2.6865   16.0434   39.1641 H   0  0  0  0  0  0  0  0  0  0  0  0
    0.1758   14.1587   36.9184 H   0  0  0  0  0  0  0  0  0  0  0  0
    1.3470   25.6551   31.9023 H   0  0  0  0  0  0  0  0  0  0  0  0
    1.0692   17.4291   37.2545 H   0  0  0  0  0  0  0  0  0  0  0  0
    1.6987   16.1310   41.4128 H   0  0  0  0  0  0  0  0  0  0  0  0
    2.0082   14.5937   37.4333 H   0  0  0  0  0  0  0  0  0  0  0  0
    2.2165   15.8762   36.1354 H   0  0  0  0  0  0  0  0  0  0  0  0
   -1.0205   14.9596   38.9452 H   0  0  0  0  0  0  0  0  0  0  0  0
    1.2121   21.6530   41.9552 H   0  0  0  0  0  0  0  0  0  0  0  0
    0.3221   27.5288   35.2810 H   0  0  0  0  0  0  0  0  0  0  0  0
    1.3090   28.0199   33.8627 H   0  0  0  0  0  0  0  0  0  0  0  0
   -0.4490   28.3865   33.9038 H   0  0  0  0  0  0  0  0  0  0  0  0
   -2.0766   26.0263   33.5460 H   0  0  0  0  0  0  0  0  0  0  0  0
   -1.4674   26.9607   32.1379 H   0  0  0  0  0  0  0  0  0  0  0  0
   -1.1742   25.1913   32.2364 H   0  0  0  0  0  0  0  0  0  0  0  0
    0.0036   16.0436   39.5937 H   0  0  0  0  0  0  0  0  0  0  0  0
   -0.6757   17.3280   38.4303 H   0  0  0  0  0  0  0  0  0  0  0  0
    0.5949   20.3602   45.5150 H   0  0  0  0  0  0  0  0  0  0  0  0
    0.4071   21.8142   44.4771 H   0  0  0  0  0  0  0  0  0  0  0  0
   -0.9286   20.6193   44.5991 H   0  0  0  0  0  0  0  0  0  0  0  0
   -1.2317   14.1869   36.1666 H   0  0  0  0  0  0  0  0  0  0  0  0
  1  9  1  0
  2 39  1  0
  4  1  1  0
 28  7  1  6
  8  4  1  0
  9 24  1  0
 12 25  1  0
 13 14  1  0
 14 15  2  0
 14 26  1  0
 15 36  1  0
 16  5  1  0
 16 38  1  0
 16 29  1  0
 17 22  1  0
 17  7  2  0
 18  3  2  0
 18 19  1  0
 19  8  1  6
 19  1  1  0
 20 34  1  0
 20 13  1  0
 22 32  1  0
 22 35  1  0
 23 37  1  0
 24 11  1  0
 25 23  2  0
 25 10  1  0
 26 12  1  0
 27 24  2  0
 28 21  2  0
 28 19  1  0
 29 20  1  0
 30 39  1  0
 30 34  1  0
 31 23  1  0
 33 22  1  0
 35 18  1  0
 36 12  1  0
 36 31  2  0
 38  6  1  0
 38 30  1  0
  1 40  1  1
  2 41  1  0
  2 42  1  0
  2 43  1  0
  4 44  1  0
  4 45  1  0
  7 46  1  0
  8 47  1  0
  8 48  1  0
  9 49  1  0
  9 50  1  0
 10 51  1  0
 10 52  1  0
 10 53  1  0
 13 54  1  0
 13 55  1  0
 16 56  1  1
 17 57  1  0
 20 58  1  6
 26 59  1  0
 29 60  1  0
 29 61  1  0
 30 62  1  1
 31 63  1  0
 32 64  1  0
 32 65  1  0
 32 66  1  0
 33 67  1  0
 33 68  1  0
 33 69  1  0
 34 70  1  0
 34 71  1  0
 37 72  1  0
 37 73  1  0
 37 74  1  0
 38 75  1  6
M  CHG  1  11  -1
M  END
>  <mol_id>  (37) 
2026-09-18-6fnk-s0-n100-0037

>  <rmsd_to_ref>  (37) 


$$$$

     RDKit          3D

 66 66  0  0  0  0  0  0  0  0999 V2000
   -2.1425   12.1566   42.7741 C   0  0  0  0  0  0  0  0  0  0  0  0
   -1.5804   13.2874   40.6021 C   0  0  0  0  0  0  0  0  0  0  0  0
    1.8765   26.7377   35.1702 C   0  0  0  0  0  0  0  0  0  0  0  0
    3.4469   22.2429   38.9218 C   0  0  0  0  0  0  0  0  0  0  0  0
    6.0620   20.8063   40.2777 C   0  0  0  0  0  0  0  0  0  0  0  0
   -1.8629   13.4443   43.4753 C   0  0  0  0  0  0  0  0  0  0  0  0
    1.0533   26.9535   33.0510 C   0  0  0  0  0  0  0  0  0  0  0  0
    3.3082   20.5051   41.2148 C   0  0  0  0  0  0  0  0  0  0  0  0
    2.9928   20.7139   38.6847 C   0  0  0  0  0  0  0  0  0  0  0  0
    2.6675   19.8920   39.9493 C   0  0  0  0  0  0  0  0  0  0  0  0
    1.3963   25.5887   35.8348 C   0  0  0  0  0  0  0  0  0  0  0  0
    1.9302   18.6276   39.9855 C   0  0  0  0  0  0  0  0  0  0  0  0
    3.6622   24.4480   36.5145 C   0  0  0  0  0  0  0  0  0  0  0  0
   -1.9313   12.0488   41.3665 C   0  0  0  0  0  0  0  0  0  0  0  0
    5.2328   21.1497   42.4818 C   0  0  0  0  0  0  0  0  0  0  0  0
    4.8573   20.4361   41.1722 C   0  0  0  0  0  0  0  0  0  0  0  0
    3.8832   24.6143   34.8696 C   0  0  0  0  0  0  0  0  0  0  0  0
   -0.8142   15.7396   40.3258 C   0  0  0  0  0  0  0  0  0  0  0  0
   -2.1182   13.4246   44.9502 N   0  0  0  0  0  0  0  0  0  0  0  0
    1.1524   27.3354   31.6426 C   0  0  0  0  0  0  0  0  0  0  0  0
   -1.3876   14.5671   42.7106 C   0  0  0  0  0  0  0  0  0  0  0  0
    3.2786   25.3827   33.6464 C   0  0  0  0  0  0  0  0  0  0  0  0
    2.2255   24.8187   36.8368 C   0  0  0  0  0  0  0  0  0  0  0  0
    0.3886   16.7700   41.2279 C   0  0  0  0  0  0  0  0  0  0  0  0
    2.2027   26.4584   33.6192 N   0  0  0  0  0  0  0  0  0  0  0  0
    1.1103   17.6677   40.1447 C   0  0  0  0  0  0  0  0  0  0  0  0
   -1.2640   16.0000   39.2508 O   0  0  0  0  0  0  0  0  0  0  0  0
   -1.2669   14.5466   41.2265 C   0  0  0  0  0  0  0  0  0  0  0  0
   -2.5115   11.2900   43.3425 H   0  0  0  0  0  0  0  0  0  0  0  0
   -1.5612   13.2326   39.5036 H   0  0  0  0  0  0  0  0  0  0  0  0
    1.1133   27.5274   35.2340 H   0  0  0  0  0  0  0  0  0  0  0  0
    2.8132   27.0417   35.6604 H   0  0  0  0  0  0  0  0  0  0  0  0
    3.4997   22.4465   40.0015 H   0  0  0  0  0  0  0  0  0  0  0  0
    4.4361   22.4059   38.4692 H   0  0  0  0  0  0  0  0  0  0  0  0
    2.7148   22.9193   38.4565 H   0  0  0  0  0  0  0  0  0  0  0  0
    6.9215   21.0707   40.9112 H   0  0  0  0  0  0  0  0  0  0  0  0
    6.3250   19.9474   39.6427 H   0  0  0  0  0  0  0  0  0  0  0  0
    5.7971   21.6643   39.6423 H   0  0  0  0  0  0  0  0  0  0  0  0
    0.2745   26.1814   33.1373 H   0  0  0  0  0  0  0  0  0  0  0  0
    0.8261   27.8812   33.5966 H   0  0  0  0  0  0  0  0  0  0  0  0
    3.0014   21.5585   41.2937 H   0  0  0  0  0  0  0  0  0  0  0  0
    2.9655   19.9254   42.0846 H   0  0  0  0  0  0  0  0  0  0  0  0
    2.0927   20.7262   38.0526 H   0  0  0  0  0  0  0  0  0  0  0  0
    3.8622   20.2177   38.2287 H   0  0  0  0  0  0  0  0  0  0  0  0
    0.4878   25.9032   36.3691 H   0  0  0  0  0  0  0  0  0  0  0  0
    1.3196   24.8679   35.0074 H   0  0  0  0  0  0  0  0  0  0  0  0
    4.3498   25.1172   37.0526 H   0  0  0  0  0  0  0  0  0  0  0  0
    3.8674   23.4126   36.8240 H   0  0  0  0  0  0  0  0  0  0  0  0
   -2.0240   11.0791   40.8556 H   0  0  0  0  0  0  0  0  0  0  0  0
    4.9006   20.5439   43.3377 H   0  0  0  0  0  0  0  0  0  0  0  0
    6.3239   21.2819   42.5276 H   0  0  0  0  0  0  0  0  0  0  0  0
    4.7424   22.1338   42.5168 H   0  0  0  0  0  0  0  0  0  0  0  0
    4.8232   19.4158   40.7625 H   0  0  0  0  0  0  0  0  0  0  0  0
    4.7208   23.9828   34.5384 H   0  0  0  0  0  0  0  0  0  0  0  0
   -1.9517   14.2710   45.5131 H   0  0  0  0  0  0  0  0  0  0  0  0
   -2.4604   12.5646   45.4023 H   0  0  0  0  0  0  0  0  0  0  0  0
    1.4007   28.4044   31.5692 H   0  0  0  0  0  0  0  0  0  0  0  0
    1.9404   26.7416   31.1563 H   0  0  0  0  0  0  0  0  0  0  0  0
    0.1905   27.1473   31.1432 H   0  0  0  0  0  0  0  0  0  0  0  0
   -1.1001   15.4832   43.2475 H   0  0  0  0  0  0  0  0  0  0  0  0
    3.6910   25.1047   32.6653 H   0  0  0  0  0  0  0  0  0  0  0  0
    2.2528   25.4225   37.7558 H   0  0  0  0  0  0  0  0  0  0  0  0
    1.7194   23.8432   36.8843 H   0  0  0  0  0  0  0  0  0  0  0  0
   -0.1294   17.4037   41.9629 H   0  0  0  0  0  0  0  0  0  0  0  0
    1.1120   16.1495   41.7770 H   0  0  0  0  0  0  0  0  0  0  0  0
    0.7766   17.3362   39.1503 H   0  0  0  0  0  0  0  0  0  0  0  0
  1  6  2  0
  2 28  1  0
  2 14  2  0
  3 11  1  0
  5 16  1  0
  6 19  1  0
  7 25  1  0
  9  4  1  0
  9 10  1  0
 10 12  2  0
 10  8  1  0
 11 23  1  0
 12 26  2  0
 13 23  1  0
 14  1  1  0
 16  8  1  0
 16 15  1  0
 17 13  1  0
 18 24  1  0
 18 28  1  0
 20  7  1  0
 21  6  1  0
 22 17  2  0
 25 22  1  0
 25  3  1  0
 26 24  1  0
 27 18  2  0
 28 21  2  0
  1 29  1  0
  2 30  1  0
  3 31  1  0
  3 32  1  0
  4 33  1  0
  4 34  1  0
  4 35  1  0
  5 36  1  0
  5 37  1  0
  5 38  1  0
  7 39  1  0
  7 40  1  0
  8 41  1  0
  8 42  1  0
  9 43  1  0
  9 44  1  0
 11 45  1  0
 11 46  1  0
 13 47  1  0
 13 48  1  0
 14 49  1  0
 15 50  1  0
 15 51  1  0
 15 52  1  0
 16 53  1  0
 17 54  1  0
 19 55  1  0
 19 56  1  0
 20 57  1  0
 20 58  1  0
 20 59  1  0
 21 60  1  0
 22 61  1  0
 23 62  1  0
 23 63  1  0
 24 64  1  0
 24 65  1  0
 26 66  1  0
M  END
>  <mol_id>  (38) 
2026-09-18-6fnk-s0-n100-0038

>  <rmsd_to_ref>  (38) 


$$$$

     RDKit          3D

 55 56  0  0  0  0  0  0  0  0999 V2000
    1.9035   17.7998   38.4521 C   0  0  0  0  0  0  0  0  0  0  0  0
    2.8635   21.7047   39.7369 C   0  0  0  0  0  0  0  0  0  0  0  0
    3.1359   17.2704   38.5490 O   0  0  0  0  0  0  0  0  0  0  0  0
    1.9070   18.6462   42.7076 C   0  0  0  0  0  0  0  0  0  0  0  0
    2.5414   24.3933   33.4291 C   0  0  0  0  0  0  0  0  0  0  0  0
   -0.8441   18.4022   45.0341 C   0  0  0  0  0  0  0  0  0  0  0  0
    2.7984   19.6576   42.3879 C   0  0  0  0  0  0  0  0  0  0  0  0
    1.8746   19.3192   38.9769 C   0  0  0  0  0  0  0  0  0  0  0  0
    2.8705   23.9668   33.8260 C   0  0  2  0  0  0  0  0  0  0  0  0
    2.9761   19.8642   38.1349 C   0  0  1  0  0  0  0  0  0  0  0  0
    2.5014   25.2711   33.1388 C   0  0  0  0  0  0  0  0  0  0  0  0
    2.7486   19.6651   36.7047 C   0  0  0  0  0  0  0  0  0  0  0  0
    2.9346   23.0726   34.8267 C   0  0  1  0  0  0  0  0  0  0  0  0
    3.0614   21.3820   38.3456 C   0  0  0  0  0  0  0  0  0  0  0  0
    0.8438   19.0332   43.5062 C   0  0  0  0  0  0  0  0  0  0  0  0
    0.1413   18.0461   44.0875 C   0  0  0  0  0  0  0  0  0  0  0  0
   -1.1455   19.7362   45.2373 C   0  0  0  0  0  0  0  0  0  0  0  0
    2.6819   21.5945   34.6251 C   0  0  0  0  0  0  0  0  0  0  0  0
    3.3258   20.8319   35.9067 N   0  0  0  0  0  0  0  0  0  0  0  0
   -0.4895   20.6500   44.5175 N   0  0  0  0  0  0  0  0  0  0  0  0
    4.3908   21.6105   35.7515 C   0  0  0  0  0  0  0  0  0  0  0  0
    2.5918   21.0219   42.7248 C   0  0  0  0  0  0  0  0  0  0  0  0
    1.3541   21.3424   43.3149 C   0  0  0  0  0  0  0  0  0  0  0  0
    0.5777   20.3522   43.7984 C   0  0  0  0  0  0  0  0  0  0  0  0
    4.0113   23.5205   34.4006 C   0  0  0  0  0  0  0  0  0  0  0  0
    0.8033   17.2615   37.6030 O   0  0  0  0  0  0  0  0  0  0  0  0
    3.5037   21.0605   40.3574 H   0  0  0  0  0  0  0  0  0  0  0  0
    3.1265   22.7587   39.9099 H   0  0  0  0  0  0  0  0  0  0  0  0
    1.8092   21.5412   40.0049 H   0  0  0  0  0  0  0  0  0  0  0  0
    2.0344   17.6127   42.3534 H   0  0  0  0  0  0  0  0  0  0  0  0
    1.7367   23.8354   32.9280 H   0  0  0  0  0  0  0  0  0  0  0  0
   -1.3689   17.6231   45.6063 H   0  0  0  0  0  0  0  0  0  0  0  0
    3.7159   19.3894   41.8435 H   0  0  0  0  0  0  0  0  0  0  0  0
    0.9127   19.8109   38.7701 H   0  0  0  0  0  0  0  0  0  0  0  0
    1.9925   19.4521   40.0624 H   0  0  0  0  0  0  0  0  0  0  0  0
    3.0424   23.3007   32.9676 H   0  0  0  0  0  0  0  0  0  0  0  0
    3.8914   19.3333   38.4356 H   0  0  0  0  0  0  0  0  0  0  0  0
    1.7322   25.5761   32.4140 H   0  0  0  0  0  0  0  0  0  0  0  0
    3.2231   26.0095   33.5184 H   0  0  0  0  0  0  0  0  0  0  0  0
    3.2362   18.7319   36.3865 H   0  0  0  0  0  0  0  0  0  0  0  0
    1.6658   19.6075   36.5202 H   0  0  0  0  0  0  0  0  0  0  0  0
    2.4166   23.0334   35.7963 H   0  0  0  0  0  0  0  0  0  0  0  0
    4.0526   21.7377   38.0278 H   0  0  0  0  0  0  0  0  0  0  0  0
    2.2771   21.8712   37.7491 H   0  0  0  0  0  0  0  0  0  0  0  0
    0.3283   16.9922   43.8336 H   0  0  0  0  0  0  0  0  0  0  0  0
   -1.9059   20.0370   45.9731 H   0  0  0  0  0  0  0  0  0  0  0  0
    1.6008   21.3986   34.5711 H   0  0  0  0  0  0  0  0  0  0  0  0
    3.1327   21.2403   33.6863 H   0  0  0  0  0  0  0  0  0  0  0  0
    4.7356   21.9606   36.7357 H   0  0  0  0  0  0  0  0  0  0  0  0
    5.1943   21.0398   35.2632 H   0  0  0  0  0  0  0  0  0  0  0  0
    4.1243   22.4762   35.1272 H   0  0  0  0  0  0  0  0  0  0  0  0
    3.3582   21.7877   42.5349 H   0  0  0  0  0  0  0  0  0  0  0  0
    1.0242   22.3898   43.3805 H   0  0  0  0  0  0  0  0  0  0  0  0
    4.6862   22.8642   33.8316 H   0  0  0  0  0  0  0  0  0  0  0  0
    4.8741   24.0142   34.8716 H   0  0  0  0  0  0  0  0  0  0  0  0
  1  3  1  0
  1  8  1  0
  4 15  2  0
  6 17  1  0
  7  4  1  0
  7 22  2  0
  9  5  1  0
  9 25  1  0
  9 13  1  0
 10 12  1  0
 10 14  1  0
 10  8  1  0
 11  5  2  3
 13 18  1  0
 14  2  1  0
 15 24  1  0
 15 16  1  0
 16  6  2  0
 18 19  1  0
 19 12  1  0
 20 17  2  0
 21 19  1  0
 22 23  1  0
 23 24  2  0
 24 20  1  0
 25 13  1  0
 26  1  2  0
  2 27  1  0
  2 28  1  0
  2 29  1  0
  4 30  1  0
  5 31  1  0
  6 32  1  0
  7 33  1  0
  8 34  1  0
  8 35  1  0
  9 36  1  6
 10 37  1  1
 11 38  1  0
 11 39  1  0
 12 40  1  0
 12 41  1  0
 13 42  1  1
 14 43  1  0
 14 44  1  0
 16 45  1  0
 17 46  1  0
 18 47  1  0
 18 48  1  0
 21 49  1  0
 21 50  1  0
 21 51  1  0
 22 52  1  0
 23 53  1  0
 25 54  1  0
 25 55  1  0
M  CHG  1   3  -1
M  END
>  <mol_id>  (39) 
2026-09-18-6fnk-s0-n100-0039

>  <rmsd_to_ref>  (39) 


$$$$

     RDKit          3D

 58 60  0  0  0  0  0  0  0  0999 V2000
    1.5927   21.3548   41.2525 N   0  0  0  0  0  0  0  0  0  0  0  0
    4.3750   22.7281   39.4110 C   0  0  0  0  0  0  0  0  0  0  0  0
    1.1692   25.5630   32.9983 C   0  0  0  0  0  0  0  0  0  0  0  0
    3.3793   25.0236   33.7064 C   0  0  0  0  0  0  0  0  0  0  0  0
    3.5000   17.3412   41.3369 O   0  0  0  0  0  0  0  0  0  0  0  0
    0.3272   19.9265   44.4050 C   0  0  0  0  0  0  0  0  0  0  0  0
    1.6374   18.4172   41.1799 N   0  0  0  0  0  0  0  0  0  0  0  0
    1.8130   15.4492   39.9970 C   0  0  0  0  0  0  0  0  0  0  0  0
    0.0310   18.7964   45.1640 C   0  0  0  0  0  0  0  0  0  0  0  0
    1.1844   20.8970   42.2491 C   0  0  0  0  0  0  0  0  0  0  0  0
    1.5549   24.0988   34.7346 C   0  0  0  0  0  0  0  0  0  0  0  0
    3.6203   22.0189   40.4803 O   0  0  0  0  0  0  0  0  0  0  0  0
    1.1026   15.8147   38.7628 C   0  0  0  0  0  0  0  0  0  0  0  0
    1.1756   18.4095   42.5700 C   0  0  0  0  0  0  0  0  0  0  0  0
    3.9881   15.4612   38.5318 C   0  0  0  0  0  0  0  0  0  0  0  0
    0.7372   24.7486   33.9758 C   0  0  0  0  0  0  0  0  0  0  0  0
    2.6003   25.6916   32.9056 C   0  0  0  0  0  0  0  0  0  0  0  0
    3.1927   22.7443   35.5846 C   0  0  0  0  0  0  0  0  0  0  0  0
    2.6175   17.4926   39.3587 O   0  0  0  0  0  0  0  0  0  0  0  0
    0.8697   19.7775   43.1145 C   0  0  0  0  0  0  0  0  0  0  0  0
    0.7950   17.3686   43.3908 C   0  0  0  0  0  0  0  0  0  0  0  0
    2.6447   21.1716   40.1556 C   0  0  0  0  0  0  0  0  0  0  0  0
    0.2543   17.4769   44.6190 C   0  0  0  0  0  0  0  0  0  0  0  0
    2.5930   17.6804   40.6215 C   0  0  0  0  0  0  0  0  0  0  0  0
    4.2923   23.2910   34.9789 C   0  0  0  0  0  0  0  0  0  0  0  0
    3.0601   24.0368   34.8001 C   0  0  0  0  0  0  0  0  0  0  0  0
    2.6506   16.1152   38.9330 C   0  0  0  0  0  0  0  0  0  0  0  0
    0.7325   21.3656   40.6860 H   0  0  0  0  0  0  0  0  0  0  0  0
    2.2182   21.9847   41.7749 H   0  0  0  0  0  0  0  0  0  0  0  0
    4.7751   23.6722   39.8092 H   0  0  0  0  0  0  0  0  0  0  0  0
    5.2054   22.0943   39.0663 H   0  0  0  0  0  0  0  0  0  0  0  0
    3.7022   22.9417   38.5674 H   0  0  0  0  0  0  0  0  0  0  0  0
    0.7982   25.1726   32.0392 H   0  0  0  0  0  0  0  0  0  0  0  0
    0.7841   26.5650   33.2383 H   0  0  0  0  0  0  0  0  0  0  0  0
    4.4533   25.2111   33.5599 H   0  0  0  0  0  0  0  0  0  0  0  0
    0.1380   20.9307   44.8122 H   0  0  0  0  0  0  0  0  0  0  0  0
    1.1593   19.0801   40.5531 H   0  0  0  0  0  0  0  0  0  0  0  0
    1.5915   15.9943   40.9264 H   0  0  0  0  0  0  0  0  0  0  0  0
    1.9161   14.5061   40.5536 H   0  0  0  0  0  0  0  0  0  0  0  0
   -0.3739   18.9089   46.1806 H   0  0  0  0  0  0  0  0  0  0  0  0
    1.8315   21.4499   42.9460 H   0  0  0  0  0  0  0  0  0  0  0  0
    0.2216   20.7347   41.7426 H   0  0  0  0  0  0  0  0  0  0  0  0
    1.0544   23.4646   35.4812 H   0  0  0  0  0  0  0  0  0  0  0  0
    0.7648   15.0323   38.0672 H   0  0  0  0  0  0  0  0  0  0  0  0
    0.2109   16.4109   38.5194 H   0  0  0  0  0  0  0  0  0  0  0  0
    4.5453   15.1804   39.4377 H   0  0  0  0  0  0  0  0  0  0  0  0
    3.7906   14.5623   37.9294 H   0  0  0  0  0  0  0  0  0  0  0  0
    4.5827   16.1745   37.9420 H   0  0  0  0  0  0  0  0  0  0  0  0
   -0.3451   24.6322   34.1342 H   0  0  0  0  0  0  0  0  0  0  0  0
    3.0395   26.3606   32.1509 H   0  0  0  0  0  0  0  0  0  0  0  0
    2.7538   21.8153   35.1919 H   0  0  0  0  0  0  0  0  0  0  0  0
    2.9463   22.4282   36.6090 H   0  0  0  0  0  0  0  0  0  0  0  0
    0.9481   16.3503   43.0041 H   0  0  0  0  0  0  0  0  0  0  0  0
    2.2254   21.4216   39.1698 H   0  0  0  0  0  0  0  0  0  0  0  0
    3.0000   20.1327   40.0877 H   0  0  0  0  0  0  0  0  0  0  0  0
   -0.0120   16.5790   45.1960 H   0  0  0  0  0  0  0  0  0  0  0  0
    4.7379   22.7777   34.1140 H   0  0  0  0  0  0  0  0  0  0  0  0
    5.2881   23.5722   35.3520 H   0  0  0  0  0  0  0  0  0  0  0  0
  1 10  1  0
  2 12  1  0
  3 16  1  0
  4 26  1  0
  6  9  1  0
  7 14  1  0
 10 20  1  0
 13  8  1  0
 14 20  1  0
 14 21  2  0
 15 27  1  0
 16 11  2  0
 17  3  1  0
 17  4  2  0
 19 24  1  0
 20  6  2  0
 21 23  1  0
 22 12  1  0
 22  1  1  0
 23  9  2  0
 24  5  2  0
 24  7  1  0
 25 26  1  0
 25 18  1  0
 26 11  1  0
 26 18  1  0
 27 13  1  0
 27 19  1  0
 27  8  1  0
  1 28  1  0
  1 29  1  0
  2 30  1  0
  2 31  1  0
  2 32  1  0
  3 33  1  0
  3 34  1  0
  4 35  1  0
  6 36  1  0
  7 37  1  0
  8 38  1  0
  8 39  1  0
  9 40  1  0
 10 41  1  0
 10 42  1  0
 11 43  1  0
 13 44  1  0
 13 45  1  0
 15 46  1  0
 15 47  1  0
 15 48  1  0
 16 49  1  0
 17 50  1  0
 18 51  1  0
 18 52  1  0
 21 53  1  0
 22 54  1  0
 22 55  1  0
 23 56  1  0
 25 57  1  0
 25 58  1  0
M  CHG  1   1   1
M  END
>  <mol_id>  (40) 
2026-09-18-6fnk-s0-n100-0040

>  <rmsd_to_ref>  (40) 


$$$$

     RDKit          3D

 54 55  0  0  0  0  0  0  0  0999 V2000
    4.7217   22.2129   38.1045 O   0  0  0  0  0  0  0  0  0  0  0  0
    3.8747   21.5574   38.7646 C   0  0  0  0  0  0  0  0  0  0  0  0
    3.6735   25.1762   34.7003 S   0  0  0  0  0  0  0  0  0  0  0  0
    2.4887   19.9189   39.5460 C   0  0  2  0  0  0  0  0  0  0  0  0
   -1.8179   15.0344   40.7149 C   0  0  0  0  0  0  0  0  0  0  0  0
    1.5244   26.5490   34.0974 C   0  0  0  0  0  0  0  0  0  0  0  0
    4.6237   21.4156   42.8134 C   0  0  0  0  0  0  0  0  0  0  0  0
    0.0986   16.8343   37.5095 C   0  0  0  0  0  0  0  0  0  0  0  0
    2.7319   20.6673   38.4549 C   0  0  0  0  0  0  0  0  0  0  0  0
    1.3755   21.9692   36.3546 O   0  0  0  0  0  0  0  0  0  0  0  0
    1.3439   24.9111   35.9761 C   0  0  0  0  0  0  0  0  0  0  0  0
    0.9991   26.1600   35.2630 C   0  0  0  0  0  0  0  0  0  0  0  0
    5.2234   21.7757   41.1398 C   0  0  0  0  0  0  0  0  0  0  0  0
   -1.9666   16.1240   39.3451 C   0  0  0  0  0  0  0  0  0  0  0  0
    2.5826   24.2764   35.5027 C   0  0  2  0  0  0  0  0  0  0  0  0
    4.1987   21.3775   40.0966 N   0  0  0  0  0  0  0  0  0  0  0  0
   -0.8010   16.7655   38.9138 C   0  0  1  0  0  0  0  0  0  0  0  0
    1.1736   18.5203   39.5947 S   0  0  1  0  0  4  0  0  0  0  0  0
    2.5683   25.7393   33.5303 C   0  0  0  0  0  0  0  0  0  0  0  0
    2.1909   22.7333   36.0643 C   0  0  0  0  0  0  0  0  0  0  0  0
    3.4368   20.7691   40.8098 C   0  0  0  0  0  0  0  0  0  0  0  0
    1.2659   27.7053   33.5101 F   0  0  0  0  0  0  0  0  0  0  0  0
    3.2834   23.1447   35.8917 N   0  0  0  0  0  0  0  0  0  0  0  0
   -0.2465   17.0529   39.8893 C   0  0  0  0  0  0  0  0  0  0  0  0
    1.2815   17.6405   38.0232 C   0  0  0  0  0  0  0  0  0  0  0  0
    2.4028   18.8600   39.8314 H   0  0  0  0  0  0  0  0  0  0  0  0
   -1.8308   15.6155   41.6488 H   0  0  0  0  0  0  0  0  0  0  0  0
   -2.6591   14.3255   40.7125 H   0  0  0  0  0  0  0  0  0  0  0  0
   -0.8708   14.4799   40.6411 H   0  0  0  0  0  0  0  0  0  0  0  0
    5.2707   21.9145   43.5500 H   0  0  0  0  0  0  0  0  0  0  0  0
    3.5931   21.7848   42.9210 H   0  0  0  0  0  0  0  0  0  0  0  0
    4.6437   20.3291   42.9842 H   0  0  0  0  0  0  0  0  0  0  0  0
   -0.4364   17.3559   36.7022 H   0  0  0  0  0  0  0  0  0  0  0  0
    0.3486   15.8620   37.0601 H   0  0  0  0  0  0  0  0  0  0  0  0
    2.9831   20.0177   37.6034 H   0  0  0  0  0  0  0  0  0  0  0  0
    1.8440   21.2592   38.1880 H   0  0  0  0  0  0  0  0  0  0  0  0
    1.4606   25.1436   37.0448 H   0  0  0  0  0  0  0  0  0  0  0  0
    0.5275   24.1990   35.7850 H   0  0  0  0  0  0  0  0  0  0  0  0
    0.2521   26.8201   35.7283 H   0  0  0  0  0  0  0  0  0  0  0  0
    5.4234   22.8539   41.0540 H   0  0  0  0  0  0  0  0  0  0  0  0
    6.1428   21.1975   40.9657 H   0  0  0  0  0  0  0  0  0  0  0  0
   -2.3571   15.5407   38.4982 H   0  0  0  0  0  0  0  0  0  0  0  0
   -2.6251   16.9331   39.6942 H   0  0  0  0  0  0  0  0  0  0  0  0
    1.6406   23.7989   35.1949 H   0  0  0  0  0  0  0  0  0  0  0  0
   -1.3107   17.2333   38.0586 H   0  0  0  0  0  0  0  0  0  0  0  0
    2.1000   17.6681   40.1354 H   0  0  0  0  0  0  0  0  0  0  0  0
    2.1099   24.8718   33.0329 H   0  0  0  0  0  0  0  0  0  0  0  0
    3.1270   26.3670   32.8204 H   0  0  0  0  0  0  0  0  0  0  0  0
    2.8099   21.4422   41.4131 H   0  0  0  0  0  0  0  0  0  0  0  0
    3.9090   20.1214   41.5632 H   0  0  0  0  0  0  0  0  0  0  0  0
   -0.9843   17.4184   40.6188 H   0  0  0  0  0  0  0  0  0  0  0  0
    0.2741   16.1546   40.2527 H   0  0  0  0  0  0  0  0  0  0  0  0
    2.1260   16.9412   38.1104 H   0  0  0  0  0  0  0  0  0  0  0  0
    1.3652   18.4545   37.2881 H   0  0  0  0  0  0  0  0  0  0  0  0
  1  2  2  0
  2 16  1  0
  3 15  1  0
  4  9  1  0
  4 21  1  0
  6 12  2  0
  8 25  1  0
  8 17  1  0
  9  2  1  0
 12 11  1  0
 13  7  1  0
 14  5  1  0
 15 23  1  0
 15 11  1  0
 16 21  1  0
 16 13  1  0
 17 14  1  0
 17 24  1  0
 18 25  1  0
 18  4  1  0
 18 24  1  0
 19  6  1  0
 19  3  1  0
 20 10  2  0
 22  6  1  0
 23 20  2  0
  4 26  1  6
  5 27  1  0
  5 28  1  0
  5 29  1  0
  7 30  1  0
  7 31  1  0
  7 32  1  0
  8 33  1  0
  8 34  1  0
  9 35  1  0
  9 36  1  0
 11 37  1  0
 11 38  1  0
 12 39  1  0
 13 40  1  0
 13 41  1  0
 14 42  1  0
 14 43  1  0
 15 44  1  6
 17 45  1  6
 18 46  1  0
 19 47  1  0
 19 48  1  0
 21 49  1  0
 21 50  1  0
 24 51  1  0
 24 52  1  0
 25 53  1  0
 25 54  1  0
M  END
>  <mol_id>  (41) 
2026-09-18-6fnk-s0-n100-0041

>  <rmsd_to_ref>  (41) 


$$$$

     RDKit          3D

 48 48  0  0  0  0  0  0  0  0999 V2000
    4.7540   22.1210   39.8760 C   0  0  0  0  0  0  0  0  0  0  0  0
    0.7550   26.8390   34.2110 C   0  0  0  0  0  0  0  0  0  0  0  0
    1.1090   25.4970   33.5500 C   0  0  0  0  0  0  0  0  0  0  0  0
    3.5690   21.7720   40.0900 N   0  0  0  0  0  0  0  0  0  0  0  0
    5.0610   22.5720   38.5650 N   0  0  0  0  0  0  0  0  0  0  0  0
   -0.6610   14.0070   41.0900 C   0  0  0  0  0  0  0  0  0  0  0  0
    2.9800   21.8920   38.8520 C   0  0  0  0  0  0  0  0  0  0  0  0
   -1.1420   14.5140   42.3460 C   0  0  0  0  0  0  0  0  0  0  0  0
    3.5930   23.2040   35.6220 O   0  0  0  0  0  0  0  0  0  0  0  0
    1.7080   22.6650   36.7540 O   0  0  0  0  0  0  0  0  0  0  0  0
    0.8740   16.2430   37.6570 C   0  0  1  0  0  0  0  0  0  0  0  0
   -0.5670   15.4150   39.1780 O   0  0  0  0  0  0  0  0  0  0  0  0
    0.4820   16.8850   36.6220 N   0  0  0  0  0  0  0  0  0  0  0  0
    1.4340   25.4200   32.3600 O   0  0  0  0  0  0  0  0  0  0  0  0
    2.9740   22.7550   36.6700 C   0  0  0  0  0  0  0  0  0  0  0  0
    0.5100   16.4610   39.0980 C   0  0  0  0  0  0  0  0  0  0  0  0
    3.7260   22.4950   37.9210 C   0  0  0  0  0  0  0  0  0  0  0  0
    1.4100   15.1260   37.1330 N   0  0  0  0  0  0  0  0  0  0  0  0
   -0.0120   14.4510   40.1740 C   0  0  0  0  0  0  0  0  0  0  0  0
    2.2520   15.4380   36.0780 C   0  0  0  0  0  0  0  0  0  0  0  0
    5.8440   22.1580   40.9210 C   0  0  0  0  0  0  0  0  0  0  0  0
    1.0670   16.2990   35.7800 N   0  0  0  0  0  0  0  0  0  0  0  0
    1.1840   24.2570   34.3510 C   0  0  0  0  0  0  0  0  0  0  0  0
   -2.0150   13.3840   42.9460 O   0  0  0  0  0  0  0  0  0  0  0  0
    0.7843   26.7279   35.3050 H   0  0  0  0  0  0  0  0  0  0  0  0
    1.4821   27.6038   33.9005 H   0  0  0  0  0  0  0  0  0  0  0  0
   -0.2547   27.1456   33.9005 H   0  0  0  0  0  0  0  0  0  0  0  0
    5.9637   22.8709   38.1691 H   0  0  0  0  0  0  0  0  0  0  0  0
   -0.0765   13.1262   41.3942 H   0  0  0  0  0  0  0  0  0  0  0  0
   -1.6271   14.1125   40.5748 H   0  0  0  0  0  0  0  0  0  0  0  0
    1.9668   21.5181   38.6433 H   0  0  0  0  0  0  0  0  0  0  0  0
   -0.2996   14.7443   43.0148 H   0  0  0  0  0  0  0  0  0  0  0  0
   -1.7142   15.4445   42.2164 H   0  0  0  0  0  0  0  0  0  0  0  0
    1.3647   16.8422   38.4381 H   0  0  0  0  0  0  0  0  0  0  0  0
   -0.5380   16.8183   36.4951 H   0  0  0  0  0  0  0  0  0  0  0  0
    1.3484   16.2541   39.7793 H   0  0  0  0  0  0  0  0  0  0  0  0
    0.2235   17.4841   39.3830 H   0  0  0  0  0  0  0  0  0  0  0  0
    0.3308   13.5806   39.5953 H   0  0  0  0  0  0  0  0  0  0  0  0
    0.7187   15.0787   40.7051 H   0  0  0  0  0  0  0  0  0  0  0  0
    3.1870   15.9587   36.3322 H   0  0  0  0  0  0  0  0  0  0  0  0
    2.7290   14.7238   35.3907 H   0  0  0  0  0  0  0  0  0  0  0  0
    5.3915   22.1426   41.9235 H   0  0  0  0  0  0  0  0  0  0  0  0
    6.4976   21.2815   40.8003 H   0  0  0  0  0  0  0  0  0  0  0  0
    6.4367   23.0768   40.8003 H   0  0  0  0  0  0  0  0  0  0  0  0
    1.1687   24.5104   35.4213 H   0  0  0  0  0  0  0  0  0  0  0  0
    0.3231   23.6147   34.1139 H   0  0  0  0  0  0  0  0  0  0  0  0
    2.1161   23.7231   34.1139 H   0  0  0  0  0  0  0  0  0  0  0  0
   -1.9799   13.4294   43.9343 H   0  0  0  0  0  0  0  0  0  0  0  0
  1  4  2  0
  1 21  1  0
  3  2  1  0
  3 23  1  0
  5  1  1  0
  6  8  1  0
  7  4  1  0
  8 24  1  0
  9 15  2  0
 11 16  1  0
 12 19  1  0
 13 11  1  0
 14  3  2  0
 15 10  1  0
 15 17  1  0
 16 12  1  0
 17  5  1  0
 17  7  2  0
 18 20  1  0
 18 11  1  0
 19  6  1  0
 22 20  1  0
 22 13  1  0
 22 18  1  0
  2 25  1  0
  2 26  1  0
  2 27  1  0
  5 28  1  0
  6 29  1  0
  6 30  1  0
  7 31  1  0
  8 32  1  0
  8 33  1  0
 11 34  1  1
 13 35  1  0
 16 36  1  0
 16 37  1  0
 19 38  1  0
 19 39  1  0
 20 40  1  0
 20 41  1  0
 21 42  1  0
 21 43  1  0
 21 44  1  0
 23 45  1  0
 23 46  1  0
 23 47  1  0
 24 48  1  0
M  CHG  1  10  -1
M  END
>  <mol_id>  (42) 
2026-09-18-6fnk-s0-n100-0042

>  <rmsd_to_ref>  (42) 


$$$$

     RDKit          3D

 80 84  0  0  0  0  0  0  0  0999 V2000
    3.9725   22.1717   39.7339 N   0  0  0  0  0  0  0  0  0  0  0  0
    4.1628   23.1827   38.3357 C   0  0  0  0  0  0  0  0  0  0  0  0
    1.9360   16.7244   38.6672 C   0  0  0  0  0  0  0  0  0  0  0  0
    1.0531   30.2058   32.4994 C   0  0  2  0  0  0  0  0  0  0  0  0
    2.7545   19.8835   40.5567 C   0  0  0  0  0  0  0  0  0  0  0  0
    1.2794   31.6012   33.2904 C   0  0  0  0  0  0  0  0  0  0  0  0
    3.6197   25.1953   35.3733 C   0  0  0  0  0  0  0  0  0  0  0  0
    5.6362   23.8474   38.4581 C   0  0  0  0  0  0  0  0  0  0  0  0
    1.4391   17.5206   43.2926 O   0  0  0  0  0  0  0  0  0  0  0  0
    0.3155   28.9802   32.3756 C   0  0  0  0  0  0  0  0  0  0  0  0
    3.9172   24.4680   36.1684 C   0  0  2  0  0  0  0  0  0  0  0  0
    3.6230   20.7597   39.3736 C   0  0  1  0  0  0  0  0  0  0  0  0
    2.5559   18.2206   38.4472 C   0  0  2  0  0  0  0  0  0  0  0  0
    1.2517   28.9591   33.4330 C   0  0  1  0  0  0  0  0  0  0  0  0
    3.2582   18.8004   37.8445 N   0  0  0  0  0  0  0  0  0  0  0  0
    2.2846   25.9082   35.4829 C   0  0  0  0  0  0  0  0  0  0  0  0
    2.7843   26.0257   35.0518 C   0  0  0  0  0  0  0  0  0  0  0  0
    2.4014   18.5142   40.0749 C   0  0  2  0  0  0  0  0  0  0  0  0
   -0.9995   15.3819   39.4005 C   0  0  0  0  0  0  0  0  0  0  0  0
    1.1458   16.2669   42.4609 C   0  0  0  0  0  0  0  0  0  0  0  0
    1.8919   15.7417   38.0624 O   0  0  0  0  0  0  0  0  0  0  0  0
    0.9308   16.1577   41.2419 C   0  0  1  0  0  0  0  0  0  0  0  0
   -0.5355   15.2437   40.9973 C   0  0  2  0  0  0  0  0  0  0  0  0
    3.5014   20.2635   38.0207 C   0  0  0  0  0  0  0  0  0  0  0  0
    1.2587   31.4064   31.9909 N   0  0  0  0  0  0  0  0  0  0  0  0
    1.5373   16.9127   40.0828 C   0  0  2  0  0  0  0  0  0  0  0  0
    3.4666   23.5278   37.1820 C   0  0  0  0  0  0  0  0  0  0  0  0
    5.5796   24.5206   37.0190 C   0  0  0  0  0  0  0  0  0  0  0  0
    2.0271   26.9080   34.8936 C   0  0  0  0  0  0  0  0  0  0  0  0
   -0.9771   13.2616   43.0942 C   0  0  0  0  0  0  0  0  0  0  0  0
   -0.3620   14.4908   42.6648 C   0  0  1  0  0  0  0  0  0  0  0  0
    1.5749   27.9195   34.4247 C   0  0  0  0  0  0  0  0  0  0  0  0
    0.5974   15.3179   43.2162 O   0  0  0  0  0  0  0  0  0  0  0  0
   -2.4513   12.7485   42.6623 C   0  0  0  0  0  0  0  0  0  0  0  0
    4.8561   22.1692   40.2632 H   0  0  0  0  0  0  0  0  0  0  0  0
    3.1980   22.5539   40.2952 H   0  0  0  0  0  0  0  0  0  0  0  0
    3.3732   19.7953   41.4619 H   0  0  0  0  0  0  0  0  0  0  0  0
    1.8214   20.4250   40.7711 H   0  0  0  0  0  0  0  0  0  0  0  0
    0.4485   32.1064   33.8045 H   0  0  0  0  0  0  0  0  0  0  0  0
    1.9623   32.0139   34.0475 H   0  0  0  0  0  0  0  0  0  0  0  0
    4.5331   25.8055   35.3158 H   0  0  0  0  0  0  0  0  0  0  0  0
    3.0648   24.4089   34.8406 H   0  0  0  0  0  0  0  0  0  0  0  0
    5.7137   24.5796   39.2753 H   0  0  0  0  0  0  0  0  0  0  0  0
    6.4856   23.1876   38.6891 H   0  0  0  0  0  0  0  0  0  0  0  0
   -0.7575   28.9808   32.6178 H   0  0  0  0  0  0  0  0  0  0  0  0
    0.1531   28.3029   31.5242 H   0  0  0  0  0  0  0  0  0  0  0  0
    3.2806   24.4026   35.2737 H   0  0  0  0  0  0  0  0  0  0  0  0
    4.6925   20.5022   39.3823 H   0  0  0  0  0  0  0  0  0  0  0  0
    2.2547   18.5872   37.4548 H   0  0  0  0  0  0  0  0  0  0  0  0
    0.4860   29.3508   34.1189 H   0  0  0  0  0  0  0  0  0  0  0  0
    4.1747   18.3479   37.9716 H   0  0  0  0  0  0  0  0  0  0  0  0
    2.7856   18.7897   36.9294 H   0  0  0  0  0  0  0  0  0  0  0  0
    1.3675   26.5141   35.4401 H   0  0  0  0  0  0  0  0  0  0  0  0
    2.3816   25.1094   36.2329 H   0  0  0  0  0  0  0  0  0  0  0  0
    2.6356   18.7398   41.1257 H   0  0  0  0  0  0  0  0  0  0  0  0
   -2.0405   15.7334   39.3502 H   0  0  0  0  0  0  0  0  0  0  0  0
   -0.3441   16.1024   38.8893 H   0  0  0  0  0  0  0  0  0  0  0  0
   -0.9197   14.4008   38.9093 H   0  0  0  0  0  0  0  0  0  0  0  0
    1.9637   15.9093   40.9566 H   0  0  0  0  0  0  0  0  0  0  0  0
   -1.5801   14.9305   40.8533 H   0  0  0  0  0  0  0  0  0  0  0  0
    4.4357   20.5084   37.4942 H   0  0  0  0  0  0  0  0  0  0  0  0
    2.5978   20.7487   37.6233 H   0  0  0  0  0  0  0  0  0  0  0  0
    2.1409   31.5546   31.4804 H   0  0  0  0  0  0  0  0  0  0  0  0
    0.6870   31.8990   31.2900 H   0  0  0  0  0  0  0  0  0  0  0  0
    0.7312   16.3161   40.5344 H   0  0  0  0  0  0  0  0  0  0  0  0
    2.4900   23.0475   37.0225 H   0  0  0  0  0  0  0  0  0  0  0  0
    6.3060   24.0037   36.3747 H   0  0  0  0  0  0  0  0  0  0  0  0
    5.8038   25.5860   37.1761 H   0  0  0  0  0  0  0  0  0  0  0  0
    1.6870   27.2791   35.8716 H   0  0  0  0  0  0  0  0  0  0  0  0
    2.5223   27.7222   34.3443 H   0  0  0  0  0  0  0  0  0  0  0  0
    1.1620   26.5496   34.3164 H   0  0  0  0  0  0  0  0  0  0  0  0
   -0.2875   12.4650   42.7781 H   0  0  0  0  0  0  0  0  0  0  0  0
   -1.1560   13.4946   44.1542 H   0  0  0  0  0  0  0  0  0  0  0  0
   -0.9697   13.9471   43.4030 H   0  0  0  0  0  0  0  0  0  0  0  0
    1.4049   28.3134   35.4376 H   0  0  0  0  0  0  0  0  0  0  0  0
    0.9316   27.0426   34.2596 H   0  0  0  0  0  0  0  0  0  0  0  0
    2.6296   27.6259   34.3178 H   0  0  0  0  0  0  0  0  0  0  0  0
   -3.0597   12.5810   43.5633 H   0  0  0  0  0  0  0  0  0  0  0  0
   -2.9336   13.5088   42.0303 H   0  0  0  0  0  0  0  0  0  0  0  0
   -2.3618   11.8074   42.1000 H   0  0  0  0  0  0  0  0  0  0  0  0
  2  8  1  0
  2  1  1  0
  4 10  1  6
  4  6  1  0
  4 14  1  0
 10 14  1  0
 11  7  1  0
 11 28  1  0
 11 27  1  0
 12  1  1  0
 12  5  1  0
 13 15  1  0
 13  3  1  0
 13 18  1  0
 14 32  1  0
 15 24  1  0
 17  7  1  0
 17 16  2  3
 18 26  1  0
 18  5  1  0
 20 33  1  0
 20  9  2  0
 21  3  2  0
 22 20  1  0
 23 19  1  0
 23 22  1  0
 23 31  1  0
 24 12  1  0
 25  4  1  0
 25  6  1  0
 26  3  1  0
 26 22  1  0
 27  2  2  0
 28  8  1  0
 29 17  1  0
 31 30  1  0
 31 33  1  0
 34 30  1  0
  1 35  1  0
  1 36  1  0
  5 37  1  0
  5 38  1  0
  6 39  1  0
  6 40  1  0
  7 41  1  0
  7 42  1  0
  8 43  1  0
  8 44  1  0
 10 45  1  0
 10 46  1  0
 11 47  1  6
 12 48  1  1
 13 49  1  6
 14 50  1  1
 15 51  1  0
 15 52  1  0
 16 53  1  0
 16 54  1  0
 18 55  1  1
 19 56  1  0
 19 57  1  0
 19 58  1  0
 22 59  1  6
 23 60  1  1
 24 61  1  0
 24 62  1  0
 25 63  1  0
 25 64  1  0
 26 65  1  6
 27 66  1  0
 28 67  1  0
 28 68  1  0
 29 69  1  0
 29 70  1  0
 29 71  1  0
 30 72  1  0
 30 73  1  0
 31 74  1  1
 32 75  1  0
 32 76  1  0
 32 77  1  0
 34 78  1  0
 34 79  1  0
 34 80  1  0
M  CHG  3   1   1  15   1  25   1
M  END
>  <mol_id>  (43) 
2026-09-18-6fnk-s0-n100-0043

>  <rmsd_to_ref>  (43) 


$$$$

     RDKit          3D

 52 53  0  0  0  0  0  0  0  0999 V2000
    2.9264   24.7606   31.7989 F   0  0  0  0  0  0  0  0  0  0  0  0
   -0.8545   15.6647   38.8775 C   0  0  0  0  0  0  0  0  0  0  0  0
    3.7016   22.7785   35.0085 C   0  0  0  0  0  0  0  0  0  0  0  0
    0.7408   21.8565   42.3718 C   0  0  0  0  0  0  0  0  0  0  0  0
    2.2090   20.6724   41.0311 C   0  0  1  0  0  0  0  0  0  0  0  0
    2.0110   19.2135   40.5009 C   0  0  0  0  0  0  0  0  0  0  0  0
    1.2483   18.3047   41.3533 N   0  0  0  0  0  0  0  0  0  0  0  0
    1.7155   22.9875   38.7479 C   0  0  0  0  0  0  0  0  0  0  0  0
    2.6725   22.8199   36.1155 C   0  0  0  0  0  0  0  0  0  0  0  0
    0.5166   17.5190   40.4860 C   0  0  0  0  0  0  0  0  0  0  0  0
    1.1492   25.8316   32.5080 F   0  0  0  0  0  0  0  0  0  0  0  0
    3.1889   22.4772   38.3509 N   0  0  0  0  0  0  0  0  0  0  0  0
    2.2265   25.1462   32.7609 N   0  0  0  0  0  0  0  0  0  0  0  0
   -0.0901   16.5363   41.0500 C   0  0  0  0  0  0  0  0  0  0  0  0
    2.3263   24.4621   33.9621 C   0  0  0  0  0  0  0  0  0  0  0  0
    2.6432   21.6878   40.3508 N   0  0  0  0  0  0  0  0  0  0  0  0
    0.4673   17.6462   39.0074 C   0  0  0  0  0  0  0  0  0  0  0  0
    1.2468   23.4484   37.3746 C   0  0  0  0  0  0  0  0  0  0  0  0
    3.5904   22.2607   39.6725 C   0  0  0  0  0  0  0  0  0  0  0  0
   -0.7856   15.5376   40.2537 C   0  0  0  0  0  0  0  0  0  0  0  0
    2.3813   19.0518   39.3652 O   0  0  0  0  0  0  0  0  0  0  0  0
   -0.1660   16.6838   38.2879 C   0  0  0  0  0  0  0  0  0  0  0  0
    1.2736   24.5333   34.9445 C   0  0  0  0  0  0  0  0  0  0  0  0
    3.0986   21.2038   43.3639 C   0  0  0  0  0  0  0  0  0  0  0  0
    4.7129   22.4780   40.1877 O   0  0  0  0  0  0  0  0  0  0  0  0
    1.5192   23.6561   36.0772 C   0  0  0  0  0  0  0  0  0  0  0  0
    3.4981   23.6903   34.0325 C   0  0  0  0  0  0  0  0  0  0  0  0
    1.8643   20.8612   42.5907 C   0  0  0  0  0  0  0  0  0  0  0  0
   -1.4490   14.9623   38.2749 H   0  0  0  0  0  0  0  0  0  0  0  0
    4.5418   22.0686   34.9987 H   0  0  0  0  0  0  0  0  0  0  0  0
    0.3001   22.1310   43.3416 H   0  0  0  0  0  0  0  0  0  0  0  0
    1.1391   22.7571   41.8819 H   0  0  0  0  0  0  0  0  0  0  0  0
   -0.0317   21.4029   41.7333 H   0  0  0  0  0  0  0  0  0  0  0  0
    3.2435   20.4049   41.2922 H   0  0  0  0  0  0  0  0  0  0  0  0
    1.2550   18.2598   42.3823 H   0  0  0  0  0  0  0  0  0  0  0  0
    1.0904   22.1745   39.1459 H   0  0  0  0  0  0  0  0  0  0  0  0
    1.6755   23.7478   39.5418 H   0  0  0  0  0  0  0  0  0  0  0  0
    2.8212   22.1733   36.9927 H   0  0  0  0  0  0  0  0  0  0  0  0
    3.6659   22.3542   37.4464 H   0  0  0  0  0  0  0  0  0  0  0  0
   -0.0832   16.4497   42.1466 H   0  0  0  0  0  0  0  0  0  0  0  0
    1.8643   22.3616   40.3466 H   0  0  0  0  0  0  0  0  0  0  0  0
    0.9354   18.5046   38.5036 H   0  0  0  0  0  0  0  0  0  0  0  0
    0.3749   22.7874   37.2616 H   0  0  0  0  0  0  0  0  0  0  0  0
    1.6259   24.4561   37.5999 H   0  0  0  0  0  0  0  0  0  0  0  0
   -1.2593   14.6767   40.7480 H   0  0  0  0  0  0  0  0  0  0  0  0
   -0.1220   16.7279   37.1896 H   0  0  0  0  0  0  0  0  0  0  0  0
    0.3870   25.1772   34.8481 H   0  0  0  0  0  0  0  0  0  0  0  0
    2.8540   21.2709   44.4342 H   0  0  0  0  0  0  0  0  0  0  0  0
    3.8569   20.4220   43.2093 H   0  0  0  0  0  0  0  0  0  0  0  0
    3.4925   22.1704   43.0164 H   0  0  0  0  0  0  0  0  0  0  0  0
    4.2758   23.8332   33.2677 H   0  0  0  0  0  0  0  0  0  0  0  0
    1.5414   20.0311   43.2364 H   0  0  0  0  0  0  0  0  0  0  0  0
  1 13  1  0
  2 20  2  0
  3  9  1  0
  5 16  1  0
  5 28  1  0
  6  5  1  0
  6  7  1  0
  9 26  2  0
 10 14  2  0
 10  7  1  0
 12  8  1  0
 12 19  1  0
 13 11  1  0
 13 15  1  0
 15 23  2  0
 17 10  1  0
 18  8  1  0
 19 25  2  0
 19 16  1  0
 20 14  1  0
 21  6  2  0
 22 17  2  0
 22  2  1  0
 23 26  1  0
 26 18  1  0
 27 15  1  0
 27  3  2  0
 28  4  1  0
 28 24  1  0
  2 29  1  0
  3 30  1  0
  4 31  1  0
  4 32  1  0
  4 33  1  0
  5 34  1  1
  7 35  1  0
  8 36  1  0
  8 37  1  0
  9 38  1  0
 12 39  1  0
 14 40  1  0
 16 41  1  0
 17 42  1  0
 18 43  1  0
 18 44  1  0
 20 45  1  0
 22 46  1  0
 23 47  1  0
 24 48  1  0
 24 49  1  0
 24 50  1  0
 27 51  1  0
 28 52  1  0
M  END
>  <mol_id>  (44) 
2026-09-18-6fnk-s0-n100-0044

>  <rmsd_to_ref>  (44) 


$$$$

     RDKit          3D

 75 76  0  0  0  0  0  0  0  0999 V2000
   -0.9489   19.2084   46.0185 O   0  0  0  0  0  0  0  0  0  0  0  0
    5.4249   25.4408   37.0481 C   0  0  0  0  0  0  0  0  0  0  0  0
    4.3182   25.1144   36.5077 C   0  0  0  0  0  0  0  0  0  0  0  0
    1.8932   20.1731   39.6957 C   0  0  0  0  0  0  0  0  0  0  0  0
    1.0510   13.0164   37.2556 C   0  0  0  0  0  0  0  0  0  0  0  0
    1.1065   14.2841   37.2246 C   0  0  1  0  0  0  0  0  0  0  0  0
    0.9819   26.5558   32.9775 C   0  0  0  0  0  0  0  0  0  0  0  0
    2.4053   20.6567   38.5331 N   0  0  0  0  0  0  0  0  0  0  0  0
    0.4664   28.4248   34.5307 C   0  0  0  0  0  0  0  0  0  0  0  0
    1.4147   26.0647   34.5561 C   0  0  0  0  0  0  0  0  0  0  0  0
    1.7413   18.1865   41.6344 C   0  0  0  0  0  0  0  0  0  0  0  0
   -0.6781   18.3354   44.9272 C   0  0  0  0  0  0  0  0  0  0  0  0
    0.5126   18.0081   42.6032 C   0  0  0  0  0  0  0  0  0  0  0  0
    0.7582   15.5307   37.8081 C   0  0  1  0  0  0  0  0  0  0  0  0
   -0.0132   12.4978   37.9439 N   0  0  0  0  0  0  0  0  0  0  0  0
    0.8645   16.9697   37.9916 C   0  0  2  0  0  0  0  0  0  0  0  0
   -1.2573   16.9557   44.9354 O   0  0  0  0  0  0  0  0  0  0  0  0
   -0.4773   15.1803   38.4069 C   0  0  0  0  0  0  0  0  0  0  0  0
    3.2855   15.4564   35.8444 C   0  0  0  0  0  0  0  0  0  0  0  0
    0.9694   17.6775   39.2863 C   0  0  0  0  0  0  0  0  0  0  0  0
    0.6330   27.9391   33.1787 C   0  0  0  0  0  0  0  0  0  0  0  0
    1.7630   20.9703   40.5546 O   0  0  0  0  0  0  0  0  0  0  0  0
    3.1266   24.8354   35.8894 C   0  0  2  0  0  0  0  0  0  0  0  0
   -0.2722   13.5478   39.0133 C   0  0  0  0  0  0  0  0  0  0  0  0
    0.6204   17.7061   36.9075 O   0  0  0  0  0  0  0  0  0  0  0  0
    2.8866   22.7702   37.2755 C   0  0  0  0  0  0  0  0  0  0  0  0
    1.5174   18.6419   40.1245 C   0  0  2  0  0  0  0  0  0  0  0  0
    0.4899   18.5642   43.9360 C   0  0  0  0  0  0  0  0  0  0  0  0
    1.8028   14.9843   35.9594 O   0  0  0  0  0  0  0  0  0  0  0  0
    2.6220   25.2062   34.8498 C   0  0  0  0  0  0  0  0  0  0  0  0
    3.0690   22.0131   38.5213 C   0  0  0  0  0  0  0  0  0  0  0  0
    2.1936   23.9959   36.8096 C   0  0  0  0  0  0  0  0  0  0  0  0
    1.0599   27.3028   35.3354 C   0  0  0  0  0  0  0  0  0  0  0  0
    6.3803   25.7227   37.5147 H   0  0  0  0  0  0  0  0  0  0  0  0
    1.9739   12.6464   37.7260 H   0  0  0  0  0  0  0  0  0  0  0  0
    0.9294   12.6896   36.2123 H   0  0  0  0  0  0  0  0  0  0  0  0
    0.1363   14.3140   36.7072 H   0  0  0  0  0  0  0  0  0  0  0  0
    0.1251   25.9783   32.6002 H   0  0  0  0  0  0  0  0  0  0  0  0
    1.7765   26.4030   32.2323 H   0  0  0  0  0  0  0  0  0  0  0  0
    2.3412   20.1025   37.6673 H   0  0  0  0  0  0  0  0  0  0  0  0
   -0.5958   28.5744   34.7745 H   0  0  0  0  0  0  0  0  0  0  0  0
    0.9368   29.4021   34.7142 H   0  0  0  0  0  0  0  0  0  0  0  0
    0.8964   25.1609   34.9093 H   0  0  0  0  0  0  0  0  0  0  0  0
    2.4008   18.9362   42.0958 H   0  0  0  0  0  0  0  0  0  0  0  0
    2.1268   17.1615   41.5303 H   0  0  0  0  0  0  0  0  0  0  0  0
   -0.3607   17.4389   42.2518 H   0  0  0  0  0  0  0  0  0  0  0  0
    1.7965   15.7859   37.5497 H   0  0  0  0  0  0  0  0  0  0  0  0
   -0.8322   12.3852   37.3296 H   0  0  0  0  0  0  0  0  0  0  0  0
    0.1705   11.5610   38.3305 H   0  0  0  0  0  0  0  0  0  0  0  0
    1.8814   16.7414   38.3437 H   0  0  0  0  0  0  0  0  0  0  0  0
   -0.7110   15.8686   39.2325 H   0  0  0  0  0  0  0  0  0  0  0  0
   -1.3066   15.2423   37.6870 H   0  0  0  0  0  0  0  0  0  0  0  0
    3.7139   15.5681   36.8513 H   0  0  0  0  0  0  0  0  0  0  0  0
    3.8649   14.7109   35.2800 H   0  0  0  0  0  0  0  0  0  0  0  0
    3.3230   16.4231   35.3207 H   0  0  0  0  0  0  0  0  0  0  0  0
   -0.0846   17.9785   39.3791 H   0  0  0  0  0  0  0  0  0  0  0  0
    1.8179   17.0240   39.5374 H   0  0  0  0  0  0  0  0  0  0  0  0
    1.4252   28.5436   32.7130 H   0  0  0  0  0  0  0  0  0  0  0  0
   -0.3710   28.0276   32.7380 H   0  0  0  0  0  0  0  0  0  0  0  0
    3.5980   23.9940   35.3604 H   0  0  0  0  0  0  0  0  0  0  0  0
   -1.1875   13.2663   39.5547 H   0  0  0  0  0  0  0  0  0  0  0  0
    0.6225   13.5652   39.6532 H   0  0  0  0  0  0  0  0  0  0  0  0
    0.2885   18.5975   37.1820 H   0  0  0  0  0  0  0  0  0  0  0  0
    3.9271   22.9760   36.9837 H   0  0  0  0  0  0  0  0  0  0  0  0
    2.0848   22.1073   36.9183 H   0  0  0  0  0  0  0  0  0  0  0  0
    0.5065   18.9695   40.4085 H   0  0  0  0  0  0  0  0  0  0  0  0
    1.3418   19.1788   44.2623 H   0  0  0  0  0  0  0  0  0  0  0  0
    2.4042   24.2668   34.3205 H   0  0  0  0  0  0  0  0  0  0  0  0
    3.3758   25.9722   34.6152 H   0  0  0  0  0  0  0  0  0  0  0  0
    4.1478   21.8690   38.6810 H   0  0  0  0  0  0  0  0  0  0  0  0
    2.5909   22.6020   39.3180 H   0  0  0  0  0  0  0  0  0  0  0  0
    1.9049   24.6017   37.6811 H   0  0  0  0  0  0  0  0  0  0  0  0
    1.3007   23.7031   36.2375 H   0  0  0  0  0  0  0  0  0  0  0  0
    1.9771   27.6769   35.8138 H   0  0  0  0  0  0  0  0  0  0  0  0
    0.2808   26.9977   36.0495 H   0  0  0  0  0  0  0  0  0  0  0  0
  3  2  3  0
  4 27  1  0
  4 22  2  0
  5 15  1  0
  6 29  1  0
  6  5  1  0
  6 14  1  0
  7 21  1  0
  7 10  1  0
  8  4  1  0
  9 33  1  0
 10 30  1  0
 10 33  1  0
 11 13  1  0
 12 17  2  0
 12  1  1  0
 13 28  2  3
 14 16  1  0
 14 18  1  0
 15 24  1  0
 16 25  1  0
 16 20  1  0
 18 24  1  0
 19 29  1  0
 21  9  1  0
 23 30  1  0
 23  3  1  0
 23 32  1  0
 26 31  1  0
 27 20  1  0
 27 11  1  0
 28 12  1  0
 31  8  1  0
 32 26  1  0
  2 34  1  0
  5 35  1  0
  5 36  1  0
  6 37  1  1
  7 38  1  0
  7 39  1  0
  8 40  1  0
  9 41  1  0
  9 42  1  0
 10 43  1  0
 11 44  1  0
 11 45  1  0
 13 46  1  0
 14 47  1  1
 15 48  1  0
 15 49  1  0
 16 50  1  6
 18 51  1  0
 18 52  1  0
 19 53  1  0
 19 54  1  0
 19 55  1  0
 20 56  1  0
 20 57  1  0
 21 58  1  0
 21 59  1  0
 23 60  1  6
 24 61  1  0
 24 62  1  0
 25 63  1  0
 26 64  1  0
 26 65  1  0
 27 66  1  1
 28 67  1  0
 30 68  1  0
 30 69  1  0
 31 70  1  0
 31 71  1  0
 32 72  1  0
 32 73  1  0
 33 74  1  0
 33 75  1  0
M  CHG  2   1  -1  15   1
M  END
>  <mol_id>  (45) 
2026-09-18-6fnk-s0-n100-0045

>  <rmsd_to_ref>  (45) 


$$$$

     RDKit          3D

 88 90  0  0  0  0  0  0  0  0999 V2000
    2.7771   21.8530   36.2426 C   0  0  0  0  0  0  0  0  0  0  0  0
    2.6526   23.2953   35.8734 C   0  0  2  0  0  0  0  0  0  0  0  0
   -0.0007   16.5785   37.6022 C   0  0  0  0  0  0  0  0  0  0  0  0
    1.0995   17.4059   37.9687 C   0  0  0  0  0  0  0  0  0  0  0  0
    1.7815   18.8685   39.8857 C   0  0  2  0  0  0  0  0  0  0  0  0
    0.4878   28.8678   35.5885 C   0  0  0  0  0  0  0  0  0  0  0  0
    2.3886   22.1811   38.7132 C   0  0  0  0  0  0  0  0  0  0  0  0
    0.8987   18.3201   39.0171 N   0  0  0  0  0  0  0  0  0  0  0  0
    0.2307   28.3399   33.2186 C   0  0  1  0  0  0  0  0  0  0  0  0
    3.0223   23.8024   34.5326 C   0  0  1  0  0  0  0  0  0  0  0  0
   -0.5705   29.5265   33.5930 N   0  0  0  0  0  0  0  0  0  0  0  0
    4.3363   22.6764   41.2170 C   0  0  0  0  0  0  0  0  0  0  0  0
    2.1733   17.3005   37.2874 O   0  0  0  0  0  0  0  0  0  0  0  0
    1.6211   20.2037   40.2428 N   0  0  0  0  0  0  0  0  0  0  0  0
    1.9391   26.9680   34.9456 C   0  0  0  0  0  0  0  0  0  0  0  0
    1.5341   25.7382   35.1959 C   0  0  0  0  0  0  0  0  0  0  0  0
    0.4342   15.1073   39.5380 C   0  0  1  0  0  0  0  0  0  0  0  0
    0.3933   14.4111   40.7304 C   0  0  2  0  0  0  0  0  0  0  0  0
    2.8822   17.9420   40.3703 O   0  0  0  0  0  0  0  0  0  0  0  0
    0.3186   15.1379   43.2670 O   0  0  0  0  0  0  0  0  0  0  0  0
    2.8901   17.6075   41.8362 C   0  0  0  0  0  0  0  0  0  0  0  0
   -0.3503   13.3605   41.4171 C   0  0  0  0  0  0  0  0  0  0  0  0
    1.8396   24.6602   34.1659 C   0  0  0  0  0  0  0  0  0  0  0  0
    3.2501   22.0431   40.9832 C   0  0  0  0  0  0  0  0  0  0  0  0
    1.0535   28.0594   34.3759 C   0  0  2  0  0  0  0  0  0  0  0  0
   -1.8928   15.4385   39.9052 O   0  0  0  0  0  0  0  0  0  0  0  0
   -0.3183   27.0111   33.1621 C   0  0  0  0  0  0  0  0  0  0  0  0
    3.9324   24.1236   35.5386 C   0  0  0  0  0  0  0  0  0  0  0  0
   -1.0347   14.9598   42.9454 C   0  0  0  0  0  0  0  0  0  0  0  0
   -1.1205   13.4188   42.7117 C   0  0  0  0  0  0  0  0  0  0  0  0
    0.4143   15.1257   38.1410 C   0  0  0  0  0  0  0  0  0  0  0  0
   -0.5472   15.4792   40.3722 C   0  0  2  0  0  0  0  0  0  0  0  0
   -0.1611   29.9912   34.9791 C   0  0  0  0  0  0  0  0  0  0  0  0
    2.3135   21.7574   37.6115 C   0  0  0  0  0  0  0  0  0  0  0  0
    2.4163   21.3913   40.0202 C   0  0  1  0  0  0  0  0  0  0  0  0
    3.8252   21.5274   36.1691 H   0  0  0  0  0  0  0  0  0  0  0  0
    2.1913   21.2096   35.5696 H   0  0  0  0  0  0  0  0  0  0  0  0
    1.7773   23.3652   36.5360 H   0  0  0  0  0  0  0  0  0  0  0  0
   -0.9277   16.9242   38.0828 H   0  0  0  0  0  0  0  0  0  0  0  0
   -0.1983   16.5895   36.5201 H   0  0  0  0  0  0  0  0  0  0  0  0
    1.1471   18.5555   40.7280 H   0  0  0  0  0  0  0  0  0  0  0  0
   -0.2311   28.2633   36.1610 H   0  0  0  0  0  0  0  0  0  0  0  0
    1.2697   29.1648   36.3031 H   0  0  0  0  0  0  0  0  0  0  0  0
    3.3174   22.7703   38.7231 H   0  0  0  0  0  0  0  0  0  0  0  0
    1.3793   22.6102   38.7974 H   0  0  0  0  0  0  0  0  0  0  0  0
   -0.0777   18.6218   39.1458 H   0  0  0  0  0  0  0  0  0  0  0  0
    0.5793   28.6499   32.2224 H   0  0  0  0  0  0  0  0  0  0  0  0
    3.3012   23.4684   33.5223 H   0  0  0  0  0  0  0  0  0  0  0  0
   -0.4040   30.2824   32.9135 H   0  0  0  0  0  0  0  0  0  0  0  0
   -1.5709   29.2814   33.5926 H   0  0  0  0  0  0  0  0  0  0  0  0
    4.5664   23.0159   42.2377 H   0  0  0  0  0  0  0  0  0  0  0  0
    5.0406   22.8816   40.3973 H   0  0  0  0  0  0  0  0  0  0  0  0
    0.7091   20.4500   39.8322 H   0  0  0  0  0  0  0  0  0  0  0  0
    1.8899   20.0812   41.2296 H   0  0  0  0  0  0  0  0  0  0  0  0
    2.3123   27.3585   35.9038 H   0  0  0  0  0  0  0  0  0  0  0  0
    2.6200   26.7927   34.0997 H   0  0  0  0  0  0  0  0  0  0  0  0
    2.0000   25.4271   36.1426 H   0  0  0  0  0  0  0  0  0  0  0  0
    0.4363   25.8073   35.2030 H   0  0  0  0  0  0  0  0  0  0  0  0
    1.3423   15.3569   38.9696 H   0  0  0  0  0  0  0  0  0  0  0  0
    1.2824   14.0053   41.2352 H   0  0  0  0  0  0  0  0  0  0  0  0
    0.4180   15.2053   44.2497 H   0  0  0  0  0  0  0  0  0  0  0  0
    2.5642   18.4848   42.4143 H   0  0  0  0  0  0  0  0  0  0  0  0
    2.2039   16.7687   42.0246 H   0  0  0  0  0  0  0  0  0  0  0  0
    3.9080   17.3244   42.1422 H   0  0  0  0  0  0  0  0  0  0  0  0
   -1.0910   13.0249   40.6764 H   0  0  0  0  0  0  0  0  0  0  0  0
    0.5110   12.7814   41.7814 H   0  0  0  0  0  0  0  0  0  0  0  0
    2.0475   25.1475   33.2020 H   0  0  0  0  0  0  0  0  0  0  0  0
    0.9615   23.9995   34.1161 H   0  0  0  0  0  0  0  0  0  0  0  0
    2.7258   21.9652   41.9472 H   0  0  0  0  0  0  0  0  0  0  0  0
    1.8253   28.0792   33.5923 H   0  0  0  0  0  0  0  0  0  0  0  0
   -2.5113   15.4670   40.6777 H   0  0  0  0  0  0  0  0  0  0  0  0
   -0.5651   26.6728   34.1792 H   0  0  0  0  0  0  0  0  0  0  0  0
   -1.2298   27.0169   32.5464 H   0  0  0  0  0  0  0  0  0  0  0  0
    0.4203   26.3278   32.7175 H   0  0  0  0  0  0  0  0  0  0  0  0
    4.9212   23.6422   35.5607 H   0  0  0  0  0  0  0  0  0  0  0  0
    4.3783   25.0553   35.9171 H   0  0  0  0  0  0  0  0  0  0  0  0
   -1.6859   15.2740   43.7743 H   0  0  0  0  0  0  0  0  0  0  0  0
   -1.3644   15.5554   42.0814 H   0  0  0  0  0  0  0  0  0  0  0  0
   -2.1579   13.0720   42.5955 H   0  0  0  0  0  0  0  0  0  0  0  0
   -0.7428   12.7847   43.5274 H   0  0  0  0  0  0  0  0  0  0  0  0
   -0.3139   14.3845   37.7800 H   0  0  0  0  0  0  0  0  0  0  0  0
    1.4204   14.8830   37.7684 H   0  0  0  0  0  0  0  0  0  0  0  0
   -0.9035   16.3387   40.9591 H   0  0  0  0  0  0  0  0  0  0  0  0
    0.5315   30.8428   34.9091 H   0  0  0  0  0  0  0  0  0  0  0  0
   -1.0277   30.3277   35.5670 H   0  0  0  0  0  0  0  0  0  0  0  0
    1.2323   21.8733   37.4456 H   0  0  0  0  0  0  0  0  0  0  0  0
    3.1209   21.0438   37.8330 H   0  0  0  0  0  0  0  0  0  0  0  0
    1.5981   22.0128   40.4130 H   0  0  0  0  0  0  0  0  0  0  0  0
  1 34  1  0
  2  1  1  0
  3  4  1  0
  3 31  1  0
  4  8  1  0
  5  8  1  0
  5 19  1  0
  5 14  1  0
  9 27  1  0
  9 11  1  0
  9 25  1  0
 10 23  1  0
 10 28  1  0
 10  2  1  0
 11 33  1  0
 13  4  2  0
 15 16  1  0
 17 31  1  0
 17 32  1  0
 17 18  1  0
 18 22  1  0
 19 21  1  0
 22 30  1  0
 23 16  1  0
 24 12  2  3
 25 15  1  0
 25  6  1  0
 28  2  1  0
 29 20  1  0
 30 29  1  0
 32 26  1  0
 32 18  1  0
 33  6  1  0
 34  7  1  0
 35  7  1  0
 35 14  1  0
 35 24  1  0
  1 36  1  0
  1 37  1  0
  2 38  1  1
  3 39  1  0
  3 40  1  0
  5 41  1  1
  6 42  1  0
  6 43  1  0
  7 44  1  0
  7 45  1  0
  8 46  1  0
  9 47  1  6
 10 48  1  6
 11 49  1  0
 11 50  1  0
 12 51  1  0
 12 52  1  0
 14 53  1  0
 14 54  1  0
 15 55  1  0
 15 56  1  0
 16 57  1  0
 16 58  1  0
 17 59  1  1
 18 60  1  1
 20 61  1  0
 21 62  1  0
 21 63  1  0
 21 64  1  0
 22 65  1  0
 22 66  1  0
 23 67  1  0
 23 68  1  0
 24 69  1  0
 25 70  1  6
 26 71  1  0
 27 72  1  0
 27 73  1  0
 27 74  1  0
 28 75  1  0
 28 76  1  0
 29 77  1  0
 29 78  1  0
 30 79  1  0
 30 80  1  0
 31 81  1  0
 31 82  1  0
 32 83  1  1
 33 84  1  0
 33 85  1  0
 34 86  1  0
 34 87  1  0
 35 88  1  6
M  CHG  2  11   1  14   1
M  END
>  <mol_id>  (46) 
2026-09-18-6fnk-s0-n100-0046

>  <rmsd_to_ref>  (46) 


$$$$

     RDKit          3D

 55 57  0  0  0  0  0  0  0  0999 V2000
    1.6795   25.0059   34.0010 C   0  0  0  0  0  0  0  0  0  0  0  0
    3.1345   22.3008   36.0916 C   0  0  0  0  0  0  0  0  0  0  0  0
    5.8753   20.4811   42.8355 C   0  0  0  0  0  0  0  0  0  0  0  0
    0.0584   17.3809   39.5911 C   0  0  0  0  0  0  0  0  0  0  0  0
    3.2506   20.4748   39.7825 S   0  0  0  0  0  0  0  0  0  0  0  0
    2.6700   25.0118   31.8968 C   0  0  0  0  0  0  0  0  0  0  0  0
   -2.0292   16.1347   39.4959 C   0  0  0  0  0  0  0  0  0  0  0  0
    2.1735   18.5691   38.3391 O   0  0  0  0  0  0  0  0  0  0  0  0
    0.3388   16.6946   40.5844 C   0  0  0  0  0  0  0  0  0  0  0  0
    2.4223   21.5265   37.1320 C   0  0  0  0  0  0  0  0  0  0  0  0
    2.2398   18.9084   39.5937 C   0  0  2  0  0  0  0  0  0  0  0  0
    3.0990   23.8135   32.5397 C   0  0  0  0  0  0  0  0  0  0  0  0
    2.7463   23.9483   33.9777 C   0  0  0  0  0  0  0  0  0  0  0  0
   -1.1347   17.0606   38.9720 C   0  0  0  0  0  0  0  0  0  0  0  0
   -1.7073   15.5061   40.6580 C   0  0  0  0  0  0  0  0  0  0  0  0
    2.5702   22.4844   34.5886 C   0  0  0  0  0  0  0  0  0  0  0  0
    3.8564   19.2314   43.3824 C   0  0  0  0  0  0  0  0  0  0  0  0
   -0.5474   15.6536   41.2498 C   0  0  0  0  0  0  0  0  0  0  0  0
    5.6962   19.1020   44.9031 O   0  0  0  0  0  0  0  0  0  0  0  0
    5.2132   19.5692   43.6078 C   0  0  0  0  0  0  0  0  0  0  0  0
    2.7500   20.0564   36.7568 O   0  0  0  0  0  0  0  0  0  0  0  0
    3.2928   19.6594   42.2293 C   0  0  0  0  0  0  0  0  0  0  0  0
    1.7392   25.7438   32.6997 C   0  0  0  0  0  0  0  0  0  0  0  0
    4.0490   20.4251   41.2617 C   0  0  0  0  0  0  0  0  0  0  0  0
    1.0710   18.8738   39.5015 C   0  0  2  0  0  0  0  0  0  0  0  0
   -2.5328   14.5458   41.4827 O   0  0  0  0  0  0  0  0  0  0  0  0
    5.3194   20.9127   41.6284 C   0  0  0  0  0  0  0  0  0  0  0  0
    0.6912   24.5381   34.1211 H   0  0  0  0  0  0  0  0  0  0  0  0
    1.8407   25.6962   34.8423 H   0  0  0  0  0  0  0  0  0  0  0  0
    3.2517   23.3166   36.4972 H   0  0  0  0  0  0  0  0  0  0  0  0
    4.0205   21.6723   35.9182 H   0  0  0  0  0  0  0  0  0  0  0  0
    6.8478   20.8762   43.1645 H   0  0  0  0  0  0  0  0  0  0  0  0
    3.5480   25.6454   31.7031 H   0  0  0  0  0  0  0  0  0  0  0  0
    2.1667   24.7343   30.9588 H   0  0  0  0  0  0  0  0  0  0  0  0
   -2.9767   15.9153   38.9819 H   0  0  0  0  0  0  0  0  0  0  0  0
    1.3314   16.8553   41.0305 H   0  0  0  0  0  0  0  0  0  0  0  0
    2.7997   21.7720   38.1357 H   0  0  0  0  0  0  0  0  0  0  0  0
    1.3430   21.7355   37.1659 H   0  0  0  0  0  0  0  0  0  0  0  0
    2.7050   18.4086   40.4561 H   0  0  0  0  0  0  0  0  0  0  0  0
    2.5846   22.9446   32.1033 H   0  0  0  0  0  0  0  0  0  0  0  0
    4.1808   23.6618   32.4108 H   0  0  0  0  0  0  0  0  0  0  0  0
    3.4841   24.3327   34.6974 H   0  0  0  0  0  0  0  0  0  0  0  0
   -1.3871   17.5594   38.0246 H   0  0  0  0  0  0  0  0  0  0  0  0
    1.4969   22.2439   34.5951 H   0  0  0  0  0  0  0  0  0  0  0  0
    3.1639   21.8115   33.9523 H   0  0  0  0  0  0  0  0  0  0  0  0
    3.2837   18.6445   44.1155 H   0  0  0  0  0  0  0  0  0  0  0  0
   -0.2451   15.0814   42.1392 H   0  0  0  0  0  0  0  0  0  0  0  0
    5.1711   18.4387   45.4173 H   0  0  0  0  0  0  0  0  0  0  0  0
    2.9569   19.5444   37.5785 H   0  0  0  0  0  0  0  0  0  0  0  0
    2.2390   19.4207   42.0231 H   0  0  0  0  0  0  0  0  0  0  0  0
    2.0913   26.7741   32.8561 H   0  0  0  0  0  0  0  0  0  0  0  0
    0.7511   25.8159   32.2218 H   0  0  0  0  0  0  0  0  0  0  0  0
    0.3045   19.5521   39.9045 H   0  0  0  0  0  0  0  0  0  0  0  0
   -2.1608   14.1634   42.3167 H   0  0  0  0  0  0  0  0  0  0  0  0
    5.8608   21.6167   40.9793 H   0  0  0  0  0  0  0  0  0  0  0  0
  1 13  1  0
  2 10  1  0
  3 20  1  0
  4  9  2  0
  5 24  1  0
  6 12  1  0
  6 23  1  0
  7 15  1  0
  8 25  1  0
  8 11  1  0
  9 18  1  0
 11  5  1  0
 12 13  1  0
 13 16  1  0
 14  7  2  0
 14  4  1  0
 15 18  2  0
 15 26  1  0
 16  2  1  0
 17 20  2  0
 20 19  1  0
 21 10  1  0
 22 17  1  0
 23  1  1  0
 24 27  1  0
 24 22  2  0
 25  4  1  0
 25 11  1  0
 27  3  2  0
  1 28  1  0
  1 29  1  0
  2 30  1  0
  2 31  1  0
  3 32  1  0
  6 33  1  0
  6 34  1  0
  7 35  1  0
  9 36  1  0
 10 37  1  0
 10 38  1  0
 11 39  1  1
 12 40  1  0
 12 41  1  0
 13 42  1  0
 14 43  1  0
 16 44  1  0
 16 45  1  0
 17 46  1  0
 18 47  1  0
 19 48  1  0
 21 49  1  0
 22 50  1  0
 23 51  1  0
 23 52  1  0
 25 53  1  6
 26 54  1  0
 27 55  1  0
M  END
>  <mol_id>  (47) 
2026-09-18-6fnk-s0-n100-0047

>  <rmsd_to_ref>  (47) 


$$$$

     RDKit          3D

 70 72  0  0  0  0  0  0  0  0999 V2000
    2.4784   20.2488   40.6902 N   0  0  0  0  0  0  0  0  0  0  0  0
   -0.1932   15.8168   39.5814 S   0  0  0  0  0  0  0  0  0  0  0  0
    3.2227   20.6172   41.8879 C   0  0  0  0  0  0  0  0  0  0  0  0
    1.3372   19.2393   41.0053 C   0  0  1  0  0  0  0  0  0  0  0  0
    1.3817   18.0072   38.7329 O   0  0  0  0  0  0  0  0  0  0  0  0
   -1.8655   17.0293   37.4100 C   0  0  0  0  0  0  0  0  0  0  0  0
   -0.4561   21.4567   33.7347 C   0  0  0  0  0  0  0  0  0  0  0  0
    0.1861   18.1586   44.9496 C   0  0  0  0  0  0  0  0  0  0  0  0
   -0.9451   14.8716   37.7777 O   0  0  0  0  0  0  0  0  0  0  0  0
   -0.7602   21.1768   32.3760 C   0  0  0  0  0  0  0  0  0  0  0  0
   -0.8509   16.0308   37.9617 C   0  0  0  0  0  0  0  0  0  0  0  0
    0.0205   24.2904   33.6171 C   0  0  1  0  0  0  0  0  0  0  0  0
    0.3655   26.8878   33.7151 N   0  0  0  0  0  0  0  0  0  0  0  0
    6.1254   21.9220   38.1576 F   0  0  0  0  0  0  0  0  0  0  0  0
    0.8191   19.2929   42.2174 N   0  0  0  0  0  0  0  0  0  0  0  0
   -0.0261   22.7495   34.2444 C   0  0  2  0  0  0  0  0  0  0  0  0
    2.0368   21.4953   38.6014 C   0  0  0  0  0  0  0  0  0  0  0  0
    4.2576   21.1128   39.4585 C   0  0  0  0  0  0  0  0  0  0  0  0
   -1.5313   19.7619   43.9909 C   0  0  0  0  0  0  0  0  0  0  0  0
   -0.2822   17.3885   41.7924 N   0  0  0  0  0  0  0  0  0  0  0  0
   -0.8911   18.4167   43.8816 C   0  0  0  0  0  0  0  0  0  0  0  0
   -0.9474   23.4524   32.5988 C   0  0  0  0  0  0  0  0  0  0  0  0
    3.9402   22.3032   37.3729 C   0  0  0  0  0  0  0  0  0  0  0  0
   -1.3166   22.5126   31.9055 C   0  0  0  0  0  0  0  0  0  0  0  0
    4.7856   21.7939   38.3163 C   0  0  0  0  0  0  0  0  0  0  0  0
   -0.0739   25.3434   33.6901 C   0  0  1  0  0  0  0  0  0  0  0  0
   -0.3627   26.2387   32.2077 S   0  0  0  0  0  0  0  0  0  0  0  0
    2.5767   22.1948   37.5332 C   0  0  0  0  0  0  0  0  0  0  0  0
    1.3720   22.4153   34.6714 C   0  0  0  0  0  0  0  0  0  0  0  0
    1.0175   18.2516   40.0185 C   0  0  0  0  0  0  0  0  0  0  0  0
   -0.0226   18.4003   42.5315 C   0  0  0  0  0  0  0  0  0  0  0  0
   -0.2596   27.8927   34.4642 C   0  0  0  0  0  0  0  0  0  0  0  0
    2.9479   20.9840   39.5562 C   0  0  0  0  0  0  0  0  0  0  0  0
    0.1949   17.2579   40.6483 N   0  0  0  0  0  0  0  0  0  0  0  0
    2.6488   20.3265   42.7801 H   0  0  0  0  0  0  0  0  0  0  0  0
    4.1928   20.0987   41.8909 H   0  0  0  0  0  0  0  0  0  0  0  0
    3.3882   21.7047   41.8968 H   0  0  0  0  0  0  0  0  0  0  0  0
    2.0807   18.5081   41.3555 H   0  0  0  0  0  0  0  0  0  0  0  0
   -2.4067   17.5006   38.2436 H   0  0  0  0  0  0  0  0  0  0  0  0
   -1.3406   17.8026   36.8297 H   0  0  0  0  0  0  0  0  0  0  0  0
   -2.5801   16.5043   36.7590 H   0  0  0  0  0  0  0  0  0  0  0  0
    0.3444   20.7531   34.0069 H   0  0  0  0  0  0  0  0  0  0  0  0
   -1.4600   21.3923   34.1797 H   0  0  0  0  0  0  0  0  0  0  0  0
   -0.2660   18.2256   45.9501 H   0  0  0  0  0  0  0  0  0  0  0  0
    0.6116   17.1544   44.8060 H   0  0  0  0  0  0  0  0  0  0  0  0
    0.9829   18.9112   44.8562 H   0  0  0  0  0  0  0  0  0  0  0  0
    0.1419   20.8967   31.8123 H   0  0  0  0  0  0  0  0  0  0  0  0
   -1.4495   20.3309   32.2369 H   0  0  0  0  0  0  0  0  0  0  0  0
    0.9324   24.8621   33.8444 H   0  0  0  0  0  0  0  0  0  0  0  0
   -0.9179   22.9988   34.8382 H   0  0  0  0  0  0  0  0  0  0  0  0
    0.9518   21.3448   38.7022 H   0  0  0  0  0  0  0  0  0  0  0  0
    4.9248   20.7078   40.2336 H   0  0  0  0  0  0  0  0  0  0  0  0
   -1.6941   20.0055   45.0511 H   0  0  0  0  0  0  0  0  0  0  0  0
   -0.8743   20.5186   43.5374 H   0  0  0  0  0  0  0  0  0  0  0  0
   -2.4972   19.7521   43.4645 H   0  0  0  0  0  0  0  0  0  0  0  0
   -0.9078   16.6555   42.1560 H   0  0  0  0  0  0  0  0  0  0  0  0
   -1.7112   17.6874   43.9562 H   0  0  0  0  0  0  0  0  0  0  0  0
   -1.8596   23.5218   33.2095 H   0  0  0  0  0  0  0  0  0  0  0  0
   -0.2395   23.7046   31.7954 H   0  0  0  0  0  0  0  0  0  0  0  0
    4.3495   22.8017   36.4818 H   0  0  0  0  0  0  0  0  0  0  0  0
   -0.9840   22.6869   30.8715 H   0  0  0  0  0  0  0  0  0  0  0  0
   -2.4128   22.4583   31.9785 H   0  0  0  0  0  0  0  0  0  0  0  0
   -0.2844   24.8360   34.6431 H   0  0  0  0  0  0  0  0  0  0  0  0
    1.9059   22.6705   36.8025 H   0  0  0  0  0  0  0  0  0  0  0  0
    1.4196   22.3723   35.7696 H   0  0  0  0  0  0  0  0  0  0  0  0
    1.6596   21.4393   34.2535 H   0  0  0  0  0  0  0  0  0  0  0  0
    2.0623   23.1891   34.3046 H   0  0  0  0  0  0  0  0  0  0  0  0
   -0.1731   27.6590   35.5356 H   0  0  0  0  0  0  0  0  0  0  0  0
    0.2257   28.8584   34.2593 H   0  0  0  0  0  0  0  0  0  0  0  0
   -1.3223   27.9501   34.1860 H   0  0  0  0  0  0  0  0  0  0  0  0
  1  3  1  0
  2 34  1  0
  4  1  1  0
  4 15  1  0
  5 30  2  0
  6 11  1  0
  7 16  1  0
  9 11  2  0
 10  7  1  0
 11  2  1  0
 12 22  1  0
 12 26  1  0
 12 16  1  0
 13 26  1  0
 13 32  1  0
 14 25  1  0
 15 31  2  0
 16 29  1  0
 17 33  2  0
 18 33  1  0
 20 31  1  0
 21 19  1  0
 21  8  1  0
 23 28  2  0
 23 25  1  0
 24 10  1  0
 24 22  1  0
 25 18  2  0
 26 27  1  0
 27 13  1  0
 28 17  1  0
 30 34  1  0
 30  4  1  0
 31 21  1  0
 33  1  1  0
 34 20  1  0
  3 35  1  0
  3 36  1  0
  3 37  1  0
  4 38  1  6
  6 39  1  0
  6 40  1  0
  6 41  1  0
  7 42  1  0
  7 43  1  0
  8 44  1  0
  8 45  1  0
  8 46  1  0
 10 47  1  0
 10 48  1  0
 12 49  1  6
 16 50  1  1
 17 51  1  0
 18 52  1  0
 19 53  1  0
 19 54  1  0
 19 55  1  0
 20 56  1  0
 21 57  1  0
 22 58  1  0
 22 59  1  0
 23 60  1  0
 24 61  1  0
 24 62  1  0
 26 63  1  1
 28 64  1  0
 29 65  1  0
 29 66  1  0
 29 67  1  0
 32 68  1  0
 32 69  1  0
 32 70  1  0
M  END
>  <mol_id>  (48) 
2026-09-18-6fnk-s0-n100-0048

>  <rmsd_to_ref>  (48) 


$$$$

     RDKit          3D

 50 50  0  0  0  0  0  0  0  0999 V2000
    1.5837   17.4644   37.2176 N   0  0  0  0  0  0  0  0  0  0  0  0
    2.7565   22.1234   37.2291 C   0  0  0  0  0  0  0  0  0  0  0  0
   -0.6432   16.7167   39.9476 C   0  0  0  0  0  0  0  0  0  0  0  0
   -1.9243   16.8732   37.9242 C   0  0  0  0  0  0  0  0  0  0  0  0
    6.7895   22.2073   37.3523 C   0  0  0  0  0  0  0  0  0  0  0  0
    3.4440   22.4664   35.8566 C   0  0  0  0  0  0  0  0  0  0  0  0
   -1.8252   16.5462   39.2935 C   0  0  0  0  0  0  0  0  0  0  0  0
    7.3713   22.0654   38.6014 N   0  0  0  0  0  0  0  0  0  0  0  0
    1.0288   22.5256   40.3648 C   0  0  0  0  0  0  0  0  0  0  0  0
    5.3008   22.5668   37.4448 C   0  0  0  0  0  0  0  0  0  0  0  0
    3.7294   23.4455   34.7446 C   0  0  0  0  0  0  0  0  0  0  0  0
    1.6291   22.3308   37.3667 O   0  0  0  0  0  0  0  0  0  0  0  0
    0.5702   16.8174   39.1869 C   0  0  0  0  0  0  0  0  0  0  0  0
    5.4682   21.0266   39.5139 C   0  0  0  0  0  0  0  0  0  0  0  0
    3.2021   21.6129   38.5771 C   0  0  2  0  0  0  0  0  0  0  0  0
    1.7668   16.6925   39.8623 C   0  0  0  0  0  0  0  0  0  0  0  0
   -2.8389   15.8263   39.8790 F   0  0  0  0  0  0  0  0  0  0  0  0
    6.8091   21.5960   39.6626 C   0  0  0  0  0  0  0  0  0  0  0  0
    4.7058   21.5235   38.4613 C   0  0  1  0  0  0  0  0  0  0  0  0
    0.2786   22.2356   41.6896 C   0  0  0  0  0  0  0  0  0  0  0  0
    2.1369   21.1870   39.8720 S   0  0  0  0  0  0  0  0  0  0  0  0
    0.4523   17.1468   37.8813 C   0  0  0  0  0  0  0  0  0  0  0  0
   -0.7383   17.2743   37.2184 C   0  0  0  0  0  0  0  0  0  0  0  0
    1.5413   17.7218   36.2212 H   0  0  0  0  0  0  0  0  0  0  0  0
    2.4896   17.4493   37.7075 H   0  0  0  0  0  0  0  0  0  0  0  0
   -0.6184   16.7766   41.0457 H   0  0  0  0  0  0  0  0  0  0  0  0
   -2.8930   16.8218   37.4057 H   0  0  0  0  0  0  0  0  0  0  0  0
    7.3136   23.0054   36.8060 H   0  0  0  0  0  0  0  0  0  0  0  0
    6.8727   21.2433   36.8291 H   0  0  0  0  0  0  0  0  0  0  0  0
    4.4812   22.2187   36.1267 H   0  0  0  0  0  0  0  0  0  0  0  0
    2.5106   22.1899   35.3445 H   0  0  0  0  0  0  0  0  0  0  0  0
    0.2861   22.6771   39.5676 H   0  0  0  0  0  0  0  0  0  0  0  0
    1.6469   23.4210   40.5265 H   0  0  0  0  0  0  0  0  0  0  0  0
    5.1710   23.5927   37.8199 H   0  0  0  0  0  0  0  0  0  0  0  0
    4.8000   22.5296   36.4661 H   0  0  0  0  0  0  0  0  0  0  0  0
    4.1007   24.3882   35.1726 H   0  0  0  0  0  0  0  0  0  0  0  0
    4.4899   23.0238   34.0710 H   0  0  0  0  0  0  0  0  0  0  0  0
    2.8055   23.6380   34.1796 H   0  0  0  0  0  0  0  0  0  0  0  0
    5.5780   19.9420   39.3667 H   0  0  0  0  0  0  0  0  0  0  0  0
    4.9256   21.3051   40.4293 H   0  0  0  0  0  0  0  0  0  0  0  0
    3.2466   22.6456   38.9535 H   0  0  0  0  0  0  0  0  0  0  0  0
    1.5891   16.7866   40.9438 H   0  0  0  0  0  0  0  0  0  0  0  0
    2.2080   15.7080   39.6476 H   0  0  0  0  0  0  0  0  0  0  0  0
    2.4574   17.4833   39.5340 H   0  0  0  0  0  0  0  0  0  0  0  0
    7.3155   21.6223   40.6388 H   0  0  0  0  0  0  0  0  0  0  0  0
    4.8889   20.5582   37.9667 H   0  0  0  0  0  0  0  0  0  0  0  0
    0.9160   22.5164   42.5410 H   0  0  0  0  0  0  0  0  0  0  0  0
   -0.6522   22.8210   41.7196 H   0  0  0  0  0  0  0  0  0  0  0  0
    0.0395   21.1634   41.7485 H   0  0  0  0  0  0  0  0  0  0  0  0
   -0.7853   17.6662   36.1917 H   0  0  0  0  0  0  0  0  0  0  0  0
  1 22  1  0
  2 12  2  0
  4  7  1  0
  5  8  1  0
  6  2  1  0
  7 17  1  0
  7  3  2  0
  8 18  2  0
  9 20  1  0
 10  5  1  0
 10 19  1  0
 11  6  1  0
 13  3  1  0
 13 16  1  0
 14 18  1  0
 15  2  1  0
 15 21  1  0
 19 15  1  0
 19 14  1  0
 21  9  1  0
 22 13  2  0
 23  4  2  0
 23 22  1  0
  1 24  1  0
  1 25  1  0
  3 26  1  0
  4 27  1  0
  5 28  1  0
  5 29  1  0
  6 30  1  0
  6 31  1  0
  9 32  1  0
  9 33  1  0
 10 34  1  0
 10 35  1  0
 11 36  1  0
 11 37  1  0
 11 38  1  0
 14 39  1  0
 14 40  1  0
 15 41  1  1
 16 42  1  0
 16 43  1  0
 16 44  1  0
 18 45  1  0
 19 46  1  6
 20 47  1  0
 20 48  1  0
 20 49  1  0
 23 50  1  0
M  END
>  <mol_id>  (49) 
2026-09-18-6fnk-s0-n100-0049

>  <rmsd_to_ref>  (49) 


$$$$

     RDKit          3D

 29 29  0  0  0  0  0  0  0  0999 V2000
    2.8819   20.9627   38.9911 C   0  0  0  0  0  0  0  0  0  0  0  0
    0.7690   21.5014   42.2801 C   0  0  0  0  0  0  0  0  0  0  0  0
    2.7541   20.8339   34.8949 C   0  0  0  0  0  0  0  0  0  0  0  0
    1.7692   22.0180   34.5915 C   0  0  0  0  0  0  0  0  0  0  0  0
    2.4256   21.4451   37.5810 C   0  0  0  0  0  0  0  0  0  0  0  0
    2.0306   23.4068   34.5713 C   0  0  0  0  0  0  0  0  0  0  0  0
    1.8343   20.1690   41.6776 S   0  0  0  0  0  0  0  0  0  0  0  0
    3.7014   21.4305   36.1967 S   0  0  0  0  0  0  0  0  0  0  0  0
    3.3335   20.7001   42.9017 C   0  0  0  0  0  0  0  0  0  0  0  0
    2.1372   20.2027   37.6781 C   0  0  0  0  0  0  0  0  0  0  0  0
    2.6076   22.5797   33.5112 C   0  0  0  0  0  0  0  0  0  0  0  0
    3.9411   20.7979   39.2377 H   0  0  0  0  0  0  0  0  0  0  0  0
    2.7139   21.1750   40.0573 H   0  0  0  0  0  0  0  0  0  0  0  0
    0.8240   21.5471   43.3778 H   0  0  0  0  0  0  0  0  0  0  0  0
    1.1045   22.4594   41.8560 H   0  0  0  0  0  0  0  0  0  0  0  0
   -0.2694   21.3080   41.9728 H   0  0  0  0  0  0  0  0  0  0  0  0
    3.3828   20.6105   34.0202 H   0  0  0  0  0  0  0  0  0  0  0  0
    2.2356   19.8941   35.1355 H   0  0  0  0  0  0  0  0  0  0  0  0
    0.8240   21.6012   34.9695 H   0  0  0  0  0  0  0  0  0  0  0  0
    1.8824   22.3848   37.4021 H   0  0  0  0  0  0  0  0  0  0  0  0
    1.2195   24.1106   34.3328 H   0  0  0  0  0  0  0  0  0  0  0  0
    2.4452   24.1199   35.2990 H   0  0  0  0  0  0  0  0  0  0  0  0
    2.9738   20.7050   43.9413 H   0  0  0  0  0  0  0  0  0  0  0  0
    4.1599   19.9808   42.8030 H   0  0  0  0  0  0  0  0  0  0  0  0
    3.6884   21.7057   42.6318 H   0  0  0  0  0  0  0  0  0  0  0  0
    1.0849   19.8908   37.7529 H   0  0  0  0  0  0  0  0  0  0  0  0
    2.3649   19.3111   37.0754 H   0  0  0  0  0  0  0  0  0  0  0  0
    3.6894   22.3819   33.4855 H   0  0  0  0  0  0  0  0  0  0  0  0
    2.5907   22.5755   32.4113 H   0  0  0  0  0  0  0  0  0  0  0  0
  3  8  1  0
  4  6  1  0
  4  3  1  0
  5  1  1  0
  7  2  1  0
  7  9  1  0
  8  5  1  0
 10  5  1  0
 10  1  1  0
 11  4  1  0
 11  6  1  0
  1 12  1  0
  1 13  1  0
  2 14  1  0
  2 15  1  0
  2 16  1  0
  3 17  1  0
  3 18  1  0
  4 19  1  0
  5 20  1  0
  6 21  1  0
  6 22  1  0
  9 23  1  0
  9 24  1  0
  9 25  1  0
 10 26  1  0
 10 27  1  0
 11 28  1  0
 11 29  1  0
M  END
>  <mol_id>  (50) 
2026-09-18-6fnk-s0-n100-0050

>  <rmsd_to_ref>  (50) 


$$$$

     RDKit          3D

 49 48  0  0  0  0  0  0  0  0999 V2000
    3.1062   22.0648   37.9895 C   0  0  0  0  0  0  0  0  0  0  0  0
    1.2349   17.3454   36.4896 O   0  0  0  0  0  0  0  0  0  0  0  0
    3.2062   20.7851   39.1970 N   0  0  0  0  0  0  0  0  0  0  0  0
    1.7133   27.6407   34.5817 O   0  0  0  0  0  0  0  0  0  0  0  0
    2.4126   23.2014   36.5040 C   0  0  0  0  0  0  0  0  0  0  0  0
    4.8502   23.0037   41.4966 C   0  0  0  0  0  0  0  0  0  0  0  0
    3.4120   25.0950   35.7230 C   0  0  0  0  0  0  0  0  0  0  0  0
    4.8139   22.4717   40.1275 C   0  0  2  0  0  0  0  0  0  0  0  0
    3.8857   23.5192   39.1114 S   0  0  0  0  0  0  0  0  0  0  0  0
    2.3229   19.7598   39.1202 C   0  0  0  0  0  0  0  0  0  0  0  0
    2.7356   25.5550   34.4115 C   0  0  0  0  0  0  0  0  0  0  0  0
   -1.3068   16.9067   39.9995 O   0  0  0  0  0  0  0  0  0  0  0  0
    1.7168   19.5567   40.2433 O   0  0  0  0  0  0  0  0  0  0  0  0
    0.6436   15.9116   38.6969 C   0  0  0  0  0  0  0  0  0  0  0  0
   -0.5000   15.9396   37.9752 O   0  0  0  0  0  0  0  0  0  0  0  0
   -1.3972   14.5318   39.8223 O   0  0  0  0  0  0  0  0  0  0  0  0
   -1.5480   15.8219   39.1446 S   0  0  0  0  0  4  0  0  0  0  0  0
    3.9726   21.2281   40.4387 N   0  0  0  0  0  0  0  0  0  0  0  0
   -2.8743   15.8857   38.5088 O   0  0  0  0  0  0  0  0  0  0  0  0
    2.8910   27.1225   34.2021 C   0  0  0  0  0  0  0  0  0  0  0  0
    2.6275   24.6217   36.8493 C   0  0  0  0  0  0  0  0  0  0  0  0
    1.7083   17.3660   37.9832 S   0  0  0  0  0  6  0  0  0  0  0  0
    2.9366   16.9841   38.4059 O   0  0  0  0  0  0  0  0  0  0  0  0
    2.1764   19.2139   37.8894 N   0  0  0  0  0  0  0  0  0  0  0  0
    2.0704   22.2769   37.6858 H   0  0  0  0  0  0  0  0  0  0  0  0
    3.5972   21.8706   37.0246 H   0  0  0  0  0  0  0  0  0  0  0  0
    1.6367   27.5985   35.5678 H   0  0  0  0  0  0  0  0  0  0  0  0
    1.9530   22.6819   37.3577 H   0  0  0  0  0  0  0  0  0  0  0  0
    1.7464   23.1331   35.6314 H   0  0  0  0  0  0  0  0  0  0  0  0
    3.3783   22.7317   36.2656 H   0  0  0  0  0  0  0  0  0  0  0  0
    4.0140   22.5843   42.0753 H   0  0  0  0  0  0  0  0  0  0  0  0
    5.8018   22.7254   41.9730 H   0  0  0  0  0  0  0  0  0  0  0  0
    4.7620   24.0998   41.4666 H   0  0  0  0  0  0  0  0  0  0  0  0
    3.9970   25.9516   36.0889 H   0  0  0  0  0  0  0  0  0  0  0  0
    3.9506   24.1887   35.4092 H   0  0  0  0  0  0  0  0  0  0  0  0
    5.7831   22.3285   39.6274 H   0  0  0  0  0  0  0  0  0  0  0  0
    3.2032   25.0321   33.5642 H   0  0  0  0  0  0  0  0  0  0  0  0
    1.6633   25.3168   34.4711 H   0  0  0  0  0  0  0  0  0  0  0  0
   -1.7554   16.7486   40.8677 H   0  0  0  0  0  0  0  0  0  0  0  0
    0.4330   16.0720   39.7646 H   0  0  0  0  0  0  0  0  0  0  0  0
    1.1592   14.9426   38.6241 H   0  0  0  0  0  0  0  0  0  0  0  0
   -1.7337   14.6053   40.7504 H   0  0  0  0  0  0  0  0  0  0  0  0
    3.3038   21.4494   41.1902 H   0  0  0  0  0  0  0  0  0  0  0  0
   -3.5702   15.9840   39.2061 H   0  0  0  0  0  0  0  0  0  0  0  0
    3.7065   27.5172   34.8261 H   0  0  0  0  0  0  0  0  0  0  0  0
    3.1395   27.3783   33.1615 H   0  0  0  0  0  0  0  0  0  0  0  0
    1.6728   25.1626   36.9260 H   0  0  0  0  0  0  0  0  0  0  0  0
    3.1176   24.7704   37.8228 H   0  0  0  0  0  0  0  0  0  0  0  0
    2.3023   19.7334   37.0090 H   0  0  0  0  0  0  0  0  0  0  0  0
  1  9  1  0
  1  3  1  0
  2 22  2  0
  3 10  1  0
  3 18  1  0
  5 21  1  0
  7 21  1  0
  8 18  1  0
  8  6  1  0
  9  8  1  0
 10 13  2  0
 11  7  1  0
 15 14  1  0
 15 17  1  0
 17 16  1  0
 17 12  1  0
 19 17  1  0
 20 11  1  0
 20  4  1  0
 22 14  1  0
 23 22  2  0
 24 22  1  0
 24 10  1  0
  1 25  1  0
  1 26  1  0
  4 27  1  0
  5 28  1  0
  5 29  1  0
  5 30  1  0
  6 31  1  0
  6 32  1  0
  6 33  1  0
  7 34  1  0
  7 35  1  0
  8 36  1  6
 11 37  1  0
 11 38  1  0
 12 39  1  0
 14 40  1  0
 14 41  1  0
 16 42  1  0
 18 43  1  0
 19 44  1  0
 20 45  1  0
 20 46  1  0
 21 47  1  0
 21 48  1  0
 24 49  1  0
M  END
>  <mol_id>  (51) 
2026-09-18-6fnk-s0-n100-0051

>  <rmsd_to_ref>  (51) 


$$$$

     RDKit          3D

 56 58  0  0  0  0  0  0  0  0999 V2000
    2.9830   20.5740   38.0650 C   0  0  0  0  0  0  0  0  0  0  0  0
    3.6200   20.6830   42.1550 C   0  0  0  0  0  0  0  0  0  0  0  0
   -0.7910   15.3840   38.9600 C   0  0  0  0  0  0  0  0  0  0  0  0
    2.1590   25.2180   31.9460 C   0  0  0  0  0  0  0  0  0  0  0  0
    2.3180   19.7300   38.9090 C   0  0  0  0  0  0  0  0  0  0  0  0
    2.8940   24.2690   32.5130 C   0  0  0  0  0  0  0  0  0  0  0  0
    5.4610   22.1400   40.2300 C   0  0  0  0  0  0  0  0  0  0  0  0
    1.5460   18.4960   38.4360 C   0  0  0  0  0  0  0  0  0  0  0  0
    1.6070   16.1730   39.1790 C   0  0  0  0  0  0  0  0  0  0  0  0
   -1.1430   16.3530   37.8740 C   0  0  0  0  0  0  0  0  0  0  0  0
    1.3240   15.5660   37.9490 C   0  0  0  0  0  0  0  0  0  0  0  0
    4.9890   21.0560   42.6110 C   0  0  0  0  0  0  0  0  0  0  0  0
    4.2840   21.3760   39.8100 C   0  0  0  0  0  0  0  0  0  0  0  0
    1.0940   25.8400   32.4080 C   0  0  0  0  0  0  0  0  0  0  0  0
    0.6130   25.6190   33.5950 C   0  0  0  0  0  0  0  0  0  0  0  0
    2.3850   17.3410   39.0320 N   0  0  0  0  0  0  0  0  0  0  0  0
    3.9890   21.2700   38.5000 C   0  0  0  0  0  0  0  0  0  0  0  0
    1.8040   23.7200   34.3730 C   0  0  0  0  0  0  0  0  0  0  0  0
    3.4470   20.7030   40.7050 C   0  0  0  0  0  0  0  0  0  0  0  0
    5.5800   22.1990   41.7780 C   0  0  0  0  0  0  0  0  0  0  0  0
    2.5790   19.7940   40.2200 C   0  0  0  0  0  0  0  0  0  0  0  0
    2.6750   23.6600   33.4720 C   0  0  0  0  0  0  0  0  0  0  0  0
    0.8290   24.7210   34.4740 C   0  0  0  0  0  0  0  0  0  0  0  0
   -0.0300   15.4650   37.4810 C   0  0  0  0  0  0  0  0  0  0  0  0
    2.6656   20.6639   37.0156 H   0  0  0  0  0  0  0  0  0  0  0  0
    3.4013   19.6668   42.5147 H   0  0  0  0  0  0  0  0  0  0  0  0
    2.9329   21.4371   42.5663 H   0  0  0  0  0  0  0  0  0  0  0  0
   -0.2818   15.7241   39.8738 H   0  0  0  0  0  0  0  0  0  0  0  0
   -1.3119   14.6196   39.5553 H   0  0  0  0  0  0  0  0  0  0  0  0
    2.4875   25.5305   30.9438 H   0  0  0  0  0  0  0  0  0  0  0  0
    3.0159   23.5093   31.7269 H   0  0  0  0  0  0  0  0  0  0  0  0
    3.6971   24.9070   32.9105 H   0  0  0  0  0  0  0  0  0  0  0  0
    5.3801   23.1648   39.8386 H   0  0  0  0  0  0  0  0  0  0  0  0
    6.3566   21.6388   39.8342 H   0  0  0  0  0  0  0  0  0  0  0  0
    0.5201   18.4904   38.8329 H   0  0  0  0  0  0  0  0  0  0  0  0
    1.4279   18.4395   37.3438 H   0  0  0  0  0  0  0  0  0  0  0  0
    0.6587   16.4387   39.6691 H   0  0  0  0  0  0  0  0  0  0  0  0
    2.1840   15.4574   39.7832 H   0  0  0  0  0  0  0  0  0  0  0  0
   -2.1106   16.2418   37.3628 H   0  0  0  0  0  0  0  0  0  0  0  0
   -1.2315   17.4494   37.8785 H   0  0  0  0  0  0  0  0  0  0  0  0
    1.8807   16.1280   37.1846 H   0  0  0  0  0  0  0  0  0  0  0  0
    1.6058   14.5166   38.1201 H   0  0  0  0  0  0  0  0  0  0  0  0
    4.9389   21.3725   43.6633 H   0  0  0  0  0  0  0  0  0  0  0  0
    5.6387   20.1766   42.4906 H   0  0  0  0  0  0  0  0  0  0  0  0
    0.5914   26.5761   31.7634 H   0  0  0  0  0  0  0  0  0  0  0  0
   -0.1367   26.3614   33.9061 H   0  0  0  0  0  0  0  0  0  0  0  0
    3.1767   17.1413   38.4042 H   0  0  0  0  0  0  0  0  0  0  0  0
    2.7241   17.6280   39.9613 H   0  0  0  0  0  0  0  0  0  0  0  0
    4.6249   21.7932   37.7707 H   0  0  0  0  0  0  0  0  0  0  0  0
    1.8060   22.9301   35.1385 H   0  0  0  0  0  0  0  0  0  0  0  0
    6.6523   22.2518   42.0174 H   0  0  0  0  0  0  0  0  0  0  0  0
    4.9716   23.0719   42.0571 H   0  0  0  0  0  0  0  0  0  0  0  0
    2.0795   19.0970   40.9089 H   0  0  0  0  0  0  0  0  0  0  0  0
    3.3939   22.8425   33.6297 H   0  0  0  0  0  0  0  0  0  0  0  0
    0.2034   24.7331   35.3787 H   0  0  0  0  0  0  0  0  0  0  0  0
    0.1509   15.0441   36.4809 H   0  0  0  0  0  0  0  0  0  0  0  0
  1 17  2  0
  1  5  1  0
  2 12  1  0
  4 14  2  0
  4  6  1  0
  5 21  2  0
  6 22  1  0
  7 20  1  0
  8  5  1  0
  8 16  1  0
 10  3  1  0
 11  9  1  0
 13  7  1  0
 13 19  2  0
 14 15  1  0
 15 23  2  0
 16  9  1  0
 17 13  1  0
 18 23  1  0
 19  2  1  0
 20 12  1  0
 21 19  1  0
 22 18  2  0
 24 10  1  0
 24 11  1  0
 24  3  1  0
  1 25  1  0
  2 26  1  0
  2 27  1  0
  3 28  1  0
  3 29  1  0
  4 30  1  0
  6 31  1  0
  6 32  1  0
  7 33  1  0
  7 34  1  0
  8 35  1  0
  8 36  1  0
  9 37  1  0
  9 38  1  0
 10 39  1  0
 10 40  1  0
 11 41  1  0
 11 42  1  0
 12 43  1  0
 12 44  1  0
 14 45  1  0
 15 46  1  0
 16 47  1  0
 16 48  1  0
 17 49  1  0
 18 50  1  0
 20 51  1  0
 20 52  1  0
 21 53  1  0
 22 54  1  0
 23 55  1  0
 24 56  1  0
M  CHG  1  16   1
M  END
>  <mol_id>  (52) 
2026-09-18-6fnk-s0-n100-0052

>  <rmsd_to_ref>  (52) 


$$$$

     RDKit          3D

 47 48  0  0  0  0  0  0  0  0999 V2000
   -2.4305   13.7171   40.7352 O   0  0  0  0  0  0  0  0  0  0  0  0
    5.8759   21.2304   40.5317 O   0  0  0  0  0  0  0  0  0  0  0  0
    2.8239   25.6862   35.8314 C   0  0  0  0  0  0  0  0  0  0  0  0
    2.4290   21.8376   39.3858 C   0  0  0  0  0  0  0  0  0  0  0  0
    0.8313   26.9950   35.8857 O   0  0  0  0  0  0  0  0  0  0  0  0
    3.5362   21.3288   40.1527 C   0  0  0  0  0  0  0  0  0  0  0  0
   -0.4933   13.3232   36.7865 C   0  0  0  0  0  0  0  0  0  0  0  0
    0.2306   14.6553   36.7891 C   0  0  0  0  0  0  0  0  0  0  0  0
    4.8925   21.5859   39.6540 C   0  0  0  0  0  0  0  0  0  0  0  0
    4.1333   23.0162   37.8134 C   0  0  0  0  0  0  0  0  0  0  0  0
   -2.0376   15.2962   38.8257 C   0  0  0  0  0  0  0  0  0  0  0  0
   -0.4899   16.0979   38.8201 C   0  0  0  0  0  0  0  0  0  0  0  0
    2.7039   22.7088   38.2480 C   0  0  0  0  0  0  0  0  0  0  0  0
    0.1073   16.8358   39.1241 C   0  0  0  0  0  0  0  0  0  0  0  0
   -0.0551   15.8070   37.4031 N   0  0  0  0  0  0  0  0  0  0  0  0
   -1.7935   13.7614   39.3236 S   0  0  1  0  0  4  0  0  0  0  0  0
   -3.1505   15.6587   39.1743 F   0  0  0  0  0  0  0  0  0  0  0  0
    1.3399   25.9368   34.1935 O   0  0  0  0  0  0  0  0  0  0  0  0
    2.8521   24.9796   36.7897 C   0  0  0  0  0  0  0  0  0  0  0  0
   -0.9206   12.7694   39.1330 O   0  0  0  0  0  0  0  0  0  0  0  0
    4.9853   20.7190   42.0844 S   0  0  0  0  0  0  0  0  0  0  0  0
   -1.4105   13.2612   37.8413 C   0  0  2  0  0  0  0  0  0  0  0  0
    0.6311   16.6685   37.6995 C   0  0  0  0  0  0  0  0  0  0  0  0
    1.4975   26.2982   35.3859 C   0  0  0  0  0  0  0  0  0  0  0  0
    5.2016   22.3209   38.5332 C   0  0  0  0  0  0  0  0  0  0  0  0
    3.3824   20.5926   41.2264 O   0  0  0  0  0  0  0  0  0  0  0  0
   -1.7182   13.6188   41.4158 H   0  0  0  0  0  0  0  0  0  0  0  0
    3.7468   25.8965   35.2711 H   0  0  0  0  0  0  0  0  0  0  0  0
    1.3949   21.5743   39.6527 H   0  0  0  0  0  0  0  0  0  0  0  0
   -1.0293   13.2046   35.8333 H   0  0  0  0  0  0  0  0  0  0  0  0
    0.2451   12.5172   36.9095 H   0  0  0  0  0  0  0  0  0  0  0  0
    1.2388   14.4065   37.1519 H   0  0  0  0  0  0  0  0  0  0  0  0
   -0.0594   14.9680   35.7751 H   0  0  0  0  0  0  0  0  0  0  0  0
    4.3504   23.7245   37.0002 H   0  0  0  0  0  0  0  0  0  0  0  0
   -1.9615   15.3440   37.7294 H   0  0  0  0  0  0  0  0  0  0  0  0
   -1.2776   15.9549   39.2714 H   0  0  0  0  0  0  0  0  0  0  0  0
   -0.3610   15.2089   39.4550 H   0  0  0  0  0  0  0  0  0  0  0  0
   -1.5531   16.3737   38.8793 H   0  0  0  0  0  0  0  0  0  0  0  0
    1.8641   23.1525   37.6931 H   0  0  0  0  0  0  0  0  0  0  0  0
   -0.3840   17.7939   39.3494 H   0  0  0  0  0  0  0  0  0  0  0  0
    0.7258   16.8172   40.0335 H   0  0  0  0  0  0  0  0  0  0  0  0
    3.8033   24.5347   37.1173 H   0  0  0  0  0  0  0  0  0  0  0  0
    1.9270   24.7717   37.3473 H   0  0  0  0  0  0  0  0  0  0  0  0
   -2.0520   13.2445   36.9478 H   0  0  0  0  0  0  0  0  0  0  0  0
    1.6947   16.3891   37.6715 H   0  0  0  0  0  0  0  0  0  0  0  0
    0.6090   17.5611   37.0571 H   0  0  0  0  0  0  0  0  0  0  0  0
    6.2416   22.3855   38.1812 H   0  0  0  0  0  0  0  0  0  0  0  0
  2 21  1  0
  3 19  2  3
  4  6  2  0
  6 26  1  0
  7  8  1  0
  8 15  1  0
  9  6  1  0
  9  2  1  0
 10 13  2  0
 10 25  1  0
 11 17  1  0
 11 16  1  0
 12 14  1  0
 13  4  1  0
 15 23  1  0
 15 12  1  0
 16 20  1  0
 16  1  1  0
 18 24  2  0
 22  7  1  0
 22 16  1  0
 22 20  1  0
 23 14  1  0
 24  5  1  0
 24  3  1  0
 25  9  2  0
 26 21  1  0
  1 27  1  0
  3 28  1  0
  4 29  1  0
  7 30  1  0
  7 31  1  0
  8 32  1  0
  8 33  1  0
 10 34  1  0
 11 35  1  0
 11 36  1  0
 12 37  1  0
 12 38  1  0
 13 39  1  0
 14 40  1  0
 14 41  1  0
 19 42  1  0
 19 43  1  0
 22 44  1  6
 23 45  1  0
 23 46  1  0
 25 47  1  0
M  CHG  1   5  -1
M  END
>  <mol_id>  (53) 
2026-09-18-6fnk-s0-n100-0053

>  <rmsd_to_ref>  (53) 


$$$$

     RDKit          3D

 64 63  0  0  0  0  0  0  0  0999 V2000
    3.0680   20.4000   42.4238 C   0  0  0  0  0  0  0  0  0  0  0  0
    3.4176   21.1068   39.9045 C   0  0  0  0  0  0  0  0  0  0  0  0
    2.4227   23.8249   34.5038 C   0  0  0  0  0  0  0  0  0  0  0  0
    3.0922   17.2933   37.9044 O   0  0  0  0  0  0  0  0  0  0  0  0
    3.0253   15.3901   36.6549 O   0  0  0  0  0  0  0  0  0  0  0  0
    1.3884   13.5494   36.5976 C   0  0  0  0  0  0  0  0  0  0  0  0
    2.0911   15.3817   37.5637 C   0  0  2  0  0  0  0  0  0  0  0  0
    0.6408   25.3487   31.4305 C   0  0  0  0  0  0  0  0  0  0  0  0
    4.2029   22.6317   37.7142 C   0  0  0  0  0  0  0  0  0  0  0  0
   -0.7057   14.9852   40.3379 C   0  0  0  0  0  0  0  0  0  0  0  0
    2.9456   22.0262   37.6600 C   0  0  0  0  0  0  0  0  0  0  0  0
    2.6248   26.1701   32.5403 C   0  0  0  0  0  0  0  0  0  0  0  0
    0.9099   14.6949   37.0951 C   0  0  0  0  0  0  0  0  0  0  0  0
    1.9049   19.9437   38.7138 O   0  0  0  0  0  0  0  0  0  0  0  0
    1.6439   25.3139   32.6016 C   0  0  0  0  0  0  0  0  0  0  0  0
    1.4631   24.5383   33.7635 N   0  0  0  0  0  0  0  0  0  0  0  0
    4.7214   21.7371   39.9099 C   0  0  0  0  0  0  0  0  0  0  0  0
    5.0832   22.4806   38.7627 C   0  0  0  0  0  0  0  0  0  0  0  0
    3.8782   24.1925   34.4275 C   0  0  0  0  0  0  0  0  0  0  0  0
    0.9172   17.0062   40.2804 C   0  0  0  0  0  0  0  0  0  0  0  0
    2.0946   16.8246   38.0604 C   0  0  0  0  0  0  0  0  0  0  0  0
    0.8625   17.3084   38.8260 C   0  0  0  0  0  0  0  0  0  0  0  0
    0.2293   15.8785   40.6867 C   0  0  0  0  0  0  0  0  0  0  0  0
    2.2220   22.8622   35.4219 C   0  0  0  0  0  0  0  0  0  0  0  0
    2.7194   21.0528   38.7035 C   0  0  0  0  0  0  0  0  0  0  0  0
   -1.6620   14.1427   40.8674 C   0  0  0  0  0  0  0  0  0  0  0  0
    2.0364   22.2482   36.5553 C   0  0  0  0  0  0  0  0  0  0  0  0
    2.9478   20.5104   41.0427 O   0  0  0  0  0  0  0  0  0  0  0  0
    2.4853   21.1977   42.9075 H   0  0  0  0  0  0  0  0  0  0  0  0
    2.6876   19.4200   42.7478 H   0  0  0  0  0  0  0  0  0  0  0  0
    4.1263   20.4949   42.7085 H   0  0  0  0  0  0  0  0  0  0  0  0
    3.9102   15.4668   37.0920 H   0  0  0  0  0  0  0  0  0  0  0  0
    1.6782   12.8834   37.4238 H   0  0  0  0  0  0  0  0  0  0  0  0
    0.6130   13.0619   35.9885 H   0  0  0  0  0  0  0  0  0  0  0  0
    2.2677   13.7606   35.9713 H   0  0  0  0  0  0  0  0  0  0  0  0
    2.2188   14.7645   38.4653 H   0  0  0  0  0  0  0  0  0  0  0  0
   -0.3795   25.4649   31.8250 H   0  0  0  0  0  0  0  0  0  0  0  0
    0.8773   26.1960   30.7701 H   0  0  0  0  0  0  0  0  0  0  0  0
    0.7090   24.4100   30.8612 H   0  0  0  0  0  0  0  0  0  0  0  0
    4.5083   23.2668   36.8696 H   0  0  0  0  0  0  0  0  0  0  0  0
   -1.3198   15.5878   39.6525 H   0  0  0  0  0  0  0  0  0  0  0  0
    0.0367   14.1741   40.3096 H   0  0  0  0  0  0  0  0  0  0  0  0
    3.3781   26.2018   33.3414 H   0  0  0  0  0  0  0  0  0  0  0  0
    2.6994   26.8609   31.6876 H   0  0  0  0  0  0  0  0  0  0  0  0
    0.3996   15.2790   36.3151 H   0  0  0  0  0  0  0  0  0  0  0  0
    0.1641   14.5378   37.8883 H   0  0  0  0  0  0  0  0  0  0  0  0
    1.8609   19.3693   39.5189 H   0  0  0  0  0  0  0  0  0  0  0  0
    1.0444   25.1882   34.4440 H   0  0  0  0  0  0  0  0  0  0  0  0
    0.9822   23.7359   33.3325 H   0  0  0  0  0  0  0  0  0  0  0  0
    5.4011   21.6417   40.7694 H   0  0  0  0  0  0  0  0  0  0  0  0
    6.0794   22.9438   38.7071 H   0  0  0  0  0  0  0  0  0  0  0  0
    4.2707   24.3487   35.4432 H   0  0  0  0  0  0  0  0  0  0  0  0
    4.4365   23.3800   33.9396 H   0  0  0  0  0  0  0  0  0  0  0  0
    3.9926   25.1179   33.8438 H   0  0  0  0  0  0  0  0  0  0  0  0
    0.4999   17.8689   40.8204 H   0  0  0  0  0  0  0  0  0  0  0  0
    1.9757   16.8074   40.5046 H   0  0  0  0  0  0  0  0  0  0  0  0
    0.7781   18.3978   38.6989 H   0  0  0  0  0  0  0  0  0  0  0  0
   -0.0067   16.7742   38.4149 H   0  0  0  0  0  0  0  0  0  0  0  0
   -0.1949   16.2420   41.6343 H   0  0  0  0  0  0  0  0  0  0  0  0
    1.0183   15.2329   40.2735 H   0  0  0  0  0  0  0  0  0  0  0  0
   -1.6522   14.2205   41.9646 H   0  0  0  0  0  0  0  0  0  0  0  0
   -2.6540   14.4296   40.4883 H   0  0  0  0  0  0  0  0  0  0  0  0
   -1.4420   13.1064   40.5713 H   0  0  0  0  0  0  0  0  0  0  0  0
    1.0280   21.8320   36.6958 H   0  0  0  0  0  0  0  0  0  0  0  0
  2 17  1  0
  2 28  1  0
  3 24  2  0
  4 21  2  0
  6 13  1  0
  7  5  1  0
  7 21  1  0
  8 15  1  0
  9 18  1  0
 10 23  1  0
 10 26  1  0
 11  9  2  0
 11 25  1  0
 12 15  2  3
 13  7  1  0
 14 25  1  0
 15 16  1  0
 16  3  1  0
 18 17  2  0
 19  3  1  0
 20 23  1  0
 21 22  1  0
 22 20  1  0
 24 27  2  0
 25  2  2  0
 27 11  1  0
 28  1  1  0
  1 29  1  0
  1 30  1  0
  1 31  1  0
  5 32  1  0
  6 33  1  0
  6 34  1  0
  6 35  1  0
  7 36  1  1
  8 37  1  0
  8 38  1  0
  8 39  1  0
  9 40  1  0
 10 41  1  0
 10 42  1  0
 12 43  1  0
 12 44  1  0
 13 45  1  0
 13 46  1  0
 14 47  1  0
 16 48  1  0
 16 49  1  0
 17 50  1  0
 18 51  1  0
 19 52  1  0
 19 53  1  0
 19 54  1  0
 20 55  1  0
 20 56  1  0
 22 57  1  0
 22 58  1  0
 23 59  1  0
 23 60  1  0
 26 61  1  0
 26 62  1  0
 26 63  1  0
 27 64  1  0
M  CHG  1  16   1
M  END
>  <mol_id>  (54) 
2026-09-18-6fnk-s0-n100-0054

>  <rmsd_to_ref>  (54) 


$$$$

     RDKit          3D

 57 60  0  0  0  0  0  0  0  0999 V2000
    2.4856   14.4335   38.4878 C   0  0  0  0  0  0  0  0  0  0  0  0
    0.9623   24.0410   35.0813 C   0  0  0  0  0  0  0  0  0  0  0  0
    2.7854   21.5497   38.6017 C   0  0  0  0  0  0  0  0  0  0  0  0
    2.2193   14.4049   41.0249 C   0  0  0  0  0  0  0  0  0  0  0  0
    1.5269   21.8831   38.1519 C   0  0  0  0  0  0  0  0  0  0  0  0
    2.6746   19.1456   39.3272 C   0  0  0  0  0  0  0  0  0  0  0  0
    1.6860   15.8637   40.7442 C   0  0  0  0  0  0  0  0  0  0  0  0
    3.2665   17.9468   40.2291 C   0  0  0  0  0  0  0  0  0  0  0  0
    2.4590   12.2126   39.8446 C   0  0  0  0  0  0  0  0  0  0  0  0
    2.0442   13.6156   39.7354 N   0  0  0  0  0  0  0  0  0  0  0  0
    1.3543   22.0712   36.7115 C   0  0  0  0  0  0  0  0  0  0  0  0
    3.6458   18.5090   41.5821 C   0  0  0  0  0  0  0  0  0  0  0  0
    2.4895   24.4887   33.9295 S   0  0  0  0  0  0  0  0  0  0  0  0
    1.0532   23.2667   36.1607 N   0  0  0  0  0  0  0  0  0  0  0  0
    4.1123   20.8511   40.6491 C   0  0  0  0  0  0  0  0  0  0  0  0
    1.8960   26.9142   31.6357 C   0  0  0  0  0  0  0  0  0  0  0  0
    3.1254   20.4787   39.5555 C   0  0  0  0  0  0  0  0  0  0  0  0
    4.2456   19.7233   41.6655 C   0  0  0  0  0  0  0  0  0  0  0  0
    1.6507   26.9922   33.1113 C   0  0  1  0  0  0  0  0  0  0  0  0
   -0.1190   24.8354   34.5944 C   0  0  0  0  0  0  0  0  0  0  0  0
    0.4867   26.6547   33.8530 C   0  0  0  0  0  0  0  0  0  0  0  0
    3.1125   15.8134   38.7347 C   0  0  0  0  0  0  0  0  0  0  0  0
    2.8132   16.4477   40.0523 N   0  0  0  0  0  0  0  0  0  0  0  0
   -0.1975   25.5343   33.3387 C   0  0  0  0  0  0  0  0  0  0  0  0
    4.9158   22.1097   40.6115 C   0  0  0  0  0  0  0  0  0  0  0  0
    2.3488   25.7213   32.5814 C   0  0  1  0  0  0  0  0  0  0  0  0
    1.5955   14.5830   37.8592 H   0  0  0  0  0  0  0  0  0  0  0  0
    3.2882   13.8372   38.0293 H   0  0  0  0  0  0  0  0  0  0  0  0
    3.1787   22.4711   39.0561 H   0  0  0  0  0  0  0  0  0  0  0  0
    3.1937   21.1069   37.6813 H   0  0  0  0  0  0  0  0  0  0  0  0
    3.2820   14.4383   41.3069 H   0  0  0  0  0  0  0  0  0  0  0  0
    1.6669   13.9357   41.8523 H   0  0  0  0  0  0  0  0  0  0  0  0
    0.8418   21.0813   38.4642 H   0  0  0  0  0  0  0  0  0  0  0  0
    1.3242   22.8713   38.5906 H   0  0  0  0  0  0  0  0  0  0  0  0
    1.9309   18.9368   38.5441 H   0  0  0  0  0  0  0  0  0  0  0  0
    0.7874   15.8491   40.1099 H   0  0  0  0  0  0  0  0  0  0  0  0
    1.3769   16.4123   41.6462 H   0  0  0  0  0  0  0  0  0  0  0  0
    2.4784   11.9174   40.9041 H   0  0  0  0  0  0  0  0  0  0  0  0
    1.7464   11.5761   39.2996 H   0  0  0  0  0  0  0  0  0  0  0  0
    3.4631   12.0924   39.4119 H   0  0  0  0  0  0  0  0  0  0  0  0
    1.4750   21.2016   36.0488 H   0  0  0  0  0  0  0  0  0  0  0  0
    3.4356   17.9342   42.4962 H   0  0  0  0  0  0  0  0  0  0  0  0
    1.0515   26.7778   30.9441 H   0  0  0  0  0  0  0  0  0  0  0  0
    2.3985   27.5541   30.8954 H   0  0  0  0  0  0  0  0  0  0  0  0
    4.8830   19.9098   42.5424 H   0  0  0  0  0  0  0  0  0  0  0  0
    1.8118   27.8733   33.7499 H   0  0  0  0  0  0  0  0  0  0  0  0
   -0.9937   24.9236   35.2555 H   0  0  0  0  0  0  0  0  0  0  0  0
    0.7841   26.4367   34.8893 H   0  0  0  0  0  0  0  0  0  0  0  0
   -0.1994   27.5122   33.7901 H   0  0  0  0  0  0  0  0  0  0  0  0
    4.2042   15.7050   38.6548 H   0  0  0  0  0  0  0  0  0  0  0  0
    2.6666   16.4782   37.9803 H   0  0  0  0  0  0  0  0  0  0  0  0
   -1.2274   25.7552   33.0220 H   0  0  0  0  0  0  0  0  0  0  0  0
    0.1824   25.0459   32.4293 H   0  0  0  0  0  0  0  0  0  0  0  0
    5.0762   22.4730   41.6374 H   0  0  0  0  0  0  0  0  0  0  0  0
    5.8879   21.9100   40.1370 H   0  0  0  0  0  0  0  0  0  0  0  0
    4.3750   22.8729   40.0326 H   0  0  0  0  0  0  0  0  0  0  0  0
    2.9454   24.9069   32.1445 H   0  0  0  0  0  0  0  0  0  0  0  0
  1 22  1  0
  1 10  1  0
  2 14  1  0
  3 17  1  0
  5  3  1  0
  6 17  1  0
  6  8  2  0
  7  4  1  0
  8 12  1  0
 10  9  1  0
 10  4  1  0
 11  5  1  0
 12 18  2  0
 13  2  1  0
 14 11  2  3
 15 18  1  0
 17 15  2  0
 19 16  1  0
 19 21  1  0
 20  2  2  0
 22 23  1  0
 23  8  1  0
 23  7  1  0
 24 21  1  0
 24 20  1  0
 25 15  1  0
 26 16  1  0
 26 19  1  0
 26 13  1  0
  1 27  1  0
  1 28  1  0
  3 29  1  0
  3 30  1  0
  4 31  1  0
  4 32  1  0
  5 33  1  0
  5 34  1  0
  6 35  1  0
  7 36  1  0
  7 37  1  0
  9 38  1  0
  9 39  1  0
  9 40  1  0
 11 41  1  0
 12 42  1  0
 16 43  1  0
 16 44  1  0
 18 45  1  0
 19 46  1  1
 20 47  1  0
 21 48  1  0
 21 49  1  0
 22 50  1  0
 22 51  1  0
 24 52  1  0
 24 53  1  0
 25 54  1  0
 25 55  1  0
 25 56  1  0
 26 57  1  1
M  END
>  <mol_id>  (55) 
2026-09-18-6fnk-s0-n100-0055

>  <rmsd_to_ref>  (55) 


$$$$

     RDKit          3D

 94 96  0  0  0  0  0  0  0  0999 V2000
    5.4253   19.9025   42.4951 C   0  0  0  0  0  0  0  0  0  0  0  0
   -2.5243   13.8938   39.5805 N   0  0  0  0  0  0  0  0  0  0  0  0
   -3.3009   12.7589   40.5278 S   0  0  0  0  0  4  0  0  0  0  0  0
   -0.2184   25.3850   30.8365 F   0  0  0  0  0  0  0  0  0  0  0  0
    4.1981   21.3498   38.3169 C   0  0  2  0  0  0  0  0  0  0  0  0
    4.0610   24.4690   31.2995 C   0  0  0  0  0  0  0  0  0  0  0  0
   -4.6819   12.4887   41.1680 O   0  0  0  0  0  0  0  0  0  0  0  0
    2.6575   19.0317   36.8025 O   0  0  0  0  0  0  0  0  0  0  0  0
    0.1286   27.0008   29.1072 F   0  0  0  0  0  0  0  0  0  0  0  0
   -2.5305   12.9939   41.8215 O   0  0  0  0  0  0  0  0  0  0  0  0
    0.6885   27.8450   31.4760 C   0  0  0  0  0  0  0  0  0  0  0  0
    0.3003   16.9630   37.3765 C   0  0  0  0  0  0  0  0  0  0  0  0
   -2.3353   15.1006   39.6316 C   0  0  0  0  0  0  0  0  0  0  0  0
   -3.3541   11.4471   40.1419 O   0  0  0  0  0  0  0  0  0  0  0  0
    7.5200   21.1821   36.9686 C   0  0  0  0  0  0  0  0  0  0  0  0
   -1.0249   15.7029   39.1051 C   0  0  1  0  0  0  0  0  0  0  0  0
   -1.2726   29.9315   30.4325 C   0  0  0  0  0  0  0  0  0  0  0  0
    1.7660   26.5137   31.0293 O   0  0  0  0  0  0  0  0  0  0  0  0
    4.2828   19.5633   41.6968 C   0  0  0  0  0  0  0  0  0  0  0  0
    1.2208   17.3040   38.4741 N   0  0  0  0  0  0  0  0  0  0  0  0
    2.1871   19.6334   37.8811 C   0  0  2  0  0  0  0  0  0  0  0  0
   -1.6372   28.8836   30.6249 C   0  0  0  0  0  0  0  0  0  0  0  0
    3.0395   20.4714   38.7602 N   0  0  0  0  0  0  0  0  0  0  0  0
    3.8783   21.7633   36.8233 C   0  0  0  0  0  0  0  0  0  0  0  0
   -1.0349   16.5114   37.8142 C   0  0  0  0  0  0  0  0  0  0  0  0
   -0.1387   15.8949   39.9526 O   0  0  0  0  0  0  0  0  0  0  0  0
    3.1899   24.4511   31.1926 C   0  0  1  0  0  0  0  0  0  0  0  0
    1.0730   16.4345   36.5124 O   0  0  0  0  0  0  0  0  0  0  0  0
    5.5700   20.7922   38.4587 C   0  0  0  0  0  0  0  0  0  0  0  0
    5.9298   23.1089   37.4626 C   0  0  0  0  0  0  0  0  0  0  0  0
    3.2766   25.5242   32.1881 C   0  0  0  0  0  0  0  0  0  0  0  0
    2.5059   20.6737   40.1619 C   0  0  2  0  0  0  0  0  0  0  0  0
    2.3663   25.9133   31.2273 C   0  0  2  0  0  0  0  0  0  0  0  0
    6.5287   21.8954   38.0059 C   0  0  2  0  0  0  0  0  0  0  0  0
    2.4166   25.8136   30.2963 C   0  0  0  0  0  0  0  0  0  0  0  0
    4.8494   22.8010   36.4364 C   0  0  0  0  0  0  0  0  0  0  0  0
    1.1006   15.9733   39.5197 C   0  0  0  0  0  0  0  0  0  0  0  0
   -0.7804   27.6494   31.1624 C   0  0  1  0  0  0  0  0  0  0  0  0
    1.7480   18.4590   38.9468 C   0  0  1  0  0  0  0  0  0  0  0  0
    3.6201   20.8171   41.1816 C   0  0  0  0  0  0  0  0  0  0  0  0
   -2.8467   28.3963   30.1097 O   0  0  0  0  0  0  0  0  0  0  0  0
    1.3430   19.1512   40.5737 S   0  0  0  0  0  0  0  0  0  0  0  0
   -0.5556   26.3834   30.0670 C   0  0  0  0  0  0  0  0  0  0  0  0
    5.1527   19.8645   43.5601 H   0  0  0  0  0  0  0  0  0  0  0  0
    6.2360   19.1855   42.2983 H   0  0  0  0  0  0  0  0  0  0  0  0
    5.7633   20.9175   42.2391 H   0  0  0  0  0  0  0  0  0  0  0  0
   -2.9900   13.7796   38.6689 H   0  0  0  0  0  0  0  0  0  0  0  0
    4.2502   22.2055   39.0060 H   0  0  0  0  0  0  0  0  0  0  0  0
    4.2976   24.5316   32.3720 H   0  0  0  0  0  0  0  0  0  0  0  0
    4.5008   23.5521   30.8800 H   0  0  0  0  0  0  0  0  0  0  0  0
    4.4763   25.3456   30.7807 H   0  0  0  0  0  0  0  0  0  0  0  0
   -4.6052   12.5436   42.1535 H   0  0  0  0  0  0  0  0  0  0  0  0
    3.3607   18.3860   37.0650 H   0  0  0  0  0  0  0  0  0  0  0  0
   -3.1382   12.8743   42.5938 H   0  0  0  0  0  0  0  0  0  0  0  0
    0.8250   27.9124   32.5653 H   0  0  0  0  0  0  0  0  0  0  0  0
    1.2633   26.9918   31.0864 H   0  0  0  0  0  0  0  0  0  0  0  0
    1.0438   28.7727   31.0037 H   0  0  0  0  0  0  0  0  0  0  0  0
   -3.1507   15.5725   39.0637 H   0  0  0  0  0  0  0  0  0  0  0  0
   -2.2847   15.2995   40.7123 H   0  0  0  0  0  0  0  0  0  0  0  0
   -3.2996   10.8655   40.9413 H   0  0  0  0  0  0  0  0  0  0  0  0
    8.3596   20.7291   37.5161 H   0  0  0  0  0  0  0  0  0  0  0  0
    6.9754   20.3997   36.4198 H   0  0  0  0  0  0  0  0  0  0  0  0
    7.9054   21.9278   36.2578 H   0  0  0  0  0  0  0  0  0  0  0  0
   -0.5940   14.8381   38.5792 H   0  0  0  0  0  0  0  0  0  0  0  0
   -1.9694   30.6965   30.0593 H   0  0  0  0  0  0  0  0  0  0  0  0
   -0.2196   30.1901   30.6179 H   0  0  0  0  0  0  0  0  0  0  0  0
    4.6043   18.9454   40.8455 H   0  0  0  0  0  0  0  0  0  0  0  0
    3.5648   19.0043   42.3148 H   0  0  0  0  0  0  0  0  0  0  0  0
    1.4518   20.3030   37.4111 H   0  0  0  0  0  0  0  0  0  0  0  0
    3.9776   20.8900   36.1618 H   0  0  0  0  0  0  0  0  0  0  0  0
    2.8493   22.1425   36.7369 H   0  0  0  0  0  0  0  0  0  0  0  0
   -1.6668   17.3986   37.9671 H   0  0  0  0  0  0  0  0  0  0  0  0
   -1.4195   15.8471   37.0263 H   0  0  0  0  0  0  0  0  0  0  0  0
    2.8658   23.5132   30.7179 H   0  0  0  0  0  0  0  0  0  0  0  0
    5.7658   20.5237   39.5074 H   0  0  0  0  0  0  0  0  0  0  0  0
    5.6960   19.8801   37.8569 H   0  0  0  0  0  0  0  0  0  0  0  0
    5.4831   23.6843   38.2869 H   0  0  0  0  0  0  0  0  0  0  0  0
    6.7220   23.6832   36.9601 H   0  0  0  0  0  0  0  0  0  0  0  0
    2.8978   25.3174   33.1999 H   0  0  0  0  0  0  0  0  0  0  0  0
    4.1620   26.0554   32.5675 H   0  0  0  0  0  0  0  0  0  0  0  0
    1.9372   21.6139   40.2126 H   0  0  0  0  0  0  0  0  0  0  0  0
    7.0400   22.3035   38.8902 H   0  0  0  0  0  0  0  0  0  0  0  0
    3.2615   26.2055   29.7111 H   0  0  0  0  0  0  0  0  0  0  0  0
    2.2893   25.0503   29.5145 H   0  0  0  0  0  0  0  0  0  0  0  0
    5.3456   22.4715   35.5116 H   0  0  0  0  0  0  0  0  0  0  0  0
    4.2686   23.7285   36.3249 H   0  0  0  0  0  0  0  0  0  0  0  0
    1.3643   15.0519   38.9799 H   0  0  0  0  0  0  0  0  0  0  0  0
    1.7897   16.0965   40.3682 H   0  0  0  0  0  0  0  0  0  0  0  0
   -1.4192   27.4766   32.0411 H   0  0  0  0  0  0  0  0  0  0  0  0
    2.6239   17.8434   39.1995 H   0  0  0  0  0  0  0  0  0  0  0  0
    4.4052   21.4351   40.7215 H   0  0  0  0  0  0  0  0  0  0  0  0
    3.1259   21.2463   42.0656 H   0  0  0  0  0  0  0  0  0  0  0  0
   -3.1290   27.4675   30.3039 H   0  0  0  0  0  0  0  0  0  0  0  0
   -1.3067   25.8568   29.4599 H   0  0  0  0  0  0  0  0  0  0  0  0
  2 13  1  0
  2  3  1  0
  3  7  1  0
  3 10  1  0
  5 24  1  0
  5 29  1  0
  9 43  1  0
 12 25  1  0
 12 20  1  0
 14  3  1  0
 16 13  1  0
 16 26  1  0
 17 22  2  3
 33 18  1  1
 19  1  1  0
 20 37  1  0
 21  8  1  0
 21 39  1  0
 21 23  1  0
 22 38  1  0
 23  5  1  0
 23 32  1  0
 25 16  1  0
 27 33  1  0
 27  6  1  0
 27 31  1  0
 28 12  2  0
 30 34  1  0
 32 42  1  0
 32 40  1  0
 33 35  1  0
 33 31  1  0
 34 15  1  0
 34 29  1  0
 35 18  1  0
 36 24  1  0
 36 30  1  0
 37 26  1  0
 38 11  1  0
 39 20  1  0
 39 42  1  0
 40 19  1  0
 41 22  1  0
 43  4  1  0
 43 38  1  0
  1 44  1  0
  1 45  1  0
  1 46  1  0
  2 47  1  0
  5 48  1  1
  6 49  1  0
  6 50  1  0
  6 51  1  0
  7 52  1  0
  8 53  1  0
 10 54  1  0
 11 55  1  0
 11 56  1  0
 11 57  1  0
 13 58  1  0
 13 59  1  0
 14 60  1  0
 15 61  1  0
 15 62  1  0
 15 63  1  0
 16 64  1  6
 17 65  1  0
 17 66  1  0
 19 67  1  0
 19 68  1  0
 21 69  1  6
 24 70  1  0
 24 71  1  0
 25 72  1  0
 25 73  1  0
 27 74  1  1
 29 75  1  0
 29 76  1  0
 30 77  1  0
 30 78  1  0
 31 79  1  0
 31 80  1  0
 32 81  1  6
 34 82  1  1
 35 83  1  0
 35 84  1  0
 36 85  1  0
 36 86  1  0
 37 87  1  0
 37 88  1  0
 38 89  1  1
 39 90  1  1
 40 91  1  0
 40 92  1  0
 41 93  1  0
 43 94  1  0
M  END
>  <mol_id>  (56) 
2026-09-18-6fnk-s0-n100-0056

>  <rmsd_to_ref>  (56) 


$$$$

     RDKit          3D

 62 65  0  0  0  0  0  0  0  0999 V2000
   -2.7377   12.4484   42.0369 N   0  0  0  0  0  0  0  0  0  0  0  0
    1.0689   18.0745   39.8188 C   0  0  1  0  0  0  0  0  0  0  0  0
    3.7479   25.4912   33.9340 C   0  0  2  0  0  0  0  0  0  0  0  0
    2.9062   27.8381   33.8196 C   0  0  0  0  0  0  0  0  0  0  0  0
    1.6961   20.6401   40.0515 C   0  0  0  0  0  0  0  0  0  0  0  0
    2.2811   25.5941   33.4790 C   0  0  2  0  0  0  0  0  0  0  0  0
   -1.4697   13.1594   41.8117 C   0  0  0  0  0  0  0  0  0  0  0  0
   -0.7445   14.8541   40.3984 O   0  0  0  0  0  0  0  0  0  0  0  0
    1.4412   19.3611   40.5017 O   0  0  0  0  0  0  0  0  0  0  0  0
    1.6564   17.7842   38.5976 C   0  0  0  0  0  0  0  0  0  0  0  0
    3.7670   25.6910   35.4568 C   0  0  2  0  0  0  0  0  0  0  0  0
    0.3204   17.1442   40.5713 C   0  0  0  0  0  0  0  0  0  0  0  0
    2.5858   20.9660   38.9822 N   0  0  0  0  0  0  0  0  0  0  0  0
    2.1965   26.9572   32.7912 C   0  0  0  0  0  0  0  0  0  0  0  0
    1.0547   16.6881   37.9075 C   0  0  0  0  0  0  0  0  0  0  0  0
    2.3585   25.7547   36.2076 C   0  0  0  0  0  0  0  0  0  0  0  0
    1.8411   22.8410   40.0887 N   0  0  0  0  0  0  0  0  0  0  0  0
   -0.1094   16.0024   39.8605 C   0  0  0  0  0  0  0  0  0  0  0  0
    1.2851   21.7782   40.6191 C   0  0  1  0  0  0  0  0  0  0  0  0
    2.9410   23.1971   37.9291 N   0  0  0  0  0  0  0  0  0  0  0  0
    1.4766   25.5694   34.9009 C   0  0  0  0  0  0  0  0  0  0  0  0
    0.4362   21.9140   41.8114 C   0  0  0  0  0  0  0  0  0  0  0  0
   -1.6681   14.4696   41.2764 C   0  0  0  0  0  0  0  0  0  0  0  0
    2.4956   22.3706   38.9771 C   0  0  2  0  0  0  0  0  0  0  0  0
    0.0893   15.8503   38.4141 C   0  0  0  0  0  0  0  0  0  0  0  0
    3.7369   26.8441   34.5593 N   0  0  0  0  0  0  0  0  0  0  0  0
   -3.0917   12.6678   42.9789 H   0  0  0  0  0  0  0  0  0  0  0  0
   -3.4279   12.7459   41.3328 H   0  0  0  0  0  0  0  0  0  0  0  0
   -2.5811   11.4335   41.9568 H   0  0  0  0  0  0  0  0  0  0  0  0
    0.1924   18.1538   39.1588 H   0  0  0  0  0  0  0  0  0  0  0  0
    4.3165   24.8285   33.2650 H   0  0  0  0  0  0  0  0  0  0  0  0
    2.1855   28.3326   34.4875 H   0  0  0  0  0  0  0  0  0  0  0  0
    3.4882   28.6585   33.3742 H   0  0  0  0  0  0  0  0  0  0  0  0
    1.8949   24.8228   32.7965 H   0  0  0  0  0  0  0  0  0  0  0  0
   -0.9381   13.2463   42.7708 H   0  0  0  0  0  0  0  0  0  0  0  0
   -0.8868   12.5822   41.0789 H   0  0  0  0  0  0  0  0  0  0  0  0
    1.5840   18.6767   37.9586 H   0  0  0  0  0  0  0  0  0  0  0  0
    2.6970   17.4950   38.8067 H   0  0  0  0  0  0  0  0  0  0  0  0
    4.3893   25.2157   36.2293 H   0  0  0  0  0  0  0  0  0  0  0  0
    0.0884   17.2978   41.6356 H   0  0  0  0  0  0  0  0  0  0  0  0
    2.7230   26.9571   31.8254 H   0  0  0  0  0  0  0  0  0  0  0  0
    1.1751   27.2797   32.5411 H   0  0  0  0  0  0  0  0  0  0  0  0
    0.6112   17.1256   37.0008 H   0  0  0  0  0  0  0  0  0  0  0  0
    1.9080   15.9947   37.8732 H   0  0  0  0  0  0  0  0  0  0  0  0
    2.2241   24.9380   36.9321 H   0  0  0  0  0  0  0  0  0  0  0  0
    2.1579   26.6383   36.8313 H   0  0  0  0  0  0  0  0  0  0  0  0
    1.1250   23.5322   39.8237 H   0  0  0  0  0  0  0  0  0  0  0  0
    2.4768   23.3178   40.7440 H   0  0  0  0  0  0  0  0  0  0  0  0
    2.1068   21.7117   41.3473 H   0  0  0  0  0  0  0  0  0  0  0  0
    2.7104   24.1778   38.1437 H   0  0  0  0  0  0  0  0  0  0  0  0
    3.9609   23.0992   37.8245 H   0  0  0  0  0  0  0  0  0  0  0  0
    2.4776   22.9194   37.0522 H   0  0  0  0  0  0  0  0  0  0  0  0
    0.7330   26.3797   34.8800 H   0  0  0  0  0  0  0  0  0  0  0  0
    1.0446   24.5607   34.9775 H   0  0  0  0  0  0  0  0  0  0  0  0
    1.0663   22.1246   42.6881 H   0  0  0  0  0  0  0  0  0  0  0  0
   -0.2742   22.7407   41.6634 H   0  0  0  0  0  0  0  0  0  0  0  0
   -0.1188   20.9785   41.9748 H   0  0  0  0  0  0  0  0  0  0  0  0
   -1.6669   15.1856   42.1116 H   0  0  0  0  0  0  0  0  0  0  0  0
   -2.6241   14.4435   40.7329 H   0  0  0  0  0  0  0  0  0  0  0  0
    3.4867   22.4360   39.4498 H   0  0  0  0  0  0  0  0  0  0  0  0
   -0.8622   16.0665   37.9062 H   0  0  0  0  0  0  0  0  0  0  0  0
    0.4277   14.8186   38.2380 H   0  0  0  0  0  0  0  0  0  0  0  0
  2  9  1  0
  2 12  1  0
  3  6  1  0
  3 26  1  0
  3 11  1  0
  4 26  1  0
  5  9  1  0
  5 19  1  0
  6 21  1  0
  7  1  1  0
  8 23  1  0
 10  2  1  0
 11 16  1  0
 13 24  1  0
 13  5  2  0
 14  6  1  0
 14  4  1  0
 15 10  1  0
 15 25  1  0
 17 19  1  0
 18 12  2  0
 18  8  1  0
 19 22  1  0
 20 24  1  0
 21 16  1  0
 23  7  1  0
 24 17  1  0
 25 18  1  0
 26 11  1  0
  1 27  1  0
  1 28  1  0
  1 29  1  0
  2 30  1  6
  3 31  1  6
  4 32  1  0
  4 33  1  0
  6 34  1  6
  7 35  1  0
  7 36  1  0
 10 37  1  0
 10 38  1  0
 11 39  1  1
 12 40  1  0
 14 41  1  0
 14 42  1  0
 15 43  1  0
 15 44  1  0
 16 45  1  0
 16 46  1  0
 17 47  1  0
 17 48  1  0
 19 49  1  6
 20 50  1  0
 20 51  1  0
 20 52  1  0
 21 53  1  0
 21 54  1  0
 22 55  1  0
 22 56  1  0
 22 57  1  0
 23 58  1  0
 23 59  1  0
 24 60  1  1
 25 61  1  0
 25 62  1  0
M  CHG  3   1   1  17   1  20   1
M  END
>  <mol_id>  (57) 
2026-09-18-6fnk-s0-n100-0057

>  <rmsd_to_ref>  (57) 


$$$$

     RDKit          3D

 47 48  0  0  0  0  0  0  0  0999 V2000
    0.6357   18.5484   38.9451 C   0  0  0  0  0  0  0  0  0  0  0  0
    2.2245   20.5958   43.4944 N   0  0  0  0  0  0  0  0  0  0  0  0
    0.8333   24.8736   35.0444 C   0  0  0  0  0  0  0  0  0  0  0  0
    2.7987   23.4931   35.3171 C   0  0  0  0  0  0  0  0  0  0  0  0
   -0.6377   16.9283   37.9638 C   0  0  2  0  0  0  0  0  0  0  0  0
    3.4952   21.8369   38.5282 C   0  0  0  0  0  0  0  0  0  0  0  0
   -0.4806   18.0769   40.0058 S   0  0  0  0  0  0  0  0  0  0  0  0
    0.2498   26.1245   34.5067 C   0  0  0  0  0  0  0  0  0  0  0  0
    1.0518   23.4480   37.0208 C   0  0  0  0  0  0  0  0  0  0  0  0
    1.9725   24.3906   34.5213 C   0  0  0  0  0  0  0  0  0  0  0  0
    0.3085   24.2999   36.2435 C   0  0  0  0  0  0  0  0  0  0  0  0
   -0.8177   15.9284   37.1520 O   0  0  0  0  0  0  0  0  0  0  0  0
    2.8937   20.3555   42.4430 C   0  0  0  0  0  0  0  0  0  0  0  0
    3.3078   21.0299   39.3830 C   0  0  0  0  0  0  0  0  0  0  0  0
   -1.3844   17.1901   39.0807 C   0  0  2  0  0  0  0  0  0  0  0  0
    2.5427   19.8782   40.0077 C   0  0  2  0  0  0  0  0  0  0  0  0
    0.2657   17.8401   37.8523 C   0  0  0  0  0  0  0  0  0  0  0  0
    4.1147   20.8063   42.2204 O   0  0  0  0  0  0  0  0  0  0  0  0
    2.3825   23.0751   36.6209 C   0  0  0  0  0  0  0  0  0  0  0  0
   -2.9185   16.8289   39.4879 C   0  0  0  0  0  0  0  0  0  0  0  0
    1.7141   19.3041   39.1947 N   0  0  0  0  0  0  0  0  0  0  0  0
    3.4912   22.7680   37.5248 C   0  0  0  0  0  0  0  0  0  0  0  0
    2.5024   19.4509   41.3236 C   0  0  0  0  0  0  0  0  0  0  0  0
    1.0380   18.0079   36.5419 C   0  0  0  0  0  0  0  0  0  0  0  0
   -0.3181   26.9072   34.3866 N   0  0  0  0  0  0  0  0  0  0  0  0
    1.2753   20.2101   43.6001 H   0  0  0  0  0  0  0  0  0  0  0  0
    2.6306   21.1764   44.2419 H   0  0  0  0  0  0  0  0  0  0  0  0
    3.7549   23.1320   34.9107 H   0  0  0  0  0  0  0  0  0  0  0  0
    0.0531   16.3172   38.5633 H   0  0  0  0  0  0  0  0  0  0  0  0
    0.6283   23.0482   37.9540 H   0  0  0  0  0  0  0  0  0  0  0  0
    2.2783   24.6701   33.5023 H   0  0  0  0  0  0  0  0  0  0  0  0
   -0.7180   24.5479   36.5512 H   0  0  0  0  0  0  0  0  0  0  0  0
   -0.7064   15.0778   37.6463 H   0  0  0  0  0  0  0  0  0  0  0  0
    4.1198   21.2199   40.1003 H   0  0  0  0  0  0  0  0  0  0  0  0
   -1.7260   18.1341   38.6310 H   0  0  0  0  0  0  0  0  0  0  0  0
    3.3943   19.2088   39.8164 H   0  0  0  0  0  0  0  0  0  0  0  0
   -2.9906   16.7134   40.5794 H   0  0  0  0  0  0  0  0  0  0  0  0
   -3.5855   17.6400   39.1602 H   0  0  0  0  0  0  0  0  0  0  0  0
   -3.2161   15.8894   38.9993 H   0  0  0  0  0  0  0  0  0  0  0  0
    2.3992   18.7637   38.6475 H   0  0  0  0  0  0  0  0  0  0  0  0
    1.0866   20.1132   39.3071 H   0  0  0  0  0  0  0  0  0  0  0  0
    4.4171   23.3448   37.3834 H   0  0  0  0  0  0  0  0  0  0  0  0
    1.4646   19.1434   41.5197 H   0  0  0  0  0  0  0  0  0  0  0  0
    3.2898   18.6832   41.3501 H   0  0  0  0  0  0  0  0  0  0  0  0
    2.1122   18.1032   36.7590 H   0  0  0  0  0  0  0  0  0  0  0  0
    0.8698   17.1291   35.9020 H   0  0  0  0  0  0  0  0  0  0  0  0
    0.6873   18.9121   36.0227 H   0  0  0  0  0  0  0  0  0  0  0  0
  1 21  1  0
  1  7  1  0
  3 11  2  0
  4 19  1  0
  5 12  1  0
  5 17  1  0
  5 15  1  0
  6 14  2  0
  8  3  1  0
 10  3  1  0
 10  4  2  0
 11  9  1  0
 13 18  2  0
 13  2  1  0
 15 20  1  0
 15  7  1  0
 16 14  1  0
 16 23  1  0
 17  1  2  0
 19  9  2  0
 19 22  1  0
 21 16  1  0
 22  6  2  0
 23 13  1  0
 24 17  1  0
 25  8  3  0
  2 26  1  0
  2 27  1  0
  4 28  1  0
  5 29  1  1
  9 30  1  0
 10 31  1  0
 11 32  1  0
 12 33  1  0
 14 34  1  0
 15 35  1  1
 16 36  1  6
 20 37  1  0
 20 38  1  0
 20 39  1  0
 21 40  1  0
 21 41  1  0
 22 42  1  0
 23 43  1  0
 23 44  1  0
 24 45  1  0
 24 46  1  0
 24 47  1  0
M  CHG  1  21   1
M  END
>  <mol_id>  (58) 
2026-09-18-6fnk-s0-n100-0058

>  <rmsd_to_ref>  (58) 


$$$$

     RDKit          3D

 57 60  0  0  0  0  0  0  0  0999 V2000
    3.5564   19.5009   43.0898 C   0  0  0  0  0  0  0  0  0  0  0  0
    1.5267   19.1554   42.7829 N   0  0  0  0  0  0  0  0  0  0  0  0
   -0.2628   17.9572   45.9527 N   0  0  0  0  0  0  0  0  0  0  0  0
    3.7299   22.2762   33.2360 C   0  0  0  0  0  0  0  0  0  0  0  0
    2.6941   22.5316   34.0505 C   0  0  0  0  0  0  0  0  0  0  0  0
    1.3423   19.3143   44.0356 N   0  0  0  0  0  0  0  0  0  0  0  0
    0.6171   24.9215   32.0847 C   0  0  0  0  0  0  0  0  0  0  0  0
    1.1441   21.9256   34.8583 S   0  0  0  0  0  0  0  0  0  0  0  0
    0.9133   26.9574   33.4930 C   0  0  0  0  0  0  0  0  0  0  0  0
    1.9122   20.9030   35.7571 C   0  0  0  0  0  0  0  0  0  0  0  0
    2.1544   23.4173   34.8084 C   0  0  2  0  0  0  0  0  0  0  0  0
    2.6477   18.6660   42.4050 C   0  0  1  0  0  0  0  0  0  0  0  0
    1.8402   19.9029   39.6409 O   0  0  0  0  0  0  0  0  0  0  0  0
    1.0510   24.5481   34.6387 C   0  0  0  0  0  0  0  0  0  0  0  0
   -0.0287   19.6732   44.3258 C   0  0  1  0  0  0  0  0  0  0  0  0
   -0.8546   18.6815   44.9107 C   0  0  0  0  0  0  0  0  0  0  0  0
    2.6345   17.9636   37.7321 N   0  0  0  0  0  0  0  0  0  0  0  0
    1.6484   18.7975   38.9911 C   0  0  0  0  0  0  0  0  0  0  0  0
    1.6676   18.4251   37.4981 C   0  0  1  0  0  0  0  0  0  0  0  0
    2.0167   24.9753   32.2798 C   0  0  0  0  0  0  0  0  0  0  0  0
    2.5296   19.9976   42.8461 C   0  0  2  0  0  0  0  0  0  0  0  0
    1.1706   25.4675   33.3532 C   0  0  0  0  0  0  0  0  0  0  0  0
   -0.2545   20.8320   44.3940 C   0  0  0  0  0  0  0  0  0  0  0  0
    1.5280   18.8806   40.4086 N   0  0  0  0  0  0  0  0  0  0  0  0
   -0.3686   21.7972   44.9622 O   0  0  0  0  0  0  0  0  0  0  0  0
    2.5636   19.2458   37.9616 O   0  0  0  0  0  0  0  0  0  0  0  0
    1.9770   17.1817   37.0070 C   0  0  0  0  0  0  0  0  0  0  0  0
    3.8055   19.2744   44.1370 H   0  0  0  0  0  0  0  0  0  0  0  0
    4.5952   19.7984   42.8833 H   0  0  0  0  0  0  0  0  0  0  0  0
   -0.4621   18.4216   46.8501 H   0  0  0  0  0  0  0  0  0  0  0  0
   -0.6469   17.0016   45.9679 H   0  0  0  0  0  0  0  0  0  0  0  0
    0.7560   17.9155   45.8065 H   0  0  0  0  0  0  0  0  0  0  0  0
    3.8143   21.2958   32.7445 H   0  0  0  0  0  0  0  0  0  0  0  0
    4.4943   23.0473   33.0601 H   0  0  0  0  0  0  0  0  0  0  0  0
    2.0609   21.6326   34.0809 H   0  0  0  0  0  0  0  0  0  0  0  0
    1.5687   18.4350   44.5219 H   0  0  0  0  0  0  0  0  0  0  0  0
    0.1366   25.5947   31.3595 H   0  0  0  0  0  0  0  0  0  0  0  0
   -0.1024   24.1304   31.8270 H   0  0  0  0  0  0  0  0  0  0  0  0
    0.9419   27.2362   34.5567 H   0  0  0  0  0  0  0  0  0  0  0  0
    1.6874   27.5160   32.9466 H   0  0  0  0  0  0  0  0  0  0  0  0
   -0.0759   27.1993   33.0771 H   0  0  0  0  0  0  0  0  0  0  0  0
    1.8340   21.2096   36.8105 H   0  0  0  0  0  0  0  0  0  0  0  0
    1.4721   19.9026   35.6327 H   0  0  0  0  0  0  0  0  0  0  0  0
    2.9712   20.8771   35.4604 H   0  0  0  0  0  0  0  0  0  0  0  0
    2.8401   24.0790   35.3579 H   0  0  0  0  0  0  0  0  0  0  0  0
    2.8033   17.7198   41.8660 H   0  0  0  0  0  0  0  0  0  0  0  0
    0.0688   24.0539   34.6057 H   0  0  0  0  0  0  0  0  0  0  0  0
    1.1945   25.2246   35.4941 H   0  0  0  0  0  0  0  0  0  0  0  0
   -0.6215   19.5643   43.4056 H   0  0  0  0  0  0  0  0  0  0  0  0
   -1.7535   19.1764   45.3068 H   0  0  0  0  0  0  0  0  0  0  0  0
   -1.0713   17.9536   44.1149 H   0  0  0  0  0  0  0  0  0  0  0  0
    2.5818   24.0418   32.4186 H   0  0  0  0  0  0  0  0  0  0  0  0
    2.8507   25.4070   31.7069 H   0  0  0  0  0  0  0  0  0  0  0  0
    2.4215   21.0891   42.9288 H   0  0  0  0  0  0  0  0  0  0  0  0
   -0.4632   21.1177   43.3524 H   0  0  0  0  0  0  0  0  0  0  0  0
    2.2301   17.0255   35.9480 H   0  0  0  0  0  0  0  0  0  0  0  0
    1.5850   16.1541   37.0263 H   0  0  0  0  0  0  0  0  0  0  0  0
  2 21  1  0
  2  6  1  0
  4  5  2  3
  6 15  1  0
  7 20  1  0
  7 22  1  0
  8 11  1  0
  8 10  1  0
 11  5  1  0
 12  2  1  0
 12 21  1  0
 12  1  1  0
 13 24  1  0
 14 11  1  0
 15 23  1  0
 15 16  1  0
 16  3  1  0
 17 27  1  0
 17 26  1  0
 18 13  1  0
 18 24  2  0
 19 17  1  0
 19 26  1  0
 19 18  1  1
 20 22  1  0
 21  1  1  0
 22  9  1  0
 22 14  1  0
 23 25  2  0
 27 19  1  0
  1 28  1  0
  1 29  1  0
  3 30  1  0
  3 31  1  0
  3 32  1  0
  4 33  1  0
  4 34  1  0
  5 35  1  0
  6 36  1  0
  7 37  1  0
  7 38  1  0
  9 39  1  0
  9 40  1  0
  9 41  1  0
 10 42  1  0
 10 43  1  0
 10 44  1  0
 11 45  1  1
 12 46  1  6
 14 47  1  0
 14 48  1  0
 15 49  1  6
 16 50  1  0
 16 51  1  0
 20 52  1  0
 20 53  1  0
 21 54  1  6
 23 55  1  0
 27 56  1  0
 27 57  1  0
M  CHG  1   3   1
M  END
>  <mol_id>  (59) 
2026-09-18-6fnk-s0-n100-0059

>  <rmsd_to_ref>  (59) 


$$$$

     RDKit          3D

 46 47  0  0  0  0  0  0  0  0999 V2000
   -2.8049   15.7182   39.7997 C   0  0  0  0  0  0  0  0  0  0  0  0
    3.0563   21.1428   41.2088 C   0  0  0  0  0  0  0  0  0  0  0  0
    1.7612   21.1937   41.9493 O   0  0  0  0  0  0  0  0  0  0  0  0
    2.9644   23.5898   35.3286 C   0  0  0  0  0  0  0  0  0  0  0  0
    0.2320   18.0137   39.6383 C   0  0  0  0  0  0  0  0  0  0  0  0
    2.5897   25.5929   33.3544 C   0  0  0  0  0  0  0  0  0  0  0  0
    3.6839   24.7293   33.3464 C   0  0  0  0  0  0  0  0  0  0  0  0
    2.9783   21.1645   39.7846 C   0  0  1  0  0  0  0  0  0  0  0  0
    1.6928   25.4646   34.3760 C   0  0  0  0  0  0  0  0  0  0  0  0
    1.7649   22.0757   36.9423 C   0  0  0  0  0  0  0  0  0  0  0  0
   -4.1635   15.6350   39.7899 O   0  0  0  0  0  0  0  0  0  0  0  0
    3.8469   23.6708   34.2727 C   0  0  0  0  0  0  0  0  0  0  0  0
   -0.0982   17.7010   40.8891 O   0  0  0  0  0  0  0  0  0  0  0  0
   -0.6957   17.0606   38.7716 C   0  0  2  0  0  0  0  0  0  0  0  0
   -2.2070   16.9896   39.1594 C   0  0  0  0  0  0  0  0  0  0  0  0
    3.0207   22.6501   36.5721 C   0  0  2  0  0  0  0  0  0  0  0  0
   -1.8940   14.8603   40.4090 O   0  0  0  0  0  0  0  0  0  0  0  0
   -0.2175   16.2584   37.5827 C   0  0  0  0  0  0  0  0  0  0  0  0
    5.1652   22.1299   39.5149 F   0  0  0  0  0  0  0  0  0  0  0  0
    1.3836   21.1566   37.8185 C   0  0  0  0  0  0  0  0  0  0  0  0
   -0.1564   15.1093   37.6740 O   0  0  0  0  0  0  0  0  0  0  0  0
    3.9692   21.8931   38.8609 C   0  0  0  0  0  0  0  0  0  0  0  0
    1.8919   24.5060   35.3259 C   0  0  0  0  0  0  0  0  0  0  0  0
    4.1168   22.4211   37.5295 C   0  0  0  0  0  0  0  0  0  0  0  0
    0.0040   16.9552   36.7050 O   0  0  0  0  0  0  0  0  0  0  0  0
    1.8430   20.5931   39.0490 C   0  0  0  0  0  0  0  0  0  0  0  0
    1.0668   19.3437   39.4265 C   0  0  0  0  0  0  0  0  0  0  0  0
    3.6553   22.0101   41.5236 H   0  0  0  0  0  0  0  0  0  0  0  0
    3.4966   20.1666   41.4606 H   0  0  0  0  0  0  0  0  0  0  0  0
    1.9388   21.2359   42.9223 H   0  0  0  0  0  0  0  0  0  0  0  0
    2.4539   26.3493   32.5674 H   0  0  0  0  0  0  0  0  0  0  0  0
    4.4604   24.8778   32.5815 H   0  0  0  0  0  0  0  0  0  0  0  0
    2.3566   22.0707   39.8324 H   0  0  0  0  0  0  0  0  0  0  0  0
    0.8174   26.1282   34.4324 H   0  0  0  0  0  0  0  0  0  0  0  0
    1.3872   21.6771   35.9891 H   0  0  0  0  0  0  0  0  0  0  0  0
    1.4404   22.9325   37.5511 H   0  0  0  0  0  0  0  0  0  0  0  0
    4.6549   22.9340   34.1531 H   0  0  0  0  0  0  0  0  0  0  0  0
    0.3431   18.1601   41.6471 H   0  0  0  0  0  0  0  0  0  0  0  0
   -0.9108   17.8935   38.0860 H   0  0  0  0  0  0  0  0  0  0  0  0
   -2.3868   17.8111   39.8686 H   0  0  0  0  0  0  0  0  0  0  0  0
   -2.7096   17.0272   38.1816 H   0  0  0  0  0  0  0  0  0  0  0  0
    3.9197   22.4119   35.9847 H   0  0  0  0  0  0  0  0  0  0  0  0
    0.3803   21.5128   38.0952 H   0  0  0  0  0  0  0  0  0  0  0  0
    1.7868   20.3282   37.2176 H   0  0  0  0  0  0  0  0  0  0  0  0
    1.1644   24.4431   36.1485 H   0  0  0  0  0  0  0  0  0  0  0  0
    5.1348   22.6750   37.1991 H   0  0  0  0  0  0  0  0  0  0  0  0
  1 11  2  0
  1 17  1  0
  2  3  1  0
  4 23  1  0
  5 13  1  0
  6  9  1  0
  7  6  2  0
  7 12  1  0
  8  2  1  0
  9 23  2  0
 10 20  1  0
 12  4  2  0
 14 15  1  0
 14  5  1  0
 15  1  1  0
 16  4  1  0
 16 10  1  0
 16 24  1  0
 18 21  1  0
 18 14  1  0
 20 26  1  0
 22 19  1  0
 22  8  1  0
 24 22  2  0
 25 18  2  0
 26 27  2  0
 26  8  1  0
 27  5  2  0
  2 28  1  0
  2 29  1  0
  3 30  1  0
  6 31  1  0
  7 32  1  0
  8 33  1  6
  9 34  1  0
 10 35  1  0
 10 36  1  0
 12 37  1  0
 13 38  1  0
 14 39  1  6
 15 40  1  0
 15 41  1  0
 16 42  1  6
 20 43  1  0
 20 44  1  0
 23 45  1  0
 24 46  1  0
M  CHG  2  17  -1  21  -1
M  END
>  <mol_id>  (60) 
2026-09-18-6fnk-s0-n100-0060

>  <rmsd_to_ref>  (60) 


$$$$

     RDKit          3D

 41 39  0  0  0  0  0  0  0  0999 V2000
    1.5497   19.9363   41.2093 C   0  0  2  0  0  0  0  0  0  0  0  0
    2.1025   23.0523   36.4457 C   0  0  0  0  0  0  0  0  0  0  0  0
    1.2796   18.9208   40.0884 C   0  0  0  0  0  0  0  0  0  0  0  0
    4.1999   23.6982   37.9618 C   0  0  0  0  0  0  0  0  0  0  0  0
    0.5454   20.4380   42.1733 C   0  0  0  0  0  0  0  0  0  0  0  0
   -1.1341   16.8118   38.8748 C   0  0  0  0  0  0  0  0  0  0  0  0
    0.6909   17.6096   40.4744 C   0  0  0  0  0  0  0  0  0  0  0  0
    2.4581   24.3730   33.8372 S   0  0  0  0  0  0  0  0  0  0  0  0
    2.3319   21.4919   41.1191 F   0  0  0  0  0  0  0  0  0  0  0  0
   -0.6951   17.2833   40.0882 O   0  0  0  0  0  0  0  0  0  0  0  0
    0.9883   25.1090   35.2343 S   0  0  0  0  0  0  0  0  0  0  0  0
    0.0984   16.6224   37.9025 C   0  0  0  0  0  0  0  0  0  0  0  0
    3.0142   22.6661   37.7038 C   0  0  0  0  0  0  0  0  0  0  0  0
    1.0759   24.1778   36.8044 C   0  0  0  0  0  0  0  0  0  0  0  0
   -0.3775   21.3353   44.0501 O   0  0  0  0  0  0  0  0  0  0  0  0
    0.3207   21.6067   42.9099 C   0  0  0  0  0  0  0  0  0  0  0  0
    2.1769   19.0551   41.4099 H   0  0  0  0  0  0  0  0  0  0  0  0
    1.5522   22.1589   36.1155 H   0  0  0  0  0  0  0  0  0  0  0  0
    2.7588   23.4262   35.6461 H   0  0  0  0  0  0  0  0  0  0  0  0
    2.2391   18.7170   39.5906 H   0  0  0  0  0  0  0  0  0  0  0  0
    0.5135   19.3966   39.4587 H   0  0  0  0  0  0  0  0  0  0  0  0
    4.3559   23.8141   39.0444 H   0  0  0  0  0  0  0  0  0  0  0  0
    5.1224   23.3206   37.4968 H   0  0  0  0  0  0  0  0  0  0  0  0
    3.9400   24.6726   37.5224 H   0  0  0  0  0  0  0  0  0  0  0  0
   -0.3906   20.3400   41.6039 H   0  0  0  0  0  0  0  0  0  0  0  0
    0.9864   19.8990   43.0248 H   0  0  0  0  0  0  0  0  0  0  0  0
   -1.6391   15.8452   39.0186 H   0  0  0  0  0  0  0  0  0  0  0  0
   -1.8387   17.5333   38.4356 H   0  0  0  0  0  0  0  0  0  0  0  0
    1.3342   16.8313   40.0379 H   0  0  0  0  0  0  0  0  0  0  0  0
    0.6420   17.6665   41.5718 H   0  0  0  0  0  0  0  0  0  0  0  0
    3.5574   23.9278   34.5229 H   0  0  0  0  0  0  0  0  0  0  0  0
    1.0218   16.5350   38.4938 H   0  0  0  0  0  0  0  0  0  0  0  0
   -0.0425   15.7093   37.3055 H   0  0  0  0  0  0  0  0  0  0  0  0
    0.1732   17.4910   37.2318 H   0  0  0  0  0  0  0  0  0  0  0  0
    2.3774   22.6344   38.6002 H   0  0  0  0  0  0  0  0  0  0  0  0
    3.4727   21.6900   37.4871 H   0  0  0  0  0  0  0  0  0  0  0  0
    0.0969   23.7565   37.0764 H   0  0  0  0  0  0  0  0  0  0  0  0
    1.3667   24.7890   37.6716 H   0  0  0  0  0  0  0  0  0  0  0  0
    0.1752   21.5663   44.8383 H   0  0  0  0  0  0  0  0  0  0  0  0
    1.2885   22.0554   43.1782 H   0  0  0  0  0  0  0  0  0  0  0  0
   -0.2674   22.3033   42.2943 H   0  0  0  0  0  0  0  0  0  0  0  0
  1  9  1  0
  1  5  1  0
  2 14  1  0
  2 13  1  0
  3  7  1  0
  3  1  1  0
  5 16  1  0
  6 10  1  0
  8 11  1  0
 10  7  1  0
 11 14  1  0
 12  6  1  0
 13  4  1  0
 16 15  1  0
  1 17  1  1
  2 18  1  0
  2 19  1  0
  3 20  1  0
  3 21  1  0
  4 22  1  0
  4 23  1  0
  4 24  1  0
  5 25  1  0
  5 26  1  0
  6 27  1  0
  6 28  1  0
  7 29  1  0
  7 30  1  0
  8 31  1  0
 12 32  1  0
 12 33  1  0
 12 34  1  0
 13 35  1  0
 13 36  1  0
 14 37  1  0
 14 38  1  0
 15 39  1  0
 16 40  1  0
 16 41  1  0
M  END
>  <mol_id>  (61) 
2026-09-18-6fnk-s0-n100-0061

>  <rmsd_to_ref>  (61) 


$$$$

     RDKit          3D

 63 64  0  0  0  0  0  0  0  0999 V2000
    1.1135   19.1089   37.8486 C   0  0  1  0  0  0  0  0  0  0  0  0
    4.0199   23.8934   33.6018 C   0  0  0  0  0  0  0  0  0  0  0  0
    4.8623   21.5947   37.6691 C   0  0  0  0  0  0  0  0  0  0  0  0
    6.1326   22.2231   37.0766 O   0  0  0  0  0  0  0  0  0  0  0  0
    4.1513   22.9394   35.6103 O   0  0  0  0  0  0  0  0  0  0  0  0
    1.8867   21.0003   41.5608 C   0  0  0  0  0  0  0  0  0  0  0  0
   -0.0256   17.6829   36.2334 C   0  0  1  0  0  0  0  0  0  0  0  0
    3.6318   21.9754   36.8668 C   0  0  1  0  0  0  0  0  0  0  0  0
   -0.0188   18.2896   38.9534 S   0  0  0  0  0  0  0  0  0  0  0  0
    1.2692   20.4870   40.5392 C   0  0  0  0  0  0  0  0  0  0  0  0
    2.5842   25.7890   29.9337 S   0  0  0  0  0  0  0  0  0  0  0  0
    2.4183   22.4404   34.9411 O   0  0  0  0  0  0  0  0  0  0  0  0
    3.5152   23.8952   32.0495 C   0  0  1  0  0  0  0  0  0  0  0  0
    3.1176   20.2580   36.7602 C   0  0  0  0  0  0  0  0  0  0  0  0
   -1.9714   16.5112   37.3964 N   0  0  0  0  0  0  0  0  0  0  0  0
    2.4093   25.4246   31.7313 C   0  0  0  0  0  0  0  0  0  0  0  0
    2.7708   23.9719   28.9098 S   0  0  0  0  0  0  0  0  0  0  0  0
    1.1118   18.5765   36.5176 N   0  0  0  0  0  0  0  0  0  0  0  0
    4.5282   24.0865   31.1738 C   0  0  0  0  0  0  0  0  0  0  0  0
    3.3081   23.2023   34.8123 C   0  0  0  0  0  0  0  0  0  0  0  0
    0.2277   16.6427   35.3110 O   0  0  0  0  0  0  0  0  0  0  0  0
    4.4339   23.1317   29.6420 S   0  0  1  0  0  4  0  0  0  0  0  0
    0.8271   21.6260   42.3613 C   0  0  0  0  0  0  0  0  0  0  0  0
    5.5428   22.1256   30.2499 C   0  0  0  0  0  0  0  0  0  0  0  0
   -0.6937   17.1176   37.5019 C   0  0  1  0  0  0  0  0  0  0  0  0
    2.0653   20.2775   38.0306 C   0  0  1  0  0  0  0  0  0  0  0  0
    1.8331   20.9131   39.1185 N   0  0  0  0  0  0  0  0  0  0  0  0
    1.9105   18.4129   38.1493 H   0  0  0  0  0  0  0  0  0  0  0  0
    4.0908   24.9552   33.8804 H   0  0  0  0  0  0  0  0  0  0  0  0
    4.8966   23.2358   33.5071 H   0  0  0  0  0  0  0  0  0  0  0  0
    4.9685   20.4998   37.6641 H   0  0  0  0  0  0  0  0  0  0  0  0
    4.7366   21.9693   38.6956 H   0  0  0  0  0  0  0  0  0  0  0  0
    6.7519   22.4684   37.8089 H   0  0  0  0  0  0  0  0  0  0  0  0
    2.6203   21.7517   41.2332 H   0  0  0  0  0  0  0  0  0  0  0  0
    2.4474   20.2447   42.1307 H   0  0  0  0  0  0  0  0  0  0  0  0
   -0.7335   18.3624   35.7363 H   0  0  0  0  0  0  0  0  0  0  0  0
    2.7835   22.6134   37.1554 H   0  0  0  0  0  0  0  0  0  0  0  0
    1.3372   19.3918   40.6167 H   0  0  0  0  0  0  0  0  0  0  0  0
    0.2391   20.8702   40.5837 H   0  0  0  0  0  0  0  0  0  0  0  0
    3.0186   22.9239   31.9074 H   0  0  0  0  0  0  0  0  0  0  0  0
    2.6204   20.0270   35.8066 H   0  0  0  0  0  0  0  0  0  0  0  0
    3.9173   19.5036   36.7976 H   0  0  0  0  0  0  0  0  0  0  0  0
   -2.3232   16.2857   38.3378 H   0  0  0  0  0  0  0  0  0  0  0  0
   -2.6226   17.1609   36.9330 H   0  0  0  0  0  0  0  0  0  0  0  0
   -1.8963   15.6465   36.8417 H   0  0  0  0  0  0  0  0  0  0  0  0
    2.7525   26.2795   32.3325 H   0  0  0  0  0  0  0  0  0  0  0  0
    1.3620   25.2376   32.0110 H   0  0  0  0  0  0  0  0  0  0  0  0
    1.9836   18.0458   36.3794 H   0  0  0  0  0  0  0  0  0  0  0  0
    1.0305   19.3775   35.8752 H   0  0  0  0  0  0  0  0  0  0  0  0
    4.5461   25.1533   30.9060 H   0  0  0  0  0  0  0  0  0  0  0  0
    5.4369   23.7391   31.6872 H   0  0  0  0  0  0  0  0  0  0  0  0
    0.4695   15.8178   35.8021 H   0  0  0  0  0  0  0  0  0  0  0  0
    4.5711   22.6483   28.3675 H   0  0  0  0  0  0  0  0  0  0  0  0
    1.0426   21.4832   43.4305 H   0  0  0  0  0  0  0  0  0  0  0  0
    0.7845   22.7018   42.1363 H   0  0  0  0  0  0  0  0  0  0  0  0
   -0.1397   21.1617   42.1169 H   0  0  0  0  0  0  0  0  0  0  0  0
    5.5060   22.1601   31.3488 H   0  0  0  0  0  0  0  0  0  0  0  0
    5.3349   21.1010   29.9081 H   0  0  0  0  0  0  0  0  0  0  0  0
    6.5423   22.4309   29.9068 H   0  0  0  0  0  0  0  0  0  0  0  0
   -0.4480   16.0944   37.8223 H   0  0  0  0  0  0  0  0  0  0  0  0
    2.7469   19.6329   38.6051 H   0  0  0  0  0  0  0  0  0  0  0  0
    2.7475   21.3295   39.3454 H   0  0  0  0  0  0  0  0  0  0  0  0
    0.9609   21.3537   38.7928 H   0  0  0  0  0  0  0  0  0  0  0  0
  1 26  1  0
  1  9  1  0
  2 20  1  0
  4  3  1  0
  5  8  1  0
  6 23  1  0
  7 21  1  0
  7 18  1  0
  7 25  1  0
  8 14  1  0
  8  3  1  0
 10  6  1  0
 11 16  1  0
 13  2  1  0
 16 13  1  0
 17 22  1  0
 17 11  1  0
 18  1  1  0
 19 13  1  0
 20 12  2  0
 20  5  1  0
 22 24  1  0
 22 19  1  0
 25 15  1  0
 25  9  1  0
 26 14  1  0
 26 27  1  0
 27 10  1  0
  1 28  1  1
  2 29  1  0
  2 30  1  0
  3 31  1  0
  3 32  1  0
  4 33  1  0
  6 34  1  0
  6 35  1  0
  7 36  1  6
  8 37  1  1
 10 38  1  0
 10 39  1  0
 13 40  1  6
 14 41  1  0
 14 42  1  0
 15 43  1  0
 15 44  1  0
 15 45  1  0
 16 46  1  0
 16 47  1  0
 18 48  1  0
 18 49  1  0
 19 50  1  0
 19 51  1  0
 21 52  1  0
 22 53  1  0
 23 54  1  0
 23 55  1  0
 23 56  1  0
 24 57  1  0
 24 58  1  0
 24 59  1  0
 25 60  1  1
 26 61  1  6
 27 62  1  0
 27 63  1  0
M  CHG  3  15   1  18   1  27   1
M  END
>  <mol_id>  (62) 
2026-09-18-6fnk-s0-n100-0062

>  <rmsd_to_ref>  (62) 


$$$$

     RDKit          3D

 66 67  0  0  0  0  0  0  0  0999 V2000
    5.6236   22.8855   34.7270 S   0  0  0  0  0  0  0  0  0  0  0  0
    2.6378   22.4925   34.7577 C   0  0  2  0  0  0  0  0  0  0  0  0
   -1.5159   14.2493   45.2736 O   0  0  0  0  0  0  0  0  0  0  0  0
    3.2700   20.2049   38.9156 C   0  0  1  0  0  0  0  0  0  0  0  0
    0.8221   24.2713   34.2918 C   0  0  0  0  0  0  0  0  0  0  0  0
    3.2382   21.1916   36.7407 C   0  0  0  0  0  0  0  0  0  0  0  0
    2.5462   18.0240   39.7990 C   0  0  0  0  0  0  0  0  0  0  0  0
    4.0386   22.4113   34.4817 C   0  0  2  0  0  0  0  0  0  0  0  0
    1.6052   17.9080   40.7793 N   0  0  0  0  0  0  0  0  0  0  0  0
    0.8089   16.8397   40.9663 C   0  0  2  0  0  0  0  0  0  0  0  0
   -0.4284   14.1490   44.8141 C   0  0  0  0  0  0  0  0  0  0  0  0
    0.8042   15.7136   43.4420 C   0  0  0  0  0  0  0  0  0  0  0  0
    2.2886   23.9003   34.2235 C   0  0  0  0  0  0  0  0  0  0  0  0
    0.5751   25.8063   34.4699 C   0  0  0  0  0  0  0  0  0  0  0  0
    3.4075   20.8019   40.1799 C   0  0  0  0  0  0  0  0  0  0  0  0
    3.3210   22.5353   36.0411 C   0  0  1  0  0  0  0  0  0  0  0  0
   -0.2203   14.7521   43.5505 N   0  0  0  0  0  0  0  0  0  0  0  0
    1.6741   26.6060   33.9177 C   0  0  0  0  0  0  0  0  0  0  0  0
    1.0171   16.1373   42.1492 N   0  0  0  0  0  0  0  0  0  0  0  0
    2.6335   18.9703   38.8622 N   0  0  0  0  0  0  0  0  0  0  0  0
    0.8069   13.7963   45.3975 N   0  0  0  0  0  0  0  0  0  0  0  0
    3.8498   20.9264   37.9860 N   0  0  0  0  0  0  0  0  0  0  0  0
    1.0860   16.3754   44.4218 O   0  0  0  0  0  0  0  0  0  0  0  0
    3.0477   24.6662   33.0546 C   0  0  0  0  0  0  0  0  0  0  0  0
    2.2022   25.9415   32.7319 C   0  0  0  0  0  0  0  0  0  0  0  0
   -0.2719   16.4999   40.0439 C   0  0  0  0  0  0  0  0  0  0  0  0
    5.8252   23.3525   36.4449 C   0  0  0  0  0  0  0  0  0  0  0  0
    1.7684   21.8645   34.5135 H   0  0  0  0  0  0  0  0  0  0  0  0
    4.2382   19.7000   39.0488 H   0  0  0  0  0  0  0  0  0  0  0  0
    0.3689   23.7443   35.1444 H   0  0  0  0  0  0  0  0  0  0  0  0
    0.3691   23.9793   33.3329 H   0  0  0  0  0  0  0  0  0  0  0  0
    3.6582   20.4585   36.0363 H   0  0  0  0  0  0  0  0  0  0  0  0
    2.1723   21.1529   37.0101 H   0  0  0  0  0  0  0  0  0  0  0  0
    3.5055   18.0708   40.3352 H   0  0  0  0  0  0  0  0  0  0  0  0
    2.2338   17.1828   39.1627 H   0  0  0  0  0  0  0  0  0  0  0  0
    4.3945   22.0843   33.4936 H   0  0  0  0  0  0  0  0  0  0  0  0
    2.1168   18.0269   41.6654 H   0  0  0  0  0  0  0  0  0  0  0  0
    0.9137   18.5982   40.4532 H   0  0  0  0  0  0  0  0  0  0  0  0
    0.1143   17.4600   41.5517 H   0  0  0  0  0  0  0  0  0  0  0  0
    2.9070   24.3295   35.0257 H   0  0  0  0  0  0  0  0  0  0  0  0
   -0.3571   26.0786   33.9533 H   0  0  0  0  0  0  0  0  0  0  0  0
    0.5082   26.0177   35.5474 H   0  0  0  0  0  0  0  0  0  0  0  0
    3.6832   20.0355   40.9192 H   0  0  0  0  0  0  0  0  0  0  0  0
    4.1927   21.5712   40.1387 H   0  0  0  0  0  0  0  0  0  0  0  0
    2.4540   21.2665   40.4716 H   0  0  0  0  0  0  0  0  0  0  0  0
    3.3923   23.1903   36.9219 H   0  0  0  0  0  0  0  0  0  0  0  0
   -0.7985   14.4967   42.7373 H   0  0  0  0  0  0  0  0  0  0  0  0
    1.3016   27.6043   33.6447 H   0  0  0  0  0  0  0  0  0  0  0  0
    2.4706   26.7083   34.6694 H   0  0  0  0  0  0  0  0  0  0  0  0
    1.8568   15.5933   41.9044 H   0  0  0  0  0  0  0  0  0  0  0  0
    1.6543   19.1979   38.6379 H   0  0  0  0  0  0  0  0  0  0  0  0
    3.2997   18.4928   38.2383 H   0  0  0  0  0  0  0  0  0  0  0  0
    1.6590   13.7646   44.8197 H   0  0  0  0  0  0  0  0  0  0  0  0
    0.8566   13.5703   46.4012 H   0  0  0  0  0  0  0  0  0  0  0  0
    4.7411   20.4561   37.7728 H   0  0  0  0  0  0  0  0  0  0  0  0
    3.8610   21.8607   38.4195 H   0  0  0  0  0  0  0  0  0  0  0  0
    4.0576   24.9536   33.3826 H   0  0  0  0  0  0  0  0  0  0  0  0
    3.1551   24.0267   32.1661 H   0  0  0  0  0  0  0  0  0  0  0  0
    2.8405   26.6540   32.1890 H   0  0  0  0  0  0  0  0  0  0  0  0
    1.3390   25.6140   32.1338 H   0  0  0  0  0  0  0  0  0  0  0  0
   -1.1570   16.1852   40.6161 H   0  0  0  0  0  0  0  0  0  0  0  0
   -0.5236   17.3800   39.4339 H   0  0  0  0  0  0  0  0  0  0  0  0
    0.0512   15.6788   39.3871 H   0  0  0  0  0  0  0  0  0  0  0  0
    6.1860   22.4871   37.0202 H   0  0  0  0  0  0  0  0  0  0  0  0
    6.5553   24.1720   36.5189 H   0  0  0  0  0  0  0  0  0  0  0  0
    4.8583   23.6852   36.8504 H   0  0  0  0  0  0  0  0  0  0  0  0
  1 27  1  0
  2 13  1  0
  2 16  1  0
  4 15  1  0
  5 14  1  0
  5 13  1  0
  6 22  1  0
  7  9  1  0
  8  2  1  0
  8  1  1  0
  8 16  1  0
  9 10  1  0
 10 26  1  0
 10 19  1  0
 11  3  2  0
 11 21  1  0
 12 23  2  0
 16  6  1  0
 17 12  1  0
 17 11  1  0
 18 14  1  0
 19 12  1  0
 20  4  1  0
 20  7  1  0
 22  4  1  0
 24 13  1  0
 25 24  1  0
 25 18  1  0
  2 28  1  1
  4 29  1  6
  5 30  1  0
  5 31  1  0
  6 32  1  0
  6 33  1  0
  7 34  1  0
  7 35  1  0
  8 36  1  1
  9 37  1  0
  9 38  1  0
 10 39  1  6
 13 40  1  0
 14 41  1  0
 14 42  1  0
 15 43  1  0
 15 44  1  0
 15 45  1  0
 16 46  1  1
 17 47  1  0
 18 48  1  0
 18 49  1  0
 19 50  1  0
 20 51  1  0
 20 52  1  0
 21 53  1  0
 21 54  1  0
 22 55  1  0
 22 56  1  0
 24 57  1  0
 24 58  1  0
 25 59  1  0
 25 60  1  0
 26 61  1  0
 26 62  1  0
 26 63  1  0
 27 64  1  0
 27 65  1  0
 27 66  1  0
M  CHG  3   9   1  20   1  22   1
M  END
>  <mol_id>  (63) 
2026-09-18-6fnk-s0-n100-0063

>  <rmsd_to_ref>  (63) 


$$$$

     RDKit          3D

 67 68  0  0  0  0  0  0  0  0999 V2000
    2.1016   17.2267   41.3903 C   0  0  0  0  0  0  0  0  0  0  0  0
    0.4721   15.4478   42.2176 C   0  0  0  0  0  0  0  0  0  0  0  0
    0.2345   15.8136   38.5339 C   0  0  0  0  0  0  0  0  0  0  0  0
   -0.4095   15.1569   44.5821 C   0  0  0  0  0  0  0  0  0  0  0  0
    4.7810   23.2220   36.8676 C   0  0  0  0  0  0  0  0  0  0  0  0
    3.1236   16.2926   40.7043 O   0  0  0  0  0  0  0  0  0  0  0  0
    2.4132   19.7969   41.2625 C   0  0  0  0  0  0  0  0  0  0  0  0
   -0.7727   13.8417   44.2855 C   0  0  0  0  0  0  0  0  0  0  0  0
    1.3826   23.0476   36.5378 C   0  0  0  0  0  0  0  0  0  0  0  0
    2.6009   22.8144   36.0337 O   0  0  0  0  0  0  0  0  0  0  0  0
    4.1592   22.5308   38.0390 C   0  0  0  0  0  0  0  0  0  0  0  0
    3.7218   23.3948   35.7967 C   0  0  2  0  0  0  0  0  0  0  0  0
    3.6692   24.1696   34.5203 C   0  0  0  0  0  0  0  0  0  0  0  0
   -0.2887   13.2367   43.1228 C   0  0  0  0  0  0  0  0  0  0  0  0
    0.5224   25.3146   30.8979 C   0  0  0  0  0  0  0  0  0  0  0  0
    2.2910   24.6682   33.9698 C   0  0  2  0  0  0  0  0  0  0  0  0
   -0.0445   16.2713   37.4461 O   0  0  0  0  0  0  0  0  0  0  0  0
    1.8487   18.4406   40.3305 C   0  0  1  0  0  0  0  0  0  0  0  0
    5.2662   22.1964   39.0136 F   0  0  0  0  0  0  0  0  0  0  0  0
    0.8281   16.3876   40.9547 C   0  0  2  0  0  0  0  0  0  0  0  0
    1.0807   25.4816   32.1469 C   0  0  0  0  0  0  0  0  0  0  0  0
    0.7112   24.6065   34.3709 C   0  0  0  0  0  0  0  0  0  0  0  0
   -0.0574   14.4687   38.8074 N   0  0  0  0  0  0  0  0  0  0  0  0
    1.6186   17.6285   39.0317 C   0  0  0  0  0  0  0  0  0  0  0  0
    5.9670   23.5222   36.8618 O   0  0  0  0  0  0  0  0  0  0  0  0
    0.2162   14.0661   42.0279 C   0  0  0  0  0  0  0  0  0  0  0  0
    0.1277   25.5465   33.3036 C   0  0  0  0  0  0  0  0  0  0  0  0
    1.6565   17.9851   42.6113 O   0  0  0  0  0  0  0  0  0  0  0  0
    3.1337   21.9279   38.1332 C   0  0  0  0  0  0  0  0  0  0  0  0
    2.3601   24.8752   32.4752 C   0  0  0  0  0  0  0  0  0  0  0  0
   -1.5724   13.0732   44.8918 N   0  0  0  0  0  0  0  0  0  0  0  0
    0.2612   15.9091   43.5652 C   0  0  0  0  0  0  0  0  0  0  0  0
    0.9081   16.4907   39.4305 N   0  0  0  0  0  0  0  0  0  0  0  0
   -0.6312   15.6003   45.5641 H   0  0  0  0  0  0  0  0  0  0  0  0
    3.7149   15.8908   41.3891 H   0  0  0  0  0  0  0  0  0  0  0  0
    2.1856   19.6312   42.3259 H   0  0  0  0  0  0  0  0  0  0  0  0
    3.5002   19.9042   41.1325 H   0  0  0  0  0  0  0  0  0  0  0  0
    1.9106   20.7129   40.9184 H   0  0  0  0  0  0  0  0  0  0  0  0
    1.4604   23.2143   37.6223 H   0  0  0  0  0  0  0  0  0  0  0  0
    0.9526   23.9401   36.0596 H   0  0  0  0  0  0  0  0  0  0  0  0
    0.7340   22.1802   36.3456 H   0  0  0  0  0  0  0  0  0  0  0  0
    3.3791   24.2821   36.3493 H   0  0  0  0  0  0  0  0  0  0  0  0
    4.2970   25.0615   34.6628 H   0  0  0  0  0  0  0  0  0  0  0  0
    3.9971   23.4400   33.7650 H   0  0  0  0  0  0  0  0  0  0  0  0
   -0.2871   12.1405   43.0308 H   0  0  0  0  0  0  0  0  0  0  0  0
   -0.4466   25.7788   30.6621 H   0  0  0  0  0  0  0  0  0  0  0  0
    1.0456   24.7171   30.1370 H   0  0  0  0  0  0  0  0  0  0  0  0
    2.3945   25.2027   34.9256 H   0  0  0  0  0  0  0  0  0  0  0  0
    1.3171   19.2261   39.7732 H   0  0  0  0  0  0  0  0  0  0  0  0
   -0.2667   16.3634   40.8499 H   0  0  0  0  0  0  0  0  0  0  0  0
    0.3070   23.5872   34.2822 H   0  0  0  0  0  0  0  0  0  0  0  0
    0.4857   24.8886   35.4100 H   0  0  0  0  0  0  0  0  0  0  0  0
   -0.5854   13.9071   38.1241 H   0  0  0  0  0  0  0  0  0  0  0  0
    0.2563   14.0430   39.6913 H   0  0  0  0  0  0  0  0  0  0  0  0
    2.5801   17.3439   38.5795 H   0  0  0  0  0  0  0  0  0  0  0  0
    1.0716   18.2100   38.2751 H   0  0  0  0  0  0  0  0  0  0  0  0
    0.3997   13.6110   41.0434 H   0  0  0  0  0  0  0  0  0  0  0  0
    0.0627   26.5741   33.6908 H   0  0  0  0  0  0  0  0  0  0  0  0
   -0.8899   25.2490   33.0107 H   0  0  0  0  0  0  0  0  0  0  0  0
    2.0180   17.5467   43.4220 H   0  0  0  0  0  0  0  0  0  0  0  0
    2.8434   21.4834   39.0966 H   0  0  0  0  0  0  0  0  0  0  0  0
    2.4787   21.8165   37.2565 H   0  0  0  0  0  0  0  0  0  0  0  0
    2.4839   23.9153   31.9524 H   0  0  0  0  0  0  0  0  0  0  0  0
    3.2149   25.4978   32.1722 H   0  0  0  0  0  0  0  0  0  0  0  0
   -1.7344   12.1183   44.5414 H   0  0  0  0  0  0  0  0  0  0  0  0
   -2.0621   13.4019   45.7362 H   0  0  0  0  0  0  0  0  0  0  0  0
    0.6409   16.9066   43.8312 H   0  0  0  0  0  0  0  0  0  0  0  0
  1 28  1  0
  2 32  1  0
  3 23  1  0
  3 33  1  0
  5 11  1  0
  6  1  1  0
  8  4  1  0
  8 31  1  0
 10  9  1  0
 11 29  2  3
 11 19  1  0
 12 13  1  0
 12 10  1  0
 12  5  1  0
 14  8  2  0
 15 21  2  3
 16 13  1  0
 16 22  1  0
 17  3  2  0
 18  1  1  0
 18  7  1  0
 20  1  1  0
 20  2  1  0
 21 30  1  0
 21 27  1  0
 24 33  1  0
 24 18  1  0
 25  5  2  0
 26  2  2  0
 26 14  1  0
 27 22  1  0
 30 16  1  0
 32  4  2  0
 33 20  1  0
  4 34  1  0
  6 35  1  0
  7 36  1  0
  7 37  1  0
  7 38  1  0
  9 39  1  0
  9 40  1  0
  9 41  1  0
 12 42  1  6
 13 43  1  0
 13 44  1  0
 14 45  1  0
 15 46  1  0
 15 47  1  0
 16 48  1  1
 18 49  1  1
 20 50  1  1
 22 51  1  0
 22 52  1  0
 23 53  1  0
 23 54  1  0
 24 55  1  0
 24 56  1  0
 26 57  1  0
 27 58  1  0
 27 59  1  0
 28 60  1  0
 29 61  1  0
 29 62  1  0
 30 63  1  0
 30 64  1  0
 31 65  1  0
 31 66  1  0
 32 67  1  0
M  END
>  <mol_id>  (64) 
2026-09-18-6fnk-s0-n100-0064

>  <rmsd_to_ref>  (64) 


$$$$

     RDKit          3D

 44 48  0  0  0  0  0  0  0  0999 V2000
    2.3182   16.8923   38.5871 C   0  0  0  0  0  0  0  0  0  0  0  0
    5.5379   23.3124   34.9021 C   0  0  0  0  0  0  0  0  0  0  0  0
   -0.4787   18.8643   42.2605 C   0  0  0  0  0  0  0  0  0  0  0  0
    1.3058   21.4719   38.8280 C   0  0  0  0  0  0  0  0  0  0  0  0
    2.6850   21.8254   37.0363 C   0  0  0  0  0  0  0  0  0  0  0  0
    6.9230   22.9403   35.6192 C   0  0  0  0  0  0  0  0  0  0  0  0
    1.4110   21.6390   37.5099 N   0  0  0  0  0  0  0  0  0  0  0  0
    2.0977   17.9775   39.5394 C   0  0  0  0  0  0  0  0  0  0  0  0
    6.5978   22.5537   37.0177 C   0  0  0  0  0  0  0  0  0  0  0  0
    0.0989   16.8205   40.4349 C   0  0  0  0  0  0  0  0  0  0  0  0
    0.2774   15.7297   39.4596 C   0  0  0  0  0  0  0  0  0  0  0  0
    5.0643   22.3410   37.0744 C   0  0  1  0  0  0  0  0  0  0  0  0
    2.2880   21.4274   39.8700 C   0  0  0  0  0  0  0  0  0  0  0  0
    3.7604   21.6707   39.4749 C   0  0  0  0  0  0  0  0  0  0  0  0
   -1.1913   16.7979   41.2894 C   0  0  0  0  0  0  0  0  0  0  0  0
    1.3220   15.8382   38.5866 C   0  0  0  0  0  0  0  0  0  0  0  0
    1.0514   17.9766   40.5053 C   0  0  0  0  0  0  0  0  0  0  0  0
    3.9087   21.9300   37.9608 C   0  0  0  0  0  0  0  0  0  0  0  0
    1.7595   20.5938   41.2370 S   0  0  0  0  0  0  0  0  0  0  0  0
    2.2983   21.7393   34.6454 O   0  0  0  0  0  0  0  0  0  0  0  0
    0.6950   19.1210   41.4084 C   0  0  1  0  0  0  0  0  0  0  0  0
    3.1369   21.9714   35.6542 C   0  0  0  0  0  0  0  0  0  0  0  0
   -1.0867   17.6110   42.7271 C   0  0  0  0  0  0  0  0  0  0  0  0
    4.5178   22.5511   35.7561 N   0  0  0  0  0  0  0  0  0  0  0  0
    3.1863   16.8755   37.9118 H   0  0  0  0  0  0  0  0  0  0  0  0
    5.5230   22.9652   33.8585 H   0  0  0  0  0  0  0  0  0  0  0  0
    5.3466   24.3941   34.8446 H   0  0  0  0  0  0  0  0  0  0  0  0
   -0.2492   19.4050   43.1906 H   0  0  0  0  0  0  0  0  0  0  0  0
   -1.2420   19.1059   41.5062 H   0  0  0  0  0  0  0  0  0  0  0  0
    0.2722   21.3445   39.1818 H   0  0  0  0  0  0  0  0  0  0  0  0
    7.4050   22.1004   35.0974 H   0  0  0  0  0  0  0  0  0  0  0  0
    7.6174   23.7931   35.5989 H   0  0  0  0  0  0  0  0  0  0  0  0
    2.7768   18.8424   39.5089 H   0  0  0  0  0  0  0  0  0  0  0  0
    7.1199   21.6233   37.2853 H   0  0  0  0  0  0  0  0  0  0  0  0
    6.9163   23.3311   37.7278 H   0  0  0  0  0  0  0  0  0  0  0  0
   -0.4020   14.8649   39.4361 H   0  0  0  0  0  0  0  0  0  0  0  0
    5.1980   21.2944   36.7634 H   0  0  0  0  0  0  0  0  0  0  0  0
    4.6005   21.6605   40.1851 H   0  0  0  0  0  0  0  0  0  0  0  0
   -2.0009   17.2509   40.6984 H   0  0  0  0  0  0  0  0  0  0  0  0
   -1.3761   15.7436   41.5429 H   0  0  0  0  0  0  0  0  0  0  0  0
    1.4159   15.0586   37.8162 H   0  0  0  0  0  0  0  0  0  0  0  0
    1.3703   18.7226   42.1798 H   0  0  0  0  0  0  0  0  0  0  0  0
   -2.0771   17.7787   43.1754 H   0  0  0  0  0  0  0  0  0  0  0  0
   -0.5285   17.0886   43.5180 H   0  0  0  0  0  0  0  0  0  0  0  0
  1  8  1  0
  2 24  1  0
  2  6  1  0
  4 13  1  0
  5  7  1  0
  5 18  2  0
  6  9  1  0
  7  4  2  0
  8 17  2  0
 10 17  1  0
 10 15  1  0
 11 10  2  0
 12  9  1  0
 12 18  1  0
 13 19  1  0
 14 13  2  0
 15 23  1  0
 16  1  2  0
 16 11  1  0
 17 21  1  0
 18 14  1  0
 20 22  2  0
 21 19  1  0
 21  3  1  0
 22 24  1  0
 22  5  1  0
 23  3  1  0
 24 12  1  0
  1 25  1  0
  2 26  1  0
  2 27  1  0
  3 28  1  0
  3 29  1  0
  4 30  1  0
  6 31  1  0
  6 32  1  0
  8 33  1  0
  9 34  1  0
  9 35  1  0
 11 36  1  0
 12 37  1  1
 14 38  1  0
 15 39  1  0
 15 40  1  0
 16 41  1  0
 21 42  1  1
 23 43  1  0
 23 44  1  0
M  END
>  <mol_id>  (65) 
2026-09-18-6fnk-s0-n100-0065

>  <rmsd_to_ref>  (65) 


$$$$

     RDKit          3D

 69 69  0  0  0  0  0  0  0  0999 V2000
    2.5645   21.2512   39.0449 C   0  0  0  0  0  0  0  0  0  0  0  0
   -0.0662   16.9635   40.2582 C   0  0  0  0  0  0  0  0  0  0  0  0
    1.2231   24.6874   33.6507 C   0  0  0  0  0  0  0  0  0  0  0  0
    2.3734   22.8438   35.9497 C   0  0  2  0  0  0  0  0  0  0  0  0
    1.7260   24.5927   32.4289 C   0  0  0  0  0  0  0  0  0  0  0  0
    4.8836   22.2526   37.4361 O   0  0  0  0  0  0  0  0  0  0  0  0
    2.5938   24.2127   36.3619 C   0  0  0  0  0  0  0  0  0  0  0  0
   -1.7972   15.2069   38.9921 N   0  0  0  0  0  0  0  0  0  0  0  0
    2.8936   24.6379   30.0502 C   0  0  0  0  0  0  0  0  0  0  0  0
    1.9168   25.3247   35.8017 C   0  0  0  0  0  0  0  0  0  0  0  0
    2.4097   21.0562   36.4506 O   0  0  0  0  0  0  0  0  0  0  0  0
   -1.8796   15.1996   40.1594 C   0  0  0  0  0  0  0  0  0  0  0  0
    3.3872   21.8378   37.5136 S   0  0  1  0  0  4  0  0  0  0  0  0
    1.7087   20.1723   41.1404 C   0  0  0  0  0  0  0  0  0  0  0  0
    2.0526   25.6333   34.4561 C   0  0  0  0  0  0  0  0  0  0  0  0
    4.4131   20.4628   43.0417 C   0  0  0  0  0  0  0  0  0  0  0  0
    3.4815   19.2361   42.7962 C   0  0  0  0  0  0  0  0  0  0  0  0
    3.0921   24.7938   31.6821 C   0  0  0  0  0  0  0  0  0  0  0  0
   -0.5304   15.5830   37.2453 O   0  0  0  0  0  0  0  0  0  0  0  0
   -1.2629   16.3781   38.1871 C   0  0  2  0  0  0  0  0  0  0  0  0
   -0.2469   15.4379   40.5982 C   0  0  0  0  0  0  0  0  0  0  0  0
   -0.0261   17.1323   38.7340 C   0  0  0  0  0  0  0  0  0  0  0  0
    2.2610   19.1377   42.2007 C   0  0  0  0  0  0  0  0  0  0  0  0
    2.0446   19.3787   39.1037 C   0  0  0  0  0  0  0  0  0  0  0  0
    2.6676   20.2728   39.8305 C   0  0  1  0  0  0  0  0  0  0  0  0
    1.5114   21.1889   38.7334 H   0  0  0  0  0  0  0  0  0  0  0  0
    3.1299   21.9316   39.6986 H   0  0  0  0  0  0  0  0  0  0  0  0
   -0.9098   17.5360   40.6709 H   0  0  0  0  0  0  0  0  0  0  0  0
    0.8709   17.3347   40.6987 H   0  0  0  0  0  0  0  0  0  0  0  0
    1.2288   23.6963   34.1278 H   0  0  0  0  0  0  0  0  0  0  0  0
    0.1897   25.0604   33.5950 H   0  0  0  0  0  0  0  0  0  0  0  0
    1.9053   23.1974   35.0191 H   0  0  0  0  0  0  0  0  0  0  0  0
    1.4865   23.5501   32.1726 H   0  0  0  0  0  0  0  0  0  0  0  0
    1.3619   25.5907   32.1437 H   0  0  0  0  0  0  0  0  0  0  0  0
    5.2433   22.3629   38.3518 H   0  0  0  0  0  0  0  0  0  0  0  0
    2.3726   24.2397   37.4390 H   0  0  0  0  0  0  0  0  0  0  0  0
    3.6166   24.3815   35.9938 H   0  0  0  0  0  0  0  0  0  0  0  0
   -1.1987   14.4047   38.7492 H   0  0  0  0  0  0  0  0  0  0  0  0
   -2.7919   15.2228   38.7253 H   0  0  0  0  0  0  0  0  0  0  0  0
    1.9379   24.1340   29.8436 H   0  0  0  0  0  0  0  0  0  0  0  0
    2.8910   25.6344   29.5843 H   0  0  0  0  0  0  0  0  0  0  0  0
    3.7197   24.0416   29.6356 H   0  0  0  0  0  0  0  0  0  0  0  0
    0.8437   25.1611   35.9796 H   0  0  0  0  0  0  0  0  0  0  0  0
    2.3981   26.1799   36.2986 H   0  0  0  0  0  0  0  0  0  0  0  0
   -2.5201   16.0157   40.5249 H   0  0  0  0  0  0  0  0  0  0  0  0
   -2.3349   14.2898   40.5776 H   0  0  0  0  0  0  0  0  0  0  0  0
    0.7052   19.8533   40.8222 H   0  0  0  0  0  0  0  0  0  0  0  0
    1.6788   21.1635   41.6165 H   0  0  0  0  0  0  0  0  0  0  0  0
    3.1084   25.5397   34.1616 H   0  0  0  0  0  0  0  0  0  0  0  0
    1.7165   26.6653   34.2771 H   0  0  0  0  0  0  0  0  0  0  0  0
    4.4833   20.6596   44.1217 H   0  0  0  0  0  0  0  0  0  0  0  0
    5.4152   20.2480   42.6422 H   0  0  0  0  0  0  0  0  0  0  0  0
    3.9977   21.3460   42.5344 H   0  0  0  0  0  0  0  0  0  0  0  0
    4.1104   18.5415   42.2201 H   0  0  0  0  0  0  0  0  0  0  0  0
    3.1300   19.1296   43.8331 H   0  0  0  0  0  0  0  0  0  0  0  0
    3.8099   24.0374   32.0324 H   0  0  0  0  0  0  0  0  0  0  0  0
    3.4677   25.8050   31.8978 H   0  0  0  0  0  0  0  0  0  0  0  0
   -0.0159   14.8891   37.7290 H   0  0  0  0  0  0  0  0  0  0  0  0
   -2.0776   17.0917   37.9945 H   0  0  0  0  0  0  0  0  0  0  0  0
    0.4284   14.8078   40.0007 H   0  0  0  0  0  0  0  0  0  0  0  0
   -0.0136   15.1742   41.6403 H   0  0  0  0  0  0  0  0  0  0  0  0
    0.8980   16.6972   38.3256 H   0  0  0  0  0  0  0  0  0  0  0  0
   -0.0423   18.1939   38.4461 H   0  0  0  0  0  0  0  0  0  0  0  0
    1.5284   19.1319   43.0213 H   0  0  0  0  0  0  0  0  0  0  0  0
    2.4074   18.2490   41.5692 H   0  0  0  0  0  0  0  0  0  0  0  0
    1.4800   18.7007   39.7607 H   0  0  0  0  0  0  0  0  0  0  0  0
    1.3512   19.8842   38.4155 H   0  0  0  0  0  0  0  0  0  0  0  0
    2.7794   18.8004   38.5244 H   0  0  0  0  0  0  0  0  0  0  0  0
    3.7132   20.2430   40.1710 H   0  0  0  0  0  0  0  0  0  0  0  0
  1 25  1  0
  2 21  1  0
  3 15  1  0
  4  7  1  0
  4 11  1  0
  4 13  1  0
  5  3  1  0
  8 12  1  0
  9 18  1  0
 10  7  1  0
 11 13  1  0
 12 21  1  0
 13  6  1  1
 13  1  1  0
 14 23  1  0
 15 10  1  0
 17 16  1  0
 18  5  1  0
 20 19  1  0
 20 22  1  0
 20  8  1  0
 22  2  1  0
 23 17  1  0
 25 24  1  0
 25 14  1  0
  1 26  1  0
  1 27  1  0
  2 28  1  0
  2 29  1  0
  3 30  1  0
  3 31  1  0
  4 32  1  6
  5 33  1  0
  5 34  1  0
  6 35  1  0
  7 36  1  0
  7 37  1  0
  8 38  1  0
  8 39  1  0
  9 40  1  0
  9 41  1  0
  9 42  1  0
 10 43  1  0
 10 44  1  0
 12 45  1  0
 12 46  1  0
 14 47  1  0
 14 48  1  0
 15 49  1  0
 15 50  1  0
 16 51  1  0
 16 52  1  0
 16 53  1  0
 17 54  1  0
 17 55  1  0
 18 56  1  0
 18 57  1  0
 19 58  1  0
 20 59  1  6
 21 60  1  0
 21 61  1  0
 22 62  1  0
 22 63  1  0
 23 64  1  0
 23 65  1  0
 24 66  1  0
 24 67  1  0
 24 68  1  0
 25 69  1  1
M  CHG  1   8   1
M  END
>  <mol_id>  (66) 
2026-09-18-6fnk-s0-n100-0066

>  <rmsd_to_ref>  (66) 


$$$$

     RDKit          3D

 65 65  0  0  0  0  0  0  0  0999 V2000
    1.3922   21.5402   36.7583 C   0  0  0  0  0  0  0  0  0  0  0  0
    2.0887   18.4437   35.4639 O   0  0  0  0  0  0  0  0  0  0  0  0
    5.9231   22.2735   36.5010 C   0  0  0  0  0  0  0  0  0  0  0  0
    1.5562   26.1785   33.1702 C   0  0  0  0  0  0  0  0  0  0  0  0
    1.5033   19.6967   35.6230 S   0  0  0  0  0  4  0  0  0  0  0  0
    1.9828   19.0511   38.6297 C   0  0  0  0  0  0  0  0  0  0  0  0
    2.6265   20.9099   36.2280 O   0  0  0  0  0  0  0  0  0  0  0  0
    2.7539   21.6365   36.0358 C   0  0  0  0  0  0  0  0  0  0  0  0
    3.9629   24.7664   33.8970 S   0  0  0  0  0  0  0  0  0  0  0  0
    1.4428   19.7718   37.4209 C   0  0  0  0  0  0  0  0  0  0  0  0
    0.0294   20.9016   44.8506 N   0  0  0  0  0  0  0  0  0  0  0  0
    1.5523   18.8401   42.5284 C   0  0  0  0  0  0  0  0  0  0  0  0
    2.0099   24.7634   33.7011 C   0  0  1  0  0  0  0  0  0  0  0  0
    5.3256   22.5305   35.1184 C   0  0  0  0  0  0  0  0  0  0  0  0
    1.1188   18.5952   41.1200 C   0  0  0  0  0  0  0  0  0  0  0  0
    2.7840   23.1458   35.4340 C   0  0  1  0  0  0  0  0  0  0  0  0
    0.1322   19.9862   45.7221 C   0  0  0  0  0  0  0  0  0  0  0  0
    0.3539   20.4963   43.6072 C   0  0  0  0  0  0  0  0  0  0  0  0
    0.5140   18.9378   43.6756 C   0  0  2  0  0  0  0  0  0  0  0  0
    4.0883   23.3909   34.8906 C   0  0  1  0  0  0  0  0  0  0  0  0
    0.4318   21.2159   42.6800 C   0  0  0  0  0  0  0  0  0  0  0  0
    1.7671   19.5458   40.1569 C   0  0  0  0  0  0  0  0  0  0  0  0
    0.6391   18.7045   45.1631 C   0  0  0  0  0  0  0  0  0  0  0  0
    0.0201   18.8985   35.5227 N   0  0  0  0  0  0  0  0  0  0  0  0
    1.8966   23.6586   34.9478 C   0  0  0  0  0  0  0  0  0  0  0  0
   -0.6412   17.8603   43.3468 C   0  0  0  0  0  0  0  0  0  0  0  0
    1.4684   21.6326   37.8517 H   0  0  0  0  0  0  0  0  0  0  0  0
    1.2701   22.5389   36.3135 H   0  0  0  0  0  0  0  0  0  0  0  0
    0.5230   20.9163   36.5028 H   0  0  0  0  0  0  0  0  0  0  0  0
    5.3507   22.8307   37.2572 H   0  0  0  0  0  0  0  0  0  0  0  0
    5.8777   21.1977   36.7258 H   0  0  0  0  0  0  0  0  0  0  0  0
    6.9712   22.6071   36.5152 H   0  0  0  0  0  0  0  0  0  0  0  0
    1.4685   26.8765   34.0158 H   0  0  0  0  0  0  0  0  0  0  0  0
    2.3021   26.5588   32.4568 H   0  0  0  0  0  0  0  0  0  0  0  0
    0.5819   26.0866   32.6680 H   0  0  0  0  0  0  0  0  0  0  0  0
    2.5606   18.1299   38.4640 H   0  0  0  0  0  0  0  0  0  0  0  0
    2.6868   21.9872   37.0762 H   0  0  0  0  0  0  0  0  0  0  0  0
    3.0090   21.2778   35.0276 H   0  0  0  0  0  0  0  0  0  0  0  0
    0.8090   20.6127   37.7390 H   0  0  0  0  0  0  0  0  0  0  0  0
   -0.9449   21.2355   44.8412 H   0  0  0  0  0  0  0  0  0  0  0  0
    0.6935   21.6448   45.1108 H   0  0  0  0  0  0  0  0  0  0  0  0
    2.1056   19.7908   42.5249 H   0  0  0  0  0  0  0  0  0  0  0  0
    2.1026   17.9206   42.7765 H   0  0  0  0  0  0  0  0  0  0  0  0
    1.1837   24.4578   33.0423 H   0  0  0  0  0  0  0  0  0  0  0  0
    6.1279   22.9917   34.5237 H   0  0  0  0  0  0  0  0  0  0  0  0
    4.9475   21.5315   34.8555 H   0  0  0  0  0  0  0  0  0  0  0  0
    1.3892   17.5665   40.8394 H   0  0  0  0  0  0  0  0  0  0  0  0
    0.0310   18.7499   41.0684 H   0  0  0  0  0  0  0  0  0  0  0  0
    2.5644   23.7635   36.3174 H   0  0  0  0  0  0  0  0  0  0  0  0
    0.8255   20.3251   46.5060 H   0  0  0  0  0  0  0  0  0  0  0  0
   -0.8758   19.7957   46.1192 H   0  0  0  0  0  0  0  0  0  0  0  0
    3.8003   22.7522   34.0427 H   0  0  0  0  0  0  0  0  0  0  0  0
    0.7024   20.8133   41.6926 H   0  0  0  0  0  0  0  0  0  0  0  0
    0.2340   22.2913   42.8002 H   0  0  0  0  0  0  0  0  0  0  0  0
    2.7583   19.7971   40.5624 H   0  0  0  0  0  0  0  0  0  0  0  0
    1.0578   20.3827   40.0772 H   0  0  0  0  0  0  0  0  0  0  0  0
    0.0205   17.8548   45.4876 H   0  0  0  0  0  0  0  0  0  0  0  0
    1.6594   18.4523   45.4876 H   0  0  0  0  0  0  0  0  0  0  0  0
   -0.3378   18.7185   36.4715 H   0  0  0  0  0  0  0  0  0  0  0  0
   -0.6517   19.4856   35.0080 H   0  0  0  0  0  0  0  0  0  0  0  0
    1.3758   24.1837   35.7620 H   0  0  0  0  0  0  0  0  0  0  0  0
    1.4311   22.8094   34.4260 H   0  0  0  0  0  0  0  0  0  0  0  0
   -1.0430   17.4550   44.2872 H   0  0  0  0  0  0  0  0  0  0  0  0
   -1.4494   18.3497   42.7835 H   0  0  0  0  0  0  0  0  0  0  0  0
   -0.2188   17.0417   42.7456 H   0  0  0  0  0  0  0  0  0  0  0  0
  2  5  2  0
  5 24  1  6
  5 10  1  0
  6 22  1  0
  7  1  1  0
  8  7  1  0
  9 20  1  0
 10  6  2  3
 11 17  1  0
 19 12  1  6
 13  4  1  0
 13  9  1  0
 13 25  1  0
 14  3  1  0
 15 12  1  0
 16  8  1  0
 18 11  1  0
 19 26  1  0
 19 18  1  0
 19 23  1  0
 20 14  1  0
 20 16  1  0
 21 18  2  3
 22 15  1  0
 23 17  1  0
 25 16  1  0
  1 27  1  0
  1 28  1  0
  1 29  1  0
  3 30  1  0
  3 31  1  0
  3 32  1  0
  4 33  1  0
  4 34  1  0
  4 35  1  0
  6 36  1  0
  8 37  1  0
  8 38  1  0
 10 39  1  0
 11 40  1  0
 11 41  1  0
 12 42  1  0
 12 43  1  0
 13 44  1  6
 14 45  1  0
 14 46  1  0
 15 47  1  0
 15 48  1  0
 16 49  1  1
 17 50  1  0
 17 51  1  0
 20 52  1  1
 21 53  1  0
 21 54  1  0
 22 55  1  0
 22 56  1  0
 23 57  1  0
 23 58  1  0
 24 59  1  0
 24 60  1  0
 25 61  1  0
 25 62  1  0
 26 63  1  0
 26 64  1  0
 26 65  1  0
M  CHG  1  11   1
M  END
>  <mol_id>  (67) 
2026-09-18-6fnk-s0-n100-0067

>  <rmsd_to_ref>  (67) 


$$$$

     RDKit          3D

100102  0  0  0  0  0  0  0  0999 V2000
    1.2774   16.0309   37.9015 C   0  0  0  0  0  0  0  0  0  0  0  0
    0.1666   15.6376   41.6082 C   0  0  2  0  0  0  0  0  0  0  0  0
    0.2708   27.3604   32.8812 C   0  0  2  0  0  0  0  0  0  0  0  0
    1.7738   17.5954   42.4732 C   0  0  0  0  0  0  0  0  0  0  0  0
    1.8106   19.6540   38.3467 O   0  0  0  0  0  0  0  0  0  0  0  0
    0.5886   16.2396   39.1148 C   0  0  1  0  0  0  0  0  0  0  0  0
    1.9446   22.1633   36.8280 C   0  0  1  0  0  0  0  0  0  0  0  0
    4.5509   21.3210   42.2340 C   0  0  0  0  0  0  0  0  0  0  0  0
    0.4075   25.6929   33.4883 C   0  0  1  0  0  0  0  0  0  0  0  0
    0.9853   16.3620   36.7751 O   0  0  0  0  0  0  0  0  0  0  0  0
    3.7991   20.4532   38.9360 N   0  0  0  0  0  0  0  0  0  0  0  0
    4.3380   21.4962   40.8461 C   0  0  2  0  0  0  0  0  0  0  0  0
    2.7074   19.5079   42.3296 C   0  0  0  0  0  0  0  0  0  0  0  0
   -0.4134   28.0577   33.8141 C   0  0  0  0  0  0  0  0  0  0  0  0
    2.3742   24.6294   32.1994 C   0  0  0  0  0  0  0  0  0  0  0  0
   -0.8079   29.5641   35.8973 C   0  0  0  0  0  0  0  0  0  0  0  0
    0.8974   23.5003   36.6723 C   0  0  1  0  0  0  0  0  0  0  0  0
    4.8653   15.9016   36.9691 C   0  0  0  0  0  0  0  0  0  0  0  0
    2.6916   15.6796   37.6927 C   0  0  0  0  0  0  0  0  0  0  0  0
   -1.9993   14.7084   41.1798 F   0  0  0  0  0  0  0  0  0  0  0  0
    1.1099   16.6980   41.4135 C   0  0  0  0  0  0  0  0  0  0  0  0
   -0.0019   27.6201   31.8820 C   0  0  0  0  0  0  0  0  0  0  0  0
    5.5110   22.1223   43.0055 C   0  0  0  0  0  0  0  0  0  0  0  0
    0.2858   14.7843   42.6904 O   0  0  0  0  0  0  0  0  0  0  0  0
   -0.7108   15.7560   39.3413 C   0  0  0  0  0  0  0  0  0  0  0  0
    2.4001   19.7977   41.0029 C   0  0  0  0  0  0  0  0  0  0  0  0
    1.2525   16.9465   40.0131 C   0  0  0  0  0  0  0  0  0  0  0  0
    4.4306   14.3720   37.0379 C   0  0  0  0  0  0  0  0  0  0  0  0
    0.9594   24.8964   32.3929 C   0  0  2  0  0  0  0  0  0  0  0  0
    3.0243   14.4403   37.0513 N   0  0  0  0  0  0  0  0  0  0  0  0
   -0.8481   15.3232   40.7194 C   0  0  2  0  0  0  0  0  0  0  0  0
   -0.7396   28.7356   33.7243 O   0  0  0  0  0  0  0  0  0  0  0  0
    3.7492   20.4965   43.0838 C   0  0  0  0  0  0  0  0  0  0  0  0
    0.4928   25.4491   34.7848 C   0  0  0  0  0  0  0  0  0  0  0  0
    2.0591   23.0707   35.9211 C   0  0  2  0  0  0  0  0  0  0  0  0
    3.4993   20.6505   40.3019 C   0  0  2  0  0  0  0  0  0  0  0  0
    0.3234   24.8569   31.0577 O   0  0  0  0  0  0  0  0  0  0  0  0
    5.5877   22.2567   39.9492 C   0  0  0  0  0  0  0  0  0  0  0  0
    2.6596   21.5044   37.2534 N   0  0  0  0  0  0  0  0  0  0  0  0
    3.6599   16.6101   37.0352 N   0  0  0  0  0  0  0  0  0  0  0  0
   -0.2992   28.5312   34.9925 C   0  0  0  0  0  0  0  0  0  0  0  0
    0.9546   23.9174   35.1709 C   0  0  1  0  0  0  0  0  0  0  0  0
    2.7392   20.5091   38.1569 C   0  0  0  0  0  0  0  0  0  0  0  0
   -0.4651   16.3096   42.2077 H   0  0  0  0  0  0  0  0  0  0  0  0
    1.3260   27.6339   32.7333 H   0  0  0  0  0  0  0  0  0  0  0  0
    1.4780   17.2573   43.4773 H   0  0  0  0  0  0  0  0  0  0  0  0
    2.8675   17.5337   42.3729 H   0  0  0  0  0  0  0  0  0  0  0  0
    1.4503   18.6365   42.3268 H   0  0  0  0  0  0  0  0  0  0  0  0
    0.1707   17.1759   38.7165 H   0  0  0  0  0  0  0  0  0  0  0  0
    1.7752   21.1739   37.2778 H   0  0  0  0  0  0  0  0  0  0  0  0
   -0.5176   25.1663   33.7655 H   0  0  0  0  0  0  0  0  0  0  0  0
    4.7520   20.2825   38.5843 H   0  0  0  0  0  0  0  0  0  0  0  0
    3.6931   22.3798   40.7310 H   0  0  0  0  0  0  0  0  0  0  0  0
    3.1348   18.4946   42.3563 H   0  0  0  0  0  0  0  0  0  0  0  0
    1.7586   19.6293   42.8727 H   0  0  0  0  0  0  0  0  0  0  0  0
    2.8875   24.6493   33.1721 H   0  0  0  0  0  0  0  0  0  0  0  0
    2.5008   23.6387   31.7383 H   0  0  0  0  0  0  0  0  0  0  0  0
    2.8058   25.3979   31.5413 H   0  0  0  0  0  0  0  0  0  0  0  0
   -0.7552   29.6774   36.9902 H   0  0  0  0  0  0  0  0  0  0  0  0
   -0.9070   30.5551   35.4303 H   0  0  0  0  0  0  0  0  0  0  0  0
    0.1096   29.0779   35.5345 H   0  0  0  0  0  0  0  0  0  0  0  0
   -1.6790   28.9461   35.6343 H   0  0  0  0  0  0  0  0  0  0  0  0
    0.1606   23.9126   37.3774 H   0  0  0  0  0  0  0  0  0  0  0  0
    5.3907   16.1148   36.0265 H   0  0  0  0  0  0  0  0  0  0  0  0
    5.5582   16.1771   37.7778 H   0  0  0  0  0  0  0  0  0  0  0  0
    2.8108   15.6839   38.7862 H   0  0  0  0  0  0  0  0  0  0  0  0
   -0.5797   28.5561   31.8911 H   0  0  0  0  0  0  0  0  0  0  0  0
    0.9069   27.7561   31.2774 H   0  0  0  0  0  0  0  0  0  0  0  0
   -0.6140   26.8156   31.4482 H   0  0  0  0  0  0  0  0  0  0  0  0
    5.2928   22.0226   44.0790 H   0  0  0  0  0  0  0  0  0  0  0  0
    6.5319   21.7654   42.8042 H   0  0  0  0  0  0  0  0  0  0  0  0
    5.4272   23.1788   42.7109 H   0  0  0  0  0  0  0  0  0  0  0  0
    0.2954   15.3125   43.5276 H   0  0  0  0  0  0  0  0  0  0  0  0
   -1.4377   16.5560   39.1369 H   0  0  0  0  0  0  0  0  0  0  0  0
   -0.8983   14.9012   38.6749 H   0  0  0  0  0  0  0  0  0  0  0  0
    2.2858   18.8515   40.4537 H   0  0  0  0  0  0  0  0  0  0  0  0
    1.4709   20.3863   40.9987 H   0  0  0  0  0  0  0  0  0  0  0  0
    1.9302   17.7443   39.6751 H   0  0  0  0  0  0  0  0  0  0  0  0
    4.7908   13.8191   36.1578 H   0  0  0  0  0  0  0  0  0  0  0  0
    4.8461   13.8429   37.9082 H   0  0  0  0  0  0  0  0  0  0  0  0
    0.5700   24.1157   33.0629 H   0  0  0  0  0  0  0  0  0  0  0  0
    2.6567   14.4259   36.0892 H   0  0  0  0  0  0  0  0  0  0  0  0
    2.6135   13.6373   37.5486 H   0  0  0  0  0  0  0  0  0  0  0  0
   -1.2659   16.3052   40.9861 H   0  0  0  0  0  0  0  0  0  0  0  0
    3.8336   20.5305   44.1800 H   0  0  0  0  0  0  0  0  0  0  0  0
    1.2258   26.1465   35.2164 H   0  0  0  0  0  0  0  0  0  0  0  0
   -0.5212   25.5782   35.1911 H   0  0  0  0  0  0  0  0  0  0  0  0
    3.0518   22.9912   35.4539 H   0  0  0  0  0  0  0  0  0  0  0  0
    2.7426   21.4002   40.0275 H   0  0  0  0  0  0  0  0  0  0  0  0
   -0.6462   25.0347   31.1487 H   0  0  0  0  0  0  0  0  0  0  0  0
    6.2787   22.7626   40.6395 H   0  0  0  0  0  0  0  0  0  0  0  0
    6.1366   21.4993   39.3703 H   0  0  0  0  0  0  0  0  0  0  0  0
    5.1487   22.9957   39.2627 H   0  0  0  0  0  0  0  0  0  0  0  0
    3.5883   21.6830   36.8452 H   0  0  0  0  0  0  0  0  0  0  0  0
    3.7749   17.4665   37.5959 H   0  0  0  0  0  0  0  0  0  0  0  0
    3.3363   16.9057   36.1031 H   0  0  0  0  0  0  0  0  0  0  0  0
   -0.4091   27.7191   35.7263 H   0  0  0  0  0  0  0  0  0  0  0  0
    0.6910   28.9965   35.1063 H   0  0  0  0  0  0  0  0  0  0  0  0
   -1.0810   29.2864   35.1616 H   0  0  0  0  0  0  0  0  0  0  0  0
    0.6238   23.8066   34.1277 H   0  0  0  0  0  0  0  0  0  0  0  0
  2 24  1  0
  3 22  1  0
  3  9  1  0
  3 14  1  0
  6  1  1  0
  6 25  1  0
  6 27  1  0
  7 39  1  0
  8 33  2  0
  8 23  1  0
  9 34  1  0
 10  1  2  0
 11 36  1  0
 12 38  1  0
 12  8  1  0
 13 33  1  0
 14 41  1  0
 15 29  1  0
 17  7  1  0
 18 40  1  0
 19  1  1  0
 21  2  1  0
 21  4  1  0
 25 31  1  0
 26 13  1  0
 27 21  2  0
 28 18  1  0
 29  9  1  0
 30 28  1  0
 30 19  1  0
 31 20  1  0
 31  2  1  0
 32 14  2  0
 34 42  1  0
 35 17  1  0
 35  7  1  0
 36 26  1  0
 36 12  1  0
 37 29  1  0
 39 43  1  0
 40 19  1  0
 42 35  1  0
 42 17  1  0
 43  5  2  0
 43 11  1  0
  2 44  1  1
  3 45  1  6
  4 46  1  0
  4 47  1  0
  4 48  1  0
  6 49  1  6
  7 50  1  6
  9 51  1  6
 11 52  1  0
 12 53  1  1
 13 54  1  0
 13 55  1  0
 15 56  1  0
 15 57  1  0
 15 58  1  0
 16 59  1  0
 16 60  1  0
 16 61  1  0
 16 62  1  0
 17 63  1  1
 18 64  1  0
 18 65  1  0
 19 66  1  0
 22 67  1  0
 22 68  1  0
 22 69  1  0
 23 70  1  0
 23 71  1  0
 23 72  1  0
 24 73  1  0
 25 74  1  0
 25 75  1  0
 26 76  1  0
 26 77  1  0
 27 78  1  0
 28 79  1  0
 28 80  1  0
 29 81  1  1
 30 82  1  0
 30 83  1  0
 31 84  1  6
 33 85  1  0
 34 86  1  0
 34 87  1  0
 35 88  1  1
 36 89  1  6
 37 90  1  0
 38 91  1  0
 38 92  1  0
 38 93  1  0
 39 94  1  0
 40 95  1  0
 40 96  1  0
 41 97  1  0
 41 98  1  0
 41 99  1  0
 42100  1  6
M  CHG  2  30   1  40   1
M  END
>  <mol_id>  (68) 
2026-09-18-6fnk-s0-n100-0068

>  <rmsd_to_ref>  (68) 


$$$$

     RDKit          3D

 70 71  0  0  0  0  0  0  0  0999 V2000
    1.4911   20.0191   42.4862 C   0  0  0  0  0  0  0  0  0  0  0  0
    0.2891   28.1458   34.4113 O   0  0  0  0  0  0  0  0  0  0  0  0
    2.5808   25.3501   31.3377 C   0  0  0  0  0  0  0  0  0  0  0  0
    1.8784   22.0995   37.4998 C   0  0  0  0  0  0  0  0  0  0  0  0
    3.2171   21.8152   39.5532 C   0  0  0  0  0  0  0  0  0  0  0  0
    1.2174   25.0893   31.9160 C   0  0  0  0  0  0  0  0  0  0  0  0
   -0.2114   16.0879   40.2073 C   0  0  2  0  0  0  0  0  0  0  0  0
   -0.0954   16.1242   41.5770 C   0  0  1  0  0  0  0  0  0  0  0  0
   -0.2010   27.1793   32.9177 S   0  0  0  0  0  4  0  0  0  0  0  0
   -0.7094   13.7946   41.8735 O   0  0  0  0  0  0  0  0  0  0  0  0
    2.8100   21.8696   42.9572 O   0  0  0  0  0  0  0  0  0  0  0  0
    4.8848   23.4859   36.2242 C   0  0  0  0  0  0  0  0  0  0  0  0
    2.7926   23.6133   34.5132 C   0  0  0  0  0  0  0  0  0  0  0  0
    0.7998   15.9678   38.0233 O   0  0  0  0  0  0  0  0  0  0  0  0
   -1.5583   16.4156   39.6866 C   0  0  0  0  0  0  0  0  0  0  0  0
    1.9081   21.3070   40.3544 C   0  0  0  0  0  0  0  0  0  0  0  0
    1.4101   21.4037   43.1153 C   0  0  0  0  0  0  0  0  0  0  0  0
    4.6136   23.9837   34.6219 S   0  0  0  0  0  0  0  0  0  0  0  0
   -2.1868   15.2190   42.6667 O   0  0  0  0  0  0  0  0  0  0  0  0
    3.2008   25.1160   32.5272 O   0  0  0  0  0  0  0  0  0  0  0  0
   -1.0714   25.8368   33.6900 C   0  0  0  0  0  0  0  0  0  0  0  0
    1.7618   19.9475   41.2019 C   0  0  2  0  0  0  0  0  0  0  0  0
    3.1140   21.8999   38.1276 C   0  0  0  0  0  0  0  0  0  0  0  0
   -0.0012   24.9938   34.1826 C   0  0  0  0  0  0  0  0  0  0  0  0
    0.7205   17.7446   41.4910 C   0  0  1  0  0  0  0  0  0  0  0  0
   -1.0463   14.9130   42.1230 C   0  0  0  0  0  0  0  0  0  0  0  0
    2.6503   24.1779   33.1247 C   0  0  0  0  0  0  0  0  0  0  0  0
    1.1771   17.6373   42.6393 C   0  0  0  0  0  0  0  0  0  0  0  0
    0.6362   15.8792   39.2270 C   0  0  0  0  0  0  0  0  0  0  0  0
    1.2864   18.8964   43.1836 C   0  0  0  0  0  0  0  0  0  0  0  0
    0.9752   25.7727   33.0970 C   0  0  1  0  0  0  0  0  0  0  0  0
    1.3079   18.8032   40.6031 C   0  0  0  0  0  0  0  0  0  0  0  0
    4.1905   22.6284   37.4545 C   0  0  0  0  0  0  0  0  0  0  0  0
    2.8652   24.6393   30.5478 H   0  0  0  0  0  0  0  0  0  0  0  0
    2.7660   26.3023   30.8189 H   0  0  0  0  0  0  0  0  0  0  0  0
    1.1433   22.4490   38.2398 H   0  0  0  0  0  0  0  0  0  0  0  0
    1.9876   22.8541   36.7069 H   0  0  0  0  0  0  0  0  0  0  0  0
    1.5335   21.1523   37.0595 H   0  0  0  0  0  0  0  0  0  0  0  0
    3.4670   22.8187   39.9281 H   0  0  0  0  0  0  0  0  0  0  0  0
    3.9822   21.0470   39.7393 H   0  0  0  0  0  0  0  0  0  0  0  0
    0.4621   25.3941   31.1767 H   0  0  0  0  0  0  0  0  0  0  0  0
    1.1659   24.0154   32.1487 H   0  0  0  0  0  0  0  0  0  0  0  0
    0.0672   17.1508   40.1555 H   0  0  0  0  0  0  0  0  0  0  0  0
    0.2222   15.9422   42.6144 H   0  0  0  0  0  0  0  0  0  0  0  0
    3.1478   22.2011   43.8267 H   0  0  0  0  0  0  0  0  0  0  0  0
    5.8613   23.8666   36.5582 H   0  0  0  0  0  0  0  0  0  0  0  0
    2.5656   22.5384   34.5685 H   0  0  0  0  0  0  0  0  0  0  0  0
    2.1347   24.0049   35.3031 H   0  0  0  0  0  0  0  0  0  0  0  0
   -2.1887   16.7865   40.5082 H   0  0  0  0  0  0  0  0  0  0  0  0
   -1.4730   17.1910   38.9112 H   0  0  0  0  0  0  0  0  0  0  0  0
   -2.0137   15.5128   39.2538 H   0  0  0  0  0  0  0  0  0  0  0  0
    1.6820   22.1125   41.0687 H   0  0  0  0  0  0  0  0  0  0  0  0
    1.2635   21.0541   39.4997 H   0  0  0  0  0  0  0  0  0  0  0  0
    0.7051   22.0523   42.5747 H   0  0  0  0  0  0  0  0  0  0  0  0
    1.0450   21.4094   44.1530 H   0  0  0  0  0  0  0  0  0  0  0  0
   -1.7021   26.1978   34.5158 H   0  0  0  0  0  0  0  0  0  0  0  0
   -1.7550   25.3132   33.0055 H   0  0  0  0  0  0  0  0  0  0  0  0
    2.8504   19.7924   41.1705 H   0  0  0  0  0  0  0  0  0  0  0  0
    0.2632   25.1516   35.2387 H   0  0  0  0  0  0  0  0  0  0  0  0
   -0.0851   23.8976   34.2157 H   0  0  0  0  0  0  0  0  0  0  0  0
    0.1143   18.2792   40.7449 H   0  0  0  0  0  0  0  0  0  0  0  0
    1.5821   24.4336   33.0650 H   0  0  0  0  0  0  0  0  0  0  0  0
    3.2145   23.3790   32.6213 H   0  0  0  0  0  0  0  0  0  0  0  0
    0.4995   17.0252   43.2527 H   0  0  0  0  0  0  0  0  0  0  0  0
    2.1638   17.1519   42.6095 H   0  0  0  0  0  0  0  0  0  0  0  0
    1.5565   15.4619   39.6615 H   0  0  0  0  0  0  0  0  0  0  0  0
    1.1986   18.9865   44.2764 H   0  0  0  0  0  0  0  0  0  0  0  0
    2.0175   25.9709   33.3873 H   0  0  0  0  0  0  0  0  0  0  0  0
    2.1567   18.3516   40.0685 H   0  0  0  0  0  0  0  0  0  0  0  0
    0.4730   19.1312   39.9664 H   0  0  0  0  0  0  0  0  0  0  0  0
  1 30  2  0
  1 17  1  0
  3  6  1  0
  3 20  1  0
  4 23  1  0
  5 16  1  0
  7 15  1  0
  7  8  1  0
  8 26  1  0
  9 21  1  1
  9  2  2  0
 10 26  2  0
 11 17  1  0
 12 33  2  0
 13 18  1  0
 14 29  2  0
 18 12  1  0
 20 27  1  0
 21 24  1  0
 22 16  1  0
 22  1  1  0
 23  5  1  0
 25  8  1  0
 25 28  1  0
 26 19  1  0
 27 13  1  0
 28 30  1  0
 29  7  1  0
 31  6  1  0
 31  9  1  0
 31 24  1  0
 32 25  1  0
 32 22  1  0
 33 23  2  0
  3 34  1  0
  3 35  1  0
  4 36  1  0
  4 37  1  0
  4 38  1  0
  5 39  1  0
  5 40  1  0
  6 41  1  0
  6 42  1  0
  7 43  1  1
  8 44  1  6
 11 45  1  0
 12 46  1  0
 13 47  1  0
 13 48  1  0
 15 49  1  0
 15 50  1  0
 15 51  1  0
 16 52  1  0
 16 53  1  0
 17 54  1  0
 17 55  1  0
 21 56  1  0
 21 57  1  0
 22 58  1  1
 24 59  1  0
 24 60  1  0
 25 61  1  1
 27 62  1  0
 27 63  1  0
 28 64  1  0
 28 65  1  0
 29 66  1  0
 30 67  1  0
 31 68  1  1
 32 69  1  0
 32 70  1  0
M  CHG  1  19  -1
M  END
>  <mol_id>  (69) 
2026-09-18-6fnk-s0-n100-0069

>  <rmsd_to_ref>  (69) 


$$$$

     RDKit          3D

 67 69  0  0  0  0  0  0  0  0999 V2000
    0.0509   16.5358   44.2039 C   0  0  0  0  0  0  0  0  0  0  0  0
   -1.2139   15.7472   46.2091 O   0  0  0  0  0  0  0  0  0  0  0  0
    2.4769   20.5126   38.0607 C   0  0  1  0  0  0  0  0  0  0  0  0
    1.6972   20.0765   40.9575 C   0  0  1  0  0  0  0  0  0  0  0  0
    0.8971   19.8001   39.7143 C   0  0  0  0  0  0  0  0  0  0  0  0
    1.9195   21.5441   37.2183 C   0  0  0  0  0  0  0  0  0  0  0  0
    0.8177   24.3093   31.5890 C   0  0  0  0  0  0  0  0  0  0  0  0
    2.5154   18.9610   41.5455 C   0  0  0  0  0  0  0  0  0  0  0  0
    1.8645   24.9601   32.5481 C   0  0  1  0  0  0  0  0  0  0  0  0
    1.5556   18.9592   44.0544 S   0  0  0  0  0  4  0  0  0  0  0  0
    1.9296   18.2609   42.6808 O   0  0  0  0  0  0  0  0  0  0  0  0
    3.7546   20.9473   41.9931 C   0  0  0  0  0  0  0  0  0  0  0  0
   -2.1143   15.3139   44.2944 O   0  0  0  0  0  0  0  0  0  0  0  0
    2.8285   22.0438   36.3467 C   0  0  0  0  0  0  0  0  0  0  0  0
    1.5389   19.3774   38.5309 C   0  0  1  0  0  0  0  0  0  0  0  0
    1.0568   26.5662   32.6612 S   0  0  0  0  0  0  0  0  0  0  0  0
    1.1363   20.4523   43.9085 O   0  0  0  0  0  0  0  0  0  0  0  0
    2.7329   21.2365   40.9353 C   0  0  0  0  0  0  0  0  0  0  0  0
    3.1009   23.9314   34.5738 C   0  0  2  0  0  0  0  0  0  0  0  0
    2.2001   19.2103   37.4250 C   0  0  0  0  0  0  0  0  0  0  0  0
    3.9158   22.7853   33.7061 C   0  0  0  0  0  0  0  0  0  0  0  0
    2.6974   18.9832   44.9315 O   0  0  0  0  0  0  0  0  0  0  0  0
    2.8027   23.1753   35.7552 C   0  0  0  0  0  0  0  0  0  0  0  0
    0.5171   17.8279   44.8128 N   0  0  0  0  0  0  0  0  0  0  0  0
    1.7284   24.3415   33.9225 C   0  0  0  0  0  0  0  0  0  0  0  0
    3.3543   25.2347   32.3176 C   0  0  0  0  0  0  0  0  0  0  0  0
    2.2778   27.1231   33.7878 C   0  0  0  0  0  0  0  0  0  0  0  0
   -1.2076   15.9310   45.0234 C   0  0  0  0  0  0  0  0  0  0  0  0
    4.4903   24.5626   33.5717 S   0  0  1  0  0  4  0  0  0  0  0  0
    0.8766   15.8095   44.2246 H   0  0  0  0  0  0  0  0  0  0  0  0
   -0.2649   16.7295   43.1681 H   0  0  0  0  0  0  0  0  0  0  0  0
    3.2653   21.1155   38.5349 H   0  0  0  0  0  0  0  0  0  0  0  0
    0.8021   20.3140   41.5509 H   0  0  0  0  0  0  0  0  0  0  0  0
    0.1691   19.0178   39.9751 H   0  0  0  0  0  0  0  0  0  0  0  0
    0.5071   20.7926   39.4443 H   0  0  0  0  0  0  0  0  0  0  0  0
    1.0794   21.1200   36.6487 H   0  0  0  0  0  0  0  0  0  0  0  0
    1.5893   22.3674   37.8687 H   0  0  0  0  0  0  0  0  0  0  0  0
    0.0661   23.7661   32.1807 H   0  0  0  0  0  0  0  0  0  0  0  0
    0.3225   25.0949   30.9994 H   0  0  0  0  0  0  0  0  0  0  0  0
    1.3272   23.6085   30.9113 H   0  0  0  0  0  0  0  0  0  0  0  0
    2.6937   18.2213   40.7511 H   0  0  0  0  0  0  0  0  0  0  0  0
    3.4270   19.4387   41.9338 H   0  0  0  0  0  0  0  0  0  0  0  0
    3.3271   21.1610   42.9839 H   0  0  0  0  0  0  0  0  0  0  0  0
    4.0471   19.8882   41.9406 H   0  0  0  0  0  0  0  0  0  0  0  0
    4.6394   21.5805   41.8311 H   0  0  0  0  0  0  0  0  0  0  0  0
    3.7792   22.0386   36.8999 H   0  0  0  0  0  0  0  0  0  0  0  0
    2.6098   21.3968   35.4843 H   0  0  0  0  0  0  0  0  0  0  0  0
    2.3572   18.9485   39.1278 H   0  0  0  0  0  0  0  0  0  0  0  0
    1.1337   20.8830   44.7999 H   0  0  0  0  0  0  0  0  0  0  0  0
    3.2175   21.2888   39.9492 H   0  0  0  0  0  0  0  0  0  0  0  0
    2.2392   22.2008   41.1263 H   0  0  0  0  0  0  0  0  0  0  0  0
    1.6455   19.1930   36.4753 H   0  0  0  0  0  0  0  0  0  0  0  0
    2.8680   18.4046   37.0864 H   0  0  0  0  0  0  0  0  0  0  0  0
    4.5424   22.0489   34.2306 H   0  0  0  0  0  0  0  0  0  0  0  0
    3.6147   22.0205   32.9750 H   0  0  0  0  0  0  0  0  0  0  0  0
    2.3904   19.0024   45.8725 H   0  0  0  0  0  0  0  0  0  0  0  0
    3.3577   23.7735   36.4930 H   0  0  0  0  0  0  0  0  0  0  0  0
    1.8159   22.9263   35.3378 H   0  0  0  0  0  0  0  0  0  0  0  0
   -0.3417   18.3512   45.0351 H   0  0  0  0  0  0  0  0  0  0  0  0
    1.2351   25.0696   34.5831 H   0  0  0  0  0  0  0  0  0  0  0  0
    1.1430   23.4181   33.8013 H   0  0  0  0  0  0  0  0  0  0  0  0
    3.6305   24.8004   31.3455 H   0  0  0  0  0  0  0  0  0  0  0  0
    3.4670   26.3276   32.3693 H   0  0  0  0  0  0  0  0  0  0  0  0
    1.9459   26.9225   34.8171 H   0  0  0  0  0  0  0  0  0  0  0  0
    3.2221   26.5921   33.5971 H   0  0  0  0  0  0  0  0  0  0  0  0
    2.4321   28.2043   33.6565 H   0  0  0  0  0  0  0  0  0  0  0  0
    5.6914   25.2198   33.6201 H   0  0  0  0  0  0  0  0  0  0  0  0
  1 28  1  0
  1 24  1  0
  3  6  1  0
  3 15  1  0
  4  5  1  0
  4 18  1  0
  4  8  1  0
  8 11  1  0
  9  7  1  0
  9 16  1  1
  9 25  1  0
 10 24  1  0
 10 22  1  0
 11 10  1  0
 13 28  2  0
 14  6  1  0
 15  5  1  0
 16 27  1  0
 17 10  1  0
 18 12  1  0
 19 23  1  1
 20  3  1  0
 20 15  1  0
 21 19  1  0
 23 14  1  0
 25 19  1  0
 26  9  1  0
 28  2  1  0
 29 26  1  0
 29 21  1  0
 29 19  1  0
  1 30  1  0
  1 31  1  0
  3 32  1  1
  4 33  1  1
  5 34  1  0
  5 35  1  0
  6 36  1  0
  6 37  1  0
  7 38  1  0
  7 39  1  0
  7 40  1  0
  8 41  1  0
  8 42  1  0
 12 43  1  0
 12 44  1  0
 12 45  1  0
 14 46  1  0
 14 47  1  0
 15 48  1  1
 17 49  1  0
 18 50  1  0
 18 51  1  0
 20 52  1  0
 20 53  1  0
 21 54  1  0
 21 55  1  0
 22 56  1  0
 23 57  1  0
 23 58  1  0
 24 59  1  0
 25 60  1  0
 25 61  1  0
 26 62  1  0
 26 63  1  0
 27 64  1  0
 27 65  1  0
 27 66  1  0
 29 67  1  1
M  CHG  1   2  -1
M  END
>  <mol_id>  (70) 
2026-09-18-6fnk-s0-n100-0070

>  <rmsd_to_ref>  (70) 


$$$$

     RDKit          3D

 54 56  0  0  0  0  0  0  0  0999 V2000
    1.0660   26.5753   32.1275 C   0  0  0  0  0  0  0  0  0  0  0  0
    0.7138   19.0977   42.7206 N   0  0  0  0  0  0  0  0  0  0  0  0
    2.5604   23.4003   34.8749 C   0  0  2  0  0  0  0  0  0  0  0  0
    2.2782   22.1109   37.0118 C   0  0  0  0  0  0  0  0  0  0  0  0
    2.0720   17.9240   40.7739 C   0  0  0  0  0  0  0  0  0  0  0  0
   -0.6404   20.5053   44.9823 O   0  0  0  0  0  0  0  0  0  0  0  0
   -0.8637   17.1876   45.9948 C   0  0  0  0  0  0  0  0  0  0  0  0
    3.6917   23.3075   33.6947 O   0  0  0  0  0  0  0  0  0  0  0  0
   -0.4348   16.3769   44.8924 C   0  0  0  0  0  0  0  0  0  0  0  0
    1.2991   18.2801   39.4761 C   0  0  0  0  0  0  0  0  0  0  0  0
    1.8495   25.5745   34.1238 N   0  0  0  0  0  0  0  0  0  0  0  0
    0.7353   16.8233   42.6500 N   0  0  0  0  0  0  0  0  0  0  0  0
    2.0929   19.3684   38.7029 C   0  0  0  0  0  0  0  0  0  0  0  0
    1.5104   19.7617   37.4665 C   0  0  0  0  0  0  0  0  0  0  0  0
    0.9015   27.5041   33.2727 C   0  0  0  0  0  0  0  0  0  0  0  0
    0.0812   18.5567   43.8572 C   0  0  2  0  0  0  0  0  0  0  0  0
    0.0805   17.2281   43.7937 C   0  0  0  0  0  0  0  0  0  0  0  0
    0.9935   26.8838   34.5840 C   0  0  0  0  0  0  0  0  0  0  0  0
    1.8840   22.6346   35.4319 C   0  0  0  0  0  0  0  0  0  0  0  0
    1.4149   21.1233   37.3309 C   0  0  0  0  0  0  0  0  0  0  0  0
   -0.5181   19.2804   44.9764 C   0  0  0  0  0  0  0  0  0  0  0  0
    2.7125   24.9806   35.2085 C   0  0  0  0  0  0  0  0  0  0  0  0
    1.7685   25.3707   32.7084 C   0  0  0  0  0  0  0  0  0  0  0  0
   -0.8987   18.5016   46.0509 N   0  0  0  0  0  0  0  0  0  0  0  0
    2.2826   24.5964   31.9147 O   0  0  0  0  0  0  0  0  0  0  0  0
    1.1605   17.9307   42.0331 C   0  0  0  0  0  0  0  0  0  0  0  0
    1.6769   27.0373   31.3381 H   0  0  0  0  0  0  0  0  0  0  0  0
    0.1039   26.3123   31.6635 H   0  0  0  0  0  0  0  0  0  0  0  0
    3.3274   23.1675   35.6283 H   0  0  0  0  0  0  0  0  0  0  0  0
    2.1764   22.9449   37.7219 H   0  0  0  0  0  0  0  0  0  0  0  0
    3.3170   21.7519   37.0567 H   0  0  0  0  0  0  0  0  0  0  0  0
    2.8770   18.6597   40.9177 H   0  0  0  0  0  0  0  0  0  0  0  0
    2.4698   16.9052   40.6559 H   0  0  0  0  0  0  0  0  0  0  0  0
   -1.2011   16.6510   46.8938 H   0  0  0  0  0  0  0  0  0  0  0  0
    4.5911   23.2465   34.1038 H   0  0  0  0  0  0  0  0  0  0  0  0
    0.3629   15.6989   45.2302 H   0  0  0  0  0  0  0  0  0  0  0  0
   -1.2927   15.7967   44.5216 H   0  0  0  0  0  0  0  0  0  0  0  0
    1.1960   17.3823   38.8491 H   0  0  0  0  0  0  0  0  0  0  0  0
    0.2975   18.6577   39.7296 H   0  0  0  0  0  0  0  0  0  0  0  0
    2.1685   20.2586   39.3448 H   0  0  0  0  0  0  0  0  0  0  0  0
    3.0705   18.9267   38.4597 H   0  0  0  0  0  0  0  0  0  0  0  0
    2.1297   19.3697   36.6462 H   0  0  0  0  0  0  0  0  0  0  0  0
    0.4888   19.3546   37.4385 H   0  0  0  0  0  0  0  0  0  0  0  0
    1.6845   28.2735   33.2033 H   0  0  0  0  0  0  0  0  0  0  0  0
   -0.1178   27.9104   33.1953 H   0  0  0  0  0  0  0  0  0  0  0  0
    1.0459   18.5386   44.3855 H   0  0  0  0  0  0  0  0  0  0  0  0
    0.0079   26.6194   34.9947 H   0  0  0  0  0  0  0  0  0  0  0  0
    1.4247   27.4963   35.3895 H   0  0  0  0  0  0  0  0  0  0  0  0
    0.8819   23.0847   35.4906 H   0  0  0  0  0  0  0  0  0  0  0  0
    2.0031   21.7199   34.8328 H   0  0  0  0  0  0  0  0  0  0  0  0
    1.0342   21.4402   38.3131 H   0  0  0  0  0  0  0  0  0  0  0  0
    0.9387   21.0880   36.3400 H   0  0  0  0  0  0  0  0  0  0  0  0
    2.3293   25.2229   36.2107 H   0  0  0  0  0  0  0  0  0  0  0  0
    3.7491   25.3486   35.2226 H   0  0  0  0  0  0  0  0  0  0  0  0
  1 23  1  0
  1 15  1  0
  3  8  1  0
  3 22  1  0
  3 19  1  0
  4 20  1  0
  5 26  1  0
  7 24  2  0
  9  7  1  0
 10  5  1  0
 11 18  1  0
 11 22  1  0
 12 17  2  0
 13 10  1  0
 14 13  1  0
 15 18  1  0
 16  2  1  0
 16 21  1  0
 17 16  1  0
 17  9  1  0
 19  4  1  0
 20 14  1  0
 21  6  2  0
 21 24  1  0
 23 11  1  0
 25 23  2  0
 26 12  1  0
 26  2  2  0
  1 27  1  0
  1 28  1  0
  3 29  1  6
  4 30  1  0
  4 31  1  0
  5 32  1  0
  5 33  1  0
  7 34  1  0
  8 35  1  0
  9 36  1  0
  9 37  1  0
 10 38  1  0
 10 39  1  0
 13 40  1  0
 13 41  1  0
 14 42  1  0
 14 43  1  0
 15 44  1  0
 15 45  1  0
 16 46  1  1
 18 47  1  0
 18 48  1  0
 19 49  1  0
 19 50  1  0
 20 51  1  0
 20 52  1  0
 22 53  1  0
 22 54  1  0
M  END
>  <mol_id>  (71) 
2026-09-18-6fnk-s0-n100-0071

>  <rmsd_to_ref>  (71) 


$$$$

     RDKit          3D

 61 62  0  0  0  0  0  0  0  0999 V2000
    1.8134   21.0542   40.2008 O   0  0  0  0  0  0  0  0  0  0  0  0
    0.6321   16.8744   42.9311 C   0  0  0  0  0  0  0  0  0  0  0  0
    1.5236   23.0415   33.9896 C   0  0  0  0  0  0  0  0  0  0  0  0
    1.0773   17.7206   44.0411 C   0  0  0  0  0  0  0  0  0  0  0  0
    4.1960   23.0161   37.9679 C   0  0  0  0  0  0  0  0  0  0  0  0
    2.8821   19.0220   39.7156 C   0  0  0  0  0  0  0  0  0  0  0  0
    2.6454   20.3657   39.7273 C   0  0  0  0  0  0  0  0  0  0  0  0
    2.6085   17.9727   41.0802 S   0  0  0  0  0  0  0  0  0  0  0  0
   -1.5463   16.7788   39.9945 N   0  0  0  0  0  0  0  0  0  0  0  0
    4.3763   23.0729   35.5559 O   0  0  0  0  0  0  0  0  0  0  0  0
    5.6399   24.7755   34.9745 O   0  0  0  0  0  0  0  0  0  0  0  0
    2.4622   25.1376   33.0883 C   0  0  0  0  0  0  0  0  0  0  0  0
    0.0024   17.1201   41.5856 C   0  0  0  0  0  0  0  0  0  0  0  0
    6.8893   23.1785   36.1700 C   0  0  0  0  0  0  0  0  0  0  0  0
    3.8879   21.1372   39.4326 O   0  0  0  0  0  0  0  0  0  0  0  0
    5.6125   23.7501   35.5457 C   0  0  0  0  0  0  0  0  0  0  0  0
    3.3779   22.3580   38.9678 C   0  0  0  0  0  0  0  0  0  0  0  0
   -1.1275   16.5651   41.2351 C   0  0  0  0  0  0  0  0  0  0  0  0
    0.9659   17.6774   40.6638 C   0  0  0  0  0  0  0  0  0  0  0  0
    0.7538   23.8079   34.8403 N   0  0  0  0  0  0  0  0  0  0  0  0
   -0.8329   17.3269   39.0429 C   0  0  0  0  0  0  0  0  0  0  0  0
    0.3758   17.8104   39.3976 C   0  0  0  0  0  0  0  0  0  0  0  0
    2.4780   24.6293   31.8806 C   0  0  0  0  0  0  0  0  0  0  0  0
   -0.2783   17.0942   44.2241 C   0  0  0  0  0  0  0  0  0  0  0  0
    1.5986   25.8658   31.1393 C   0  0  0  0  0  0  0  0  0  0  0  0
    1.4677   25.9468   32.6147 C   0  0  0  0  0  0  0  0  0  0  0  0
    3.5306   22.9052   36.5283 C   0  0  0  0  0  0  0  0  0  0  0  0
    2.5177   24.0058   33.4695 C   0  0  0  0  0  0  0  0  0  0  0  0
    1.2106   16.1320   42.3616 H   0  0  0  0  0  0  0  0  0  0  0  0
    2.0163   22.2225   34.5340 H   0  0  0  0  0  0  0  0  0  0  0  0
    0.9362   22.5580   33.1951 H   0  0  0  0  0  0  0  0  0  0  0  0
    1.9131   17.3820   44.6709 H   0  0  0  0  0  0  0  0  0  0  0  0
    1.4327   18.7604   44.0917 H   0  0  0  0  0  0  0  0  0  0  0  0
    4.3048   24.0780   38.2335 H   0  0  0  0  0  0  0  0  0  0  0  0
    5.1796   22.5245   37.9394 H   0  0  0  0  0  0  0  0  0  0  0  0
    2.2648   18.6175   38.8999 H   0  0  0  0  0  0  0  0  0  0  0  0
    3.9801   19.0034   39.6541 H   0  0  0  0  0  0  0  0  0  0  0  0
    2.9961   25.7302   33.8458 H   0  0  0  0  0  0  0  0  0  0  0  0
    6.8976   23.3926   37.2489 H   0  0  0  0  0  0  0  0  0  0  0  0
    6.9193   22.0903   36.0120 H   0  0  0  0  0  0  0  0  0  0  0  0
    7.7678   23.6420   35.6974 H   0  0  0  0  0  0  0  0  0  0  0  0
    3.2763   23.0364   39.8278 H   0  0  0  0  0  0  0  0  0  0  0  0
    2.4183   22.1283   38.4815 H   0  0  0  0  0  0  0  0  0  0  0  0
   -1.7061   15.9476   41.9379 H   0  0  0  0  0  0  0  0  0  0  0  0
    1.1426   23.7592   35.7929 H   0  0  0  0  0  0  0  0  0  0  0  0
    0.7562   24.7862   34.5181 H   0  0  0  0  0  0  0  0  0  0  0  0
   -0.2121   23.4503   34.8451 H   0  0  0  0  0  0  0  0  0  0  0  0
   -1.2000   17.3898   38.0079 H   0  0  0  0  0  0  0  0  0  0  0  0
    0.9463   18.3541   38.6302 H   0  0  0  0  0  0  0  0  0  0  0  0
    3.4963   24.5335   31.4756 H   0  0  0  0  0  0  0  0  0  0  0  0
    2.0891   23.6067   31.7672 H   0  0  0  0  0  0  0  0  0  0  0  0
   -1.1903   17.7068   44.1692 H   0  0  0  0  0  0  0  0  0  0  0  0
   -0.7689   16.4559   44.9737 H   0  0  0  0  0  0  0  0  0  0  0  0
    2.1529   26.6616   30.6200 H   0  0  0  0  0  0  0  0  0  0  0  0
    0.8317   25.8284   30.3517 H   0  0  0  0  0  0  0  0  0  0  0  0
    1.6086   26.9810   32.9621 H   0  0  0  0  0  0  0  0  0  0  0  0
    0.4721   25.6372   32.9653 H   0  0  0  0  0  0  0  0  0  0  0  0
    2.7473   23.6730   36.4458 H   0  0  0  0  0  0  0  0  0  0  0  0
    3.1251   21.8869   36.4349 H   0  0  0  0  0  0  0  0  0  0  0  0
    2.9481   23.4758   32.6071 H   0  0  0  0  0  0  0  0  0  0  0  0
    2.9460   24.2506   34.4527 H   0  0  0  0  0  0  0  0  0  0  0  0
  2 24  1  0
  2  4  1  0
  3 20  1  0
  5 17  1  0
  6  7  1  0
  6  8  1  0
  7 15  1  0
  7  1  2  0
  9 18  1  0
 10 16  1  0
 10 27  1  0
 11 16  2  0
 12 28  1  0
 13  2  1  0
 16 14  1  0
 17 15  1  0
 18 13  2  0
 19 13  1  0
 19  8  1  0
 21 22  1  0
 21  9  2  0
 22 19  2  0
 23 12  1  0
 24  4  1  0
 25 23  1  0
 25 26  1  0
 26 12  1  0
 27  5  1  0
 28  3  1  0
  2 29  1  0
  3 30  1  0
  3 31  1  0
  4 32  1  0
  4 33  1  0
  5 34  1  0
  5 35  1  0
  6 36  1  0
  6 37  1  0
 12 38  1  0
 14 39  1  0
 14 40  1  0
 14 41  1  0
 17 42  1  0
 17 43  1  0
 18 44  1  0
 20 45  1  0
 20 46  1  0
 20 47  1  0
 21 48  1  0
 22 49  1  0
 23 50  1  0
 23 51  1  0
 24 52  1  0
 24 53  1  0
 25 54  1  0
 25 55  1  0
 26 56  1  0
 26 57  1  0
 27 58  1  0
 27 59  1  0
 28 60  1  0
 28 61  1  0
M  CHG  1  20   1
M  END
>  <mol_id>  (72) 
2026-09-18-6fnk-s0-n100-0072

>  <rmsd_to_ref>  (72) 


$$$$

     RDKit          3D

 49 50  0  0  0  0  0  0  0  0999 V2000
    3.1938   21.5172   37.8920 C   0  0  0  0  0  0  0  0  0  0  0  0
    4.3124   23.8687   33.2963 C   0  0  0  0  0  0  0  0  0  0  0  0
    2.9206   22.0186   35.2791 C   0  0  2  0  0  0  0  0  0  0  0  0
    0.8996   22.0602   41.6240 C   0  0  0  0  0  0  0  0  0  0  0  0
    0.5884   20.6876   32.1439 C   0  0  0  0  0  0  0  0  0  0  0  0
    1.9262   21.1420   41.0583 C   0  0  0  0  0  0  0  0  0  0  0  0
    2.4243   20.8520   33.9241 C   0  0  2  0  0  0  0  0  0  0  0  0
    2.0433   20.8453   32.3886 C   0  0  0  0  0  0  0  0  0  0  0  0
    2.0507   20.7955   43.4351 C   0  0  0  0  0  0  0  0  0  0  0  0
    3.3271   21.3501   36.5684 C   0  0  0  0  0  0  0  0  0  0  0  0
    0.7927   21.5876   43.0939 C   0  0  0  0  0  0  0  0  0  0  0  0
    2.1165   20.7429   39.8165 C   0  0  0  0  0  0  0  0  0  0  0  0
    2.6362   20.3684   38.6232 C   0  0  0  0  0  0  0  0  0  0  0  0
    3.0419   23.8595   33.7090 C   0  0  0  0  0  0  0  0  0  0  0  0
    3.5227   22.9773   32.7059 C   0  0  0  0  0  0  0  0  0  0  0  0
    2.7028   20.4210   42.0861 C   0  0  0  0  0  0  0  0  0  0  0  0
    1.6607   21.8422   34.6918 C   0  0  0  0  0  0  0  0  0  0  0  0
    2.5314   22.3792   38.0595 H   0  0  0  0  0  0  0  0  0  0  0  0
    4.2124   21.6577   38.2825 H   0  0  0  0  0  0  0  0  0  0  0  0
    4.6827   24.7265   32.7157 H   0  0  0  0  0  0  0  0  0  0  0  0
    5.2741   23.7872   33.8239 H   0  0  0  0  0  0  0  0  0  0  0  0
    3.5676   22.8825   35.4914 H   0  0  0  0  0  0  0  0  0  0  0  0
   -0.0619   21.9503   41.1012 H   0  0  0  0  0  0  0  0  0  0  0  0
    1.1636   23.1235   41.5256 H   0  0  0  0  0  0  0  0  0  0  0  0
    0.0477   20.7413   33.1004 H   0  0  0  0  0  0  0  0  0  0  0  0
    0.2390   21.4918   31.4796 H   0  0  0  0  0  0  0  0  0  0  0  0
    0.3997   19.7129   31.6703 H   0  0  0  0  0  0  0  0  0  0  0  0
    2.0204   22.0111   40.3907 H   0  0  0  0  0  0  0  0  0  0  0  0
    2.8072   19.8444   33.7047 H   0  0  0  0  0  0  0  0  0  0  0  0
    2.5713   20.0119   31.9019 H   0  0  0  0  0  0  0  0  0  0  0  0
    2.3385   21.8214   31.9763 H   0  0  0  0  0  0  0  0  0  0  0  0
    2.7385   21.4113   44.0332 H   0  0  0  0  0  0  0  0  0  0  0  0
    1.8123   19.8999   44.0275 H   0  0  0  0  0  0  0  0  0  0  0  0
    2.9121   20.3405   36.4321 H   0  0  0  0  0  0  0  0  0  0  0  0
    4.3231   21.8169   36.5573 H   0  0  0  0  0  0  0  0  0  0  0  0
    0.7099   22.4592   43.7598 H   0  0  0  0  0  0  0  0  0  0  0  0
   -0.0992   20.9573   43.2254 H   0  0  0  0  0  0  0  0  0  0  0  0
    1.5272   19.8221   39.9385 H   0  0  0  0  0  0  0  0  0  0  0  0
    2.4870   21.7562   39.6019 H   0  0  0  0  0  0  0  0  0  0  0  0
    1.8419   19.9098   38.0159 H   0  0  0  0  0  0  0  0  0  0  0  0
    3.4494   19.6519   38.8111 H   0  0  0  0  0  0  0  0  0  0  0  0
    2.7840   23.4785   34.7082 H   0  0  0  0  0  0  0  0  0  0  0  0
    2.2308   24.5980   33.7914 H   0  0  0  0  0  0  0  0  0  0  0  0
    3.2204   23.1118   31.6568 H   0  0  0  0  0  0  0  0  0  0  0  0
    3.5375   21.8879   32.5541 H   0  0  0  0  0  0  0  0  0  0  0  0
    2.6454   19.3352   41.9198 H   0  0  0  0  0  0  0  0  0  0  0  0
    3.7681   20.6939   42.0583 H   0  0  0  0  0  0  0  0  0  0  0  0
    1.2673   22.6976   34.1231 H   0  0  0  0  0  0  0  0  0  0  0  0
    0.7272   21.6411   35.2379 H   0  0  0  0  0  0  0  0  0  0  0  0
  1 13  1  0
  2 14  1  0
  3 10  1  0
  4 11  1  0
  5  8  1  0
  6  4  1  0
  6 16  1  0
  7  8  1  0
  7 17  1  0
  7  3  1  0
 10  1  1  0
 11  9  1  0
 12  6  1  0
 13 12  1  0
 15  2  1  0
 15 14  1  0
 16  9  1  0
 17  3  1  0
  1 18  1  0
  1 19  1  0
  2 20  1  0
  2 21  1  0
  3 22  1  6
  4 23  1  0
  4 24  1  0
  5 25  1  0
  5 26  1  0
  5 27  1  0
  6 28  1  0
  7 29  1  1
  8 30  1  0
  8 31  1  0
  9 32  1  0
  9 33  1  0
 10 34  1  0
 10 35  1  0
 11 36  1  0
 11 37  1  0
 12 38  1  0
 12 39  1  0
 13 40  1  0
 13 41  1  0
 14 42  1  0
 14 43  1  0
 15 44  1  0
 15 45  1  0
 16 46  1  0
 16 47  1  0
 17 48  1  0
 17 49  1  0
M  END
>  <mol_id>  (73) 
2026-09-18-6fnk-s0-n100-0073

>  <rmsd_to_ref>  (73) 


$$$$

     RDKit          3D

 59 58  0  0  0  0  0  0  0  0999 V2000
   -0.2759   25.6753   33.9875 C   0  0  0  0  0  0  0  0  0  0  0  0
    1.9082   19.8164   42.6215 S   0  0  0  0  0  4  0  0  0  0  0  0
   -1.2189   15.3885   38.2236 C   0  0  0  0  0  0  0  0  0  0  0  0
    0.6960   17.2312   38.1582 C   0  0  2  0  0  0  0  0  0  0  0  0
    1.6354   18.0676   37.1221 C   0  0  0  0  0  0  0  0  0  0  0  0
    2.8304   22.9418   34.5283 F   0  0  0  0  0  0  0  0  0  0  0  0
    1.2547   20.1976   41.0654 C   0  0  1  0  0  0  0  0  0  0  0  0
    3.9936   17.9106   36.2801 O   0  0  0  0  0  0  0  0  0  0  0  0
    1.7531   23.7244   34.2730 C   0  0  0  0  0  0  0  0  0  0  0  0
    1.5322   19.4712   39.6328 C   0  0  2  0  0  0  0  0  0  0  0  0
   -0.0150   21.2060   40.8667 C   0  0  0  0  0  0  0  0  0  0  0  0
    0.5946   26.2436   31.4224 S   0  0  0  0  0  0  0  0  0  0  0  0
    1.8999   20.8431   38.6034 S   0  0  0  0  0  0  0  0  0  0  0  0
    1.6172   19.1945   36.5865 O   0  0  0  0  0  0  0  0  0  0  0  0
   -0.8471   16.4847   38.3397 O   0  0  0  0  0  0  0  0  0  0  0  0
    0.6449   23.6617   35.0872 C   0  0  0  0  0  0  0  0  0  0  0  0
    0.6252   19.2133   43.5047 C   0  0  0  0  0  0  0  0  0  0  0  0
    1.7600   24.6070   33.0940 C   0  0  0  0  0  0  0  0  0  0  0  0
    2.0480   21.2194   42.8986 C   0  0  0  0  0  0  0  0  0  0  0  0
    2.9582   17.2849   37.1457 C   0  0  0  0  0  0  0  0  0  0  0  0
   -0.3556   24.6988   34.9745 C   0  0  0  0  0  0  0  0  0  0  0  0
   -0.4492   17.0462   41.4044 O   0  0  0  0  0  0  0  0  0  0  0  0
    0.5266   22.4908   36.0076 C   0  0  0  0  0  0  0  0  0  0  0  0
    0.7116   18.3284   39.3984 C   0  0  2  0  0  0  0  0  0  0  0  0
    0.7029   25.4586   32.9654 C   0  0  0  0  0  0  0  0  0  0  0  0
   -1.2509   26.9052   33.9270 C   0  0  0  0  0  0  0  0  0  0  0  0
    0.4629   17.4537   40.5342 N   0  0  0  0  0  0  0  0  0  0  0  0
    2.9703   18.9701   42.8016 H   0  0  0  0  0  0  0  0  0  0  0  0
   -1.5609   15.0121   39.1989 H   0  0  0  0  0  0  0  0  0  0  0  0
   -2.0522   15.3580   37.5061 H   0  0  0  0  0  0  0  0  0  0  0  0
   -0.3953   14.7589   37.8558 H   0  0  0  0  0  0  0  0  0  0  0  0
    1.1042   16.2512   37.8700 H   0  0  0  0  0  0  0  0  0  0  0  0
    2.2427   20.4074   41.5010 H   0  0  0  0  0  0  0  0  0  0  0  0
    4.6293   18.4206   36.8422 H   0  0  0  0  0  0  0  0  0  0  0  0
    2.3784   18.7978   39.4313 H   0  0  0  0  0  0  0  0  0  0  0  0
   -0.5077   21.3706   41.8363 H   0  0  0  0  0  0  0  0  0  0  0  0
    0.3396   22.1678   40.4675 H   0  0  0  0  0  0  0  0  0  0  0  0
   -0.7318   20.7586   40.1624 H   0  0  0  0  0  0  0  0  0  0  0  0
   -0.1617   27.3799   31.5402 H   0  0  0  0  0  0  0  0  0  0  0  0
    1.8516   21.9951   39.3434 H   0  0  0  0  0  0  0  0  0  0  0  0
    0.8042   19.3863   44.5762 H   0  0  0  0  0  0  0  0  0  0  0  0
   -0.3010   19.7228   43.2007 H   0  0  0  0  0  0  0  0  0  0  0  0
    0.5277   18.1335   43.3190 H   0  0  0  0  0  0  0  0  0  0  0  0
    2.5753   24.5806   32.3560 H   0  0  0  0  0  0  0  0  0  0  0  0
    1.8399   21.4055   43.9626 H   0  0  0  0  0  0  0  0  0  0  0  0
    3.0741   21.5390   42.6643 H   0  0  0  0  0  0  0  0  0  0  0  0
    1.3369   21.7878   42.2810 H   0  0  0  0  0  0  0  0  0  0  0  0
    2.7708   16.2607   36.7909 H   0  0  0  0  0  0  0  0  0  0  0  0
    3.3345   17.2864   38.1793 H   0  0  0  0  0  0  0  0  0  0  0  0
   -1.1967   24.7161   35.6833 H   0  0  0  0  0  0  0  0  0  0  0  0
   -0.1516   17.2673   42.3224 H   0  0  0  0  0  0  0  0  0  0  0  0
    0.2659   22.8425   37.0167 H   0  0  0  0  0  0  0  0  0  0  0  0
   -0.2591   21.8139   35.6408 H   0  0  0  0  0  0  0  0  0  0  0  0
    1.4860   21.9539   36.0430 H   0  0  0  0  0  0  0  0  0  0  0  0
    0.0315   19.1245   39.0611 H   0  0  0  0  0  0  0  0  0  0  0  0
   -1.6656   27.0940   34.9283 H   0  0  0  0  0  0  0  0  0  0  0  0
   -0.6997   27.7936   33.5851 H   0  0  0  0  0  0  0  0  0  0  0  0
   -2.0702   26.6895   33.2255 H   0  0  0  0  0  0  0  0  0  0  0  0
    0.7444   16.5489   40.1306 H   0  0  0  0  0  0  0  0  0  0  0  0
  1 26  1  0
  1 21  1  0
  2 19  1  0
  2 17  1  0
  4  5  1  0
  4 15  1  0
  4 24  1  0
  7 11  1  0
  7  2  1  0
  8 20  1  0
  9  6  1  0
  9 16  1  0
 10 13  1  0
 10 24  1  0
 10  7  1  0
 12 25  1  0
 14  5  2  0
 15  3  1  0
 16 21  2  0
 16 23  1  0
 18 25  1  0
 18  9  2  0
 20  5  1  0
 24 27  1  0
 25  1  2  0
 27 22  1  0
  2 28  1  0
  3 29  1  0
  3 30  1  0
  3 31  1  0
  4 32  1  1
  7 33  1  6
  8 34  1  0
 10 35  1  1
 11 36  1  0
 11 37  1  0
 11 38  1  0
 12 39  1  0
 13 40  1  0
 17 41  1  0
 17 42  1  0
 17 43  1  0
 18 44  1  0
 19 45  1  0
 19 46  1  0
 19 47  1  0
 20 48  1  0
 20 49  1  0
 21 50  1  0
 22 51  1  0
 23 52  1  0
 23 53  1  0
 23 54  1  0
 24 55  1  6
 26 56  1  0
 26 57  1  0
 26 58  1  0
 27 59  1  0
M  END
>  <mol_id>  (74) 
2026-09-18-6fnk-s0-n100-0074

>  <rmsd_to_ref>  (74) 


$$$$

     RDKit          3D

 63 65  0  0  0  0  0  0  0  0999 V2000
   -3.2150   15.4510   38.8270 C   0  0  0  0  0  0  0  0  0  0  0  0
    3.5100   21.0850   40.4210 O   0  0  0  0  0  0  0  0  0  0  0  0
    7.1800   24.6490   36.7040 C   0  0  0  0  0  0  0  0  0  0  0  0
    2.8700   25.4190   35.2370 C   0  0  1  0  0  0  0  0  0  0  0  0
    1.8010   25.8640   33.6630 S   0  0  0  0  0  0  0  0  0  0  0  0
    3.5610   26.7630   35.4790 C   0  0  0  0  0  0  0  0  0  0  0  0
   -0.0280   16.8140   39.7940 C   0  0  0  0  0  0  0  0  0  0  0  0
    4.9430   26.2440   33.4730 N   0  0  0  0  0  0  0  0  0  0  0  0
    6.1230   23.9960   36.8180 C   0  0  0  0  0  0  0  0  0  0  0  0
    1.3540   18.4320   38.8590 C   0  0  0  0  0  0  0  0  0  0  0  0
    4.7430   23.9780   37.2890 C   0  0  2  0  0  0  0  0  0  0  0  0
    4.6180   25.0910   38.1580 O   0  0  0  0  0  0  0  0  0  0  0  0
    0.1190   16.8440   38.4210 C   0  0  2  0  0  0  0  0  0  0  0  0
   -1.0130   15.7400   39.9740 O   0  0  0  0  0  0  0  0  0  0  0  0
    3.3430   20.1650   37.7490 O   0  0  0  0  0  0  0  0  0  0  0  0
   -0.2360   16.2310   37.1960 C   0  0  0  0  0  0  0  0  0  0  0  0
    1.4570   17.5140   37.8560 C   0  0  0  0  0  0  0  0  0  0  0  0
    3.5910   21.0780   38.9490 S   0  0  0  0  0  6  0  0  0  0  0  0
   -1.9450   15.3910   39.0030 C   0  0  2  0  0  0  0  0  0  0  0  0
    1.6620   24.9500   35.1620 C   0  0  0  0  0  0  0  0  0  0  0  0
    4.0220   22.6370   38.1240 C   0  0  2  0  0  0  0  0  0  0  0  0
   -3.0560   14.3540   39.8380 C   0  0  1  0  0  0  0  0  0  0  0  0
    1.4110   21.4030   39.4580 S   0  0  0  0  0  0  0  0  0  0  0  0
    3.0800   26.0180   32.5140 C   0  0  0  0  0  0  0  0  0  0  0  0
   -2.4000   14.1170   41.0590 C   0  0  0  0  0  0  0  0  0  0  0  0
    0.7640   19.4620   39.6660 C   0  0  0  0  0  0  0  0  0  0  0  0
   -1.8160   14.0830   38.3820 S   0  0  0  0  0  0  0  0  0  0  0  0
    3.2000   23.1200   36.7870 S   0  0  0  0  0  0  0  0  0  0  0  0
    4.3000   25.6000   34.8690 C   0  0  2  0  0  0  0  0  0  0  0  0
   -3.7218   16.3680   39.1622 H   0  0  0  0  0  0  0  0  0  0  0  0
   -3.7584   15.4033   37.8718 H   0  0  0  0  0  0  0  0  0  0  0  0
    8.0587   24.1937   36.2239 H   0  0  0  0  0  0  0  0  0  0  0  0
    7.2332   25.6801   37.0836 H   0  0  0  0  0  0  0  0  0  0  0  0
    2.2181   24.5556   35.4358 H   0  0  0  0  0  0  0  0  0  0  0  0
    3.3013   27.6377   34.8646 H   0  0  0  0  0  0  0  0  0  0  0  0
    3.7133   27.4234   36.3454 H   0  0  0  0  0  0  0  0  0  0  0  0
   -0.4084   17.7729   40.1760 H   0  0  0  0  0  0  0  0  0  0  0  0
    0.9140   16.6463   40.3366 H   0  0  0  0  0  0  0  0  0  0  0  0
    5.6503   26.9524   33.7157 H   0  0  0  0  0  0  0  0  0  0  0  0
    5.3832   25.4946   32.9202 H   0  0  0  0  0  0  0  0  0  0  0  0
    4.1930   26.6831   32.9202 H   0  0  0  0  0  0  0  0  0  0  0  0
    6.3144   23.0094   36.3708 H   0  0  0  0  0  0  0  0  0  0  0  0
    2.2737   18.9832   38.6131 H   0  0  0  0  0  0  0  0  0  0  0  0
    0.6985   17.7177   39.3787 H   0  0  0  0  0  0  0  0  0  0  0  0
    4.6528   24.7815   39.0977 H   0  0  0  0  0  0  0  0  0  0  0  0
   -0.8745   16.9187   38.8871 H   0  0  0  0  0  0  0  0  0  0  0  0
   -0.7779   15.2952   37.3977 H   0  0  0  0  0  0  0  0  0  0  0  0
   -0.8802   16.9107   36.6190 H   0  0  0  0  0  0  0  0  0  0  0  0
    0.6742   16.0105   36.6190 H   0  0  0  0  0  0  0  0  0  0  0  0
    2.3492   16.8729   37.9114 H   0  0  0  0  0  0  0  0  0  0  0  0
    1.5504   17.8176   36.8029 H   0  0  0  0  0  0  0  0  0  0  0  0
    1.5603   23.8588   35.0680 H   0  0  0  0  0  0  0  0  0  0  0  0
    0.8708   25.0464   35.9201 H   0  0  0  0  0  0  0  0  0  0  0  0
    4.4061   22.3897   39.1246 H   0  0  0  0  0  0  0  0  0  0  0  0
    4.0370   26.1332   33.0439 H   0  0  0  0  0  0  0  0  0  0  0  0
    3.1164   25.1177   31.8830 H   0  0  0  0  0  0  0  0  0  0  0  0
    2.9016   26.9012   31.8830 H   0  0  0  0  0  0  0  0  0  0  0  0
   -3.0759   14.3612   41.8918 H   0  0  0  0  0  0  0  0  0  0  0  0
   -2.1107   13.0575   41.1202 H   0  0  0  0  0  0  0  0  0  0  0  0
   -1.5003   14.7469   41.1202 H   0  0  0  0  0  0  0  0  0  0  0  0
   -0.3147   19.4591   39.4508 H   0  0  0  0  0  0  0  0  0  0  0  0
    1.0678   19.1957   40.6891 H   0  0  0  0  0  0  0  0  0  0  0  0
    5.0825   24.8390   35.0052 H   0  0  0  0  0  0  0  0  0  0  0  0
  1 19  1  0
  1 22  1  0
  3  9  2  3
  4 20  1  0
  4  6  1  0
  5 20  1  0
  7 14  1  0
  9 11  1  0
 10 26  1  0
 11 21  1  0
 11 12  1  1
 13 16  1  0
 13  7  1  0
 15 18  2  0
 17 13  1  0
 17 10  1  0
 18 23  1  0
 18  2  2  0
 19 22  1  0
 19 14  1  1
 21 18  1  0
 22 25  1  1
 23 26  1  0
 24  5  1  0
 27 19  1  0
 27 22  1  0
 28 11  1  0
 28 21  1  0
 29  8  1  0
 29  4  1  0
 29  6  1  0
  1 30  1  0
  1 31  1  0
  3 32  1  0
  3 33  1  0
  4 34  1  1
  6 35  1  0
  6 36  1  0
  7 37  1  0
  7 38  1  0
  8 39  1  0
  8 40  1  0
  8 41  1  0
  9 42  1  0
 10 43  1  0
 10 44  1  0
 12 45  1  0
 13 46  1  6
 16 47  1  0
 16 48  1  0
 16 49  1  0
 17 50  1  0
 17 51  1  0
 20 52  1  0
 20 53  1  0
 21 54  1  1
 24 55  1  0
 24 56  1  0
 24 57  1  0
 25 58  1  0
 25 59  1  0
 25 60  1  0
 26 61  1  0
 26 62  1  0
 29 63  1  1
M  CHG  1   8   1
M  END
>  <mol_id>  (75) 
2026-09-18-6fnk-s0-n100-0075

>  <rmsd_to_ref>  (75) 


$$$$

     RDKit          3D

 69 69  0  0  0  0  0  0  0  0999 V2000
    3.4578   20.6816   39.1134 C   0  0  0  0  0  0  0  0  0  0  0  0
    2.8160   24.4954   33.4049 C   0  0  0  0  0  0  0  0  0  0  0  0
    1.4453   26.6436   33.4911 C   0  0  0  0  0  0  0  0  0  0  0  0
    2.6813   18.6785   40.6112 N   0  0  0  0  0  0  0  0  0  0  0  0
    6.2527   22.9789   36.2663 O   0  0  0  0  0  0  0  0  0  0  0  0
   -0.8590   15.6362   40.0975 C   0  0  1  0  0  0  0  0  0  0  0  0
   -0.5861   16.5036   37.8779 C   0  0  0  0  0  0  0  0  0  0  0  0
    1.0963   16.9590   40.7347 C   0  0  0  0  0  0  0  0  0  0  0  0
    4.1186   22.9481   35.0737 C   0  0  2  0  0  0  0  0  0  0  0  0
    0.5919   17.2625   38.0459 C   0  0  0  0  0  0  0  0  0  0  0  0
    5.5376   23.5438   35.1877 C   0  0  0  0  0  0  0  0  0  0  0  0
    2.9207   19.7771   39.7553 N   0  0  0  0  0  0  0  0  0  0  0  0
   -1.8715   14.9309   40.8756 C   0  0  0  0  0  0  0  0  0  0  0  0
    2.8514   23.6710   34.7953 C   0  0  0  0  0  0  0  0  0  0  0  0
    2.8289   22.1469   37.0429 C   0  0  0  0  0  0  0  0  0  0  0  0
    0.4126   26.7963   34.5454 C   0  0  0  0  0  0  0  0  0  0  0  0
    1.3630   27.2486   32.2579 C   0  0  0  0  0  0  0  0  0  0  0  0
    1.6169   18.0695   38.6004 N   0  0  0  0  0  0  0  0  0  0  0  0
    0.6227   15.8043   39.9788 C   0  0  0  0  0  0  0  0  0  0  0  0
    4.0860   22.2425   36.3922 N   0  0  0  0  0  0  0  0  0  0  0  0
   -1.5091   15.5807   38.6665 C   0  0  0  0  0  0  0  0  0  0  0  0
    1.8587   17.8437   39.7398 C   0  0  1  0  0  0  0  0  0  0  0  0
    3.1953   18.6329   42.0384 C   0  0  0  0  0  0  0  0  0  0  0  0
    2.4938   25.8328   33.6408 N   0  0  0  0  0  0  0  0  0  0  0  0
    2.9312   20.9059   37.8687 C   0  0  0  0  0  0  0  0  0  0  0  0
    3.3667   21.6114   39.6941 H   0  0  0  0  0  0  0  0  0  0  0  0
    4.4988   20.3647   38.9517 H   0  0  0  0  0  0  0  0  0  0  0  0
    2.0602   24.0522   32.7398 H   0  0  0  0  0  0  0  0  0  0  0  0
    3.8092   24.4451   32.9347 H   0  0  0  0  0  0  0  0  0  0  0  0
    5.9384   23.3783   37.1158 H   0  0  0  0  0  0  0  0  0  0  0  0
   -0.6522   16.3551   40.9040 H   0  0  0  0  0  0  0  0  0  0  0  0
   -1.2925   17.2744   37.5358 H   0  0  0  0  0  0  0  0  0  0  0  0
   -0.0344   15.6571   37.4431 H   0  0  0  0  0  0  0  0  0  0  0  0
    0.2449   17.5108   41.1598 H   0  0  0  0  0  0  0  0  0  0  0  0
    1.7412   16.6514   41.5709 H   0  0  0  0  0  0  0  0  0  0  0  0
    4.0621   22.4396   34.0999 H   0  0  0  0  0  0  0  0  0  0  0  0
    1.2692   16.4567   37.7266 H   0  0  0  0  0  0  0  0  0  0  0  0
   -0.0502   18.1554   38.0689 H   0  0  0  0  0  0  0  0  0  0  0  0
    6.0842   23.3454   34.2539 H   0  0  0  0  0  0  0  0  0  0  0  0
    5.4439   24.6252   35.3654 H   0  0  0  0  0  0  0  0  0  0  0  0
    2.2419   20.3961   40.2211 H   0  0  0  0  0  0  0  0  0  0  0  0
   -1.6260   15.0006   41.9456 H   0  0  0  0  0  0  0  0  0  0  0  0
   -2.8561   15.3867   40.6949 H   0  0  0  0  0  0  0  0  0  0  0  0
   -1.8958   13.8736   40.5731 H   0  0  0  0  0  0  0  0  0  0  0  0
    2.6787   24.3823   35.6164 H   0  0  0  0  0  0  0  0  0  0  0  0
    2.0734   22.8982   34.7100 H   0  0  0  0  0  0  0  0  0  0  0  0
    2.0156   22.0591   36.3074 H   0  0  0  0  0  0  0  0  0  0  0  0
    2.6017   23.0363   37.6490 H   0  0  0  0  0  0  0  0  0  0  0  0
    0.8891   26.7455   35.5355 H   0  0  0  0  0  0  0  0  0  0  0  0
   -0.0890   27.7685   34.4293 H   0  0  0  0  0  0  0  0  0  0  0  0
   -0.3281   25.9883   34.4529 H   0  0  0  0  0  0  0  0  0  0  0  0
    0.5331   27.9360   32.0367 H   0  0  0  0  0  0  0  0  0  0  0  0
    2.1272   27.0450   31.4932 H   0  0  0  0  0  0  0  0  0  0  0  0
    2.4764   17.9190   38.0531 H   0  0  0  0  0  0  0  0  0  0  0  0
    1.2786   19.0416   38.5597 H   0  0  0  0  0  0  0  0  0  0  0  0
    1.1162   14.8996   40.3633 H   0  0  0  0  0  0  0  0  0  0  0  0
    0.8661   15.9651   38.9182 H   0  0  0  0  0  0  0  0  0  0  0  0
    4.4301   21.2838   36.2396 H   0  0  0  0  0  0  0  0  0  0  0  0
    4.6666   22.8192   37.0176 H   0  0  0  0  0  0  0  0  0  0  0  0
   -2.5416   15.9599   38.6792 H   0  0  0  0  0  0  0  0  0  0  0  0
   -1.5914   14.5659   38.2502 H   0  0  0  0  0  0  0  0  0  0  0  0
    2.2714   17.2878   38.8850 H   0  0  0  0  0  0  0  0  0  0  0  0
    2.3517   18.7433   42.7356 H   0  0  0  0  0  0  0  0  0  0  0  0
    3.6953   17.6696   42.2174 H   0  0  0  0  0  0  0  0  0  0  0  0
    3.9115   19.4527   42.1966 H   0  0  0  0  0  0  0  0  0  0  0  0
    2.6910   25.9243   34.6476 H   0  0  0  0  0  0  0  0  0  0  0  0
    2.9462   26.1580   32.7746 H   0  0  0  0  0  0  0  0  0  0  0  0
    1.8881   20.5696   37.9631 H   0  0  0  0  0  0  0  0  0  0  0  0
    3.7479   20.4395   37.2982 H   0  0  0  0  0  0  0  0  0  0  0  0
  1 12  1  0
  2 24  1  0
  2 14  1  0
  3 24  1  0
  3 16  1  0
  4 23  1  0
  6 19  1  0
  6 13  1  0
  7 10  1  0
  7 21  1  0
  9 14  1  0
  9 11  1  0
  9 20  1  0
 10 18  1  0
 11  5  1  0
 12  4  1  0
 15 25  1  0
 17  3  2  3
 18 22  1  0
 19  8  1  0
 20 15  1  0
 21  6  1  0
 22  8  1  0
 22  4  1  0
 25  1  1  0
  1 26  1  0
  1 27  1  0
  2 28  1  0
  2 29  1  0
  5 30  1  0
  6 31  1  1
  7 32  1  0
  7 33  1  0
  8 34  1  0
  8 35  1  0
  9 36  1  6
 10 37  1  0
 10 38  1  0
 11 39  1  0
 11 40  1  0
 12 41  1  0
 13 42  1  0
 13 43  1  0
 13 44  1  0
 14 45  1  0
 14 46  1  0
 15 47  1  0
 15 48  1  0
 16 49  1  0
 16 50  1  0
 16 51  1  0
 17 52  1  0
 17 53  1  0
 18 54  1  0
 18 55  1  0
 19 56  1  0
 19 57  1  0
 20 58  1  0
 20 59  1  0
 21 60  1  0
 21 61  1  0
 22 62  1  6
 23 63  1  0
 23 64  1  0
 23 65  1  0
 24 66  1  0
 24 67  1  0
 25 68  1  0
 25 69  1  0
M  CHG  3  18   1  20   1  24   1
M  END
>  <mol_id>  (76) 
2026-09-18-6fnk-s0-n100-0076

>  <rmsd_to_ref>  (76) 


$$$$

     RDKit          3D

 57 57  0  0  0  0  0  0  0  0999 V2000
   -3.0572   15.2554   41.1699 O   0  0  0  0  0  0  0  0  0  0  0  0
    2.5172   20.2176   37.5700 C   0  0  0  0  0  0  0  0  0  0  0  0
    3.6203   24.6000   33.4661 C   0  0  0  0  0  0  0  0  0  0  0  0
    1.0108   24.4985   34.5014 C   0  0  0  0  0  0  0  0  0  0  0  0
    0.0446   16.4826   39.4775 C   0  0  0  0  0  0  0  0  0  0  0  0
    3.9621   24.1009   34.7386 C   0  0  0  0  0  0  0  0  0  0  0  0
    0.0193   17.3264   38.1310 C   0  0  0  0  0  0  0  0  0  0  0  0
   -1.0108   14.5928   41.3970 O   0  0  0  0  0  0  0  0  0  0  0  0
    3.2354   22.5616   36.4948 N   0  0  0  0  0  0  0  0  0  0  0  0
    5.3280   20.6230   42.8210 C   0  0  0  0  0  0  0  0  0  0  0  0
    5.2306   24.0389   35.3436 F   0  0  0  0  0  0  0  0  0  0  0  0
    2.6421   21.2848   38.5349 C   0  0  0  0  0  0  0  0  0  0  0  0
   -1.4481   16.3032   39.8565 C   0  0  0  0  0  0  0  0  0  0  0  0
    1.1026   17.8584   37.5824 N   0  0  0  0  0  0  0  0  0  0  0  0
    5.2686   21.9139   42.2299 O   0  0  0  0  0  0  0  0  0  0  0  0
    2.1065   18.8339   38.2713 N   0  0  0  0  0  0  0  0  0  0  0  0
    1.0267   24.9084   33.1403 C   0  0  0  0  0  0  0  0  0  0  0  0
   -1.7954   15.3344   40.9520 C   0  0  0  0  0  0  0  0  0  0  0  0
    4.2852   21.7953   40.8628 C   0  0  0  0  0  0  0  0  0  0  0  0
    1.7105   23.8890   35.5598 C   0  0  0  0  0  0  0  0  0  0  0  0
    4.7763   22.7886   38.4450 C   0  0  0  0  0  0  0  0  0  0  0  0
    3.3823   22.5647   38.0222 C   0  0  1  0  0  0  0  0  0  0  0  0
    3.0371   23.5670   35.6543 C   0  0  2  0  0  0  0  0  0  0  0  0
    2.4188   24.8143   32.7053 C   0  0  0  0  0  0  0  0  0  0  0  0
    5.1786   22.2308   39.6690 C   0  0  0  0  0  0  0  0  0  0  0  0
    3.4810   20.0856   37.0566 H   0  0  0  0  0  0  0  0  0  0  0  0
    1.7263   20.4898   36.8556 H   0  0  0  0  0  0  0  0  0  0  0  0
    4.5131   24.9089   32.9027 H   0  0  0  0  0  0  0  0  0  0  0  0
    0.0248   24.7794   34.9002 H   0  0  0  0  0  0  0  0  0  0  0  0
    0.5826   17.0277   40.2671 H   0  0  0  0  0  0  0  0  0  0  0  0
    0.5621   15.5195   39.3560 H   0  0  0  0  0  0  0  0  0  0  0  0
   -0.4093   16.6612   37.3669 H   0  0  0  0  0  0  0  0  0  0  0  0
   -0.5247   18.2273   38.4513 H   0  0  0  0  0  0  0  0  0  0  0  0
    4.1049   22.1225   36.1601 H   0  0  0  0  0  0  0  0  0  0  0  0
    2.2875   22.1607   36.4514 H   0  0  0  0  0  0  0  0  0  0  0  0
    5.4636   20.7234   43.9080 H   0  0  0  0  0  0  0  0  0  0  0  0
    4.3918   20.0827   42.6167 H   0  0  0  0  0  0  0  0  0  0  0  0
    6.1744   20.0636   42.3959 H   0  0  0  0  0  0  0  0  0  0  0  0
    1.6300   21.5801   38.8485 H   0  0  0  0  0  0  0  0  0  0  0  0
    3.2574   20.8846   39.3541 H   0  0  0  0  0  0  0  0  0  0  0  0
   -1.8269   17.2896   40.1624 H   0  0  0  0  0  0  0  0  0  0  0  0
   -1.9058   15.8685   38.9557 H   0  0  0  0  0  0  0  0  0  0  0  0
    1.6730   17.0550   37.2823 H   0  0  0  0  0  0  0  0  0  0  0  0
    2.9793   18.3058   38.4134 H   0  0  0  0  0  0  0  0  0  0  0  0
    0.3916   24.2453   32.5344 H   0  0  0  0  0  0  0  0  0  0  0  0
    0.6372   25.9306   33.0236 H   0  0  0  0  0  0  0  0  0  0  0  0
    3.9396   20.7599   40.7266 H   0  0  0  0  0  0  0  0  0  0  0  0
    3.3870   22.4242   40.9507 H   0  0  0  0  0  0  0  0  0  0  0  0
    1.1017   23.6342   36.4398 H   0  0  0  0  0  0  0  0  0  0  0  0
    4.9301   23.8758   38.5116 H   0  0  0  0  0  0  0  0  0  0  0  0
    5.3858   22.2736   37.6877 H   0  0  0  0  0  0  0  0  0  0  0  0
    2.8980   23.4226   38.5115 H   0  0  0  0  0  0  0  0  0  0  0  0
    3.8030   24.2449   36.0589 H   0  0  0  0  0  0  0  0  0  0  0  0
    2.4149   23.9909   31.9758 H   0  0  0  0  0  0  0  0  0  0  0  0
    2.5736   25.8829   32.4957 H   0  0  0  0  0  0  0  0  0  0  0  0
    5.7340   21.3227   39.3916 H   0  0  0  0  0  0  0  0  0  0  0  0
    5.6300   23.1274   40.1189 H   0  0  0  0  0  0  0  0  0  0  0  0
  2 16  1  0
  2 12  1  0
  3  6  2  0
  4 20  2  0
  5 13  1  0
  6 23  1  0
  6 11  1  0
  7  5  1  0
  9 22  1  0
 13 18  1  0
 14  7  1  0
 14 16  1  0
 15 10  1  0
 17  4  1  0
 18  1  2  0
 18  8  1  0
 19 15  1  0
 20 23  1  0
 21 25  1  0
 22 12  1  0
 22 21  1  0
 23  9  1  0
 24 17  1  0
 24  3  1  0
 25 19  1  0
  2 26  1  0
  2 27  1  0
  3 28  1  0
  4 29  1  0
  5 30  1  0
  5 31  1  0
  7 32  1  0
  7 33  1  0
  9 34  1  0
  9 35  1  0
 10 36  1  0
 10 37  1  0
 10 38  1  0
 12 39  1  0
 12 40  1  0
 13 41  1  0
 13 42  1  0
 14 43  1  0
 16 44  1  0
 17 45  1  0
 17 46  1  0
 19 47  1  0
 19 48  1  0
 20 49  1  0
 21 50  1  0
 21 51  1  0
 22 52  1  1
 23 53  1  1
 24 54  1  0
 24 55  1  0
 25 56  1  0
 25 57  1  0
M  CHG  2   8  -1   9   1
M  END
>  <mol_id>  (77) 
2026-09-18-6fnk-s0-n100-0077

>  <rmsd_to_ref>  (77) 


$$$$

     RDKit          3D

 59 59  0  0  0  0  0  0  0  0999 V2000
    0.5132   18.1766   41.3945 C   0  0  0  0  0  0  0  0  0  0  0  0
    1.3658   19.2127   40.6172 C   0  0  0  0  0  0  0  0  0  0  0  0
    3.7030   24.1292   33.0128 C   0  0  0  0  0  0  0  0  0  0  0  0
    0.3727   18.7192   45.3185 C   0  0  0  0  0  0  0  0  0  0  0  0
    3.1714   20.5535   37.7245 N   0  0  0  0  0  0  0  0  0  0  0  0
    2.4086   20.3623   38.7992 C   0  0  0  0  0  0  0  0  0  0  0  0
    1.1382   16.0502   37.2840 C   0  0  0  0  0  0  0  0  0  0  0  0
    0.5131   17.0972   36.8658 N   0  0  0  0  0  0  0  0  0  0  0  0
   -0.6964   19.7799   45.2823 C   0  0  0  0  0  0  0  0  0  0  0  0
   -0.7760   20.1205   43.8141 C   0  0  0  0  0  0  0  0  0  0  0  0
    0.2879   21.0354   43.4638 C   0  0  0  0  0  0  0  0  0  0  0  0
    1.5278   25.0268   33.5520 C   0  0  0  0  0  0  0  0  0  0  0  0
    0.9162   18.2137   37.3448 O   0  0  0  0  0  0  0  0  0  0  0  0
    4.8563   22.2742   37.3690 C   0  0  0  0  0  0  0  0  0  0  0  0
    1.8139   17.9149   38.4465 C   0  0  0  0  0  0  0  0  0  0  0  0
    2.1067   21.5214   39.9939 S   0  0  0  0  0  0  0  0  0  0  0  0
    3.6923   21.6002   34.9200 O   0  0  0  0  0  0  0  0  0  0  0  0
    1.8662   19.0806   39.2737 C   0  0  0  0  0  0  0  0  0  0  0  0
    2.8058   25.9253   31.4323 C   0  0  0  0  0  0  0  0  0  0  0  0
    4.4865   23.5139   33.9616 C   0  0  0  0  0  0  0  0  0  0  0  0
    2.8769   25.5476   32.8438 C   0  0  2  0  0  0  0  0  0  0  0  0
    0.9116   21.2202   42.3214 C   0  0  0  0  0  0  0  0  0  0  0  0
    1.4804   25.7804   30.6694 C   0  0  0  0  0  0  0  0  0  0  0  0
    1.9170   16.6146   38.4046 C   0  0  0  0  0  0  0  0  0  0  0  0
    1.4051   20.5420   41.1857 C   0  0  0  0  0  0  0  0  0  0  0  0
    4.3494   22.3639   34.7338 C   0  0  0  0  0  0  0  0  0  0  0  0
    4.1285   21.3950   37.5255 C   0  0  0  0  0  0  0  0  0  0  0  0
    0.5105   18.4326   42.4642 H   0  0  0  0  0  0  0  0  0  0  0  0
   -0.5180   18.1893   41.0118 H   0  0  0  0  0  0  0  0  0  0  0  0
    0.9423   17.1728   41.2588 H   0  0  0  0  0  0  0  0  0  0  0  0
    2.9117   23.3826   32.8503 H   0  0  0  0  0  0  0  0  0  0  0  0
    4.5661   24.4825   32.4296 H   0  0  0  0  0  0  0  0  0  0  0  0
    0.6606   18.5243   46.3621 H   0  0  0  0  0  0  0  0  0  0  0  0
   -0.0134   17.7940   44.8656 H   0  0  0  0  0  0  0  0  0  0  0  0
    1.2513   19.0647   44.7541 H   0  0  0  0  0  0  0  0  0  0  0  0
    2.9652   19.9331   36.9286 H   0  0  0  0  0  0  0  0  0  0  0  0
    1.1015   15.0170   36.9083 H   0  0  0  0  0  0  0  0  0  0  0  0
   -1.6560   19.3889   45.6515 H   0  0  0  0  0  0  0  0  0  0  0  0
   -0.4723   20.6476   45.9202 H   0  0  0  0  0  0  0  0  0  0  0  0
   -0.6761   19.2000   43.2200 H   0  0  0  0  0  0  0  0  0  0  0  0
   -1.7460   20.5946   43.6038 H   0  0  0  0  0  0  0  0  0  0  0  0
   -0.1228   22.0266   43.7064 H   0  0  0  0  0  0  0  0  0  0  0  0
    1.1019   20.5105   43.9851 H   0  0  0  0  0  0  0  0  0  0  0  0
    1.5719   25.2441   34.6294 H   0  0  0  0  0  0  0  0  0  0  0  0
    0.6605   25.5388   33.1098 H   0  0  0  0  0  0  0  0  0  0  0  0
    1.4295   23.9417   33.4005 H   0  0  0  0  0  0  0  0  0  0  0  0
    5.5513   23.1136   37.2195 H   0  0  0  0  0  0  0  0  0  0  0  0
    3.0944   26.9850   31.3711 H   0  0  0  0  0  0  0  0  0  0  0  0
    3.4650   25.1956   30.9393 H   0  0  0  0  0  0  0  0  0  0  0  0
    5.4329   23.3424   33.4278 H   0  0  0  0  0  0  0  0  0  0  0  0
    4.2351   24.2133   34.7724 H   0  0  0  0  0  0  0  0  0  0  0  0
    3.2672   26.4829   33.2713 H   0  0  0  0  0  0  0  0  0  0  0  0
    0.2467   21.9555   41.8447 H   0  0  0  0  0  0  0  0  0  0  0  0
    1.8916   21.1565   42.8170 H   0  0  0  0  0  0  0  0  0  0  0  0
    0.6402   25.8699   31.3737 H   0  0  0  0  0  0  0  0  0  0  0  0
    1.4069   26.5714   29.9085 H   0  0  0  0  0  0  0  0  0  0  0  0
    1.4450   24.7961   30.1795 H   0  0  0  0  0  0  0  0  0  0  0  0
    2.5082   16.0159   39.1131 H   0  0  0  0  0  0  0  0  0  0  0  0
    5.2492   22.2301   35.3524 H   0  0  0  0  0  0  0  0  0  0  0  0
  2  1  1  0
  2 25  2  0
  3 21  1  0
  3 20  1  0
  4  9  1  0
  5  6  1  0
  6 18  2  0
  6 16  1  0
  7 24  1  0
  8  7  2  0
  8 13  1  0
 10  9  1  0
 11 10  1  0
 13 15  1  0
 14 27  3  0
 15 18  1  0
 16 25  1  0
 18  2  1  0
 19 21  1  0
 20 26  1  0
 21 12  1  0
 22 11  1  0
 23 19  1  0
 24 15  2  0
 25 22  1  0
 26 17  2  0
 27  5  1  0
  1 28  1  0
  1 29  1  0
  1 30  1  0
  3 31  1  0
  3 32  1  0
  4 33  1  0
  4 34  1  0
  4 35  1  0
  5 36  1  0
  7 37  1  0
  9 38  1  0
  9 39  1  0
 10 40  1  0
 10 41  1  0
 11 42  1  0
 11 43  1  0
 12 44  1  0
 12 45  1  0
 12 46  1  0
 14 47  1  0
 19 48  1  0
 19 49  1  0
 20 50  1  0
 20 51  1  0
 21 52  1  1
 22 53  1  0
 22 54  1  0
 23 55  1  0
 23 56  1  0
 23 57  1  0
 24 58  1  0
 26 59  1  0
M  END
>  <mol_id>  (78) 
2026-09-18-6fnk-s0-n100-0079

>  <rmsd_to_ref>  (78) 


$$$$

     RDKit          3D

 58 59  0  0  0  0  0  0  0  0999 V2000
   -1.0162   16.6082   37.9244 C   0  0  0  0  0  0  0  0  0  0  0  0
    0.7710   25.5214   34.9611 C   0  0  0  0  0  0  0  0  0  0  0  0
    2.9510   21.3418   34.9502 C   0  0  0  0  0  0  0  0  0  0  0  0
    2.2086   25.3353   33.0713 C   0  0  0  0  0  0  0  0  0  0  0  0
    1.0623   18.1109   40.2227 O   0  0  0  0  0  0  0  0  0  0  0  0
   -0.5403   17.8942   37.5083 C   0  0  0  0  0  0  0  0  0  0  0  0
    2.6462   20.6748   41.6259 C   0  0  0  0  0  0  0  0  0  0  0  0
    1.2687   25.9862   33.7820 C   0  0  0  0  0  0  0  0  0  0  0  0
    0.9536   18.1085   37.6707 C   0  0  0  0  0  0  0  0  0  0  0  0
    0.6507   21.3504   42.9330 C   0  0  0  0  0  0  0  0  0  0  0  0
    2.5663   20.6013   40.3061 N   0  0  0  0  0  0  0  0  0  0  0  0
    1.3285   24.4142   35.4975 C   0  0  0  0  0  0  0  0  0  0  0  0
    2.2060   19.8164   39.3541 C   0  0  0  0  0  0  0  0  0  0  0  0
    1.9029   18.5640   45.6284 F   0  0  0  0  0  0  0  0  0  0  0  0
    0.3630   27.9916   34.5378 C   0  0  0  0  0  0  0  0  0  0  0  0
    0.1313   20.0801   44.9311 C   0  0  0  0  0  0  0  0  0  0  0  0
    2.8401   24.2142   33.6726 C   0  0  0  0  0  0  0  0  0  0  0  0
    0.8823   27.2758   33.3751 O   0  0  0  0  0  0  0  0  0  0  0  0
    3.1005   22.7481   35.6232 C   0  0  0  0  0  0  0  0  0  0  0  0
    1.6301   20.4960   42.6158 C   0  0  0  0  0  0  0  0  0  0  0  0
   -0.1361   21.1368   44.0349 C   0  0  0  0  0  0  0  0  0  0  0  0
    1.8328   19.2993   43.3947 C   0  0  0  0  0  0  0  0  0  0  0  0
    1.1903   19.2065   44.5917 C   0  0  0  0  0  0  0  0  0  0  0  0
    2.4588   23.7619   34.9365 C   0  0  0  0  0  0  0  0  0  0  0  0
    2.4419   19.9803   38.2738 C   0  0  0  0  0  0  0  0  0  0  0  0
    1.5113   18.6705   39.0750 C   0  0  1  0  0  0  0  0  0  0  0  0
    4.3716   21.9766   35.3412 C   0  0  0  0  0  0  0  0  0  0  0  0
   -1.0156   16.5549   39.0232 H   0  0  0  0  0  0  0  0  0  0  0  0
   -2.0397   16.4574   37.5506 H   0  0  0  0  0  0  0  0  0  0  0  0
   -0.3586   15.8251   37.5191 H   0  0  0  0  0  0  0  0  0  0  0  0
   -0.0627   26.0338   35.4634 H   0  0  0  0  0  0  0  0  0  0  0  0
    2.6488   21.2569   33.8959 H   0  0  0  0  0  0  0  0  0  0  0  0
    2.4096   20.4094   35.1687 H   0  0  0  0  0  0  0  0  0  0  0  0
    2.4791   25.6617   32.0562 H   0  0  0  0  0  0  0  0  0  0  0  0
    1.4416   18.5969   40.9973 H   0  0  0  0  0  0  0  0  0  0  0  0
   -1.0614   18.6595   38.1022 H   0  0  0  0  0  0  0  0  0  0  0  0
   -0.7455   17.9638   36.4299 H   0  0  0  0  0  0  0  0  0  0  0  0
    3.0326   21.6869   41.8163 H   0  0  0  0  0  0  0  0  0  0  0  0
    3.1827   19.7294   41.7935 H   0  0  0  0  0  0  0  0  0  0  0  0
    1.4402   17.1377   37.4953 H   0  0  0  0  0  0  0  0  0  0  0  0
    1.1862   18.9095   36.9534 H   0  0  0  0  0  0  0  0  0  0  0  0
    0.4748   22.2344   42.3024 H   0  0  0  0  0  0  0  0  0  0  0  0
    1.9909   21.4305   40.1008 H   0  0  0  0  0  0  0  0  0  0  0  0
    3.5445   20.2870   40.2348 H   0  0  0  0  0  0  0  0  0  0  0  0
    0.8855   23.9971   36.4139 H   0  0  0  0  0  0  0  0  0  0  0  0
    0.8114   27.5781   35.4532 H   0  0  0  0  0  0  0  0  0  0  0  0
    0.6167   29.0587   34.4549 H   0  0  0  0  0  0  0  0  0  0  0  0
   -0.7302   27.8768   34.5809 H   0  0  0  0  0  0  0  0  0  0  0  0
   -0.4565   19.9423   45.8507 H   0  0  0  0  0  0  0  0  0  0  0  0
    3.6443   23.6931   33.1324 H   0  0  0  0  0  0  0  0  0  0  0  0
    2.8688   23.3053   36.5429 H   0  0  0  0  0  0  0  0  0  0  0  0
   -0.9918   21.8015   44.2241 H   0  0  0  0  0  0  0  0  0  0  0  0
    2.4840   18.4893   43.0342 H   0  0  0  0  0  0  0  0  0  0  0  0
    2.0954   19.2585   37.5195 H   0  0  0  0  0  0  0  0  0  0  0  0
    3.0205   20.8634   37.9650 H   0  0  0  0  0  0  0  0  0  0  0  0
    2.2327   18.3519   38.3082 H   0  0  0  0  0  0  0  0  0  0  0  0
    4.9527   21.5521   36.1732 H   0  0  0  0  0  0  0  0  0  0  0  0
    5.3037   22.1881   34.7969 H   0  0  0  0  0  0  0  0  0  0  0  0
  2 12  2  0
  3 27  1  0
  3 19  1  0
  4 17  1  0
  4  8  2  0
  6  9  1  0
  6  1  1  0
  7 20  1  0
  8  2  1  0
  9 26  1  0
 10 21  1  0
 11  7  1  0
 13 11  1  0
 17 24  2  0
 18  8  1  0
 18 15  1  0
 20 10  2  0
 20 22  1  0
 21 16  2  0
 22 23  2  0
 23 16  1  0
 23 14  1  0
 24 12  1  0
 24 19  1  0
 25 13  2  3
 26 13  1  0
 26  5  1  0
 27 19  1  0
  1 28  1  0
  1 29  1  0
  1 30  1  0
  2 31  1  0
  3 32  1  0
  3 33  1  0
  4 34  1  0
  5 35  1  0
  6 36  1  0
  6 37  1  0
  7 38  1  0
  7 39  1  0
  9 40  1  0
  9 41  1  0
 10 42  1  0
 11 43  1  0
 11 44  1  0
 12 45  1  0
 15 46  1  0
 15 47  1  0
 15 48  1  0
 16 49  1  0
 17 50  1  0
 19 51  1  0
 21 52  1  0
 22 53  1  0
 25 54  1  0
 25 55  1  0
 26 56  1  6
 27 57  1  0
 27 58  1  0
M  CHG  1  11   1
M  END
>  <mol_id>  (79) 
2026-09-18-6fnk-s0-n100-0080

>  <rmsd_to_ref>  (79) 


$$$$

     RDKit          3D

 67 69  0  0  0  0  0  0  0  0999 V2000
   -0.9907   17.1380   37.8331 O   0  0  0  0  0  0  0  0  0  0  0  0
    1.3212   25.1999   34.0338 C   0  0  0  0  0  0  0  0  0  0  0  0
    1.9426   19.4011   40.0435 C   0  0  0  0  0  0  0  0  0  0  0  0
    1.4245   26.7168   34.4843 C   0  0  0  0  0  0  0  0  0  0  0  0
    4.2475   21.3093   37.9839 C   0  0  0  0  0  0  0  0  0  0  0  0
   -2.4782   17.0965   37.5819 C   0  0  0  0  0  0  0  0  0  0  0  0
    0.5286   25.0355   32.8752 C   0  0  0  0  0  0  0  0  0  0  0  0
    3.6088   21.9287   35.5112 C   0  0  0  0  0  0  0  0  0  0  0  0
   -2.0644   16.6021   40.0131 C   0  0  0  0  0  0  0  0  0  0  0  0
   -0.6630   16.6907   39.2419 C   0  0  2  0  0  0  0  0  0  0  0  0
    0.4185   24.3584   34.2193 C   0  0  0  0  0  0  0  0  0  0  0  0
    0.8270   19.6414   40.7579 C   0  0  0  0  0  0  0  0  0  0  0  0
    0.9531   18.4387   41.7386 C   0  0  0  0  0  0  0  0  0  0  0  0
    0.6775   16.7979   39.7361 C   0  0  0  0  0  0  0  0  0  0  0  0
    2.2323   20.7476   39.3402 C   0  0  0  0  0  0  0  0  0  0  0  0
    2.8258   23.1386   35.5259 C   0  0  0  0  0  0  0  0  0  0  0  0
    2.6784   20.9123   37.9369 C   0  0  0  0  0  0  0  0  0  0  0  0
    1.0294   17.1416   41.1276 C   0  0  0  0  0  0  0  0  0  0  0  0
    4.5879   22.1566   36.7498 C   0  0  0  0  0  0  0  0  0  0  0  0
    0.9004   18.6932   43.2320 C   0  0  0  0  0  0  0  0  0  0  0  0
    0.6841   17.5915   44.0977 C   0  0  0  0  0  0  0  0  0  0  0  0
   -2.9350   17.4270   39.0936 C   0  0  0  0  0  0  0  0  0  0  0  0
    1.3529   22.7739   35.6185 C   0  0  0  0  0  0  0  0  0  0  0  0
    1.5159   21.9996   37.3147 C   0  0  0  0  0  0  0  0  0  0  0  0
    2.5721   25.8512   34.1333 C   0  0  0  0  0  0  0  0  0  0  0  0
    2.7759   19.1170   40.7031 H   0  0  0  0  0  0  0  0  0  0  0  0
    1.8205   18.5698   39.3336 H   0  0  0  0  0  0  0  0  0  0  0  0
    1.1037   27.5273   33.8135 H   0  0  0  0  0  0  0  0  0  0  0  0
    1.1068   27.3272   35.3425 H   0  0  0  0  0  0  0  0  0  0  0  0
    4.4540   21.8880   38.8964 H   0  0  0  0  0  0  0  0  0  0  0  0
    4.8611   20.3964   37.9877 H   0  0  0  0  0  0  0  0  0  0  0  0
   -2.8065   17.8633   36.8648 H   0  0  0  0  0  0  0  0  0  0  0  0
   -2.8788   16.1750   37.1343 H   0  0  0  0  0  0  0  0  0  0  0  0
   -0.1920   25.8039   32.5582 H   0  0  0  0  0  0  0  0  0  0  0  0
    0.6529   24.7630   31.8168 H   0  0  0  0  0  0  0  0  0  0  0  0
    4.1702   21.8266   34.5707 H   0  0  0  0  0  0  0  0  0  0  0  0
    3.0087   21.0095   35.5817 H   0  0  0  0  0  0  0  0  0  0  0  0
   -2.4217   15.5645   40.0887 H   0  0  0  0  0  0  0  0  0  0  0  0
   -2.0376   16.9514   41.0557 H   0  0  0  0  0  0  0  0  0  0  0  0
   -0.1958   15.7453   39.5546 H   0  0  0  0  0  0  0  0  0  0  0  0
    0.6746   23.2932   34.3186 H   0  0  0  0  0  0  0  0  0  0  0  0
   -0.3852   24.2376   34.9605 H   0  0  0  0  0  0  0  0  0  0  0  0
    0.8623   20.6106   41.2767 H   0  0  0  0  0  0  0  0  0  0  0  0
   -0.1116   19.7109   40.1886 H   0  0  0  0  0  0  0  0  0  0  0  0
    1.1420   15.8189   39.5466 H   0  0  0  0  0  0  0  0  0  0  0  0
    1.0173   17.7023   39.2103 H   0  0  0  0  0  0  0  0  0  0  0  0
    1.2967   21.3212   39.4160 H   0  0  0  0  0  0  0  0  0  0  0  0
    3.1506   21.0446   39.8680 H   0  0  0  0  0  0  0  0  0  0  0  0
    3.1094   23.7509   36.3946 H   0  0  0  0  0  0  0  0  0  0  0  0
    3.0096   23.7115   34.6050 H   0  0  0  0  0  0  0  0  0  0  0  0
    2.6920   20.0511   37.2526 H   0  0  0  0  0  0  0  0  0  0  0  0
    0.3919   16.4962   41.7499 H   0  0  0  0  0  0  0  0  0  0  0  0
    2.1226   17.0364   41.0670 H   0  0  0  0  0  0  0  0  0  0  0  0
    5.6109   21.9073   36.4315 H   0  0  0  0  0  0  0  0  0  0  0  0
    4.4798   23.2095   37.0491 H   0  0  0  0  0  0  0  0  0  0  0  0
    1.0271   19.7090   43.6346 H   0  0  0  0  0  0  0  0  0  0  0  0
    1.0151   17.8530   45.1136 H   0  0  0  0  0  0  0  0  0  0  0  0
   -0.3873   17.3428   44.1138 H   0  0  0  0  0  0  0  0  0  0  0  0
    1.2565   16.7241   43.7374 H   0  0  0  0  0  0  0  0  0  0  0  0
   -2.7967   18.4979   39.3036 H   0  0  0  0  0  0  0  0  0  0  0  0
   -3.9980   17.1864   39.2420 H   0  0  0  0  0  0  0  0  0  0  0  0
    0.6881   23.6502   35.6045 H   0  0  0  0  0  0  0  0  0  0  0  0
    0.9148   22.1696   34.8106 H   0  0  0  0  0  0  0  0  0  0  0  0
    1.5689   22.8620   37.9954 H   0  0  0  0  0  0  0  0  0  0  0  0
    0.6916   21.2779   37.2161 H   0  0  0  0  0  0  0  0  0  0  0  0
    3.2690   25.5449   34.9273 H   0  0  0  0  0  0  0  0  0  0  0  0
    3.3985   25.9753   33.4180 H   0  0  0  0  0  0  0  0  0  0  0  0
  1 10  1  0
  2 11  1  0
  2 25  1  0
  2  4  1  0
  3 12  1  0
  6  1  1  0
  6 22  1  0
  7  2  1  0
  7 11  1  0
  8 19  1  0
 10  9  1  0
 10 14  1  0
 12 13  1  0
 13 20  2  3
 14 18  1  0
 15  3  1  0
 16  8  1  0
 17  5  1  0
 17 15  1  0
 18 13  1  0
 19  5  1  0
 20 21  1  0
 22  9  1  0
 23 16  1  0
 23 24  1  0
 24 17  1  0
 25  4  1  0
  3 26  1  0
  3 27  1  0
  4 28  1  0
  4 29  1  0
  5 30  1  0
  5 31  1  0
  6 32  1  0
  6 33  1  0
  7 34  1  0
  7 35  1  0
  8 36  1  0
  8 37  1  0
  9 38  1  0
  9 39  1  0
 10 40  1  6
 11 41  1  0
 11 42  1  0
 12 43  1  0
 12 44  1  0
 14 45  1  0
 14 46  1  0
 15 47  1  0
 15 48  1  0
 16 49  1  0
 16 50  1  0
 17 51  1  0
 18 52  1  0
 18 53  1  0
 19 54  1  0
 19 55  1  0
 20 56  1  0
 21 57  1  0
 21 58  1  0
 21 59  1  0
 22 60  1  0
 22 61  1  0
 23 62  1  0
 23 63  1  0
 24 64  1  0
 24 65  1  0
 25 66  1  0
 25 67  1  0
M  END
>  <mol_id>  (80) 
2026-09-18-6fnk-s0-n100-0081

>  <rmsd_to_ref>  (80) 


$$$$

     RDKit          3D

 61 60  0  0  0  0  0  0  0  0999 V2000
   -1.4914   13.4184   39.8411 O   0  0  0  0  0  0  0  0  0  0  0  0
    0.8184   25.6571   35.3078 C   0  0  0  0  0  0  0  0  0  0  0  0
   -1.0262   12.8432   39.0107 C   0  0  0  0  0  0  0  0  0  0  0  0
    1.2399   24.3482   34.9311 C   0  0  0  0  0  0  0  0  0  0  0  0
    3.2421   21.6289   34.8062 Cl  0  0  0  0  0  0  0  0  0  0  0  0
   -0.6369   15.7612   37.9777 N   0  0  0  0  0  0  0  0  0  0  0  0
    0.4009   26.7995   34.4665 C   0  0  2  0  0  0  0  0  0  0  0  0
    2.9469   21.8064   37.4355 C   0  0  0  0  0  0  0  0  0  0  0  0
   -1.0406   28.8371   35.1657 C   0  0  0  0  0  0  0  0  0  0  0  0
    4.0413   22.4675   37.9688 C   0  0  0  0  0  0  0  0  0  0  0  0
   -0.3869   16.8261   37.0199 C   0  0  0  0  0  0  0  0  0  0  0  0
   -0.6733   12.4404   36.6274 N   0  0  0  0  0  0  0  0  0  0  0  0
    2.4376   22.2624   36.1265 C   0  0  1  0  0  0  0  0  0  0  0  0
    4.4789   20.2152   42.3370 C   0  0  0  0  0  0  0  0  0  0  0  0
   -0.9807   14.6122   37.4085 C   0  0  0  0  0  0  0  0  0  0  0  0
    4.5492   22.1435   39.1975 C   0  0  0  0  0  0  0  0  0  0  0  0
    3.0407   19.6942   42.3117 C   0  0  0  0  0  0  0  0  0  0  0  0
    2.3298   20.6644   38.1629 C   0  0  0  0  0  0  0  0  0  0  0  0
    4.0027   21.0373   40.0366 C   0  0  0  0  0  0  0  0  0  0  0  0
    2.8604   20.3252   39.4622 C   0  0  0  0  0  0  0  0  0  0  0  0
    0.7191   17.2794   36.8554 O   0  0  0  0  0  0  0  0  0  0  0  0
    1.6185   23.3153   35.8310 C   0  0  0  0  0  0  0  0  0  0  0  0
   -0.4684   13.3891   37.7300 C   0  0  1  0  0  0  0  0  0  0  0  0
    4.7347   21.1191   41.2150 O   0  0  0  0  0  0  0  0  0  0  0  0
    0.1863   26.4865   33.0076 C   0  0  0  0  0  0  0  0  0  0  0  0
   -1.5840   17.3007   36.3480 C   0  0  0  0  0  0  0  0  0  0  0  0
    0.3532   28.2033   34.8898 C   0  0  0  0  0  0  0  0  0  0  0  0
    0.8011   25.8464   36.3913 H   0  0  0  0  0  0  0  0  0  0  0  0
   -0.9687   11.7528   39.1434 H   0  0  0  0  0  0  0  0  0  0  0  0
    1.2749   24.1189   33.8558 H   0  0  0  0  0  0  0  0  0  0  0  0
   -0.5554   15.8860   38.9968 H   0  0  0  0  0  0  0  0  0  0  0  0
   -0.3577   26.9631   35.2460 H   0  0  0  0  0  0  0  0  0  0  0  0
   -1.1853   28.9464   36.2506 H   0  0  0  0  0  0  0  0  0  0  0  0
   -1.0949   29.8260   34.6870 H   0  0  0  0  0  0  0  0  0  0  0  0
   -1.8269   28.1869   34.7545 H   0  0  0  0  0  0  0  0  0  0  0  0
    4.5144   23.2740   37.3894 H   0  0  0  0  0  0  0  0  0  0  0  0
   -0.8319   11.4977   37.0106 H   0  0  0  0  0  0  0  0  0  0  0  0
   -1.4930   12.7287   36.0743 H   0  0  0  0  0  0  0  0  0  0  0  0
    0.1614   12.4298   36.0240 H   0  0  0  0  0  0  0  0  0  0  0  0
    1.5121   21.9251   36.6160 H   0  0  0  0  0  0  0  0  0  0  0  0
    4.6477   20.7566   43.2795 H   0  0  0  0  0  0  0  0  0  0  0  0
    5.1617   19.3567   42.2551 H   0  0  0  0  0  0  0  0  0  0  0  0
   -0.7717   14.7435   36.3365 H   0  0  0  0  0  0  0  0  0  0  0  0
   -2.0051   14.5023   37.7938 H   0  0  0  0  0  0  0  0  0  0  0  0
    5.3990   22.7251   39.5841 H   0  0  0  0  0  0  0  0  0  0  0  0
    2.6756   19.5752   43.3425 H   0  0  0  0  0  0  0  0  0  0  0  0
    2.4005   20.4108   41.7763 H   0  0  0  0  0  0  0  0  0  0  0  0
    3.0119   18.7219   41.7980 H   0  0  0  0  0  0  0  0  0  0  0  0
    1.4958   20.0965   37.7247 H   0  0  0  0  0  0  0  0  0  0  0  0
    2.3938   19.5105   40.0354 H   0  0  0  0  0  0  0  0  0  0  0  0
    1.7995   23.9279   36.7265 H   0  0  0  0  0  0  0  0  0  0  0  0
    0.9492   22.6251   35.2967 H   0  0  0  0  0  0  0  0  0  0  0  0
    0.6110   13.5272   37.8912 H   0  0  0  0  0  0  0  0  0  0  0  0
   -0.3739   25.5447   32.9133 H   0  0  0  0  0  0  0  0  0  0  0  0
   -0.3844   27.3013   32.5379 H   0  0  0  0  0  0  0  0  0  0  0  0
    1.1607   26.3853   32.5071 H   0  0  0  0  0  0  0  0  0  0  0  0
   -2.3158   17.6374   37.0971 H   0  0  0  0  0  0  0  0  0  0  0  0
   -1.3245   18.1398   35.6858 H   0  0  0  0  0  0  0  0  0  0  0  0
   -2.0183   16.4842   35.7524 H   0  0  0  0  0  0  0  0  0  0  0  0
    0.9390   28.2851   35.8173 H   0  0  0  0  0  0  0  0  0  0  0  0
    0.7432   28.7633   34.0270 H   0  0  0  0  0  0  0  0  0  0  0  0
  3  1  2  0
  4  2  2  3
  4 22  1  0
  7 25  1  0
  7 27  1  0
  7  2  1  0
  8 10  1  0
  8 18  2  0
 10 16  2  0
 11  6  1  0
 13  5  1  0
 13  8  1  0
 15 23  1  0
 15  6  1  0
 16 19  1  0
 17 14  1  0
 18 20  1  0
 19 24  1  0
 20 19  2  0
 21 11  2  0
 22 13  1  0
 23 12  1  0
 23  3  1  0
 24 14  1  0
 26 11  1  0
 27  9  1  0
  2 28  1  0
  3 29  1  0
  4 30  1  0
  6 31  1  0
  7 32  1  1
  9 33  1  0
  9 34  1  0
  9 35  1  0
 10 36  1  0
 12 37  1  0
 12 38  1  0
 12 39  1  0
 13 40  1  6
 14 41  1  0
 14 42  1  0
 15 43  1  0
 15 44  1  0
 16 45  1  0
 17 46  1  0
 17 47  1  0
 17 48  1  0
 18 49  1  0
 20 50  1  0
 22 51  1  0
 22 52  1  0
 23 53  1  1
 25 54  1  0
 25 55  1  0
 25 56  1  0
 26 57  1  0
 26 58  1  0
 26 59  1  0
 27 60  1  0
 27 61  1  0
M  CHG  1  12   1
M  END
>  <mol_id>  (81) 
2026-09-18-6fnk-s0-n100-0082

>  <rmsd_to_ref>  (81) 


$$$$

     RDKit          3D

 87 89  0  0  0  0  0  0  0  0999 V2000
    3.8837   13.2362   36.1641 C   0  0  0  0  0  0  0  0  0  0  0  0
    1.9361   23.1169   37.8268 C   0  0  2  0  0  0  0  0  0  0  0  0
    2.0511   24.4510   38.1471 O   0  0  0  0  0  0  0  0  0  0  0  0
    0.8457   23.5529   35.4771 C   0  0  0  0  0  0  0  0  0  0  0  0
    0.2234   16.4138   42.6982 C   0  0  0  0  0  0  0  0  0  0  0  0
   -1.2437   29.0637   33.8174 C   0  0  0  0  0  0  0  0  0  0  0  0
    3.6660   21.5991   39.0153 C   0  0  2  0  0  0  0  0  0  0  0  0
    3.7327   13.9084   37.4663 C   0  0  0  0  0  0  0  0  0  0  0  0
    0.2657   29.6724   35.1065 C   0  0  0  0  0  0  0  0  0  0  0  0
    0.2976   16.0608   38.9213 C   0  0  0  0  0  0  0  0  0  0  0  0
    0.6132   16.1865   41.3302 C   0  0  0  0  0  0  0  0  0  0  0  0
    4.9659   22.2561   38.8883 C   0  0  0  0  0  0  0  0  0  0  0  0
    0.8027   22.8538   41.0763 C   0  0  0  0  0  0  0  0  0  0  0  0
    1.6442   24.8728   35.0536 C   0  0  0  0  0  0  0  0  0  0  0  0
    2.5254   16.2553   39.8227 C   0  0  0  0  0  0  0  0  0  0  0  0
    2.2617   15.9034   37.3415 C   0  0  0  0  0  0  0  0  0  0  0  0
    3.3886   15.3080   37.0996 N   0  0  0  0  0  0  0  0  0  0  0  0
   -0.2773   15.7525   43.7030 C   0  0  0  0  0  0  0  0  0  0  0  0
    0.1057   28.5058   34.1970 C   0  0  0  0  0  0  0  0  0  0  0  0
    0.2025   26.0981   33.0325 C   0  0  0  0  0  0  0  0  0  0  0  0
    1.2082   22.7806   36.5726 C   0  0  0  0  0  0  0  0  0  0  0  0
    5.1380   13.8551   35.3461 C   0  0  0  0  0  0  0  0  0  0  0  0
    0.7458   22.6428   42.6041 C   0  0  0  0  0  0  0  0  0  0  0  0
    2.0037   16.2713   41.1335 C   0  0  0  0  0  0  0  0  0  0  0  0
   -1.1386   29.8082   34.8503 C   0  0  0  0  0  0  0  0  0  0  0  0
    5.7948   14.8521   35.4939 N   0  0  0  0  0  0  0  0  0  0  0  0
    2.4083   22.2987   38.9484 C   0  0  2  0  0  0  0  0  0  0  0  0
    5.5279   13.8416   33.1682 C   0  0  0  0  0  0  0  0  0  0  0  0
    2.3437   20.8954   40.5671 C   0  0  0  0  0  0  0  0  0  0  0  0
    5.3007   12.8778   34.4091 O   0  0  0  0  0  0  0  0  0  0  0  0
    0.6663   25.6514   34.4685 C   0  0  2  0  0  0  0  0  0  0  0  0
   -0.2485   16.0495   40.2040 C   0  0  0  0  0  0  0  0  0  0  0  0
    1.6777   16.1769   38.7102 C   0  0  0  0  0  0  0  0  0  0  0  0
    1.7871   22.1022   40.2337 C   0  0  1  0  0  0  0  0  0  0  0  0
    0.3317   27.1435   34.6249 C   0  0  1  0  0  0  0  0  0  0  0  0
    3.4635   20.5990   39.8760 O   0  0  0  0  0  0  0  0  0  0  0  0
    4.0542   12.1621   36.3293 H   0  0  0  0  0  0  0  0  0  0  0  0
    2.9663   13.3896   35.5769 H   0  0  0  0  0  0  0  0  0  0  0  0
    2.2954   22.3198   37.1594 H   0  0  0  0  0  0  0  0  0  0  0  0
    2.0640   24.5540   39.1317 H   0  0  0  0  0  0  0  0  0  0  0  0
    0.8802   22.8823   34.6058 H   0  0  0  0  0  0  0  0  0  0  0  0
   -0.1192   23.9681   35.8034 H   0  0  0  0  0  0  0  0  0  0  0  0
    0.4026   17.4620   42.9794 H   0  0  0  0  0  0  0  0  0  0  0  0
   -1.2684   29.6030   32.8590 H   0  0  0  0  0  0  0  0  0  0  0  0
   -2.1181   28.4193   33.6444 H   0  0  0  0  0  0  0  0  0  0  0  0
    3.9320   21.2348   38.0121 H   0  0  0  0  0  0  0  0  0  0  0  0
    2.9263   13.4472   38.0552 H   0  0  0  0  0  0  0  0  0  0  0  0
    4.6362   13.8399   38.0899 H   0  0  0  0  0  0  0  0  0  0  0  0
    0.5432   29.4368   36.1446 H   0  0  0  0  0  0  0  0  0  0  0  0
    1.0062   30.4743   34.9702 H   0  0  0  0  0  0  0  0  0  0  0  0
   -0.3722   15.9766   38.0528 H   0  0  0  0  0  0  0  0  0  0  0  0
    5.3157   22.5722   39.8822 H   0  0  0  0  0  0  0  0  0  0  0  0
    5.6906   21.5537   38.4508 H   0  0  0  0  0  0  0  0  0  0  0  0
    4.8694   23.1368   38.2363 H   0  0  0  0  0  0  0  0  0  0  0  0
   -0.1962   22.6057   40.6880 H   0  0  0  0  0  0  0  0  0  0  0  0
    1.1491   23.8940   40.9866 H   0  0  0  0  0  0  0  0  0  0  0  0
    2.0750   25.3737   35.9331 H   0  0  0  0  0  0  0  0  0  0  0  0
    2.4948   24.6701   34.3862 H   0  0  0  0  0  0  0  0  0  0  0  0
    3.6139   16.3050   39.6722 H   0  0  0  0  0  0  0  0  0  0  0  0
    1.5012   15.3059   36.8174 H   0  0  0  0  0  0  0  0  0  0  0  0
    2.5221   16.9287   37.0399 H   0  0  0  0  0  0  0  0  0  0  0  0
    4.1054   15.8907   37.5551 H   0  0  0  0  0  0  0  0  0  0  0  0
    3.3201   15.2103   36.0765 H   0  0  0  0  0  0  0  0  0  0  0  0
   -0.4594   16.2620   44.6607 H   0  0  0  0  0  0  0  0  0  0  0  0
   -0.5178   14.6848   43.5935 H   0  0  0  0  0  0  0  0  0  0  0  0
    0.8485   28.2567   33.4248 H   0  0  0  0  0  0  0  0  0  0  0  0
    0.9226   26.2171   32.2094 H   0  0  0  0  0  0  0  0  0  0  0  0
   -0.5570   25.8204   32.2869 H   0  0  0  0  0  0  0  0  0  0  0  0
    0.2514   22.3720   36.9297 H   0  0  0  0  0  0  0  0  0  0  0  0
    2.0381   22.2496   36.0835 H   0  0  0  0  0  0  0  0  0  0  0  0
    0.9225   23.6016   43.1134 H   0  0  0  0  0  0  0  0  0  0  0  0
   -0.2451   22.2559   42.8842 H   0  0  0  0  0  0  0  0  0  0  0  0
    1.5195   21.9205   42.9036 H   0  0  0  0  0  0  0  0  0  0  0  0
    2.6804   16.3498   41.9970 H   0  0  0  0  0  0  0  0  0  0  0  0
   -1.4161   30.8503   34.6336 H   0  0  0  0  0  0  0  0  0  0  0  0
   -1.7937   29.5340   35.6903 H   0  0  0  0  0  0  0  0  0  0  0  0
    6.5662   15.0616   34.8443 H   0  0  0  0  0  0  0  0  0  0  0  0
    2.8778   23.1860   39.3980 H   0  0  0  0  0  0  0  0  0  0  0  0
    5.7429   14.8585   33.5283 H   0  0  0  0  0  0  0  0  0  0  0  0
    6.3768   13.4769   32.5712 H   0  0  0  0  0  0  0  0  0  0  0  0
    4.6214   13.8572   32.5453 H   0  0  0  0  0  0  0  0  0  0  0  0
    2.5928   20.9132   41.6384 H   0  0  0  0  0  0  0  0  0  0  0  0
    1.6017   20.1226   40.3181 H   0  0  0  0  0  0  0  0  0  0  0  0
    0.4015   24.7198   34.9902 H   0  0  0  0  0  0  0  0  0  0  0  0
   -1.3335   15.9359   40.3451 H   0  0  0  0  0  0  0  0  0  0  0  0
    0.9483   21.5814   39.7487 H   0  0  0  0  0  0  0  0  0  0  0  0
    0.3367   27.6094   35.6213 H   0  0  0  0  0  0  0  0  0  0  0  0
  1  8  1  0
  2  3  1  0
  4 21  1  0
  5 18  2  3
  6 19  1  0
  6 25  1  0
  7 12  1  0
  7 27  1  0
  7 36  1  0
 10 32  1  0
 11  5  1  0
 13 23  1  0
 14  4  1  0
 15 24  2  0
 16 33  1  0
 17  8  1  0
 17 16  1  0
 19  9  1  0
 20 31  1  0
 20 35  1  0
 21  2  1  0
 22 26  2  3
 22  1  1  0
 24 11  1  0
 25  9  1  0
 27  2  1  0
 27 34  1  0
 28 30  1  0
 30 22  1  0
 31 35  1  0
 31 14  1  0
 32 11  2  0
 33 10  2  0
 33 15  1  0
 34 29  1  0
 34 13  1  0
 35 19  1  0
 36 29  1  0
  1 37  1  0
  1 38  1  0
  2 39  1  6
  3 40  1  0
  4 41  1  0
  4 42  1  0
  5 43  1  0
  6 44  1  0
  6 45  1  0
  7 46  1  6
  8 47  1  0
  8 48  1  0
  9 49  1  0
  9 50  1  0
 10 51  1  0
 12 52  1  0
 12 53  1  0
 12 54  1  0
 13 55  1  0
 13 56  1  0
 14 57  1  0
 14 58  1  0
 15 59  1  0
 16 60  1  0
 16 61  1  0
 17 62  1  0
 17 63  1  0
 18 64  1  0
 18 65  1  0
 19 66  1  0
 20 67  1  0
 20 68  1  0
 21 69  1  0
 21 70  1  0
 23 71  1  0
 23 72  1  0
 23 73  1  0
 24 74  1  0
 25 75  1  0
 25 76  1  0
 26 77  1  0
 27 78  1  6
 28 79  1  0
 28 80  1  0
 28 81  1  0
 29 82  1  0
 29 83  1  0
 31 84  1  1
 32 85  1  0
 34 86  1  6
 35 87  1  1
M  CHG  1  17   1
M  END
>  <mol_id>  (82) 
2026-09-18-6fnk-s0-n100-0083

>  <rmsd_to_ref>  (82) 


$$$$

     RDKit          3D

 69 69  0  0  0  0  0  0  0  0999 V2000
    2.3158   21.1471   36.5898 C   0  0  0  0  0  0  0  0  0  0  0  0
    2.6805   21.2900   37.9485 C   0  0  0  0  0  0  0  0  0  0  0  0
    1.9994   21.3418   39.1835 C   0  0  0  0  0  0  0  0  0  0  0  0
    5.5156   25.5074   33.4302 C   0  0  0  0  0  0  0  0  0  0  0  0
    2.1174   20.1218   40.0671 N   0  0  0  0  0  0  0  0  0  0  0  0
    3.6457   19.3536   41.8139 C   0  0  0  0  0  0  0  0  0  0  0  0
   -1.0230   15.2436   38.3874 N   0  0  0  0  0  0  0  0  0  0  0  0
    2.8001   14.3500   36.2923 O   0  0  0  0  0  0  0  0  0  0  0  0
    1.8081   14.3933   37.7925 P   0  0  0  0  0  0  0  0  0  0  0  0
    2.5365   24.7080   32.5244 S   0  0  0  0  0  0  0  0  0  0  0  0
    2.1203   18.8468   39.4889 C   0  0  0  0  0  0  0  0  0  0  0  0
    1.3136   19.2506   43.5735 C   0  0  0  0  0  0  0  0  0  0  0  0
    0.4756   19.4179   44.6463 C   0  0  0  0  0  0  0  0  0  0  0  0
    4.3335   24.7501   33.0515 C   0  0  0  0  0  0  0  0  0  0  0  0
    3.4875   23.8011   33.3516 C   0  0  1  0  0  0  0  0  0  0  0  0
    0.9354   13.2065   37.4674 O   0  0  0  0  0  0  0  0  0  0  0  0
    1.6724   24.4244   35.6755 O   0  0  0  0  0  0  0  0  0  0  0  0
   -0.4396   21.4200   43.8059 C   0  0  0  0  0  0  0  0  0  0  0  0
    1.2749   16.6601   36.2580 C   0  0  0  0  0  0  0  0  0  0  0  0
    2.4233   16.9811   37.0635 C   0  0  0  0  0  0  0  0  0  0  0  0
   -0.5973   15.6730   37.1903 C   0  0  0  0  0  0  0  0  0  0  0  0
    2.1697   23.2955   35.3825 C   0  0  0  0  0  0  0  0  0  0  0  0
    3.1773   23.1546   34.4119 N   0  0  0  0  0  0  0  0  0  0  0  0
   -1.2203   22.5683   44.0055 N   0  0  0  0  0  0  0  0  0  0  0  0
    2.3934   20.1221   41.4190 C   0  0  2  0  0  0  0  0  0  0  0  0
    0.4711   21.3125   42.6293 C   0  0  0  0  0  0  0  0  0  0  0  0
    1.8837   22.2179   36.0408 N   0  0  0  0  0  0  0  0  0  0  0  0
    1.3918   20.2227   42.5405 C   0  0  0  0  0  0  0  0  0  0  0  0
   -0.4339   20.4809   44.8149 C   0  0  0  0  0  0  0  0  0  0  0  0
    0.9748   15.9845   37.5012 C   0  0  0  0  0  0  0  0  0  0  0  0
    3.2001   20.8072   36.0307 H   0  0  0  0  0  0  0  0  0  0  0  0
    1.4860   20.4254   36.5631 H   0  0  0  0  0  0  0  0  0  0  0  0
    3.3779   20.4523   38.0967 H   0  0  0  0  0  0  0  0  0  0  0  0
    2.8210   22.3791   37.8840 H   0  0  0  0  0  0  0  0  0  0  0  0
    2.3913   22.2018   39.7462 H   0  0  0  0  0  0  0  0  0  0  0  0
    0.9324   21.4141   38.9261 H   0  0  0  0  0  0  0  0  0  0  0  0
    5.6182   25.5035   34.5254 H   0  0  0  0  0  0  0  0  0  0  0  0
    6.4062   25.0478   32.9769 H   0  0  0  0  0  0  0  0  0  0  0  0
    5.4166   26.5436   33.0748 H   0  0  0  0  0  0  0  0  0  0  0  0
    3.7219   19.3154   42.9106 H   0  0  0  0  0  0  0  0  0  0  0  0
    3.5892   18.3303   41.4145 H   0  0  0  0  0  0  0  0  0  0  0  0
    4.5314   19.8595   41.4022 H   0  0  0  0  0  0  0  0  0  0  0  0
   -0.4391   15.6574   39.1281 H   0  0  0  0  0  0  0  0  0  0  0  0
   -2.0037   15.5268   38.5249 H   0  0  0  0  0  0  0  0  0  0  0  0
   -0.9532   14.2168   38.4285 H   0  0  0  0  0  0  0  0  0  0  0  0
    3.7573   14.2695   36.5319 H   0  0  0  0  0  0  0  0  0  0  0  0
    1.7807   25.4723   33.3738 H   0  0  0  0  0  0  0  0  0  0  0  0
    2.1865   18.0855   40.2802 H   0  0  0  0  0  0  0  0  0  0  0  0
    1.1920   18.7015   38.9169 H   0  0  0  0  0  0  0  0  0  0  0  0
    2.9848   18.7518   38.8152 H   0  0  0  0  0  0  0  0  0  0  0  0
    1.9371   18.3464   43.5117 H   0  0  0  0  0  0  0  0  0  0  0  0
    0.5170   18.6590   45.4415 H   0  0  0  0  0  0  0  0  0  0  0  0
    4.6637   24.3876   32.0668 H   0  0  0  0  0  0  0  0  0  0  0  0
    3.7065   25.4709   33.5968 H   0  0  0  0  0  0  0  0  0  0  0  0
    3.7605   22.7391   33.2649 H   0  0  0  0  0  0  0  0  0  0  0  0
    0.6737   12.7497   38.3059 H   0  0  0  0  0  0  0  0  0  0  0  0
    0.6175   17.4968   35.9790 H   0  0  0  0  0  0  0  0  0  0  0  0
    1.2810   16.2146   35.2523 H   0  0  0  0  0  0  0  0  0  0  0  0
    3.4024   16.5163   36.8756 H   0  0  0  0  0  0  0  0  0  0  0  0
    2.9516   17.8741   37.4288 H   0  0  0  0  0  0  0  0  0  0  0  0
   -1.1326   16.5806   36.8746 H   0  0  0  0  0  0  0  0  0  0  0  0
   -0.7607   14.9572   36.3712 H   0  0  0  0  0  0  0  0  0  0  0  0
    3.8026   22.3566   34.5939 H   0  0  0  0  0  0  0  0  0  0  0  0
   -1.2568   23.2987   43.2802 H   0  0  0  0  0  0  0  0  0  0  0  0
   -1.7569   22.6810   44.8775 H   0  0  0  0  0  0  0  0  0  0  0  0
    2.4973   21.2156   41.3593 H   0  0  0  0  0  0  0  0  0  0  0  0
    0.4343   22.0698   41.8324 H   0  0  0  0  0  0  0  0  0  0  0  0
    0.8639   22.2273   36.1849 H   0  0  0  0  0  0  0  0  0  0  0  0
   -1.0939   20.5562   45.6916 H   0  0  0  0  0  0  0  0  0  0  0  0
  1  2  1  0
  2  3  1  0
  3  5  1  0
  5 25  1  0
  8  9  1  0
 11  5  1  0
 12 13  1  0
 13 29  2  0
 14 15  1  0
 14  4  1  0
 15 10  1  0
 15 23  1  0
 16  9  1  0
 18 24  1  0
 18 29  1  0
 19 20  1  0
 19 30  1  0
 20 30  1  0
 21 30  1  0
 21  7  1  0
 22 17  2  0
 22 27  1  0
 23 22  1  0
 25  6  1  0
 25 28  1  0
 26 18  2  0
 27  1  1  0
 28 26  1  0
 28 12  2  0
 30  9  1  0
  1 31  1  0
  1 32  1  0
  2 33  1  0
  2 34  1  0
  3 35  1  0
  3 36  1  0
  4 37  1  0
  4 38  1  0
  4 39  1  0
  6 40  1  0
  6 41  1  0
  6 42  1  0
  7 43  1  0
  7 44  1  0
  7 45  1  0
  8 46  1  0
 10 47  1  0
 11 48  1  0
 11 49  1  0
 11 50  1  0
 12 51  1  0
 13 52  1  0
 14 53  1  0
 14 54  1  0
 15 55  1  6
 16 56  1  0
 19 57  1  0
 19 58  1  0
 20 59  1  0
 20 60  1  0
 21 61  1  0
 21 62  1  0
 23 63  1  0
 24 64  1  0
 24 65  1  0
 25 66  1  6
 26 67  1  0
 27 68  1  0
 29 69  1  0
M  CHG  1   7   1
M  END
>  <mol_id>  (83) 
2026-09-18-6fnk-s0-n100-0084

>  <rmsd_to_ref>  (83) 


$$$$

     RDKit          3D

 59 62  0  0  0  0  0  0  0  0999 V2000
   -0.8388   16.1717   40.2103 C   0  0  0  0  0  0  0  0  0  0  0  0
    1.3949   19.2442   40.8052 N   0  0  0  0  0  0  0  0  0  0  0  0
    0.8916   26.3058   33.2935 C   0  0  0  0  0  0  0  0  0  0  0  0
    1.9234   19.7323   39.5633 C   0  0  0  0  0  0  0  0  0  0  0  0
    2.5482   19.2134   43.3122 O   0  0  0  0  0  0  0  0  0  0  0  0
    1.0485   17.9228   41.3093 C   0  0  0  0  0  0  0  0  0  0  0  0
    0.3017   23.9432   34.9123 C   0  0  0  0  0  0  0  0  0  0  0  0
    2.0846   25.2620   33.5490 C   0  0  0  0  0  0  0  0  0  0  0  0
    0.5620   14.3973   38.8717 C   0  0  0  0  0  0  0  0  0  0  0  0
    0.5556   19.0382   44.5967 O   0  0  0  0  0  0  0  0  0  0  0  0
   -0.5022   25.9022   33.5398 C   0  0  0  0  0  0  0  0  0  0  0  0
    1.3316   15.0395   39.8388 N   0  0  0  0  0  0  0  0  0  0  0  0
    1.5200   24.1723   34.5355 C   0  0  0  0  0  0  0  0  0  0  0  0
    1.9181   21.5257   37.1592 C   0  0  0  0  0  0  0  0  0  0  0  0
    2.2118   22.0861   38.5400 C   0  0  0  0  0  0  0  0  0  0  0  0
    2.7547   23.2518   35.3086 S   0  0  0  0  0  0  0  0  0  0  0  0
    1.7050   20.3020   43.0072 C   0  0  2  0  0  0  0  0  0  0  0  0
    0.4375   20.1209   43.7343 C   0  0  0  0  0  0  0  0  0  0  0  0
    0.4053   17.1106   40.1679 C   0  0  1  0  0  0  0  0  0  0  0  0
   -0.8147   15.5136   38.8548 C   0  0  0  0  0  0  0  0  0  0  0  0
    0.2924   22.8971   35.8300 N   0  0  0  0  0  0  0  0  0  0  0  0
    1.2044   21.5548   40.8125 N   0  0  0  0  0  0  0  0  0  0  0  0
    1.3082   20.4516   41.5950 C   0  0  1  0  0  0  0  0  0  0  0  0
    1.4741   22.4319   36.1464 C   0  0  0  0  0  0  0  0  0  0  0  0
    1.4929   16.4250   39.4137 C   0  0  0  0  0  0  0  0  0  0  0  0
   -0.9350   24.7271   34.4748 C   0  0  0  0  0  0  0  0  0  0  0  0
    1.8216   21.1773   39.6311 C   0  0  1  0  0  0  0  0  0  0  0  0
   -0.7437   15.4260   41.0134 H   0  0  0  0  0  0  0  0  0  0  0  0
   -1.7779   16.7063   40.4156 H   0  0  0  0  0  0  0  0  0  0  0  0
    1.1157   27.3213   32.9347 H   0  0  0  0  0  0  0  0  0  0  0  0
    1.3346   19.3461   38.7183 H   0  0  0  0  0  0  0  0  0  0  0  0
    2.9628   19.4066   39.4098 H   0  0  0  0  0  0  0  0  0  0  0  0
    2.6122   19.1108   44.2947 H   0  0  0  0  0  0  0  0  0  0  0  0
    1.9564   17.4113   41.6613 H   0  0  0  0  0  0  0  0  0  0  0  0
    0.3422   18.0150   42.1476 H   0  0  0  0  0  0  0  0  0  0  0  0
    3.0966   25.3006   33.1197 H   0  0  0  0  0  0  0  0  0  0  0  0
    0.2700   13.3826   39.1800 H   0  0  0  0  0  0  0  0  0  0  0  0
    1.0539   14.2281   37.9025 H   0  0  0  0  0  0  0  0  0  0  0  0
    0.4378   19.3457   45.5304 H   0  0  0  0  0  0  0  0  0  0  0  0
   -1.2957   26.4679   33.0296 H   0  0  0  0  0  0  0  0  0  0  0  0
    0.8538   15.0037   40.7506 H   0  0  0  0  0  0  0  0  0  0  0  0
    2.2478   14.5799   39.9407 H   0  0  0  0  0  0  0  0  0  0  0  0
    2.8428   21.0549   36.7941 H   0  0  0  0  0  0  0  0  0  0  0  0
    1.0654   20.8483   37.3139 H   0  0  0  0  0  0  0  0  0  0  0  0
    3.2919   22.2798   38.6159 H   0  0  0  0  0  0  0  0  0  0  0  0
    1.6178   23.0051   38.6524 H   0  0  0  0  0  0  0  0  0  0  0  0
    2.2980   21.1863   43.2834 H   0  0  0  0  0  0  0  0  0  0  0  0
    0.2124   21.0291   44.3127 H   0  0  0  0  0  0  0  0  0  0  0  0
   -0.3760   19.9352   43.0176 H   0  0  0  0  0  0  0  0  0  0  0  0
   -0.1507   17.9634   39.7510 H   0  0  0  0  0  0  0  0  0  0  0  0
   -0.6833   16.2693   38.0663 H   0  0  0  0  0  0  0  0  0  0  0  0
   -1.7571   14.9849   38.6489 H   0  0  0  0  0  0  0  0  0  0  0  0
    0.2170   21.7984   40.6498 H   0  0  0  0  0  0  0  0  0  0  0  0
    1.6332   22.3888   41.2386 H   0  0  0  0  0  0  0  0  0  0  0  0
    0.4565   20.8681   42.1528 H   0  0  0  0  0  0  0  0  0  0  0  0
    2.4818   16.8164   39.6944 H   0  0  0  0  0  0  0  0  0  0  0  0
    1.4321   16.5640   38.3241 H   0  0  0  0  0  0  0  0  0  0  0  0
   -1.9695   24.4996   34.7719 H   0  0  0  0  0  0  0  0  0  0  0  0
    2.8415   21.2300   40.0397 H   0  0  0  0  0  0  0  0  0  0  0  0
  2  6  1  0
  2 23  1  0
  3  8  1  0
  3 11  2  0
  4 27  1  0
  4  2  1  0
  7 21  1  0
  8 13  2  0
  9 20  1  0
  9 12  1  0
 11 26  1  0
 13  7  1  0
 13 16  1  0
 14 15  1  0
 16 24  1  0
 17  5  1  0
 17 18  1  0
 18 10  1  0
 19  1  1  0
 19  6  1  0
 20  1  1  0
 21 24  2  0
 22 23  1  0
 23 17  1  0
 24 14  1  0
 25 12  1  0
 25 19  1  0
 26  7  2  0
 27 15  1  0
 27 22  1  0
  1 28  1  0
  1 29  1  0
  3 30  1  0
  4 31  1  0
  4 32  1  0
  5 33  1  0
  6 34  1  0
  6 35  1  0
  8 36  1  0
  9 37  1  0
  9 38  1  0
 10 39  1  0
 11 40  1  0
 12 41  1  0
 12 42  1  0
 14 43  1  0
 14 44  1  0
 15 45  1  0
 15 46  1  0
 17 47  1  1
 18 48  1  0
 18 49  1  0
 19 50  1  6
 20 51  1  0
 20 52  1  0
 22 53  1  0
 22 54  1  0
 23 55  1  1
 25 56  1  0
 25 57  1  0
 26 58  1  0
 27 59  1  1
M  CHG  2  12   1  22   1
M  END
>  <mol_id>  (84) 
2026-09-18-6fnk-s0-n100-0085

>  <rmsd_to_ref>  (84) 


$$$$

     RDKit          3D

 55 58  0  0  0  0  0  0  0  0999 V2000
    1.5301   22.6534   36.5257 C   0  0  2  0  0  0  0  0  0  0  0  0
   -0.6078   15.8795   38.9213 C   0  0  0  0  0  0  0  0  0  0  0  0
    1.1828   19.7303   40.8914 C   0  0  0  0  0  0  0  0  0  0  0  0
    1.5053   16.5125   38.1906 C   0  0  0  0  0  0  0  0  0  0  0  0
    1.6328   18.4329   41.4368 C   0  0  1  0  0  0  0  0  0  0  0  0
    2.2951   15.6989   37.6698 O   0  0  0  0  0  0  0  0  0  0  0  0
    1.6154   18.1626   42.8435 C   0  0  0  0  0  0  0  0  0  0  0  0
    2.7942   22.2498   35.5084 N   0  0  0  0  0  0  0  0  0  0  0  0
    2.9240   23.4311   34.6877 O   0  0  0  0  0  0  0  0  0  0  0  0
    0.1462   18.7271   43.1793 O   0  0  0  0  0  0  0  0  0  0  0  0
    0.1068   16.3001   37.8218 O   0  0  0  0  0  0  0  0  0  0  0  0
    0.2486   26.3413   33.5570 S   0  0  2  0  0  4  0  0  0  0  0  0
    1.6049   24.2148   35.3860 C   0  0  1  0  0  0  0  0  0  0  0  0
    2.5389   21.9679   37.1185 C   0  0  1  0  0  0  0  0  0  0  0  0
   -0.1883   16.5873   40.2890 C   0  0  2  0  0  0  0  0  0  0  0  0
   -1.0686   16.4138   41.3840 F   0  0  0  0  0  0  0  0  0  0  0  0
    1.9706   24.3103   34.0566 C   0  0  1  0  0  0  0  0  0  0  0  0
    0.7209   25.2958   35.7806 C   0  0  0  0  0  0  0  0  0  0  0  0
    1.7413   17.3861   39.2748 N   0  0  0  0  0  0  0  0  0  0  0  0
    1.0047   17.3787   40.4003 C   0  0  0  0  0  0  0  0  0  0  0  0
   -0.0307   27.8674   33.5120 C   0  0  0  0  0  0  0  0  0  0  0  0
    2.2555   20.9498   40.7933 C   0  0  0  0  0  0  0  0  0  0  0  0
    0.2748   26.2106   35.1408 C   0  0  0  0  0  0  0  0  0  0  0  0
    3.0146   22.3529   38.5940 C   0  0  0  0  0  0  0  0  0  0  0  0
    1.8740   21.9320   39.7049 C   0  0  0  0  0  0  0  0  0  0  0  0
    1.7161   25.5892   33.4368 C   0  0  0  0  0  0  0  0  0  0  0  0
    0.5446   22.6148   37.0128 H   0  0  0  0  0  0  0  0  0  0  0  0
   -0.4587   14.7956   39.0347 H   0  0  0  0  0  0  0  0  0  0  0  0
   -1.6578   16.1501   38.7363 H   0  0  0  0  0  0  0  0  0  0  0  0
    0.8119   19.5424   39.8730 H   0  0  0  0  0  0  0  0  0  0  0  0
    0.4407   20.0848   41.6220 H   0  0  0  0  0  0  0  0  0  0  0  0
    2.7304   18.3816   41.4872 H   0  0  0  0  0  0  0  0  0  0  0  0
    1.7055   17.0878   43.0598 H   0  0  0  0  0  0  0  0  0  0  0  0
    2.4396   18.6029   43.4240 H   0  0  0  0  0  0  0  0  0  0  0  0
    0.0623   18.8691   44.1554 H   0  0  0  0  0  0  0  0  0  0  0  0
   -0.5549   25.8463   32.5640 H   0  0  0  0  0  0  0  0  0  0  0  0
    2.6685   24.1956   35.6659 H   0  0  0  0  0  0  0  0  0  0  0  0
    2.8364   21.0325   37.6149 H   0  0  0  0  0  0  0  0  0  0  0  0
    0.3793   15.6907   40.5788 H   0  0  0  0  0  0  0  0  0  0  0  0
    1.7324   24.0861   33.0063 H   0  0  0  0  0  0  0  0  0  0  0  0
   -0.1710   24.7823   36.1688 H   0  0  0  0  0  0  0  0  0  0  0  0
    1.4558   25.8743   36.3595 H   0  0  0  0  0  0  0  0  0  0  0  0
   -0.1989   28.2396   34.5333 H   0  0  0  0  0  0  0  0  0  0  0  0
    0.8335   28.3854   33.0706 H   0  0  0  0  0  0  0  0  0  0  0  0
   -0.9245   28.0587   32.9001 H   0  0  0  0  0  0  0  0  0  0  0  0
    2.2868   21.4780   41.7578 H   0  0  0  0  0  0  0  0  0  0  0  0
    3.2411   20.5267   40.5494 H   0  0  0  0  0  0  0  0  0  0  0  0
    0.8246   27.0968   35.4902 H   0  0  0  0  0  0  0  0  0  0  0  0
   -0.7980   26.0511   35.3247 H   0  0  0  0  0  0  0  0  0  0  0  0
    3.9516   21.8230   38.8206 H   0  0  0  0  0  0  0  0  0  0  0  0
    3.1688   23.4410   38.6421 H   0  0  0  0  0  0  0  0  0  0  0  0
    1.5472   22.8573   40.2019 H   0  0  0  0  0  0  0  0  0  0  0  0
    1.1087   21.4020   39.1188 H   0  0  0  0  0  0  0  0  0  0  0  0
    2.4558   26.2875   33.8554 H   0  0  0  0  0  0  0  0  0  0  0  0
    1.7631   25.3417   32.3660 H   0  0  0  0  0  0  0  0  0  0  0  0
  1 14  1  0
  2 15  1  0
  3  5  1  0
  4 19  1  0
  5  7  1  0
  6  4  2  0
  7 10  1  0
  8  1  1  0
  8 14  1  0
  9  8  1  0
 11  4  1  0
 11  2  1  0
 12 21  1  0
 12 23  1  0
 13 18  1  0
 13  1  1  0
 14 24  1  0
 15 20  1  0
 15 16  1  0
 17  9  1  0
 17 13  1  0
 19 20  2  0
 20  5  1  0
 22  3  1  0
 23 18  1  0
 24 25  1  0
 25 22  1  0
 26 17  1  0
 26 12  1  0
  1 27  1  6
  2 28  1  0
  2 29  1  0
  3 30  1  0
  3 31  1  0
  5 32  1  6
  7 33  1  0
  7 34  1  0
 10 35  1  0
 12 36  1  6
 13 37  1  1
 14 38  1  6
 15 39  1  1
 17 40  1  6
 18 41  1  0
 18 42  1  0
 21 43  1  0
 21 44  1  0
 21 45  1  0
 22 46  1  0
 22 47  1  0
 23 48  1  0
 23 49  1  0
 24 50  1  0
 24 51  1  0
 25 52  1  0
 25 53  1  0
 26 54  1  0
 26 55  1  0
M  END
>  <mol_id>  (85) 
2026-09-18-6fnk-s0-n100-0086

>  <rmsd_to_ref>  (85) 


$$$$

     RDKit          3D

 64 68  0  0  0  0  0  0  0  0999 V2000
    1.3656   14.7956   37.9437 C   0  0  0  0  0  0  0  0  0  0  0  0
    1.9152   16.6727   39.5239 C   0  0  0  0  0  0  0  0  0  0  0  0
    2.9135   22.0877   37.0490 C   0  0  2  0  0  0  0  0  0  0  0  0
   -0.0159   26.0858   34.3508 C   0  0  1  0  0  0  0  0  0  0  0  0
    0.4814   12.6099   40.7007 C   0  0  0  0  0  0  0  0  0  0  0  0
    1.5292   26.7881   32.6207 C   0  0  0  0  0  0  0  0  0  0  0  0
    2.5884   13.9128   41.4719 C   0  0  0  0  0  0  0  0  0  0  0  0
    0.6942   11.2242   39.9836 C   0  0  0  0  0  0  0  0  0  0  0  0
    2.9255   20.2283   38.3549 C   0  0  0  0  0  0  0  0  0  0  0  0
   -0.1839   27.6099   34.7907 C   0  0  1  0  0  0  0  0  0  0  0  0
    1.9336   21.2053   36.1871 C   0  0  0  0  0  0  0  0  0  0  0  0
    0.0858   27.1914   33.1995 C   0  0  2  0  0  0  0  0  0  0  0  0
    2.3866   19.1314   38.9657 C   0  0  0  0  0  0  0  0  0  0  0  0
    2.1923   14.5137   42.5415 O   0  0  0  0  0  0  0  0  0  0  0  0
    1.6420   13.7071   40.2149 C   0  0  2  0  0  0  0  0  0  0  0  0
    3.5643   13.0798   41.4803 O   0  0  0  0  0  0  0  0  0  0  0  0
    2.6478   19.9583   41.4533 C   0  0  0  0  0  0  0  0  0  0  0  0
    2.7888   21.7106   38.5518 C   0  0  0  0  0  0  0  0  0  0  0  0
    0.6187   24.1442   35.2956 C   0  0  2  0  0  0  0  0  0  0  0  0
    0.7325   24.9614   34.3891 C   0  0  2  0  0  0  0  0  0  0  0  0
    1.9524   17.5081   40.6406 C   0  0  0  0  0  0  0  0  0  0  0  0
    0.8584   23.4775   35.9784 C   0  0  0  0  0  0  0  0  0  0  0  0
    2.0016   25.0569   33.1201 S   0  0  0  0  0  0  0  0  0  0  0  0
    2.3433   23.7940   35.2460 C   0  0  0  0  0  0  0  0  0  0  0  0
    2.1772   22.8034   35.8500 C   0  0  1  0  0  0  0  0  0  0  0  0
    2.2600   17.6952   38.1357 S   0  0  0  0  0  0  0  0  0  0  0  0
    1.7004   15.0638   39.4306 C   0  0  1  0  0  0  0  0  0  0  0  0
    2.2843   18.9217   40.4528 C   0  0  0  0  0  0  0  0  0  0  0  0
   -1.4814   27.9836   35.3858 C   0  0  0  0  0  0  0  0  0  0  0  0
    0.4886   14.1348   37.8787 H   0  0  0  0  0  0  0  0  0  0  0  0
    1.1450   15.7483   37.4399 H   0  0  0  0  0  0  0  0  0  0  0  0
    2.2253   14.3132   37.4555 H   0  0  0  0  0  0  0  0  0  0  0  0
    3.9287   22.3912   37.3443 H   0  0  0  0  0  0  0  0  0  0  0  0
   -0.5534   25.2308   34.7870 H   0  0  0  0  0  0  0  0  0  0  0  0
   -0.5147   13.0002   40.4449 H   0  0  0  0  0  0  0  0  0  0  0  0
    0.5650   12.4632   41.7877 H   0  0  0  0  0  0  0  0  0  0  0  0
    2.2803   27.4908   33.0107 H   0  0  0  0  0  0  0  0  0  0  0  0
    1.4867   26.8324   31.5224 H   0  0  0  0  0  0  0  0  0  0  0  0
    0.5591   10.4102   40.7111 H   0  0  0  0  0  0  0  0  0  0  0  0
   -0.0393   11.1154   39.1711 H   0  0  0  0  0  0  0  0  0  0  0  0
    1.7115   11.1790   39.5676 H   0  0  0  0  0  0  0  0  0  0  0  0
    4.0078   20.0639   38.4625 H   0  0  0  0  0  0  0  0  0  0  0  0
    2.2732   20.1828   37.4704 H   0  0  0  0  0  0  0  0  0  0  0  0
    0.2963   28.3574   35.4393 H   0  0  0  0  0  0  0  0  0  0  0  0
    2.3315   20.4304   35.5153 H   0  0  0  0  0  0  0  0  0  0  0  0
    1.0600   20.5695   36.3938 H   0  0  0  0  0  0  0  0  0  0  0  0
   -0.3684   27.6578   32.3129 H   0  0  0  0  0  0  0  0  0  0  0  0
    1.7422   13.1583   39.2669 H   0  0  0  0  0  0  0  0  0  0  0  0
    2.3394   19.6250   42.4552 H   0  0  0  0  0  0  0  0  0  0  0  0
    3.7363   20.1165   41.4384 H   0  0  0  0  0  0  0  0  0  0  0  0
    2.1368   20.9008   41.2070 H   0  0  0  0  0  0  0  0  0  0  0  0
    3.5981   22.1341   39.1646 H   0  0  0  0  0  0  0  0  0  0  0  0
    1.8944   22.0651   39.0852 H   0  0  0  0  0  0  0  0  0  0  0  0
    0.7455   24.9479   36.0360 H   0  0  0  0  0  0  0  0  0  0  0  0
    0.4445   23.9001   34.3641 H   0  0  0  0  0  0  0  0  0  0  0  0
    1.7362   17.1119   41.6438 H   0  0  0  0  0  0  0  0  0  0  0  0
    0.8422   23.9853   36.9541 H   0  0  0  0  0  0  0  0  0  0  0  0
    0.1200   22.6719   35.8529 H   0  0  0  0  0  0  0  0  0  0  0  0
    2.7371   23.6365   34.2311 H   0  0  0  0  0  0  0  0  0  0  0  0
    3.0661   24.5415   35.6051 H   0  0  0  0  0  0  0  0  0  0  0  0
    2.7707   14.9335   39.2131 H   0  0  0  0  0  0  0  0  0  0  0  0
   -1.4830   27.7239   36.4546 H   0  0  0  0  0  0  0  0  0  0  0  0
   -1.6390   29.0662   35.2712 H   0  0  0  0  0  0  0  0  0  0  0  0
   -2.2894   27.4393   34.8750 H   0  0  0  0  0  0  0  0  0  0  0  0
  1 27  1  0
  2 27  1  0
  2 21  2  0
  3 18  1  0
  4 20  1  0
  4 10  1  0
  6 23  1  0
  6 12  1  0
  7 14  1  0
  8  5  1  0
  9 13  1  0
 10 29  1  0
 11  3  1  0
 12  4  1  0
 12 10  1  0
 13 28  2  0
 15  5  1  0
 15  7  1  0
 16  7  2  0
 18  9  1  0
 19 22  1  0
 20 19  1  0
 23 20  1  0
 24 19  1  0
 25 24  1  6
 25 22  1  0
 25 11  1  0
 25  3  1  0
 26 13  1  0
 26  2  1  0
 27 15  1  0
 28 21  1  0
 28 17  1  0
  1 30  1  0
  1 31  1  0
  1 32  1  0
  3 33  1  6
  4 34  1  6
  5 35  1  0
  5 36  1  0
  6 37  1  0
  6 38  1  0
  8 39  1  0
  8 40  1  0
  8 41  1  0
  9 42  1  0
  9 43  1  0
 10 44  1  1
 11 45  1  0
 11 46  1  0
 12 47  1  6
 15 48  1  6
 17 49  1  0
 17 50  1  0
 17 51  1  0
 18 52  1  0
 18 53  1  0
 19 54  1  6
 20 55  1  6
 21 56  1  0
 22 57  1  0
 22 58  1  0
 24 59  1  0
 24 60  1  0
 27 61  1  6
 29 62  1  0
 29 63  1  0
 29 64  1  0
M  CHG  1  14  -1
M  END
>  <mol_id>  (86) 
2026-09-18-6fnk-s0-n100-0087

>  <rmsd_to_ref>  (86) 


$$$$

     RDKit          3D

 57 58  0  0  0  0  0  0  0  0999 V2000
    3.0987   19.2007   43.1333 O   0  0  0  0  0  0  0  0  0  0  0  0
    1.7761   19.0175   40.2148 N   0  0  0  0  0  0  0  0  0  0  0  0
    5.4363   20.9667   43.5892 C   0  0  0  0  0  0  0  0  0  0  0  0
    3.0551   20.7142   41.3209 O   0  0  0  0  0  0  0  0  0  0  0  0
    2.4103   17.9620   37.6454 O   0  0  0  0  0  0  0  0  0  0  0  0
    1.2666   17.8426   39.5117 C   0  0  0  0  0  0  0  0  0  0  0  0
    0.2175   15.9342   40.0729 C   0  0  0  0  0  0  0  0  0  0  0  0
    1.9950   28.1252   36.5380 O   0  0  0  0  0  0  0  0  0  0  0  0
    0.4774   16.1674   38.6536 N   0  0  0  0  0  0  0  0  0  0  0  0
   -0.3634   29.2526   36.2802 C   0  0  0  0  0  0  0  0  0  0  0  0
    0.8538   26.0594   32.8582 C   0  0  0  0  0  0  0  0  0  0  0  0
    2.7768   20.0269   40.1608 C   0  0  2  0  0  0  0  0  0  0  0  0
   -0.9111   14.9343   40.1972 C   0  0  0  0  0  0  0  0  0  0  0  0
    2.7230   20.7129   37.9916 O   0  0  0  0  0  0  0  0  0  0  0  0
    1.3479   29.0886   34.5154 C   0  0  0  0  0  0  0  0  0  0  0  0
    0.6160   27.7568   34.5455 C   0  0  2  0  0  0  0  0  0  0  0  0
   -0.8923   16.4605   38.0098 C   0  0  0  0  0  0  0  0  0  0  0  0
    1.1867   23.9542   34.5523 C   0  0  0  0  0  0  0  0  0  0  0  0
    4.6903   21.1658   39.1170 O   0  0  0  0  0  0  0  0  0  0  0  0
    1.4615   17.3671   38.5128 C   0  0  0  0  0  0  0  0  0  0  0  0
    3.9929   21.1503   43.3074 O   0  0  0  0  0  0  0  0  0  0  0  0
    3.4290   20.6848   39.0861 C   0  0  0  0  0  0  0  0  0  0  0  0
    3.3294   20.2164   42.5628 C   0  0  0  0  0  0  0  0  0  0  0  0
   -2.2542   15.4749   39.7846 C   0  0  0  0  0  0  0  0  0  0  0  0
    0.9619   28.5662   35.7816 C   0  0  1  0  0  0  0  0  0  0  0  0
    1.4479   25.0639   33.6359 C   0  0  2  0  0  0  0  0  0  0  0  0
   -2.2501   16.3921   38.5595 C   0  0  0  0  0  0  0  0  0  0  0  0
    1.2094   26.4904   34.3089 C   0  0  1  0  0  0  0  0  0  0  0  0
    5.5976   20.9453   44.6770 H   0  0  0  0  0  0  0  0  0  0  0  0
    5.7780   20.0182   43.1491 H   0  0  0  0  0  0  0  0  0  0  0  0
    6.0045   21.8002   43.1505 H   0  0  0  0  0  0  0  0  0  0  0  0
    0.5151   17.2944   40.0988 H   0  0  0  0  0  0  0  0  0  0  0  0
   -0.0691   16.8791   40.5576 H   0  0  0  0  0  0  0  0  0  0  0  0
    1.1220   15.5438   40.5622 H   0  0  0  0  0  0  0  0  0  0  0  0
    1.7672   28.2223   37.4966 H   0  0  0  0  0  0  0  0  0  0  0  0
   -0.3805   29.2614   37.3800 H   0  0  0  0  0  0  0  0  0  0  0  0
   -0.4051   30.2856   35.9044 H   0  0  0  0  0  0  0  0  0  0  0  0
   -1.2311   28.6905   35.9045 H   0  0  0  0  0  0  0  0  0  0  0  0
    1.4185   26.4905   32.0184 H   0  0  0  0  0  0  0  0  0  0  0  0
   -0.0795   26.0944   32.2772 H   0  0  0  0  0  0  0  0  0  0  0  0
    2.9386   19.0484   39.6850 H   0  0  0  0  0  0  0  0  0  0  0  0
   -0.6769   14.0672   39.5621 H   0  0  0  0  0  0  0  0  0  0  0  0
   -0.9872   14.6700   41.2623 H   0  0  0  0  0  0  0  0  0  0  0  0
    0.8409   29.9796   34.1165 H   0  0  0  0  0  0  0  0  0  0  0  0
    2.3015   29.4291   34.0856 H   0  0  0  0  0  0  0  0  0  0  0  0
   -0.2762   27.3480   34.0488 H   0  0  0  0  0  0  0  0  0  0  0  0
   -0.9254   15.7843   37.1427 H   0  0  0  0  0  0  0  0  0  0  0  0
   -0.8055   17.5571   38.0041 H   0  0  0  0  0  0  0  0  0  0  0  0
    1.2731   24.3078   35.5903 H   0  0  0  0  0  0  0  0  0  0  0  0
    0.1715   23.5676   34.3799 H   0  0  0  0  0  0  0  0  0  0  0  0
    1.9192   23.1528   34.3758 H   0  0  0  0  0  0  0  0  0  0  0  0
   -2.9102   14.6197   39.5648 H   0  0  0  0  0  0  0  0  0  0  0  0
   -2.5994   16.0959   40.6243 H   0  0  0  0  0  0  0  0  0  0  0  0
    2.1182   24.3091   33.1989 H   0  0  0  0  0  0  0  0  0  0  0  0
   -2.5785   17.3999   38.8540 H   0  0  0  0  0  0  0  0  0  0  0  0
   -2.9364   15.9930   37.7981 H   0  0  0  0  0  0  0  0  0  0  0  0
    1.6247   26.7229   35.3006 H   0  0  0  0  0  0  0  0  0  0  0  0
  4 23  1  0
  5 20  2  0
  6  2  2  3
  7 13  1  0
  9  7  1  0
 11 26  1  0
 12 22  1  0
 12  2  1  0
 12  4  1  0
 14 22  2  0
 15 25  1  0
 16 15  1  0
 16 25  1  0
 17 27  1  0
 17  9  1  0
 20  9  1  0
 20  6  1  0
 21  3  1  0
 22 19  1  0
 23  1  2  0
 23 21  1  0
 24 13  1  0
 25 10  1  0
 25  8  1  1
 26 28  1  0
 26 18  1  0
 27 24  1  0
 28 11  1  0
 28 16  1  0
  3 29  1  0
  3 30  1  0
  3 31  1  0
  6 32  1  0
  7 33  1  0
  7 34  1  0
  8 35  1  0
 10 36  1  0
 10 37  1  0
 10 38  1  0
 11 39  1  0
 11 40  1  0
 12 41  1  1
 13 42  1  0
 13 43  1  0
 15 44  1  0
 15 45  1  0
 16 46  1  6
 17 47  1  0
 17 48  1  0
 18 49  1  0
 18 50  1  0
 18 51  1  0
 24 52  1  0
 24 53  1  0
 26 54  1  6
 27 55  1  0
 27 56  1  0
 28 57  1  6
M  CHG  1  19  -1
M  END
>  <mol_id>  (87) 
2026-09-18-6fnk-s0-n100-0088

>  <rmsd_to_ref>  (87) 


$$$$

     RDKit          3D

 68 67  0  0  0  0  0  0  0  0999 V2000
    1.4554   25.2422   32.0560 S   0  0  0  0  0  0  0  0  0  0  0  0
    0.5802   26.4168   34.5653 O   0  0  0  0  0  0  0  0  0  0  0  0
    1.9628   18.7597   39.9645 C   0  0  0  0  0  0  0  0  0  0  0  0
    0.0899   26.0653   32.3483 C   0  0  0  0  0  0  0  0  0  0  0  0
    2.2682   23.3175   36.7123 C   0  0  0  0  0  0  0  0  0  0  0  0
    3.1062   22.4749   37.8239 C   0  0  2  0  0  0  0  0  0  0  0  0
    2.2281   21.4151   38.4466 C   0  0  0  0  0  0  0  0  0  0  0  0
    2.2285   19.9624   40.5735 C   0  0  0  0  0  0  0  0  0  0  0  0
   -0.8855   14.3449   39.7471 N   0  0  0  0  0  0  0  0  0  0  0  0
   -2.9699   14.3431   40.7925 N   0  0  0  0  0  0  0  0  0  0  0  0
    3.0483   19.4879   42.8113 C   0  0  0  0  0  0  0  0  0  0  0  0
    1.7497   18.3324   38.4965 C   0  0  0  0  0  0  0  0  0  0  0  0
    6.3615   23.5912   37.5381 C   0  0  0  0  0  0  0  0  0  0  0  0
    2.3948   21.2362   40.0000 C   0  0  0  0  0  0  0  0  0  0  0  0
    0.1112   14.9612   38.8420 C   0  0  0  0  0  0  0  0  0  0  0  0
    0.8597   16.0803   39.4146 C   0  0  0  0  0  0  0  0  0  0  0  0
   -2.6375   16.0063   39.3182 C   0  0  0  0  0  0  0  0  0  0  0  0
    2.6516   24.3548   34.5626 C   0  0  0  0  0  0  0  0  0  0  0  0
    2.4454   20.0539   42.0678 C   0  0  0  0  0  0  0  0  0  0  0  0
    3.7614   23.6005   38.5549 C   0  0  0  0  0  0  0  0  0  0  0  0
    1.6107   16.8304   38.3709 C   0  0  0  0  0  0  0  0  0  0  0  0
    0.1782   25.7857   33.8881 C   0  0  0  0  0  0  0  0  0  0  0  0
    1.4861   25.3557   34.6934 C   0  0  0  0  0  0  0  0  0  0  0  0
    4.9888   24.2975   38.1995 C   0  0  0  0  0  0  0  0  0  0  0  0
    3.1355   23.5069   35.4244 C   0  0  0  0  0  0  0  0  0  0  0  0
   -2.1103   14.8817   40.0116 C   0  0  0  0  0  0  0  0  0  0  0  0
    2.0812   24.9600   33.2416 H   0  0  0  0  0  0  0  0  0  0  0  0
    1.8854   17.9230   40.6744 H   0  0  0  0  0  0  0  0  0  0  0  0
    0.1555   27.1326   32.0903 H   0  0  0  0  0  0  0  0  0  0  0  0
   -0.8273   25.7935   31.8053 H   0  0  0  0  0  0  0  0  0  0  0  0
    1.3490   22.7702   36.4561 H   0  0  0  0  0  0  0  0  0  0  0  0
    2.0101   24.3044   37.1240 H   0  0  0  0  0  0  0  0  0  0  0  0
    3.9123   21.7762   37.5560 H   0  0  0  0  0  0  0  0  0  0  0  0
    1.1797   21.6800   38.2450 H   0  0  0  0  0  0  0  0  0  0  0  0
    2.5345   20.4602   37.9945 H   0  0  0  0  0  0  0  0  0  0  0  0
   -0.6383   13.4560   40.2049 H   0  0  0  0  0  0  0  0  0  0  0  0
   -3.8792   14.8001   40.9509 H   0  0  0  0  0  0  0  0  0  0  0  0
    3.0229   19.7748   43.8729 H   0  0  0  0  0  0  0  0  0  0  0  0
    3.6700   18.6411   42.4852 H   0  0  0  0  0  0  0  0  0  0  0  0
    0.8349   18.8093   38.1145 H   0  0  0  0  0  0  0  0  0  0  0  0
    2.6279   18.6478   37.9141 H   0  0  0  0  0  0  0  0  0  0  0  0
    7.0567   23.3152   38.3447 H   0  0  0  0  0  0  0  0  0  0  0  0
    6.0756   22.6899   36.9761 H   0  0  0  0  0  0  0  0  0  0  0  0
    6.8514   24.3059   36.8605 H   0  0  0  0  0  0  0  0  0  0  0  0
    3.4118   21.5704   40.2530 H   0  0  0  0  0  0  0  0  0  0  0  0
    1.5599   21.8180   40.4176 H   0  0  0  0  0  0  0  0  0  0  0  0
   -0.4184   15.3263   37.9496 H   0  0  0  0  0  0  0  0  0  0  0  0
    0.8513   14.1779   38.6217 H   0  0  0  0  0  0  0  0  0  0  0  0
    0.1548   16.7654   39.9085 H   0  0  0  0  0  0  0  0  0  0  0  0
    1.5853   15.6753   40.1353 H   0  0  0  0  0  0  0  0  0  0  0  0
   -2.9532   16.7698   40.0443 H   0  0  0  0  0  0  0  0  0  0  0  0
   -1.8640   16.4257   38.6581 H   0  0  0  0  0  0  0  0  0  0  0  0
   -3.5030   15.6929   38.7159 H   0  0  0  0  0  0  0  0  0  0  0  0
    2.3709   23.7297   33.7021 H   0  0  0  0  0  0  0  0  0  0  0  0
    3.4719   25.0863   34.6082 H   0  0  0  0  0  0  0  0  0  0  0  0
    1.8722   20.8729   42.5268 H   0  0  0  0  0  0  0  0  0  0  0  0
    2.9951   24.3884   38.6004 H   0  0  0  0  0  0  0  0  0  0  0  0
    4.1301   23.0432   39.4287 H   0  0  0  0  0  0  0  0  0  0  0  0
    1.1107   16.6331   37.4112 H   0  0  0  0  0  0  0  0  0  0  0  0
    2.6421   16.4628   38.4762 H   0  0  0  0  0  0  0  0  0  0  0  0
   -0.8585   25.6217   34.2175 H   0  0  0  0  0  0  0  0  0  0  0  0
    0.9216   24.9752   33.9027 H   0  0  0  0  0  0  0  0  0  0  0  0
    1.6672   25.5413   35.7624 H   0  0  0  0  0  0  0  0  0  0  0  0
    1.1459   25.0119   33.7054 H   0  0  0  0  0  0  0  0  0  0  0  0
    5.3291   24.7771   39.1292 H   0  0  0  0  0  0  0  0  0  0  0  0
    4.6355   24.8752   37.3326 H   0  0  0  0  0  0  0  0  0  0  0  0
    3.2298   22.5298   34.9280 H   0  0  0  0  0  0  0  0  0  0  0  0
    4.1001   23.9180   35.7570 H   0  0  0  0  0  0  0  0  0  0  0  0
  1  4  1  0
  2 23  1  0
  3  8  2  3
  4 22  1  0
  6  5  1  0
  6  7  1  0
  6 20  1  0
  7 14  1  0
  8 19  1  0
  9 26  1  0
 12  3  1  0
 13 24  1  0
 14  8  1  0
 15 16  1  0
 15  9  1  0
 17 26  1  0
 18 23  1  0
 18 25  1  0
 19 11  2  3
 21 12  1  0
 21 16  1  0
 22  2  1  0
 24 20  1  0
 25  5  1  0
 26 10  2  3
  1 27  1  0
  3 28  1  0
  4 29  1  0
  4 30  1  0
  5 31  1  0
  5 32  1  0
  6 33  1  6
  7 34  1  0
  7 35  1  0
  9 36  1  0
 10 37  1  0
 11 38  1  0
 11 39  1  0
 12 40  1  0
 12 41  1  0
 13 42  1  0
 13 43  1  0
 13 44  1  0
 14 45  1  0
 14 46  1  0
 15 47  1  0
 15 48  1  0
 16 49  1  0
 16 50  1  0
 17 51  1  0
 17 52  1  0
 17 53  1  0
 18 54  1  0
 18 55  1  0
 19 56  1  0
 20 57  1  0
 20 58  1  0
 21 59  1  0
 21 60  1  0
 22 61  1  0
 22 62  1  0
 23 63  1  0
 23 64  1  0
 24 65  1  0
 24 66  1  0
 25 67  1  0
 25 68  1  0
M  END
>  <mol_id>  (88) 
2026-09-18-6fnk-s0-n100-0089

>  <rmsd_to_ref>  (88) 


$$$$

     RDKit          3D

 91 93  0  0  0  0  0  0  0  0999 V2000
    2.9479   21.6701   41.1094 N   0  0  0  0  0  0  0  0  0  0  0  0
    0.6139   19.5928   44.4837 C   0  0  0  0  0  0  0  0  0  0  0  0
    0.8707   18.4777   40.0187 C   0  0  0  0  0  0  0  0  0  0  0  0
    1.0394   21.4269   42.7984 C   0  0  0  0  0  0  0  0  0  0  0  0
    0.1164   16.8036   42.2733 C   0  0  2  0  0  0  0  0  0  0  0  0
    2.4740   23.3980   38.0919 C   0  0  0  0  0  0  0  0  0  0  0  0
   -1.0729   16.0421   42.6423 C   0  0  0  0  0  0  0  0  0  0  0  0
   -0.0744   15.9030   38.6693 C   0  0  0  0  0  0  0  0  0  0  0  0
    2.3838   20.6875   38.9784 O   0  0  0  0  0  0  0  0  0  0  0  0
   -0.0340   20.6737   43.7005 C   0  0  2  0  0  0  0  0  0  0  0  0
    1.6027   27.3475   32.4188 C   0  0  1  0  0  0  0  0  0  0  0  0
    3.2126   21.6263   42.2291 C   0  0  1  0  0  0  0  0  0  0  0  0
    0.3633   18.0090   42.3133 C   0  0  0  0  0  0  0  0  0  0  0  0
    1.6824   27.8191   34.8051 C   0  0  0  0  0  0  0  0  0  0  0  0
    0.3501   17.3614   40.9162 C   0  0  1  0  0  0  0  0  0  0  0  0
    4.5012   24.6295   32.0859 C   0  0  0  0  0  0  0  0  0  0  0  0
    4.8545   23.0506   38.8080 C   0  0  0  0  0  0  0  0  0  0  0  0
    1.9808   25.7580   32.7083 C   0  0  2  0  0  0  0  0  0  0  0  0
    4.1934   22.3214   43.2044 C   0  0  0  0  0  0  0  0  0  0  0  0
   -0.5655   17.2828   38.3857 C   0  0  0  0  0  0  0  0  0  0  0  0
    2.0068   23.6929   34.2193 C   0  0  0  0  0  0  0  0  0  0  0  0
   -0.8374   15.4323   39.9727 N   0  0  0  0  0  0  0  0  0  0  0  0
    3.5925   25.5328   32.6660 C   0  0  0  0  0  0  0  0  0  0  0  0
    1.8167   26.1066   31.0148 C   0  0  0  0  0  0  0  0  0  0  0  0
    1.4465   24.3678   33.0999 C   0  0  0  0  0  0  0  0  0  0  0  0
    0.6907   18.1298   38.4929 C   0  0  0  0  0  0  0  0  0  0  0  0
    2.8589   23.1937   33.2646 C   0  0  0  0  0  0  0  0  0  0  0  0
    0.5651   28.4110   35.3621 C   0  0  0  0  0  0  0  0  0  0  0  0
    0.9132   29.0953   34.2307 C   0  0  0  0  0  0  0  0  0  0  0  0
    2.8466   21.7823   39.8548 C   0  0  0  0  0  0  0  0  0  0  0  0
    3.3783   23.0453   39.4097 C   0  0  0  0  0  0  0  0  0  0  0  0
    1.6001   26.7647   33.8392 C   0  0  2  0  0  0  0  0  0  0  0  0
   -0.7306   21.3913   44.3397 O   0  0  0  0  0  0  0  0  0  0  0  0
   -1.4074   15.2098   41.3588 C   0  0  0  0  0  0  0  0  0  0  0  0
    0.3049   18.4076   44.6527 O   0  0  0  0  0  0  0  0  0  0  0  0
    2.2830   20.9893   43.1557 O   0  0  0  0  0  0  0  0  0  0  0  0
    1.9804   21.3422   41.2409 H   0  0  0  0  0  0  0  0  0  0  0  0
    1.5317   19.9003   45.0064 H   0  0  0  0  0  0  0  0  0  0  0  0
    0.3172   19.4017   40.2415 H   0  0  0  0  0  0  0  0  0  0  0  0
    1.9452   18.6045   40.2173 H   0  0  0  0  0  0  0  0  0  0  0  0
    0.9661   22.5123   42.9613 H   0  0  0  0  0  0  0  0  0  0  0  0
    0.8548   21.2166   41.7346 H   0  0  0  0  0  0  0  0  0  0  0  0
    0.5577   15.9993   42.8801 H   0  0  0  0  0  0  0  0  0  0  0  0
    1.5011   23.7995   38.4116 H   0  0  0  0  0  0  0  0  0  0  0  0
    2.9961   24.1472   37.4786 H   0  0  0  0  0  0  0  0  0  0  0  0
    2.3170   22.4844   37.4997 H   0  0  0  0  0  0  0  0  0  0  0  0
   -0.8629   15.3786   43.4941 H   0  0  0  0  0  0  0  0  0  0  0  0
   -1.9067   16.6873   42.9560 H   0  0  0  0  0  0  0  0  0  0  0  0
    1.0117   15.9114   38.8434 H   0  0  0  0  0  0  0  0  0  0  0  0
   -0.2622   15.2251   37.8236 H   0  0  0  0  0  0  0  0  0  0  0  0
   -0.7512   20.1957   43.0170 H   0  0  0  0  0  0  0  0  0  0  0  0
    1.4208   28.4156   32.2287 H   0  0  0  0  0  0  0  0  0  0  0  0
    3.8925   21.4791   41.3769 H   0  0  0  0  0  0  0  0  0  0  0  0
   -0.4346   18.7142   42.5885 H   0  0  0  0  0  0  0  0  0  0  0  0
    1.1045   18.6105   42.8600 H   0  0  0  0  0  0  0  0  0  0  0  0
    2.6284   27.4742   35.2479 H   0  0  0  0  0  0  0  0  0  0  0  0
    0.2056   16.7792   39.9940 H   0  0  0  0  0  0  0  0  0  0  0  0
    5.0278   24.0788   32.8793 H   0  0  0  0  0  0  0  0  0  0  0  0
    3.9553   23.9196   31.4471 H   0  0  0  0  0  0  0  0  0  0  0  0
    5.2313   25.1836   31.4776 H   0  0  0  0  0  0  0  0  0  0  0  0
    5.5850   23.0967   39.6292 H   0  0  0  0  0  0  0  0  0  0  0  0
    5.0160   22.1321   38.2247 H   0  0  0  0  0  0  0  0  0  0  0  0
    4.9812   23.9267   38.1550 H   0  0  0  0  0  0  0  0  0  0  0  0
    3.8448   22.1797   44.2380 H   0  0  0  0  0  0  0  0  0  0  0  0
    5.1955   21.8818   43.0920 H   0  0  0  0  0  0  0  0  0  0  0  0
    4.2369   23.3966   42.9763 H   0  0  0  0  0  0  0  0  0  0  0  0
   -1.3153   17.5945   39.1278 H   0  0  0  0  0  0  0  0  0  0  0  0
   -1.0616   17.3706   37.4079 H   0  0  0  0  0  0  0  0  0  0  0  0
    2.4692   24.3363   34.9823 H   0  0  0  0  0  0  0  0  0  0  0  0
    1.4307   23.0728   34.9219 H   0  0  0  0  0  0  0  0  0  0  0  0
   -1.7666   15.5360   39.5405 H   0  0  0  0  0  0  0  0  0  0  0  0
    0.0765   15.1435   40.3501 H   0  0  0  0  0  0  0  0  0  0  0  0
    3.8411   25.4537   33.7346 H   0  0  0  0  0  0  0  0  0  0  0  0
    3.7490   26.2966   31.8900 H   0  0  0  0  0  0  0  0  0  0  0  0
    1.9023   25.0923   31.4318 H   0  0  0  0  0  0  0  0  0  0  0  0
    0.9448   26.1556   30.3460 H   0  0  0  0  0  0  0  0  0  0  0  0
    2.7279   26.3479   30.4478 H   0  0  0  0  0  0  0  0  0  0  0  0
    0.4380   24.5073   32.6835 H   0  0  0  0  0  0  0  0  0  0  0  0
    1.5612   17.5656   38.1271 H   0  0  0  0  0  0  0  0  0  0  0  0
    0.6062   19.0429   37.8853 H   0  0  0  0  0  0  0  0  0  0  0  0
    2.7864   22.1530   32.9156 H   0  0  0  0  0  0  0  0  0  0  0  0
    3.9371   23.1535   33.0505 H   0  0  0  0  0  0  0  0  0  0  0  0
   -0.3779   27.8449   35.3543 H   0  0  0  0  0  0  0  0  0  0  0  0
    0.3950   28.7770   36.3854 H   0  0  0  0  0  0  0  0  0  0  0  0
    1.3602   30.0984   34.2939 H   0  0  0  0  0  0  0  0  0  0  0  0
    0.4323   29.3896   33.2862 H   0  0  0  0  0  0  0  0  0  0  0  0
    3.3738   23.7069   40.2884 H   0  0  0  0  0  0  0  0  0  0  0  0
    1.3037   26.3041   34.7930 H   0  0  0  0  0  0  0  0  0  0  0  0
   -0.5890   21.2160   45.3037 H   0  0  0  0  0  0  0  0  0  0  0  0
   -2.4974   15.2943   41.2379 H   0  0  0  0  0  0  0  0  0  0  0  0
   -0.9056   14.2651   41.6154 H   0  0  0  0  0  0  0  0  0  0  0  0
  1 12  1  0
  2 35  2  0
  4 36  1  0
  4 10  1  0
  5 13  1  0
  5  7  1  0
  6 31  1  0
  8 22  1  0
  9 30  2  0
 10  2  1  0
 10 33  1  0
 11 24  1  0
 11 18  1  0
 11 32  1  0
 12 19  1  0
 12 36  1  0
 14 28  1  0
 15  3  1  0
 15  5  1  0
 15 13  1  0
 16 23  1  0
 17 31  1  0
 18 23  1  6
 18 25  1  0
 18 32  1  0
 20 26  1  0
 20  8  1  0
 22 34  1  0
 25 27  1  0
 25 21  1  0
 26  3  1  0
 27 21  1  0
 29 14  1  0
 29 28  1  0
 30  1  1  0
 31 30  1  0
 32 14  1  0
 34  7  1  0
  1 37  1  0
  2 38  1  0
  3 39  1  0
  3 40  1  0
  4 41  1  0
  4 42  1  0
  5 43  1  1
  6 44  1  0
  6 45  1  0
  6 46  1  0
  7 47  1  0
  7 48  1  0
  8 49  1  0
  8 50  1  0
 10 51  1  6
 11 52  1  6
 12 53  1  6
 13 54  1  0
 13 55  1  0
 14 56  1  0
 15 57  1  6
 16 58  1  0
 16 59  1  0
 16 60  1  0
 17 61  1  0
 17 62  1  0
 17 63  1  0
 19 64  1  0
 19 65  1  0
 19 66  1  0
 20 67  1  0
 20 68  1  0
 21 69  1  0
 21 70  1  0
 22 71  1  0
 22 72  1  0
 23 73  1  0
 23 74  1  0
 24 75  1  0
 24 76  1  0
 24 77  1  0
 25 78  1  0
 26 79  1  0
 26 80  1  0
 27 81  1  0
 27 82  1  0
 28 83  1  0
 28 84  1  0
 29 85  1  0
 29 86  1  0
 31 87  1  0
 32 88  1  1
 33 89  1  0
 34 90  1  0
 34 91  1  0
M  CHG  1  22   1
M  END
>  <mol_id>  (89) 
2026-09-18-6fnk-s0-n100-0090

>  <rmsd_to_ref>  (89) 


$$$$

     RDKit          3D

 90 91  0  0  0  0  0  0  0  0999 V2000
    2.8854   26.7002   29.9682 C   0  0  1  0  0  0  0  0  0  0  0  0
    0.7719   14.8174   35.6991 C   0  0  1  0  0  0  0  0  0  0  0  0
    3.7841   21.6178   39.9964 O   0  0  0  0  0  0  0  0  0  0  0  0
   -0.4352   14.7475   38.0574 C   0  0  0  0  0  0  0  0  0  0  0  0
    1.2223   25.3352   35.1609 C   0  0  0  0  0  0  0  0  0  0  0  0
    1.1545   16.6865   37.8278 C   0  0  0  0  0  0  0  0  0  0  0  0
    2.5610   27.8683   30.2948 C   0  0  0  0  0  0  0  0  0  0  0  0
    1.5773   13.8034   34.7807 C   0  0  0  0  0  0  0  0  0  0  0  0
   -0.3858   16.9612   45.2056 C   0  0  0  0  0  0  0  0  0  0  0  0
   -0.2348   16.2300   39.8803 O   0  0  0  0  0  0  0  0  0  0  0  0
    2.2208   20.7149   38.1383 C   0  0  0  0  0  0  0  0  0  0  0  0
    2.1227   22.1221   37.7829 C   0  0  0  0  0  0  0  0  0  0  0  0
    3.9453   20.9227   42.6046 C   0  0  0  0  0  0  0  0  0  0  0  0
    1.6380   26.4107   30.7439 C   0  0  1  0  0  0  0  0  0  0  0  0
    0.5435   18.4480   40.2912 C   0  0  0  0  0  0  0  0  0  0  0  0
    0.5601   19.2115   42.3818 C   0  0  0  0  0  0  0  0  0  0  0  0
   -0.2660   18.2745   44.4936 C   0  0  0  0  0  0  0  0  0  0  0  0
    0.8914   19.3621   41.1376 C   0  0  0  0  0  0  0  0  0  0  0  0
    0.1513   14.1275   36.9598 C   0  0  0  0  0  0  0  0  0  0  0  0
    1.1286   26.7820   35.0190 C   0  0  0  0  0  0  0  0  0  0  0  0
   -0.1134   18.2700   43.0136 C   0  0  1  0  0  0  0  0  0  0  0  0
    0.1316   16.2477   38.6326 C   0  0  2  0  0  0  0  0  0  0  0  0
    0.6955   18.6649   38.8449 O   0  0  0  0  0  0  0  0  0  0  0  0
    1.9196   22.5662   36.3123 C   0  0  0  0  0  0  0  0  0  0  0  0
    0.3986   28.8687   34.6889 F   0  0  0  0  0  0  0  0  0  0  0  0
   -0.7929   17.0250   42.2428 S   0  0  0  0  0  0  0  0  0  0  0  0
    2.0239   20.2541   39.5770 C   0  0  0  0  0  0  0  0  0  0  0  0
    2.7296   21.1106   41.8393 O   0  0  0  0  0  0  0  0  0  0  0  0
    2.9331   20.9902   40.4331 C   0  0  0  0  0  0  0  0  0  0  0  0
    0.9515   27.7481   34.1690 C   0  0  0  0  0  0  0  0  0  0  0  0
    1.2808   15.7742   36.3562 C   0  0  0  0  0  0  0  0  0  0  0  0
    2.2464   25.0838   30.2712 C   0  0  0  0  0  0  0  0  0  0  0  0
   -0.0825   17.2342   40.8086 C   0  0  0  0  0  0  0  0  0  0  0  0
    0.2885   11.9500   33.5541 C   0  0  0  0  0  0  0  0  0  0  0  0
    1.1617   27.6958   32.8254 C   0  0  0  0  0  0  0  0  0  0  0  0
   -1.2462   19.3173   45.0417 C   0  0  0  0  0  0  0  0  0  0  0  0
    2.1047   24.3535   36.3622 S   0  0  0  0  0  4  0  0  0  0  0  0
    0.5217   13.4356   33.7793 N   0  0  0  0  0  0  0  0  0  0  0  0
    1.7938   26.4913   32.2950 C   0  0  0  0  0  0  0  0  0  0  0  0
    3.5109   26.6218   30.8696 H   0  0  0  0  0  0  0  0  0  0  0  0
    0.1853   15.1888   34.8459 H   0  0  0  0  0  0  0  0  0  0  0  0
   -0.3515   14.0406   38.8960 H   0  0  0  0  0  0  0  0  0  0  0  0
   -1.4383   14.9987   37.6823 H   0  0  0  0  0  0  0  0  0  0  0  0
    0.6620   24.7578   34.4109 H   0  0  0  0  0  0  0  0  0  0  0  0
    0.9760   17.7420   37.5743 H   0  0  0  0  0  0  0  0  0  0  0  0
    2.0954   16.5574   38.3828 H   0  0  0  0  0  0  0  0  0  0  0  0
    2.5217   27.9449   31.3914 H   0  0  0  0  0  0  0  0  0  0  0  0
    3.3049   28.5782   29.9040 H   0  0  0  0  0  0  0  0  0  0  0  0
    1.5723   28.1052   29.8751 H   0  0  0  0  0  0  0  0  0  0  0  0
    2.4398   14.2889   34.3006 H   0  0  0  0  0  0  0  0  0  0  0  0
    2.0140   12.9488   35.3183 H   0  0  0  0  0  0  0  0  0  0  0  0
   -0.3866   17.1319   46.2923 H   0  0  0  0  0  0  0  0  0  0  0  0
   -1.3243   16.4688   44.9111 H   0  0  0  0  0  0  0  0  0  0  0  0
    0.4655   16.3189   44.9360 H   0  0  0  0  0  0  0  0  0  0  0  0
    2.4402   19.9727   37.3567 H   0  0  0  0  0  0  0  0  0  0  0  0
    2.1940   22.8847   38.5724 H   0  0  0  0  0  0  0  0  0  0  0  0
    3.7097   20.9468   43.6788 H   0  0  0  0  0  0  0  0  0  0  0  0
    4.3929   19.9510   42.3491 H   0  0  0  0  0  0  0  0  0  0  0  0
    4.6563   21.7278   42.3670 H   0  0  0  0  0  0  0  0  0  0  0  0
    0.6475   26.8726   30.6191 H   0  0  0  0  0  0  0  0  0  0  0  0
    0.9071   20.0250   43.0359 H   0  0  0  0  0  0  0  0  0  0  0  0
    0.7497   18.6020   44.7603 H   0  0  0  0  0  0  0  0  0  0  0  0
    1.4557   20.2474   40.8091 H   0  0  0  0  0  0  0  0  0  0  0  0
   -0.6292   13.4625   36.5615 H   0  0  0  0  0  0  0  0  0  0  0  0
    1.0771   13.7721   37.4359 H   0  0  0  0  0  0  0  0  0  0  0  0
    0.3159   26.9955   35.7291 H   0  0  0  0  0  0  0  0  0  0  0  0
    2.2196   26.8566   34.9000 H   0  0  0  0  0  0  0  0  0  0  0  0
    0.8075   17.6763   43.1104 H   0  0  0  0  0  0  0  0  0  0  0  0
   -0.1111   17.3185   38.5657 H   0  0  0  0  0  0  0  0  0  0  0  0
    1.1223   19.4934   38.5108 H   0  0  0  0  0  0  0  0  0  0  0  0
    0.9171   22.2877   35.9555 H   0  0  0  0  0  0  0  0  0  0  0  0
    2.6330   22.0877   35.6252 H   0  0  0  0  0  0  0  0  0  0  0  0
    0.9865   20.4465   39.8878 H   0  0  0  0  0  0  0  0  0  0  0  0
    2.2283   19.1761   39.6548 H   0  0  0  0  0  0  0  0  0  0  0  0
    2.3246   15.4339   36.4240 H   0  0  0  0  0  0  0  0  0  0  0  0
    0.6422   16.4993   35.8304 H   0  0  0  0  0  0  0  0  0  0  0  0
    1.7768   24.4993   29.4662 H   0  0  0  0  0  0  0  0  0  0  0  0
    2.5941   24.1416   30.7200 H   0  0  0  0  0  0  0  0  0  0  0  0
    0.1948   11.4421   34.5254 H   0  0  0  0  0  0  0  0  0  0  0  0
   -0.6360   11.8075   32.9752 H   0  0  0  0  0  0  0  0  0  0  0  0
    1.1379   11.5255   32.9988 H   0  0  0  0  0  0  0  0  0  0  0  0
    0.8677   28.5262   32.1667 H   0  0  0  0  0  0  0  0  0  0  0  0
   -1.2397   19.2843   46.1412 H   0  0  0  0  0  0  0  0  0  0  0  0
   -0.9432   20.3191   44.7031 H   0  0  0  0  0  0  0  0  0  0  0  0
   -2.2593   19.0969   44.6743 H   0  0  0  0  0  0  0  0  0  0  0  0
    3.4382   24.6265   36.2064 H   0  0  0  0  0  0  0  0  0  0  0  0
    0.7894   13.8509   32.8756 H   0  0  0  0  0  0  0  0  0  0  0  0
   -0.3614   13.7941   34.1699 H   0  0  0  0  0  0  0  0  0  0  0  0
    1.3217   25.6079   32.7497 H   0  0  0  0  0  0  0  0  0  0  0  0
    2.8663   26.5243   32.5370 H   0  0  0  0  0  0  0  0  0  0  0  0
  1  7  1  0
  1 32  1  0
  1 14  1  0
  2  8  1  0
  2 31  1  0
  2 19  1  0
  3 29  2  0
  4 22  1  0
  5 37  2  3
  6 22  1  0
 10 33  1  0
 11 27  1  0
 12 11  2  3
 14 39  1  0
 15 33  2  0
 15 18  1  0
 16 21  1  0
 17 36  1  0
 17  9  1  0
 18 16  2  0
 19  4  1  0
 20  5  1  0
 21 17  1  0
 22 10  1  0
 23 15  1  0
 24 37  1  0
 24 12  1  0
 26 21  1  0
 27 29  1  0
 28 13  1  0
 29 28  1  0
 30 25  1  0
 30 20  1  0
 31  6  1  0
 32 14  1  0
 33 26  1  0
 34 38  1  0
 35 30  2  3
 38  8  1  0
 39 35  1  0
  1 40  1  6
  2 41  1  6
  4 42  1  0
  4 43  1  0
  5 44  1  0
  6 45  1  0
  6 46  1  0
  7 47  1  0
  7 48  1  0
  7 49  1  0
  8 50  1  0
  8 51  1  0
  9 52  1  0
  9 53  1  0
  9 54  1  0
 11 55  1  0
 12 56  1  0
 13 57  1  0
 13 58  1  0
 13 59  1  0
 14 60  1  6
 16 61  1  0
 17 62  1  0
 18 63  1  0
 19 64  1  0
 19 65  1  0
 20 66  1  0
 20 67  1  0
 21 68  1  1
 22 69  1  6
 23 70  1  0
 24 71  1  0
 24 72  1  0
 27 73  1  0
 27 74  1  0
 31 75  1  0
 31 76  1  0
 32 77  1  0
 32 78  1  0
 34 79  1  0
 34 80  1  0
 34 81  1  0
 35 82  1  0
 36 83  1  0
 36 84  1  0
 36 85  1  0
 37 86  1  6
 38 87  1  0
 38 88  1  0
 39 89  1  0
 39 90  1  0
M  CHG  1  38   1
M  END
>  <mol_id>  (90) 
2026-09-18-6fnk-s0-n100-0091

>  <rmsd_to_ref>  (90) 


$$$$

     RDKit          3D

 54 55  0  0  0  0  0  0  0  0999 V2000
    2.2950   20.6996   38.4855 C   0  0  0  0  0  0  0  0  0  0  0  0
    0.2637   26.9219   33.2355 C   0  0  0  0  0  0  0  0  0  0  0  0
   -1.4358   17.0029   38.4680 C   0  0  0  0  0  0  0  0  0  0  0  0
    1.6592   26.8171   32.8911 C   0  0  2  0  0  0  0  0  0  0  0  0
    0.3889   16.3481   39.6821 C   0  0  0  0  0  0  0  0  0  0  0  0
   -0.0884   15.3560   40.5515 C   0  0  0  0  0  0  0  0  0  0  0  0
    3.9213   20.7265   40.2279 C   0  0  0  0  0  0  0  0  0  0  0  0
    2.8826   24.2570   35.1906 C   0  0  0  0  0  0  0  0  0  0  0  0
    0.2659   17.3488   38.8671 C   0  0  2  0  0  0  0  0  0  0  0  0
    1.1577   18.5498   38.8634 C   0  0  1  0  0  0  0  0  0  0  0  0
    1.7571   26.7189   35.3978 O   0  0  0  0  0  0  0  0  0  0  0  0
    2.0496   26.1284   31.9733 O   0  0  0  0  0  0  0  0  0  0  0  0
   -1.3397   14.8049   40.8819 C   0  0  2  0  0  0  0  0  0  0  0  0
   -2.5181   15.3661   40.2058 C   0  0  0  0  0  0  0  0  0  0  0  0
    2.8588   25.1734   34.2392 N   0  0  0  0  0  0  0  0  0  0  0  0
    1.5788   19.4647   37.9354 N   0  0  0  0  0  0  0  0  0  0  0  0
    1.9879   23.6521   35.8600 C   0  0  0  0  0  0  0  0  0  0  0  0
    2.6744   20.2901   39.7535 C   0  0  0  0  0  0  0  0  0  0  0  0
    4.3375   20.5239   41.7148 C   0  0  0  0  0  0  0  0  0  0  0  0
    2.3983   26.3200   34.3040 C   0  0  0  0  0  0  0  0  0  0  0  0
   -2.1089   16.3921   39.1836 C   0  0  0  0  0  0  0  0  0  0  0  0
    2.1647   22.0927   36.2890 C   0  0  0  0  0  0  0  0  0  0  0  0
   -1.5869   13.3744   41.9198 Cl  0  0  0  0  0  0  0  0  0  0  0  0
    2.2113   21.9052   37.7169 N   0  0  0  0  0  0  0  0  0  0  0  0
    1.4187   19.3806   40.3896 S   0  0  0  0  0  0  0  0  0  0  0  0
    4.0254   24.3208   35.6146 C   0  0  0  0  0  0  0  0  0  0  0  0
    2.5221   27.8802   32.6425 F   0  0  0  0  0  0  0  0  0  0  0  0
    0.1569   26.9428   34.3301 H   0  0  0  0  0  0  0  0  0  0  0  0
   -0.1508   27.8471   32.8088 H   0  0  0  0  0  0  0  0  0  0  0  0
   -0.2799   26.0556   32.8306 H   0  0  0  0  0  0  0  0  0  0  0  0
   -1.4271   16.4613   37.5106 H   0  0  0  0  0  0  0  0  0  0  0  0
   -1.8963   18.0013   38.5015 H   0  0  0  0  0  0  0  0  0  0  0  0
    1.4768   16.1865   39.7045 H   0  0  0  0  0  0  0  0  0  0  0  0
    0.7269   14.8879   41.1226 H   0  0  0  0  0  0  0  0  0  0  0  0
    4.6182   21.2215   39.5356 H   0  0  0  0  0  0  0  0  0  0  0  0
    0.8376   17.7020   37.9962 H   0  0  0  0  0  0  0  0  0  0  0  0
    1.5301   17.6515   38.3493 H   0  0  0  0  0  0  0  0  0  0  0  0
    2.6932   25.4580   32.3145 H   0  0  0  0  0  0  0  0  0  0  0  0
   -1.2864   14.1536   39.9969 H   0  0  0  0  0  0  0  0  0  0  0  0
   -3.0663   14.5552   39.7037 H   0  0  0  0  0  0  0  0  0  0  0  0
   -3.1577   15.8523   40.9571 H   0  0  0  0  0  0  0  0  0  0  0  0
    3.2728   24.9010   33.3362 H   0  0  0  0  0  0  0  0  0  0  0  0
    1.8604   24.2196   36.7937 H   0  0  0  0  0  0  0  0  0  0  0  0
    1.1463   23.6117   35.1528 H   0  0  0  0  0  0  0  0  0  0  0  0
    4.0422   21.4062   42.3017 H   0  0  0  0  0  0  0  0  0  0  0  0
    3.8364   19.6312   42.1174 H   0  0  0  0  0  0  0  0  0  0  0  0
    5.4277   20.3911   41.7755 H   0  0  0  0  0  0  0  0  0  0  0  0
   -2.5057   17.2596   39.7313 H   0  0  0  0  0  0  0  0  0  0  0  0
   -2.0431   15.5676   38.4583 H   0  0  0  0  0  0  0  0  0  0  0  0
    1.3158   21.5200   35.8874 H   0  0  0  0  0  0  0  0  0  0  0  0
    3.1244   21.7446   35.8792 H   0  0  0  0  0  0  0  0  0  0  0  0
    2.1795   22.7729   38.2708 H   0  0  0  0  0  0  0  0  0  0  0  0
    4.7990   24.8447   35.0340 H   0  0  0  0  0  0  0  0  0  0  0  0
    4.2817   23.8545   36.5773 H   0  0  0  0  0  0  0  0  0  0  0  0
  1 18  1  0
  3 21  1  0
  4  2  1  0
  4 20  1  0
  5  6  2  0
  6 13  1  0
  7 19  1  0
  8 17  1  0
  8 26  2  3
  9  3  1  0
  9 10  1  0
  9  5  1  0
 10 16  1  0
 10 25  1  0
 12  4  1  0
 13 23  1  0
 14 13  1  0
 15  8  1  0
 16  1  2  0
 17 22  1  0
 18 25  1  0
 18  7  2  3
 20 15  1  0
 20 11  2  0
 21 14  1  0
 22 24  1  0
 24  1  1  0
  4 27  1  6
  2 28  1  0
  2 29  1  0
  2 30  1  0
  3 31  1  0
  3 32  1  0
  5 33  1  0
  6 34  1  0
  7 35  1  0
  9 36  1  6
 10 37  1  1
 12 38  1  0
 13 39  1  1
 14 40  1  0
 14 41  1  0
 15 42  1  0
 17 43  1  0
 17 44  1  0
 19 45  1  0
 19 46  1  0
 19 47  1  0
 21 48  1  0
 21 49  1  0
 22 50  1  0
 22 51  1  0
 24 52  1  0
 26 53  1  0
 26 54  1  0
M  END
>  <mol_id>  (91) 
2026-09-18-6fnk-s0-n100-0092

>  <rmsd_to_ref>  (91) 


$$$$

     RDKit          3D

 52 52  0  0  0  0  0  0  0  0999 V2000
    2.1480   20.4160   41.3720 C   0  0  0  0  0  0  0  0  0  0  0  0
    2.0900   19.1780   42.4720 C   0  0  0  0  0  0  0  0  0  0  0  0
    6.0640   25.0160   33.9980 C   0  0  2  0  0  0  0  0  0  0  0  0
   -0.9060   14.9860   39.5120 O   0  0  0  0  0  0  0  0  0  0  0  0
    5.2750   24.1680   34.9710 C   0  0  2  0  0  0  0  0  0  0  0  0
    5.6260   24.4420   32.6790 C   0  0  0  0  0  0  0  0  0  0  0  0
    1.8230   18.2820   39.4660 O   0  0  0  0  0  0  0  0  0  0  0  0
    1.3790   17.6520   40.3860 C   0  0  0  0  0  0  0  0  0  0  0  0
    0.6560   16.6000   39.9700 N   0  0  0  0  0  0  0  0  0  0  0  0
    4.1970   23.1340   37.0340 C   0  0  0  0  0  0  0  0  0  0  0  0
   -0.1500   15.8370   38.9890 C   0  0  0  0  0  0  0  0  0  0  0  0
    0.4510   16.4970   36.9830 O   0  0  0  0  0  0  0  0  0  0  0  0
   -1.6140   15.9170   37.0480 O   0  0  0  0  0  0  0  0  0  0  0  0
    6.8380   24.3030   36.8240 C   0  0  0  0  0  0  0  0  0  0  0  0
    2.9190   23.3270   35.8610 C   0  0  0  0  0  0  0  0  0  0  0  0
   -0.5450   16.1910   37.5690 C   0  0  0  0  0  0  0  0  0  0  0  0
    3.7900   24.0440   34.4730 C   0  0  0  0  0  0  0  0  0  0  0  0
    2.1770   20.7810   39.8230 C   0  0  0  0  0  0  0  0  0  0  0  0
    6.5390   24.7450   35.5250 C   0  0  1  0  0  0  0  0  0  0  0  0
    1.6670   17.8670   41.9060 C   0  0  0  0  0  0  0  0  0  0  0  0
    2.0300   22.5110   36.6200 C   0  0  0  0  0  0  0  0  0  0  0  0
    5.4370   23.3800   37.3170 C   0  0  0  0  0  0  0  0  0  0  0  0
    2.0210   23.7780   35.6190 C   0  0  0  0  0  0  0  0  0  0  0  0
    3.1630   21.7840   37.8840 S   0  0  0  0  0  0  0  0  0  0  0  0
    1.2682   20.9953   41.6889 H   0  0  0  0  0  0  0  0  0  0  0  0
    3.2476   20.4041   41.4007 H   0  0  0  0  0  0  0  0  0  0  0  0
    3.0935   19.0569   42.9060 H   0  0  0  0  0  0  0  0  0  0  0  0
    1.3297   19.4569   43.2164 H   0  0  0  0  0  0  0  0  0  0  0  0
    6.4683   25.8785   33.4479 H   0  0  0  0  0  0  0  0  0  0  0  0
    4.8649   23.3239   35.5449 H   0  0  0  0  0  0  0  0  0  0  0  0
    4.9673   23.5788   32.8554 H   0  0  0  0  0  0  0  0  0  0  0  0
    5.0811   25.2085   32.1084 H   0  0  0  0  0  0  0  0  0  0  0  0
    6.5091   24.1188   32.1084 H   0  0  0  0  0  0  0  0  0  0  0  0
    0.6690   15.9759   40.7893 H   0  0  0  0  0  0  0  0  0  0  0  0
    6.9949   25.1584   37.4976 H   0  0  0  0  0  0  0  0  0  0  0  0
    7.7608   23.7052   36.8565 H   0  0  0  0  0  0  0  0  0  0  0  0
    3.3786   25.0331   34.2232 H   0  0  0  0  0  0  0  0  0  0  0  0
    3.7013   23.4358   33.5607 H   0  0  0  0  0  0  0  0  0  0  0  0
    2.2636   21.8712   39.7047 H   0  0  0  0  0  0  0  0  0  0  0  0
    3.0390   20.2909   39.3469 H   0  0  0  0  0  0  0  0  0  0  0  0
    1.2484   20.4332   39.3469 H   0  0  0  0  0  0  0  0  0  0  0  0
    5.9870   25.6374   35.8551 H   0  0  0  0  0  0  0  0  0  0  0  0
    0.7402   17.5942   42.4320 H   0  0  0  0  0  0  0  0  0  0  0  0
    2.5751   17.2623   42.0465 H   0  0  0  0  0  0  0  0  0  0  0  0
    2.2081   22.6745   37.6931 H   0  0  0  0  0  0  0  0  0  0  0  0
    0.9906   22.7761   36.3763 H   0  0  0  0  0  0  0  0  0  0  0  0
    2.2053   21.4528   36.3763 H   0  0  0  0  0  0  0  0  0  0  0  0
    5.7122   22.7839   38.1996 H   0  0  0  0  0  0  0  0  0  0  0  0
    1.4855   24.0470   36.5414 H   0  0  0  0  0  0  0  0  0  0  0  0
    2.2140   24.6861   35.0290 H   0  0  0  0  0  0  0  0  0  0  0  0
    1.4078   23.0809   35.0290 H   0  0  0  0  0  0  0  0  0  0  0  0
    3.2658   21.9182   39.2435 H   0  0  0  0  0  0  0  0  0  0  0  0
  1  2  1  0
  3  6  1  0
  3  5  1  0
  3 19  1  0
  5 17  1  0
  5 19  1  0
  7  8  2  0
  8 20  1  0
  9  8  1  0
 10 22  2  0
 10 24  1  0
 11  4  2  0
 11  9  1  0
 12 16  2  0
 13 16  1  0
 14 22  1  0
 15 21  1  0
 15 10  1  0
 16 11  1  0
 17 15  1  0
 18  1  1  0
 19 14  1  0
 20  2  1  0
 23 15  1  0
  1 25  1  0
  1 26  1  0
  2 27  1  0
  2 28  1  0
  3 29  1  6
  5 30  1  6
  6 31  1  0
  6 32  1  0
  6 33  1  0
  9 34  1  0
 14 35  1  0
 14 36  1  0
 17 37  1  0
 17 38  1  0
 18 39  1  0
 18 40  1  0
 18 41  1  0
 19 42  1  1
 20 43  1  0
 20 44  1  0
 21 45  1  0
 21 46  1  0
 21 47  1  0
 22 48  1  0
 23 49  1  0
 23 50  1  0
 23 51  1  0
 24 52  1  0
M  CHG  1  13  -1
M  END
>  <mol_id>  (92) 
2026-09-18-6fnk-s0-n100-0093

>  <rmsd_to_ref>  (92) 


$$$$

     RDKit          3D

 70 70  0  0  0  0  0  0  0  0999 V2000
    1.2663   15.9343   39.3253 C   0  0  2  0  0  0  0  0  0  0  0  0
    3.1200   20.7449   41.0081 C   0  0  0  0  0  0  0  0  0  0  0  0
    1.5001   14.6662   38.0803 N   0  0  0  0  0  0  0  0  0  0  0  0
    2.2342   23.5125   36.1408 C   0  0  1  0  0  0  0  0  0  0  0  0
    3.7462   16.1777   39.8019 O   0  0  0  0  0  0  0  0  0  0  0  0
    1.4824   15.2307   40.7003 C   0  0  0  0  0  0  0  0  0  0  0  0
    2.7951   19.6478   40.2239 C   0  0  0  0  0  0  0  0  0  0  0  0
    5.6197   24.5221   35.8954 C   0  0  0  0  0  0  0  0  0  0  0  0
    3.6587   23.0338   36.2604 C   0  0  2  0  0  0  0  0  0  0  0  0
   -0.2518   13.6459   40.5975 O   0  0  0  0  0  0  0  0  0  0  0  0
    6.8632   23.9537   36.5350 C   0  0  0  0  0  0  0  0  0  0  0  0
    1.6103   22.3648   38.3790 C   0  0  0  0  0  0  0  0  0  0  0  0
    3.4431   21.7915   40.1359 N   0  0  0  0  0  0  0  0  0  0  0  0
    1.7386   23.7740   34.5592 C   0  0  0  0  0  0  0  0  0  0  0  0
    4.0769   22.7742   37.7123 C   0  0  0  0  0  0  0  0  0  0  0  0
    2.5454   13.6797   38.1903 C   0  0  0  0  0  0  0  0  0  0  0  0
    3.0908   22.0661   38.7696 C   0  0  2  0  0  0  0  0  0  0  0  0
    0.9824   13.7191   40.9041 C   0  0  0  0  0  0  0  0  0  0  0  0
    2.4300   18.3651   40.9650 C   0  0  0  0  0  0  0  0  0  0  0  0
    0.4871   14.8757   38.6852 N   0  0  0  0  0  0  0  0  0  0  0  0
    1.9381   16.0515   37.8952 C   0  0  0  0  0  0  0  0  0  0  0  0
    4.5148   23.4404   33.8974 C   0  0  0  0  0  0  0  0  0  0  0  0
    4.6088   23.6277   35.2975 C   0  0  1  0  0  0  0  0  0  0  0  0
    1.4576   22.3732   36.9122 C   0  0  0  0  0  0  0  0  0  0  0  0
    4.0987   15.3147   37.7933 F   0  0  0  0  0  0  0  0  0  0  0  0
    3.6289   14.6925   39.0251 C   0  0  1  0  0  0  0  0  0  0  0  0
    3.4396   20.7446   42.5394 C   0  0  0  0  0  0  0  0  0  0  0  0
    1.2390   16.9494   39.7482 H   0  0  0  0  0  0  0  0  0  0  0  0
    2.0555   24.5114   36.5651 H   0  0  0  0  0  0  0  0  0  0  0  0
    3.7262   16.0400   40.7821 H   0  0  0  0  0  0  0  0  0  0  0  0
    2.5648   15.2386   40.8967 H   0  0  0  0  0  0  0  0  0  0  0  0
    0.8457   15.8073   41.3875 H   0  0  0  0  0  0  0  0  0  0  0  0
    2.8005   19.6998   39.1252 H   0  0  0  0  0  0  0  0  0  0  0  0
    5.1041   25.1054   36.6725 H   0  0  0  0  0  0  0  0  0  0  0  0
    6.0156   25.0650   35.0245 H   0  0  0  0  0  0  0  0  0  0  0  0
    3.7126   22.0111   35.8589 H   0  0  0  0  0  0  0  0  0  0  0  0
   -0.7983   13.6594   41.4229 H   0  0  0  0  0  0  0  0  0  0  0  0
    6.7854   24.0407   37.6288 H   0  0  0  0  0  0  0  0  0  0  0  0
    6.9666   22.8943   36.2579 H   0  0  0  0  0  0  0  0  0  0  0  0
    7.7437   24.5120   36.1845 H   0  0  0  0  0  0  0  0  0  0  0  0
    0.9588   21.5887   38.8069 H   0  0  0  0  0  0  0  0  0  0  0  0
    1.3297   23.3529   38.7727 H   0  0  0  0  0  0  0  0  0  0  0  0
    3.1191   22.6298   40.6388 H   0  0  0  0  0  0  0  0  0  0  0  0
    4.4047   21.4781   39.9403 H   0  0  0  0  0  0  0  0  0  0  0  0
    0.8245   24.3859   34.5579 H   0  0  0  0  0  0  0  0  0  0  0  0
    2.5324   24.2996   34.0083 H   0  0  0  0  0  0  0  0  0  0  0  0
    1.5338   22.8079   34.0746 H   0  0  0  0  0  0  0  0  0  0  0  0
    4.9797   22.1476   37.6655 H   0  0  0  0  0  0  0  0  0  0  0  0
    4.1554   23.7943   38.1165 H   0  0  0  0  0  0  0  0  0  0  0  0
    2.2434   12.7997   38.7772 H   0  0  0  0  0  0  0  0  0  0  0  0
    2.9012   13.2098   37.2615 H   0  0  0  0  0  0  0  0  0  0  0  0
    3.3132   20.9940   38.6640 H   0  0  0  0  0  0  0  0  0  0  0  0
    1.5642   13.0475   40.2555 H   0  0  0  0  0  0  0  0  0  0  0  0
    1.1234   13.4190   41.9531 H   0  0  0  0  0  0  0  0  0  0  0  0
    2.4606   18.5467   42.0495 H   0  0  0  0  0  0  0  0  0  0  0  0
    1.4170   18.0494   40.6745 H   0  0  0  0  0  0  0  0  0  0  0  0
    3.1490   17.5742   40.7053 H   0  0  0  0  0  0  0  0  0  0  0  0
   -0.3091   15.1962   38.1158 H   0  0  0  0  0  0  0  0  0  0  0  0
    3.0196   16.2471   37.8498 H   0  0  0  0  0  0  0  0  0  0  0  0
    1.7220   16.7513   37.0745 H   0  0  0  0  0  0  0  0  0  0  0  0
    3.8290   22.6071   33.6841 H   0  0  0  0  0  0  0  0  0  0  0  0
    4.1319   24.3593   33.4294 H   0  0  0  0  0  0  0  0  0  0  0  0
    5.5103   23.2092   33.4907 H   0  0  0  0  0  0  0  0  0  0  0  0
    5.2453   22.7339   35.3743 H   0  0  0  0  0  0  0  0  0  0  0  0
    0.3868   22.4834   36.6860 H   0  0  0  0  0  0  0  0  0  0  0  0
    1.8966   21.4268   36.5633 H   0  0  0  0  0  0  0  0  0  0  0  0
    3.8616   14.0110   39.8566 H   0  0  0  0  0  0  0  0  0  0  0  0
    2.5250   20.9758   43.1049 H   0  0  0  0  0  0  0  0  0  0  0  0
    3.8133   19.7534   42.8357 H   0  0  0  0  0  0  0  0  0  0  0  0
    4.2055   21.5045   42.7542 H   0  0  0  0  0  0  0  0  0  0  0  0
  1  6  1  0
  2 27  1  0
  3 16  1  0
  3 20  1  0
  4 14  1  0
  4  9  1  0
  4 24  1  0
  6 18  1  0
  7 19  1  0
  7  2  2  3
  8 11  1  0
  9 23  1  0
  9 15  1  0
 10 18  1  0
 12 17  1  0
 13  2  1  0
 15 17  1  0
 16 26  1  0
 17 13  1  0
 20  1  1  0
 21  3  1  0
 21  1  1  0
 23 22  1  0
 23  8  1  0
 24 12  1  0
 26 25  1  0
 26  5  1  0
  1 28  1  1
  4 29  1  1
  5 30  1  0
  6 31  1  0
  6 32  1  0
  7 33  1  0
  8 34  1  0
  8 35  1  0
  9 36  1  6
 10 37  1  0
 11 38  1  0
 11 39  1  0
 11 40  1  0
 12 41  1  0
 12 42  1  0
 13 43  1  0
 13 44  1  0
 14 45  1  0
 14 46  1  0
 14 47  1  0
 15 48  1  0
 15 49  1  0
 16 50  1  0
 16 51  1  0
 17 52  1  6
 18 53  1  0
 18 54  1  0
 19 55  1  0
 19 56  1  0
 19 57  1  0
 20 58  1  0
 21 59  1  0
 21 60  1  0
 22 61  1  0
 22 62  1  0
 22 63  1  0
 23 64  1  1
 24 65  1  0
 24 66  1  0
 26 67  1  1
 27 68  1  0
 27 69  1  0
 27 70  1  0
M  CHG  1  13   1
M  END
>  <mol_id>  (93) 
2026-09-18-6fnk-s0-n100-0094

>  <rmsd_to_ref>  (93) 


$$$$

     RDKit          3D

 57 58  0  0  0  0  0  0  0  0999 V2000
    0.8039   21.2944   43.7033 F   0  0  0  0  0  0  0  0  0  0  0  0
    1.1194   16.0795   40.3824 C   0  0  0  0  0  0  0  0  0  0  0  0
    1.1984   23.5423   35.2632 C   0  0  0  0  0  0  0  0  0  0  0  0
   -0.4052   15.7872   37.3787 C   0  0  0  0  0  0  0  0  0  0  0  0
    0.3180   25.7644   34.5611 C   0  0  0  0  0  0  0  0  0  0  0  0
    2.2758   22.6646   35.2937 C   0  0  0  0  0  0  0  0  0  0  0  0
    3.1819   16.0246   37.3476 C   0  0  0  0  0  0  0  0  0  0  0  0
    3.4573   23.0008   34.5575 C   0  0  0  0  0  0  0  0  0  0  0  0
    1.9611   19.4705   43.4350 C   0  0  2  0  0  0  0  0  0  0  0  0
    1.3113   21.4524   36.9733 O   0  0  0  0  0  0  0  0  0  0  0  0
    2.7116   21.6378   42.6425 F   0  0  0  0  0  0  0  0  0  0  0  0
    0.4547   18.2311   41.6019 C   0  0  2  0  0  0  0  0  0  0  0  0
    1.5909   18.3823   42.7412 C   0  0  0  0  0  0  0  0  0  0  0  0
    1.2280   24.7518   34.4729 C   0  0  0  0  0  0  0  0  0  0  0  0
    2.3249   24.8807   33.5450 C   0  0  0  0  0  0  0  0  0  0  0  0
    3.4470   24.0263   33.6351 C   0  0  0  0  0  0  0  0  0  0  0  0
    2.1707   21.4924   35.9854 N   0  0  0  0  0  0  0  0  0  0  0  0
    3.1060   20.6785   36.0399 O   0  0  0  0  0  0  0  0  0  0  0  0
    2.6710   19.5610   44.6799 C   0  0  0  0  0  0  0  0  0  0  0  0
    0.7610   20.8398   41.6284 C   0  0  0  0  0  0  0  0  0  0  0  0
   -0.5640   17.2751   42.2323 C   0  0  0  0  0  0  0  0  0  0  0  0
    2.0144   15.8342   36.7468 N   0  0  0  0  0  0  0  0  0  0  0  0
    1.7126   16.0339   38.9243 C   0  0  0  0  0  0  0  0  0  0  0  0
    1.5223   20.7629   42.8028 C   0  0  0  0  0  0  0  0  0  0  0  0
    2.9886   16.1722   38.5916 N   0  0  0  0  0  0  0  0  0  0  0  0
    1.0972   17.5017   40.4905 N   0  0  0  0  0  0  0  0  0  0  0  0
    0.0487   19.6116   41.2610 C   0  0  0  0  0  0  0  0  0  0  0  0
    1.1430   15.8297   37.7111 C   0  0  0  0  0  0  0  0  0  0  0  0
    1.7797   15.6072   41.1247 H   0  0  0  0  0  0  0  0  0  0  0  0
    0.1717   15.5483   40.5553 H   0  0  0  0  0  0  0  0  0  0  0  0
    0.3009   23.3105   35.8555 H   0  0  0  0  0  0  0  0  0  0  0  0
   -0.9816   15.7832   38.3156 H   0  0  0  0  0  0  0  0  0  0  0  0
   -0.6772   16.6722   36.7848 H   0  0  0  0  0  0  0  0  0  0  0  0
   -0.6321   14.8767   36.8048 H   0  0  0  0  0  0  0  0  0  0  0  0
   -0.0858   25.8065   35.5835 H   0  0  0  0  0  0  0  0  0  0  0  0
    0.8078   26.7195   34.3207 H   0  0  0  0  0  0  0  0  0  0  0  0
   -0.5017   25.5835   33.8502 H   0  0  0  0  0  0  0  0  0  0  0  0
    4.1608   16.0504   36.8465 H   0  0  0  0  0  0  0  0  0  0  0  0
    4.3844   22.4342   34.7297 H   0  0  0  0  0  0  0  0  0  0  0  0
    2.9157   19.4940   42.8889 H   0  0  0  0  0  0  0  0  0  0  0  0
    1.3006   17.6539   43.5127 H   0  0  0  0  0  0  0  0  0  0  0  0
    2.4723   18.3123   42.0868 H   0  0  0  0  0  0  0  0  0  0  0  0
    2.2876   25.6507   32.7604 H   0  0  0  0  0  0  0  0  0  0  0  0
    4.3105   24.1788   32.9710 H   0  0  0  0  0  0  0  0  0  0  0  0
    1.9543   19.5312   45.5138 H   0  0  0  0  0  0  0  0  0  0  0  0
    3.3692   18.7153   44.7662 H   0  0  0  0  0  0  0  0  0  0  0  0
    3.2335   20.5058   44.7135 H   0  0  0  0  0  0  0  0  0  0  0  0
    0.0161   21.6387   41.7580 H   0  0  0  0  0  0  0  0  0  0  0  0
    1.4761   21.0313   40.8147 H   0  0  0  0  0  0  0  0  0  0  0  0
   -0.7203   17.5487   43.2862 H   0  0  0  0  0  0  0  0  0  0  0  0
   -1.5182   17.3462   41.6896 H   0  0  0  0  0  0  0  0  0  0  0  0
   -0.1847   16.2443   42.1735 H   0  0  0  0  0  0  0  0  0  0  0  0
    3.7383   16.3764   39.2678 H   0  0  0  0  0  0  0  0  0  0  0  0
    2.0837   17.7978   40.4943 H   0  0  0  0  0  0  0  0  0  0  0  0
    0.4772   17.7500   39.7063 H   0  0  0  0  0  0  0  0  0  0  0  0
   -0.9601   19.7271   41.6841 H   0  0  0  0  0  0  0  0  0  0  0  0
    0.2448   19.6005   40.1787 H   0  0  0  0  0  0  0  0  0  0  0  0
  2 26  1  0
  6  3  2  0
  6 17  1  0
  7 25  1  0
  8  6  1  0
  9 19  1  0
 11 24  1  0
 12 13  1  0
 12 21  1  1
 13  9  1  0
 14  5  1  0
 14  3  1  0
 15 14  2  0
 16 15  1  0
 16  8  2  0
 17 10  1  0
 18 17  2  0
 20 24  1  0
 22  7  2  0
 22 28  1  0
 23  2  1  0
 24  9  1  0
 24  1  1  0
 25 23  1  0
 26 12  1  0
 27 20  1  0
 27 12  1  0
 28  4  1  0
 28 23  2  0
  2 29  1  0
  2 30  1  0
  3 31  1  0
  4 32  1  0
  4 33  1  0
  4 34  1  0
  5 35  1  0
  5 36  1  0
  5 37  1  0
  7 38  1  0
  8 39  1  0
  9 40  1  6
 13 41  1  0
 13 42  1  0
 15 43  1  0
 16 44  1  0
 19 45  1  0
 19 46  1  0
 19 47  1  0
 20 48  1  0
 20 49  1  0
 21 50  1  0
 21 51  1  0
 21 52  1  0
 25 53  1  0
 26 54  1  0
 26 55  1  0
 27 56  1  0
 27 57  1  0
M  CHG  3  10  -1  17   1  26   1
M  END
>  <mol_id>  (94) 
2026-09-18-6fnk-s0-n100-0095

>  <rmsd_to_ref>  (94) 


$$$$

     RDKit          3D

 48 49  0  0  0  0  0  0  0  0999 V2000
    6.7501   22.7984   37.4261 Cl  0  0  0  0  0  0  0  0  0  0  0  0
   -1.7913   15.8368   40.1423 C   0  0  0  0  0  0  0  0  0  0  0  0
   -2.8735   15.8254   39.4138 N   0  0  0  0  0  0  0  0  0  0  0  0
    4.9496   23.3548   35.3870 C   0  0  0  0  0  0  0  0  0  0  0  0
    1.0738   17.9973   40.7237 C   0  0  0  0  0  0  0  0  0  0  0  0
    1.3857   17.5559   42.1930 C   0  0  0  0  0  0  0  0  0  0  0  0
    1.7647   20.3261   41.3439 C   0  0  0  0  0  0  0  0  0  0  0  0
    2.7787   22.2205   36.8165 C   0  0  0  0  0  0  0  0  0  0  0  0
    1.6076   21.2888   37.6800 Cl  0  0  0  0  0  0  0  0  0  0  0  0
   -0.6927   16.7548   40.0330 O   0  0  0  0  0  0  0  0  0  0  0  0
    3.1116   24.4283   33.7137 C   0  0  0  0  0  0  0  0  0  0  0  0
    5.1104   22.7425   36.6656 C   0  0  1  0  0  0  0  0  0  0  0  0
    1.4408   19.3239   40.1184 C   0  0  0  0  0  0  0  0  0  0  0  0
    0.5726   17.0126   39.6393 C   0  0  0  0  0  0  0  0  0  0  0  0
    2.1515   19.8597   42.7031 C   0  0  0  0  0  0  0  0  0  0  0  0
    1.1362   26.2837   34.0199 C   0  0  0  0  0  0  0  0  0  0  0  0
    1.9045   18.4816   43.0302 C   0  0  0  0  0  0  0  0  0  0  0  0
    1.0049   24.1916   35.5727 S   0  0  0  0  0  0  0  0  0  0  0  0
    2.5286   23.1445   35.8221 C   0  0  1  0  0  0  0  0  0  0  0  0
   -1.4979   14.8434   41.1362 N   0  0  0  0  0  0  0  0  0  0  0  0
    0.0864   27.0587   34.8400 C   0  0  0  0  0  0  0  0  0  0  0  0
    1.8199   21.8348   40.9803 Cl  0  0  0  0  0  0  0  0  0  0  0  0
    3.6073   23.6283   35.0279 C   0  0  2  0  0  0  0  0  0  0  0  0
    1.7147   25.0776   34.2675 C   0  0  2  0  0  0  0  0  0  0  0  0
    4.0971   22.0360   37.3002 C   0  0  0  0  0  0  0  0  0  0  0  0
   -3.0316   16.5652   38.7148 H   0  0  0  0  0  0  0  0  0  0  0  0
    5.5043   24.3046   35.3895 H   0  0  0  0  0  0  0  0  0  0  0  0
    5.3291   22.6347   34.6472 H   0  0  0  0  0  0  0  0  0  0  0  0
    1.1895   16.5281   42.5323 H   0  0  0  0  0  0  0  0  0  0  0  0
    2.9357   23.7485   32.8669 H   0  0  0  0  0  0  0  0  0  0  0  0
    3.8339   25.1605   33.3235 H   0  0  0  0  0  0  0  0  0  0  0  0
    4.7694   23.6684   37.1519 H   0  0  0  0  0  0  0  0  0  0  0  0
    1.4811   19.5659   39.0461 H   0  0  0  0  0  0  0  0  0  0  0  0
    1.1786   16.0948   39.6267 H   0  0  0  0  0  0  0  0  0  0  0  0
    0.6376   17.4179   38.6187 H   0  0  0  0  0  0  0  0  0  0  0  0
    2.6099   20.5447   43.4315 H   0  0  0  0  0  0  0  0  0  0  0  0
    0.6700   26.1617   33.0311 H   0  0  0  0  0  0  0  0  0  0  0  0
    2.0048   26.9159   34.2561 H   0  0  0  0  0  0  0  0  0  0  0  0
    2.1596   18.1526   44.0484 H   0  0  0  0  0  0  0  0  0  0  0  0
    2.0195   22.1770   35.7008 H   0  0  0  0  0  0  0  0  0  0  0  0
   -0.6267   14.9029   41.6824 H   0  0  0  0  0  0  0  0  0  0  0  0
   -2.1586   14.0710   41.3031 H   0  0  0  0  0  0  0  0  0  0  0  0
    0.3085   26.9541   35.9122 H   0  0  0  0  0  0  0  0  0  0  0  0
    0.1156   28.1224   34.5615 H   0  0  0  0  0  0  0  0  0  0  0  0
   -0.9145   26.6525   34.6317 H   0  0  0  0  0  0  0  0  0  0  0  0
    3.5643   22.6823   34.4682 H   0  0  0  0  0  0  0  0  0  0  0  0
    1.6314   25.1810   33.1756 H   0  0  0  0  0  0  0  0  0  0  0  0
    4.3095   21.3616   38.1428 H   0  0  0  0  0  0  0  0  0  0  0  0
  2 20  1  0
  3  2  2  3
  4 12  1  0
  5  6  2  0
  6 17  1  0
  7 15  1  0
  8 25  2  0
  8  9  1  0
 10  2  1  0
 11 24  1  0
 12 25  1  0
 12  1  1  0
 13  5  1  0
 13  7  2  0
 14 10  1  0
 14  5  1  0
 15 17  2  0
 16 21  1  0
 19 18  1  0
 19  8  1  0
 22  7  1  0
 23 11  1  0
 23  4  1  0
 23 19  1  0
 24 16  1  0
 24 18  1  0
  3 26  1  0
  4 27  1  0
  4 28  1  0
  6 29  1  0
 11 30  1  0
 11 31  1  0
 12 32  1  1
 13 33  1  0
 14 34  1  0
 14 35  1  0
 15 36  1  0
 16 37  1  0
 16 38  1  0
 17 39  1  0
 19 40  1  6
 20 41  1  0
 20 42  1  0
 21 43  1  0
 21 44  1  0
 21 45  1  0
 23 46  1  1
 24 47  1  6
 25 48  1  0
M  END
>  <mol_id>  (95) 
2026-09-18-6fnk-s0-n100-0096

>  <rmsd_to_ref>  (95) 


$$$$

     RDKit          3D

 84 85  0  0  0  0  0  0  0  0999 V2000
    1.6522   17.4601   42.8861 C   0  0  0  0  0  0  0  0  0  0  0  0
   -2.7217   19.5754   37.7269 C   0  0  0  0  0  0  0  0  0  0  0  0
    2.0447   22.0257   39.1932 C   0  0  0  0  0  0  0  0  0  0  0  0
   -3.8595   18.8739   36.9963 C   0  0  0  0  0  0  0  0  0  0  0  0
    0.2576   24.8337   35.1678 C   0  0  2  0  0  0  0  0  0  0  0  0
    2.0809   23.3710   36.6031 C   0  0  0  0  0  0  0  0  0  0  0  0
    0.6357   15.7074   40.6101 C   0  0  1  0  0  0  0  0  0  0  0  0
   -0.8456   23.7090   36.0601 C   0  0  0  0  0  0  0  0  0  0  0  0
    0.7535   15.4926   42.0361 O   0  0  0  0  0  0  0  0  0  0  0  0
    0.8997   17.1216   40.0746 C   0  0  2  0  0  0  0  0  0  0  0  0
    2.4470   15.0660   39.6155 O   0  0  0  0  0  0  0  0  0  0  0  0
    2.3444   18.4205   38.8378 O   0  0  0  0  0  0  0  0  0  0  0  0
    2.5047   24.1701   34.2602 C   0  0  1  0  0  0  0  0  0  0  0  0
   -1.3884   27.5287   35.6183 C   0  0  0  0  0  0  0  0  0  0  0  0
    1.6622   19.8143   42.6758 C   0  0  2  0  0  0  0  0  0  0  0  0
   -0.8270   27.2299   34.3429 C   0  0  0  0  0  0  0  0  0  0  0  0
    0.1612   25.8384   33.9518 C   0  0  1  0  0  0  0  0  0  0  0  0
    2.2144   20.8170   42.6042 C   0  0  1  0  0  0  0  0  0  0  0  0
    1.6837   22.7766   37.7661 C   0  0  0  0  0  0  0  0  0  0  0  0
    1.3805   24.7716   34.2627 C   0  0  2  0  0  0  0  0  0  0  0  0
    1.1895   14.6965   39.8414 C   0  0  0  0  0  0  0  0  0  0  0  0
    1.5426   21.5544   40.3217 C   0  0  0  0  0  0  0  0  0  0  0  0
    2.9433   21.5698   43.6702 C   0  0  0  0  0  0  0  0  0  0  0  0
    2.5773   23.2661   35.5473 C   0  0  0  0  0  0  0  0  0  0  0  0
    1.8420   16.9713   38.9336 C   0  0  0  0  0  0  0  0  0  0  0  0
    1.5548   18.7785   44.1111 S   0  0  0  0  0  0  0  0  0  0  0  0
   -0.5992   28.6869   35.9279 C   0  0  0  0  0  0  0  0  0  0  0  0
    1.2679   18.4031   41.9772 C   0  0  1  0  0  0  0  0  0  0  0  0
    1.5460   16.5670   37.6185 O   0  0  0  0  0  0  0  0  0  0  0  0
    2.2723   21.4592   41.4006 O   0  0  0  0  0  0  0  0  0  0  0  0
    5.3766   23.9359   32.3192 C   0  0  0  0  0  0  0  0  0  0  0  0
    2.5754   24.4556   32.9441 O   0  0  0  0  0  0  0  0  0  0  0  0
    4.0318   24.4002   33.3068 C   0  0  1  0  0  0  0  0  0  0  0  0
    1.3458   18.2569   40.8211 N   0  0  0  0  0  0  0  0  0  0  0  0
    2.6593   17.0466   42.7284 H   0  0  0  0  0  0  0  0  0  0  0  0
    1.1221   16.5036   43.0047 H   0  0  0  0  0  0  0  0  0  0  0  0
   -2.9522   19.6267   38.8012 H   0  0  0  0  0  0  0  0  0  0  0  0
   -1.7884   19.0123   37.5786 H   0  0  0  0  0  0  0  0  0  0  0  0
   -2.6028   20.5937   37.3283 H   0  0  0  0  0  0  0  0  0  0  0  0
    3.1302   21.8482   39.2113 H   0  0  0  0  0  0  0  0  0  0  0  0
   -4.6377   18.5874   37.7189 H   0  0  0  0  0  0  0  0  0  0  0  0
   -4.2883   19.5545   36.2462 H   0  0  0  0  0  0  0  0  0  0  0  0
   -3.4739   17.9731   36.4964 H   0  0  0  0  0  0  0  0  0  0  0  0
    0.1277   24.8681   36.2596 H   0  0  0  0  0  0  0  0  0  0  0  0
    1.1214   23.8147   36.2995 H   0  0  0  0  0  0  0  0  0  0  0  0
    3.0766   23.5345   37.0413 H   0  0  0  0  0  0  0  0  0  0  0  0
   -0.4534   15.6353   40.4735 H   0  0  0  0  0  0  0  0  0  0  0  0
   -0.8749   23.9906   37.1230 H   0  0  0  0  0  0  0  0  0  0  0  0
   -1.8581   23.7750   35.6354 H   0  0  0  0  0  0  0  0  0  0  0  0
   -0.4741   22.6781   35.9640 H   0  0  0  0  0  0  0  0  0  0  0  0
    0.0462   16.0016   42.5060 H   0  0  0  0  0  0  0  0  0  0  0  0
   -0.1466   17.4306   39.9343 H   0  0  0  0  0  0  0  0  0  0  0  0
    2.8795   15.3058   40.4731 H   0  0  0  0  0  0  0  0  0  0  0  0
    2.2987   18.8453   39.7308 H   0  0  0  0  0  0  0  0  0  0  0  0
   -1.2323   26.7147   36.3416 H   0  0  0  0  0  0  0  0  0  0  0  0
   -2.4788   27.6720   35.6402 H   0  0  0  0  0  0  0  0  0  0  0  0
    1.3758   20.7462   42.1663 H   0  0  0  0  0  0  0  0  0  0  0  0
   -1.6847   27.1762   33.6562 H   0  0  0  0  0  0  0  0  0  0  0  0
   -0.0659   28.0219   34.2838 H   0  0  0  0  0  0  0  0  0  0  0  0
   -0.0383   26.2512   32.9518 H   0  0  0  0  0  0  0  0  0  0  0  0
    1.2862   21.3467   42.8648 H   0  0  0  0  0  0  0  0  0  0  0  0
    0.5848   22.8176   37.7409 H   0  0  0  0  0  0  0  0  0  0  0  0
    1.0408   24.1402   33.4284 H   0  0  0  0  0  0  0  0  0  0  0  0
    0.6434   14.5931   38.8921 H   0  0  0  0  0  0  0  0  0  0  0  0
    1.1370   13.7229   40.3507 H   0  0  0  0  0  0  0  0  0  0  0  0
    0.6909   22.2015   40.5779 H   0  0  0  0  0  0  0  0  0  0  0  0
    1.3443   20.5012   40.0736 H   0  0  0  0  0  0  0  0  0  0  0  0
    2.4517   21.4009   44.6397 H   0  0  0  0  0  0  0  0  0  0  0  0
    3.9843   21.2182   43.7207 H   0  0  0  0  0  0  0  0  0  0  0  0
    2.9301   22.6441   43.4346 H   0  0  0  0  0  0  0  0  0  0  0  0
    2.2311   22.2835   35.1941 H   0  0  0  0  0  0  0  0  0  0  0  0
    3.5913   23.5628   35.8537 H   0  0  0  0  0  0  0  0  0  0  0  0
    2.4438   16.0902   39.2011 H   0  0  0  0  0  0  0  0  0  0  0  0
   -0.6836   28.9119   37.0013 H   0  0  0  0  0  0  0  0  0  0  0  0
    0.4536   28.4914   35.6759 H   0  0  0  0  0  0  0  0  0  0  0  0
   -0.9628   29.5452   35.3437 H   0  0  0  0  0  0  0  0  0  0  0  0
    0.1896   18.3057   41.7831 H   0  0  0  0  0  0  0  0  0  0  0  0
    0.6958   16.0598   37.6126 H   0  0  0  0  0  0  0  0  0  0  0  0
    6.2182   23.6386   32.9621 H   0  0  0  0  0  0  0  0  0  0  0  0
    5.0868   23.0892   31.6795 H   0  0  0  0  0  0  0  0  0  0  0  0
    5.6789   24.7851   31.6887 H   0  0  0  0  0  0  0  0  0  0  0  0
    5.0374   24.7483   33.5852 H   0  0  0  0  0  0  0  0  0  0  0  0
    2.3502   18.3394   40.6082 H   0  0  0  0  0  0  0  0  0  0  0  0
    0.6458   18.9477   40.5148 H   0  0  0  0  0  0  0  0  0  0  0  0
  1 26  1  0
  3 22  1  0
  4  2  1  0
  5  8  1  0
  6 19  1  0
  7  9  1  0
 10 25  1  0
 10  7  1  0
 10 34  1  0
 11 21  1  0
 12 25  1  0
 13 24  1  6
 14 27  1  0
 15 18  1  0
 15 26  1  0
 16 14  1  0
 17 20  1  0
 17 16  1  0
 17  5  1  0
 18 23  1  0
 19  3  2  3
 20 13  1  0
 20  5  1  0
 21  7  1  0
 22 30  1  0
 24  6  1  0
 28 34  1  0
 28 15  1  0
 28  1  1  0
 29 25  1  0
 30 18  1  0
 32 33  1  0
 32 13  1  0
 33 31  1  0
 33 13  1  0
  1 35  1  0
  1 36  1  0
  2 37  1  0
  2 38  1  0
  2 39  1  0
  3 40  1  0
  4 41  1  0
  4 42  1  0
  4 43  1  0
  5 44  1  1
  6 45  1  0
  6 46  1  0
  7 47  1  1
  8 48  1  0
  8 49  1  0
  8 50  1  0
  9 51  1  0
 10 52  1  6
 11 53  1  0
 12 54  1  0
 14 55  1  0
 14 56  1  0
 15 57  1  1
 16 58  1  0
 16 59  1  0
 17 60  1  6
 18 61  1  1
 19 62  1  0
 20 63  1  6
 21 64  1  0
 21 65  1  0
 22 66  1  0
 22 67  1  0
 23 68  1  0
 23 69  1  0
 23 70  1  0
 24 71  1  0
 24 72  1  0
 25 73  1  0
 27 74  1  0
 27 75  1  0
 27 76  1  0
 28 77  1  6
 29 78  1  0
 31 79  1  0
 31 80  1  0
 31 81  1  0
 33 82  1  1
 34 83  1  0
 34 84  1  0
M  CHG  1  34   1
M  END
>  <mol_id>  (96) 
2026-09-18-6fnk-s0-n100-0097

>  <rmsd_to_ref>  (96) 


$$$$

     RDKit          3D

 59 58  0  0  0  0  0  0  0  0999 V2000
    2.7130   23.3904   37.0992 C   0  0  0  0  0  0  0  0  0  0  0  0
   -0.5548   16.4368   37.7649 C   0  0  0  0  0  0  0  0  0  0  0  0
    1.8289   21.2055   41.0278 C   0  0  2  0  0  0  0  0  0  0  0  0
   -0.0509   15.9090   39.0617 C   0  0  0  0  0  0  0  0  0  0  0  0
    5.9477   24.1532   36.7956 C   0  0  0  0  0  0  0  0  0  0  0  0
    1.4651   21.1764   42.4783 C   0  0  0  0  0  0  0  0  0  0  0  0
    3.3221   23.7517   35.7438 C   0  0  0  0  0  0  0  0  0  0  0  0
    3.5389   23.1262   38.2983 C   0  0  0  0  0  0  0  0  0  0  0  0
    2.4173   22.0848   40.2703 C   0  0  0  0  0  0  0  0  0  0  0  0
   -1.0116   16.3654   40.1562 C   0  0  2  0  0  0  0  0  0  0  0  0
    0.5986   22.3479   42.8427 C   0  0  0  0  0  0  0  0  0  0  0  0
   -2.3852   15.4205   41.9508 O   0  0  0  0  0  0  0  0  0  0  0  0
    1.7344   18.9523   40.3472 C   0  0  0  0  0  0  0  0  0  0  0  0
    0.1515   23.0409   41.9859 O   0  0  0  0  0  0  0  0  0  0  0  0
    1.8339   24.8637   33.9504 C   0  0  0  0  0  0  0  0  0  0  0  0
    0.1434   26.4908   33.1320 C   0  0  0  0  0  0  0  0  0  0  0  0
    2.9809   22.1067   38.8954 C   0  0  0  0  0  0  0  0  0  0  0  0
    0.9556   25.8652   34.3719 C   0  0  0  0  0  0  0  0  0  0  0  0
    4.9484   23.9653   35.6492 C   0  0  0  0  0  0  0  0  0  0  0  0
    1.3909   20.2093   40.2484 O   0  0  0  0  0  0  0  0  0  0  0  0
    0.3609   22.4955   44.1104 O   0  0  0  0  0  0  0  0  0  0  0  0
   -2.6375   14.2387   42.8725 N   0  0  0  0  0  0  0  0  0  0  0  0
    0.7132   26.7627   31.6365 S   0  0  0  0  0  0  0  0  0  0  0  0
   -1.7289   17.3319   38.0894 C   0  0  0  0  0  0  0  0  0  0  0  0
   -1.2190   15.1272   41.0942 C   0  0  0  0  0  0  0  0  0  0  0  0
    2.5643   24.1327   34.6969 C   0  0  0  0  0  0  0  0  0  0  0  0
   -2.1468   16.8215   39.4139 O   0  0  0  0  0  0  0  0  0  0  0  0
    2.1164   22.4813   36.9332 H   0  0  0  0  0  0  0  0  0  0  0  0
    2.2081   24.3277   37.3760 H   0  0  0  0  0  0  0  0  0  0  0  0
   -0.8772   15.6081   37.1173 H   0  0  0  0  0  0  0  0  0  0  0  0
    0.2305   16.9912   37.2302 H   0  0  0  0  0  0  0  0  0  0  0  0
    2.8046   20.7556   41.2634 H   0  0  0  0  0  0  0  0  0  0  0  0
   -0.0148   14.8101   39.0297 H   0  0  0  0  0  0  0  0  0  0  0  0
    0.9641   16.2837   39.2605 H   0  0  0  0  0  0  0  0  0  0  0  0
    5.4028   24.2311   37.7480 H   0  0  0  0  0  0  0  0  0  0  0  0
    6.6295   23.2908   36.8327 H   0  0  0  0  0  0  0  0  0  0  0  0
    6.5281   25.0727   36.6290 H   0  0  0  0  0  0  0  0  0  0  0  0
    0.9198   20.2457   42.6932 H   0  0  0  0  0  0  0  0  0  0  0  0
    2.3901   21.2287   43.0712 H   0  0  0  0  0  0  0  0  0  0  0  0
    4.5710   22.8819   38.0066 H   0  0  0  0  0  0  0  0  0  0  0  0
    3.5888   24.0051   38.9579 H   0  0  0  0  0  0  0  0  0  0  0  0
    2.5244   23.0565   40.7745 H   0  0  0  0  0  0  0  0  0  0  0  0
   -0.6991   17.1779   40.8285 H   0  0  0  0  0  0  0  0  0  0  0  0
    1.9384   18.7097   41.4005 H   0  0  0  0  0  0  0  0  0  0  0  0
    0.9154   18.3182   39.9768 H   0  0  0  0  0  0  0  0  0  0  0  0
    2.6385   18.7710   39.7475 H   0  0  0  0  0  0  0  0  0  0  0  0
    1.9020   24.6884   32.8666 H   0  0  0  0  0  0  0  0  0  0  0  0
   -0.9064   26.7624   33.3168 H   0  0  0  0  0  0  0  0  0  0  0  0
    2.9226   21.1696   38.3224 H   0  0  0  0  0  0  0  0  0  0  0  0
    0.2401   25.4358   35.0886 H   0  0  0  0  0  0  0  0  0  0  0  0
    1.5436   26.6673   34.8416 H   0  0  0  0  0  0  0  0  0  0  0  0
    5.3131   23.0815   35.1053 H   0  0  0  0  0  0  0  0  0  0  0  0
    4.9561   24.9923   35.2551 H   0  0  0  0  0  0  0  0  0  0  0  0
   -2.4920   14.5286   43.8501 H   0  0  0  0  0  0  0  0  0  0  0  0
   -3.6062   13.9102   42.7522 H   0  0  0  0  0  0  0  0  0  0  0  0
   -1.4235   18.3872   38.1457 H   0  0  0  0  0  0  0  0  0  0  0  0
   -2.5270   17.3089   37.3328 H   0  0  0  0  0  0  0  0  0  0  0  0
   -1.4100   14.2262   40.4928 H   0  0  0  0  0  0  0  0  0  0  0  0
   -0.3221   14.9442   41.7042 H   0  0  0  0  0  0  0  0  0  0  0  0
  1  8  1  0
  2 24  1  0
  2  4  1  0
  3  9  1  0
  3  6  1  0
  4 10  1  0
  6 11  1  0
  7 19  1  0
  7  1  1  0
  8 17  1  0
 10 25  1  0
 11 21  1  0
 12 22  1  0
 13 20  1  0
 14 11  2  0
 15 18  1  0
 15 26  2  0
 16 18  1  0
 17  9  2  3
 19  5  1  0
 20  3  1  0
 23 16  2  0
 24 27  1  0
 25 12  1  0
 26  7  2  0
 27 10  1  0
  1 28  1  0
  1 29  1  0
  2 30  1  0
  2 31  1  0
  3 32  1  1
  4 33  1  0
  4 34  1  0
  5 35  1  0
  5 36  1  0
  5 37  1  0
  6 38  1  0
  6 39  1  0
  8 40  1  0
  8 41  1  0
  9 42  1  0
 10 43  1  1
 13 44  1  0
 13 45  1  0
 13 46  1  0
 15 47  1  0
 16 48  1  0
 17 49  1  0
 18 50  1  0
 18 51  1  0
 19 52  1  0
 19 53  1  0
 22 54  1  0
 22 55  1  0
 24 56  1  0
 24 57  1  0
 25 58  1  0
 25 59  1  0
M  CHG  1  21  -1
M  END
>  <mol_id>  (97) 
2026-09-18-6fnk-s0-n100-0098

>  <rmsd_to_ref>  (97) 


$$$$

     RDKit          3D

 43 43  0  0  0  0  0  0  0  0999 V2000
    4.9508   23.3696   37.0492 C   0  0  0  0  0  0  0  0  0  0  0  0
    2.9256   19.8226   39.3372 C   0  0  0  0  0  0  0  0  0  0  0  0
    3.0436   21.8103   37.6333 C   0  0  0  0  0  0  0  0  0  0  0  0
    0.5830   17.1852   37.2737 C   0  0  0  0  0  0  0  0  0  0  0  0
    4.5202   23.3879   35.4299 C   0  0  0  0  0  0  0  0  0  0  0  0
    1.8833   18.0926   41.3186 C   0  0  0  0  0  0  0  0  0  0  0  0
    1.9859   18.6364   38.8878 C   0  0  0  0  0  0  0  0  0  0  0  0
    2.6254   19.1658   41.7012 C   0  0  0  0  0  0  0  0  0  0  0  0
    0.0690   17.3284   35.9842 O   0  0  0  0  0  0  0  0  0  0  0  0
    2.4832   18.0965   36.6132 O   0  0  0  0  0  0  0  0  0  0  0  0
    1.4964   18.1636   40.0194 C   0  0  0  0  0  0  0  0  0  0  0  0
    1.5460   18.3424   37.5877 C   0  0  1  0  0  0  0  0  0  0  0  0
    3.6025   20.5500   38.2850 C   0  0  0  0  0  0  0  0  0  0  0  0
    3.1670   20.0150   40.6955 C   0  0  0  0  0  0  0  0  0  0  0  0
    3.8967   23.9968   32.9707 C   0  0  0  0  0  0  0  0  0  0  0  0
    3.7449   23.7458   34.4626 C   0  0  0  0  0  0  0  0  0  0  0  0
    3.7099   22.9867   37.9407 C   0  0  0  0  0  0  0  0  0  0  0  0
    5.3125   24.3670   37.3398 H   0  0  0  0  0  0  0  0  0  0  0  0
    5.7440   22.6224   37.2001 H   0  0  0  0  0  0  0  0  0  0  0  0
    1.9965   21.9207   37.9516 H   0  0  0  0  0  0  0  0  0  0  0  0
    3.1648   21.6690   36.5491 H   0  0  0  0  0  0  0  0  0  0  0  0
    1.1247   16.2306   37.3460 H   0  0  0  0  0  0  0  0  0  0  0  0
   -0.2462   17.1993   37.9965 H   0  0  0  0  0  0  0  0  0  0  0  0
    5.4647   23.7787   35.0234 H   0  0  0  0  0  0  0  0  0  0  0  0
    3.8312   22.5552   35.6345 H   0  0  0  0  0  0  0  0  0  0  0  0
    2.4831   17.1812   41.4586 H   0  0  0  0  0  0  0  0  0  0  0  0
    0.9739   18.0778   41.9375 H   0  0  0  0  0  0  0  0  0  0  0  0
    2.8037   19.3735   42.7665 H   0  0  0  0  0  0  0  0  0  0  0  0
   -0.8868   17.5812   36.0361 H   0  0  0  0  0  0  0  0  0  0  0  0
    3.3466   17.8626   37.0372 H   0  0  0  0  0  0  0  0  0  0  0  0
    0.5328   18.6891   40.0928 H   0  0  0  0  0  0  0  0  0  0  0  0
    1.7881   17.1263   39.7985 H   0  0  0  0  0  0  0  0  0  0  0  0
    1.0452   19.3216   37.5701 H   0  0  0  0  0  0  0  0  0  0  0  0
    3.7471   19.8286   37.4672 H   0  0  0  0  0  0  0  0  0  0  0  0
    4.4662   20.9580   38.8304 H   0  0  0  0  0  0  0  0  0  0  0  0
    3.8025   20.8583   41.0036 H   0  0  0  0  0  0  0  0  0  0  0  0
    4.3484   24.9868   32.8095 H   0  0  0  0  0  0  0  0  0  0  0  0
    4.5440   23.2227   32.5326 H   0  0  0  0  0  0  0  0  0  0  0  0
    2.9076   23.9625   32.4906 H   0  0  0  0  0  0  0  0  0  0  0  0
    3.3414   24.7031   34.8242 H   0  0  0  0  0  0  0  0  0  0  0  0
    3.3046   22.7460   34.3345 H   0  0  0  0  0  0  0  0  0  0  0  0
    4.0623   22.9048   38.9795 H   0  0  0  0  0  0  0  0  0  0  0  0
    2.9743   23.7836   37.7572 H   0  0  0  0  0  0  0  0  0  0  0  0
  1 17  1  0
  2 14  1  0
  3 17  1  0
  3 13  1  0
  4 12  1  0
  5  1  1  0
  6  8  1  0
  7  2  2  0
  7 11  1  0
  9  4  1  0
 11  6  1  0
 12 10  1  0
 12  7  1  0
 13  2  1  0
 14  8  2  0
 15 16  1  0
 16  5  1  0
  1 18  1  0
  1 19  1  0
  3 20  1  0
  3 21  1  0
  4 22  1  0
  4 23  1  0
  5 24  1  0
  5 25  1  0
  6 26  1  0
  6 27  1  0
  8 28  1  0
  9 29  1  0
 10 30  1  0
 11 31  1  0
 11 32  1  0
 12 33  1  6
 13 34  1  0
 13 35  1  0
 14 36  1  0
 15 37  1  0
 15 38  1  0
 15 39  1  0
 16 40  1  0
 16 41  1  0
 17 42  1  0
 17 43  1  0
M  END
>  <mol_id>  (98) 
2026-09-18-6fnk-s0-n100-0099

>  <rmsd_to_ref>  (98) 


$$$$

     RDKit          3D

 64 65  0  0  0  0  0  0  0  0999 V2000
    2.6455   24.4378   34.1658 C   0  0  0  0  0  0  0  0  0  0  0  0
    6.9176   22.7436   37.3100 C   0  0  0  0  0  0  0  0  0  0  0  0
    0.3161   19.1355   43.2706 N   0  0  0  0  0  0  0  0  0  0  0  0
    0.2516   18.1192   39.8067 C   0  0  0  0  0  0  0  0  0  0  0  0
   -0.4496   21.9097   43.5996 O   0  0  0  0  0  0  0  0  0  0  0  0
    0.8400   21.4509   43.4723 C   0  0  0  0  0  0  0  0  0  0  0  0
   -0.7343   16.5388   38.4732 O   0  0  0  0  0  0  0  0  0  0  0  0
    5.6141   23.4939   36.0050 C   0  0  0  0  0  0  0  0  0  0  0  0
   -0.7330   16.5409   41.2605 C   0  0  0  0  0  0  0  0  0  0  0  0
   -0.1433   18.6799   42.1151 C   0  0  0  0  0  0  0  0  0  0  0  0
    3.8288   24.9839   32.2108 C   0  0  0  0  0  0  0  0  0  0  0  0
   -0.8813   17.5419   42.2187 C   0  0  0  0  0  0  0  0  0  0  0  0
    2.3477   25.9262   33.8397 C   0  0  0  0  0  0  0  0  0  0  0  0
   -0.9802   17.2378   37.3960 C   0  0  0  0  0  0  0  0  0  0  0  0
   -0.5566   17.0113   39.8476 C   0  0  0  0  0  0  0  0  0  0  0  0
   -1.5867   17.8159   43.9194 S   0  0  0  0  0  0  0  0  0  0  0  0
    3.9393   22.5648   37.5731 C   0  0  0  0  0  0  0  0  0  0  0  0
    3.7227   24.1498   33.4706 C   0  0  0  0  0  0  0  0  0  0  0  0
    4.5316   22.8779   33.5518 C   0  0  0  0  0  0  0  0  0  0  0  0
    4.5040   22.5975   36.1094 C   0  0  1  0  0  0  0  0  0  0  0  0
    5.9327   22.8572   38.2894 C   0  0  0  0  0  0  0  0  0  0  0  0
    2.8756   26.1495   32.5098 C   0  0  0  0  0  0  0  0  0  0  0  0
    0.4284   18.9447   40.9428 C   0  0  0  0  0  0  0  0  0  0  0  0
   -0.3376   18.8174   44.5256 C   0  0  0  0  0  0  0  0  0  0  0  0
    6.8801   23.4692   36.0366 C   0  0  0  0  0  0  0  0  0  0  0  0
    1.3981   20.0724   43.3226 C   0  0  0  0  0  0  0  0  0  0  0  0
    4.0162   21.8396   34.9502 S   0  0  0  0  0  0  0  0  0  0  0  0
    2.8326   24.3069   35.2418 H   0  0  0  0  0  0  0  0  0  0  0  0
    1.8005   23.7806   33.9125 H   0  0  0  0  0  0  0  0  0  0  0  0
    7.8598   23.0373   37.7957 H   0  0  0  0  0  0  0  0  0  0  0  0
    6.7649   21.7082   36.9714 H   0  0  0  0  0  0  0  0  0  0  0  0
    0.7729   18.3713   38.8715 H   0  0  0  0  0  0  0  0  0  0  0  0
   -0.6734   22.0033   44.5594 H   0  0  0  0  0  0  0  0  0  0  0  0
    1.2170   21.9807   42.5851 H   0  0  0  0  0  0  0  0  0  0  0  0
    1.1272   21.5892   44.5252 H   0  0  0  0  0  0  0  0  0  0  0  0
    5.4283   23.9600   35.0261 H   0  0  0  0  0  0  0  0  0  0  0  0
    5.5414   23.7903   37.0617 H   0  0  0  0  0  0  0  0  0  0  0  0
   -0.7447   15.4731   41.5240 H   0  0  0  0  0  0  0  0  0  0  0  0
    3.4995   24.4161   31.3281 H   0  0  0  0  0  0  0  0  0  0  0  0
    4.8556   25.3027   31.9784 H   0  0  0  0  0  0  0  0  0  0  0  0
    1.2640   26.1136   33.8585 H   0  0  0  0  0  0  0  0  0  0  0  0
    2.8052   26.6026   34.5768 H   0  0  0  0  0  0  0  0  0  0  0  0
   -1.4348   18.1989   37.6784 H   0  0  0  0  0  0  0  0  0  0  0  0
   -0.0399   17.4217   36.8555 H   0  0  0  0  0  0  0  0  0  0  0  0
   -1.6729   16.6810   36.7477 H   0  0  0  0  0  0  0  0  0  0  0  0
    4.7474   22.7955   38.2830 H   0  0  0  0  0  0  0  0  0  0  0  0
    3.1383   23.3119   37.6739 H   0  0  0  0  0  0  0  0  0  0  0  0
    3.5365   21.5641   37.7884 H   0  0  0  0  0  0  0  0  0  0  0  0
    4.4227   24.3879   34.2851 H   0  0  0  0  0  0  0  0  0  0  0  0
    4.3980   22.3107   32.6188 H   0  0  0  0  0  0  0  0  0  0  0  0
    5.5865   23.1521   33.6998 H   0  0  0  0  0  0  0  0  0  0  0  0
    5.1913   21.7749   36.3561 H   0  0  0  0  0  0  0  0  0  0  0  0
    6.4031   22.8602   39.2837 H   0  0  0  0  0  0  0  0  0  0  0  0
    5.3772   23.7954   38.1437 H   0  0  0  0  0  0  0  0  0  0  0  0
    5.2404   22.0058   38.2137 H   0  0  0  0  0  0  0  0  0  0  0  0
    3.4213   27.1039   32.4741 H   0  0  0  0  0  0  0  0  0  0  0  0
    2.0663   26.1988   31.7665 H   0  0  0  0  0  0  0  0  0  0  0  0
    1.0624   19.8391   40.8534 H   0  0  0  0  0  0  0  0  0  0  0  0
    0.3289   18.2770   45.2140 H   0  0  0  0  0  0  0  0  0  0  0  0
   -0.6667   19.6802   45.1233 H   0  0  0  0  0  0  0  0  0  0  0  0
    7.3264   22.9087   35.2020 H   0  0  0  0  0  0  0  0  0  0  0  0
    7.4282   24.4194   35.9548 H   0  0  0  0  0  0  0  0  0  0  0  0
    2.0454   19.8411   44.1813 H   0  0  0  0  0  0  0  0  0  0  0  0
    1.9898   20.0091   42.3976 H   0  0  0  0  0  0  0  0  0  0  0  0
  2 21  1  0
  3 26  1  0
  3 24  1  0
  4 15  1  0
  4 23  2  0
  6  5  1  0
  7 15  1  0
  8 20  1  0
  9 12  1  0
 10 12  2  0
 10  3  1  0
 11 22  1  0
 11 18  1  0
 12 16  1  0
 13  1  1  0
 14  7  1  0
 15  9  2  0
 16 24  1  0
 18  1  1  0
 19 18  1  0
 19 27  1  0
 20 17  1  0
 22 13  1  0
 23 10  1  0
 25  8  1  0
 25  2  1  0
 26  6  1  0
 27 20  1  0
  1 28  1  0
  1 29  1  0
  2 30  1  0
  2 31  1  0
  4 32  1  0
  5 33  1  0
  6 34  1  0
  6 35  1  0
  8 36  1  0
  8 37  1  0
  9 38  1  0
 11 39  1  0
 11 40  1  0
 13 41  1  0
 13 42  1  0
 14 43  1  0
 14 44  1  0
 14 45  1  0
 17 46  1  0
 17 47  1  0
 17 48  1  0
 18 49  1  0
 19 50  1  0
 19 51  1  0
 20 52  1  1
 21 53  1  0
 21 54  1  0
 21 55  1  0
 22 56  1  0
 22 57  1  0
 23 58  1  0
 24 59  1  0
 24 60  1  0
 25 61  1  0
 25 62  1  0
 26 63  1  0
 26 64  1  0
M  END
>  <mol_id>  (99) 
2026-09-18-6fnk-s0-n100-0100

>  <rmsd_to_ref>  (99) 


$$$$
