
     RDKit          3D

 25 25  0  0  0  0  0  0  0  0999 V2000
    3.6492   22.3527   32.6954 F   0  0  0  0  0  0  0  0  0  0  0  0
    3.0590   18.3413   40.5020 F   0  0  0  0  0  0  0  0  0  0  0  0
    1.6789   24.2440   34.4069 C   0  0  0  0  0  0  0  0  0  0  0  0
    3.7165   17.3761   38.8271 F   0  0  0  0  0  0  0  0  0  0  0  0
    2.7633   18.1167   39.2572 C   0  0  0  0  0  0  0  0  0  0  0  0
    3.5053   20.7282   34.6762 C   0  0  0  0  0  0  0  0  0  0  0  0
    2.4385   22.9343   34.8640 C   0  0  0  0  0  0  0  0  0  0  0  0
    1.7485   17.3251   39.2289 F   0  0  0  0  0  0  0  0  0  0  0  0
    2.0358   21.0047   40.5814 N   0  0  0  0  0  0  0  0  0  0  0  0
    2.3047   20.8642   39.1315 C   0  0  0  0  0  0  0  0  0  0  0  0
    3.0550   20.6290   36.0925 C   0  0  0  0  0  0  0  0  0  0  0  0
    2.6910   19.4934   38.4447 C   0  0  0  0  0  0  0  0  0  0  0  0
    3.0733   19.5372   37.0827 C   0  0  0  0  0  0  0  0  0  0  0  0
    3.1895   21.9699   34.0017 C   0  0  0  0  0  0  0  0  0  0  0  0
    2.2339   22.2332   36.3545 S   0  0  0  0  0  0  0  0  0  0  0  0
    1.5052   24.8906   35.2797 H   0  0  0  0  0  0  0  0  0  0  0  0
    2.2893   24.7827   33.6672 H   0  0  0  0  0  0  0  0  0  0  0  0
    0.7138   23.9697   33.9560 H   0  0  0  0  0  0  0  0  0  0  0  0
    4.0435   19.9104   34.1746 H   0  0  0  0  0  0  0  0  0  0  0  0
    2.9272   21.1020   41.0881 H   0  0  0  0  0  0  0  0  0  0  0  0
    1.4557   21.8402   40.7436 H   0  0  0  0  0  0  0  0  0  0  0  0
    1.5374   20.1696   40.9206 H   0  0  0  0  0  0  0  0  0  0  0  0
    1.3931   21.2095   38.6218 H   0  0  0  0  0  0  0  0  0  0  0  0
    3.2448   21.4267   39.0320 H   0  0  0  0  0  0  0  0  0  0  0  0
    3.4534   18.5820   36.6916 H   0  0  0  0  0  0  0  0  0  0  0  0
  1 14  1  0
  3  7  1  0
  4  5  1  0
  5  2  1  0
  6 11  2  0
  7 15  1  0
  8  5  1  0
 10  9  1  0
 11 15  1  0
 11 13  1  0
 12  5  1  0
 12 10  1  0
 13 12  2  3
 14  6  1  0
 14  7  2  0
  3 16  1  0
  3 17  1  0
  3 18  1  0
  6 19  1  0
  9 20  1  0
  9 21  1  0
  9 22  1  0
 10 23  1  0
 10 24  1  0
 13 25  1  0
M  CHG  1   9   1
M  END
>  <mol_id>  (1) 
2026-09-16-6tgu-s0-n100-0001

>  <rmsd_to_ref>  (1) 


$$$$

     RDKit          3D

 49 49  0  0  0  0  0  0  0  0999 V2000
    4.7300   21.0169   34.0651 O   0  0  0  0  0  0  0  0  0  0  0  0
    2.3083   18.5433   38.8067 C   0  0  0  0  0  0  0  0  0  0  0  0
   -0.0234   20.0088   42.8216 C   0  0  0  0  0  0  0  0  0  0  0  0
    3.3813   22.6547   31.9856 C   0  0  0  0  0  0  0  0  0  0  0  0
    1.6561   16.8986   40.1121 C   0  0  0  0  0  0  0  0  0  0  0  0
    3.8568   22.3889   35.5110 O   0  0  0  0  0  0  0  0  0  0  0  0
    1.2686   21.5438   41.5014 C   0  0  0  0  0  0  0  0  0  0  0  0
    1.6859   18.2007   40.1057 C   0  0  1  0  0  0  0  0  0  0  0  0
    0.4340   21.2998   42.5724 C   0  0  0  0  0  0  0  0  0  0  0  0
    2.7617   25.5529   30.0256 C   0  0  0  0  0  0  0  0  0  0  0  0
    1.2077   14.0908   39.2470 O   0  0  0  0  0  0  0  0  0  0  0  0
    3.8369   23.6165   29.5684 C   0  0  0  0  0  0  0  0  0  0  0  0
    2.0661   16.3656   38.9363 C   0  0  0  0  0  0  0  0  0  0  0  0
    2.0123   14.9166   38.4443 C   0  0  0  0  0  0  0  0  0  0  0  0
    2.4808   19.9548   38.3166 C   0  0  0  0  0  0  0  0  0  0  0  0
    3.7484   22.9282   33.1820 C   0  0  2  0  0  0  0  0  0  0  0  0
    3.7240   24.7423   30.8297 C   0  0  0  0  0  0  0  0  0  0  0  0
    2.5676   17.4132   38.2449 N   0  0  0  0  0  0  0  0  0  0  0  0
    1.7207   20.4699   40.7973 C   0  0  0  0  0  0  0  0  0  0  0  0
    0.4369   18.9646   42.1248 C   0  0  0  0  0  0  0  0  0  0  0  0
    4.7702   23.9243   32.0095 C   0  0  0  0  0  0  0  0  0  0  0  0
    4.1981   22.0956   34.1778 C   0  0  0  0  0  0  0  0  0  0  0  0
    1.2854   19.1930   41.0456 C   0  0  0  0  0  0  0  0  0  0  0  0
   -0.7770   19.8448   43.6060 H   0  0  0  0  0  0  0  0  0  0  0  0
    2.6069   21.8738   32.0090 H   0  0  0  0  0  0  0  0  0  0  0  0
    2.9749   23.5600   31.5108 H   0  0  0  0  0  0  0  0  0  0  0  0
    4.2469   22.2956   31.4095 H   0  0  0  0  0  0  0  0  0  0  0  0
    1.3339   16.2987   40.9760 H   0  0  0  0  0  0  0  0  0  0  0  0
    1.5583   22.5688   41.2264 H   0  0  0  0  0  0  0  0  0  0  0  0
    0.6920   18.2211   39.6349 H   0  0  0  0  0  0  0  0  0  0  0  0
    0.1294   22.1267   43.2306 H   0  0  0  0  0  0  0  0  0  0  0  0
    2.0832   26.0936   30.7018 H   0  0  0  0  0  0  0  0  0  0  0  0
    3.3166   26.2749   29.4085 H   0  0  0  0  0  0  0  0  0  0  0  0
    2.1765   24.8872   29.3741 H   0  0  0  0  0  0  0  0  0  0  0  0
    1.4362   14.2329   40.1998 H   0  0  0  0  0  0  0  0  0  0  0  0
    3.9750   22.6089   29.9875 H   0  0  0  0  0  0  0  0  0  0  0  0
    2.9138   23.6417   28.9707 H   0  0  0  0  0  0  0  0  0  0  0  0
    4.6952   23.8681   28.9280 H   0  0  0  0  0  0  0  0  0  0  0  0
    1.6095   14.9093   37.4207 H   0  0  0  0  0  0  0  0  0  0  0  0
    3.0366   14.5176   38.4871 H   0  0  0  0  0  0  0  0  0  0  0  0
    2.6037   20.6292   39.1769 H   0  0  0  0  0  0  0  0  0  0  0  0
    3.3720   20.0136   37.6744 H   0  0  0  0  0  0  0  0  0  0  0  0
    1.5930   20.2538   37.7402 H   0  0  0  0  0  0  0  0  0  0  0  0
    3.1373   23.2164   34.0502 H   0  0  0  0  0  0  0  0  0  0  0  0
    2.8859   24.1751   31.2609 H   0  0  0  0  0  0  0  0  0  0  0  0
    2.4618   20.6320   40.0007 H   0  0  0  0  0  0  0  0  0  0  0  0
    0.1488   17.9394   42.4005 H   0  0  0  0  0  0  0  0  0  0  0  0
    5.4666   23.2589   31.4782 H   0  0  0  0  0  0  0  0  0  0  0  0
    5.3332   24.6806   32.5762 H   0  0  0  0  0  0  0  0  0  0  0  0
  1 22  2  0
  2  8  1  0
  7  9  1  0
  8  5  1  0
  8 23  1  0
  9  3  2  0
 10 17  1  0
 12 17  1  0
 13  5  2  0
 14 13  1  0
 14 11  1  0
 15  2  1  0
 16  4  1  0
 16 22  1  0
 17 21  1  0
 18  2  2  0
 18 13  1  0
 19 23  1  0
 19  7  2  0
 20  3  1  0
 21 16  1  0
 22  6  1  0
 23 20  2  0
  3 24  1  0
  4 25  1  0
  4 26  1  0
  4 27  1  0
  5 28  1  0
  7 29  1  0
  8 30  1  6
  9 31  1  0
 10 32  1  0
 10 33  1  0
 10 34  1  0
 11 35  1  0
 12 36  1  0
 12 37  1  0
 12 38  1  0
 14 39  1  0
 14 40  1  0
 15 41  1  0
 15 42  1  0
 15 43  1  0
 16 44  1  1
 17 45  1  0
 19 46  1  0
 20 47  1  0
 21 48  1  0
 21 49  1  0
M  CHG  1   6  -1
M  END
>  <mol_id>  (2) 
2026-09-16-6tgu-s0-n100-0002

>  <rmsd_to_ref>  (2) 


$$$$

     RDKit          3D

 63 65  0  0  0  0  0  0  0  0999 V2000
    1.6170   21.7604   36.1362 C   0  0  0  0  0  0  0  0  0  0  0  0
    3.3610   16.9218   36.7961 C   0  0  0  0  0  0  0  0  0  0  0  0
    0.7440   26.5253   32.5872 C   0  0  0  0  0  0  0  0  0  0  0  0
    2.2969   21.2169   38.9296 C   0  0  0  0  0  0  0  0  0  0  0  0
    0.6452   27.4925   33.5614 C   0  0  0  0  0  0  0  0  0  0  0  0
    2.4934   20.9291   36.3656 N   0  0  0  0  0  0  0  0  0  0  0  0
    1.7787   24.6141   31.6066 C   0  0  0  0  0  0  0  0  0  0  0  0
    2.6377   20.5301   37.6933 C   0  0  0  0  0  0  0  0  0  0  0  0
    3.3586   19.0229   39.5896 S   0  0  0  0  0  0  0  0  0  0  0  0
    3.4806   11.7345   37.3552 C   0  0  0  0  0  0  0  0  0  0  0  0
   -0.3714   28.4062   31.7737 C   0  0  0  0  0  0  0  0  0  0  0  0
    1.8674   12.5417   35.6325 C   0  0  0  0  0  0  0  0  0  0  0  0
    4.7546   16.3488   36.2904 C   0  0  0  0  0  0  0  0  0  0  0  0
    2.6095   13.6933   35.5353 C   0  0  0  0  0  0  0  0  0  0  0  0
    3.6199   18.5098   36.8740 C   0  0  0  0  0  0  0  0  0  0  0  0
    1.3038   27.3486   34.7740 C   0  0  0  0  0  0  0  0  0  0  0  0
    2.7454   20.5622   40.0795 C   0  0  0  0  0  0  0  0  0  0  0  0
   -0.9543   29.5886   35.0688 C   0  0  0  0  0  0  0  0  0  0  0  0
    0.0481   28.4842   33.1840 N   0  0  0  0  0  0  0  0  0  0  0  0
    3.1537   19.3740   37.9125 C   0  0  0  0  0  0  0  0  0  0  0  0
    1.2843   25.2894   32.8248 C   0  0  1  0  0  0  0  0  0  0  0  0
    0.7627   12.3668   34.8606 O   0  0  0  0  0  0  0  0  0  0  0  0
    3.5889   14.0601   36.5448 C   0  0  0  0  0  0  0  0  0  0  0  0
    4.0423   12.9899   37.3479 C   0  0  0  0  0  0  0  0  0  0  0  0
    2.1184   23.0706   35.7461 C   0  0  0  0  0  0  0  0  0  0  0  0
    0.1386   27.1380   31.3405 C   0  0  0  0  0  0  0  0  0  0  0  0
   -0.3356   29.4065   34.0380 C   0  0  0  0  0  0  0  0  0  0  0  0
    2.1065   23.4489   34.4259 C   0  0  0  0  0  0  0  0  0  0  0  0
    1.3996   24.5623   34.0200 C   0  0  0  0  0  0  0  0  0  0  0  0
    2.3256   11.5286   36.3786 C   0  0  0  0  0  0  0  0  0  0  0  0
    4.6076   14.9207   36.1603 O   0  0  0  0  0  0  0  0  0  0  0  0
    0.9843   21.3777   35.3218 H   0  0  0  0  0  0  0  0  0  0  0  0
    1.0651   21.9027   37.0770 H   0  0  0  0  0  0  0  0  0  0  0  0
    3.1034   16.5155   37.7854 H   0  0  0  0  0  0  0  0  0  0  0  0
    2.5211   16.6543   36.1380 H   0  0  0  0  0  0  0  0  0  0  0  0
    1.7379   22.1639   38.9565 H   0  0  0  0  0  0  0  0  0  0  0  0
    3.0891   20.5480   35.6167 H   0  0  0  0  0  0  0  0  0  0  0  0
    2.5842   23.9152   31.8760 H   0  0  0  0  0  0  0  0  0  0  0  0
    0.9544   24.0592   31.1347 H   0  0  0  0  0  0  0  0  0  0  0  0
    2.1653   25.3654   30.9022 H   0  0  0  0  0  0  0  0  0  0  0  0
    3.8390   10.9339   38.0191 H   0  0  0  0  0  0  0  0  0  0  0  0
   -0.9408   29.1454   31.1913 H   0  0  0  0  0  0  0  0  0  0  0  0
    5.0128   16.7911   35.3170 H   0  0  0  0  0  0  0  0  0  0  0  0
    5.5582   16.5950   37.0001 H   0  0  0  0  0  0  0  0  0  0  0  0
    2.4586   14.3558   34.6702 H   0  0  0  0  0  0  0  0  0  0  0  0
    4.7135   18.6275   36.8658 H   0  0  0  0  0  0  0  0  0  0  0  0
    2.9889   18.8505   36.0398 H   0  0  0  0  0  0  0  0  0  0  0  0
    0.6123   27.5826   35.5969 H   0  0  0  0  0  0  0  0  0  0  0  0
    1.6595   26.3128   34.8774 H   0  0  0  0  0  0  0  0  0  0  0  0
    2.1616   28.0361   34.8093 H   0  0  0  0  0  0  0  0  0  0  0  0
    2.7139   20.9542   41.1068 H   0  0  0  0  0  0  0  0  0  0  0  0
   -1.0457   30.6034   35.4834 H   0  0  0  0  0  0  0  0  0  0  0  0
   -1.4226   28.7387   35.5868 H   0  0  0  0  0  0  0  0  0  0  0  0
    0.2959   24.8292   32.6787 H   0  0  0  0  0  0  0  0  0  0  0  0
    0.2327   11.5339   34.9362 H   0  0  0  0  0  0  0  0  0  0  0  0
    4.9007   13.1727   38.0109 H   0  0  0  0  0  0  0  0  0  0  0  0
    1.5214   23.8143   36.2942 H   0  0  0  0  0  0  0  0  0  0  0  0
    3.1915   23.0086   35.9798 H   0  0  0  0  0  0  0  0  0  0  0  0
    0.0993   26.7066   30.3294 H   0  0  0  0  0  0  0  0  0  0  0  0
    0.0461   30.3777   33.6898 H   0  0  0  0  0  0  0  0  0  0  0  0
    2.6657   22.8586   33.6850 H   0  0  0  0  0  0  0  0  0  0  0  0
    0.7779   24.9801   34.8256 H   0  0  0  0  0  0  0  0  0  0  0  0
    1.8635   10.5346   36.2865 H   0  0  0  0  0  0  0  0  0  0  0  0
  1  6  1  0
  2 15  1  0
  3 21  1  0
  3  5  2  0
  4 17  2  0
  5 16  1  0
  6  8  1  0
  8 20  2  0
  8  4  1  0
  9 17  1  0
 10 24  1  0
 11 19  1  0
 12 14  2  0
 12 30  1  0
 13  2  1  0
 14 23  1  0
 15 20  1  0
 19  5  1  0
 19 27  1  0
 20  9  1  0
 21  7  1  0
 21 29  1  0
 22 12  1  0
 23 24  2  0
 25  1  1  0
 26 11  2  0
 26  3  1  0
 27 18  2  3
 28 25  1  0
 29 28  2  3
 30 10  2  0
 31 13  1  0
 31 23  1  0
  1 32  1  0
  1 33  1  0
  2 34  1  0
  2 35  1  0
  4 36  1  0
  6 37  1  0
  7 38  1  0
  7 39  1  0
  7 40  1  0
 10 41  1  0
 11 42  1  0
 13 43  1  0
 13 44  1  0
 14 45  1  0
 15 46  1  0
 15 47  1  0
 16 48  1  0
 16 49  1  0
 16 50  1  0
 17 51  1  0
 18 52  1  0
 18 53  1  0
 21 54  1  6
 22 55  1  0
 24 56  1  0
 25 57  1  0
 25 58  1  0
 26 59  1  0
 27 60  1  0
 28 61  1  0
 29 62  1  0
 30 63  1  0
M  END
>  <mol_id>  (3) 
2026-09-16-6tgu-s0-n100-0003

>  <rmsd_to_ref>  (3) 


$$$$

     RDKit          3D

 37 35  0  0  0  0  0  0  0  0999 V2000
    3.5337   21.1440   35.7288 O   0  0  0  0  0  0  0  0  0  0  0  0
    1.9130   16.0623   38.2084 C   0  0  0  0  0  0  0  0  0  0  0  0
    3.7452   24.4995   31.5263 O   0  0  0  0  0  0  0  0  0  0  0  0
    0.3855   21.1918   40.0084 C   0  0  0  0  0  0  0  0  0  0  0  0
    1.2894   17.0317   40.3164 O   0  0  0  0  0  0  0  0  0  0  0  0
    2.4472   18.2954   38.8164 N   0  0  0  0  0  0  0  0  0  0  0  0
    4.3283   23.5137   34.1517 O   0  0  0  0  0  0  0  0  0  0  0  0
    1.1531   20.4083   38.9585 C   0  0  0  0  0  0  0  0  0  0  0  0
    1.5631   25.1872   32.2307 C   0  0  0  0  0  0  0  0  0  0  0  0
    2.7657   21.5421   34.6270 C   0  0  0  0  0  0  0  0  0  0  0  0
    2.2778   19.5682   39.3518 C   0  0  0  0  0  0  0  0  0  0  0  0
    2.8811   19.9009   40.4026 O   0  0  0  0  0  0  0  0  0  0  0  0
    1.8384   17.1113   39.2352 C   0  0  0  0  0  0  0  0  0  0  0  0
    2.8956   24.6017   32.5530 C   0  0  1  0  0  0  0  0  0  0  0  0
    1.1927   25.3027   30.9273 O   0  0  0  0  0  0  0  0  0  0  0  0
    2.4034   23.1725   34.7847 C   0  0  0  0  0  0  0  0  0  0  0  0
    1.5562   14.8370   38.5708 O   0  0  0  0  0  0  0  0  0  0  0  0
    2.9986   23.8373   33.7330 C   0  0  2  0  0  0  0  0  0  0  0  0
    0.7277   25.4369   33.0815 O   0  0  0  0  0  0  0  0  0  0  0  0
    3.0667   21.3954   36.5648 H   0  0  0  0  0  0  0  0  0  0  0  0
    2.9548   16.0145   37.8584 H   0  0  0  0  0  0  0  0  0  0  0  0
    1.1795   16.3587   37.4442 H   0  0  0  0  0  0  0  0  0  0  0  0
    4.6756   24.5372   31.8628 H   0  0  0  0  0  0  0  0  0  0  0  0
    0.6262   20.7995   41.0075 H   0  0  0  0  0  0  0  0  0  0  0  0
    0.6685   22.2533   39.9534 H   0  0  0  0  0  0  0  0  0  0  0  0
   -0.6943   21.0903   39.8249 H   0  0  0  0  0  0  0  0  0  0  0  0
    3.0960   18.2181   38.0201 H   0  0  0  0  0  0  0  0  0  0  0  0
    4.3821   23.5535   35.1394 H   0  0  0  0  0  0  0  0  0  0  0  0
    1.5420   21.1416   38.2368 H   0  0  0  0  0  0  0  0  0  0  0  0
    0.4117   19.6825   38.5934 H   0  0  0  0  0  0  0  0  0  0  0  0
    1.8345   20.9575   34.5943 H   0  0  0  0  0  0  0  0  0  0  0  0
    3.3279   21.3713   33.6970 H   0  0  0  0  0  0  0  0  0  0  0  0
    3.5182   25.3613   33.0483 H   0  0  0  0  0  0  0  0  0  0  0  0
    1.3138   23.3191   34.7521 H   0  0  0  0  0  0  0  0  0  0  0  0
    2.7753   23.5590   35.7451 H   0  0  0  0  0  0  0  0  0  0  0  0
    1.3552   14.8249   39.5401 H   0  0  0  0  0  0  0  0  0  0  0  0
    2.9611   22.9131   33.1377 H   0  0  0  0  0  0  0  0  0  0  0  0
  2 17  1  0
  2 13  1  0
  6 13  1  0
  6 11  1  0
  8 11  1  0
  8  4  1  0
  9 14  1  0
  9 19  1  0
 10 16  1  0
 10  1  1  0
 11 12  2  0
 13  5  2  0
 14  3  1  0
 14 18  1  0
 15  9  2  0
 18  7  1  0
 18 16  1  0
  1 20  1  0
  2 21  1  0
  2 22  1  0
  3 23  1  0
  4 24  1  0
  4 25  1  0
  4 26  1  0
  6 27  1  0
  7 28  1  0
  8 29  1  0
  8 30  1  0
 10 31  1  0
 10 32  1  0
 14 33  1  1
 16 34  1  0
 16 35  1  0
 17 36  1  0
 18 37  1  6
M  CHG  1  19  -1
M  END
>  <mol_id>  (4) 
2026-09-16-6tgu-s0-n100-0004

>  <rmsd_to_ref>  (4) 


$$$$

     RDKit          3D

 62 62  0  0  0  0  0  0  0  0999 V2000
    0.4865   21.2041   42.7332 C   0  0  0  0  0  0  0  0  0  0  0  0
    1.7067   22.8541   36.0733 C   0  0  0  0  0  0  0  0  0  0  0  0
    2.3877   17.9973   40.2531 N   0  0  0  0  0  0  0  0  0  0  0  0
    2.3012   19.2226   39.7747 C   0  0  0  0  0  0  0  0  0  0  0  0
    1.8651   21.6620   38.4049 C   0  0  0  0  0  0  0  0  0  0  0  0
    3.2668   15.9259   39.0650 C   0  0  0  0  0  0  0  0  0  0  0  0
    3.8683   15.0341   38.0655 C   0  0  0  0  0  0  0  0  0  0  0  0
    1.4939   29.5157   31.8075 C   0  0  0  0  0  0  0  0  0  0  0  0
    4.7501   15.8049   37.1470 O   0  0  0  0  0  0  0  0  0  0  0  0
    1.4946   20.3204   40.6174 C   0  0  0  0  0  0  0  0  0  0  0  0
    3.0664   17.5078   39.0636 N   0  0  0  0  0  0  0  0  0  0  0  0
    0.6604   26.5244   32.5521 C   0  0  0  0  0  0  0  0  0  0  0  0
    2.6901   19.5624   38.4102 C   0  0  0  0  0  0  0  0  0  0  0  0
    1.0428   19.9659   42.0419 C   0  0  0  0  0  0  0  0  0  0  0  0
    2.6796   28.6139   31.1719 C   0  0  0  0  0  0  0  0  0  0  0  0
    1.5102   22.9265   37.6156 C   0  0  0  0  0  0  0  0  0  0  0  0
    2.6485   20.6729   37.8002 N   0  0  0  0  0  0  0  0  0  0  0  0
    2.1323   26.1702   32.1077 C   0  0  0  0  0  0  0  0  0  0  0  0
    1.3587   21.5845   39.8744 C   0  0  0  0  0  0  0  0  0  0  0  0
    2.0480   16.0387   41.8157 C   0  0  0  0  0  0  0  0  0  0  0  0
    3.2432   25.1719   32.0729 C   0  0  0  0  0  0  0  0  0  0  0  0
    1.9432   17.2270   41.2278 C   0  0  0  0  0  0  0  0  0  0  0  0
    0.5289   29.0482   33.2127 C   0  0  0  0  0  0  0  0  0  0  0  0
    0.2847   27.5452   33.7508 C   0  0  0  0  0  0  0  0  0  0  0  0
    2.6898   27.0751   30.9700 C   0  0  0  0  0  0  0  0  0  0  0  0
    0.6488   21.1224   43.8181 H   0  0  0  0  0  0  0  0  0  0  0  0
    1.0003   22.0989   42.3521 H   0  0  0  0  0  0  0  0  0  0  0  0
   -0.5912   21.2852   42.5287 H   0  0  0  0  0  0  0  0  0  0  0  0
    2.7731   22.9776   35.8334 H   0  0  0  0  0  0  0  0  0  0  0  0
    1.3586   21.8779   35.7048 H   0  0  0  0  0  0  0  0  0  0  0  0
    1.1273   23.6556   35.5918 H   0  0  0  0  0  0  0  0  0  0  0  0
    3.8520   15.7344   39.9765 H   0  0  0  0  0  0  0  0  0  0  0  0
    2.2175   15.6551   38.8759 H   0  0  0  0  0  0  0  0  0  0  0  0
    4.4634   14.2641   38.5781 H   0  0  0  0  0  0  0  0  0  0  0  0
    3.0661   14.5630   37.4786 H   0  0  0  0  0  0  0  0  0  0  0  0
    0.7728   29.6746   30.9922 H   0  0  0  0  0  0  0  0  0  0  0  0
    2.0737   30.3518   32.2258 H   0  0  0  0  0  0  0  0  0  0  0  0
    5.3745   16.3604   37.6778 H   0  0  0  0  0  0  0  0  0  0  0  0
    3.9923   17.9556   39.0067 H   0  0  0  0  0  0  0  0  0  0  0  0
    0.1947   25.5655   32.8236 H   0  0  0  0  0  0  0  0  0  0  0  0
    0.3175   27.1000   31.6797 H   0  0  0  0  0  0  0  0  0  0  0  0
    3.0810   18.7224   37.8172 H   0  0  0  0  0  0  0  0  0  0  0  0
    0.2619   19.1926   41.9949 H   0  0  0  0  0  0  0  0  0  0  0  0
    1.9051   19.5898   42.6119 H   0  0  0  0  0  0  0  0  0  0  0  0
    2.8417   29.0305   30.1668 H   0  0  0  0  0  0  0  0  0  0  0  0
    3.4082   28.6845   31.9929 H   0  0  0  0  0  0  0  0  0  0  0  0
    2.1381   23.7460   37.9955 H   0  0  0  0  0  0  0  0  0  0  0  0
    0.4308   23.0741   37.7674 H   0  0  0  0  0  0  0  0  0  0  0  0
    1.7754   25.8796   33.1069 H   0  0  0  0  0  0  0  0  0  0  0  0
    0.9042   22.4645   40.3529 H   0  0  0  0  0  0  0  0  0  0  0  0
    1.4202   15.7986   42.6864 H   0  0  0  0  0  0  0  0  0  0  0  0
    2.7626   15.2960   41.4313 H   0  0  0  0  0  0  0  0  0  0  0  0
    3.6051   24.9902   33.0956 H   0  0  0  0  0  0  0  0  0  0  0  0
    2.8756   24.2292   31.6412 H   0  0  0  0  0  0  0  0  0  0  0  0
    4.0667   25.5611   31.4562 H   0  0  0  0  0  0  0  0  0  0  0  0
    1.1777   17.7974   41.7742 H   0  0  0  0  0  0  0  0  0  0  0  0
    0.9781   29.5862   34.0604 H   0  0  0  0  0  0  0  0  0  0  0  0
   -0.4768   29.2697   32.8259 H   0  0  0  0  0  0  0  0  0  0  0  0
   -0.7699   27.4163   34.0355 H   0  0  0  0  0  0  0  0  0  0  0  0
    0.9088   27.3470   34.6346 H   0  0  0  0  0  0  0  0  0  0  0  0
    2.0981   26.8626   30.0674 H   0  0  0  0  0  0  0  0  0  0  0  0
    3.7583   26.8181   30.9224 H   0  0  0  0  0  0  0  0  0  0  0  0
  2 16  1  0
  3 22  1  0
  4  3  1  0
  4 10  2  0
  5 19  2  0
  6 11  1  0
  7  6  1  0
  8 23  1  0
  9  7  1  0
 10 14  1  0
 11  3  1  0
 12 24  1  0
 13  4  1  0
 14  1  1  0
 15  8  1  0
 16  5  1  0
 17 13  2  0
 17  5  1  0
 18 12  1  0
 19 10  1  0
 21 18  1  0
 22 20  2  3
 23 24  1  0
 25 15  1  0
 25 18  1  0
  1 26  1  0
  1 27  1  0
  1 28  1  0
  2 29  1  0
  2 30  1  0
  2 31  1  0
  6 32  1  0
  6 33  1  0
  7 34  1  0
  7 35  1  0
  8 36  1  0
  8 37  1  0
  9 38  1  0
 11 39  1  0
 12 40  1  0
 12 41  1  0
 13 42  1  0
 14 43  1  0
 14 44  1  0
 15 45  1  0
 15 46  1  0
 16 47  1  0
 16 48  1  0
 18 49  1  0
 19 50  1  0
 20 51  1  0
 20 52  1  0
 21 53  1  0
 21 54  1  0
 21 55  1  0
 22 56  1  0
 23 57  1  0
 23 58  1  0
 24 59  1  0
 24 60  1  0
 25 61  1  0
 25 62  1  0
M  END
>  <mol_id>  (5) 
2026-09-16-6tgu-s0-n100-0005

>  <rmsd_to_ref>  (5) 


$$$$

     RDKit          3D

 39 39  0  0  0  0  0  0  0  0999 V2000
    2.4410   21.7160   36.6420 C   0  0  0  0  0  0  0  0  0  0  0  0
    1.3950   25.8820   31.5430 C   0  0  0  0  0  0  0  0  0  0  0  0
    3.5750   22.2190   34.1280 C   0  0  0  0  0  0  0  0  0  0  0  0
    2.4030   19.5460   39.1450 C   0  0  0  0  0  0  0  0  0  0  0  0
    1.8300   19.6850   40.3030 C   0  0  0  0  0  0  0  0  0  0  0  0
    2.6640   22.5220   35.3300 C   0  0  0  0  0  0  0  0  0  0  0  0
    1.6650   18.3790   41.0450 C   0  0  0  0  0  0  0  0  0  0  0  0
    2.5580   21.0020   38.8290 C   0  0  0  0  0  0  0  0  0  0  0  0
    2.3380   23.5960   32.1270 C   0  0  2  0  0  0  0  0  0  0  0  0
    1.7430   24.0600   33.2660 O   0  0  0  0  0  0  0  0  0  0  0  0
    3.7840   22.7770   32.6320 C   0  0  0  0  0  0  0  0  0  0  0  0
    2.8760   18.3380   38.5880 C   0  0  0  0  0  0  0  0  0  0  0  0
    3.0460   20.6470   37.3450 C   0  0  2  0  0  0  0  0  0  0  0  0
    4.0970   19.7260   37.0750 O   0  0  0  0  0  0  0  0  0  0  0  0
    2.4020   24.8410   31.3120 C   0  0  0  0  0  0  0  0  0  0  0  0
    2.6370   17.1820   39.3900 C   0  0  0  0  0  0  0  0  0  0  0  0
    2.0400   17.1650   40.6100 C   0  0  0  0  0  0  0  0  0  0  0  0
    3.6650   17.7150   37.2610 F   0  0  0  0  0  0  0  0  0  0  0  0
    1.5550   22.0843   37.1799 H   0  0  0  0  0  0  0  0  0  0  0  0
    1.2568   26.0248   32.6249 H   0  0  0  0  0  0  0  0  0  0  0  0
    1.7320   26.8254   31.0887 H   0  0  0  0  0  0  0  0  0  0  0  0
    0.4409   25.5765   31.0887 H   0  0  0  0  0  0  0  0  0  0  0  0
    4.5785   22.3393   34.5621 H   0  0  0  0  0  0  0  0  0  0  0  0
    2.9790   21.3543   33.8008 H   0  0  0  0  0  0  0  0  0  0  0  0
    1.4987   20.6549   40.7025 H   0  0  0  0  0  0  0  0  0  0  0  0
    2.0807   23.4511   35.2496 H   0  0  0  0  0  0  0  0  0  0  0  0
    1.1922   18.4273   42.0370 H   0  0  0  0  0  0  0  0  0  0  0  0
    1.6164   21.5695   38.8656 H   0  0  0  0  0  0  0  0  0  0  0  0
    3.1772   21.6428   39.4740 H   0  0  0  0  0  0  0  0  0  0  0  0
    1.8593   22.8301   31.4990 H   0  0  0  0  0  0  0  0  0  0  0  0
    2.2129   23.6936   34.0566 H   0  0  0  0  0  0  0  0  0  0  0  0
    3.9898   21.9381   31.9509 H   0  0  0  0  0  0  0  0  0  0  0  0
    4.6334   23.4756   32.6111 H   0  0  0  0  0  0  0  0  0  0  0  0
    3.0289   19.7575   36.6980 H   0  0  0  0  0  0  0  0  0  0  0  0
    4.4738   19.3958   37.9288 H   0  0  0  0  0  0  0  0  0  0  0  0
    2.3237   24.5422   30.2563 H   0  0  0  0  0  0  0  0  0  0  0  0
    3.3494   25.3116   31.6138 H   0  0  0  0  0  0  0  0  0  0  0  0
    2.9668   16.2150   38.9824 H   0  0  0  0  0  0  0  0  0  0  0  0
    1.8787   16.2429   41.1878 H   0  0  0  0  0  0  0  0  0  0  0  0
  1 13  1  0
  3  6  1  0
  4  5  2  0
  5  7  1  0
  6  1  2  3
  8  4  1  0
  9 11  1  0
  9 10  1  0
 11  3  1  0
 12  4  1  0
 12 16  2  0
 13 14  1  0
 13  8  1  0
 15  2  1  0
 15  9  1  0
 16 17  1  0
 17  7  2  0
 18 12  1  0
  1 19  1  0
  2 20  1  0
  2 21  1  0
  2 22  1  0
  3 23  1  0
  3 24  1  0
  5 25  1  0
  6 26  1  0
  7 27  1  0
  8 28  1  0
  8 29  1  0
  9 30  1  6
 10 31  1  0
 11 32  1  0
 11 33  1  0
 13 34  1  6
 14 35  1  0
 15 36  1  0
 15 37  1  0
 16 38  1  0
 17 39  1  0
M  END
>  <mol_id>  (6) 
2026-09-16-6tgu-s0-n100-0006

>  <rmsd_to_ref>  (6) 


$$$$

     RDKit          3D

 62 62  0  0  0  0  0  0  0  0999 V2000
    2.3442   27.0632   33.4894 C   0  0  0  0  0  0  0  0  0  0  0  0
   -0.7984   17.4608   44.4095 C   0  0  0  0  0  0  0  0  0  0  0  0
    1.4135   28.2808   33.0012 C   0  0  0  0  0  0  0  0  0  0  0  0
    0.6805   19.2207   42.4605 C   0  0  0  0  0  0  0  0  0  0  0  0
    3.0485   24.8905   33.1946 O   0  0  0  0  0  0  0  0  0  0  0  0
    3.2462   19.3313   38.2771 C   0  0  0  0  0  0  0  0  0  0  0  0
   -0.5988   21.0142   43.3482 O   0  0  0  0  0  0  0  0  0  0  0  0
   -0.8794   18.7888   44.2533 C   0  0  0  0  0  0  0  0  0  0  0  0
    1.1306   24.6430   34.5778 C   0  0  0  0  0  0  0  0  0  0  0  0
    3.2842   22.0842   35.0543 C   0  0  0  0  0  0  0  0  0  0  0  0
    1.2583   18.0305   42.1452 C   0  0  0  0  0  0  0  0  0  0  0  0
    0.9035   16.8129   42.7415 C   0  0  0  0  0  0  0  0  0  0  0  0
   -1.3751   21.3421   42.2070 C   0  0  0  0  0  0  0  0  0  0  0  0
    2.7218   19.3215   40.7252 C   0  0  0  0  0  0  0  0  0  0  0  0
    1.5471   15.6651   42.3172 F   0  0  0  0  0  0  0  0  0  0  0  0
    2.6306   20.7264   38.3532 C   0  0  0  0  0  0  0  0  0  0  0  0
    2.1928   18.0510   41.1841 O   0  0  0  0  0  0  0  0  0  0  0  0
   -0.2720   19.6351   43.3337 C   0  0  0  0  0  0  0  0  0  0  0  0
    2.9922   23.0841   34.6166 C   0  0  0  0  0  0  0  0  0  0  0  0
    2.5281   25.9049   31.0766 C   0  0  0  0  0  0  0  0  0  0  0  0
    2.1656   25.7607   32.4870 C   0  0  0  0  0  0  0  0  0  0  0  0
    2.5633   24.3214   34.2170 C   0  0  1  0  0  0  0  0  0  0  0  0
    1.7476   25.0471   30.1752 C   0  0  0  0  0  0  0  0  0  0  0  0
    3.6835   18.9194   39.6004 C   0  0  0  0  0  0  0  0  0  0  0  0
    2.5783   21.4106   37.0999 C   0  0  0  0  0  0  0  0  0  0  0  0
   -0.0368   16.5068   43.7080 C   0  0  0  0  0  0  0  0  0  0  0  0
    3.4045   21.1077   36.0739 C   0  0  0  0  0  0  0  0  0  0  0  0
    3.3959   27.3853   33.4807 H   0  0  0  0  0  0  0  0  0  0  0  0
    2.0452   26.7726   34.5073 H   0  0  0  0  0  0  0  0  0  0  0  0
   -1.4268   17.0505   45.2137 H   0  0  0  0  0  0  0  0  0  0  0  0
    1.0275   28.8216   33.8779 H   0  0  0  0  0  0  0  0  0  0  0  0
    2.0052   28.9676   32.3781 H   0  0  0  0  0  0  0  0  0  0  0  0
    0.5714   27.8861   32.4139 H   0  0  0  0  0  0  0  0  0  0  0  0
    1.0839   20.0501   41.8611 H   0  0  0  0  0  0  0  0  0  0  0  0
    2.4959   18.6199   37.9015 H   0  0  0  0  0  0  0  0  0  0  0  0
    4.1095   19.3492   37.5958 H   0  0  0  0  0  0  0  0  0  0  0  0
   -1.9545   18.9728   44.1114 H   0  0  0  0  0  0  0  0  0  0  0  0
   -0.2620   19.0654   45.1207 H   0  0  0  0  0  0  0  0  0  0  0  0
    1.0201   24.6466   35.6722 H   0  0  0  0  0  0  0  0  0  0  0  0
    0.8657   25.6335   34.1792 H   0  0  0  0  0  0  0  0  0  0  0  0
    0.4639   23.8831   34.1443 H   0  0  0  0  0  0  0  0  0  0  0  0
   -2.3514   21.7344   42.5280 H   0  0  0  0  0  0  0  0  0  0  0  0
   -0.8504   22.1053   41.6135 H   0  0  0  0  0  0  0  0  0  0  0  0
   -1.5256   20.4408   41.5945 H   0  0  0  0  0  0  0  0  0  0  0  0
    1.9178   19.9681   40.3435 H   0  0  0  0  0  0  0  0  0  0  0  0
    3.2117   19.8971   41.5244 H   0  0  0  0  0  0  0  0  0  0  0  0
    1.6044   20.6305   38.7374 H   0  0  0  0  0  0  0  0  0  0  0  0
    3.2777   21.3227   39.0132 H   0  0  0  0  0  0  0  0  0  0  0  0
    2.3690   26.9530   30.7827 H   0  0  0  0  0  0  0  0  0  0  0  0
    3.5800   25.5973   30.9822 H   0  0  0  0  0  0  0  0  0  0  0  0
    1.1172   25.4629   32.3382 H   0  0  0  0  0  0  0  0  0  0  0  0
    3.1840   24.9190   34.9008 H   0  0  0  0  0  0  0  0  0  0  0  0
    1.1809   24.3131   30.7669 H   0  0  0  0  0  0  0  0  0  0  0  0
    1.0493   25.6663   29.5930 H   0  0  0  0  0  0  0  0  0  0  0  0
    2.4281   24.5194   29.4907 H   0  0  0  0  0  0  0  0  0  0  0  0
    3.7851   17.8241   39.6065 H   0  0  0  0  0  0  0  0  0  0  0  0
    4.6366   19.4326   39.7961 H   0  0  0  0  0  0  0  0  0  0  0  0
    1.5553   21.2740   36.7193 H   0  0  0  0  0  0  0  0  0  0  0  0
    2.9219   22.4180   37.3774 H   0  0  0  0  0  0  0  0  0  0  0  0
   -0.2010   15.4453   43.9451 H   0  0  0  0  0  0  0  0  0  0  0  0
    3.1357   20.1213   35.6679 H   0  0  0  0  0  0  0  0  0  0  0  0
    4.4424   21.0895   36.4376 H   0  0  0  0  0  0  0  0  0  0  0  0
  3  1  1  0
  4 18  2  0
  5 22  1  0
  6 16  1  0
  6 24  1  0
  7 18  1  0
  8  2  1  0
 10 27  1  0
 11  4  1  0
 11 12  2  0
 12 26  1  0
 13  7  1  0
 14 17  1  0
 15 12  1  0
 17 11  1  0
 18  8  1  0
 19 10  3  0
 20 21  1  0
 21  5  1  0
 21  1  1  0
 22  9  1  0
 22 19  1  0
 23 20  1  0
 24 14  1  0
 25 16  1  0
 26  2  2  0
 27 25  1  0
  1 28  1  0
  1 29  1  0
  2 30  1  0
  3 31  1  0
  3 32  1  0
  3 33  1  0
  4 34  1  0
  6 35  1  0
  6 36  1  0
  8 37  1  0
  8 38  1  0
  9 39  1  0
  9 40  1  0
  9 41  1  0
 13 42  1  0
 13 43  1  0
 13 44  1  0
 14 45  1  0
 14 46  1  0
 16 47  1  0
 16 48  1  0
 20 49  1  0
 20 50  1  0
 21 51  1  0
 22 52  1  1
 23 53  1  0
 23 54  1  0
 23 55  1  0
 24 56  1  0
 24 57  1  0
 25 58  1  0
 25 59  1  0
 26 60  1  0
 27 61  1  0
 27 62  1  0
M  END
>  <mol_id>  (7) 
2026-09-16-6tgu-s0-n100-0007

>  <rmsd_to_ref>  (7) 


$$$$

     RDKit          3D

 72 74  0  0  0  0  0  0  0  0999 V2000
    2.2598   19.7379   39.5878 C   0  0  0  0  0  0  0  0  0  0  0  0
    2.6442   18.8641   38.5078 C   0  0  1  0  0  0  0  0  0  0  0  0
    3.6747   24.2063   31.4741 O   0  0  0  0  0  0  0  0  0  0  0  0
    1.0006   25.8055   33.3233 C   0  0  0  0  0  0  0  0  0  0  0  0
    2.3661   17.3836   38.4866 S   0  0  0  0  0  0  0  0  0  0  0  0
    2.2529   20.7290   36.7198 C   0  0  0  0  0  0  0  0  0  0  0  0
    1.0734   13.5197   34.2378 O   0  0  0  0  0  0  0  0  0  0  0  0
    0.2131   19.4457   44.2332 C   0  0  0  0  0  0  0  0  0  0  0  0
    0.3438   18.4020   42.0700 C   0  0  0  0  0  0  0  0  0  0  0  0
    0.4801   18.2667   43.4870 C   0  0  0  0  0  0  0  0  0  0  0  0
    1.0719   26.5745   31.0437 C   0  0  0  0  0  0  0  0  0  0  0  0
    2.5310   15.5390   36.7554 C   0  0  2  0  0  0  0  0  0  0  0  0
    3.2458   13.8422   35.3246 C   0  0  2  0  0  0  0  0  0  0  0  0
    4.3793   15.9660   35.2583 O   0  0  0  0  0  0  0  0  0  0  0  0
    1.9799   24.8119   33.0284 C   0  0  0  0  0  0  0  0  0  0  0  0
    0.5142   20.8510   42.3840 C   0  0  0  0  0  0  0  0  0  0  0  0
    3.0748   18.5230   35.2957 O   0  0  0  0  0  0  0  0  0  0  0  0
    0.2494   20.6427   43.6612 N   0  0  0  0  0  0  0  0  0  0  0  0
    2.6502   17.0031   37.0558 N   0  0  0  0  0  0  0  0  0  0  0  0
    3.7500   15.0107   36.1090 C   0  0  1  0  0  0  0  0  0  0  0  0
    2.5940   24.9039   31.7750 C   0  0  0  0  0  0  0  0  0  0  0  0
    0.3679   28.7510   33.4225 C   0  0  0  0  0  0  0  0  0  0  0  0
    2.7068   25.7752   29.3758 C   0  0  0  0  0  0  0  0  0  0  0  0
    1.0125   19.6343   40.1519 C   0  0  0  0  0  0  0  0  0  0  0  0
    2.2955   23.8169   34.0477 C   0  0  0  0  0  0  0  0  0  0  0  0
    0.7466   19.7525   41.4979 C   0  0  0  0  0  0  0  0  0  0  0  0
    0.6006   26.6963   32.3524 C   0  0  0  0  0  0  0  0  0  0  0  0
    2.9504   19.5252   37.2629 C   0  0  2  0  0  0  0  0  0  0  0  0
    1.7785   14.0656   35.1869 C   0  0  1  0  0  0  0  0  0  0  0  0
   -0.3298   27.7351   32.6594 N   0  0  0  0  0  0  0  0  0  0  0  0
    2.8334   22.4665   33.8110 C   0  0  0  0  0  0  0  0  0  0  0  0
    2.0869   25.7417   30.7429 C   0  0  0  0  0  0  0  0  0  0  0  0
    1.3526   15.2902   35.8501 C   0  0  0  0  0  0  0  0  0  0  0  0
    3.5516   12.5943   35.7645 O   0  0  0  0  0  0  0  0  0  0  0  0
    2.8234   18.3892   36.3622 C   0  0  0  0  0  0  0  0  0  0  0  0
    2.3513   20.7668   39.2099 H   0  0  0  0  0  0  0  0  0  0  0  0
    2.9296   19.4336   40.4055 H   0  0  0  0  0  0  0  0  0  0  0  0
    3.5728   18.5463   39.0045 H   0  0  0  0  0  0  0  0  0  0  0  0
    4.0863   24.2932   30.5779 H   0  0  0  0  0  0  0  0  0  0  0  0
    0.5628   25.8606   34.3309 H   0  0  0  0  0  0  0  0  0  0  0  0
    2.0500   21.4356   37.5381 H   0  0  0  0  0  0  0  0  0  0  0  0
    2.8913   21.2138   35.9665 H   0  0  0  0  0  0  0  0  0  0  0  0
    1.3038   20.4243   36.2548 H   0  0  0  0  0  0  0  0  0  0  0  0
    0.5045   12.8048   34.6189 H   0  0  0  0  0  0  0  0  0  0  0  0
   -0.0279   19.3651   45.3034 H   0  0  0  0  0  0  0  0  0  0  0  0
   -0.0278   17.5836   41.4358 H   0  0  0  0  0  0  0  0  0  0  0  0
    0.7705   17.3191   43.9643 H   0  0  0  0  0  0  0  0  0  0  0  0
    0.6060   27.1692   30.2442 H   0  0  0  0  0  0  0  0  0  0  0  0
    2.3909   15.0196   37.7148 H   0  0  0  0  0  0  0  0  0  0  0  0
    3.7817   13.8262   34.3641 H   0  0  0  0  0  0  0  0  0  0  0  0
    4.9831   16.5384   35.7949 H   0  0  0  0  0  0  0  0  0  0  0  0
    0.5564   21.8800   41.9978 H   0  0  0  0  0  0  0  0  0  0  0  0
    4.5246   14.7463   36.8438 H   0  0  0  0  0  0  0  0  0  0  0  0
    0.4245   28.4432   34.4770 H   0  0  0  0  0  0  0  0  0  0  0  0
    1.3848   28.8765   33.0221 H   0  0  0  0  0  0  0  0  0  0  0  0
   -0.1760   29.7041   33.3475 H   0  0  0  0  0  0  0  0  0  0  0  0
    3.8028   25.7701   29.4700 H   0  0  0  0  0  0  0  0  0  0  0  0
    2.3837   24.8922   28.8050 H   0  0  0  0  0  0  0  0  0  0  0  0
    2.3881   26.6878   28.8510 H   0  0  0  0  0  0  0  0  0  0  0  0
    0.4030   20.4083   39.6625 H   0  0  0  0  0  0  0  0  0  0  0  0
    0.8126   18.5632   40.0013 H   0  0  0  0  0  0  0  0  0  0  0  0
    3.0268   24.3052   34.7085 H   0  0  0  0  0  0  0  0  0  0  0  0
    1.2772   23.5555   34.3714 H   0  0  0  0  0  0  0  0  0  0  0  0
    3.8995   20.0612   37.4109 H   0  0  0  0  0  0  0  0  0  0  0  0
    1.3184   13.2340   35.7408 H   0  0  0  0  0  0  0  0  0  0  0  0
   -1.3227   27.7584   32.3865 H   0  0  0  0  0  0  0  0  0  0  0  0
    3.1902   22.0422   34.7611 H   0  0  0  0  0  0  0  0  0  0  0  0
    2.0423   21.8242   33.3967 H   0  0  0  0  0  0  0  0  0  0  0  0
    3.6693   22.5246   33.0984 H   0  0  0  0  0  0  0  0  0  0  0  0
    0.4255   15.1400   36.4228 H   0  0  0  0  0  0  0  0  0  0  0  0
    1.1155   16.1207   35.1689 H   0  0  0  0  0  0  0  0  0  0  0  0
    3.7315   12.6224   36.7376 H   0  0  0  0  0  0  0  0  0  0  0  0
  1 24  1  0
  2  1  1  0
  3 21  1  0
  5  2  1  0
  9 10  2  0
 10  8  1  0
 11 27  2  0
 12 33  1  0
 12 19  1  0
 13 34  1  0
 13 20  1  0
 15  4  2  0
 15 25  1  0
 16 18  1  0
 17 35  2  0
 18  8  2  0
 19  5  1  0
 20 14  1  0
 20 12  1  0
 21 15  1  0
 23 32  1  0
 24 26  1  0
 26  9  1  0
 26 16  2  0
 27 30  1  0
 27  4  1  0
 28  6  1  0
 28  2  1  0
 29  7  1  0
 29 13  1  0
 29 33  1  0
 30 22  1  0
 31 25  1  0
 32 11  1  0
 32 21  2  0
 35 19  1  0
 35 28  1  0
  1 36  1  0
  1 37  1  0
  2 38  1  1
  3 39  1  0
  4 40  1  0
  6 41  1  0
  6 42  1  0
  6 43  1  0
  7 44  1  0
  8 45  1  0
  9 46  1  0
 10 47  1  0
 11 48  1  0
 12 49  1  1
 13 50  1  6
 14 51  1  0
 16 52  1  0
 20 53  1  1
 22 54  1  0
 22 55  1  0
 22 56  1  0
 23 57  1  0
 23 58  1  0
 23 59  1  0
 24 60  1  0
 24 61  1  0
 25 62  1  0
 25 63  1  0
 28 64  1  1
 29 65  1  1
 30 66  1  0
 31 67  1  0
 31 68  1  0
 31 69  1  0
 33 70  1  0
 33 71  1  0
 34 72  1  0
M  END
>  <mol_id>  (8) 
2026-09-16-6tgu-s0-n100-0008

>  <rmsd_to_ref>  (8) 


$$$$

     RDKit          3D

 68 70  0  0  0  0  0  0  0  0999 V2000
    2.8737   15.8484   37.2385 N   0  0  0  0  0  0  0  0  0  0  0  0
    1.0951   20.5902   40.6080 C   0  0  0  0  0  0  0  0  0  0  0  0
    0.4814   14.6896   34.2221 N   0  0  0  0  0  0  0  0  0  0  0  0
    3.2078   25.9135   34.2086 C   0  0  2  0  0  0  0  0  0  0  0  0
    2.6771   28.1672   34.9658 C   0  0  0  0  0  0  0  0  0  0  0  0
    4.3161   16.1923   36.9919 C   0  0  0  0  0  0  0  0  0  0  0  0
    2.7889   20.3167   37.9074 C   0  0  0  0  0  0  0  0  0  0  0  0
    1.5417   23.3691   35.9299 O   0  0  0  0  0  0  0  0  0  0  0  0
    1.8461   19.5443   40.1657 C   0  0  1  0  0  0  0  0  0  0  0  0
    3.4336   25.2680   35.4647 C   0  0  1  0  0  0  0  0  0  0  0  0
    0.1472   21.2754   42.5436 C   0  0  0  0  0  0  0  0  0  0  0  0
    3.8512   23.7750   34.8667 C   0  0  0  0  0  0  0  0  0  0  0  0
    1.4663   27.1542   32.9332 C   0  0  0  0  0  0  0  0  0  0  0  0
    4.3560   26.0429   35.0640 O   0  0  0  0  0  0  0  0  0  0  0  0
    3.0355   13.8980   34.4913 C   0  0  0  0  0  0  0  0  0  0  0  0
    0.6050   28.2460   32.9890 C   0  0  0  0  0  0  0  0  0  0  0  0
    0.7556   20.5718   41.7593 C   0  0  1  0  0  0  0  0  0  0  0  0
    1.5113   16.0992   39.1566 O   0  0  0  0  0  0  0  0  0  0  0  0
    2.1173   16.6666   38.2945 C   0  0  0  0  0  0  0  0  0  0  0  0
    3.1440   21.4455   35.5062 S   0  0  0  0  0  0  0  0  0  0  0  0
    1.5645   13.7348   34.0756 C   0  0  0  0  0  0  0  0  0  0  0  0
    3.3101   13.5869   35.9829 C   0  0  0  0  0  0  0  0  0  0  0  0
    1.7290   29.1885   34.9296 C   0  0  0  0  0  0  0  0  0  0  0  0
    2.4159   14.4265   36.8932 C   0  0  0  0  0  0  0  0  0  0  0  0
   -2.1458   21.1172   43.1490 O   0  0  0  0  0  0  0  0  0  0  0  0
    1.2750   12.5488   34.0326 O   0  0  0  0  0  0  0  0  0  0  0  0
    0.6860   29.1997   33.9634 C   0  0  0  0  0  0  0  0  0  0  0  0
   -0.9948   20.5824   43.1256 C   0  0  0  0  0  0  0  0  0  0  0  0
    2.4936   17.9591   38.1683 N   0  0  0  0  0  0  0  0  0  0  0  0
    2.6983   23.0535   35.2086 C   0  0  0  0  0  0  0  0  0  0  0  0
    2.5779   20.5584   36.9732 C   0  0  0  0  0  0  0  0  0  0  0  0
   -0.9370   19.2208   43.7220 C   0  0  0  0  0  0  0  0  0  0  0  0
    1.2204   18.9846   41.5841 S   0  0  0  0  0  0  0  0  0  0  0  0
    2.4610   27.0884   34.0871 C   0  0  0  0  0  0  0  0  0  0  0  0
    2.0863   19.0549   38.9071 C   0  0  2  0  0  0  0  0  0  0  0  0
    0.1830   20.6260   39.9942 H   0  0  0  0  0  0  0  0  0  0  0  0
    1.7508   21.4689   40.5189 H   0  0  0  0  0  0  0  0  0  0  0  0
   -0.4656   14.4480   33.8969 H   0  0  0  0  0  0  0  0  0  0  0  0
    0.6597   15.6088   34.6511 H   0  0  0  0  0  0  0  0  0  0  0  0
    2.9035   25.5680   33.2096 H   0  0  0  0  0  0  0  0  0  0  0  0
    3.5441   28.2021   35.6418 H   0  0  0  0  0  0  0  0  0  0  0  0
    4.8396   16.2896   37.9544 H   0  0  0  0  0  0  0  0  0  0  0  0
    4.7867   15.3952   36.3975 H   0  0  0  0  0  0  0  0  0  0  0  0
    4.3776   17.1436   36.4431 H   0  0  0  0  0  0  0  0  0  0  0  0
    3.5721   20.9213   38.3881 H   0  0  0  0  0  0  0  0  0  0  0  0
    2.8789   19.4462   39.8000 H   0  0  0  0  0  0  0  0  0  0  0  0
    2.9224   25.1662   36.4333 H   0  0  0  0  0  0  0  0  0  0  0  0
   -0.2125   22.1696   42.0134 H   0  0  0  0  0  0  0  0  0  0  0  0
    0.8329   21.5460   43.3600 H   0  0  0  0  0  0  0  0  0  0  0  0
    4.0113   23.7996   33.7786 H   0  0  0  0  0  0  0  0  0  0  0  0
    4.7929   23.3624   35.2578 H   0  0  0  0  0  0  0  0  0  0  0  0
    1.4325   26.4053   32.1283 H   0  0  0  0  0  0  0  0  0  0  0  0
    3.3367   14.9374   34.2943 H   0  0  0  0  0  0  0  0  0  0  0  0
    3.6134   13.1691   33.9041 H   0  0  0  0  0  0  0  0  0  0  0  0
   -0.1725   28.3448   32.2170 H   0  0  0  0  0  0  0  0  0  0  0  0
    0.6327   21.2842   42.5883 H   0  0  0  0  0  0  0  0  0  0  0  0
    3.1131   12.5209   36.1698 H   0  0  0  0  0  0  0  0  0  0  0  0
    4.3599   13.8305   36.2032 H   0  0  0  0  0  0  0  0  0  0  0  0
    1.7892   30.0041   35.6653 H   0  0  0  0  0  0  0  0  0  0  0  0
    1.4348   14.5088   36.4025 H   0  0  0  0  0  0  0  0  0  0  0  0
    2.4251   13.8935   37.8553 H   0  0  0  0  0  0  0  0  0  0  0  0
   -0.0732   29.9948   34.0015 H   0  0  0  0  0  0  0  0  0  0  0  0
    3.1755   18.1538   37.4212 H   0  0  0  0  0  0  0  0  0  0  0  0
    1.6066   20.1040   36.7278 H   0  0  0  0  0  0  0  0  0  0  0  0
   -0.8728   19.3026   44.8170 H   0  0  0  0  0  0  0  0  0  0  0  0
   -1.8440   18.6619   43.4484 H   0  0  0  0  0  0  0  0  0  0  0  0
   -0.0512   18.6912   43.3413 H   0  0  0  0  0  0  0  0  0  0  0  0
    1.1647   18.5530   39.2369 H   0  0  0  0  0  0  0  0  0  0  0  0
  1 19  1  0
  2 17  1  0
  4 34  1  0
  4 14  1  0
  4 10  1  0
  6  1  1  0
  9 35  1  0
  9  2  1  0
  9 33  1  0
 10 12  1  0
 11 28  1  0
 12 30  1  0
 13 34  2  0
 14 10  1  0
 15 22  1  0
 16 13  1  0
 16 27  2  0
 17 11  1  0
 19 18  2  0
 20 31  1  0
 21  3  1  0
 21 15  1  0
 22 24  1  0
 23  5  2  0
 24  1  1  0
 25 28  2  0
 26 21  2  0
 27 23  1  0
 28 32  1  0
 29 19  1  0
 29 35  1  0
 30 20  1  0
 30  8  2  0
 31  7  2  3
 33 17  1  0
 34  5  1  0
 35  7  1  0
  2 36  1  0
  2 37  1  0
  3 38  1  0
  3 39  1  0
  4 40  1  6
  5 41  1  0
  6 42  1  0
  6 43  1  0
  6 44  1  0
  7 45  1  0
  9 46  1  1
 10 47  1  1
 11 48  1  0
 11 49  1  0
 12 50  1  0
 12 51  1  0
 13 52  1  0
 15 53  1  0
 15 54  1  0
 16 55  1  0
 17 56  1  1
 22 57  1  0
 22 58  1  0
 23 59  1  0
 24 60  1  0
 24 61  1  0
 27 62  1  0
 29 63  1  0
 31 64  1  0
 32 65  1  0
 32 66  1  0
 32 67  1  0
 35 68  1  6
M  END
>  <mol_id>  (9) 
2026-09-16-6tgu-s0-n100-0009

>  <rmsd_to_ref>  (9) 


$$$$

     RDKit          3D

 49 50  0  0  0  0  0  0  0  0999 V2000
    3.4214   22.9802   31.8451 C   0  0  0  0  0  0  0  0  0  0  0  0
    3.6442   21.9474   34.6283 C   0  0  0  0  0  0  0  0  0  0  0  0
    3.3785   18.5860   39.6360 O   0  0  0  0  0  0  0  0  0  0  0  0
    2.4293   22.7230   34.1595 C   0  0  0  0  0  0  0  0  0  0  0  0
    2.7422   20.8493   38.7792 N   0  0  0  0  0  0  0  0  0  0  0  0
    2.6096   23.4860   32.9037 C   0  0  1  0  0  0  0  0  0  0  0  0
    2.2038   24.8570   32.7977 C   0  0  0  0  0  0  0  0  0  0  0  0
    3.5225   23.7031   30.5776 C   0  0  0  0  0  0  0  0  0  0  0  0
    1.7479   20.2180   41.1455 C   0  0  0  0  0  0  0  0  0  0  0  0
    0.2604   21.7300   42.1333 C   0  0  0  0  0  0  0  0  0  0  0  0
    2.1578   21.2337   36.4275 C   0  0  0  0  0  0  0  0  0  0  0  0
    4.1603   20.4875   40.9480 O   0  0  0  0  0  0  0  0  0  0  0  0
    2.1101   20.2379   37.5936 C   0  0  0  0  0  0  0  0  0  0  0  0
    1.7440   25.2527   31.4328 C   0  0  0  0  0  0  0  0  0  0  0  0
    2.7869   24.9988   30.4047 C   0  0  0  0  0  0  0  0  0  0  0  0
    3.1671   20.0153   40.0704 S   0  0  0  0  0  6  0  0  0  0  0  0
    1.2481   18.9688   41.5561 C   0  0  0  0  0  0  0  0  0  0  0  0
   -0.6391   19.5997   42.9131 C   0  0  0  0  0  0  0  0  0  0  0  0
    3.2328   20.8205   35.5246 C   0  0  0  0  0  0  0  0  0  0  0  0
   -0.6347   20.9155   42.7323 C   0  0  0  0  0  0  0  0  0  0  0  0
    1.4175   21.4394   41.3450 C   0  0  0  0  0  0  0  0  0  0  0  0
    0.1651   18.7114   42.3526 C   0  0  0  0  0  0  0  0  0  0  0  0
    3.9752   22.0398   31.9832 H   0  0  0  0  0  0  0  0  0  0  0  0
    4.3142   22.6229   35.1802 H   0  0  0  0  0  0  0  0  0  0  0  0
    4.1623   21.5331   33.7508 H   0  0  0  0  0  0  0  0  0  0  0  0
    1.6078   22.0076   34.0070 H   0  0  0  0  0  0  0  0  0  0  0  0
    2.2257   23.4694   34.9414 H   0  0  0  0  0  0  0  0  0  0  0  0
    2.0841   21.5687   39.1111 H   0  0  0  0  0  0  0  0  0  0  0  0
    1.6504   22.9816   32.7149 H   0  0  0  0  0  0  0  0  0  0  0  0
    1.3779   25.0284   33.5038 H   0  0  0  0  0  0  0  0  0  0  0  0
    3.0897   25.4686   33.0239 H   0  0  0  0  0  0  0  0  0  0  0  0
    4.1338   23.2993   29.7571 H   0  0  0  0  0  0  0  0  0  0  0  0
    0.0656   22.8032   42.2764 H   0  0  0  0  0  0  0  0  0  0  0  0
    1.1971   21.2275   35.8918 H   0  0  0  0  0  0  0  0  0  0  0  0
    2.3424   22.2516   36.8012 H   0  0  0  0  0  0  0  0  0  0  0  0
    1.0634   19.9886   37.8220 H   0  0  0  0  0  0  0  0  0  0  0  0
    2.6503   19.3201   37.3184 H   0  0  0  0  0  0  0  0  0  0  0  0
    0.8443   24.6735   31.1781 H   0  0  0  0  0  0  0  0  0  0  0  0
    1.5294   26.3315   31.4434 H   0  0  0  0  0  0  0  0  0  0  0  0
    3.5189   25.8187   30.4468 H   0  0  0  0  0  0  0  0  0  0  0  0
    2.2669   24.9387   29.4372 H   0  0  0  0  0  0  0  0  0  0  0  0
    1.7966   18.0880   41.1910 H   0  0  0  0  0  0  0  0  0  0  0  0
   -1.3961   19.2045   43.6064 H   0  0  0  0  0  0  0  0  0  0  0  0
    2.8814   19.9803   34.9078 H   0  0  0  0  0  0  0  0  0  0  0  0
    4.1010   20.5187   36.1288 H   0  0  0  0  0  0  0  0  0  0  0  0
   -1.5146   21.4325   43.1427 H   0  0  0  0  0  0  0  0  0  0  0  0
    2.2721   21.9270   41.8369 H   0  0  0  0  0  0  0  0  0  0  0  0
    1.1493   21.8045   40.3426 H   0  0  0  0  0  0  0  0  0  0  0  0
   -0.0607   17.6526   42.5475 H   0  0  0  0  0  0  0  0  0  0  0  0
  1  6  1  0
  2 19  1  0
  3 16  2  0
  4  2  1  0
  5 16  1  0
  6  4  1  0
  7  6  1  0
  8  1  2  0
  9 17  2  0
  9 21  1  0
 10 20  2  0
 11 13  1  0
 13  5  1  0
 14  7  1  0
 15  8  1  0
 15 14  1  0
 16  9  1  0
 16 12  2  0
 17 22  1  0
 19 11  1  0
 20 18  1  0
 21 10  1  0
 22 18  2  0
  1 23  1  0
  2 24  1  0
  2 25  1  0
  4 26  1  0
  4 27  1  0
  5 28  1  0
  6 29  1  6
  7 30  1  0
  7 31  1  0
  8 32  1  0
 10 33  1  0
 11 34  1  0
 11 35  1  0
 13 36  1  0
 13 37  1  0
 14 38  1  0
 14 39  1  0
 15 40  1  0
 15 41  1  0
 17 42  1  0
 18 43  1  0
 19 44  1  0
 19 45  1  0
 20 46  1  0
 21 47  1  0
 21 48  1  0
 22 49  1  0
M  END
>  <mol_id>  (10) 
2026-09-16-6tgu-s0-n100-0010

>  <rmsd_to_ref>  (10) 


$$$$

     RDKit          3D

 63 64  0  0  0  0  0  0  0  0999 V2000
    1.9228   22.1179   38.3323 O   0  0  0  0  0  0  0  0  0  0  0  0
    1.7748   15.3138   42.8682 C   0  0  0  0  0  0  0  0  0  0  0  0
    2.7379   15.6852   40.7391 C   0  0  0  0  0  0  0  0  0  0  0  0
    2.6357   26.9106   30.4655 S   0  0  0  0  0  0  0  0  0  0  0  0
    2.4443   24.4132   32.3035 C   0  0  0  0  0  0  0  0  0  0  0  0
    1.5054   16.9379   42.6220 S   0  0  0  0  0  0  0  0  0  0  0  0
    2.2227   21.4743   39.7717 C   0  0  0  0  0  0  0  0  0  0  0  0
    3.2255   22.0410   34.7224 C   0  0  0  0  0  0  0  0  0  0  0  0
    2.7849   19.6213   38.2628 C   0  0  0  0  0  0  0  0  0  0  0  0
    3.5458   20.0923   37.3638 C   0  0  0  0  0  0  0  0  0  0  0  0
    2.1918   22.7958   35.6242 C   0  0  0  0  0  0  0  0  0  0  0  0
   -3.0481   25.3347   26.8226 C   0  0  0  0  0  0  0  0  0  0  0  0
    2.5587   14.6982   41.7425 C   0  0  0  0  0  0  0  0  0  0  0  0
    2.6161   23.3734   34.3971 C   0  0  0  0  0  0  0  0  0  0  0  0
    3.3678   15.4549   39.2964 C   0  0  0  0  0  0  0  0  0  0  0  0
   -0.2894   25.7291   26.8932 C   0  0  0  0  0  0  0  0  0  0  0  0
    1.5967   22.0007   40.8564 N   0  0  0  0  0  0  0  0  0  0  0  0
    2.3126   20.2078   39.5005 C   0  0  2  0  0  0  0  0  0  0  0  0
    2.3536   15.5843   38.2892 O   0  0  0  0  0  0  0  0  0  0  0  0
    1.9560   19.2999   40.4944 C   0  0  0  0  0  0  0  0  0  0  0  0
    3.1736   24.6711   29.0498 O   0  0  0  0  0  0  0  0  0  0  0  0
   -1.1142   26.4873   27.6824 C   0  0  2  0  0  0  0  0  0  0  0  0
    2.3967   17.9722   40.2762 N   0  0  0  0  0  0  0  0  0  0  0  0
    2.3078   25.7190   29.3271 C   0  0  0  0  0  0  0  0  0  0  0  0
    1.3313   25.8175   28.5217 N   0  0  0  0  0  0  0  0  0  0  0  0
    0.0042   25.9692   28.3354 C   0  0  2  0  0  0  0  0  0  0  0  0
    1.2370   21.1556   41.8140 C   0  0  0  0  0  0  0  0  0  0  0  0
    2.3126   16.8896   41.0490 C   0  0  0  0  0  0  0  0  0  0  0  0
    1.3830   19.8130   41.6181 N   0  0  0  0  0  0  0  0  0  0  0  0
    2.2643   23.9654   33.7184 C   0  0  0  0  0  0  0  0  0  0  0  0
   -2.6365   26.4419   27.5436 C   0  0  0  0  0  0  0  0  0  0  0  0
    1.4216   14.7576   43.7490 H   0  0  0  0  0  0  0  0  0  0  0  0
    2.6224   26.3600   31.7199 H   0  0  0  0  0  0  0  0  0  0  0  0
    3.0360   25.3403   32.2848 H   0  0  0  0  0  0  0  0  0  0  0  0
    2.9696   23.6314   31.7355 H   0  0  0  0  0  0  0  0  0  0  0  0
    1.4596   24.5974   31.8492 H   0  0  0  0  0  0  0  0  0  0  0  0
    4.2813   21.9627   35.0208 H   0  0  0  0  0  0  0  0  0  0  0  0
    3.3063   21.0542   34.2432 H   0  0  0  0  0  0  0  0  0  0  0  0
    2.4245   18.5999   38.0712 H   0  0  0  0  0  0  0  0  0  0  0  0
    3.7950   19.4854   36.4807 H   0  0  0  0  0  0  0  0  0  0  0  0
    3.9565   21.1075   37.4672 H   0  0  0  0  0  0  0  0  0  0  0  0
    1.1663   22.4111   35.7252 H   0  0  0  0  0  0  0  0  0  0  0  0
    2.1713   23.1268   36.6730 H   0  0  0  0  0  0  0  0  0  0  0  0
   -3.2616   24.5058   27.5135 H   0  0  0  0  0  0  0  0  0  0  0  0
   -3.9578   25.5833   26.2562 H   0  0  0  0  0  0  0  0  0  0  0  0
   -2.2523   25.0348   26.1249 H   0  0  0  0  0  0  0  0  0  0  0  0
    2.9289   13.6631   41.7037 H   0  0  0  0  0  0  0  0  0  0  0  0
    2.9595   24.2872   33.8901 H   0  0  0  0  0  0  0  0  0  0  0  0
    4.1543   16.2033   39.1191 H   0  0  0  0  0  0  0  0  0  0  0  0
    3.7964   14.4430   39.2480 H   0  0  0  0  0  0  0  0  0  0  0  0
   -0.6099   24.7343   26.5502 H   0  0  0  0  0  0  0  0  0  0  0  0
    0.2474   25.8755   25.9443 H   0  0  0  0  0  0  0  0  0  0  0  0
    3.3383   20.1956   39.8978 H   0  0  0  0  0  0  0  0  0  0  0  0
    1.4736   15.7185   38.7224 H   0  0  0  0  0  0  0  0  0  0  0  0
   -1.5391   27.4807   27.8888 H   0  0  0  0  0  0  0  0  0  0  0  0
    2.8593   17.8172   39.3692 H   0  0  0  0  0  0  0  0  0  0  0  0
    1.7397   25.7513   27.5784 H   0  0  0  0  0  0  0  0  0  0  0  0
    0.0165   25.8864   29.4322 H   0  0  0  0  0  0  0  0  0  0  0  0
    0.8237   21.5351   42.7602 H   0  0  0  0  0  0  0  0  0  0  0  0
    2.3310   24.9303   34.2424 H   0  0  0  0  0  0  0  0  0  0  0  0
    1.5317   23.2064   33.4067 H   0  0  0  0  0  0  0  0  0  0  0  0
   -2.9753   27.3515   27.0260 H   0  0  0  0  0  0  0  0  0  0  0  0
   -3.0727   26.3787   28.5514 H   0  0  0  0  0  0  0  0  0  0  0  0
  1  7  2  0
  3 28  2  0
  3 13  1  0
  5 30  1  0
  6  2  1  0
  7 17  1  0
  8 11  1  0
 10  9  2  3
 12 31  1  0
 13  2  2  0
 14  8  1  0
 14 11  1  0
 15  3  1  0
 16 22  1  0
 16 26  1  0
 17 27  2  0
 18  9  1  0
 18  7  1  0
 18 20  1  0
 19 15  1  0
 20 29  2  0
 21 24  2  0
 22 31  1  0
 22 26  1  0
 23 20  1  0
 23 28  1  0
 24  4  1  0
 25 24  1  0
 26 25  1  0
 28  6  1  0
 29 27  1  0
 30 14  1  0
  2 32  1  0
  4 33  1  0
  5 34  1  0
  5 35  1  0
  5 36  1  0
  8 37  1  0
  8 38  1  0
  9 39  1  0
 10 40  1  0
 10 41  1  0
 11 42  1  0
 11 43  1  0
 12 44  1  0
 12 45  1  0
 12 46  1  0
 13 47  1  0
 14 48  1  0
 15 49  1  0
 15 50  1  0
 16 51  1  0
 16 52  1  0
 18 53  1  1
 19 54  1  0
 22 55  1  6
 23 56  1  0
 25 57  1  0
 26 58  1  1
 27 59  1  0
 30 60  1  0
 30 61  1  0
 31 62  1  0
 31 63  1  0
M  END
>  <mol_id>  (11) 
2026-09-16-6tgu-s0-n100-0011

>  <rmsd_to_ref>  (11) 


$$$$

     RDKit          3D

 39 40  0  0  0  0  0  0  0  0999 V2000
    2.7251   20.5195   37.0013 N   0  0  0  0  0  0  0  0  0  0  0  0
    4.1276   22.8436   34.3120 C   0  0  0  0  0  0  0  0  0  0  0  0
    4.1074   21.7922   35.1014 C   0  0  2  0  0  0  0  0  0  0  0  0
    1.8824   16.6997   39.8429 N   0  0  0  0  0  0  0  0  0  0  0  0
    3.9566   23.8983   32.3039 C   0  0  0  0  0  0  0  0  0  0  0  0
    1.4007   20.5943   39.0783 C   0  0  0  0  0  0  0  0  0  0  0  0
    4.0659   20.4967   34.6844 O   0  0  0  0  0  0  0  0  0  0  0  0
    0.7946   20.1175   40.2221 C   0  0  0  0  0  0  0  0  0  0  0  0
    1.7593   17.9629   39.5543 C   0  0  0  0  0  0  0  0  0  0  0  0
    4.2284   26.0195   30.7844 C   0  0  0  0  0  0  0  0  0  0  0  0
    2.3101   18.5432   38.5080 C   0  0  0  0  0  0  0  0  0  0  0  0
    4.4730   22.9414   33.0297 C   0  0  0  0  0  0  0  0  0  0  0  0
    2.1054   19.8856   38.2102 C   0  0  0  0  0  0  0  0  0  0  0  0
    4.8404   24.6306   31.2716 C   0  0  0  0  0  0  0  0  0  0  0  0
    0.9120   18.7897   40.4432 C   0  0  0  0  0  0  0  0  0  0  0  0
    2.0588   21.2262   36.5576 C   0  0  0  0  0  0  0  0  0  0  0  0
    3.4630   21.0482   35.5323 C   0  0  1  0  0  0  0  0  0  0  0  0
    3.0955   23.2230   34.3424 H   0  0  0  0  0  0  0  0  0  0  0  0
    5.0156   23.3314   34.7404 H   0  0  0  0  0  0  0  0  0  0  0  0
    4.6901   22.5926   35.5808 H   0  0  0  0  0  0  0  0  0  0  0  0
    2.4630   16.0901   39.2495 H   0  0  0  0  0  0  0  0  0  0  0  0
    1.3991   16.3098   40.6647 H   0  0  0  0  0  0  0  0  0  0  0  0
    3.1134   23.4602   31.7498 H   0  0  0  0  0  0  0  0  0  0  0  0
    3.7171   24.6801   33.0397 H   0  0  0  0  0  0  0  0  0  0  0  0
    1.2874   21.6678   38.8670 H   0  0  0  0  0  0  0  0  0  0  0  0
    0.2490   20.7781   40.9120 H   0  0  0  0  0  0  0  0  0  0  0  0
    3.7784   26.5425   31.6411 H   0  0  0  0  0  0  0  0  0  0  0  0
    5.0270   26.6411   30.3535 H   0  0  0  0  0  0  0  0  0  0  0  0
    3.4573   25.8332   30.0223 H   0  0  0  0  0  0  0  0  0  0  0  0
    2.9544   17.9450   37.8469 H   0  0  0  0  0  0  0  0  0  0  0  0
    4.2003   21.9900   32.5494 H   0  0  0  0  0  0  0  0  0  0  0  0
    5.5448   23.1864   33.0639 H   0  0  0  0  0  0  0  0  0  0  0  0
    4.9656   23.9782   30.3948 H   0  0  0  0  0  0  0  0  0  0  0  0
    5.7981   24.8535   31.7648 H   0  0  0  0  0  0  0  0  0  0  0  0
    0.3779   18.3230   41.2840 H   0  0  0  0  0  0  0  0  0  0  0  0
    1.3876   21.6317   37.3291 H   0  0  0  0  0  0  0  0  0  0  0  0
    2.6393   22.0458   36.1090 H   0  0  0  0  0  0  0  0  0  0  0  0
    1.4631   20.7292   35.7778 H   0  0  0  0  0  0  0  0  0  0  0  0
    2.4462   21.1699   35.9339 H   0  0  0  0  0  0  0  0  0  0  0  0
  1 13  1  0
  3  2  1  0
  3 17  1  0
  5 12  1  0
  6  8  1  0
  7  3  1  0
  7 17  1  0
  8 15  2  0
  9  4  1  0
  9 15  1  0
 10 14  1  0
 11  9  2  0
 12  2  1  0
 13 11  1  0
 13  6  2  0
 14  5  1  0
 16  1  1  0
 17  1  1  0
  2 18  1  0
  2 19  1  0
  3 20  1  1
  4 21  1  0
  4 22  1  0
  5 23  1  0
  5 24  1  0
  6 25  1  0
  8 26  1  0
 10 27  1  0
 10 28  1  0
 10 29  1  0
 11 30  1  0
 12 31  1  0
 12 32  1  0
 14 33  1  0
 14 34  1  0
 15 35  1  0
 16 36  1  0
 16 37  1  0
 16 38  1  0
 17 39  1  6
M  END
>  <mol_id>  (12) 
2026-09-16-6tgu-s0-n100-0012

>  <rmsd_to_ref>  (12) 


$$$$

     RDKit          3D

 56 58  0  0  0  0  0  0  0  0999 V2000
    2.1854   22.2919   36.3171 N   0  0  0  0  0  0  0  0  0  0  0  0
    2.8459   23.3800   33.9234 C   0  0  0  0  0  0  0  0  0  0  0  0
    0.0824   20.2889   41.5397 C   0  0  0  0  0  0  0  0  0  0  0  0
    1.1522   21.1954   39.2660 C   0  0  0  0  0  0  0  0  0  0  0  0
    1.6740   26.8448   33.6727 C   0  0  0  0  0  0  0  0  0  0  0  0
    2.4721   21.0280   36.8912 C   0  0  0  0  0  0  0  0  0  0  0  0
    2.2796   17.6148   36.9128 C   0  0  0  0  0  0  0  0  0  0  0  0
    2.4271   22.6313   35.0975 C   0  0  0  0  0  0  0  0  0  0  0  0
    0.3298   28.5285   30.8026 C   0  0  0  0  0  0  0  0  0  0  0  0
    1.6767   14.1925   36.3377 O   0  0  0  0  0  0  0  0  0  0  0  0
   -0.0454   29.3261   31.8904 C   0  0  0  0  0  0  0  0  0  0  0  0
    2.1498   24.4965   33.8386 N   0  0  0  0  0  0  0  0  0  0  0  0
    0.5133   28.9558   33.1015 N   0  0  0  0  0  0  0  0  0  0  0  0
    1.2069   27.8183   32.8323 C   0  0  0  0  0  0  0  0  0  0  0  0
    4.0304   23.0799   33.0251 C   0  0  0  0  0  0  0  0  0  0  0  0
    3.2775   20.2376   36.0983 O   0  0  0  0  0  0  0  0  0  0  0  0
    1.9872   26.6144   30.8116 C   0  0  0  0  0  0  0  0  0  0  0  0
    2.1547   25.6453   33.0782 C   0  0  1  0  0  0  0  0  0  0  0  0
    2.3913   25.5625   31.7251 C   0  0  0  0  0  0  0  0  0  0  0  0
    1.6555   16.2946   37.3758 C   0  0  0  0  0  0  0  0  0  0  0  0
    3.5866   17.7949   37.4803 O   0  0  0  0  0  0  0  0  0  0  0  0
    2.6842   19.4113   39.0326 C   0  0  0  0  0  0  0  0  0  0  0  0
    0.1689   21.1271   42.7219 C   0  0  0  0  0  0  0  0  0  0  0  0
    1.9809   19.3052   40.2412 O   0  0  0  0  0  0  0  0  0  0  0  0
    1.0518   15.3153   36.4045 C   0  0  0  0  0  0  0  0  0  0  0  0
    2.1539   20.6420   38.3605 C   0  0  0  0  0  0  0  0  0  0  0  0
    0.0067   18.8246   41.8367 C   0  0  0  0  0  0  0  0  0  0  0  0
    3.7944   18.6083   38.6774 C   0  0  0  0  0  0  0  0  0  0  0  0
    1.2325   27.6188   31.4388 C   0  0  0  0  0  0  0  0  0  0  0  0
    1.8063   15.8488   38.5103 O   0  0  0  0  0  0  0  0  0  0  0  0
    0.0660   15.5619   35.7226 O   0  0  0  0  0  0  0  0  0  0  0  0
    1.0434   20.3563   40.3755 C   0  0  0  0  0  0  0  0  0  0  0  0
    1.7473   22.9982   36.9255 H   0  0  0  0  0  0  0  0  0  0  0  0
   -0.8318   20.7948   41.1960 H   0  0  0  0  0  0  0  0  0  0  0  0
    0.5787   22.1195   39.1014 H   0  0  0  0  0  0  0  0  0  0  0  0
    1.6777   26.9841   34.7638 H   0  0  0  0  0  0  0  0  0  0  0  0
    2.3617   17.6083   35.8159 H   0  0  0  0  0  0  0  0  0  0  0  0
    1.6361   18.4419   37.2471 H   0  0  0  0  0  0  0  0  0  0  0  0
    1.3975   22.4683   34.7460 H   0  0  0  0  0  0  0  0  0  0  0  0
    3.4945   22.4992   35.3284 H   0  0  0  0  0  0  0  0  0  0  0  0
    0.0169   28.5855   29.7496 H   0  0  0  0  0  0  0  0  0  0  0  0
   -0.7308   30.1805   31.7903 H   0  0  0  0  0  0  0  0  0  0  0  0
    4.8856   22.7622   33.6398 H   0  0  0  0  0  0  0  0  0  0  0  0
    3.7642   22.2756   32.3236 H   0  0  0  0  0  0  0  0  0  0  0  0
    4.3007   23.9844   32.4603 H   0  0  0  0  0  0  0  0  0  0  0  0
    2.2443   26.6242   29.7421 H   0  0  0  0  0  0  0  0  0  0  0  0
    3.2054   25.9601   33.1617 H   0  0  0  0  0  0  0  0  0  0  0  0
    2.9012   24.6736   31.3250 H   0  0  0  0  0  0  0  0  0  0  0  0
    0.3299   20.4956   43.6081 H   0  0  0  0  0  0  0  0  0  0  0  0
    1.0094   21.8283   42.6136 H   0  0  0  0  0  0  0  0  0  0  0  0
   -0.7673   21.6925   42.8397 H   0  0  0  0  0  0  0  0  0  0  0  0
    0.1515   18.6612   42.9149 H   0  0  0  0  0  0  0  0  0  0  0  0
   -0.9793   18.4401   41.5368 H   0  0  0  0  0  0  0  0  0  0  0  0
    0.7922   18.2957   41.2770 H   0  0  0  0  0  0  0  0  0  0  0  0
    4.0159   17.9345   39.5182 H   0  0  0  0  0  0  0  0  0  0  0  0
    4.6231   19.2959   38.4527 H   0  0  0  0  0  0  0  0  0  0  0  0
  1  6  1  0
  2  8  1  0
  3 27  1  0
  3 23  1  0
  4 32  2  0
  6 26  1  0
  7 20  1  0
  7 21  1  0
  8  1  1  0
  9 29  2  0
  9 11  1  0
 11 13  2  0
 12  2  2  3
 14 13  1  0
 14  5  2  0
 15  2  1  0
 16  6  2  0
 17 29  1  0
 17 19  2  0
 18  5  1  0
 18 12  1  0
 19 18  1  0
 20 30  2  0
 21 28  1  0
 22 24  1  0
 25 10  1  0
 25 20  1  0
 26  4  1  0
 26 22  2  0
 28 22  1  0
 29 14  1  0
 31 25  2  0
 32 24  1  0
 32  3  1  0
  1 33  1  0
  3 34  1  0
  4 35  1  0
  5 36  1  0
  7 37  1  0
  7 38  1  0
  8 39  1  0
  8 40  1  0
  9 41  1  0
 11 42  1  0
 15 43  1  0
 15 44  1  0
 15 45  1  0
 17 46  1  0
 18 47  1  1
 19 48  1  0
 23 49  1  0
 23 50  1  0
 23 51  1  0
 27 52  1  0
 27 53  1  0
 27 54  1  0
 28 55  1  0
 28 56  1  0
M  CHG  1  10  -1
M  END
>  <mol_id>  (13) 
2026-09-16-6tgu-s0-n100-0013

>  <rmsd_to_ref>  (13) 


$$$$

     RDKit          3D

 39 38  0  0  0  0  0  0  0  0999 V2000
   -0.1722   19.1252   41.7482 C   0  0  0  0  0  0  0  0  0  0  0  0
    4.3997   24.5361   31.8189 C   0  0  0  0  0  0  0  0  0  0  0  0
    3.5405   18.2912   38.6763 C   0  0  0  0  0  0  0  0  0  0  0  0
    2.5330   19.6429   40.0916 N   0  0  0  0  0  0  0  0  0  0  0  0
    2.8919   22.3168   35.5534 N   0  0  0  0  0  0  0  0  0  0  0  0
    1.3339   21.4264   39.9931 O   0  0  0  0  0  0  0  0  0  0  0  0
    1.9785   24.7747   31.0258 C   0  0  0  0  0  0  0  0  0  0  0  0
    2.7245   19.4862   38.6975 C   0  0  0  0  0  0  0  0  0  0  0  0
    3.2703   17.3716   39.5958 O   0  0  0  0  0  0  0  0  0  0  0  0
    1.9854   24.7727   33.4561 N   0  0  0  0  0  0  0  0  0  0  0  0
    1.7457   19.5919   42.7858 O   0  0  0  0  0  0  0  0  0  0  0  0
    0.6344   26.0979   32.3424 F   0  0  0  0  0  0  0  0  0  0  0  0
    0.8381   20.0719   41.9321 C   0  0  0  0  0  0  0  0  0  0  0  0
    3.3959   24.4195   30.7423 C   0  0  0  0  0  0  0  0  0  0  0  0
    1.1829   25.2360   29.8845 C   0  0  0  0  0  0  0  0  0  0  0  0
    4.4746   18.2593   37.9265 O   0  0  0  0  0  0  0  0  0  0  0  0
    3.9862   24.1634   33.0465 C   0  0  0  0  0  0  0  0  0  0  0  0
    2.9406   23.9890   33.7621 C   0  0  0  0  0  0  0  0  0  0  0  0
    1.5972   20.3731   40.6094 C   0  0  0  0  0  0  0  0  0  0  0  0
    0.4118   21.3974   42.5267 C   0  0  0  0  0  0  0  0  0  0  0  0
    1.6657   25.2115   32.2537 C   0  0  0  0  0  0  0  0  0  0  0  0
    2.9408   23.1304   34.6905 C   0  0  0  0  0  0  0  0  0  0  0  0
   -0.5822   18.8320   42.7259 H   0  0  0  0  0  0  0  0  0  0  0  0
   -0.9723   19.5583   41.1300 H   0  0  0  0  0  0  0  0  0  0  0  0
    0.2423   18.2398   41.2440 H   0  0  0  0  0  0  0  0  0  0  0  0
    5.4194   24.9034   31.6312 H   0  0  0  0  0  0  0  0  0  0  0  0
    3.1736   19.1489   40.7292 H   0  0  0  0  0  0  0  0  0  0  0  0
    3.2528   20.3466   38.2608 H   0  0  0  0  0  0  0  0  0  0  0  0
    1.7958   19.4177   38.1119 H   0  0  0  0  0  0  0  0  0  0  0  0
    1.4517   19.7695   43.7143 H   0  0  0  0  0  0  0  0  0  0  0  0
    3.6925   24.0737   29.7411 H   0  0  0  0  0  0  0  0  0  0  0  0
    0.2966   25.7756   30.2496 H   0  0  0  0  0  0  0  0  0  0  0  0
    1.7909   25.9086   29.2615 H   0  0  0  0  0  0  0  0  0  0  0  0
    0.8641   24.3701   29.2857 H   0  0  0  0  0  0  0  0  0  0  0  0
    4.4512   23.1694   33.1230 H   0  0  0  0  0  0  0  0  0  0  0  0
    4.1046   25.1894   33.4251 H   0  0  0  0  0  0  0  0  0  0  0  0
    0.3993   21.3199   43.6240 H   0  0  0  0  0  0  0  0  0  0  0  0
    1.1213   22.1809   42.2225 H   0  0  0  0  0  0  0  0  0  0  0  0
   -0.5951   21.6543   42.1659 H   0  0  0  0  0  0  0  0  0  0  0  0
  1 13  1  0
  2 17  1  0
  3  8  1  0
  3  9  1  0
  4 19  1  0
  6 19  2  0
  7 21  2  0
  8  4  1  0
 10 18  2  0
 13 20  1  0
 13 11  1  0
 14  7  1  0
 14  2  2  0
 15  7  1  0
 16  3  2  0
 17 18  1  0
 18 22  1  0
 19 13  1  0
 21 12  1  0
 21 10  1  0
 22  5  3  0
  1 23  1  0
  1 24  1  0
  1 25  1  0
  2 26  1  0
  4 27  1  0
  8 28  1  0
  8 29  1  0
 11 30  1  0
 14 31  1  0
 15 32  1  0
 15 33  1  0
 15 34  1  0
 17 35  1  0
 17 36  1  0
 20 37  1  0
 20 38  1  0
 20 39  1  0
M  CHG  1   9  -1
M  END
>  <mol_id>  (14) 
2026-09-16-6tgu-s0-n100-0014

>  <rmsd_to_ref>  (14) 


$$$$

     RDKit          3D

 72 74  0  0  0  0  0  0  0  0999 V2000
    2.3900   23.1164   34.6535 C   0  0  0  0  0  0  0  0  0  0  0  0
    2.1211   24.2623   27.5758 C   0  0  0  0  0  0  0  0  0  0  0  0
    3.4490   24.0319   28.2702 C   0  0  0  0  0  0  0  0  0  0  0  0
    2.6116   19.5501   40.1681 N   0  0  0  0  0  0  0  0  0  0  0  0
    3.4728   17.8502   36.9899 C   0  0  0  0  0  0  0  0  0  0  0  0
    5.7014   20.6631   39.8418 C   0  0  0  0  0  0  0  0  0  0  0  0
    3.7858   20.2292   38.4219 C   0  0  0  0  0  0  0  0  0  0  0  0
    2.8061   21.6147   36.7201 C   0  0  0  0  0  0  0  0  0  0  0  0
    4.7318   20.4180   39.3954 C   0  0  0  0  0  0  0  0  0  0  0  0
    2.8857   21.3248   33.5094 C   0  0  0  0  0  0  0  0  0  0  0  0
    4.4999   23.3507   27.3477 C   0  0  0  0  0  0  0  0  0  0  0  0
   -0.4718   21.1378   41.6307 S   0  0  0  0  0  0  0  0  0  0  0  0
    1.1650   25.0528   28.2581 C   0  0  0  0  0  0  0  0  0  0  0  0
    4.5831   22.7573   33.5411 F   0  0  0  0  0  0  0  0  0  0  0  0
    2.0236   23.5703   26.2291 C   0  0  0  0  0  0  0  0  0  0  0  0
    2.9558   23.8530   32.6079 C   0  0  0  0  0  0  0  0  0  0  0  0
    3.1874   19.0738   39.0656 C   0  0  2  0  0  0  0  0  0  0  0  0
    1.8896   20.5961   40.7300 C   0  0  0  0  0  0  0  0  0  0  0  0
    0.8424   20.0536   41.7030 C   0  0  1  0  0  0  0  0  0  0  0  0
   -1.0920   20.2307   43.1383 C   0  0  0  0  0  0  0  0  0  0  0  0
    2.6027   24.1980   31.6010 C   0  0  0  0  0  0  0  0  0  0  0  0
    2.5392   24.7125   30.2676 C   0  0  0  0  0  0  0  0  0  0  0  0
    2.1148   21.9542   35.5637 C   0  0  0  0  0  0  0  0  0  0  0  0
    2.0675   21.8407   40.5568 O   0  0  0  0  0  0  0  0  0  0  0  0
    3.8058   24.7739   29.5283 C   0  0  0  0  0  0  0  0  0  0  0  0
    3.1550   22.7672   33.4486 C   0  0  2  0  0  0  0  0  0  0  0  0
    1.3946   18.7583   42.2657 C   0  0  0  0  0  0  0  0  0  0  0  0
    3.2265   20.3398   37.1092 C   0  0  0  0  0  0  0  0  0  0  0  0
    6.4637   21.9428   40.3647 C   0  0  0  0  0  0  0  0  0  0  0  0
    0.8657   18.6925   43.6976 C   0  0  0  0  0  0  0  0  0  0  0  0
    3.4723   17.8176   38.3930 C   0  0  0  0  0  0  0  0  0  0  0  0
   -0.4514   19.0619   43.6540 C   0  0  0  0  0  0  0  0  0  0  0  0
    1.4233   25.2850   29.6848 C   0  0  0  0  0  0  0  0  0  0  0  0
   -0.4411   25.4982   27.5345 Cl  0  0  0  0  0  0  0  0  0  0  0  0
    3.1873   19.1616   36.3460 C   0  0  0  0  0  0  0  0  0  0  0  0
    1.4267   23.5444   34.3390 H   0  0  0  0  0  0  0  0  0  0  0  0
    3.0050   23.8276   35.2245 H   0  0  0  0  0  0  0  0  0  0  0  0
    2.7652   18.8553   40.9128 H   0  0  0  0  0  0  0  0  0  0  0  0
    3.6749   16.9483   36.3935 H   0  0  0  0  0  0  0  0  0  0  0  0
    6.3200   19.7611   39.9593 H   0  0  0  0  0  0  0  0  0  0  0  0
    3.0494   22.4404   37.4050 H   0  0  0  0  0  0  0  0  0  0  0  0
    2.9540   20.9827   34.5526 H   0  0  0  0  0  0  0  0  0  0  0  0
    1.8756   21.1238   33.1230 H   0  0  0  0  0  0  0  0  0  0  0  0
    3.6257   20.7875   32.8980 H   0  0  0  0  0  0  0  0  0  0  0  0
    5.3123   22.9349   27.9619 H   0  0  0  0  0  0  0  0  0  0  0  0
    4.0188   22.5410   26.7793 H   0  0  0  0  0  0  0  0  0  0  0  0
    4.9117   24.0942   26.6495 H   0  0  0  0  0  0  0  0  0  0  0  0
    2.1649   22.4876   26.3621 H   0  0  0  0  0  0  0  0  0  0  0  0
    1.0327   23.7596   25.7905 H   0  0  0  0  0  0  0  0  0  0  0  0
    2.8024   23.9621   25.5583 H   0  0  0  0  0  0  0  0  0  0  0  0
    3.2792   24.7486   33.1586 H   0  0  0  0  0  0  0  0  0  0  0  0
    4.1187   18.9034   39.6256 H   0  0  0  0  0  0  0  0  0  0  0  0
    0.3967   19.4591   40.8919 H   0  0  0  0  0  0  0  0  0  0  0  0
   -1.0911   20.9649   43.9573 H   0  0  0  0  0  0  0  0  0  0  0  0
   -2.0460   19.8206   42.7754 H   0  0  0  0  0  0  0  0  0  0  0  0
    1.0717   22.0880   35.8863 H   0  0  0  0  0  0  0  0  0  0  0  0
    2.4510   21.1354   34.9106 H   0  0  0  0  0  0  0  0  0  0  0  0
    4.6165   24.2712   30.0761 H   0  0  0  0  0  0  0  0  0  0  0  0
    4.1794   25.7945   29.3587 H   0  0  0  0  0  0  0  0  0  0  0  0
    1.0355   17.8985   41.6809 H   0  0  0  0  0  0  0  0  0  0  0  0
    2.4935   18.7268   42.2291 H   0  0  0  0  0  0  0  0  0  0  0  0
    6.5696   21.8853   41.4582 H   0  0  0  0  0  0  0  0  0  0  0  0
    7.4605   21.9905   39.9019 H   0  0  0  0  0  0  0  0  0  0  0  0
    5.8923   22.8443   40.0986 H   0  0  0  0  0  0  0  0  0  0  0  0
    0.9583   17.6682   44.0879 H   0  0  0  0  0  0  0  0  0  0  0  0
    1.4389   19.3586   44.3592 H   0  0  0  0  0  0  0  0  0  0  0  0
    3.6763   16.8926   38.9524 H   0  0  0  0  0  0  0  0  0  0  0  0
   -0.7637   19.0375   44.7084 H   0  0  0  0  0  0  0  0  0  0  0  0
   -0.7486   18.3830   42.8411 H   0  0  0  0  0  0  0  0  0  0  0  0
    0.7388   25.9056   30.2817 H   0  0  0  0  0  0  0  0  0  0  0  0
    3.9201   19.2838   35.5347 H   0  0  0  0  0  0  0  0  0  0  0  0
    2.1281   19.0791   36.0608 H   0  0  0  0  0  0  0  0  0  0  0  0
  1 23  1  0
  2 13  1  0
  2  3  2  0
  3 25  1  0
  4 18  1  0
  5 31  2  0
  6 29  1  0
  7 17  1  0
  7  9  2  0
  8 28  2  3
  9  6  2  0
 11  3  1  0
 12 19  1  0
 12 20  1  0
 13 33  2  0
 15  2  1  0
 16 26  1  0
 17  4  1  0
 19 18  1  0
 19 27  1  0
 20 32  1  0
 21 16  2  0
 22 21  2  0
 23  8  1  0
 24 18  2  0
 25 22  1  0
 26 10  1  0
 26 14  1  1
 26  1  1  0
 27 30  1  0
 28  7  1  0
 31 17  1  0
 32 30  1  0
 33 22  1  0
 34 13  1  0
 35  5  1  0
 35 28  1  0
  1 36  1  0
  1 37  1  0
  4 38  1  0
  5 39  1  0
  6 40  1  0
  8 41  1  0
 10 42  1  0
 10 43  1  0
 10 44  1  0
 11 45  1  0
 11 46  1  0
 11 47  1  0
 15 48  1  0
 15 49  1  0
 15 50  1  0
 16 51  1  0
 17 52  1  6
 19 53  1  1
 20 54  1  0
 20 55  1  0
 23 56  1  0
 23 57  1  0
 25 58  1  0
 25 59  1  0
 27 60  1  0
 27 61  1  0
 29 62  1  0
 29 63  1  0
 29 64  1  0
 30 65  1  0
 30 66  1  0
 31 67  1  0
 32 68  1  0
 32 69  1  0
 33 70  1  0
 35 71  1  0
 35 72  1  0
M  END
>  <mol_id>  (15) 
2026-09-16-6tgu-s0-n100-0015

>  <rmsd_to_ref>  (15) 


$$$$

     RDKit          3D

 49 51  0  0  0  0  0  0  0  0999 V2000
    2.6699   19.4024   37.7575 C   0  0  1  0  0  0  0  0  0  0  0  0
    1.8230   25.3376   31.4047 C   0  0  0  0  0  0  0  0  0  0  0  0
    4.4867   13.4595   37.9700 N   0  0  0  0  0  0  0  0  0  0  0  0
    4.4630   22.6063   34.3913 C   0  0  0  0  0  0  0  0  0  0  0  0
    2.5945   24.2874   33.9138 C   0  0  1  0  0  0  0  0  0  0  0  0
    2.0175   17.2981   38.9882 C   0  0  0  0  0  0  0  0  0  0  0  0
    2.1690   23.1928   34.2649 C   0  0  0  0  0  0  0  0  0  0  0  0
    2.4579   21.0655   35.8496 C   0  0  0  0  0  0  0  0  0  0  0  0
    3.1303   16.7158   36.9531 C   0  0  0  0  0  0  0  0  0  0  0  0
    1.4246   20.2138   38.3435 C   0  0  0  0  0  0  0  0  0  0  0  0
    2.9911   21.8193   34.7401 N   0  0  0  0  0  0  0  0  0  0  0  0
    4.4148   24.3095   34.4733 S   0  0  0  0  0  0  0  0  0  0  0  0
    2.6604   17.7509   37.6578 C   0  0  0  0  0  0  0  0  0  0  0  0
    1.7447   25.0040   32.8455 C   0  0  1  0  0  0  0  0  0  0  0  0
    2.1412   15.8219   38.9239 N   0  0  0  0  0  0  0  0  0  0  0  0
    1.4829   19.8068   39.9742 S   0  0  0  0  0  0  0  0  0  0  0  0
    3.7084   14.2840   37.7732 C   0  0  0  0  0  0  0  0  0  0  0  0
    1.7172   26.5350   35.4266 O   0  0  0  0  0  0  0  0  0  0  0  0
    2.9205   19.6920   36.2664 C   0  0  0  0  0  0  0  0  0  0  0  0
    2.0644   27.6593   32.3497 C   0  0  0  0  0  0  0  0  0  0  0  0
    3.3650   25.6325   30.8507 C   0  0  0  0  0  0  0  0  0  0  0  0
    1.3369   18.0013   40.0436 C   0  0  0  0  0  0  0  0  0  0  0  0
    1.2045   26.8661   33.6696 S   0  0  0  0  0  4  0  0  0  0  0  0
    2.8653   15.5069   37.7385 C   0  0  0  0  0  0  0  0  0  0  0  0
    3.3849   19.7494   38.5180 H   0  0  0  0  0  0  0  0  0  0  0  0
    1.4072   24.4947   30.8332 H   0  0  0  0  0  0  0  0  0  0  0  0
    1.2558   26.2699   31.2668 H   0  0  0  0  0  0  0  0  0  0  0  0
    4.7668   22.3234   33.3726 H   0  0  0  0  0  0  0  0  0  0  0  0
    5.1723   22.2838   35.1677 H   0  0  0  0  0  0  0  0  0  0  0  0
    2.4494   25.3400   34.1982 H   0  0  0  0  0  0  0  0  0  0  0  0
    1.5144   23.4216   35.1189 H   0  0  0  0  0  0  0  0  0  0  0  0
    1.8559   22.8360   33.2726 H   0  0  0  0  0  0  0  0  0  0  0  0
    1.3823   20.9624   35.6436 H   0  0  0  0  0  0  0  0  0  0  0  0
    2.8325   21.6642   36.6930 H   0  0  0  0  0  0  0  0  0  0  0  0
    3.6224   16.7629   35.9704 H   0  0  0  0  0  0  0  0  0  0  0  0
    1.5478   21.2970   38.1967 H   0  0  0  0  0  0  0  0  0  0  0  0
    0.4676   19.9712   37.8584 H   0  0  0  0  0  0  0  0  0  0  0  0
    1.2284   24.0469   32.6805 H   0  0  0  0  0  0  0  0  0  0  0  0
    1.7716   15.1484   39.6100 H   0  0  0  0  0  0  0  0  0  0  0  0
    3.9996   19.6102   36.0695 H   0  0  0  0  0  0  0  0  0  0  0  0
    2.3416   18.9585   35.6859 H   0  0  0  0  0  0  0  0  0  0  0  0
    2.7018   28.4588   32.7554 H   0  0  0  0  0  0  0  0  0  0  0  0
    2.6900   26.9226   31.8245 H   0  0  0  0  0  0  0  0  0  0  0  0
    1.3377   28.0913   31.6459 H   0  0  0  0  0  0  0  0  0  0  0  0
    4.0392   25.7851   31.7064 H   0  0  0  0  0  0  0  0  0  0  0  0
    3.7126   24.7731   30.2588 H   0  0  0  0  0  0  0  0  0  0  0  0
    3.3621   26.5344   30.2210 H   0  0  0  0  0  0  0  0  0  0  0  0
    0.2690   17.7424   39.9936 H   0  0  0  0  0  0  0  0  0  0  0  0
    1.8168   17.6885   40.9827 H   0  0  0  0  0  0  0  0  0  0  0  0
  1 19  1  0
  1 10  1  0
  4 12  1  0
  4 11  1  0
  5 14  1  0
  5 12  1  0
  5  7  1  0
  6 22  1  0
  7 11  1  0
  8 19  1  0
  9 13  1  0
  9 24  2  0
 10 16  1  0
 11  8  1  0
 13  1  1  0
 13  6  2  0
 14  2  1  0
 14 23  1  0
 15  6  1  0
 16 22  1  0
 17 24  1  0
 17  3  3  0
 21  2  1  0
 23 20  1  6
 23 18  2  0
 24 15  1  0
  1 25  1  1
  2 26  1  0
  2 27  1  0
  4 28  1  0
  4 29  1  0
  5 30  1  1
  7 31  1  0
  7 32  1  0
  8 33  1  0
  8 34  1  0
  9 35  1  0
 10 36  1  0
 10 37  1  0
 14 38  1  6
 15 39  1  0
 19 40  1  0
 19 41  1  0
 20 42  1  0
 20 43  1  0
 20 44  1  0
 21 45  1  0
 21 46  1  0
 21 47  1  0
 22 48  1  0
 22 49  1  0
M  END
>  <mol_id>  (16) 
2026-09-16-6tgu-s0-n100-0016

>  <rmsd_to_ref>  (16) 


$$$$

     RDKit          3D

 64 64  0  0  0  0  0  0  0  0999 V2000
    1.2497   22.1431   42.3374 C   0  0  0  0  0  0  0  0  0  0  0  0
    1.9462   16.3267   41.0501 S   0  0  0  0  0  0  0  0  0  0  0  0
    3.9181   20.4967   40.5822 C   0  0  0  0  0  0  0  0  0  0  0  0
    1.4897   25.6929   35.1151 C   0  0  0  0  0  0  0  0  0  0  0  0
    2.9594   19.1991   37.9850 C   0  0  0  0  0  0  0  0  0  0  0  0
    2.2450   21.6853   37.3985 N   0  0  0  0  0  0  0  0  0  0  0  0
    2.3808   20.7666   40.5580 C   0  0  2  0  0  0  0  0  0  0  0  0
    0.5633   26.9399   32.9528 O   0  0  0  0  0  0  0  0  0  0  0  0
    4.9322   17.1866   38.2044 O   0  0  0  0  0  0  0  0  0  0  0  0
    2.3695   20.6190   38.2087 C   0  0  0  0  0  0  0  0  0  0  0  0
    1.4995   25.2548   29.5015 C   0  0  0  0  0  0  0  0  0  0  0  0
    1.6818   17.6683   39.8169 C   0  0  0  0  0  0  0  0  0  0  0  0
    2.6782   17.9906   38.6893 C   0  0  0  0  0  0  0  0  0  0  0  0
    1.8542   21.0186   39.3337 O   0  0  0  0  0  0  0  0  0  0  0  0
    1.6364   23.1795   35.4355 C   0  0  0  0  0  0  0  0  0  0  0  0
    0.8254   28.9507   34.2270 O   0  0  0  0  0  0  0  0  0  0  0  0
    0.8019   27.8529   33.9156 C   0  0  0  0  0  0  0  0  0  0  0  0
    3.0925   21.4509   35.7061 O   0  0  0  0  0  0  0  0  0  0  0  0
    3.3249   15.6630   38.5775 N   0  0  0  0  0  0  0  0  0  0  0  0
    1.0969   26.6757   34.1380 C   0  0  1  0  0  0  0  0  0  0  0  0
    2.1417   24.3694   34.6283 C   0  0  1  0  0  0  0  0  0  0  0  0
    2.4203   24.1586   28.8303 C   0  0  0  0  0  0  0  0  0  0  0  0
    3.6394   24.0209   29.6688 C   0  0  0  0  0  0  0  0  0  0  0  0
    4.1132   14.5816   37.9447 C   0  0  0  0  0  0  0  0  0  0  0  0
    3.7548   16.8888   38.4874 C   0  0  0  0  0  0  0  0  0  0  0  0
    2.4578   22.0003   36.0757 C   0  0  0  0  0  0  0  0  0  0  0  0
    2.1328   25.7119   30.8389 C   0  0  0  0  0  0  0  0  0  0  0  0
    1.9992   24.6239   31.8798 C   0  0  0  0  0  0  0  0  0  0  0  0
    1.7160   24.3650   33.1588 C   0  0  0  0  0  0  0  0  0  0  0  0
    1.6410   21.8857   41.2280 C   0  0  0  0  0  0  0  0  0  0  0  0
    0.7139   23.0850   42.5268 H   0  0  0  0  0  0  0  0  0  0  0  0
    1.4282   21.4366   43.1613 H   0  0  0  0  0  0  0  0  0  0  0  0
    2.0137   16.8682   42.3067 H   0  0  0  0  0  0  0  0  0  0  0  0
    4.2785   20.5218   41.6211 H   0  0  0  0  0  0  0  0  0  0  0  0
    4.1237   19.5078   40.1465 H   0  0  0  0  0  0  0  0  0  0  0  0
    4.4355   21.2704   39.9959 H   0  0  0  0  0  0  0  0  0  0  0  0
    2.2100   26.1785   35.7899 H   0  0  0  0  0  0  0  0  0  0  0  0
    0.5386   25.3704   35.5637 H   0  0  0  0  0  0  0  0  0  0  0  0
    3.6950   19.1138   37.1716 H   0  0  0  0  0  0  0  0  0  0  0  0
    2.2523   19.8215   41.1060 H   0  0  0  0  0  0  0  0  0  0  0  0
    0.5035   24.8294   29.6938 H   0  0  0  0  0  0  0  0  0  0  0  0
    1.4052   26.1181   28.8263 H   0  0  0  0  0  0  0  0  0  0  0  0
    0.7287   17.4364   39.3193 H   0  0  0  0  0  0  0  0  0  0  0  0
    1.7744   18.5637   40.4492 H   0  0  0  0  0  0  0  0  0  0  0  0
    0.9166   22.6820   34.7689 H   0  0  0  0  0  0  0  0  0  0  0  0
    1.3829   23.7152   36.3623 H   0  0  0  0  0  0  0  0  0  0  0  0
    2.4518   15.4496   39.0804 H   0  0  0  0  0  0  0  0  0  0  0  0
    1.6624   25.9531   34.7448 H   0  0  0  0  0  0  0  0  0  0  0  0
    3.2322   24.2970   34.7527 H   0  0  0  0  0  0  0  0  0  0  0  0
    1.8866   23.1979   28.7837 H   0  0  0  0  0  0  0  0  0  0  0  0
    2.6880   24.4541   27.8051 H   0  0  0  0  0  0  0  0  0  0  0  0
    3.3734   24.1565   30.7276 H   0  0  0  0  0  0  0  0  0  0  0  0
    4.0724   23.0201   29.5248 H   0  0  0  0  0  0  0  0  0  0  0  0
    4.3748   24.7843   29.3749 H   0  0  0  0  0  0  0  0  0  0  0  0
    4.6734   14.0356   38.7179 H   0  0  0  0  0  0  0  0  0  0  0  0
    3.4345   13.8889   37.4255 H   0  0  0  0  0  0  0  0  0  0  0  0
    4.8173   15.0169   37.2202 H   0  0  0  0  0  0  0  0  0  0  0  0
    3.1985   25.9329   30.6793 H   0  0  0  0  0  0  0  0  0  0  0  0
    1.6109   26.6130   31.1932 H   0  0  0  0  0  0  0  0  0  0  0  0
    1.2616   23.9749   31.3850 H   0  0  0  0  0  0  0  0  0  0  0  0
    3.0685   24.7102   32.1228 H   0  0  0  0  0  0  0  0  0  0  0  0
    1.4596   23.2998   33.0616 H   0  0  0  0  0  0  0  0  0  0  0  0
    1.3701   25.4028   33.2742 H   0  0  0  0  0  0  0  0  0  0  0  0
    1.3882   22.6850   40.5159 H   0  0  0  0  0  0  0  0  0  0  0  0
  5 10  1  0
  5 13  2  3
  6 10  2  3
  7  3  1  0
  7 30  1  0
  8 17  1  0
  8 20  1  0
  9 25  2  0
 10 14  1  0
 11 27  1  0
 12  2  1  0
 13 12  1  0
 14  7  1  0
 15 26  1  0
 17 20  1  0
 17 16  2  0
 18 26  2  0
 19 25  1  0
 20  4  1  0
 21 29  1  0
 21  4  1  0
 21 15  1  0
 22 11  1  0
 22 23  1  0
 24 19  1  0
 25 13  1  0
 26  6  1  0
 27 28  1  0
 28 29  1  0
 30  1  2  3
  1 31  1  0
  1 32  1  0
  2 33  1  0
  3 34  1  0
  3 35  1  0
  3 36  1  0
  4 37  1  0
  4 38  1  0
  5 39  1  0
  7 40  1  1
 11 41  1  0
 11 42  1  0
 12 43  1  0
 12 44  1  0
 15 45  1  0
 15 46  1  0
 19 47  1  0
 20 48  1  6
 21 49  1  6
 22 50  1  0
 22 51  1  0
 23 52  1  0
 23 53  1  0
 23 54  1  0
 24 55  1  0
 24 56  1  0
 24 57  1  0
 27 58  1  0
 27 59  1  0
 28 60  1  0
 28 61  1  0
 29 62  1  0
 29 63  1  0
 30 64  1  0
M  END
>  <mol_id>  (17) 
2026-09-16-6tgu-s0-n100-0017

>  <rmsd_to_ref>  (17) 


$$$$

     RDKit          3D

 61 61  0  0  0  0  0  0  0  0999 V2000
    1.6887   20.4725   40.8379 N   0  0  0  0  0  0  0  0  0  0  0  0
    1.4270   15.3254   40.8641 O   0  0  0  0  0  0  0  0  0  0  0  0
    3.3623   20.3880   36.2265 C   0  0  0  0  0  0  0  0  0  0  0  0
    3.0038   15.0820   37.6933 C   0  0  0  0  0  0  0  0  0  0  0  0
    3.1602   24.4948   33.6145 C   0  0  0  0  0  0  0  0  0  0  0  0
    4.1829   22.4004   32.2087 C   0  0  0  0  0  0  0  0  0  0  0  0
    2.4365   19.6863   38.6156 C   0  0  0  0  0  0  0  0  0  0  0  0
    1.6101   28.3772   32.5230 N   0  0  0  0  0  0  0  0  0  0  0  0
    4.3417   20.7183   35.8608 O   0  0  0  0  0  0  0  0  0  0  0  0
    2.3725   14.7807   38.8596 N   0  0  0  0  0  0  0  0  0  0  0  0
    4.5129   22.9056   30.4948 C   0  0  2  0  0  0  0  0  0  0  0  0
    3.8224   24.2180   30.8073 C   0  0  2  0  0  0  0  0  0  0  0  0
    2.0170   19.4610   39.9634 C   0  0  0  0  0  0  0  0  0  0  0  0
    2.0217   15.6787   39.7642 C   0  0  0  0  0  0  0  0  0  0  0  0
    3.1419   24.8611   32.0910 C   0  0  2  0  0  0  0  0  0  0  0  0
    3.0554   18.7156   37.8240 C   0  0  0  0  0  0  0  0  0  0  0  0
    3.6852   23.8437   28.4548 C   0  0  0  0  0  0  0  0  0  0  0  0
    1.2720   20.2240   42.0077 O   0  0  0  0  0  0  0  0  0  0  0  0
    1.5991   26.9791   32.2255 C   0  0  2  0  0  0  0  0  0  0  0  0
    2.9856   17.4250   38.2270 C   0  0  0  0  0  0  0  0  0  0  0  0
    1.5819   28.6774   34.0136 C   0  0  0  0  0  0  0  0  0  0  0  0
    2.3711   17.1765   39.4893 C   0  0  0  0  0  0  0  0  0  0  0  0
    0.3472   25.9939   32.0876 C   0  0  0  0  0  0  0  0  0  0  0  0
    1.9993   18.1553   40.3851 C   0  0  0  0  0  0  0  0  0  0  0  0
    3.0529   26.4797   32.0374 C   0  0  0  0  0  0  0  0  0  0  0  0
    3.4208   16.3150   37.3736 C   0  0  0  0  0  0  0  0  0  0  0  0
    4.6543   22.9849   28.9778 C   0  0  0  0  0  0  0  0  0  0  0  0
    2.2628   20.6578   36.1068 O   0  0  0  0  0  0  0  0  0  0  0  0
    3.1781   24.9089   29.5617 S   0  0  0  0  0  0  0  0  0  0  0  0
    1.7951   21.6049   40.3794 O   0  0  0  0  0  0  0  0  0  0  0  0
    3.4766   19.5399   36.9177 H   0  0  0  0  0  0  0  0  0  0  0  0
    3.1818   14.2698   36.9733 H   0  0  0  0  0  0  0  0  0  0  0  0
    3.1464   25.4173   34.2136 H   0  0  0  0  0  0  0  0  0  0  0  0
    2.2756   23.8874   33.8561 H   0  0  0  0  0  0  0  0  0  0  0  0
    4.0715   23.9227   33.8431 H   0  0  0  0  0  0  0  0  0  0  0  0
    4.6685   23.1060   32.8989 H   0  0  0  0  0  0  0  0  0  0  0  0
    3.0977   22.3999   32.3883 H   0  0  0  0  0  0  0  0  0  0  0  0
    4.5829   21.3895   32.3764 H   0  0  0  0  0  0  0  0  0  0  0  0
    2.2623   20.6800   38.1770 H   0  0  0  0  0  0  0  0  0  0  0  0
    0.7836   28.8103   32.0870 H   0  0  0  0  0  0  0  0  0  0  0  0
    2.4914   28.7602   32.1522 H   0  0  0  0  0  0  0  0  0  0  0  0
    2.1543   13.7922   39.0498 H   0  0  0  0  0  0  0  0  0  0  0  0
    5.2140   22.0818   30.2952 H   0  0  0  0  0  0  0  0  0  0  0  0
    4.8026   24.2670   31.3041 H   0  0  0  0  0  0  0  0  0  0  0  0
    2.3617   24.1328   31.8249 H   0  0  0  0  0  0  0  0  0  0  0  0
    3.5842   18.9920   36.8998 H   0  0  0  0  0  0  0  0  0  0  0  0
    4.1147   24.3907   27.6026 H   0  0  0  0  0  0  0  0  0  0  0  0
    2.8230   23.2389   28.1372 H   0  0  0  0  0  0  0  0  0  0  0  0
    1.5373   27.2081   31.1514 H   0  0  0  0  0  0  0  0  0  0  0  0
    1.7070   27.7418   34.5785 H   0  0  0  0  0  0  0  0  0  0  0  0
    2.3999   29.3690   34.2639 H   0  0  0  0  0  0  0  0  0  0  0  0
    0.6184   29.1385   34.2766 H   0  0  0  0  0  0  0  0  0  0  0  0
   -0.0067   25.7082   33.0891 H   0  0  0  0  0  0  0  0  0  0  0  0
   -0.4622   26.5034   31.5441 H   0  0  0  0  0  0  0  0  0  0  0  0
    0.6493   25.0923   31.5344 H   0  0  0  0  0  0  0  0  0  0  0  0
    1.6965   17.8969   41.4105 H   0  0  0  0  0  0  0  0  0  0  0  0
    3.6802   26.8981   32.8383 H   0  0  0  0  0  0  0  0  0  0  0  0
    3.4041   26.8103   31.0488 H   0  0  0  0  0  0  0  0  0  0  0  0
    4.0676   16.4883   36.5009 H   0  0  0  0  0  0  0  0  0  0  0  0
    4.5237   21.9814   28.5463 H   0  0  0  0  0  0  0  0  0  0  0  0
    5.6535   23.3702   28.7267 H   0  0  0  0  0  0  0  0  0  0  0  0
  1 18  1  0
  4 10  1  0
  7 13  2  0
  8 21  1  0
  9  3  2  0
 10 14  1  0
 11 12  1  0
 11  6  1  0
 12 15  1  0
 13 24  1  0
 13  1  1  0
 14  2  2  0
 15  5  1  0
 16 20  2  0
 16  7  1  0
 17 27  1  0
 17 29  1  0
 19 23  1  0
 19  8  1  0
 20 22  1  0
 22 14  1  0
 22 24  2  0
 25 15  1  0
 25 19  1  0
 26  4  2  0
 26 20  1  0
 27 11  1  0
 28  3  1  0
 29 12  1  0
 30  1  2  0
  3 31  1  0
  4 32  1  0
  5 33  1  0
  5 34  1  0
  5 35  1  0
  6 36  1  0
  6 37  1  0
  6 38  1  0
  7 39  1  0
  8 40  1  0
  8 41  1  0
 10 42  1  0
 11 43  1  1
 12 44  1  1
 15 45  1  6
 16 46  1  0
 17 47  1  0
 17 48  1  0
 19 49  1  6
 21 50  1  0
 21 51  1  0
 21 52  1  0
 23 53  1  0
 23 54  1  0
 23 55  1  0
 24 56  1  0
 25 57  1  0
 25 58  1  0
 26 59  1  0
 27 60  1  0
 27 61  1  0
M  CHG  4   1   1   8   1  18  -1  28  -1
M  END
>  <mol_id>  (18) 
2026-09-16-6tgu-s0-n100-0018

>  <rmsd_to_ref>  (18) 


$$$$

     RDKit          3D

 73 76  0  0  0  0  0  0  0  0999 V2000
    3.2000   22.6433   34.2244 C   0  0  0  0  0  0  0  0  0  0  0  0
    2.6126   18.3005   39.9363 C   0  0  0  0  0  0  0  0  0  0  0  0
    1.2079   26.7651   28.0596 C   0  0  0  0  0  0  0  0  0  0  0  0
    2.0423   23.4141   34.5449 C   0  0  0  0  0  0  0  0  0  0  0  0
    2.1869   27.3458   32.0526 C   0  0  0  0  0  0  0  0  0  0  0  0
    0.2206   20.8570   38.6272 C   0  0  0  0  0  0  0  0  0  0  0  0
    1.5834   24.4391   33.7052 C   0  0  0  0  0  0  0  0  0  0  0  0
    3.3372   14.8499   37.2686 C   0  0  0  0  0  0  0  0  0  0  0  0
    5.4082   12.0745   35.8429 C   0  0  0  0  0  0  0  0  0  0  0  0
    3.8489   13.9148   36.1828 C   0  0  0  0  0  0  0  0  0  0  0  0
    4.1434   23.2857   33.3290 C   0  0  0  0  0  0  0  0  0  0  0  0
    2.2066   24.7180   32.6125 C   0  0  0  0  0  0  0  0  0  0  0  0
    1.1365   19.8609   38.6188 C   0  0  0  0  0  0  0  0  0  0  0  0
    1.2777   26.4495   31.9249 C   0  0  2  0  0  0  0  0  0  0  0  0
    0.1033   26.3884   31.1347 C   0  0  0  0  0  0  0  0  0  0  0  0
    3.5055   20.3626   34.6541 C   0  0  0  0  0  0  0  0  0  0  0  0
    6.2371   13.7756   37.6271 S   0  0  0  0  0  0  0  0  0  0  0  0
    2.2819   14.6444   37.8041 O   0  0  0  0  0  0  0  0  0  0  0  0
    3.2657   17.9465   38.6126 C   0  0  0  0  0  0  0  0  0  0  0  0
    1.3803   19.0771   39.8481 C   0  0  0  0  0  0  0  0  0  0  0  0
   -0.7533   20.8971   39.6251 C   0  0  0  0  0  0  0  0  0  0  0  0
    1.2052   27.7463   32.7995 C   0  0  0  0  0  0  0  0  0  0  0  0
    3.6255   19.0989   40.7933 C   0  0  0  0  0  0  0  0  0  0  0  0
    4.1930   16.8522   38.6440 N   0  0  0  0  0  0  0  0  0  0  0  0
    1.5373   26.5648   30.7148 C   0  0  1  0  0  0  0  0  0  0  0  0
   -0.6593   19.9861   40.7120 C   0  0  0  0  0  0  0  0  0  0  0  0
    2.9174   18.6048   37.4091 C   0  0  0  0  0  0  0  0  0  0  0  0
    4.7326   12.9399   36.9012 C   0  0  2  0  0  0  0  0  0  0  0  0
    0.3726   19.1312   40.8021 C   0  0  0  0  0  0  0  0  0  0  0  0
    4.4231   15.9514   37.5100 C   0  0  0  0  0  0  0  0  0  0  0  0
    3.6127   24.2116   32.5123 C   0  0  0  0  0  0  0  0  0  0  0  0
    2.0008   19.5947   37.4660 C   0  0  0  0  0  0  0  0  0  0  0  0
    1.7976   25.2963   31.4373 C   0  0  1  0  0  0  0  0  0  0  0  0
    3.3606   21.4350   34.5723 C   0  0  0  0  0  0  0  0  0  0  0  0
    1.8959   26.1212   29.3173 C   0  0  0  0  0  0  0  0  0  0  0  0
    5.5564   12.8136   34.6094 O   0  0  0  0  0  0  0  0  0  0  0  0
    0.2510   27.2187   28.3571 H   0  0  0  0  0  0  0  0  0  0  0  0
    1.8655   27.5397   27.6383 H   0  0  0  0  0  0  0  0  0  0  0  0
    1.0257   25.9875   27.3031 H   0  0  0  0  0  0  0  0  0  0  0  0
    1.4958   23.1985   35.4748 H   0  0  0  0  0  0  0  0  0  0  0  0
    2.4266   27.9515   31.1662 H   0  0  0  0  0  0  0  0  0  0  0  0
    3.2424   27.2096   32.3311 H   0  0  0  0  0  0  0  0  0  0  0  0
    0.2440   21.6336   37.8486 H   0  0  0  0  0  0  0  0  0  0  0  0
    0.6844   25.0095   33.9815 H   0  0  0  0  0  0  0  0  0  0  0  0
    6.4012   11.7687   36.2041 H   0  0  0  0  0  0  0  0  0  0  0  0
    4.7854   11.1874   35.6556 H   0  0  0  0  0  0  0  0  0  0  0  0
    4.4218   14.4739   35.4284 H   0  0  0  0  0  0  0  0  0  0  0  0
    3.0294   13.4145   35.6461 H   0  0  0  0  0  0  0  0  0  0  0  0
    5.2140   23.0335   33.3191 H   0  0  0  0  0  0  0  0  0  0  0  0
   -0.4312   25.4410   30.9714 H   0  0  0  0  0  0  0  0  0  0  0  0
   -0.8605   26.9097   31.0378 H   0  0  0  0  0  0  0  0  0  0  0  0
    3.6524   19.2756   34.7371 H   0  0  0  0  0  0  0  0  0  0  0  0
    6.1568   13.7531   38.9945 H   0  0  0  0  0  0  0  0  0  0  0  0
   -1.5797   21.6212   39.5717 H   0  0  0  0  0  0  0  0  0  0  0  0
    1.3743   27.4166   33.8352 H   0  0  0  0  0  0  0  0  0  0  0  0
    1.1457   28.8443   32.7693 H   0  0  0  0  0  0  0  0  0  0  0  0
    0.2629   27.3177   32.4275 H   0  0  0  0  0  0  0  0  0  0  0  0
    3.3802   18.9776   41.8587 H   0  0  0  0  0  0  0  0  0  0  0  0
    4.6417   18.7220   40.6058 H   0  0  0  0  0  0  0  0  0  0  0  0
    3.5740   20.1641   40.5242 H   0  0  0  0  0  0  0  0  0  0  0  0
    4.7262   16.6906   39.5103 H   0  0  0  0  0  0  0  0  0  0  0  0
   -1.4396   19.9812   41.4873 H   0  0  0  0  0  0  0  0  0  0  0  0
    3.3807   18.3180   36.4535 H   0  0  0  0  0  0  0  0  0  0  0  0
    4.1042   12.4344   37.6492 H   0  0  0  0  0  0  0  0  0  0  0  0
    0.4213   18.4486   41.6633 H   0  0  0  0  0  0  0  0  0  0  0  0
    5.3848   15.4436   37.6750 H   0  0  0  0  0  0  0  0  0  0  0  0
    4.3955   16.5919   36.6161 H   0  0  0  0  0  0  0  0  0  0  0  0
    4.2525   24.6245   31.7185 H   0  0  0  0  0  0  0  0  0  0  0  0
    1.8956   20.2463   36.5860 H   0  0  0  0  0  0  0  0  0  0  0  0
    1.9890   24.3541   30.9028 H   0  0  0  0  0  0  0  0  0  0  0  0
    1.6875   25.0422   29.2690 H   0  0  0  0  0  0  0  0  0  0  0  0
    2.9391   26.4558   29.2187 H   0  0  0  0  0  0  0  0  0  0  0  0
    5.3425   13.7670   34.7682 H   0  0  0  0  0  0  0  0  0  0  0  0
  1 34  1  0
  1  4  1  0
  2 20  1  0
  2 23  1  0
  3 35  1  0
  5 22  1  0
  6 21  1  0
  7  4  2  0
  8 18  2  0
  9 28  1  0
 10 28  1  0
 10  8  1  0
 11  1  2  0
 12  7  1  0
 13  6  2  0
 13 20  1  0
 14  5  1  1
 15 14  1  0
 19  2  2  0
 20 29  2  0
 21 26  2  0
 24 19  1  0
 25 35  1  1
 25 15  1  0
 25 33  1  0
 25 14  1  0
 27 32  2  0
 27 19  1  0
 28 17  1  0
 29 26  1  0
 30  8  1  0
 30 24  1  0
 31 12  2  0
 31 11  1  0
 32 13  1  0
 33 14  1  0
 33 12  1  0
 34 16  3  0
 36  9  1  0
  3 37  1  0
  3 38  1  0
  3 39  1  0
  4 40  1  0
  5 41  1  0
  5 42  1  0
  6 43  1  0
  7 44  1  0
  9 45  1  0
  9 46  1  0
 10 47  1  0
 10 48  1  0
 11 49  1  0
 15 50  1  0
 15 51  1  0
 16 52  1  0
 17 53  1  0
 21 54  1  0
 22 55  1  0
 22 56  1  0
 22 57  1  0
 23 58  1  0
 23 59  1  0
 23 60  1  0
 24 61  1  0
 26 62  1  0
 27 63  1  0
 28 64  1  1
 29 65  1  0
 30 66  1  0
 30 67  1  0
 31 68  1  0
 32 69  1  0
 33 70  1  6
 35 71  1  0
 35 72  1  0
 36 73  1  0
M  END
>  <mol_id>  (19) 
2026-09-16-6tgu-s0-n100-0019

>  <rmsd_to_ref>  (19) 


$$$$

     RDKit          3D

 43 42  0  0  0  0  0  0  0  0999 V2000
    2.7458   23.8170   33.1709 O   0  0  0  0  0  0  0  0  0  0  0  0
    4.8650   21.7233   34.7687 C   0  0  0  0  0  0  0  0  0  0  0  0
    1.1876   18.2799   40.9180 C   0  0  0  0  0  0  0  0  0  0  0  0
    1.3221   21.4266   37.4770 C   0  0  0  0  0  0  0  0  0  0  0  0
    1.8547   19.4869   40.2275 C   0  0  0  0  0  0  0  0  0  0  0  0
    2.5073   16.6522   37.9257 C   0  0  0  0  0  0  0  0  0  0  0  0
    0.4886   20.3475   40.1899 C   0  0  0  0  0  0  0  0  0  0  0  0
    3.1295   18.2957   38.5826 C   0  0  0  0  0  0  0  0  0  0  0  0
    4.0004   23.5510   33.7275 C   0  0  0  0  0  0  0  0  0  0  0  0
    2.3166   20.4019   37.6954 C   0  0  0  0  0  0  0  0  0  0  0  0
    1.9926   19.3374   38.6356 C   0  0  2  0  0  0  0  0  0  0  0  0
    5.0740   23.3663   32.9474 O   0  0  0  0  0  0  0  0  0  0  0  0
    3.6987   22.4411   34.5091 C   0  0  2  0  0  0  0  0  0  0  0  0
    1.6752   21.4347   35.7961 C   0  0  0  0  0  0  0  0  0  0  0  0
    2.5688   22.5446   35.2352 C   0  0  0  0  0  0  0  0  0  0  0  0
    2.0592   23.8051   33.8840 H   0  0  0  0  0  0  0  0  0  0  0  0
    4.8895   21.4346   35.8299 H   0  0  0  0  0  0  0  0  0  0  0  0
    4.8863   20.8194   34.1423 H   0  0  0  0  0  0  0  0  0  0  0  0
    5.7398   22.3494   34.5389 H   0  0  0  0  0  0  0  0  0  0  0  0
    1.0661   18.4920   41.9905 H   0  0  0  0  0  0  0  0  0  0  0  0
    0.2013   18.0980   40.4661 H   0  0  0  0  0  0  0  0  0  0  0  0
    1.8196   17.3887   40.7898 H   0  0  0  0  0  0  0  0  0  0  0  0
    0.2957   21.1114   37.7165 H   0  0  0  0  0  0  0  0  0  0  0  0
    1.3589   22.3629   38.0531 H   0  0  0  0  0  0  0  0  0  0  0  0
    2.8161   19.7632   40.6851 H   0  0  0  0  0  0  0  0  0  0  0  0
    2.0763   16.0670   38.7512 H   0  0  0  0  0  0  0  0  0  0  0  0
    1.7367   16.8309   37.1614 H   0  0  0  0  0  0  0  0  0  0  0  0
    3.3442   16.0952   37.4792 H   0  0  0  0  0  0  0  0  0  0  0  0
    0.0326   20.3556   41.1909 H   0  0  0  0  0  0  0  0  0  0  0  0
    0.7135   21.3790   39.8811 H   0  0  0  0  0  0  0  0  0  0  0  0
   -0.2107   19.8940   39.4721 H   0  0  0  0  0  0  0  0  0  0  0  0
    3.5303   18.1492   39.5964 H   0  0  0  0  0  0  0  0  0  0  0  0
    3.9141   18.6681   37.9075 H   0  0  0  0  0  0  0  0  0  0  0  0
    4.3787   24.4519   34.2328 H   0  0  0  0  0  0  0  0  0  0  0  0
    2.5228   19.9308   36.7231 H   0  0  0  0  0  0  0  0  0  0  0  0
    3.1661   20.9300   38.1530 H   0  0  0  0  0  0  0  0  0  0  0  0
    0.9699   19.1633   38.2700 H   0  0  0  0  0  0  0  0  0  0  0  0
    5.8236   23.0211   33.4941 H   0  0  0  0  0  0  0  0  0  0  0  0
    3.1732   21.5610   34.1099 H   0  0  0  0  0  0  0  0  0  0  0  0
    2.1647   20.4773   35.5639 H   0  0  0  0  0  0  0  0  0  0  0  0
    0.6996   21.6128   35.3202 H   0  0  0  0  0  0  0  0  0  0  0  0
    2.8651   23.1288   36.1189 H   0  0  0  0  0  0  0  0  0  0  0  0
    1.9007   22.8892   34.4322 H   0  0  0  0  0  0  0  0  0  0  0  0
  1  9  1  0
  4 10  1  0
  5  7  1  0
  5  3  1  0
  6  8  1  0
  8 11  1  0
  9 13  1  0
 11 10  1  0
 11  5  1  0
 12  9  1  0
 13  2  1  0
 13 15  1  0
 14  4  1  0
 15 14  1  0
  1 16  1  0
  2 17  1  0
  2 18  1  0
  2 19  1  0
  3 20  1  0
  3 21  1  0
  3 22  1  0
  4 23  1  0
  4 24  1  0
  5 25  1  0
  6 26  1  0
  6 27  1  0
  6 28  1  0
  7 29  1  0
  7 30  1  0
  7 31  1  0
  8 32  1  0
  8 33  1  0
  9 34  1  0
 10 35  1  0
 10 36  1  0
 11 37  1  6
 12 38  1  0
 13 39  1  6
 14 40  1  0
 14 41  1  0
 15 42  1  0
 15 43  1  0
M  END
>  <mol_id>  (20) 
2026-09-16-6tgu-s0-n100-0020

>  <rmsd_to_ref>  (20) 


$$$$

     RDKit          3D

 41 41  0  0  0  0  0  0  0  0999 V2000
    1.6550   21.2931   40.9887 C   0  0  0  0  0  0  0  0  0  0  0  0
    3.4882   21.8559   34.5113 C   0  0  0  0  0  0  0  0  0  0  0  0
    4.0889   23.0681   30.4357 C   0  0  0  0  0  0  0  0  0  0  0  0
    3.3069   24.0746   29.5299 C   0  0  0  0  0  0  0  0  0  0  0  0
    3.0572   21.5617   35.8952 C   0  0  0  0  0  0  0  0  0  0  0  0
    3.3882   20.3965   36.4253 C   0  0  0  0  0  0  0  0  0  0  0  0
    1.8901   18.9657   40.2577 C   0  0  0  0  0  0  0  0  0  0  0  0
    2.7342   25.1745   30.3983 C   0  0  0  0  0  0  0  0  0  0  0  0
    2.4199   20.8268   38.6930 C   0  0  0  0  0  0  0  0  0  0  0  0
    3.2968   22.9073   31.6804 C   0  0  0  0  0  0  0  0  0  0  0  0
    2.7957   19.8207   37.6508 C   0  0  0  0  0  0  0  0  0  0  0  0
    1.3753   22.0373   41.8923 N   0  0  0  0  0  0  0  0  0  0  0  0
    1.8799   16.6613   39.3627 C   0  0  0  0  0  0  0  0  0  0  0  0
    3.0777   23.6268   32.6803 C   0  0  0  0  0  0  0  0  0  0  0  0
    2.1300   17.9633   39.1805 C   0  0  0  0  0  0  0  0  0  0  0  0
    2.6657   18.4563   37.9452 C   0  0  0  0  0  0  0  0  0  0  0  0
    2.7489   23.1267   34.1241 C   0  0  0  0  0  0  0  0  0  0  0  0
    1.9582   20.3989   39.9735 C   0  0  0  0  0  0  0  0  0  0  0  0
    4.5758   22.0154   34.4719 H   0  0  0  0  0  0  0  0  0  0  0  0
    3.2638   21.0252   33.8259 H   0  0  0  0  0  0  0  0  0  0  0  0
    5.0869   23.4665   30.6707 H   0  0  0  0  0  0  0  0  0  0  0  0
    4.2250   22.1025   29.9268 H   0  0  0  0  0  0  0  0  0  0  0  0
    3.9906   24.5099   28.7862 H   0  0  0  0  0  0  0  0  0  0  0  0
    2.4928   23.5506   29.0078 H   0  0  0  0  0  0  0  0  0  0  0  0
    2.4743   22.2960   36.4706 H   0  0  0  0  0  0  0  0  0  0  0  0
    4.1656   19.8096   35.9142 H   0  0  0  0  0  0  0  0  0  0  0  0
    1.6594   18.6238   41.2775 H   0  0  0  0  0  0  0  0  0  0  0  0
    2.9682   24.9682   31.4531 H   0  0  0  0  0  0  0  0  0  0  0  0
    3.1752   26.1390   30.1068 H   0  0  0  0  0  0  0  0  0  0  0  0
    1.6430   25.2154   30.2660 H   0  0  0  0  0  0  0  0  0  0  0  0
    2.4999   21.9012   38.4709 H   0  0  0  0  0  0  0  0  0  0  0  0
    2.2853   22.6980   31.3022 H   0  0  0  0  0  0  0  0  0  0  0  0
    4.0320   22.2613   32.1827 H   0  0  0  0  0  0  0  0  0  0  0  0
    1.8874   16.4336   40.4389 H   0  0  0  0  0  0  0  0  0  0  0  0
    0.8936   16.4150   38.9426 H   0  0  0  0  0  0  0  0  0  0  0  0
    2.6533   16.0650   38.8564 H   0  0  0  0  0  0  0  0  0  0  0  0
    3.9786   24.2483   32.7899 H   0  0  0  0  0  0  0  0  0  0  0  0
    2.0973   24.0394   32.3998 H   0  0  0  0  0  0  0  0  0  0  0  0
    2.9916   17.7263   37.1897 H   0  0  0  0  0  0  0  0  0  0  0  0
    3.0219   23.9188   34.8369 H   0  0  0  0  0  0  0  0  0  0  0  0
    1.6739   22.8945   34.1479 H   0  0  0  0  0  0  0  0  0  0  0  0
  1 12  3  0
  2  5  1  0
  3 10  1  0
  4  3  1  0
  4  8  1  0
  5  6  2  3
  6 11  1  0
  9 18  2  0
 10 14  1  0
 11 16  2  0
 11  9  1  0
 14 17  1  0
 15 13  1  0
 15  7  2  0
 16 15  1  0
 17  2  1  0
 18  7  1  0
 18  1  1  0
  2 19  1  0
  2 20  1  0
  3 21  1  0
  3 22  1  0
  4 23  1  0
  4 24  1  0
  5 25  1  0
  6 26  1  0
  7 27  1  0
  8 28  1  0
  8 29  1  0
  8 30  1  0
  9 31  1  0
 10 32  1  0
 10 33  1  0
 13 34  1  0
 13 35  1  0
 13 36  1  0
 14 37  1  0
 14 38  1  0
 16 39  1  0
 17 40  1  0
 17 41  1  0
M  END
>  <mol_id>  (21) 
2026-09-16-6tgu-s0-n100-0021

>  <rmsd_to_ref>  (21) 


$$$$

     RDKit          3D

 52 51  0  0  0  0  0  0  0  0999 V2000
    2.2512   19.8953   40.4187 C   0  0  0  0  0  0  0  0  0  0  0  0
    0.5323   24.9782   29.4076 F   0  0  0  0  0  0  0  0  0  0  0  0
    1.1699   26.0220   29.0756 C   0  0  0  0  0  0  0  0  0  0  0  0
    0.3988   19.9228   42.5940 C   0  0  0  0  0  0  0  0  0  0  0  0
    1.5884   18.6889   40.8824 C   0  0  0  0  0  0  0  0  0  0  0  0
    0.9186   21.1479   42.0663 C   0  0  0  0  0  0  0  0  0  0  0  0
    2.8168   18.1820   39.1061 N   0  0  0  0  0  0  0  0  0  0  0  0
    1.9192   26.5307   30.0792 F   0  0  0  0  0  0  0  0  0  0  0  0
   -1.8066   28.0046   29.1972 C   0  0  0  0  0  0  0  0  0  0  0  0
    3.1583   21.3150   35.6305 N   0  0  0  0  0  0  0  0  0  0  0  0
   -1.3429   27.4709   30.4690 O   0  0  0  0  0  0  0  0  0  0  0  0
   -0.5312   19.9278   43.7813 C   0  0  0  0  0  0  0  0  0  0  0  0
    1.6310   24.0434   34.4886 O   0  0  0  0  0  0  0  0  0  0  0  0
   -2.4461   26.9681   28.3326 C   0  0  0  0  0  0  0  0  0  0  0  0
   -1.1892   26.2155   27.9891 C   0  0  0  0  0  0  0  0  0  0  0  0
    2.8295   20.4769   36.7217 C   0  0  0  0  0  0  0  0  0  0  0  0
   -0.0513   28.0628   30.8997 C   0  0  0  0  0  0  0  0  0  0  0  0
    3.4438   23.0857   33.4840 O   0  0  0  0  0  0  0  0  0  0  0  0
    2.4311   22.4315   35.5800 C   0  0  0  0  0  0  0  0  0  0  0  0
    1.9698   17.6088   39.9413 C   0  0  0  0  0  0  0  0  0  0  0  0
    1.5462   16.4891   40.0472 O   0  0  0  0  0  0  0  0  0  0  0  0
    1.8022   21.1041   40.9836 C   0  0  0  0  0  0  0  0  0  0  0  0
    0.1564   27.1467   28.2128 S   0  0  0  0  0  0  0  0  0  0  0  0
    2.5268   23.2805   34.3781 C   0  0  0  0  0  0  0  0  0  0  0  0
    2.1461   21.0313   37.5986 O   0  0  0  0  0  0  0  0  0  0  0  0
    4.4391   20.0735   39.0934 C   0  0  0  0  0  0  0  0  0  0  0  0
    0.7028   18.7157   41.9650 C   0  0  0  0  0  0  0  0  0  0  0  0
    3.2033   19.1841   36.6061 O   0  0  0  0  0  0  0  0  0  0  0  0
    3.1448   19.4325   39.5157 N   0  0  0  0  0  0  0  0  0  0  0  0
    1.9362   25.7358   28.3400 H   0  0  0  0  0  0  0  0  0  0  0  0
    0.6263   22.1122   42.5074 H   0  0  0  0  0  0  0  0  0  0  0  0
    3.1818   17.7361   38.2524 H   0  0  0  0  0  0  0  0  0  0  0  0
   -2.5416   28.7984   29.3962 H   0  0  0  0  0  0  0  0  0  0  0  0
   -0.9272   28.3880   28.6588 H   0  0  0  0  0  0  0  0  0  0  0  0
    3.8888   21.0850   34.9417 H   0  0  0  0  0  0  0  0  0  0  0  0
    0.0585   19.8922   44.7092 H   0  0  0  0  0  0  0  0  0  0  0  0
   -1.1383   20.8450   43.7677 H   0  0  0  0  0  0  0  0  0  0  0  0
   -1.1923   19.0499   43.7331 H   0  0  0  0  0  0  0  0  0  0  0  0
   -3.1701   26.3493   28.8829 H   0  0  0  0  0  0  0  0  0  0  0  0
   -3.0474   27.3344   27.4874 H   0  0  0  0  0  0  0  0  0  0  0  0
   -1.1187   25.3257   28.6320 H   0  0  0  0  0  0  0  0  0  0  0  0
   -1.2379   25.9300   26.9279 H   0  0  0  0  0  0  0  0  0  0  0  0
    0.0364   27.9945   31.9941 H   0  0  0  0  0  0  0  0  0  0  0  0
    0.7782   27.5138   30.4303 H   0  0  0  0  0  0  0  0  0  0  0  0
   -0.0118   29.1186   30.5939 H   0  0  0  0  0  0  0  0  0  0  0  0
    1.3765   22.1371   35.6863 H   0  0  0  0  0  0  0  0  0  0  0  0
    2.8433   23.0576   36.3851 H   0  0  0  0  0  0  0  0  0  0  0  0
    2.1609   22.0520   40.5561 H   0  0  0  0  0  0  0  0  0  0  0  0
    5.0563   20.2730   39.9818 H   0  0  0  0  0  0  0  0  0  0  0  0
    4.9797   19.3963   38.4159 H   0  0  0  0  0  0  0  0  0  0  0  0
    4.2273   21.0197   38.5740 H   0  0  0  0  0  0  0  0  0  0  0  0
    0.2445   17.7814   42.3213 H   0  0  0  0  0  0  0  0  0  0  0  0
  1  5  1  0
  1 22  2  0
  3  2  1  0
  3  8  1  0
  4 12  1  0
  5 27  2  0
  6  4  2  0
  7 29  1  0
  7 20  1  0
  9 11  1  0
 10 16  1  0
 11 17  1  0
 13 24  1  0
 14  9  1  0
 15 14  1  0
 15 23  1  0
 16 25  1  0
 18 24  2  0
 19 10  1  0
 20 21  2  0
 20  5  1  0
 22  6  1  0
 23  3  1  0
 24 19  1  0
 26 29  1  0
 27  4  1  0
 28 16  2  0
 29  1  1  0
  3 30  1  0
  6 31  1  0
  7 32  1  0
  9 33  1  0
  9 34  1  0
 10 35  1  0
 12 36  1  0
 12 37  1  0
 12 38  1  0
 14 39  1  0
 14 40  1  0
 15 41  1  0
 15 42  1  0
 17 43  1  0
 17 44  1  0
 17 45  1  0
 19 46  1  0
 19 47  1  0
 22 48  1  0
 26 49  1  0
 26 50  1  0
 26 51  1  0
 27 52  1  0
M  CHG  2  13  -1  25  -1
M  END
>  <mol_id>  (22) 
2026-09-16-6tgu-s0-n100-0022

>  <rmsd_to_ref>  (22) 


$$$$

     RDKit          3D

 61 60  0  0  0  0  0  0  0  0999 V2000
    1.6640   25.6650   33.7740 C   0  0  2  0  0  0  0  0  0  0  0  0
    2.2210   24.4970   34.4790 C   0  0  0  0  0  0  0  0  0  0  0  0
    2.5020   20.6840   37.8570 C   0  0  0  0  0  0  0  0  0  0  0  0
    2.0600   25.9210   32.2770 C   0  0  0  0  0  0  0  0  0  0  0  0
    2.8410   15.6520   37.6250 C   0  0  0  0  0  0  0  0  0  0  0  0
    1.4690   19.5470   40.2730 C   0  0  0  0  0  0  0  0  0  0  0  0
    3.6540   20.8490   35.7050 C   0  0  0  0  0  0  0  0  0  0  0  0
    1.1910   26.9360   34.6250 C   0  0  0  0  0  0  0  0  0  0  0  0
    1.9940   28.2660   31.8790 O   0  0  0  0  0  0  0  0  0  0  0  0
    1.8990   22.4450   36.1320 C   0  0  0  0  0  0  0  0  0  0  0  0
    4.0030   21.2110   34.4670 O   0  0  0  0  0  0  0  0  0  0  0  0
    0.4250   18.7420   41.0880 C   0  0  0  0  0  0  0  0  0  0  0  0
    1.7180   23.1310   34.7590 C   0  0  0  0  0  0  0  0  0  0  0  0
    2.9380   19.4200   38.2350 C   0  0  0  0  0  0  0  0  0  0  0  0
    4.1250   15.6340   37.1580 C   0  0  1  0  0  0  0  0  0  0  0  0
    4.1570   17.2570   37.5840 C   0  0  0  0  0  0  0  0  0  0  0  0
    2.4690   14.4530   38.5710 O   0  0  0  0  0  0  0  0  0  0  0  0
    4.6340   14.2020   36.9450 C   0  0  0  0  0  0  0  0  0  0  0  0
    3.7850   18.6460   37.4180 C   0  0  0  0  0  0  0  0  0  0  0  0
    1.9110   20.8410   40.9210 C   0  0  0  0  0  0  0  0  0  0  0  0
    2.3660   18.5590   39.6090 C   0  0  0  0  0  0  0  0  0  0  0  0
    1.3130   27.1380   31.7460 C   0  0  0  0  0  0  0  0  0  0  0  0
    2.7090   21.3030   36.5870 C   0  0  0  0  0  0  0  0  0  0  0  0
    0.6875   25.1858   33.6103 H   0  0  0  0  0  0  0  0  0  0  0  0
    3.1644   24.3104   33.9450 H   0  0  0  0  0  0  0  0  0  0  0  0
    2.0377   24.8869   35.4911 H   0  0  0  0  0  0  0  0  0  0  0  0
    1.9442   21.2630   38.6077 H   0  0  0  0  0  0  0  0  0  0  0  0
    3.1433   26.1003   32.2114 H   0  0  0  0  0  0  0  0  0  0  0  0
    1.7928   25.0399   31.6751 H   0  0  0  0  0  0  0  0  0  0  0  0
    2.1616   15.6296   36.7602 H   0  0  0  0  0  0  0  0  0  0  0  0
    2.7430   16.5661   38.2290 H   0  0  0  0  0  0  0  0  0  0  0  0
    1.0924   20.1061   39.4037 H   0  0  0  0  0  0  0  0  0  0  0  0
    4.2497   20.0119   36.0980 H   0  0  0  0  0  0  0  0  0  0  0  0
    1.2749   26.7105   35.6984 H   0  0  0  0  0  0  0  0  0  0  0  0
    1.8283   27.7986   34.3807 H   0  0  0  0  0  0  0  0  0  0  0  0
    0.1448   27.1721   34.3807 H   0  0  0  0  0  0  0  0  0  0  0  0
    2.1152   28.4668   32.8408 H   0  0  0  0  0  0  0  0  0  0  0  0
    0.8744   22.1530   36.4057 H   0  0  0  0  0  0  0  0  0  0  0  0
    2.5476   23.2223   36.5622 H   0  0  0  0  0  0  0  0  0  0  0  0
    4.7343   20.7347   33.9996 H   0  0  0  0  0  0  0  0  0  0  0  0
    0.6099   18.8846   42.1629 H   0  0  0  0  0  0  0  0  0  0  0  0
   -0.5864   19.0963   40.8397 H   0  0  0  0  0  0  0  0  0  0  0  0
    0.5105   17.6738   40.8397 H   0  0  0  0  0  0  0  0  0  0  0  0
    0.6343   23.1603   34.5726 H   0  0  0  0  0  0  0  0  0  0  0  0
    2.3623   22.5165   34.1131 H   0  0  0  0  0  0  0  0  0  0  0  0
    4.9925   15.5646   36.4852 H   0  0  0  0  0  0  0  0  0  0  0  0
    3.8273   17.1410   38.6270 H   0  0  0  0  0  0  0  0  0  0  0  0
    4.9249   17.4077   36.8109 H   0  0  0  0  0  0  0  0  0  0  0  0
    2.5574   14.7378   39.5150 H   0  0  0  0  0  0  0  0  0  0  0  0
    4.8038   13.7242   37.9212 H   0  0  0  0  0  0  0  0  0  0  0  0
    3.8852   13.6269   36.3806 H   0  0  0  0  0  0  0  0  0  0  0  0
    5.5778   14.2285   36.3806 H   0  0  0  0  0  0  0  0  0  0  0  0
    4.7403   19.1913   37.4115 H   0  0  0  0  0  0  0  0  0  0  0  0
    3.1222   18.5376   36.5468 H   0  0  0  0  0  0  0  0  0  0  0  0
    1.8745   20.7343   42.0152 H   0  0  0  0  0  0  0  0  0  0  0  0
    2.9398   21.0744   40.6094 H   0  0  0  0  0  0  0  0  0  0  0  0
    1.2400   21.6550   40.6094 H   0  0  0  0  0  0  0  0  0  0  0  0
    1.8095   17.6591   39.3083 H   0  0  0  0  0  0  0  0  0  0  0  0
    3.1741   18.1988   40.2626 H   0  0  0  0  0  0  0  0  0  0  0  0
    0.3655   27.2345   32.2964 H   0  0  0  0  0  0  0  0  0  0  0  0
    1.1507   26.9786   30.6698 H   0  0  0  0  0  0  0  0  0  0  0  0
  1  2  1  0
  1  8  1  0
  2 13  1  0
  3 14  2  3
  4  1  1  0
  5 17  1  0
  6 20  1  0
  6 12  1  0
  7 23  2  3
 10 23  1  0
 11  7  1  0
 13 10  1  0
 14 21  1  0
 15 18  1  0
 15 16  1  0
 15  5  1  0
 19 16  1  0
 19 14  1  0
 21  6  1  0
 22  9  1  0
 22  4  1  0
 23  3  1  0
  1 24  1  6
  2 25  1  0
  2 26  1  0
  3 27  1  0
  4 28  1  0
  4 29  1  0
  5 30  1  0
  5 31  1  0
  6 32  1  0
  7 33  1  0
  8 34  1  0
  8 35  1  0
  8 36  1  0
  9 37  1  0
 10 38  1  0
 10 39  1  0
 11 40  1  0
 12 41  1  0
 12 42  1  0
 12 43  1  0
 13 44  1  0
 13 45  1  0
 15 46  1  6
 16 47  1  0
 16 48  1  0
 17 49  1  0
 18 50  1  0
 18 51  1  0
 18 52  1  0
 19 53  1  0
 19 54  1  0
 20 55  1  0
 20 56  1  0
 20 57  1  0
 21 58  1  0
 21 59  1  0
 22 60  1  0
 22 61  1  0
M  END
>  <mol_id>  (23) 
2026-09-16-6tgu-s0-n100-0023

>  <rmsd_to_ref>  (23) 


$$$$

     RDKit          3D

 65 68  0  0  0  0  0  0  0  0999 V2000
    2.2050   25.2380   33.1770 C   0  0  0  0  0  0  0  0  0  0  0  0
    2.8750   15.4740   39.4510 C   0  0  1  0  0  0  0  0  0  0  0  0
    2.7040   25.1220   31.8690 C   0  0  0  0  0  0  0  0  0  0  0  0
    4.4940   22.2350   34.5130 C   0  0  0  0  0  0  0  0  0  0  0  0
    4.0730   23.2520   32.3240 C   0  0  0  0  0  0  0  0  0  0  0  0
    3.5850   24.1150   31.4190 C   0  0  0  0  0  0  0  0  0  0  0  0
    2.8340   17.5070   38.7040 C   0  0  0  0  0  0  0  0  0  0  0  0
    0.7700   26.9570   32.3740 C   0  0  0  0  0  0  0  0  0  0  0  0
    3.8100   13.8190   37.4630 O   0  0  0  0  0  0  0  0  0  0  0  0
    1.3600   26.9870   31.1480 C   0  0  0  0  0  0  0  0  0  0  0  0
    1.2090   26.2140   33.3920 C   0  0  0  0  0  0  0  0  0  0  0  0
    2.7930   24.2760   34.0760 C   0  0  0  0  0  0  0  0  0  0  0  0
    3.1610   25.9390   30.0170 O   0  0  0  0  0  0  0  0  0  0  0  0
    1.5380   19.8240   40.1730 C   0  0  0  0  0  0  0  0  0  0  0  0
    3.6870   21.1500   35.0790 C   0  0  0  0  0  0  0  0  0  0  0  0
    1.8890   20.3220   39.1740 C   0  0  0  0  0  0  0  0  0  0  0  0
    1.6110   16.1230   41.3120 N   0  0  0  0  0  0  0  0  0  0  0  0
    1.8970   13.6400   35.4080 C   0  0  0  0  0  0  0  0  0  0  0  0
    2.3570   15.0640   40.3990 C   0  0  0  0  0  0  0  0  0  0  0  0
    0.6590   16.5790   42.4960 C   0  0  0  0  0  0  0  0  0  0  0  0
    2.4550   14.7810   36.0890 N   0  0  0  0  0  0  0  0  0  0  0  0
    1.6570   21.4400   38.2550 C   0  0  0  0  0  0  0  0  0  0  0  0
    2.1240   17.3950   40.8330 C   0  0  1  0  0  0  0  0  0  0  0  0
    3.0050   16.0720   38.2810 C   0  0  2  0  0  0  0  0  0  0  0  0
    1.4190   18.9480   42.1630 O   0  0  0  0  0  0  0  0  0  0  0  0
    2.2990   26.0240   30.9420 C   0  0  0  0  0  0  0  0  0  0  0  0
    2.6110   21.7590   35.9630 C   0  0  0  0  0  0  0  0  0  0  0  0
    2.6800   21.2410   37.2880 C   0  0  0  0  0  0  0  0  0  0  0  0
    2.7430   17.4010   39.6950 C   0  0  1  0  0  0  0  0  0  0  0  0
    1.7120   18.5900   40.9690 C   0  0  0  0  0  0  0  0  0  0  0  0
    3.0630   14.7840   37.1860 C   0  0  0  0  0  0  0  0  0  0  0  0
    3.6770   23.3110   33.6620 C   0  0  0  0  0  0  0  0  0  0  0  0
    3.6700   20.5200   37.6710 O   0  0  0  0  0  0  0  0  0  0  0  0
    3.2687   14.4484   39.3948 H   0  0  0  0  0  0  0  0  0  0  0  0
    4.9888   22.7608   35.3429 H   0  0  0  0  0  0  0  0  0  0  0  0
    5.1987   21.7612   33.8138 H   0  0  0  0  0  0  0  0  0  0  0  0
    4.7962   22.4863   32.0068 H   0  0  0  0  0  0  0  0  0  0  0  0
    3.8635   24.0397   30.3575 H   0  0  0  0  0  0  0  0  0  0  0  0
    3.7128   18.1140   38.4408 H   0  0  0  0  0  0  0  0  0  0  0  0
    1.9924   18.0264   38.2225 H   0  0  0  0  0  0  0  0  0  0  0  0
   -0.1209   27.5817   32.5353 H   0  0  0  0  0  0  0  0  0  0  0  0
    0.5745   26.8670   30.3874 H   0  0  0  0  0  0  0  0  0  0  0  0
    1.8858   27.9509   31.0813 H   0  0  0  0  0  0  0  0  0  0  0  0
    0.7939   26.3627   34.3998 H   0  0  0  0  0  0  0  0  0  0  0  0
    2.5210   24.3173   35.1410 H   0  0  0  0  0  0  0  0  0  0  0  0
    0.8463   20.5012   40.6954 H   0  0  0  0  0  0  0  0  0  0  0  0
    3.2183   20.5741   34.2674 H   0  0  0  0  0  0  0  0  0  0  0  0
    4.3239   20.4762   35.6709 H   0  0  0  0  0  0  0  0  0  0  0  0
    2.7120   19.7164   38.7667 H   0  0  0  0  0  0  0  0  0  0  0  0
    1.5397   12.9095   36.1487 H   0  0  0  0  0  0  0  0  0  0  0  0
    1.0558   13.9644   34.7777 H   0  0  0  0  0  0  0  0  0  0  0  0
    2.6695   13.1752   34.7777 H   0  0  0  0  0  0  0  0  0  0  0  0
    1.6150   14.3180   40.0781 H   0  0  0  0  0  0  0  0  0  0  0  0
    3.1687   14.6623   41.0233 H   0  0  0  0  0  0  0  0  0  0  0  0
    1.1371   16.3500   43.4598 H   0  0  0  0  0  0  0  0  0  0  0  0
    0.4779   17.6616   42.4246 H   0  0  0  0  0  0  0  0  0  0  0  0
   -0.2981   16.0416   42.4246 H   0  0  0  0  0  0  0  0  0  0  0  0
    2.3422   15.6932   35.6243 H   0  0  0  0  0  0  0  0  0  0  0  0
    0.6579   21.3820   37.7984 H   0  0  0  0  0  0  0  0  0  0  0  0
    1.6884   22.4273   38.7389 H   0  0  0  0  0  0  0  0  0  0  0  0
    2.5720   17.2399   41.8256 H   0  0  0  0  0  0  0  0  0  0  0  0
    3.3264   16.5446   37.3412 H   0  0  0  0  0  0  0  0  0  0  0  0
    2.7488   22.8498   35.9964 H   0  0  0  0  0  0  0  0  0  0  0  0
    1.6276   21.5055   35.5403 H   0  0  0  0  0  0  0  0  0  0  0  0
    3.1036   18.4051   39.9629 H   0  0  0  0  0  0  0  0  0  0  0  0
  1 11  1  0
  1 12  1  0
  2 29  1  0
  2 19  1  0
  3  1  2  0
  4 15  1  0
  5 32  1  0
  6  3  1  0
  6  5  2  0
  8 11  2  0
 10  8  1  0
 13 26  2  0
 14 30  1  0
 15 27  1  0
 16 14  2  3
 17 20  1  0
 18 21  1  0
 19 17  1  0
 21 31  1  0
 22 16  1  0
 23 30  1  0
 23 17  1  0
 24 31  1  0
 24  7  1  0
 24  2  1  0
 26 10  1  0
 26  3  1  0
 27 28  1  0
 28 33  2  0
 28 22  1  0
 29  7  1  0
 29 23  1  0
 30 25  2  0
 31  9  2  0
 32 12  2  0
 32  4  1  0
  2 34  1  1
  4 35  1  0
  4 36  1  0
  5 37  1  0
  6 38  1  0
  7 39  1  0
  7 40  1  0
  8 41  1  0
 10 42  1  0
 10 43  1  0
 11 44  1  0
 12 45  1  0
 14 46  1  0
 15 47  1  0
 15 48  1  0
 16 49  1  0
 18 50  1  0
 18 51  1  0
 18 52  1  0
 19 53  1  0
 19 54  1  0
 20 55  1  0
 20 56  1  0
 20 57  1  0
 21 58  1  0
 22 59  1  0
 22 60  1  0
 23 61  1  1
 24 62  1  1
 27 63  1  0
 27 64  1  0
 29 65  1  1
M  END
>  <mol_id>  (24) 
2026-09-16-6tgu-s0-n100-0024

>  <rmsd_to_ref>  (24) 


$$$$

     RDKit          3D

 45 47  0  0  0  0  0  0  0  0999 V2000
    1.9236   20.3969   37.9962 C   0  0  0  0  0  0  0  0  0  0  0  0
    5.0536   23.7195   31.7782 C   0  0  0  0  0  0  0  0  0  0  0  0
    2.9418   23.2026   33.4194 C   0  0  0  0  0  0  0  0  0  0  0  0
    2.2929   21.8688   35.5195 C   0  0  0  0  0  0  0  0  0  0  0  0
    0.3831   19.8142   39.8753 C   0  0  0  0  0  0  0  0  0  0  0  0
    3.5058   22.3970   34.6581 C   0  0  0  0  0  0  0  0  0  0  0  0
    3.0038   24.0025   28.7925 C   0  0  0  0  0  0  0  0  0  0  0  0
    4.1277   24.6589   31.2635 C   0  0  1  0  0  0  0  0  0  0  0  0
    4.1861   25.0036   29.6998 S   0  0  1  0  0  4  0  0  0  0  0  0
    2.3881   18.2922   39.5064 C   0  0  0  0  0  0  0  0  0  0  0  0
    0.5819   17.8351   41.1934 N   0  0  0  0  0  0  0  0  0  0  0  0
    0.7688   20.7587   38.8330 C   0  0  0  0  0  0  0  0  0  0  0  0
    5.6287   23.9969   29.5557 C   0  0  0  0  0  0  0  0  0  0  0  0
    3.8327   20.1024   36.7088 N   0  0  0  0  0  0  0  0  0  0  0  0
    2.8264   19.2345   38.4184 C   0  0  1  0  0  0  0  0  0  0  0  0
    5.9033   23.4574   28.1709 C   0  0  0  0  0  0  0  0  0  0  0  0
    1.1423   18.5927   40.2293 C   0  0  0  0  0  0  0  0  0  0  0  0
    0.8893   17.7144   42.4039 O   0  0  0  0  0  0  0  0  0  0  0  0
    3.8949   19.1981   37.6417 N   0  0  0  0  0  0  0  0  0  0  0  0
    3.7843   23.4886   32.1284 C   0  0  1  0  0  0  0  0  0  0  0  0
   -0.5785   17.0934   40.8212 O   0  0  0  0  0  0  0  0  0  0  0  0
    2.7176   20.8557   36.6786 C   0  0  0  0  0  0  0  0  0  0  0  0
    5.7692   24.0428   32.5485 H   0  0  0  0  0  0  0  0  0  0  0  0
    5.8176   23.0904   31.2982 H   0  0  0  0  0  0  0  0  0  0  0  0
    2.0493   22.6546   33.0830 H   0  0  0  0  0  0  0  0  0  0  0  0
    2.8406   24.2128   33.8430 H   0  0  0  0  0  0  0  0  0  0  0  0
    1.5898   21.3532   34.8488 H   0  0  0  0  0  0  0  0  0  0  0  0
    1.8425   22.7448   36.0091 H   0  0  0  0  0  0  0  0  0  0  0  0
   -0.5379   20.0240   40.4390 H   0  0  0  0  0  0  0  0  0  0  0  0
    4.1051   21.5456   34.3030 H   0  0  0  0  0  0  0  0  0  0  0  0
    4.1410   23.0529   35.2715 H   0  0  0  0  0  0  0  0  0  0  0  0
    2.2775   23.5666   29.4942 H   0  0  0  0  0  0  0  0  0  0  0  0
    2.4751   24.6319   28.0614 H   0  0  0  0  0  0  0  0  0  0  0  0
    3.5344   23.1956   28.2657 H   0  0  0  0  0  0  0  0  0  0  0  0
    3.7422   25.6887   31.2919 H   0  0  0  0  0  0  0  0  0  0  0  0
    4.0667   26.3146   29.3203 H   0  0  0  0  0  0  0  0  0  0  0  0
    2.9837   17.4015   39.7550 H   0  0  0  0  0  0  0  0  0  0  0  0
    0.2205   21.6999   38.6793 H   0  0  0  0  0  0  0  0  0  0  0  0
    6.4958   24.5994   29.8639 H   0  0  0  0  0  0  0  0  0  0  0  0
    5.4525   23.1192   30.1949 H   0  0  0  0  0  0  0  0  0  0  0  0
    3.3053   19.8794   39.1699 H   0  0  0  0  0  0  0  0  0  0  0  0
    5.7736   22.3651   28.1705 H   0  0  0  0  0  0  0  0  0  0  0  0
    5.2015   23.9102   27.4552 H   0  0  0  0  0  0  0  0  0  0  0  0
    6.9348   23.7042   27.8792 H   0  0  0  0  0  0  0  0  0  0  0  0
    3.0817   22.6424   32.1471 H   0  0  0  0  0  0  0  0  0  0  0  0
  1 15  1  0
  1 12  1  0
  2 20  1  0
  3  6  1  0
  4 22  1  0
  5 17  1  0
  6  4  1  0
  8  9  1  0
  8  2  1  0
  8 20  1  0
  9  7  1  0
 10 17  2  0
 11 18  1  0
 12  5  2  0
 13  9  1  0
 14 22  1  0
 14 19  2  0
 15 10  1  0
 16 13  1  0
 17 11  1  0
 19 15  1  0
 20  3  1  0
 21 11  2  0
 22  1  2  0
  2 23  1  0
  2 24  1  0
  3 25  1  0
  3 26  1  0
  4 27  1  0
  4 28  1  0
  5 29  1  0
  6 30  1  0
  6 31  1  0
  7 32  1  0
  7 33  1  0
  7 34  1  0
  8 35  1  1
  9 36  1  1
 10 37  1  0
 12 38  1  0
 13 39  1  0
 13 40  1  0
 15 41  1  1
 16 42  1  0
 16 43  1  0
 16 44  1  0
 20 45  1  6
M  CHG  2  11   1  18  -1
M  END
>  <mol_id>  (25) 
2026-09-16-6tgu-s0-n100-0025

>  <rmsd_to_ref>  (25) 


$$$$

     RDKit          3D

 43 45  0  0  0  0  0  0  0  0999 V2000
    2.5208   18.3659   38.4647 C   0  0  0  0  0  0  0  0  0  0  0  0
    4.8377   24.6661   31.1496 O   0  0  0  0  0  0  0  0  0  0  0  0
    2.5862   22.5373   33.0018 C   0  0  0  0  0  0  0  0  0  0  0  0
    3.3830   25.0615   30.7620 C   0  0  0  0  0  0  0  0  0  0  0  0
    3.5551   22.9952   34.2974 C   0  0  1  0  0  0  0  0  0  0  0  0
    3.1293   16.0871   38.3914 C   0  0  0  0  0  0  0  0  0  0  0  0
    3.5800   20.0955   36.7812 N   0  0  0  0  0  0  0  0  0  0  0  0
    5.3296   22.3215   35.8011 C   0  0  0  0  0  0  0  0  0  0  0  0
    1.6337   18.0901   39.4458 C   0  0  0  0  0  0  0  0  0  0  0  0
    3.3642   17.3516   38.0256 N   0  0  0  0  0  0  0  0  0  0  0  0
    2.5985   19.7007   37.7989 C   0  0  0  0  0  0  0  0  0  0  0  0
    0.7308   19.1585   39.8675 C   0  0  0  0  0  0  0  0  0  0  0  0
    3.9213   15.0903   37.6406 C   0  0  0  0  0  0  0  0  0  0  0  0
    2.5550   24.7046   32.0130 C   0  0  0  0  0  0  0  0  0  0  0  0
    4.3470   21.7872   34.8892 C   0  0  1  0  0  0  0  0  0  0  0  0
    2.4156   15.7931   39.4158 O   0  0  0  0  0  0  0  0  0  0  0  0
    1.6613   20.5891   38.2366 C   0  0  0  0  0  0  0  0  0  0  0  0
    0.7675   20.3897   39.2799 C   0  0  0  0  0  0  0  0  0  0  0  0
    4.8998   24.1296   32.5311 C   0  0  0  0  0  0  0  0  0  0  0  0
    3.4360   23.8061   32.9359 C   0  0  2  0  0  0  0  0  0  0  0  0
    3.2752   21.0604   35.7716 C   0  0  0  0  0  0  0  0  0  0  0  0
    2.8546   21.6606   32.3940 H   0  0  0  0  0  0  0  0  0  0  0  0
    1.5205   22.3007   32.8662 H   0  0  0  0  0  0  0  0  0  0  0  0
    3.3155   26.1372   30.5419 H   0  0  0  0  0  0  0  0  0  0  0  0
    3.0297   24.5441   29.8579 H   0  0  0  0  0  0  0  0  0  0  0  0
    3.6709   23.4268   35.3025 H   0  0  0  0  0  0  0  0  0  0  0  0
    5.0036   22.1442   36.8366 H   0  0  0  0  0  0  0  0  0  0  0  0
    6.2962   21.8248   35.6309 H   0  0  0  0  0  0  0  0  0  0  0  0
    5.4380   23.4029   35.6310 H   0  0  0  0  0  0  0  0  0  0  0  0
    1.5927   17.0945   39.9116 H   0  0  0  0  0  0  0  0  0  0  0  0
    4.1675   17.5736   37.4203 H   0  0  0  0  0  0  0  0  0  0  0  0
    0.0077   18.9669   40.6738 H   0  0  0  0  0  0  0  0  0  0  0  0
    4.1823   14.2534   38.3051 H   0  0  0  0  0  0  0  0  0  0  0  0
    3.3292   14.7147   36.7930 H   0  0  0  0  0  0  0  0  0  0  0  0
    4.8418   15.5610   37.2650 H   0  0  0  0  0  0  0  0  0  0  0  0
    2.2714   25.6233   32.5473 H   0  0  0  0  0  0  0  0  0  0  0  0
    1.6376   24.1708   31.7239 H   0  0  0  0  0  0  0  0  0  0  0  0
    4.8234   21.1523   34.1278 H   0  0  0  0  0  0  0  0  0  0  0  0
    1.6085   21.5553   37.7134 H   0  0  0  0  0  0  0  0  0  0  0  0
    0.1080   21.2005   39.6230 H   0  0  0  0  0  0  0  0  0  0  0  0
    5.5136   23.2172   32.5587 H   0  0  0  0  0  0  0  0  0  0  0  0
    5.3564   24.8533   33.2223 H   0  0  0  0  0  0  0  0  0  0  0  0
    2.2172   21.3095   35.6027 H   0  0  0  0  0  0  0  0  0  0  0  0
  1  9  2  0
  2 19  1  0
  3  5  1  0
  4  2  1  0
  4 14  1  0
  5 15  1  0
  6 16  2  0
  7 11  1  0
  9 12  1  0
 10  1  1  0
 10  6  1  0
 11 17  2  0
 11  1  1  0
 13  6  1  0
 15  8  1  0
 15 21  1  0
 17 18  1  0
 18 12  2  0
 20 19  1  6
 20 14  1  0
 20  3  1  0
 20  5  1  0
 21  7  2  3
  3 22  1  0
  3 23  1  0
  4 24  1  0
  4 25  1  0
  5 26  1  1
  8 27  1  0
  8 28  1  0
  8 29  1  0
  9 30  1  0
 10 31  1  0
 12 32  1  0
 13 33  1  0
 13 34  1  0
 13 35  1  0
 14 36  1  0
 14 37  1  0
 15 38  1  6
 17 39  1  0
 18 40  1  0
 19 41  1  0
 19 42  1  0
 21 43  1  0
M  END
>  <mol_id>  (26) 
2026-09-16-6tgu-s0-n100-0026

>  <rmsd_to_ref>  (26) 


$$$$

     RDKit          3D

 29 29  0  0  0  0  0  0  0  0999 V2000
    0.4901   19.3060   40.7402 C   0  0  0  0  0  0  0  0  0  0  0  0
    2.1558   20.1959   37.5062 C   0  0  0  0  0  0  0  0  0  0  0  0
    2.9293   22.6917   33.8233 N   0  0  0  0  0  0  0  0  0  0  0  0
    3.6150   21.0414   35.5785 C   0  0  0  0  0  0  0  0  0  0  0  0
    3.4776   20.1264   36.9181 C   0  0  0  0  0  0  0  0  0  0  0  0
    1.6505   19.9306   38.7483 C   0  0  0  0  0  0  0  0  0  0  0  0
    4.3632   22.3718   33.6711 C   0  0  0  0  0  0  0  0  0  0  0  0
    1.8281   19.3614   39.9755 C   0  0  0  0  0  0  0  0  0  0  0  0
    4.4576   19.2369   37.7279 C   0  0  0  0  0  0  0  0  0  0  0  0
    4.7002   21.1050   34.5059 C   0  0  0  0  0  0  0  0  0  0  0  0
    2.4519   21.9722   35.0639 C   0  0  0  0  0  0  0  0  0  0  0  0
    0.6868   19.1748   41.8144 H   0  0  0  0  0  0  0  0  0  0  0  0
   -0.0626   20.2436   40.5805 H   0  0  0  0  0  0  0  0  0  0  0  0
   -0.1085   18.4601   40.3710 H   0  0  0  0  0  0  0  0  0  0  0  0
    1.3887   20.5381   36.7959 H   0  0  0  0  0  0  0  0  0  0  0  0
    2.4037   22.3658   32.9997 H   0  0  0  0  0  0  0  0  0  0  0  0
    2.7836   23.7080   33.9059 H   0  0  0  0  0  0  0  0  0  0  0  0
    0.6461   20.3787   38.7668 H   0  0  0  0  0  0  0  0  0  0  0  0
    4.5866   22.1829   32.6107 H   0  0  0  0  0  0  0  0  0  0  0  0
    4.9686   23.2185   34.0270 H   0  0  0  0  0  0  0  0  0  0  0  0
    2.2159   18.3398   39.8488 H   0  0  0  0  0  0  0  0  0  0  0  0
    2.5432   19.9681   40.5505 H   0  0  0  0  0  0  0  0  0  0  0  0
    4.1224   19.1802   38.7740 H   0  0  0  0  0  0  0  0  0  0  0  0
    4.4788   18.2260   37.2944 H   0  0  0  0  0  0  0  0  0  0  0  0
    5.4664   19.6736   37.6893 H   0  0  0  0  0  0  0  0  0  0  0  0
    4.6720   20.2056   33.8731 H   0  0  0  0  0  0  0  0  0  0  0  0
    5.7097   21.1516   34.9402 H   0  0  0  0  0  0  0  0  0  0  0  0
    2.1914   22.7055   35.8414 H   0  0  0  0  0  0  0  0  0  0  0  0
    1.5609   21.3703   34.8320 H   0  0  0  0  0  0  0  0  0  0  0  0
  2  6  2  3
  3 11  1  0
  4  5  2  3
  5  9  1  0
  5  2  1  0
  6  8  1  0
  7  3  1  0
  7 10  1  0
  8  1  1  0
 10  4  1  0
 11  4  1  0
  1 12  1  0
  1 13  1  0
  1 14  1  0
  2 15  1  0
  3 16  1  0
  3 17  1  0
  6 18  1  0
  7 19  1  0
  7 20  1  0
  8 21  1  0
  8 22  1  0
  9 23  1  0
  9 24  1  0
  9 25  1  0
 10 26  1  0
 10 27  1  0
 11 28  1  0
 11 29  1  0
M  CHG  1   3   1
M  END
>  <mol_id>  (27) 
2026-09-16-6tgu-s0-n100-0027

>  <rmsd_to_ref>  (27) 


$$$$

     RDKit          3D

 55 58  0  0  0  0  0  0  0  0999 V2000
    2.6612   23.9363   29.0844 C   0  0  0  0  0  0  0  0  0  0  0  0
    1.0239   18.5222   40.9331 C   0  0  1  0  0  0  0  0  0  0  0  0
    3.0617   25.3185   31.2530 S   0  0  1  0  0  4  0  0  0  0  0  0
   -0.4214   20.7457   42.9511 C   0  0  0  0  0  0  0  0  0  0  0  0
    3.4972   22.9494   34.5755 C   0  0  0  0  0  0  0  0  0  0  0  0
    2.8328   24.5655   32.8807 C   0  0  0  0  0  0  0  0  0  0  0  0
    1.4518   22.0376   36.0009 C   0  0  0  0  0  0  0  0  0  0  0  0
    3.7011   23.6912   33.4256 C   0  0  0  0  0  0  0  0  0  0  0  0
    1.1942   17.0563   40.9471 C   0  0  0  0  0  0  0  0  0  0  0  0
    0.3177   20.5242   41.8188 N   0  0  0  0  0  0  0  0  0  0  0  0
    2.3423   18.5965   37.9315 C   0  0  0  0  0  0  0  0  0  0  0  0
    1.6691   24.7713   33.5851 C   0  0  0  0  0  0  0  0  0  0  0  0
    4.3604   24.4340   30.7051 C   0  0  0  0  0  0  0  0  0  0  0  0
    1.3750   24.6094   28.9416 O   0  0  0  0  0  0  0  0  0  0  0  0
    0.2156   19.1527   41.8903 N   0  0  0  0  0  0  0  0  0  0  0  0
    2.4758   21.2678   36.7850 C   0  0  0  0  0  0  0  0  0  0  0  0
    2.1274   22.9296   35.0493 C   0  0  0  0  0  0  0  0  0  0  0  0
    1.5480   19.6504   40.1483 C   0  0  2  0  0  0  0  0  0  0  0  0
    1.8566   21.1423   38.1094 C   0  0  0  0  0  0  0  0  0  0  0  0
    1.8265   24.7788   30.0137 C   0  0  1  0  0  0  0  0  0  0  0  0
   -0.7821   19.3593   42.9326 C   0  0  0  0  0  0  0  0  0  0  0  0
    1.0856   20.8235   40.7505 N   0  0  0  0  0  0  0  0  0  0  0  0
    1.3869   23.9187   34.5270 C   0  0  0  0  0  0  0  0  0  0  0  0
    1.4551   19.6582   38.5972 C   0  0  1  0  0  0  0  0  0  0  0  0
    3.5767   24.3217   28.6118 H   0  0  0  0  0  0  0  0  0  0  0  0
    3.1036   22.9313   29.0189 H   0  0  0  0  0  0  0  0  0  0  0  0
    0.1537   18.4148   40.2690 H   0  0  0  0  0  0  0  0  0  0  0  0
    3.0844   26.6834   31.3692 H   0  0  0  0  0  0  0  0  0  0  0  0
    0.1680   21.0519   43.8278 H   0  0  0  0  0  0  0  0  0  0  0  0
   -1.1860   21.5356   42.9902 H   0  0  0  0  0  0  0  0  0  0  0  0
    4.3106   22.4165   35.0897 H   0  0  0  0  0  0  0  0  0  0  0  0
    0.8084   21.3352   35.4506 H   0  0  0  0  0  0  0  0  0  0  0  0
    0.8385   22.6363   36.6903 H   0  0  0  0  0  0  0  0  0  0  0  0
    4.6619   23.5545   32.9077 H   0  0  0  0  0  0  0  0  0  0  0  0
    1.3149   16.7110   41.9845 H   0  0  0  0  0  0  0  0  0  0  0  0
    0.3078   16.5798   40.5030 H   0  0  0  0  0  0  0  0  0  0  0  0
    2.0868   16.7852   40.3642 H   0  0  0  0  0  0  0  0  0  0  0  0
    2.9575   18.1007   38.6968 H   0  0  0  0  0  0  0  0  0  0  0  0
    1.7080   17.8501   37.4308 H   0  0  0  0  0  0  0  0  0  0  0  0
    2.9969   19.0780   37.1901 H   0  0  0  0  0  0  0  0  0  0  0  0
    1.0057   25.6200   33.3617 H   0  0  0  0  0  0  0  0  0  0  0  0
    5.0136   24.1782   31.5524 H   0  0  0  0  0  0  0  0  0  0  0  0
    4.0001   23.5106   30.2281 H   0  0  0  0  0  0  0  0  0  0  0  0
    4.9261   25.0285   29.9726 H   0  0  0  0  0  0  0  0  0  0  0  0
    2.6543   20.2789   36.3374 H   0  0  0  0  0  0  0  0  0  0  0  0
    3.4588   21.7606   36.8127 H   0  0  0  0  0  0  0  0  0  0  0  0
    2.6410   19.5369   40.1976 H   0  0  0  0  0  0  0  0  0  0  0  0
    2.5634   21.5528   38.8455 H   0  0  0  0  0  0  0  0  0  0  0  0
    0.9017   21.6824   38.0284 H   0  0  0  0  0  0  0  0  0  0  0  0
    1.0935   25.1335   30.7532 H   0  0  0  0  0  0  0  0  0  0  0  0
   -1.8174   19.1628   42.6168 H   0  0  0  0  0  0  0  0  0  0  0  0
   -0.7776   18.7570   43.8531 H   0  0  0  0  0  0  0  0  0  0  0  0
    1.8901   21.3892   41.0569 H   0  0  0  0  0  0  0  0  0  0  0  0
    0.3829   24.0260   34.9635 H   0  0  0  0  0  0  0  0  0  0  0  0
    0.4297   19.3998   38.2939 H   0  0  0  0  0  0  0  0  0  0  0  0
  1 20  1  0
  2  9  1  0
  2 15  1  0
  3 13  1  0
  3  6  1  0
  5 17  1  0
  6  8  1  0
  6 12  2  0
  7 16  1  0
  8  5  2  0
 10  4  1  0
 12 23  1  0
 14  1  1  0
 14 20  1  0
 15 10  1  0
 15 21  1  0
 16 19  1  0
 17  7  1  0
 18 24  1  0
 18  2  1  0
 18 22  1  0
 19 24  1  0
 20  3  1  0
 21  4  1  0
 22 10  1  0
 23 17  2  0
 24 11  1  0
  1 25  1  0
  1 26  1  0
  2 27  1  6
  3 28  1  1
  4 29  1  0
  4 30  1  0
  5 31  1  0
  7 32  1  0
  7 33  1  0
  8 34  1  0
  9 35  1  0
  9 36  1  0
  9 37  1  0
 11 38  1  0
 11 39  1  0
 11 40  1  0
 12 41  1  0
 13 42  1  0
 13 43  1  0
 13 44  1  0
 16 45  1  0
 16 46  1  0
 18 47  1  6
 19 48  1  0
 19 49  1  0
 20 50  1  1
 21 51  1  0
 21 52  1  0
 22 53  1  0
 23 54  1  0
 24 55  1  1
M  END
>  <mol_id>  (28) 
2026-09-16-6tgu-s0-n100-0028

>  <rmsd_to_ref>  (28) 


$$$$

     RDKit          3D

 45 45  0  0  0  0  0  0  0  0999 V2000
    1.4551   20.3950   40.7682 C   0  0  0  0  0  0  0  0  0  0  0  0
    2.0267   19.2970   40.1467 C   0  0  0  0  0  0  0  0  0  0  0  0
    3.3818   19.0199   38.2738 O   0  0  0  0  0  0  0  0  0  0  0  0
    2.1251   18.0197   40.5347 C   0  0  0  0  0  0  0  0  0  0  0  0
    3.3566   23.6622   33.0730 C   0  0  0  0  0  0  0  0  0  0  0  0
    2.1248   22.0807   36.2083 C   0  0  0  0  0  0  0  0  0  0  0  0
    2.8584   22.3637   34.9820 C   0  0  1  0  0  0  0  0  0  0  0  0
   -0.3315   20.5126   43.1849 C   0  0  0  0  0  0  0  0  0  0  0  0
    3.6099   23.1883   31.8947 C   0  0  0  0  0  0  0  0  0  0  0  0
    4.7613   23.9503   30.0985 O   0  0  0  0  0  0  0  0  0  0  0  0
    2.2043   20.8590   38.2153 N   0  0  0  0  0  0  0  0  0  0  0  0
    2.5541   19.8001   38.8468 C   0  0  0  0  0  0  0  0  0  0  0  0
    2.4167   23.4035   34.1125 C   0  0  0  0  0  0  0  0  0  0  0  0
    4.1651   21.6561   34.6793 C   0  0  0  0  0  0  0  0  0  0  0  0
    3.0255   21.1792   37.0815 C   0  0  0  0  0  0  0  0  0  0  0  0
    2.9790   25.3925   30.9165 C   0  0  0  0  0  0  0  0  0  0  0  0
    3.8186   24.2532   30.8693 C   0  0  0  0  0  0  0  0  0  0  0  0
    0.8065   20.0727   42.0159 C   0  0  0  0  0  0  0  0  0  0  0  0
    1.5528   17.6945   41.6040 C   0  0  0  0  0  0  0  0  0  0  0  0
    0.7527   18.6743   42.3714 C   0  0  0  0  0  0  0  0  0  0  0  0
    1.4921   21.4123   40.3515 H   0  0  0  0  0  0  0  0  0  0  0  0
    2.6855   17.2834   39.9398 H   0  0  0  0  0  0  0  0  0  0  0  0
    3.1902   24.7297   32.8661 H   0  0  0  0  0  0  0  0  0  0  0  0
    4.1695   23.1034   33.5599 H   0  0  0  0  0  0  0  0  0  0  0  0
    1.1848   21.5598   35.9734 H   0  0  0  0  0  0  0  0  0  0  0  0
    1.8743   23.0120   36.7372 H   0  0  0  0  0  0  0  0  0  0  0  0
    2.3060   21.5639   34.4670 H   0  0  0  0  0  0  0  0  0  0  0  0
    0.0586   20.2724   44.1850 H   0  0  0  0  0  0  0  0  0  0  0  0
   -0.5276   21.5929   43.1175 H   0  0  0  0  0  0  0  0  0  0  0  0
   -1.2663   19.9588   43.0132 H   0  0  0  0  0  0  0  0  0  0  0  0
    4.5208   22.5741   31.9524 H   0  0  0  0  0  0  0  0  0  0  0  0
    2.7355   22.5983   31.5827 H   0  0  0  0  0  0  0  0  0  0  0  0
    1.3984   21.4346   38.4984 H   0  0  0  0  0  0  0  0  0  0  0  0
    2.2748   24.3224   34.7004 H   0  0  0  0  0  0  0  0  0  0  0  0
    1.4737   23.0810   33.6470 H   0  0  0  0  0  0  0  0  0  0  0  0
    4.6334   21.3325   35.6206 H   0  0  0  0  0  0  0  0  0  0  0  0
    3.9686   20.7780   34.0467 H   0  0  0  0  0  0  0  0  0  0  0  0
    4.8412   22.3446   34.1512 H   0  0  0  0  0  0  0  0  0  0  0  0
    3.3117   20.2676   36.5364 H   0  0  0  0  0  0  0  0  0  0  0  0
    3.9667   21.6718   37.3669 H   0  0  0  0  0  0  0  0  0  0  0  0
    2.7381   25.6273   31.9638 H   0  0  0  0  0  0  0  0  0  0  0  0
    3.4962   26.2485   30.4584 H   0  0  0  0  0  0  0  0  0  0  0  0
    2.0503   25.1867   30.3640 H   0  0  0  0  0  0  0  0  0  0  0  0
    1.6480   16.6639   41.9765 H   0  0  0  0  0  0  0  0  0  0  0  0
    0.1208   18.3395   43.2073 H   0  0  0  0  0  0  0  0  0  0  0  0
  1 18  1  0
  2  4  1  0
  2  1  2  0
  3 12  2  0
  4 19  2  0
  5 13  1  0
  6 15  1  0
  7 14  1  0
  7  6  1  0
  9  5  1  0
 10 17  2  0
 11 12  1  0
 12  2  1  0
 13  7  1  0
 15 11  1  0
 17 16  1  0
 17  9  1  0
 18 20  2  0
 18  8  1  0
 19 20  1  0
  1 21  1  0
  4 22  1  0
  5 23  1  0
  5 24  1  0
  6 25  1  0
  6 26  1  0
  7 27  1  6
  8 28  1  0
  8 29  1  0
  8 30  1  0
  9 31  1  0
  9 32  1  0
 11 33  1  0
 13 34  1  0
 13 35  1  0
 14 36  1  0
 14 37  1  0
 14 38  1  0
 15 39  1  0
 15 40  1  0
 16 41  1  0
 16 42  1  0
 16 43  1  0
 19 44  1  0
 20 45  1  0
M  END
>  <mol_id>  (29) 
2026-09-16-6tgu-s0-n100-0029

>  <rmsd_to_ref>  (29) 


$$$$

     RDKit          3D

 56 59  0  0  0  0  0  0  0  0999 V2000
    4.5300   24.6988   30.2729 C   0  0  2  0  0  0  0  0  0  0  0  0
    2.3148   23.2127   34.9520 C   0  0  0  0  0  0  0  0  0  0  0  0
    3.3240   22.1364   35.1238 C   0  0  2  0  0  0  0  0  0  0  0  0
    0.2220   17.5101   43.4066 F   0  0  0  0  0  0  0  0  0  0  0  0
    2.8966   18.7211   39.5126 C   0  0  0  0  0  0  0  0  0  0  0  0
    3.8483   18.1105   36.9335 C   0  0  0  0  0  0  0  0  0  0  0  0
    0.6863   18.4230   42.6181 C   0  0  0  0  0  0  0  0  0  0  0  0
    4.7566   23.7751   31.6208 S   0  0  0  0  0  4  0  0  0  0  0  0
    4.6974   23.0953   33.3279 C   0  0  0  0  0  0  0  0  0  0  0  0
    1.6396   18.1278   41.6029 C   0  0  0  0  0  0  0  0  0  0  0  0
    0.3252   19.8425   42.8781 C   0  0  0  0  0  0  0  0  0  0  0  0
    2.9203   21.3709   36.3983 C   0  0  0  0  0  0  0  0  0  0  0  0
    3.0954   17.2868   39.1761 C   0  0  0  0  0  0  0  0  0  0  0  0
    3.5150   26.0162   30.6144 C   0  0  0  0  0  0  0  0  0  0  0  0
    3.5146   14.4191   37.5720 C   0  0  0  0  0  0  0  0  0  0  0  0
    4.5971   22.1465   34.5089 C   0  0  0  0  0  0  0  0  0  0  0  0
    3.8724   26.8207   28.0330 O   0  0  0  0  0  0  0  0  0  0  0  0
    2.7321   21.7781   40.8403 C   0  0  0  0  0  0  0  0  0  0  0  0
    3.6229   19.4274   37.3530 C   0  0  0  0  0  0  0  0  0  0  0  0
    2.9609   26.4050   29.1450 C   0  0  1  0  0  0  0  0  0  0  0  0
    1.9960   20.5577   41.2698 C   0  0  0  0  0  0  0  0  0  0  0  0
    3.6872   15.7162   37.3440 O   0  0  0  0  0  0  0  0  0  0  0  0
    5.2088   23.6005   28.1860 C   0  0  0  0  0  0  0  0  0  0  0  0
    4.0327   20.4289   36.4533 O   0  0  0  0  0  0  0  0  0  0  0  0
    3.4084   25.3513   28.0650 C   0  0  2  0  0  0  0  0  0  0  0  0
    1.0107   20.8035   42.2705 C   0  0  0  0  0  0  0  0  0  0  0  0
   -0.7090   20.1005   43.6581 F   0  0  0  0  0  0  0  0  0  0  0  0
    3.1574   19.7384   38.5821 N   0  0  0  0  0  0  0  0  0  0  0  0
    4.4829   24.4832   28.8572 C   0  0  0  0  0  0  0  0  0  0  0  0
    3.5757   17.0469   37.8027 C   0  0  0  0  0  0  0  0  0  0  0  0
    2.1868   19.1860   40.8068 C   0  0  0  0  0  0  0  0  0  0  0  0
    5.6185   24.5543   30.2064 H   0  0  0  0  0  0  0  0  0  0  0  0
    2.0175   23.5976   35.9386 H   0  0  0  0  0  0  0  0  0  0  0  0
    2.7474   24.0292   34.3551 H   0  0  0  0  0  0  0  0  0  0  0  0
    1.4320   22.8086   34.4348 H   0  0  0  0  0  0  0  0  0  0  0  0
    3.4475   21.4290   34.2905 H   0  0  0  0  0  0  0  0  0  0  0  0
    4.2383   17.9122   35.9243 H   0  0  0  0  0  0  0  0  0  0  0  0
    1.9556   17.0885   41.4298 H   0  0  0  0  0  0  0  0  0  0  0  0
    2.8890   22.0259   37.2815 H   0  0  0  0  0  0  0  0  0  0  0  0
    1.9166   20.9212   36.3848 H   0  0  0  0  0  0  0  0  0  0  0  0
    2.9007   16.4737   39.8907 H   0  0  0  0  0  0  0  0  0  0  0  0
    2.6945   25.7246   31.2866 H   0  0  0  0  0  0  0  0  0  0  0  0
    4.0227   26.8446   31.1301 H   0  0  0  0  0  0  0  0  0  0  0  0
    3.5763   14.2255   38.6531 H   0  0  0  0  0  0  0  0  0  0  0  0
    2.5267   14.1096   37.1999 H   0  0  0  0  0  0  0  0  0  0  0  0
    4.2978   13.8479   37.0519 H   0  0  0  0  0  0  0  0  0  0  0  0
    4.8206   21.1287   34.1566 H   0  0  0  0  0  0  0  0  0  0  0  0
    5.3160   22.4967   35.2643 H   0  0  0  0  0  0  0  0  0  0  0  0
    3.1408   22.2899   41.7241 H   0  0  0  0  0  0  0  0  0  0  0  0
    3.5551   21.4925   40.1687 H   0  0  0  0  0  0  0  0  0  0  0  0
    2.0444   22.4538   40.3106 H   0  0  0  0  0  0  0  0  0  0  0  0
    2.0440   26.8740   29.5315 H   0  0  0  0  0  0  0  0  0  0  0  0
    5.9571   22.9898   28.7124 H   0  0  0  0  0  0  0  0  0  0  0  0
    5.0629   23.4786   27.1026 H   0  0  0  0  0  0  0  0  0  0  0  0
    2.9688   24.6659   27.3255 H   0  0  0  0  0  0  0  0  0  0  0  0
    0.8074   21.8465   42.5547 H   0  0  0  0  0  0  0  0  0  0  0  0
  1 14  1  0
  1  8  1  0
  3  2  1  0
  3 12  1  0
  5 31  1  0
  6 19  1  0
  6 30  2  0
  7 11  1  0
  7  4  1  0
  8  9  3  0
  9 16  1  0
 10  7  2  0
 11 27  1  0
 12 24  1  0
 13  5  2  0
 16  3  1  0
 17 20  1  0
 18 21  1  0
 19 28  2  0
 20 14  1  0
 21 26  1  0
 22 15  1  0
 22 30  1  0
 23 29  2  3
 24 19  1  0
 25 17  1  0
 25 29  1  0
 25 20  1  0
 26 11  2  0
 28  5  1  0
 29  1  1  0
 30 13  1  0
 31 21  2  0
 31 10  1  0
  1 32  1  6
  2 33  1  0
  2 34  1  0
  2 35  1  0
  3 36  1  6
  6 37  1  0
 10 38  1  0
 12 39  1  0
 12 40  1  0
 13 41  1  0
 14 42  1  0
 14 43  1  0
 15 44  1  0
 15 45  1  0
 15 46  1  0
 16 47  1  0
 16 48  1  0
 18 49  1  0
 18 50  1  0
 18 51  1  0
 20 52  1  1
 23 53  1  0
 23 54  1  0
 25 55  1  6
 26 56  1  0
M  END
>  <mol_id>  (30) 
2026-09-16-6tgu-s0-n100-0030

>  <rmsd_to_ref>  (30) 


$$$$

     RDKit          3D

 56 57  0  0  0  0  0  0  0  0999 V2000
    2.3312   21.0633   37.3385 C   0  0  0  0  0  0  0  0  0  0  0  0
    1.4379   14.3196   36.2808 O   0  0  0  0  0  0  0  0  0  0  0  0
   -0.0290   20.3398   43.1284 Cl  0  0  0  0  0  0  0  0  0  0  0  0
    1.8290   20.1885   39.6622 C   0  0  0  0  0  0  0  0  0  0  0  0
    2.1348   16.5747   40.4315 N   0  0  0  0  0  0  0  0  0  0  0  0
    2.2338   15.5947   39.4632 C   0  0  0  0  0  0  0  0  0  0  0  0
   -0.7427   26.9274   30.4829 C   0  0  0  0  0  0  0  0  0  0  0  0
    1.1411   20.6719   40.7735 C   0  0  0  0  0  0  0  0  0  0  0  0
    1.0815   18.4234   41.6539 C   0  0  0  0  0  0  0  0  0  0  0  0
    1.8947   17.9009   40.5360 C   0  0  0  0  0  0  0  0  0  0  0  0
    1.7340   24.9777   33.8344 C   0  0  0  0  0  0  0  0  0  0  0  0
    1.7163   24.2023   35.1290 N   0  0  0  0  0  0  0  0  0  0  0  0
    0.8015   19.7464   41.7746 C   0  0  0  0  0  0  0  0  0  0  0  0
    2.0063   14.2226   37.4215 C   0  0  0  0  0  0  0  0  0  0  0  0
   -0.8360   27.5179   31.8817 C   0  0  0  0  0  0  0  0  0  0  0  0
    1.9631   21.0209   38.6012 N   0  0  0  0  0  0  0  0  0  0  0  0
    0.7697   29.4560   31.5966 O   0  0  0  0  0  0  0  0  0  0  0  0
    1.0528   28.6737   34.9609 C   0  0  0  0  0  0  0  0  0  0  0  0
    1.4966   26.5228   33.6939 C   0  0  0  0  0  0  0  0  0  0  0  0
    2.4875   15.4929   38.1055 C   0  0  0  0  0  0  0  0  0  0  0  0
    1.8569   22.3470   36.7049 C   0  0  0  0  0  0  0  0  0  0  0  0
    2.9596   22.1945   34.6700 O   0  0  0  0  0  0  0  0  0  0  0  0
    2.1689   22.8821   35.3839 C   0  0  0  0  0  0  0  0  0  0  0  0
    0.3528   28.3207   32.4317 C   0  0  2  0  0  0  0  0  0  0  0  0
    3.1911   20.3498   36.8331 O   0  0  0  0  0  0  0  0  0  0  0  0
    1.4719   27.3339   32.4470 C   0  0  0  0  0  0  0  0  0  0  0  0
    2.3827   18.9053   39.5824 C   0  0  0  0  0  0  0  0  0  0  0  0
    3.0808   16.4054   37.3823 C   0  0  0  0  0  0  0  0  0  0  0  0
    0.0975   29.0033   33.8255 C   0  0  0  0  0  0  0  0  0  0  0  0
    2.1495   13.1875   38.0006 O   0  0  0  0  0  0  0  0  0  0  0  0
    1.3854   27.2140   34.9726 C   0  0  0  0  0  0  0  0  0  0  0  0
    2.2932   16.1685   41.3647 H   0  0  0  0  0  0  0  0  0  0  0  0
    3.0115   14.9414   39.8855 H   0  0  0  0  0  0  0  0  0  0  0  0
    1.1441   15.5389   39.3241 H   0  0  0  0  0  0  0  0  0  0  0  0
   -0.4260   25.8761   30.5491 H   0  0  0  0  0  0  0  0  0  0  0  0
   -1.7268   26.9839   29.9948 H   0  0  0  0  0  0  0  0  0  0  0  0
   -0.0079   27.4953   29.8935 H   0  0  0  0  0  0  0  0  0  0  0  0
    0.8746   21.7353   40.8634 H   0  0  0  0  0  0  0  0  0  0  0  0
    0.6932   17.7225   42.4076 H   0  0  0  0  0  0  0  0  0  0  0  0
    1.9298   24.4124   32.9113 H   0  0  0  0  0  0  0  0  0  0  0  0
   -1.7090   28.1870   31.8917 H   0  0  0  0  0  0  0  0  0  0  0  0
   -0.8851   26.6362   32.5376 H   0  0  0  0  0  0  0  0  0  0  0  0
    1.6698   21.9657   38.8879 H   0  0  0  0  0  0  0  0  0  0  0  0
    1.1611   30.1615   32.1704 H   0  0  0  0  0  0  0  0  0  0  0  0
    0.5818   28.9433   35.9177 H   0  0  0  0  0  0  0  0  0  0  0  0
    1.9818   29.2445   34.8155 H   0  0  0  0  0  0  0  0  0  0  0  0
    0.7596   22.2714   36.7187 H   0  0  0  0  0  0  0  0  0  0  0  0
    2.4531   23.0499   37.3054 H   0  0  0  0  0  0  0  0  0  0  0  0
    1.3575   26.6568   31.5876 H   0  0  0  0  0  0  0  0  0  0  0  0
    2.4156   27.8965   32.3945 H   0  0  0  0  0  0  0  0  0  0  0  0
    3.1520   18.6593   38.8357 H   0  0  0  0  0  0  0  0  0  0  0  0
    3.4384   17.3333   37.8525 H   0  0  0  0  0  0  0  0  0  0  0  0
    3.2227   16.2456   36.3032 H   0  0  0  0  0  0  0  0  0  0  0  0
    0.1358   30.0916   33.6698 H   0  0  0  0  0  0  0  0  0  0  0  0
   -0.8734   28.6054   34.1555 H   0  0  0  0  0  0  0  0  0  0  0  0
    1.5416   26.6777   35.9202 H   0  0  0  0  0  0  0  0  0  0  0  0
  1 16  1  0
  2 14  2  0
  4 27  2  0
  4  8  1  0
  6  5  1  0
  7 15  1  0
  8 13  2  0
 10  5  1  0
 10  9  2  0
 11 12  2  3
 12 23  1  0
 13  9  1  0
 13  3  1  0
 14 20  1  0
 14 30  1  0
 15 24  1  0
 16  4  1  0
 18 31  1  0
 19 11  1  0
 19 31  2  0
 20  6  1  0
 21  1  1  0
 22 23  2  0
 23 21  1  0
 24 17  1  6
 24 26  1  0
 24 29  1  0
 25  1  2  0
 26 19  1  0
 27 10  1  0
 28 20  2  3
 29 18  1  0
  5 32  1  0
  6 33  1  0
  6 34  1  0
  7 35  1  0
  7 36  1  0
  7 37  1  0
  8 38  1  0
  9 39  1  0
 11 40  1  0
 15 41  1  0
 15 42  1  0
 16 43  1  0
 17 44  1  0
 18 45  1  0
 18 46  1  0
 21 47  1  0
 21 48  1  0
 26 49  1  0
 26 50  1  0
 27 51  1  0
 28 52  1  0
 28 53  1  0
 29 54  1  0
 29 55  1  0
 31 56  1  0
M  CHG  1  30  -1
M  END
>  <mol_id>  (31) 
2026-09-16-6tgu-s0-n100-0031

>  <rmsd_to_ref>  (31) 


$$$$

     RDKit          3D

 46 47  0  0  0  0  0  0  0  0999 V2000
    2.7819   21.3395   37.1967 C   0  0  0  0  0  0  0  0  0  0  0  0
    1.7198   25.1434   33.8088 C   0  0  0  0  0  0  0  0  0  0  0  0
    3.0172   20.1861   40.4820 C   0  0  0  0  0  0  0  0  0  0  0  0
    2.6283   24.4414   34.7228 C   0  0  0  0  0  0  0  0  0  0  0  0
    1.2192   16.4783   37.8515 C   0  0  0  0  0  0  0  0  0  0  0  0
    1.8546   17.8561   38.1472 C   0  0  0  0  0  0  0  0  0  0  0  0
    3.2289   22.9342   32.5152 C   0  0  0  0  0  0  0  0  0  0  0  0
    3.4584   24.4064   32.1877 C   0  0  1  0  0  0  0  0  0  0  0  0
    2.6661   19.6712   39.2015 C   0  0  0  0  0  0  0  0  0  0  0  0
    3.8236   24.6056   30.7205 C   0  0  0  0  0  0  0  0  0  0  0  0
    2.4947   19.9984   37.8004 C   0  0  0  0  0  0  0  0  0  0  0  0
    4.0005   22.4037   33.6501 C   0  0  0  0  0  0  0  0  0  0  0  0
    2.0145   15.4789   37.0780 C   0  0  0  0  0  0  0  0  0  0  0  0
    3.0343   22.9362   35.0168 C   0  0  2  0  0  0  0  0  0  0  0  0
    2.9542   21.4072   35.7551 C   0  0  0  0  0  0  0  0  0  0  0  0
    2.1411   18.3269   39.3652 C   0  0  0  0  0  0  0  0  0  0  0  0
    2.8095   21.4011   40.9951 C   0  0  0  0  0  0  0  0  0  0  0  0
    2.1249   25.1148   32.3681 C   0  0  0  0  0  0  0  0  0  0  0  0
    2.0532   18.8369   37.1685 N   0  0  0  0  0  0  0  0  0  0  0  0
    2.8595   22.2408   37.8224 H   0  0  0  0  0  0  0  0  0  0  0  0
    0.7258   24.6799   33.8930 H   0  0  0  0  0  0  0  0  0  0  0  0
    1.7360   26.2008   34.1115 H   0  0  0  0  0  0  0  0  0  0  0  0
    3.5357   19.4789   41.1461 H   0  0  0  0  0  0  0  0  0  0  0  0
    3.5985   24.9047   34.4904 H   0  0  0  0  0  0  0  0  0  0  0  0
    1.9423   24.5065   35.5802 H   0  0  0  0  0  0  0  0  0  0  0  0
    0.9742   16.0188   38.8204 H   0  0  0  0  0  0  0  0  0  0  0  0
    0.3666   16.7098   37.1961 H   0  0  0  0  0  0  0  0  0  0  0  0
    3.4909   22.3451   31.6239 H   0  0  0  0  0  0  0  0  0  0  0  0
    2.1718   22.8543   32.8087 H   0  0  0  0  0  0  0  0  0  0  0  0
    4.2659   24.7841   32.8322 H   0  0  0  0  0  0  0  0  0  0  0  0
    4.9181   24.6412   30.6165 H   0  0  0  0  0  0  0  0  0  0  0  0
    3.4259   23.7693   30.1268 H   0  0  0  0  0  0  0  0  0  0  0  0
    3.3900   25.5500   30.3597 H   0  0  0  0  0  0  0  0  0  0  0  0
    4.0690   21.3066   33.6106 H   0  0  0  0  0  0  0  0  0  0  0  0
    5.0447   22.7480   33.6801 H   0  0  0  0  0  0  0  0  0  0  0  0
    2.6448   14.8987   37.7681 H   0  0  0  0  0  0  0  0  0  0  0  0
    1.3320   14.7998   36.5459 H   0  0  0  0  0  0  0  0  0  0  0  0
    2.6525   16.0019   36.3505 H   0  0  0  0  0  0  0  0  0  0  0  0
    2.6077   23.3748   35.9310 H   0  0  0  0  0  0  0  0  0  0  0  0
    3.0310   20.4887   35.1548 H   0  0  0  0  0  0  0  0  0  0  0  0
    1.2305   18.3519   39.9820 H   0  0  0  0  0  0  0  0  0  0  0  0
    2.8775   17.6818   39.8666 H   0  0  0  0  0  0  0  0  0  0  0  0
    3.1505   21.6331   42.0148 H   0  0  0  0  0  0  0  0  0  0  0  0
    2.2973   22.1700   40.3981 H   0  0  0  0  0  0  0  0  0  0  0  0
    2.2140   26.1474   31.9995 H   0  0  0  0  0  0  0  0  0  0  0  0
    1.3585   24.5663   31.8007 H   0  0  0  0  0  0  0  0  0  0  0  0
  1 11  1  0
  2  4  1  0
  3 17  2  3
  4 14  1  0
  5  6  1  0
  6 16  1  0
  7 12  1  0
  8 10  1  0
  8  7  1  0
  9 16  1  0
  9  3  1  0
 11  9  2  0
 12 14  1  0
 13  5  1  0
 14 15  1  0
 15  1  2  3
 18  8  1  0
 18  2  1  0
 19 11  1  0
 19  6  2  0
  1 20  1  0
  2 21  1  0
  2 22  1  0
  3 23  1  0
  4 24  1  0
  4 25  1  0
  5 26  1  0
  5 27  1  0
  7 28  1  0
  7 29  1  0
  8 30  1  1
 10 31  1  0
 10 32  1  0
 10 33  1  0
 12 34  1  0
 12 35  1  0
 13 36  1  0
 13 37  1  0
 13 38  1  0
 14 39  1  1
 15 40  1  0
 16 41  1  0
 16 42  1  0
 17 43  1  0
 17 44  1  0
 18 45  1  0
 18 46  1  0
M  END
>  <mol_id>  (32) 
2026-09-16-6tgu-s0-n100-0032

>  <rmsd_to_ref>  (32) 


$$$$

     RDKit          3D

 78 81  0  0  0  0  0  0  0  0999 V2000
    1.5166   23.5741   31.8788 N   0  0  0  0  0  0  0  0  0  0  0  0
    1.6506   26.1720   33.2284 C   0  0  1  0  0  0  0  0  0  0  0  0
    2.8660   18.1020   37.6885 C   0  0  0  0  0  0  0  0  0  0  0  0
    2.1887   18.9967   39.5088 C   0  0  0  0  0  0  0  0  0  0  0  0
    0.4615   25.1590   28.0485 C   0  0  0  0  0  0  0  0  0  0  0  0
    0.0691   20.8123   42.8518 C   0  0  0  0  0  0  0  0  0  0  0  0
    1.5132   24.7690   31.1441 C   0  0  1  0  0  0  0  0  0  0  0  0
    2.5521   20.6335   37.4615 C   0  0  0  0  0  0  0  0  0  0  0  0
    2.2849   27.4104   32.5399 C   0  0  0  0  0  0  0  0  0  0  0  0
    3.7267   22.9028   33.7776 O   0  0  0  0  0  0  0  0  0  0  0  0
    0.4046   26.4891   28.5168 C   0  0  0  0  0  0  0  0  0  0  0  0
    0.0864   15.7372   40.4817 O   0  0  0  0  0  0  0  0  0  0  0  0
    1.4170   15.6981   41.0127 S   0  0  0  0  0  4  0  0  0  0  0  0
    2.3297   17.7239   39.6026 N   0  0  0  0  0  0  0  0  0  0  0  0
    1.5614   25.7158   28.9791 C   0  0  0  0  0  0  0  0  0  0  0  0
    2.6884   24.7669   34.6717 C   0  0  0  0  0  0  0  0  0  0  0  0
    0.4632   21.3623   41.6973 C   0  0  0  0  0  0  0  0  0  0  0  0
    3.5704   21.0421   36.8066 C   0  0  0  0  0  0  0  0  0  0  0  0
    0.9891   23.3588   29.6826 N   0  0  0  0  0  0  0  0  0  0  0  0
    1.5592   20.9099   41.0862 C   0  0  0  0  0  0  0  0  0  0  0  0
    2.6950   26.8120   29.3700 C   0  0  0  0  0  0  0  0  0  0  0  0
    2.3120   14.7445   40.2718 O   0  0  0  0  0  0  0  0  0  0  0  0
    1.5151   18.4256   41.5963 C   0  0  0  0  0  0  0  0  0  0  0  0
    1.9418   25.9922   31.6907 C   0  0  2  0  0  0  0  0  0  0  0  0
    1.7625   19.5178   40.7370 C   0  0  0  0  0  0  0  0  0  0  0  0
    1.7640   25.0991   33.9513 C   0  0  0  0  0  0  0  0  0  0  0  0
    2.5792   19.3119   38.1140 C   0  0  2  0  0  0  0  0  0  0  0  0
    1.4662   24.5595   29.8566 C   0  0  2  0  0  0  0  0  0  0  0  0
   -1.0154   21.5109   43.5474 O   0  0  0  0  0  0  0  0  0  0  0  0
    2.5639   17.1746   38.5671 N   0  0  0  0  0  0  0  0  0  0  0  0
    1.2279   15.0984   42.3596 O   0  0  0  0  0  0  0  0  0  0  0  0
    2.1276   17.2641   40.8872 C   0  0  1  0  0  0  0  0  0  0  0  0
    0.9509   22.9347   30.9917 C   0  0  0  0  0  0  0  0  0  0  0  0
    3.1165   23.4173   34.9188 C   0  0  0  0  0  0  0  0  0  0  0  0
    2.4639   23.2282   32.0887 H   0  0  0  0  0  0  0  0  0  0  0  0
    1.1019   23.5770   32.8217 H   0  0  0  0  0  0  0  0  0  0  0  0
    0.9751   26.3135   34.0848 H   0  0  0  0  0  0  0  0  0  0  0  0
    2.3007   17.9099   36.7646 H   0  0  0  0  0  0  0  0  0  0  0  0
    3.9514   18.0574   37.5156 H   0  0  0  0  0  0  0  0  0  0  0  0
   -0.2523   24.4107   28.4236 H   0  0  0  0  0  0  0  0  0  0  0  0
    0.4436   24.6763   27.0602 H   0  0  0  0  0  0  0  0  0  0  0  0
    0.5286   19.8966   43.2521 H   0  0  0  0  0  0  0  0  0  0  0  0
    0.5672   25.2673   31.4022 H   0  0  0  0  0  0  0  0  0  0  0  0
    1.6563   21.2672   37.5383 H   0  0  0  0  0  0  0  0  0  0  0  0
    1.6873   28.3181   32.3697 H   0  0  0  0  0  0  0  0  0  0  0  0
    3.1743   28.0362   32.7050 H   0  0  0  0  0  0  0  0  0  0  0  0
    4.4221   22.2494   34.0413 H   0  0  0  0  0  0  0  0  0  0  0  0
    0.5610   27.3144   27.8065 H   0  0  0  0  0  0  0  0  0  0  0  0
   -0.3705   27.0635   29.0452 H   0  0  0  0  0  0  0  0  0  0  0  0
   -0.5659   15.7471   41.2263 H   0  0  0  0  0  0  0  0  0  0  0  0
    2.4469   25.1802   35.6621 H   0  0  0  0  0  0  0  0  0  0  0  0
    3.5368   25.1292   34.0724 H   0  0  0  0  0  0  0  0  0  0  0  0
   -0.1154   22.1857   41.2531 H   0  0  0  0  0  0  0  0  0  0  0  0
    3.5515   22.0281   36.3192 H   0  0  0  0  0  0  0  0  0  0  0  0
    4.4659   20.4080   36.7302 H   0  0  0  0  0  0  0  0  0  0  0  0
    0.0510   23.3765   29.2575 H   0  0  0  0  0  0  0  0  0  0  0  0
    1.5328   22.7603   29.0446 H   0  0  0  0  0  0  0  0  0  0  0  0
    1.6304   21.4702   40.1423 H   0  0  0  0  0  0  0  0  0  0  0  0
    2.3160   21.0470   41.8726 H   0  0  0  0  0  0  0  0  0  0  0  0
    2.7567   26.9013   30.4647 H   0  0  0  0  0  0  0  0  0  0  0  0
    3.6690   26.4897   28.9730 H   0  0  0  0  0  0  0  0  0  0  0  0
    2.4269   27.7870   28.9371 H   0  0  0  0  0  0  0  0  0  0  0  0
    2.7970   14.1754   40.9207 H   0  0  0  0  0  0  0  0  0  0  0  0
    1.9918   18.5820   42.5752 H   0  0  0  0  0  0  0  0  0  0  0  0
    0.4439   18.2808   41.8003 H   0  0  0  0  0  0  0  0  0  0  0  0
    1.1558   26.5186   31.1293 H   0  0  0  0  0  0  0  0  0  0  0  0
    0.8884   25.1203   34.6169 H   0  0  0  0  0  0  0  0  0  0  0  0
    1.9215   24.3730   33.1402 H   0  0  0  0  0  0  0  0  0  0  0  0
    3.6342   19.4669   38.3842 H   0  0  0  0  0  0  0  0  0  0  0  0
    2.2626   24.4558   29.1049 H   0  0  0  0  0  0  0  0  0  0  0  0
   -1.3581   21.1607   44.4077 H   0  0  0  0  0  0  0  0  0  0  0  0
    1.7361   16.6486   38.2529 H   0  0  0  0  0  0  0  0  0  0  0  0
    1.3666   15.7922   43.0522 H   0  0  0  0  0  0  0  0  0  0  0  0
    3.0532   16.9855   41.4121 H   0  0  0  0  0  0  0  0  0  0  0  0
   -0.1112   22.8805   31.2729 H   0  0  0  0  0  0  0  0  0  0  0  0
    1.5267   21.9980   30.9613 H   0  0  0  0  0  0  0  0  0  0  0  0
    2.2446   22.7986   35.1779 H   0  0  0  0  0  0  0  0  0  0  0  0
    3.8350   23.4093   35.7516 H   0  0  0  0  0  0  0  0  0  0  0  0
  2 26  1  0
  3 27  1  0
  3 30  1  0
  4 14  1  0
  4 25  2  0
  5 11  1  0
  5 15  1  0
  6 29  1  0
  7 24  1  0
  7  1  1  0
  9  2  1  0
 10 34  1  0
 11 15  1  0
 12 13  1  0
 13 31  1  0
 14 32  1  0
 15 21  1  0
 16 34  1  0
 17  6  2  3
 18  8  2  3
 19 28  1  0
 19 33  1  0
 20 17  1  0
 22 13  1  0
 24  9  1  0
 24  2  1  0
 25 20  1  0
 25 23  1  0
 26 16  1  0
 27  8  1  0
 27  4  1  0
 28 15  1  0
 28  7  1  0
 30 14  1  0
 32 13  1  0
 32 23  1  0
 33  1  1  0
  1 35  1  0
  1 36  1  0
  2 37  1  6
  3 38  1  0
  3 39  1  0
  5 40  1  0
  5 41  1  0
  6 42  1  0
  7 43  1  1
  8 44  1  0
  9 45  1  0
  9 46  1  0
 10 47  1  0
 11 48  1  0
 11 49  1  0
 12 50  1  0
 16 51  1  0
 16 52  1  0
 17 53  1  0
 18 54  1  0
 18 55  1  0
 19 56  1  0
 19 57  1  0
 20 58  1  0
 20 59  1  0
 21 60  1  0
 21 61  1  0
 21 62  1  0
 22 63  1  0
 23 64  1  0
 23 65  1  0
 24 66  1  1
 26 67  1  0
 26 68  1  0
 27 69  1  1
 28 70  1  6
 29 71  1  0
 30 72  1  0
 31 73  1  0
 32 74  1  1
 33 75  1  0
 33 76  1  0
 34 77  1  0
 34 78  1  0
M  CHG  2   1   1  19   1
M  END
>  <mol_id>  (33) 
2026-09-16-6tgu-s0-n100-0033

>  <rmsd_to_ref>  (33) 


$$$$

     RDKit          3D

 52 56  0  0  0  0  0  0  0  0999 V2000
    2.3941   23.7967   32.8058 C   0  0  0  0  0  0  0  0  0  0  0  0
    0.1523   27.2408   33.1217 O   0  0  0  0  0  0  0  0  0  0  0  0
    3.5217   11.8318   36.0579 C   0  0  0  0  0  0  0  0  0  0  0  0
    2.1158   17.2193   39.5107 C   0  0  0  0  0  0  0  0  0  0  0  0
    0.8183   26.0390   33.0581 C   0  0  0  0  0  0  0  0  0  0  0  0
    2.9476   24.5085   30.5761 O   0  0  0  0  0  0  0  0  0  0  0  0
    2.1901   21.4262   36.4325 C   0  0  1  0  0  0  0  0  0  0  0  0
    2.2490   24.6999   31.7494 C   0  0  0  0  0  0  0  0  0  0  0  0
    1.0603   20.2718   41.0260 C   0  0  0  0  0  0  0  0  0  0  0  0
    1.3738   21.4334   37.8073 S   0  0  0  0  0  0  0  0  0  0  0  0
    1.8233   22.7407   35.2492 S   0  0  0  0  0  0  0  0  0  0  0  0
    2.9556   11.7175   34.8022 C   0  0  0  0  0  0  0  0  0  0  0  0
    3.2407   15.7947   37.7519 C   0  0  0  0  0  0  0  0  0  0  0  0
    2.9319   20.3830   36.4876 N   0  0  0  0  0  0  0  0  0  0  0  0
    0.9745   18.5757   41.7223 S   0  0  0  0  0  0  0  0  0  0  0  0
    1.5234   19.8124   39.7790 N   0  0  0  0  0  0  0  0  0  0  0  0
    2.1776   18.5383   40.2561 C   0  0  2  0  0  0  0  0  0  0  0  0
    2.7749   19.6003   37.6142 C   0  0  0  0  0  0  0  0  0  0  0  0
    1.6920   24.0268   34.0301 C   0  0  0  0  0  0  0  0  0  0  0  0
    3.3240   18.3239   37.6598 N   0  0  0  0  0  0  0  0  0  0  0  0
    1.9645   12.5744   34.3595 C   0  0  0  0  0  0  0  0  0  0  0  0
    1.4477   25.8052   31.8489 C   0  0  0  0  0  0  0  0  0  0  0  0
    2.2548   13.9014   36.3697 C   0  0  0  0  0  0  0  0  0  0  0  0
    0.9348   25.1973   34.1425 C   0  0  0  0  0  0  0  0  0  0  0  0
    0.5099   21.1171   41.7500 N   0  0  0  0  0  0  0  0  0  0  0  0
    3.0607   12.9421   36.7860 C   0  0  0  0  0  0  0  0  0  0  0  0
    1.9245   20.2156   38.4977 C   0  0  2  0  0  0  0  0  0  0  0  0
    1.6277   13.7136   35.0921 C   0  0  0  0  0  0  0  0  0  0  0  0
    2.7555   17.1882   38.0583 C   0  0  2  0  0  0  0  0  0  0  0  0
    1.9819   15.1006   37.1498 C   0  0  0  0  0  0  0  0  0  0  0  0
    3.0433   22.9156   32.6964 H   0  0  0  0  0  0  0  0  0  0  0  0
    0.0918   27.8163   32.3184 H   0  0  0  0  0  0  0  0  0  0  0  0
    4.2633   11.1206   36.4505 H   0  0  0  0  0  0  0  0  0  0  0  0
    2.6379   16.4674   40.1207 H   0  0  0  0  0  0  0  0  0  0  0  0
    1.0440   17.0246   39.3577 H   0  0  0  0  0  0  0  0  0  0  0  0
    3.5355   23.7186   30.4733 H   0  0  0  0  0  0  0  0  0  0  0  0
    1.3713   20.8218   36.0150 H   0  0  0  0  0  0  0  0  0  0  0  0
    3.3052   10.9180   34.1324 H   0  0  0  0  0  0  0  0  0  0  0  0
    4.0651   15.8156   37.0239 H   0  0  0  0  0  0  0  0  0  0  0  0
    3.6383   15.2735   38.6352 H   0  0  0  0  0  0  0  0  0  0  0  0
    3.2770   18.5445   40.2905 H   0  0  0  0  0  0  0  0  0  0  0  0
    4.3011   18.2468   37.3430 H   0  0  0  0  0  0  0  0  0  0  0  0
    1.4359   12.3558   33.4199 H   0  0  0  0  0  0  0  0  0  0  0  0
    1.3089   26.4851   30.9954 H   0  0  0  0  0  0  0  0  0  0  0  0
    0.4353   25.4443   35.0909 H   0  0  0  0  0  0  0  0  0  0  0  0
    0.4930   22.1067   41.4649 H   0  0  0  0  0  0  0  0  0  0  0  0
    3.4129   13.0211   37.8251 H   0  0  0  0  0  0  0  0  0  0  0  0
    1.0876   19.6168   38.1090 H   0  0  0  0  0  0  0  0  0  0  0  0
    0.9042   14.4449   34.7027 H   0  0  0  0  0  0  0  0  0  0  0  0
    2.0517   17.2939   37.2196 H   0  0  0  0  0  0  0  0  0  0  0  0
    1.4728   15.8243   36.4964 H   0  0  0  0  0  0  0  0  0  0  0  0
    1.3695   14.7785   38.0049 H   0  0  0  0  0  0  0  0  0  0  0  0
  1 19  1  0
  3 26  1  0
  5  2  1  0
  5 24  1  0
  6  8  1  0
  7 11  1  0
  7 14  1  0
  7 10  1  0
  8 22  1  0
  8  1  2  0
  9 25  2  3
  9 15  1  0
 10 27  1  0
 12  3  2  0
 14 18  2  0
 16 17  1  0
 16  9  1  0
 17  4  1  0
 17 15  1  0
 18 20  1  0
 19 24  2  0
 19 11  1  0
 20 29  1  0
 21 12  1  0
 21 28  2  0
 22  5  2  0
 23 26  2  0
 23 30  1  0
 27 18  1  0
 27 16  1  0
 28 23  1  0
 29 13  1  0
 29  4  1  0
 30 13  1  0
  1 31  1  0
  2 32  1  0
  3 33  1  0
  4 34  1  0
  4 35  1  0
  6 36  1  0
  7 37  1  1
 12 38  1  0
 13 39  1  0
 13 40  1  0
 17 41  1  1
 20 42  1  0
 21 43  1  0
 22 44  1  0
 24 45  1  0
 25 46  1  0
 26 47  1  0
 27 48  1  1
 28 49  1  0
 29 50  1  6
 30 51  1  0
 30 52  1  0
M  END
>  <mol_id>  (34) 
2026-09-16-6tgu-s0-n100-0034

>  <rmsd_to_ref>  (34) 


$$$$

     RDKit          3D

 40 39  0  0  0  0  0  0  0  0999 V2000
    1.5158   21.5119   35.0145 C   0  0  0  0  0  0  0  0  0  0  0  0
    2.4015   18.3196   40.6972 C   0  0  0  0  0  0  0  0  0  0  0  0
    1.2430   20.6815   40.3616 C   0  0  0  0  0  0  0  0  0  0  0  0
    2.3129   20.9836   37.4991 C   0  0  0  0  0  0  0  0  0  0  0  0
    4.1749   21.9722   32.9008 C   0  0  0  0  0  0  0  0  0  0  0  0
    1.4640   22.3355   34.2142 C   0  0  0  0  0  0  0  0  0  0  0  0
    0.6089   21.9808   42.1832 C   0  0  0  0  0  0  0  0  0  0  0  0
    2.4067   21.6215   36.1388 C   0  0  1  0  0  0  0  0  0  0  0  0
    0.4198   21.7999   40.8507 C   0  0  0  0  0  0  0  0  0  0  0  0
    2.5182   19.7972   40.0840 C   0  0  2  0  0  0  0  0  0  0  0  0
    3.8172   21.1098   35.5156 C   0  0  0  0  0  0  0  0  0  0  0  0
    2.6888   19.3713   38.2118 S   0  0  0  0  0  0  0  0  0  0  0  0
    3.6226   20.8077   33.9236 C   0  0  0  0  0  0  0  0  0  0  0  0
    1.5561   17.1167   41.2196 C   0  0  0  0  0  0  0  0  0  0  0  0
    0.8728   20.6245   34.9190 H   0  0  0  0  0  0  0  0  0  0  0  0
    3.0291   18.4692   41.5881 H   0  0  0  0  0  0  0  0  0  0  0  0
    2.2654   17.9360   39.6753 H   0  0  0  0  0  0  0  0  0  0  0  0
    0.6614   19.8890   40.8552 H   0  0  0  0  0  0  0  0  0  0  0  0
    1.6056   21.3598   39.5752 H   0  0  0  0  0  0  0  0  0  0  0  0
    1.2481   21.1083   37.7455 H   0  0  0  0  0  0  0  0  0  0  0  0
    3.2330   21.4553   37.8743 H   0  0  0  0  0  0  0  0  0  0  0  0
    4.4271   22.8755   33.4756 H   0  0  0  0  0  0  0  0  0  0  0  0
    5.0720   21.6069   32.3795 H   0  0  0  0  0  0  0  0  0  0  0  0
    3.3948   22.2127   32.1635 H   0  0  0  0  0  0  0  0  0  0  0  0
    0.7759   22.2321   33.3623 H   0  0  0  0  0  0  0  0  0  0  0  0
    2.1027   23.2269   34.3002 H   0  0  0  0  0  0  0  0  0  0  0  0
   -0.3440   22.2653   42.6535 H   0  0  0  0  0  0  0  0  0  0  0  0
    0.9745   21.0454   42.6320 H   0  0  0  0  0  0  0  0  0  0  0  0
    1.3494   22.7783   42.3435 H   0  0  0  0  0  0  0  0  0  0  0  0
    2.1725   22.6449   36.4672 H   0  0  0  0  0  0  0  0  0  0  0  0
    0.7030   22.7189   40.3166 H   0  0  0  0  0  0  0  0  0  0  0  0
   -0.6401   21.5681   40.6695 H   0  0  0  0  0  0  0  0  0  0  0  0
    3.3363   20.3966   40.5098 H   0  0  0  0  0  0  0  0  0  0  0  0
    4.5832   21.8875   35.6515 H   0  0  0  0  0  0  0  0  0  0  0  0
    4.1366   20.1912   36.0296 H   0  0  0  0  0  0  0  0  0  0  0  0
    2.5471   20.6747   33.7344 H   0  0  0  0  0  0  0  0  0  0  0  0
    4.2279   19.9136   33.7131 H   0  0  0  0  0  0  0  0  0  0  0  0
    1.4213   17.2082   42.3075 H   0  0  0  0  0  0  0  0  0  0  0  0
    0.5726   17.1182   40.7269 H   0  0  0  0  0  0  0  0  0  0  0  0
    2.0784   16.1756   40.9927 H   0  0  0  0  0  0  0  0  0  0  0  0
  2 14  1  0
  3  9  1  0
  4 12  1  0
  5 13  1  0
  6  1  2  3
  8  1  1  0
  8  4  1  0
  9  7  1  0
 10  2  1  0
 10  3  1  0
 11  8  1  0
 12 10  1  0
 13 11  1  0
  1 15  1  0
  2 16  1  0
  2 17  1  0
  3 18  1  0
  3 19  1  0
  4 20  1  0
  4 21  1  0
  5 22  1  0
  5 23  1  0
  5 24  1  0
  6 25  1  0
  6 26  1  0
  7 27  1  0
  7 28  1  0
  7 29  1  0
  8 30  1  1
  9 31  1  0
  9 32  1  0
 10 33  1  1
 11 34  1  0
 11 35  1  0
 13 36  1  0
 13 37  1  0
 14 38  1  0
 14 39  1  0
 14 40  1  0
M  END
>  <mol_id>  (35) 
2026-09-16-6tgu-s0-n100-0035

>  <rmsd_to_ref>  (35) 


$$$$

     RDKit          3D

 69 68  0  0  0  0  0  0  0  0999 V2000
    1.7950   21.8326   35.5404 O   0  0  0  0  0  0  0  0  0  0  0  0
    2.6377   22.1868   34.7133 C   0  0  0  0  0  0  0  0  0  0  0  0
    3.5049   15.2694   37.5244 O   0  0  0  0  0  0  0  0  0  0  0  0
    3.1972   17.6056   36.7700 C   0  0  0  0  0  0  0  0  0  0  0  0
    1.1386   28.0588   29.4876 F   0  0  0  0  0  0  0  0  0  0  0  0
    2.7649   19.4873   38.0128 C   0  0  0  0  0  0  0  0  0  0  0  0
    2.0120   27.4686   30.3198 C   0  0  0  0  0  0  0  0  0  0  0  0
    4.1807   16.4566   37.1139 C   0  0  0  0  0  0  0  0  0  0  0  0
    3.5623   21.4881   34.4165 O   0  0  0  0  0  0  0  0  0  0  0  0
    2.7265   11.9821   36.1175 C   0  0  1  0  0  0  0  0  0  0  0  0
    4.6450   14.0747   35.9902 O   0  0  0  0  0  0  0  0  0  0  0  0
    1.7933   27.4224   31.7424 C   0  0  0  0  0  0  0  0  0  0  0  0
    2.6529   13.2146   36.8759 O   0  0  0  0  0  0  0  0  0  0  0  0
    1.9551   10.6936   36.3843 C   0  0  0  0  0  0  0  0  0  0  0  0
    3.0317   25.1139   32.0804 C   0  0  2  0  0  0  0  0  0  0  0  0
    2.8167   26.6660   29.6095 C   0  0  0  0  0  0  0  0  0  0  0  0
   -0.1209   17.3818   41.1173 O   0  0  0  0  0  0  0  0  0  0  0  0
    2.7455   18.2161   38.0136 O   0  0  0  0  0  0  0  0  0  0  0  0
    2.0530   26.1685   32.4295 C   0  0  0  0  0  0  0  0  0  0  0  0
   -0.5579   19.7586   41.2010 C   0  0  0  0  0  0  0  0  0  0  0  0
    3.3232   20.3295   37.5442 O   0  0  0  0  0  0  0  0  0  0  0  0
    1.3645   20.2219   39.2714 C   0  0  0  0  0  0  0  0  0  0  0  0
    2.6044   23.6534   34.2849 C   0  0  0  0  0  0  0  0  0  0  0  0
    1.9203   13.4711   34.1632 O   0  0  0  0  0  0  0  0  0  0  0  0
    3.6182   25.8595   29.8938 C   0  0  1  0  0  0  0  0  0  0  0  0
    2.9610   23.8303   32.8445 C   0  0  0  0  0  0  0  0  0  0  0  0
    3.6757   14.1823   36.7128 C   0  0  0  0  0  0  0  0  0  0  0  0
    4.8920   25.7054   28.6813 S   0  0  0  0  0  0  0  0  0  0  0  0
    4.1884   25.6739   31.2347 C   0  0  2  0  0  0  0  0  0  0  0  0
    0.1294   18.7222   40.6675 C   0  0  0  0  0  0  0  0  0  0  0  0
    2.5760   12.2854   34.5936 C   0  0  0  0  0  0  0  0  0  0  0  0
   -0.2719   20.9989   40.7120 C   0  0  0  0  0  0  0  0  0  0  0  0
    1.1298   18.9254   39.6699 C   0  0  0  0  0  0  0  0  0  0  0  0
    0.6705   21.3140   39.7589 C   0  0  0  0  0  0  0  0  0  0  0  0
    5.4533   24.9363   31.5111 C   0  0  0  0  0  0  0  0  0  0  0  0
    3.7078   18.3582   36.1513 H   0  0  0  0  0  0  0  0  0  0  0  0
    2.3367   17.2101   36.2104 H   0  0  0  0  0  0  0  0  0  0  0  0
    1.9868   19.8775   38.6854 H   0  0  0  0  0  0  0  0  0  0  0  0
    4.7846   16.2296   36.2230 H   0  0  0  0  0  0  0  0  0  0  0  0
    4.8099   16.7919   37.9515 H   0  0  0  0  0  0  0  0  0  0  0  0
    3.7008   11.6836   36.5319 H   0  0  0  0  0  0  0  0  0  0  0  0
    2.4406   28.1861   32.1984 H   0  0  0  0  0  0  0  0  0  0  0  0
    0.7116   27.5832   31.8609 H   0  0  0  0  0  0  0  0  0  0  0  0
    1.7280   10.6179   37.4580 H   0  0  0  0  0  0  0  0  0  0  0  0
    1.0165   10.7026   35.8108 H   0  0  0  0  0  0  0  0  0  0  0  0
    2.5645    9.8310   36.0768 H   0  0  0  0  0  0  0  0  0  0  0  0
    2.8702   24.3065   31.3510 H   0  0  0  0  0  0  0  0  0  0  0  0
    2.6995   26.7916   28.5230 H   0  0  0  0  0  0  0  0  0  0  0  0
    0.3836   16.6257   40.7249 H   0  0  0  0  0  0  0  0  0  0  0  0
    2.3203   26.4653   33.4545 H   0  0  0  0  0  0  0  0  0  0  0  0
    1.1332   25.6357   32.1465 H   0  0  0  0  0  0  0  0  0  0  0  0
   -1.3097   19.6080   41.9896 H   0  0  0  0  0  0  0  0  0  0  0  0
    2.1497   20.3994   38.5217 H   0  0  0  0  0  0  0  0  0  0  0  0
    1.5907   24.0474   34.4496 H   0  0  0  0  0  0  0  0  0  0  0  0
    3.3484   24.1970   34.8856 H   0  0  0  0  0  0  0  0  0  0  0  0
    1.5119   13.9241   34.9431 H   0  0  0  0  0  0  0  0  0  0  0  0
    2.8837   25.0411   29.9221 H   0  0  0  0  0  0  0  0  0  0  0  0
    2.2325   23.2152   32.2959 H   0  0  0  0  0  0  0  0  0  0  0  0
    4.0356   23.6028   32.9021 H   0  0  0  0  0  0  0  0  0  0  0  0
    6.0977   25.5246   29.3061 H   0  0  0  0  0  0  0  0  0  0  0  0
    4.5847   26.6711   31.4766 H   0  0  0  0  0  0  0  0  0  0  0  0
    2.0237   11.4411   34.1554 H   0  0  0  0  0  0  0  0  0  0  0  0
    3.6142   12.4386   34.2641 H   0  0  0  0  0  0  0  0  0  0  0  0
   -0.8556   21.8361   41.1222 H   0  0  0  0  0  0  0  0  0  0  0  0
    1.6891   18.0823   39.2382 H   0  0  0  0  0  0  0  0  0  0  0  0
    0.8549   22.3428   39.4159 H   0  0  0  0  0  0  0  0  0  0  0  0
    5.5566   24.7789   32.5948 H   0  0  0  0  0  0  0  0  0  0  0  0
    5.4291   23.9626   30.9998 H   0  0  0  0  0  0  0  0  0  0  0  0
    6.3078   25.5229   31.1425 H   0  0  0  0  0  0  0  0  0  0  0  0
  2  1  1  0
  4  8  1  0
  4 18  1  0
  5  7  1  0
  7 12  1  0
  8  3  1  0
  9  2  2  0
 10 14  1  0
 10 13  1  0
 11 27  2  0
 12 19  1  0
 15 19  1  0
 15 26  1  0
 16 25  1  0
 16  7  2  0
 18  6  1  0
 21  6  2  0
 22 33  1  0
 22 34  2  0
 23  2  1  0
 24 31  1  0
 25 28  1  0
 25 29  1  0
 26 23  1  0
 27 13  1  0
 27  3  1  0
 29 35  1  0
 29 15  1  0
 30 17  1  0
 30 20  1  0
 31 10  1  0
 32 20  2  0
 33 30  2  0
 34 32  1  0
  4 36  1  0
  4 37  1  0
  6 38  1  0
  8 39  1  0
  8 40  1  0
 10 41  1  6
 12 42  1  0
 12 43  1  0
 14 44  1  0
 14 45  1  0
 14 46  1  0
 15 47  1  6
 16 48  1  0
 17 49  1  0
 19 50  1  0
 19 51  1  0
 20 52  1  0
 22 53  1  0
 23 54  1  0
 23 55  1  0
 24 56  1  0
 25 57  1  6
 26 58  1  0
 26 59  1  0
 28 60  1  0
 29 61  1  1
 31 62  1  0
 31 63  1  0
 32 64  1  0
 33 65  1  0
 34 66  1  0
 35 67  1  0
 35 68  1  0
 35 69  1  0
M  CHG  1   1  -1
M  END
>  <mol_id>  (36) 
2026-09-16-6tgu-s0-n100-0036

>  <rmsd_to_ref>  (36) 


$$$$

     RDKit          3D

 44 45  0  0  0  0  0  0  0  0999 V2000
    2.6759   17.9729   38.1415 C   0  0  1  0  0  0  0  0  0  0  0  0
    1.5388   19.5707   39.5742 C   0  0  0  0  0  0  0  0  0  0  0  0
    1.9634   16.0842   38.7681 C   0  0  0  0  0  0  0  0  0  0  0  0
    1.8314   26.0825   32.0514 C   0  0  0  0  0  0  0  0  0  0  0  0
    3.4098   20.9207   34.6768 C   0  0  0  0  0  0  0  0  0  0  0  0
    1.2944   20.6857   38.7245 C   0  0  0  0  0  0  0  0  0  0  0  0
    3.4389   15.9523   36.7720 C   0  0  0  0  0  0  0  0  0  0  0  0
    3.0700   18.8818   37.1003 N   0  0  0  0  0  0  0  0  0  0  0  0
    1.5038   26.0728   33.3756 C   0  0  0  0  0  0  0  0  0  0  0  0
    2.7397   20.1086   36.8268 C   0  0  0  0  0  0  0  0  0  0  0  0
    3.2229   16.7356   38.0621 C   0  0  1  0  0  0  0  0  0  0  0  0
    3.1895   25.8429   29.8769 C   0  0  0  0  0  0  0  0  0  0  0  0
    1.0157   27.1920   34.0419 C   0  0  0  0  0  0  0  0  0  0  0  0
    1.8028   20.7950   37.5461 C   0  0  0  0  0  0  0  0  0  0  0  0
    1.6077   24.8722   34.3542 C   0  0  0  0  0  0  0  0  0  0  0  0
    1.8510   25.6183   30.7091 C   0  0  0  0  0  0  0  0  0  0  0  0
    2.1676   18.4617   39.2195 C   0  0  1  0  0  0  0  0  0  0  0  0
    3.7025   20.7421   36.0195 N   0  0  0  0  0  0  0  0  0  0  0  0
    1.7190   17.0172   39.9688 S   0  0  0  0  0  0  0  0  0  0  0  0
    2.3292   23.3213   34.7150 C   0  0  0  0  0  0  0  0  0  0  0  0
    1.4147   14.7624   38.0268 O   0  0  0  0  0  0  0  0  0  0  0  0
    3.4938   22.2965   33.7403 S   0  0  0  0  0  0  0  0  0  0  0  0
    1.6536   17.6164   37.9474 H   0  0  0  0  0  0  0  0  0  0  0  0
    2.1111   19.9714   40.4239 H   0  0  0  0  0  0  0  0  0  0  0  0
    0.5149   19.1856   39.6894 H   0  0  0  0  0  0  0  0  0  0  0  0
    4.0645   20.2032   34.1606 H   0  0  0  0  0  0  0  0  0  0  0  0
    2.3141   20.8640   34.7565 H   0  0  0  0  0  0  0  0  0  0  0  0
    0.6411   21.4913   39.0909 H   0  0  0  0  0  0  0  0  0  0  0  0
    3.5652   14.8853   37.0077 H   0  0  0  0  0  0  0  0  0  0  0  0
    2.5670   16.0818   36.1141 H   0  0  0  0  0  0  0  0  0  0  0  0
    4.3405   16.3248   36.2635 H   0  0  0  0  0  0  0  0  0  0  0  0
    4.2695   16.7475   38.4005 H   0  0  0  0  0  0  0  0  0  0  0  0
    4.0381   25.9482   30.5689 H   0  0  0  0  0  0  0  0  0  0  0  0
    3.3598   24.9798   29.2165 H   0  0  0  0  0  0  0  0  0  0  0  0
    3.0953   26.7558   29.2705 H   0  0  0  0  0  0  0  0  0  0  0  0
    0.9893   26.9923   35.1234 H   0  0  0  0  0  0  0  0  0  0  0  0
    1.6722   28.0520   33.8437 H   0  0  0  0  0  0  0  0  0  0  0  0
   -0.0005   27.4166   33.6857 H   0  0  0  0  0  0  0  0  0  0  0  0
    1.3825   21.6430   36.9855 H   0  0  0  0  0  0  0  0  0  0  0  0
    0.9269   25.0961   35.1888 H   0  0  0  0  0  0  0  0  0  0  0  0
    0.9762   25.1232   30.2624 H   0  0  0  0  0  0  0  0  0  0  0  0
    2.8712   19.2684   39.4731 H   0  0  0  0  0  0  0  0  0  0  0  0
    4.5978   21.0634   36.4146 H   0  0  0  0  0  0  0  0  0  0  0  0
    2.0365   22.8910   35.6841 H   0  0  0  0  0  0  0  0  0  0  0  0
  1  8  1  0
  1 17  1  0
  3 19  1  0
  4  9  2  0
  5 18  1  0
  6  2  1  0
  9 13  1  0
  9 15  1  0
 10  8  2  0
 10 14  1  0
 11  7  1  0
 11  1  1  0
 11  3  1  0
 12 16  1  0
 14  6  2  0
 15 20  2  3
 16  4  2  0
 17  2  1  0
 17 19  1  0
 18 10  1  0
 21  3  2  0
 22  5  1  0
 22 20  1  0
  1 23  1  6
  2 24  1  0
  2 25  1  0
  5 26  1  0
  5 27  1  0
  6 28  1  0
  7 29  1  0
  7 30  1  0
  7 31  1  0
 11 32  1  1
 12 33  1  0
 12 34  1  0
 12 35  1  0
 13 36  1  0
 13 37  1  0
 13 38  1  0
 14 39  1  0
 15 40  1  0
 16 41  1  0
 17 42  1  1
 18 43  1  0
 20 44  1  0
M  END
>  <mol_id>  (37) 
2026-09-16-6tgu-s0-n100-0037

>  <rmsd_to_ref>  (37) 


$$$$

     RDKit          3D

 37 38  0  0  0  0  0  0  0  0999 V2000
    2.1294   24.5798   29.7209 C   0  0  0  0  0  0  0  0  0  0  0  0
    1.0219   18.7357   41.6009 Cl  0  0  0  0  0  0  0  0  0  0  0  0
    3.0086   21.9100   33.9158 C   0  0  0  0  0  0  0  0  0  0  0  0
    2.1627   19.7044   39.3284 C   0  0  0  0  0  0  0  0  0  0  0  0
    2.9666   19.7726   36.7813 C   0  0  1  0  0  0  0  0  0  0  0  0
    1.5661   18.5266   39.9891 C   0  0  0  0  0  0  0  0  0  0  0  0
    2.7342   19.3795   37.9450 C   0  0  0  0  0  0  0  0  0  0  0  0
    2.6026   24.1266   32.5944 C   0  0  0  0  0  0  0  0  0  0  0  0
    1.9012   22.4827   34.6978 O   0  0  0  0  0  0  0  0  0  0  0  0
    1.6222   16.1627   37.3147 O   0  0  0  0  0  0  0  0  0  0  0  0
    2.9716   23.4526   29.0555 C   0  0  0  0  0  0  0  0  0  0  0  0
    3.1419   24.9212   31.0444 S   0  0  1  0  0  4  0  0  0  0  0  0
    3.7461   21.1118   34.1571 O   0  0  0  0  0  0  0  0  0  0  0  0
    4.6310   22.4007   32.5455 O   0  0  0  0  0  0  0  0  0  0  0  0
    4.4560   23.5656   30.2592 S   0  0  0  0  0  0  0  0  0  0  0  0
    2.4710   18.2861   37.3316 C   0  0  0  0  0  0  0  0  0  0  0  0
    1.8290   17.2633   37.9702 C   0  0  0  0  0  0  0  0  0  0  0  0
    1.1257   16.2296   39.8790 O   0  0  0  0  0  0  0  0  0  0  0  0
    0.9726   15.1239   37.7612 N   0  0  0  0  0  0  0  0  0  0  0  0
    3.2849   22.8768   32.7522 C   0  0  1  0  0  0  0  0  0  0  0  0
    1.5550   17.2767   39.2762 C   0  0  0  0  0  0  0  0  0  0  0  0
    2.3894   20.8888   36.4647 O   0  0  0  0  0  0  0  0  0  0  0  0
    1.1396   24.2215   30.0402 H   0  0  0  0  0  0  0  0  0  0  0  0
    1.8906   25.4368   29.0741 H   0  0  0  0  0  0  0  0  0  0  0  0
    2.1935   20.7067   39.7806 H   0  0  0  0  0  0  0  0  0  0  0  0
    3.6859   20.0420   35.9938 H   0  0  0  0  0  0  0  0  0  0  0  0
    1.5175   23.9500   32.5579 H   0  0  0  0  0  0  0  0  0  0  0  0
    2.8385   24.7833   33.4448 H   0  0  0  0  0  0  0  0  0  0  0  0
    2.4717   22.4733   29.0894 H   0  0  0  0  0  0  0  0  0  0  0  0
    3.1891   23.5582   27.9823 H   0  0  0  0  0  0  0  0  0  0  0  0
    3.3921   26.2309   31.3588 H   0  0  0  0  0  0  0  0  0  0  0  0
    5.0740   22.2728   33.4216 H   0  0  0  0  0  0  0  0  0  0  0  0
    0.9288   16.2623   40.8487 H   0  0  0  0  0  0  0  0  0  0  0  0
    1.0414   15.0914   38.7884 H   0  0  0  0  0  0  0  0  0  0  0  0
   -0.0174   15.1935   37.4854 H   0  0  0  0  0  0  0  0  0  0  0  0
    2.7603   23.0403   31.7993 H   0  0  0  0  0  0  0  0  0  0  0  0
    2.2051   21.4096   37.2862 H   0  0  0  0  0  0  0  0  0  0  0  0
  1 12  1  0
  3 13  2  0
  3  9  1  0
  4  6  2  0
  5 22  1  0
  5 16  1  0
  5  7  1  0
  6  2  1  0
  7  4  1  0
  8 20  1  0
 10 19  1  0
 10 17  1  0
 11  1  1  0
 11 15  1  0
 12  8  1  0
 15 12  1  0
 16 17  1  0
 16  7  2  0
 17 21  2  0
 20 14  1  0
 20  3  1  0
 21 18  1  0
 21  6  1  0
  1 23  1  0
  1 24  1  0
  4 25  1  0
  5 26  1  1
  8 27  1  0
  8 28  1  0
 11 29  1  0
 11 30  1  0
 12 31  1  1
 14 32  1  0
 18 33  1  0
 19 34  1  0
 19 35  1  0
 20 36  1  6
 22 37  1  0
M  CHG  1   9  -1
M  END
>  <mol_id>  (38) 
2026-09-16-6tgu-s0-n100-0038

>  <rmsd_to_ref>  (38) 


$$$$

     RDKit          3D

 54 57  0  0  0  0  0  0  0  0999 V2000
    2.9140   25.7686   30.1900 C   0  0  0  0  0  0  0  0  0  0  0  0
    3.0489   16.0494   37.4172 S   0  0  0  0  0  0  0  0  0  0  0  0
    1.9273   19.0505   39.9415 C   0  0  0  0  0  0  0  0  0  0  0  0
    2.1884   17.7361   39.3718 N   0  0  0  0  0  0  0  0  0  0  0  0
    1.9004   28.0385   30.2668 C   0  0  0  0  0  0  0  0  0  0  0  0
   -0.0611   19.4589   43.0649 C   0  0  0  0  0  0  0  0  0  0  0  0
    2.6805   21.9968   36.2977 C   0  0  0  0  0  0  0  0  0  0  0  0
   -0.0526   20.8457   43.1253 C   0  0  0  0  0  0  0  0  0  0  0  0
    0.3875   16.0594   39.8694 C   0  0  0  0  0  0  0  0  0  0  0  0
    0.5554   21.5637   42.1929 C   0  0  0  0  0  0  0  0  0  0  0  0
    3.5655   24.4428   29.4784 C   0  0  0  0  0  0  0  0  0  0  0  0
    1.2842   19.5060   41.0930 C   0  0  0  0  0  0  0  0  0  0  0  0
    1.4539   28.8267   30.9502 C   0  0  0  0  0  0  0  0  0  0  0  0
    3.6085   23.3952   32.6317 C   0  0  0  0  0  0  0  0  0  0  0  0
    2.9532   18.5767   37.2113 N   0  0  0  0  0  0  0  0  0  0  0  0
    2.4903   22.5532   34.8288 C   0  0  1  0  0  0  0  0  0  0  0  0
    1.9735   21.4905   39.7958 S   0  0  0  0  0  0  0  0  0  0  0  0
    2.7117   17.5459   38.0593 C   0  0  0  0  0  0  0  0  0  0  0  0
    3.5639   23.8232   31.5714 C   0  0  0  0  0  0  0  0  0  0  0  0
    1.8131   16.4348   40.0161 C   0  0  0  0  0  0  0  0  0  0  0  0
    3.2339   23.1069   33.9267 C   0  0  1  0  0  0  0  0  0  0  0  0
    3.4945   22.0601   34.8563 C   0  0  0  0  0  0  0  0  0  0  0  0
    2.5897   27.0908   29.3816 C   0  0  0  0  0  0  0  0  0  0  0  0
    0.6780   18.7253   42.1344 C   0  0  0  0  0  0  0  0  0  0  0  0
    3.6469   24.6570   30.6048 C   0  0  2  0  0  0  0  0  0  0  0  0
    3.4030   20.9102   36.9235 N   0  0  0  0  0  0  0  0  0  0  0  0
    1.2386   20.8862   41.2102 C   0  0  0  0  0  0  0  0  0  0  0  0
    2.3453   20.0549   39.1148 C   0  0  0  0  0  0  0  0  0  0  0  0
    2.8978   19.8151   37.7314 C   0  0  0  0  0  0  0  0  0  0  0  0
    2.0124   25.2156   29.8879 H   0  0  0  0  0  0  0  0  0  0  0  0
    3.5686   26.3785   30.8300 H   0  0  0  0  0  0  0  0  0  0  0  0
   -0.6823   18.9093   43.7874 H   0  0  0  0  0  0  0  0  0  0  0  0
    1.6443   21.8019   36.6115 H   0  0  0  0  0  0  0  0  0  0  0  0
    3.4240   22.7582   36.5761 H   0  0  0  0  0  0  0  0  0  0  0  0
   -0.5577   21.3554   43.9590 H   0  0  0  0  0  0  0  0  0  0  0  0
   -0.0452   15.8677   40.8625 H   0  0  0  0  0  0  0  0  0  0  0  0
   -0.1597   16.8804   39.3832 H   0  0  0  0  0  0  0  0  0  0  0  0
    0.3090   15.1513   39.2537 H   0  0  0  0  0  0  0  0  0  0  0  0
    0.5154   22.6629   42.2043 H   0  0  0  0  0  0  0  0  0  0  0  0
    3.9158   23.4204   29.2733 H   0  0  0  0  0  0  0  0  0  0  0  0
    2.5168   24.5416   29.1612 H   0  0  0  0  0  0  0  0  0  0  0  0
    4.1858   25.1614   28.9227 H   0  0  0  0  0  0  0  0  0  0  0  0
    1.0210   29.5907   31.6127 H   0  0  0  0  0  0  0  0  0  0  0  0
    1.4308   22.7956   34.6588 H   0  0  0  0  0  0  0  0  0  0  0  0
    2.4248   15.6399   39.5644 H   0  0  0  0  0  0  0  0  0  0  0  0
    1.9920   16.5591   41.0943 H   0  0  0  0  0  0  0  0  0  0  0  0
    3.3602   24.1105   33.4946 H   0  0  0  0  0  0  0  0  0  0  0  0
    4.1705   22.2341   35.7065 H   0  0  0  0  0  0  0  0  0  0  0  0
    3.8563   21.0240   34.7821 H   0  0  0  0  0  0  0  0  0  0  0  0
    1.9429   26.8495   28.5252 H   0  0  0  0  0  0  0  0  0  0  0  0
    3.5245   27.5394   29.0144 H   0  0  0  0  0  0  0  0  0  0  0  0
    0.7876   17.6324   42.1947 H   0  0  0  0  0  0  0  0  0  0  0  0
    4.5094   24.7106   31.2854 H   0  0  0  0  0  0  0  0  0  0  0  0
    4.4221   20.9146   36.7743 H   0  0  0  0  0  0  0  0  0  0  0  0
  1 25  1  0
  2 18  2  0
  3 12  1  0
  4  3  1  0
  4 20  1  0
  5 13  3  0
  6  8  2  0
  7 26  1  0
  9 20  1  0
 10  8  1  0
 12 27  1  0
 12 24  2  0
 15 29  2  0
 15 18  1  0
 16 22  1  0
 16  7  1  0
 17 27  1  0
 18  4  1  0
 19 14  3  0
 21 14  1  0
 21 16  1  0
 21 22  1  0
 23  5  1  0
 23  1  1  0
 24  6  1  0
 25 11  1  0
 25 19  1  0
 26 29  1  0
 27 10  2  0
 28 17  1  0
 28  3  2  0
 29 28  1  0
  1 30  1  0
  1 31  1  0
  6 32  1  0
  7 33  1  0
  7 34  1  0
  8 35  1  0
  9 36  1  0
  9 37  1  0
  9 38  1  0
 10 39  1  0
 11 40  1  0
 11 41  1  0
 11 42  1  0
 13 43  1  0
 16 44  1  6
 20 45  1  0
 20 46  1  0
 21 47  1  1
 22 48  1  0
 22 49  1  0
 23 50  1  0
 23 51  1  0
 24 52  1  0
 25 53  1  6
 26 54  1  0
M  END
>  <mol_id>  (39) 
2026-09-16-6tgu-s0-n100-0039

>  <rmsd_to_ref>  (39) 


$$$$

     RDKit          3D

 80 83  0  0  0  0  0  0  0  0999 V2000
    2.2444   28.4775   32.6335 C   0  0  0  0  0  0  0  0  0  0  0  0
    4.4712   22.9047   32.6433 C   0  0  2  0  0  0  0  0  0  0  0  0
    3.4849   14.6155   35.6292 C   0  0  0  0  0  0  0  0  0  0  0  0
    1.6891   17.3494   39.7645 C   0  0  0  0  0  0  0  0  0  0  0  0
    2.7823   19.1117   37.4329 C   0  0  0  0  0  0  0  0  0  0  0  0
    1.5924   14.9133   39.1830 C   0  0  0  0  0  0  0  0  0  0  0  0
    1.9071   15.8855   37.1796 C   0  0  0  0  0  0  0  0  0  0  0  0
    1.3280   15.1658   40.9824 S   0  0  0  0  0  0  0  0  0  0  0  0
    1.2767   13.9156   35.7830 C   0  0  0  0  0  0  0  0  0  0  0  0
    3.6883   21.9146   33.5027 C   0  0  0  0  0  0  0  0  0  0  0  0
    5.1454   24.0388   32.0633 C   0  0  0  0  0  0  0  0  0  0  0  0
    1.9356   23.4518   33.0506 C   0  0  0  0  0  0  0  0  0  0  0  0
    0.6327   19.0957   41.8063 C   0  0  0  0  0  0  0  0  0  0  0  0
    4.1759   24.4085   32.8475 C   0  0  1  0  0  0  0  0  0  0  0  0
    2.5045   19.2899   38.7100 N   0  0  0  0  0  0  0  0  0  0  0  0
    3.4915   25.7274   30.4568 C   0  0  2  0  0  0  0  0  0  0  0  0
    2.3617   14.5381   36.6660 C   0  0  0  0  0  0  0  0  0  0  0  0
    1.3485   19.6129   40.6977 C   0  0  0  0  0  0  0  0  0  0  0  0
    1.9865   27.3318   32.2855 C   0  0  0  0  0  0  0  0  0  0  0  0
    4.5188   26.5201   30.8405 O   0  0  0  0  0  0  0  0  0  0  0  0
    1.9958   16.1270   38.7366 C   0  0  1  0  0  0  0  0  0  0  0  0
   -0.0596   17.2041   42.8975 N   0  0  0  0  0  0  0  0  0  0  0  0
    0.5555   17.6928   41.9305 C   0  0  0  0  0  0  0  0  0  0  0  0
    0.9533   25.6869   30.7126 S   0  0  0  0  0  0  0  0  0  0  0  0
    1.9381   13.2958   34.7508 O   0  0  0  0  0  0  0  0  0  0  0  0
    2.6449   22.7639   34.1037 C   0  0  0  0  0  0  0  0  0  0  0  0
    1.7109   27.2011   30.8885 C   0  0  1  0  0  0  0  0  0  0  0  0
    2.7778   24.5053   32.5042 N   0  0  0  0  0  0  0  0  0  0  0  0
    1.8662   18.8350   39.6918 C   0  0  0  0  0  0  0  0  0  0  0  0
    2.4600   24.8982   31.0984 C   0  0  2  0  0  0  0  0  0  0  0  0
    2.1788   20.3914   38.0493 C   0  0  0  0  0  0  0  0  0  0  0  0
    1.2066   16.8714   40.9095 C   0  0  0  0  0  0  0  0  0  0  0  0
    1.9096   28.3005   30.0188 C   0  0  0  0  0  0  0  0  0  0  0  0
    4.1903   24.8642   29.2880 C   0  0  0  0  0  0  0  0  0  0  0  0
    4.5609   15.5933   35.8832 O   0  0  0  0  0  0  0  0  0  0  0  0
    2.4024   28.5034   33.7219 H   0  0  0  0  0  0  0  0  0  0  0  0
    3.1565   28.8194   32.1224 H   0  0  0  0  0  0  0  0  0  0  0  0
    1.4061   29.1386   32.3689 H   0  0  0  0  0  0  0  0  0  0  0  0
    5.4006   22.6138   33.1547 H   0  0  0  0  0  0  0  0  0  0  0  0
    3.0272   14.8686   34.6615 H   0  0  0  0  0  0  0  0  0  0  0  0
    3.9765   13.6320   35.6646 H   0  0  0  0  0  0  0  0  0  0  0  0
    2.1707   18.4423   36.8101 H   0  0  0  0  0  0  0  0  0  0  0  0
    3.6592   18.8422   36.8259 H   0  0  0  0  0  0  0  0  0  0  0  0
    2.3679   14.1538   39.0048 H   0  0  0  0  0  0  0  0  0  0  0  0
    0.6891   14.5525   38.6693 H   0  0  0  0  0  0  0  0  0  0  0  0
    2.5242   16.6527   36.6893 H   0  0  0  0  0  0  0  0  0  0  0  0
    0.8335   15.9329   36.9444 H   0  0  0  0  0  0  0  0  0  0  0  0
    0.6911   13.1823   36.3567 H   0  0  0  0  0  0  0  0  0  0  0  0
    0.5737   14.6760   35.4121 H   0  0  0  0  0  0  0  0  0  0  0  0
    3.2457   21.1180   32.8868 H   0  0  0  0  0  0  0  0  0  0  0  0
    4.3101   21.3941   34.2460 H   0  0  0  0  0  0  0  0  0  0  0  0
    6.1800   24.2492   32.3721 H   0  0  0  0  0  0  0  0  0  0  0  0
    5.3674   24.2924   31.0162 H   0  0  0  0  0  0  0  0  0  0  0  0
    1.6793   22.7376   32.2543 H   0  0  0  0  0  0  0  0  0  0  0  0
    1.0144   23.8940   33.4581 H   0  0  0  0  0  0  0  0  0  0  0  0
    0.1564   19.7619   42.5406 H   0  0  0  0  0  0  0  0  0  0  0  0
    4.1991   25.2598   33.5438 H   0  0  0  0  0  0  0  0  0  0  0  0
    2.7308   26.5220   30.4646 H   0  0  0  0  0  0  0  0  0  0  0  0
    2.6384   14.0003   37.5848 H   0  0  0  0  0  0  0  0  0  0  0  0
    1.4979   20.7012   40.6398 H   0  0  0  0  0  0  0  0  0  0  0  0
    2.8476   26.6927   32.5304 H   0  0  0  0  0  0  0  0  0  0  0  0
    1.0738   27.0320   32.8214 H   0  0  0  0  0  0  0  0  0  0  0  0
    4.6860   26.3980   31.8085 H   0  0  0  0  0  0  0  0  0  0  0  0
    2.9596   16.6554   38.7810 H   0  0  0  0  0  0  0  0  0  0  0  0
   -0.1252   16.1816   43.0026 H   0  0  0  0  0  0  0  0  0  0  0  0
   -0.5026   17.8226   43.5919 H   0  0  0  0  0  0  0  0  0  0  0  0
    2.5600   12.6182   35.1170 H   0  0  0  0  0  0  0  0  0  0  0  0
    1.9427   22.1380   34.6739 H   0  0  0  0  0  0  0  0  0  0  0  0
    3.1066   23.4969   34.7816 H   0  0  0  0  0  0  0  0  0  0  0  0
    2.1457   27.2847   29.8816 H   0  0  0  0  0  0  0  0  0  0  0  0
    2.3917   23.8708   30.7114 H   0  0  0  0  0  0  0  0  0  0  0  0
    2.7782   21.3084   38.1483 H   0  0  0  0  0  0  0  0  0  0  0  0
    1.2852   21.0167   37.9062 H   0  0  0  0  0  0  0  0  0  0  0  0
    2.2727   29.1636   30.5960 H   0  0  0  0  0  0  0  0  0  0  0  0
    2.6526   28.0327   29.2532 H   0  0  0  0  0  0  0  0  0  0  0  0
    0.9580   28.5593   29.5317 H   0  0  0  0  0  0  0  0  0  0  0  0
    4.7914   24.0593   29.7361 H   0  0  0  0  0  0  0  0  0  0  0  0
    3.4151   24.4266   28.6418 H   0  0  0  0  0  0  0  0  0  0  0  0
    4.8413   25.5177   28.6888 H   0  0  0  0  0  0  0  0  0  0  0  0
    4.8138   15.5646   36.8399 H   0  0  0  0  0  0  0  0  0  0  0  0
  2 11  1  0
  2 10  1  0
  3 35  1  0
  3 17  1  0
  4 32  1  0
  5 31  1  0
  5 15  1  0
  6  8  1  0
  9 17  1  0
 10 26  1  0
 12 26  1  0
 13 23  1  0
 14 11  1  0
 14  2  1  0
 15 29  1  0
 16 34  1  0
 16 20  1  0
 16 30  1  0
 17  7  1  0
 18 13  2  0
 19  1  1  0
 21  7  1  0
 21  6  1  0
 21  4  1  0
 23 22  1  0
 25  9  1  0
 27 33  1  0
 27 24  1  0
 27 19  1  0
 28 14  1  0
 28 12  1  0
 29  4  2  0
 29 18  1  0
 30 24  1  0
 30 28  1  0
 31 15  1  0
 32  8  1  0
 32 23  2  0
  1 36  1  0
  1 37  1  0
  1 38  1  0
  2 39  1  6
  3 40  1  0
  3 41  1  0
  5 42  1  0
  5 43  1  0
  6 44  1  0
  6 45  1  0
  7 46  1  0
  7 47  1  0
  9 48  1  0
  9 49  1  0
 10 50  1  0
 10 51  1  0
 11 52  1  0
 11 53  1  0
 12 54  1  0
 12 55  1  0
 13 56  1  0
 14 57  1  1
 16 58  1  6
 17 59  1  0
 18 60  1  0
 19 61  1  0
 19 62  1  0
 20 63  1  0
 21 64  1  6
 22 65  1  0
 22 66  1  0
 25 67  1  0
 26 68  1  0
 26 69  1  0
 27 70  1  6
 30 71  1  6
 31 72  1  0
 31 73  1  0
 33 74  1  0
 33 75  1  0
 33 76  1  0
 34 77  1  0
 34 78  1  0
 34 79  1  0
 35 80  1  0
M  END
>  <mol_id>  (40) 
2026-09-16-6tgu-s0-n100-0040

>  <rmsd_to_ref>  (40) 


$$$$

     RDKit          3D

 80 84  0  0  0  0  0  0  0  0999 V2000
    2.5451   25.8700   30.6194 C   0  0  2  0  0  0  0  0  0  0  0  0
    2.4509   26.5098   31.8930 C   0  0  0  0  0  0  0  0  0  0  0  0
    1.0696   16.1003   43.3712 C   0  0  0  0  0  0  0  0  0  0  0  0
    2.9820   23.9424   28.5145 C   0  0  0  0  0  0  0  0  0  0  0  0
    3.6814   21.6115   34.2927 C   0  0  0  0  0  0  0  0  0  0  0  0
    1.7932   21.8745   41.4567 C   0  0  0  0  0  0  0  0  0  0  0  0
    1.1088   17.8658   41.4466 N   0  0  0  0  0  0  0  0  0  0  0  0
    1.8071   14.9996   42.4964 C   0  0  0  0  0  0  0  0  0  0  0  0
    1.9899   18.5398   38.3584 O   0  0  0  0  0  0  0  0  0  0  0  0
    1.5648   24.0382   28.9216 C   0  0  0  0  0  0  0  0  0  0  0  0
    4.2497   23.8797   33.2224 C   0  0  1  0  0  0  0  0  0  0  0  0
    1.3194   25.3420   29.6035 C   0  0  0  0  0  0  0  0  0  0  0  0
    0.7845   22.0067   42.4408 C   0  0  0  0  0  0  0  0  0  0  0  0
    2.0337   22.0993   35.8883 O   0  0  0  0  0  0  0  0  0  0  0  0
    2.5529   20.0869   39.8862 O   0  0  0  0  0  0  0  0  0  0  0  0
    2.8831   27.7669   31.2051 C   0  0  0  0  0  0  0  0  0  0  0  0
    1.9442   17.2127   40.5271 C   0  0  0  0  0  0  0  0  0  0  0  0
    3.5161   23.8822   34.6378 C   0  0  0  0  0  0  0  0  0  0  0  0
   -0.1044   21.0338   43.0196 C   0  0  0  0  0  0  0  0  0  0  0  0
    4.5980   24.4558   31.8498 C   0  0  1  0  0  0  0  0  0  0  0  0
    0.9692   19.3576   41.6219 C   0  0  0  0  0  0  0  0  0  0  0  0
    2.8414   19.6576   38.8503 C   0  0  0  0  0  0  0  0  0  0  0  0
    4.2022   22.9541   34.1999 N   0  0  0  0  0  0  0  0  0  0  0  0
    1.5025   20.5458   40.8729 C   0  0  1  0  0  0  0  0  0  0  0  0
    3.3306   16.1554   38.5396 C   0  0  0  0  0  0  0  0  0  0  0  0
    2.2037   17.2142   39.0471 C   0  0  2  0  0  0  0  0  0  0  0  0
    0.4558   17.1051   42.5093 O   0  0  0  0  0  0  0  0  0  0  0  0
    0.0326   19.6382   42.5852 C   0  0  0  0  0  0  0  0  0  0  0  0
    1.6651   28.1971   30.3982 C   0  0  0  0  0  0  0  0  0  0  0  0
    3.8842   23.8208   29.6562 C   0  0  0  0  0  0  0  0  0  0  0  0
    3.2803   21.5146   35.7260 C   0  0  0  0  0  0  0  0  0  0  0  0
   -0.0833   15.2979   44.0463 C   0  0  0  0  0  0  0  0  0  0  0  0
    3.2014   23.8967   32.0363 C   0  0  2  0  0  0  0  0  0  0  0  0
    3.6649   24.7475   30.8277 C   0  0  2  0  0  0  0  0  0  0  0  0
    2.6945   26.7495   29.9759 H   0  0  0  0  0  0  0  0  0  0  0  0
    1.4369   26.5425   32.3182 H   0  0  0  0  0  0  0  0  0  0  0  0
    2.9724   26.1219   32.7804 H   0  0  0  0  0  0  0  0  0  0  0  0
    1.7525   16.6103   44.0666 H   0  0  0  0  0  0  0  0  0  0  0  0
    3.1055   23.0585   27.8715 H   0  0  0  0  0  0  0  0  0  0  0  0
    3.2403   24.8693   27.9813 H   0  0  0  0  0  0  0  0  0  0  0  0
    2.8154   21.4750   33.6283 H   0  0  0  0  0  0  0  0  0  0  0  0
    4.4045   20.8404   33.9884 H   0  0  0  0  0  0  0  0  0  0  0  0
    1.7144   22.6673   40.6983 H   0  0  0  0  0  0  0  0  0  0  0  0
    2.8126   21.9613   41.8608 H   0  0  0  0  0  0  0  0  0  0  0  0
    2.4251   14.3658   43.1493 H   0  0  0  0  0  0  0  0  0  0  0  0
    1.0592   14.3777   41.9828 H   0  0  0  0  0  0  0  0  0  0  0  0
    2.4481   15.4929   41.7507 H   0  0  0  0  0  0  0  0  0  0  0  0
    0.9238   23.9664   28.0306 H   0  0  0  0  0  0  0  0  0  0  0  0
    1.3309   23.2171   29.6152 H   0  0  0  0  0  0  0  0  0  0  0  0
    1.1700   26.1071   28.8273 H   0  0  0  0  0  0  0  0  0  0  0  0
    0.4416   25.1845   30.2474 H   0  0  0  0  0  0  0  0  0  0  0  0
    0.6581   23.0279   42.8297 H   0  0  0  0  0  0  0  0  0  0  0  0
    1.8844   22.2975   36.8467 H   0  0  0  0  0  0  0  0  0  0  0  0
    3.1552   28.5387   31.9401 H   0  0  0  0  0  0  0  0  0  0  0  0
    3.7710   27.6146   30.5739 H   0  0  0  0  0  0  0  0  0  0  0  0
    2.9426   17.4356   40.9314 H   0  0  0  0  0  0  0  0  0  0  0  0
    1.2991   16.3231   40.4769 H   0  0  0  0  0  0  0  0  0  0  0  0
    3.8825   24.5136   35.4607 H   0  0  0  0  0  0  0  0  0  0  0  0
    2.4913   24.0185   35.0135 H   0  0  0  0  0  0  0  0  0  0  0  0
   -0.8610   21.3262   43.7626 H   0  0  0  0  0  0  0  0  0  0  0  0
    5.6392   24.7662   31.6781 H   0  0  0  0  0  0  0  0  0  0  0  0
    3.8772   19.2926   38.9116 H   0  0  0  0  0  0  0  0  0  0  0  0
    2.7021   20.4805   38.1337 H   0  0  0  0  0  0  0  0  0  0  0  0
    0.5508   20.8949   40.4458 H   0  0  0  0  0  0  0  0  0  0  0  0
    3.9154   15.8011   39.4013 H   0  0  0  0  0  0  0  0  0  0  0  0
    2.8379   15.3000   38.0542 H   0  0  0  0  0  0  0  0  0  0  0  0
    4.0002   16.6494   37.8202 H   0  0  0  0  0  0  0  0  0  0  0  0
    1.3573   16.7062   38.5618 H   0  0  0  0  0  0  0  0  0  0  0  0
   -0.5943   18.8441   43.0171 H   0  0  0  0  0  0  0  0  0  0  0  0
    0.9095   28.6237   31.0742 H   0  0  0  0  0  0  0  0  0  0  0  0
    1.9642   28.9540   29.6581 H   0  0  0  0  0  0  0  0  0  0  0  0
    1.2420   27.3242   29.8794 H   0  0  0  0  0  0  0  0  0  0  0  0
    3.8004   22.7906   30.0324 H   0  0  0  0  0  0  0  0  0  0  0  0
    4.8712   24.1025   29.2608 H   0  0  0  0  0  0  0  0  0  0  0  0
    3.2330   20.4570   36.0247 H   0  0  0  0  0  0  0  0  0  0  0  0
    4.0186   22.0352   36.3537 H   0  0  0  0  0  0  0  0  0  0  0  0
   -0.0028   15.3897   45.1395 H   0  0  0  0  0  0  0  0  0  0  0  0
   -1.0524   15.6993   43.7149 H   0  0  0  0  0  0  0  0  0  0  0  0
   -0.0085   14.2382   43.7608 H   0  0  0  0  0  0  0  0  0  0  0  0
    2.2132   23.4205   32.1172 H   0  0  0  0  0  0  0  0  0  0  0  0
  1 34  1  0
  1  2  1  0
  3 32  1  0
  4 10  1  0
  4 30  1  0
  5 23  1  0
  5 31  1  0
  6 13  1  0
  7 21  1  0
  7 27  1  0
  8  3  1  0
  9 26  1  0
  9 22  1  0
 10 12  1  0
 11 23  1  1
 11 18  1  0
 12  1  1  0
 13 19  2  0
 15 24  1  0
 16  2  1  0
 17  7  1  0
 20 33  1  0
 20 11  1  0
 21 28  2  0
 22 15  1  0
 23 18  1  0
 24 21  1  0
 24  6  1  0
 25 26  1  0
 26 17  1  0
 27  3  1  0
 28 19  1  0
 29 16  1  0
 34 30  1  6
 31 14  1  0
 33 11  1  0
 34 20  1  0
 34 33  1  0
  1 35  1  6
  2 36  1  0
  2 37  1  0
  3 38  1  0
  4 39  1  0
  4 40  1  0
  5 41  1  0
  5 42  1  0
  6 43  1  0
  6 44  1  0
  8 45  1  0
  8 46  1  0
  8 47  1  0
 10 48  1  0
 10 49  1  0
 12 50  1  0
 12 51  1  0
 13 52  1  0
 14 53  1  0
 16 54  1  0
 16 55  1  0
 17 56  1  0
 17 57  1  0
 18 58  1  0
 18 59  1  0
 19 60  1  0
 20 61  1  6
 22 62  1  0
 22 63  1  0
 24 64  1  6
 25 65  1  0
 25 66  1  0
 25 67  1  0
 26 68  1  6
 28 69  1  0
 29 70  1  0
 29 71  1  0
 29 72  1  0
 30 73  1  0
 30 74  1  0
 31 75  1  0
 31 76  1  0
 32 77  1  0
 32 78  1  0
 32 79  1  0
 33 80  1  6
M  END
>  <mol_id>  (41) 
2026-09-16-6tgu-s0-n100-0041

>  <rmsd_to_ref>  (41) 


$$$$

     RDKit          3D

 32 33  0  0  0  0  0  0  0  0999 V2000
    4.1980   22.7790   33.6840 C   0  0  1  0  0  0  0  0  0  0  0  0
    2.7150   21.4080   36.6750 C   0  0  0  0  0  0  0  0  0  0  0  0
    1.5090   21.6620   38.9970 C   0  0  0  0  0  0  0  0  0  0  0  0
    2.3010   22.2330   35.5190 C   0  0  0  0  0  0  0  0  0  0  0  0
    1.8490   21.8510   37.8190 C   0  0  0  0  0  0  0  0  0  0  0  0
    3.5570   17.6010   38.1730 S   0  0  0  0  0  4  0  0  0  0  0  0
    3.9390   23.6850   32.5530 O   0  0  0  0  0  0  0  0  0  0  0  0
    2.3750   24.2870   34.0680 C   0  0  0  0  0  0  0  0  0  0  0  0
    2.8790   16.8350   39.1770 O   0  0  0  0  0  0  0  0  0  0  0  0
    4.4190   16.9170   37.2220 O   0  0  0  0  0  0  0  0  0  0  0  0
    2.8350   19.6840   39.6630 C   0  0  0  0  0  0  0  0  0  0  0  0
    2.1430   20.9240   40.0640 C   0  0  0  0  0  0  0  0  0  0  0  0
    3.2840   19.9100   37.0300 C   0  0  0  0  0  0  0  0  0  0  0  0
    3.2210   19.2120   38.2810 C   0  0  0  0  0  0  0  0  0  0  0  0
    4.6670   24.0940   35.0050 C   0  0  0  0  0  0  0  0  0  0  0  0
    3.2200   23.3680   34.6190 C   0  0  2  0  0  0  0  0  0  0  0  0
    4.5454   21.7865   33.3611 H   0  0  0  0  0  0  0  0  0  0  0  0
    0.5589   22.1400   39.2776 H   0  0  0  0  0  0  0  0  0  0  0  0
    1.9590   21.5031   34.7705 H   0  0  0  0  0  0  0  0  0  0  0  0
    1.6589   22.9451   36.0580 H   0  0  0  0  0  0  0  0  0  0  0  0
    2.1623   22.9032   37.8870 H   0  0  0  0  0  0  0  0  0  0  0  0
    1.0576   21.1650   37.4828 H   0  0  0  0  0  0  0  0  0  0  0  0
    3.6838   24.5776   32.8969 H   0  0  0  0  0  0  0  0  0  0  0  0
    1.8645   24.8422   34.8687 H   0  0  0  0  0  0  0  0  0  0  0  0
    2.9508   24.9877   33.4456 H   0  0  0  0  0  0  0  0  0  0  0  0
    1.6285   23.7719   33.4456 H   0  0  0  0  0  0  0  0  0  0  0  0
    5.0927   16.3824   37.7124 H   0  0  0  0  0  0  0  0  0  0  0  0
    3.1083   19.0080   40.4866 H   0  0  0  0  0  0  0  0  0  0  0  0
    2.1121   21.2646   41.1095 H   0  0  0  0  0  0  0  0  0  0  0  0
    3.7754   19.3742   36.2045 H   0  0  0  0  0  0  0  0  0  0  0  0
    5.2247   23.8289   35.9153 H   0  0  0  0  0  0  0  0  0  0  0  0
    5.1138   25.0969   35.0725 H   0  0  0  0  0  0  0  0  0  0  0  0
  1  7  1  0
  1 16  1  0
  1 15  1  0
  2 13  2  0
  2  5  1  0
  3 12  2  0
  4  2  1  0
  5  3  1  0
  6 10  1  0
  6 14  1  0
  6  9  2  0
 11 12  1  0
 13 14  1  0
 14 11  2  0
 16  8  1  6
 16 15  1  0
 16  4  1  0
  1 17  1  6
  3 18  1  0
  4 19  1  0
  4 20  1  0
  5 21  1  0
  5 22  1  0
  7 23  1  0
  8 24  1  0
  8 25  1  0
  8 26  1  0
 10 27  1  0
 11 28  1  0
 12 29  1  0
 13 30  1  0
 15 31  1  0
 15 32  1  0
M  END
>  <mol_id>  (42) 
2026-09-16-6tgu-s0-n100-0042

>  <rmsd_to_ref>  (42) 


$$$$

     RDKit          3D

 60 60  0  0  0  0  0  0  0  0999 V2000
    0.8532   17.2405   41.8570 N   0  0  0  0  0  0  0  0  0  0  0  0
    2.8204   15.3571   38.1801 C   0  0  0  0  0  0  0  0  0  0  0  0
   -0.5945   19.7993   41.6505 O   0  0  0  0  0  0  0  0  0  0  0  0
    1.0606   26.2615   34.1075 C   0  0  0  0  0  0  0  0  0  0  0  0
    3.1711   16.5794   37.7578 C   0  0  0  0  0  0  0  0  0  0  0  0
    2.2294   19.7130   39.5806 C   0  0  0  0  0  0  0  0  0  0  0  0
    2.6155   13.0810   37.6991 O   0  0  0  0  0  0  0  0  0  0  0  0
    0.6840   21.9968   42.5626 O   0  0  0  0  0  0  0  0  0  0  0  0
    1.0099   27.4525   33.1643 C   0  0  0  0  0  0  0  0  0  0  0  0
    1.4218   17.7395   40.7193 C   0  0  0  0  0  0  0  0  0  0  0  0
    3.8616   14.3321   36.3896 O   0  0  0  0  0  0  0  0  0  0  0  0
    3.1660   14.1711   37.3575 C   0  0  0  0  0  0  0  0  0  0  0  0
    1.7678   25.1981   33.7558 C   0  0  0  0  0  0  0  0  0  0  0  0
    2.1435   15.5426   39.3724 C   0  0  0  0  0  0  0  0  0  0  0  0
    1.2157   21.2830   41.6227 C   0  0  0  0  0  0  0  0  0  0  0  0
    1.0790   27.9769   29.3104 C   0  0  0  0  0  0  0  0  0  0  0  0
    2.3756   26.1667   31.1681 C   0  0  0  0  0  0  0  0  0  0  0  0
    2.7292   17.5757   38.7195 C   0  0  1  0  0  0  0  0  0  0  0  0
    2.0063   16.9443   39.6927 C   0  0  0  0  0  0  0  0  0  0  0  0
    1.3781   19.1485   40.5869 C   0  0  0  0  0  0  0  0  0  0  0  0
    2.0759   24.2701   34.6527 C   0  0  0  0  0  0  0  0  0  0  0  0
    0.5668   20.0164   41.3768 C   0  0  0  0  0  0  0  0  0  0  0  0
    0.7056   28.0431   30.7874 C   0  0  0  0  0  0  0  0  0  0  0  0
    2.8953   18.9659   38.7258 C   0  0  0  0  0  0  0  0  0  0  0  0
    0.7039   15.8638   42.2434 C   0  0  0  0  0  0  0  0  0  0  0  0
    3.1821   24.3981   35.2238 O   0  0  0  0  0  0  0  0  0  0  0  0
    1.9787   26.9912   28.8237 C   0  0  0  0  0  0  0  0  0  0  0  0
    3.8574   21.7309   34.3059 C   0  0  0  0  0  0  0  0  0  0  0  0
    1.3340   23.2725   34.6549 O   0  0  0  0  0  0  0  0  0  0  0  0
    3.6218   21.7854   35.7602 C   0  0  0  0  0  0  0  0  0  0  0  0
    2.6490   26.0898   29.7749 C   0  0  0  0  0  0  0  0  0  0  0  0
    1.4451   27.2109   31.7534 C   0  0  0  0  0  0  0  0  0  0  0  0
   -0.1060   17.6158   41.8548 H   0  0  0  0  0  0  0  0  0  0  0  0
    1.5866   17.5107   42.5278 H   0  0  0  0  0  0  0  0  0  0  0  0
    0.5195   26.2823   35.0650 H   0  0  0  0  0  0  0  0  0  0  0  0
    3.7116   16.7962   36.8246 H   0  0  0  0  0  0  0  0  0  0  0  0
    2.3292   20.8069   39.5209 H   0  0  0  0  0  0  0  0  0  0  0  0
    0.9087   21.6036   43.4429 H   0  0  0  0  0  0  0  0  0  0  0  0
   -0.0296   27.8111   33.1358 H   0  0  0  0  0  0  0  0  0  0  0  0
    1.7338   28.1741   33.5707 H   0  0  0  0  0  0  0  0  0  0  0  0
    2.1018   25.0836   32.7140 H   0  0  0  0  0  0  0  0  0  0  0  0
    1.7578   14.7244   39.9985 H   0  0  0  0  0  0  0  0  0  0  0  0
    1.1860   21.8680   40.6916 H   0  0  0  0  0  0  0  0  0  0  0  0
    2.2364   21.0457   41.9570 H   0  0  0  0  0  0  0  0  0  0  0  0
    0.6443   28.7049   28.6098 H   0  0  0  0  0  0  0  0  0  0  0  0
    2.8555   25.4439   31.8444 H   0  0  0  0  0  0  0  0  0  0  0  0
    1.8093   17.7305   38.1365 H   0  0  0  0  0  0  0  0  0  0  0  0
   -0.1054   28.7038   31.1277 H   0  0  0  0  0  0  0  0  0  0  0  0
    3.5869   19.4367   38.0117 H   0  0  0  0  0  0  0  0  0  0  0  0
    0.6948   15.7899   43.3409 H   0  0  0  0  0  0  0  0  0  0  0  0
   -0.2417   15.4707   41.8416 H   0  0  0  0  0  0  0  0  0  0  0  0
    1.5442   15.2775   41.8433 H   0  0  0  0  0  0  0  0  0  0  0  0
    2.1728   26.9023   27.7446 H   0  0  0  0  0  0  0  0  0  0  0  0
    4.7767   21.1614   34.1045 H   0  0  0  0  0  0  0  0  0  0  0  0
    3.0056   21.2380   33.8146 H   0  0  0  0  0  0  0  0  0  0  0  0
    3.9659   22.7528   33.9136 H   0  0  0  0  0  0  0  0  0  0  0  0
    4.4237   21.2428   36.2821 H   0  0  0  0  0  0  0  0  0  0  0  0
    3.6130   22.8344   36.0912 H   0  0  0  0  0  0  0  0  0  0  0  0
    2.6527   21.3196   35.9923 H   0  0  0  0  0  0  0  0  0  0  0  0
    3.3706   25.3473   29.4033 H   0  0  0  0  0  0  0  0  0  0  0  0
  1 25  1  0
  2 14  1  0
  5  2  2  0
  6 20  1  0
  9  4  1  0
 10  1  1  0
 11 12  2  0
 12  7  1  0
 12  2  1  0
 13  4  2  3
 13 21  1  0
 14 19  2  0
 15  8  1  0
 16 23  1  0
 17 32  1  0
 18  5  1  0
 18 19  1  0
 19 10  1  0
 20 10  2  0
 20 22  1  0
 21 29  2  0
 21 26  1  0
 22 15  1  0
 22  3  2  0
 23 32  2  0
 24 18  1  0
 24  6  2  0
 27 16  2  0
 27 31  1  0
 28 30  1  0
 31 17  2  0
 32  9  1  0
  1 33  1  0
  1 34  1  0
  4 35  1  0
  5 36  1  0
  6 37  1  0
  8 38  1  0
  9 39  1  0
  9 40  1  0
 13 41  1  0
 14 42  1  0
 15 43  1  0
 15 44  1  0
 16 45  1  0
 17 46  1  0
 18 47  1  1
 23 48  1  0
 24 49  1  0
 25 50  1  0
 25 51  1  0
 25 52  1  0
 27 53  1  0
 28 54  1  0
 28 55  1  0
 28 56  1  0
 30 57  1  0
 30 58  1  0
 30 59  1  0
 31 60  1  0
M  CHG  3   1   1   7  -1  26  -1
M  END
>  <mol_id>  (43) 
2026-09-16-6tgu-s0-n100-0043

>  <rmsd_to_ref>  (43) 


$$$$

     RDKit          3D

 52 53  0  0  0  0  0  0  0  0999 V2000
   -0.8627   20.0687   42.8447 O   0  0  0  0  0  0  0  0  0  0  0  0
    1.7158   25.9574   32.1318 C   0  0  0  0  0  0  0  0  0  0  0  0
    0.0667   25.3289   34.0707 C   0  0  0  0  0  0  0  0  0  0  0  0
    1.6160   21.7556   37.3673 C   0  0  0  0  0  0  0  0  0  0  0  0
    0.7997   21.5363   40.9026 C   0  0  1  0  0  0  0  0  0  0  0  0
    3.6021   18.8233   38.2311 C   0  0  0  0  0  0  0  0  0  0  0  0
    2.6190   18.8180   39.2436 C   0  0  0  0  0  0  0  0  0  0  0  0
    0.8092   22.1161   39.6686 O   0  0  0  0  0  0  0  0  0  0  0  0
    1.4875   21.3752   38.8101 C   0  0  2  0  0  0  0  0  0  0  0  0
    5.3195   13.9531   38.5929 C   0  0  0  0  0  0  0  0  0  0  0  0
    1.9333   20.1953   39.5320 N   0  0  0  0  0  0  0  0  0  0  0  0
    2.8012   16.4088   39.4193 C   0  0  0  0  0  0  0  0  0  0  0  0
    2.3639   24.1563   33.6246 C   0  0  0  0  0  0  0  0  0  0  0  0
    1.6204   20.4388   40.7970 O   0  0  0  0  0  0  0  0  0  0  0  0
   -1.1597   21.0055   42.4045 C   0  0  0  0  0  0  0  0  0  0  0  0
    4.2866   14.9437   37.6952 S   0  0  0  0  0  6  0  0  0  0  0  0
    1.5171   25.2805   33.4253 C   0  0  0  0  0  0  0  0  0  0  0  0
    3.0951   14.2572   37.2253 O   0  0  0  0  0  0  0  0  0  0  0  0
    4.1829   17.6523   37.7842 C   0  0  0  0  0  0  0  0  0  0  0  0
    0.6884   22.2711   36.5951 C   0  0  0  0  0  0  0  0  0  0  0  0
   -0.0553   22.0005   41.9897 C   0  0  0  0  0  0  0  0  0  0  0  0
    1.0472   22.7711   35.2531 C   0  0  0  0  0  0  0  0  0  0  0  0
    5.2596   15.3373   36.4844 O   0  0  0  0  0  0  0  0  0  0  0  0
    2.1062   23.0216   34.5575 C   0  0  0  0  0  0  0  0  0  0  0  0
    2.3097   17.5953   39.9159 C   0  0  0  0  0  0  0  0  0  0  0  0
    3.7848   16.4032   38.4253 C   0  0  0  0  0  0  0  0  0  0  0  0
   -2.4997   21.0666   42.3351 O   0  0  0  0  0  0  0  0  0  0  0  0
    3.3503   24.0300   32.9207 O   0  0  0  0  0  0  0  0  0  0  0  0
    2.0131   27.0019   32.3065 H   0  0  0  0  0  0  0  0  0  0  0  0
    2.5049   25.4414   31.5653 H   0  0  0  0  0  0  0  0  0  0  0  0
    0.7776   25.9344   31.5580 H   0  0  0  0  0  0  0  0  0  0  0  0
    0.1538   25.4657   35.1586 H   0  0  0  0  0  0  0  0  0  0  0  0
   -0.4986   26.1683   33.6398 H   0  0  0  0  0  0  0  0  0  0  0  0
   -0.4597   24.3862   33.8607 H   0  0  0  0  0  0  0  0  0  0  0  0
    2.4415   22.4822   37.3397 H   0  0  0  0  0  0  0  0  0  0  0  0
    1.6691   20.7491   36.9265 H   0  0  0  0  0  0  0  0  0  0  0  0
    0.0073   20.8481   40.5732 H   0  0  0  0  0  0  0  0  0  0  0  0
    3.9128   19.7810   37.7881 H   0  0  0  0  0  0  0  0  0  0  0  0
    0.5288   20.8809   38.5944 H   0  0  0  0  0  0  0  0  0  0  0  0
    5.2395   14.2106   39.6593 H   0  0  0  0  0  0  0  0  0  0  0  0
    5.0358   12.9002   38.4476 H   0  0  0  0  0  0  0  0  0  0  0  0
    6.3559   14.1033   38.2562 H   0  0  0  0  0  0  0  0  0  0  0  0
    2.4160   15.4549   39.8087 H   0  0  0  0  0  0  0  0  0  0  0  0
    1.9327   25.9652   34.1792 H   0  0  0  0  0  0  0  0  0  0  0  0
    4.9227   17.6611   36.9702 H   0  0  0  0  0  0  0  0  0  0  0  0
   -0.3523   22.3304   36.9463 H   0  0  0  0  0  0  0  0  0  0  0  0
    0.5792   22.1949   42.8670 H   0  0  0  0  0  0  0  0  0  0  0  0
   -0.5680   22.9015   41.6218 H   0  0  0  0  0  0  0  0  0  0  0  0
    0.1415   22.9984   34.6717 H   0  0  0  0  0  0  0  0  0  0  0  0
    2.2493   22.1217   33.9414 H   0  0  0  0  0  0  0  0  0  0  0  0
    2.7633   23.3410   35.3798 H   0  0  0  0  0  0  0  0  0  0  0  0
    1.6850   17.6020   40.8213 H   0  0  0  0  0  0  0  0  0  0  0  0
  2 17  1  0
  5 21  1  0
  6  7  1  0
  7 11  1  0
  7 25  2  0
  8  5  1  0
  9  4  1  0
  9 11  1  0
  9  8  1  0
 11 14  1  0
 12 25  1  0
 13 24  1  0
 14  5  1  0
 15  1  1  0
 16 10  1  0
 16 26  1  0
 17 13  1  0
 17  3  1  0
 18 16  2  0
 19 26  1  0
 19  6  2  0
 20  4  1  0
 21 15  1  0
 22 20  2  3
 23 16  2  0
 24 22  1  0
 26 12  2  0
 27 15  2  0
 28 13  2  0
  2 29  1  0
  2 30  1  0
  2 31  1  0
  3 32  1  0
  3 33  1  0
  3 34  1  0
  4 35  1  0
  4 36  1  0
  5 37  1  1
  6 38  1  0
  9 39  1  1
 10 40  1  0
 10 41  1  0
 10 42  1  0
 12 43  1  0
 17 44  1  0
 19 45  1  0
 20 46  1  0
 21 47  1  0
 21 48  1  0
 22 49  1  0
 24 50  1  0
 24 51  1  0
 25 52  1  0
M  CHG  1   1  -1
M  END
>  <mol_id>  (44) 
2026-09-16-6tgu-s0-n100-0044

>  <rmsd_to_ref>  (44) 


$$$$

     RDKit          3D

 65 67  0  0  0  0  0  0  0  0999 V2000
    4.3420   13.2980   36.9990 C   0  0  0  0  0  0  0  0  0  0  0  0
    4.1160   23.2280   32.1080 C   0  0  0  0  0  0  0  0  0  0  0  0
    2.9510   20.4480   37.5960 C   0  0  2  0  0  0  0  0  0  0  0  0
    2.0060   24.4600   33.2720 C   0  0  0  0  0  0  0  0  0  0  0  0
    4.0410   16.9630   36.9690 C   0  0  0  0  0  0  0  0  0  0  0  0
    2.8590   13.3190   36.6350 C   0  0  2  0  0  0  0  0  0  0  0  0
    4.1650   15.7460   37.8380 C   0  0  1  0  0  0  0  0  0  0  0  0
    0.0100   19.6370   41.3350 C   0  0  0  0  0  0  0  0  0  0  0  0
    4.1310   22.3880   33.3500 C   0  0  0  0  0  0  0  0  0  0  0  0
    2.9720   24.1800   32.1160 C   0  0  0  0  0  0  0  0  0  0  0  0
    1.8800   20.5640   39.9570 C   0  0  0  0  0  0  0  0  0  0  0  0
    3.9760   18.3000   37.2300 N   0  0  0  0  0  0  0  0  0  0  0  0
    2.9030   24.8860   31.0350 F   0  0  0  0  0  0  0  0  0  0  0  0
    2.0400   23.5300   34.3500 C   0  0  0  0  0  0  0  0  0  0  0  0
    2.9770   19.7350   40.4460 C   0  0  0  0  0  0  0  0  0  0  0  0
    1.0870   25.6530   33.3490 C   0  0  0  0  0  0  0  0  0  0  0  0
    2.7790   13.0080   35.1920 N   0  0  0  0  0  0  0  0  0  0  0  0
    2.7710   15.3820   38.0390 C   0  0  0  0  0  0  0  0  0  0  0  0
    4.9320   14.7040   36.9870 C   0  0  0  0  0  0  0  0  0  0  0  0
    1.0570   21.7540   41.9100 N   0  0  0  0  0  0  0  0  0  0  0  0
    3.5570   19.2460   38.1320 C   0  0  0  0  0  0  0  0  0  0  0  0
    3.0190   22.4740   34.3590 C   0  0  0  0  0  0  0  0  0  0  0  0
    2.3320   14.6800   36.7650 N   0  0  0  0  0  0  0  0  0  0  0  0
    3.8020   19.1020   39.5310 N   0  0  0  0  0  0  0  0  0  0  0  0
    2.9060   21.5990   35.3820 C   0  0  0  0  0  0  0  0  0  0  0  0
    3.3960   20.9250   36.2140 C   0  0  0  0  0  0  0  0  0  0  0  0
    1.9020   21.0480   38.4610 C   0  0  0  0  0  0  0  0  0  0  0  0
    0.7330   20.9570   40.8340 C   0  0  2  0  0  0  0  0  0  0  0  0
    4.4586   12.8684   38.0049 H   0  0  0  0  0  0  0  0  0  0  0  0
    4.8753   12.6898   36.2536 H   0  0  0  0  0  0  0  0  0  0  0  0
    4.8545   23.1507   31.2965 H   0  0  0  0  0  0  0  0  0  0  0  0
    2.1592   19.8418   37.1318 H   0  0  0  0  0  0  0  0  0  0  0  0
    3.1179   16.7731   36.4018 H   0  0  0  0  0  0  0  0  0  0  0  0
    5.0896   16.9674   36.6367 H   0  0  0  0  0  0  0  0  0  0  0  0
    2.3059   12.6196   37.2791 H   0  0  0  0  0  0  0  0  0  0  0  0
    4.6932   15.8545   38.7968 H   0  0  0  0  0  0  0  0  0  0  0  0
    0.0002   19.6192   42.4348 H   0  0  0  0  0  0  0  0  0  0  0  0
   -1.0235   19.6197   40.9588 H   0  0  0  0  0  0  0  0  0  0  0  0
    0.5519   18.7568   40.9588 H   0  0  0  0  0  0  0  0  0  0  0  0
    4.9690   21.6976   33.5260 H   0  0  0  0  0  0  0  0  0  0  0  0
    4.4133   18.7943   36.4393 H   0  0  0  0  0  0  0  0  0  0  0  0
    1.3185   23.6183   35.1756 H   0  0  0  0  0  0  0  0  0  0  0  0
    3.6178   20.3808   41.0643 H   0  0  0  0  0  0  0  0  0  0  0  0
    2.4704   18.9055   40.9611 H   0  0  0  0  0  0  0  0  0  0  0  0
    0.8959   25.9011   34.4035 H   0  0  0  0  0  0  0  0  0  0  0  0
    1.5589   26.5122   32.8499 H   0  0  0  0  0  0  0  0  0  0  0  0
    0.1359   25.4160   32.8499 H   0  0  0  0  0  0  0  0  0  0  0  0
    2.5243   12.0178   35.0678 H   0  0  0  0  0  0  0  0  0  0  0  0
    2.0640   13.6043   34.7514 H   0  0  0  0  0  0  0  0  0  0  0  0
    3.6930   13.1853   34.7514 H   0  0  0  0  0  0  0  0  0  0  0  0
    2.6733   14.7056   38.9009 H   0  0  0  0  0  0  0  0  0  0  0  0
    2.1501   16.2662   38.2455 H   0  0  0  0  0  0  0  0  0  0  0  0
    5.9621   14.6445   37.3683 H   0  0  0  0  0  0  0  0  0  0  0  0
    4.8695   15.0533   35.9458 H   0  0  0  0  0  0  0  0  0  0  0  0
    0.8521   21.2500   42.7846 H   0  0  0  0  0  0  0  0  0  0  0  0
    2.0596   21.9872   41.8749 H   0  0  0  0  0  0  0  0  0  0  0  0
    0.5015   22.6206   41.8749 H   0  0  0  0  0  0  0  0  0  0  0  0
    2.6569   15.2335   35.9594 H   0  0  0  0  0  0  0  0  0  0  0  0
    1.3053   14.6048   36.7994 H   0  0  0  0  0  0  0  0  0  0  0  0
    2.2369   22.1889   36.0257 H   0  0  0  0  0  0  0  0  0  0  0  0
    3.0516   20.7780   34.6646 H   0  0  0  0  0  0  0  0  0  0  0  0
    4.3443   21.4413   36.4240 H   0  0  0  0  0  0  0  0  0  0  0  0
    3.1935   19.9707   35.7057 H   0  0  0  0  0  0  0  0  0  0  0  0
    1.1833   21.7871   38.0774 H   0  0  0  0  0  0  0  0  0  0  0  0
    0.0721   21.5821   40.2156 H   0  0  0  0  0  0  0  0  0  0  0  0
  2 10  1  0
  2  9  2  0
  3 26  1  0
  3 21  1  0
  3 27  1  0
  4 16  1  0
  4 14  1  0
  5 12  1  0
  6 17  1  0
  6 23  1  0
  6  1  1  0
  7  5  1  0
  7 18  1  0
  9 22  1  0
 10  4  2  0
 11 15  1  0
 11 28  1  0
 12 21  1  0
 13 10  1  0
 14 22  2  0
 19  1  1  0
 19  7  1  0
 21 24  2  0
 22 25  1  0
 23 18  1  0
 24 15  1  0
 25 26  1  0
 27 11  2  0
 28  8  1  0
 28 20  1  0
  1 29  1  0
  1 30  1  0
  2 31  1  0
  3 32  1  1
  5 33  1  0
  5 34  1  0
  6 35  1  1
  7 36  1  1
  8 37  1  0
  8 38  1  0
  8 39  1  0
  9 40  1  0
 12 41  1  0
 14 42  1  0
 15 43  1  0
 15 44  1  0
 16 45  1  0
 16 46  1  0
 16 47  1  0
 17 48  1  0
 17 49  1  0
 17 50  1  0
 18 51  1  0
 18 52  1  0
 19 53  1  0
 19 54  1  0
 20 55  1  0
 20 56  1  0
 20 57  1  0
 23 58  1  0
 23 59  1  0
 25 60  1  0
 25 61  1  0
 26 62  1  0
 26 63  1  0
 27 64  1  0
 28 65  1  6
M  CHG  3  17   1  20   1  23   1
M  END
>  <mol_id>  (45) 
2026-09-16-6tgu-s0-n100-0045

>  <rmsd_to_ref>  (45) 


$$$$

     RDKit          3D

 52 53  0  0  0  0  0  0  0  0999 V2000
    1.8855   24.0512   32.2382 C   0  0  0  0  0  0  0  0  0  0  0  0
    2.3185   24.6274   31.0025 C   0  0  2  0  0  0  0  0  0  0  0  0
    1.8234   19.4883   40.0047 C   0  0  0  0  0  0  0  0  0  0  0  0
    3.9884   23.3666   32.2148 C   0  0  0  0  0  0  0  0  0  0  0  0
    4.2936   19.3825   40.7645 C   0  0  0  0  0  0  0  0  0  0  0  0
    3.2722   19.5912   39.6873 C   0  0  1  0  0  0  0  0  0  0  0  0
    1.5197   23.6238   29.0049 C   0  0  0  0  0  0  0  0  0  0  0  0
    3.4294   18.4719   38.5902 C   0  0  2  0  0  0  0  0  0  0  0  0
    2.2604   24.8593   29.8582 C   0  0  0  0  0  0  0  0  0  0  0  0
    4.4009   23.3807   29.8091 C   0  0  0  0  0  0  0  0  0  0  0  0
    3.1526   21.4859   34.5850 C   0  0  0  0  0  0  0  0  0  0  0  0
    1.0858   23.8118   27.9967 O   0  0  0  0  0  0  0  0  0  0  0  0
    1.9373   20.2389   36.8677 S   0  0  0  0  0  0  0  0  0  0  0  0
    1.4282   22.1515   29.4260 C   0  0  0  0  0  0  0  0  0  0  0  0
    2.6877   22.9250   32.7528 N   0  0  0  0  0  0  0  0  0  0  0  0
    2.7569   20.1708   35.3313 C   0  0  0  0  0  0  0  0  0  0  0  0
    3.6609   23.7518   30.9521 C   0  0  1  0  0  0  0  0  0  0  0  0
    1.5535   18.0037   39.7614 C   0  0  0  0  0  0  0  0  0  0  0  0
    2.5949   18.6486   37.3671 C   0  0  0  0  0  0  0  0  0  0  0  0
    2.2576   22.3101   34.0195 C   0  0  0  0  0  0  0  0  0  0  0  0
    2.7752   17.3224   39.1717 O   0  0  0  0  0  0  0  0  0  0  0  0
    0.8555   23.6919   32.0972 H   0  0  0  0  0  0  0  0  0  0  0  0
    1.9903   24.8508   32.9863 H   0  0  0  0  0  0  0  0  0  0  0  0
    1.7295   25.5392   31.1805 H   0  0  0  0  0  0  0  0  0  0  0  0
    1.6219   19.7658   41.0500 H   0  0  0  0  0  0  0  0  0  0  0  0
    1.1884   20.1597   39.4082 H   0  0  0  0  0  0  0  0  0  0  0  0
    4.3954   24.2075   32.7954 H   0  0  0  0  0  0  0  0  0  0  0  0
    4.7679   22.5914   32.2519 H   0  0  0  0  0  0  0  0  0  0  0  0
    3.7916   19.3385   41.7423 H   0  0  0  0  0  0  0  0  0  0  0  0
    4.8289   18.4385   40.5843 H   0  0  0  0  0  0  0  0  0  0  0  0
    5.0099   20.2174   40.7573 H   0  0  0  0  0  0  0  0  0  0  0  0
    3.4918   20.6353   39.4197 H   0  0  0  0  0  0  0  0  0  0  0  0
    4.4959   18.4399   38.3229 H   0  0  0  0  0  0  0  0  0  0  0  0
    1.6857   25.7858   29.7124 H   0  0  0  0  0  0  0  0  0  0  0  0
    3.2880   24.9650   29.4802 H   0  0  0  0  0  0  0  0  0  0  0  0
    5.2314   22.7239   30.1074 H   0  0  0  0  0  0  0  0  0  0  0  0
    3.7455   22.8465   29.1056 H   0  0  0  0  0  0  0  0  0  0  0  0
    4.8027   24.2823   29.3237 H   0  0  0  0  0  0  0  0  0  0  0  0
    3.7022   22.0947   35.3179 H   0  0  0  0  0  0  0  0  0  0  0  0
    3.6682   21.0857   33.6996 H   0  0  0  0  0  0  0  0  0  0  0  0
    1.3351   22.0881   30.5202 H   0  0  0  0  0  0  0  0  0  0  0  0
    0.5475   21.6897   28.9558 H   0  0  0  0  0  0  0  0  0  0  0  0
    2.3363   21.6209   29.1039 H   0  0  0  0  0  0  0  0  0  0  0  0
    2.1032   19.6061   34.6500 H   0  0  0  0  0  0  0  0  0  0  0  0
    3.7310   19.7299   35.5895 H   0  0  0  0  0  0  0  0  0  0  0  0
    4.2621   24.6684   31.0437 H   0  0  0  0  0  0  0  0  0  0  0  0
    1.2984   17.5224   40.7171 H   0  0  0  0  0  0  0  0  0  0  0  0
    0.7198   17.9093   39.0502 H   0  0  0  0  0  0  0  0  0  0  0  0
    3.2086   18.2946   36.5256 H   0  0  0  0  0  0  0  0  0  0  0  0
    1.6794   18.1030   37.6396 H   0  0  0  0  0  0  0  0  0  0  0  0
    2.0395   23.1179   34.7336 H   0  0  0  0  0  0  0  0  0  0  0  0
    1.3813   21.6908   33.7774 H   0  0  0  0  0  0  0  0  0  0  0  0
  1 15  1  0
  2  9  1  0
  2  1  1  0
  4 15  1  0
  6  3  1  0
  6  5  1  0
  7 14  1  0
  7  9  1  0
  8 19  1  0
  8 21  1  0
  8  6  1  0
 11 16  1  0
 12  7  2  0
 13 19  1  0
 15 20  1  0
 16 13  1  0
 17 10  1  0
 17  2  1  0
 17  4  1  0
 18  3  1  0
 20 11  1  0
 21 18  1  0
  1 22  1  0
  1 23  1  0
  2 24  1  1
  3 25  1  0
  3 26  1  0
  4 27  1  0
  4 28  1  0
  5 29  1  0
  5 30  1  0
  5 31  1  0
  6 32  1  6
  8 33  1  6
  9 34  1  0
  9 35  1  0
 10 36  1  0
 10 37  1  0
 10 38  1  0
 11 39  1  0
 11 40  1  0
 14 41  1  0
 14 42  1  0
 14 43  1  0
 16 44  1  0
 16 45  1  0
 17 46  1  1
 18 47  1  0
 18 48  1  0
 19 49  1  0
 19 50  1  0
 20 51  1  0
 20 52  1  0
M  END
>  <mol_id>  (46) 
2026-09-16-6tgu-s0-n100-0046

>  <rmsd_to_ref>  (46) 


$$$$

     RDKit          3D

 39 40  0  0  0  0  0  0  0  0999 V2000
    2.5216   16.9547   37.6305 C   0  0  0  0  0  0  0  0  0  0  0  0
    1.3152   20.3823   39.8101 S   0  0  0  0  0  0  0  0  0  0  0  0
    3.2338   25.1058   32.4276 C   0  0  0  0  0  0  0  0  0  0  0  0
    1.0607   26.1010   31.4168 C   0  0  0  0  0  0  0  0  0  0  0  0
    2.0645   18.0192   38.5788 C   0  0  0  0  0  0  0  0  0  0  0  0
    3.8050   24.0021   33.0734 C   0  0  0  0  0  0  0  0  0  0  0  0
    0.9787   26.5302   28.8864 C   0  0  0  0  0  0  0  0  0  0  0  0
    1.6647   23.5021   34.3857 C   0  0  0  0  0  0  0  0  0  0  0  0
    3.0838   23.1343   34.0248 C   0  0  0  0  0  0  0  0  0  0  0  0
    1.1957   22.6893   35.5548 C   0  0  0  0  0  0  0  0  0  0  0  0
    2.1024   21.2835   36.1499 C   0  0  0  0  0  0  0  0  0  0  0  0
    1.3082   16.2027   40.5303 O   0  0  0  0  0  0  0  0  0  0  0  0
    1.7381   25.2729   32.5074 C   0  0  0  0  0  0  0  0  0  0  0  0
    1.8475   25.9528   29.9893 C   0  0  0  0  0  0  0  0  0  0  0  0
    1.5245   17.6445   39.8478 C   0  0  0  0  0  0  0  0  0  0  0  0
    0.4447   18.7492   42.3283 Cl  0  0  0  0  0  0  0  0  0  0  0  0
    0.9783   24.4628   33.5280 C   0  0  0  0  0  0  0  0  0  0  0  0
    1.8882   19.5836   38.3965 C   0  0  0  0  0  0  0  0  0  0  0  0
    2.0622   20.4414   37.2006 C   0  0  0  0  0  0  0  0  0  0  0  0
    1.0678   18.8307   40.6385 C   0  0  1  0  0  0  0  0  0  0  0  0
    2.9793   16.1306   38.1974 H   0  0  0  0  0  0  0  0  0  0  0  0
    1.6596   16.5747   37.0626 H   0  0  0  0  0  0  0  0  0  0  0  0
    3.2617   17.3767   36.9347 H   0  0  0  0  0  0  0  0  0  0  0  0
    3.8571   25.8277   31.8796 H   0  0  0  0  0  0  0  0  0  0  0  0
    0.0244   25.7533   31.2934 H   0  0  0  0  0  0  0  0  0  0  0  0
    1.0808   27.1586   31.7183 H   0  0  0  0  0  0  0  0  0  0  0  0
    4.8577   23.7671   32.8578 H   0  0  0  0  0  0  0  0  0  0  0  0
    0.1646   27.1207   29.3321 H   0  0  0  0  0  0  0  0  0  0  0  0
    1.5892   27.1772   28.2394 H   0  0  0  0  0  0  0  0  0  0  0  0
    0.5526   25.7110   28.2884 H   0  0  0  0  0  0  0  0  0  0  0  0
    3.5661   22.2457   34.4582 H   0  0  0  0  0  0  0  0  0  0  0  0
    1.1174   23.3860   36.4024 H   0  0  0  0  0  0  0  0  0  0  0  0
    0.2816   22.2228   35.1588 H   0  0  0  0  0  0  0  0  0  0  0  0
    2.9288   21.0287   35.4700 H   0  0  0  0  0  0  0  0  0  0  0  0
    0.9112   16.1378   41.4349 H   0  0  0  0  0  0  0  0  0  0  0  0
    2.0453   24.8901   29.7854 H   0  0  0  0  0  0  0  0  0  0  0  0
    2.8036   26.4949   30.0329 H   0  0  0  0  0  0  0  0  0  0  0  0
   -0.1088   24.5981   33.6272 H   0  0  0  0  0  0  0  0  0  0  0  0
    0.0689   18.7481   40.1855 H   0  0  0  0  0  0  0  0  0  0  0  0
  1  5  1  0
  2 20  1  0
  3  6  1  0
  4 13  1  0
  5 15  2  0
  6  9  2  0
  7 14  1  0
  8 10  1  0
  9  8  1  0
 10 11  1  0
 11 19  2  0
 13  3  2  0
 13 17  1  0
 14  4  1  0
 15 20  1  0
 15 12  1  0
 17  8  2  0
 18  5  1  0
 18  2  1  0
 19 18  2  0
 20 16  1  0
  1 21  1  0
  1 22  1  0
  1 23  1  0
  3 24  1  0
  4 25  1  0
  4 26  1  0
  6 27  1  0
  7 28  1  0
  7 29  1  0
  7 30  1  0
  9 31  1  0
 10 32  1  0
 10 33  1  0
 11 34  1  0
 12 35  1  0
 14 36  1  0
 14 37  1  0
 17 38  1  0
 20 39  1  6
M  END
>  <mol_id>  (47) 
2026-09-16-6tgu-s0-n100-0047

>  <rmsd_to_ref>  (47) 


$$$$

     RDKit          3D

 67 69  0  0  0  0  0  0  0  0999 V2000
    1.6451   25.8699   32.4200 C   0  0  2  0  0  0  0  0  0  0  0  0
    2.1183   22.6554   35.6925 N   0  0  0  0  0  0  0  0  0  0  0  0
    2.9468   23.0957   33.7263 O   0  0  0  0  0  0  0  0  0  0  0  0
    0.7174   18.3703   43.6164 C   0  0  0  0  0  0  0  0  0  0  0  0
    1.4551   21.5967   41.8559 C   0  0  0  0  0  0  0  0  0  0  0  0
    2.6316   19.4160   39.2079 C   0  0  0  0  0  0  0  0  0  0  0  0
    1.8791   24.7503   34.6501 C   0  0  0  0  0  0  0  0  0  0  0  0
    2.2355   20.9614   37.4412 C   0  0  0  0  0  0  0  0  0  0  0  0
    0.9552   17.0422   43.3552 C   0  0  0  0  0  0  0  0  0  0  0  0
    2.3036   25.1189   31.7216 C   0  0  0  0  0  0  0  0  0  0  0  0
    0.8989   20.6998   42.7961 C   0  0  0  0  0  0  0  0  0  0  0  0
    2.7287   14.2103   37.8958 C   0  0  0  0  0  0  0  0  0  0  0  0
    2.5896   15.0000   40.9032 N   0  0  0  0  0  0  0  0  0  0  0  0
    2.0907   21.1734   40.7120 C   0  0  0  0  0  0  0  0  0  0  0  0
    1.3947   14.2744   42.6125 O   0  0  0  0  0  0  0  0  0  0  0  0
    1.3222   25.9314   33.8188 C   0  0  2  0  0  0  0  0  0  0  0  0
    1.6554   18.8487   41.4168 C   0  0  0  0  0  0  0  0  0  0  0  0
    1.6004   16.6044   42.1817 C   0  0  0  0  0  0  0  0  0  0  0  0
    0.7493   26.8000   32.7990 C   0  0  0  0  0  0  0  0  0  0  0  0
    1.9389   17.4996   41.2107 C   0  0  0  0  0  0  0  0  0  0  0  0
    2.6774   21.5167   36.1360 C   0  0  0  0  0  0  0  0  0  0  0  0
    1.0179   19.2931   42.6043 C   0  0  0  0  0  0  0  0  0  0  0  0
    1.8479   25.7270   30.3782 C   0  0  0  0  0  0  0  0  0  0  0  0
    2.5360   13.7917   40.2794 O   0  0  0  0  0  0  0  0  0  0  0  0
    3.2034   20.0459   37.9337 C   0  0  0  0  0  0  0  0  0  0  0  0
    1.8890   15.2265   41.9104 C   0  0  0  0  0  0  0  0  0  0  0  0
    0.2142   18.5341   45.1278 C   0  0  0  0  0  0  0  0  0  0  0  0
    3.6524   20.9377   35.5813 N   0  0  0  0  0  0  0  0  0  0  0  0
    2.1269   19.8109   40.4117 C   0  0  0  0  0  0  0  0  0  0  0  0
    3.3330   13.5682   39.0884 C   0  0  0  0  0  0  0  0  0  0  0  0
    2.3745   23.4384   34.6230 C   0  0  0  0  0  0  0  0  0  0  0  0
    2.7082   24.8387   29.4149 C   0  0  0  0  0  0  0  0  0  0  0  0
    2.4062   26.6540   32.2947 H   0  0  0  0  0  0  0  0  0  0  0  0
    1.3455   22.9963   36.2819 H   0  0  0  0  0  0  0  0  0  0  0  0
    1.3764   22.6771   42.0469 H   0  0  0  0  0  0  0  0  0  0  0  0
    3.4531   18.7530   39.5171 H   0  0  0  0  0  0  0  0  0  0  0  0
    1.6330   19.2855   38.7657 H   0  0  0  0  0  0  0  0  0  0  0  0
    1.0528   24.6213   35.3646 H   0  0  0  0  0  0  0  0  0  0  0  0
    2.8998   25.1405   34.5243 H   0  0  0  0  0  0  0  0  0  0  0  0
    1.2759   20.4403   37.3089 H   0  0  0  0  0  0  0  0  0  0  0  0
    2.1179   21.7841   38.1618 H   0  0  0  0  0  0  0  0  0  0  0  0
    0.6291   16.2920   44.0907 H   0  0  0  0  0  0  0  0  0  0  0  0
    3.3860   25.2188   31.8900 H   0  0  0  0  0  0  0  0  0  0  0  0
    2.1579   24.0378   31.8632 H   0  0  0  0  0  0  0  0  0  0  0  0
    0.3720   21.0895   43.6795 H   0  0  0  0  0  0  0  0  0  0  0  0
    2.1785   15.1116   38.2039 H   0  0  0  0  0  0  0  0  0  0  0  0
    3.5229   14.4896   37.1878 H   0  0  0  0  0  0  0  0  0  0  0  0
    2.0366   13.5058   37.4112 H   0  0  0  0  0  0  0  0  0  0  0  0
    3.2143   15.7342   40.5405 H   0  0  0  0  0  0  0  0  0  0  0  0
    2.5664   21.9025   40.0396 H   0  0  0  0  0  0  0  0  0  0  0  0
    1.1427   26.1284   34.8860 H   0  0  0  0  0  0  0  0  0  0  0  0
    1.0238   27.8648   32.7722 H   0  0  0  0  0  0  0  0  0  0  0  0
   -0.2764   27.0503   32.4903 H   0  0  0  0  0  0  0  0  0  0  0  0
    2.4259   17.1639   40.2833 H   0  0  0  0  0  0  0  0  0  0  0  0
    0.7689   25.5960   30.2093 H   0  0  0  0  0  0  0  0  0  0  0  0
    1.9855   26.8135   30.2754 H   0  0  0  0  0  0  0  0  0  0  0  0
    3.3988   19.2655   37.1836 H   0  0  0  0  0  0  0  0  0  0  0  0
    4.1519   20.5608   38.1469 H   0  0  0  0  0  0  0  0  0  0  0  0
    1.0597   18.3805   45.8145 H   0  0  0  0  0  0  0  0  0  0  0  0
   -0.1949   19.5452   45.2705 H   0  0  0  0  0  0  0  0  0  0  0  0
   -0.5678   17.7892   45.3367 H   0  0  0  0  0  0  0  0  0  0  0  0
    4.0283   20.0656   35.9803 H   0  0  0  0  0  0  0  0  0  0  0  0
    3.4109   12.4856   38.9095 H   0  0  0  0  0  0  0  0  0  0  0  0
    4.3256   14.0132   39.2514 H   0  0  0  0  0  0  0  0  0  0  0  0
    3.4445   24.2693   30.0009 H   0  0  0  0  0  0  0  0  0  0  0  0
    2.0511   24.1413   28.8745 H   0  0  0  0  0  0  0  0  0  0  0  0
    3.2325   25.4823   28.6931 H   0  0  0  0  0  0  0  0  0  0  0  0
  1 10  1  0
  1 19  1  0
  1 16  1  0
  2 21  1  0
  3 31  2  0
  4 27  1  0
  5 11  1  0
  6 29  1  0
  7 31  1  0
  8 25  1  0
  9  4  2  0
 12 30  1  0
 13 26  1  0
 14  5  2  0
 16  7  1  0
 17 22  1  0
 18  9  1  0
 19 16  1  0
 20 17  1  0
 20 18  2  0
 21  8  1  0
 22 11  2  0
 22  4  1  0
 23 10  1  0
 24 13  1  0
 25  6  1  0
 26 18  1  0
 26 15  2  0
 28 21  2  3
 29 14  1  0
 29 17  2  0
 30 24  1  0
 31  2  1  0
 32 23  1  0
  1 33  1  1
  2 34  1  0
  5 35  1  0
  6 36  1  0
  6 37  1  0
  7 38  1  0
  7 39  1  0
  8 40  1  0
  8 41  1  0
  9 42  1  0
 10 43  1  0
 10 44  1  0
 11 45  1  0
 12 46  1  0
 12 47  1  0
 12 48  1  0
 13 49  1  0
 14 50  1  0
 16 51  1  1
 19 52  1  0
 19 53  1  0
 20 54  1  0
 23 55  1  0
 23 56  1  0
 25 57  1  0
 25 58  1  0
 27 59  1  0
 27 60  1  0
 27 61  1  0
 28 62  1  0
 30 63  1  0
 30 64  1  0
 32 65  1  0
 32 66  1  0
 32 67  1  0
M  END
>  <mol_id>  (48) 
2026-09-16-6tgu-s0-n100-0048

>  <rmsd_to_ref>  (48) 


$$$$

     RDKit          3D

 69 70  0  0  0  0  0  0  0  0999 V2000
    2.8477   17.4570   37.3306 C   0  0  0  0  0  0  0  0  0  0  0  0
    1.1003   17.1036   41.6860 C   0  0  0  0  0  0  0  0  0  0  0  0
    3.3756   18.2241   36.3598 N   0  0  0  0  0  0  0  0  0  0  0  0
    3.8658   15.0762   37.0468 C   0  0  0  0  0  0  0  0  0  0  0  0
    0.9946   18.4516   41.6867 C   0  0  0  0  0  0  0  0  0  0  0  0
    1.1711   20.5787   40.4692 C   0  0  0  0  0  0  0  0  0  0  0  0
    4.2177   22.0273   34.1809 C   0  0  0  0  0  0  0  0  0  0  0  0
    2.4835   18.3270   38.4710 C   0  0  0  0  0  0  0  0  0  0  0  0
    3.5794   13.8174   37.1587 O   0  0  0  0  0  0  0  0  0  0  0  0
    4.5578   26.3738   30.8583 C   0  0  0  0  0  0  0  0  0  0  0  0
    2.0176   18.1142   39.6569 C   0  0  0  0  0  0  0  0  0  0  0  0
    1.1024   28.1820   31.2924 C   0  0  0  0  0  0  0  0  0  0  0  0
    4.3675   24.1741   32.2455 C   0  0  0  0  0  0  0  0  0  0  0  0
    1.6067   29.2555   32.1406 C   0  0  2  0  0  0  0  0  0  0  0  0
    1.5581   19.1153   40.5833 C   0  0  0  0  0  0  0  0  0  0  0  0
    5.0256   15.5344   36.7645 O   0  0  0  0  0  0  0  0  0  0  0  0
    2.7460   19.5741   38.1064 O   0  0  0  0  0  0  0  0  0  0  0  0
    3.1837   19.5255   36.8379 C   0  0  0  0  0  0  0  0  0  0  0  0
    1.8970   16.5842   40.3111 S   0  0  0  0  0  0  0  0  0  0  0  0
    2.0577   24.1899   33.7299 C   0  0  0  0  0  0  0  0  0  0  0  0
    3.3302   22.3399   33.1752 C   0  0  0  0  0  0  0  0  0  0  0  0
    2.6287   15.9985   37.1683 C   0  0  0  0  0  0  0  0  0  0  0  0
    2.3162   27.5164   31.2331 C   0  0  1  0  0  0  0  0  0  0  0  0
    3.2054   20.6108   36.2512 O   0  0  0  0  0  0  0  0  0  0  0  0
    2.9831   29.7248   31.7168 C   0  0  0  0  0  0  0  0  0  0  0  0
    3.2543   26.8899   30.2486 C   0  0  0  0  0  0  0  0  0  0  0  0
    0.6993   16.1219   42.7191 C   0  0  0  0  0  0  0  0  0  0  0  0
    3.3653   23.8540   33.2141 C   0  0  0  0  0  0  0  0  0  0  0  0
    2.6796   24.9277   33.9724 C   0  0  0  0  0  0  0  0  0  0  0  0
    3.0048   28.4633   32.2013 C   0  0  1  0  0  0  0  0  0  0  0  0
    4.7138   25.3841   31.7063 C   0  0  0  0  0  0  0  0  0  0  0  0
    3.8151   17.9257   35.4774 H   0  0  0  0  0  0  0  0  0  0  0  0
    0.4970   18.9965   42.5026 H   0  0  0  0  0  0  0  0  0  0  0  0
    1.0704   21.0109   41.4758 H   0  0  0  0  0  0  0  0  0  0  0  0
    1.9496   21.1216   39.9133 H   0  0  0  0  0  0  0  0  0  0  0  0
    0.2128   20.6641   39.9360 H   0  0  0  0  0  0  0  0  0  0  0  0
    3.7453   22.2115   35.1571 H   0  0  0  0  0  0  0  0  0  0  0  0
    4.5000   20.9669   34.1044 H   0  0  0  0  0  0  0  0  0  0  0  0
    5.1166   22.6540   34.0846 H   0  0  0  0  0  0  0  0  0  0  0  0
    4.9939   27.2472   31.3653 H   0  0  0  0  0  0  0  0  0  0  0  0
    4.9840   25.8967   29.9635 H   0  0  0  0  0  0  0  0  0  0  0  0
    0.3084   27.5902   31.7712 H   0  0  0  0  0  0  0  0  0  0  0  0
    0.6159   28.4564   30.3447 H   0  0  0  0  0  0  0  0  0  0  0  0
    5.3014   23.8016   32.6918 H   0  0  0  0  0  0  0  0  0  0  0  0
    3.8544   23.7631   31.3636 H   0  0  0  0  0  0  0  0  0  0  0  0
    0.7733   29.7902   32.6199 H   0  0  0  0  0  0  0  0  0  0  0  0
    1.6529   23.5713   34.5445 H   0  0  0  0  0  0  0  0  0  0  0  0
    1.0905   24.2341   33.2078 H   0  0  0  0  0  0  0  0  0  0  0  0
    2.3853   22.6904   33.6158 H   0  0  0  0  0  0  0  0  0  0  0  0
    3.7566   23.1329   32.5433 H   0  0  0  0  0  0  0  0  0  0  0  0
    3.1400   21.4459   32.5631 H   0  0  0  0  0  0  0  0  0  0  0  0
    2.0289   15.8594   36.2568 H   0  0  0  0  0  0  0  0  0  0  0  0
    2.1539   15.6903   38.1115 H   0  0  0  0  0  0  0  0  0  0  0  0
    2.0029   26.4626   31.1986 H   0  0  0  0  0  0  0  0  0  0  0  0
    3.1796   29.8809   30.6458 H   0  0  0  0  0  0  0  0  0  0  0  0
    3.5629   30.6191   31.9890 H   0  0  0  0  0  0  0  0  0  0  0  0
    2.7382   26.0431   29.7726 H   0  0  0  0  0  0  0  0  0  0  0  0
    3.5326   27.6788   29.5343 H   0  0  0  0  0  0  0  0  0  0  0  0
    0.8833   16.5449   43.7178 H   0  0  0  0  0  0  0  0  0  0  0  0
   -0.3707   15.8913   42.6101 H   0  0  0  0  0  0  0  0  0  0  0  0
    1.2874   15.2003   42.5971 H   0  0  0  0  0  0  0  0  0  0  0  0
    3.2075   22.7913   32.9779 H   0  0  0  0  0  0  0  0  0  0  0  0
    3.8332   24.5407   33.9348 H   0  0  0  0  0  0  0  0  0  0  0  0
    2.7487   25.0040   35.0676 H   0  0  0  0  0  0  0  0  0  0  0  0
    3.6761   24.7191   33.5558 H   0  0  0  0  0  0  0  0  0  0  0  0
    2.3016   25.8756   33.5620 H   0  0  0  0  0  0  0  0  0  0  0  0
    3.7914   27.9917   32.8086 H   0  0  0  0  0  0  0  0  0  0  0  0
    5.7599   25.1450   31.4647 H   0  0  0  0  0  0  0  0  0  0  0  0
    3.9403   25.8475   32.3364 H   0  0  0  0  0  0  0  0  0  0  0  0
  1  8  2  0
  2  5  2  0
  2 27  1  0
  3 18  1  0
  3  1  1  0
  4  9  1  0
  4 22  1  0
  6 15  1  0
  8 11  1  0
 10 31  1  0
 11 19  1  0
 11 15  2  0
 13 28  1  0
 14 12  1  0
 14 30  1  0
 15  5  1  0
 16  4  2  0
 17  8  1  0
 18 17  1  0
 19  2  1  0
 20 29  1  0
 21  7  1  0
 22  1  1  0
 23 26  1  0
 23 12  1  0
 23 30  1  0
 24 18  2  0
 25 14  1  0
 26 10  1  0
 28 20  1  0
 30 25  1  0
 31 13  1  0
  3 32  1  0
  5 33  1  0
  6 34  1  0
  6 35  1  0
  6 36  1  0
  7 37  1  0
  7 38  1  0
  7 39  1  0
 10 40  1  0
 10 41  1  0
 12 42  1  0
 12 43  1  0
 13 44  1  0
 13 45  1  0
 14 46  1  1
 20 47  1  0
 20 48  1  0
 21 49  1  0
 21 50  1  0
 21 51  1  0
 22 52  1  0
 22 53  1  0
 23 54  1  1
 25 55  1  0
 25 56  1  0
 26 57  1  0
 26 58  1  0
 27 59  1  0
 27 60  1  0
 27 61  1  0
 28 62  1  0
 28 63  1  0
 29 64  1  0
 29 65  1  0
 29 66  1  0
 30 67  1  1
 31 68  1  0
 31 69  1  0
M  CHG  1   9  -1
M  END
>  <mol_id>  (49) 
2026-09-16-6tgu-s0-n100-0049

>  <rmsd_to_ref>  (49) 


$$$$

     RDKit          3D

 26 26  0  0  0  0  0  0  0  0999 V2000
    1.9184   17.0401   39.6259 C   0  0  0  0  0  0  0  0  0  0  0  0
    2.1689   21.9546   34.3700 O   0  0  0  0  0  0  0  0  0  0  0  0
    3.5362   21.5054   34.5971 S   0  0  0  0  0  6  0  0  0  0  0  0
    2.4182   18.4542   39.5007 C   0  0  2  0  0  0  0  0  0  0  0  0
    1.5842   19.4871   40.2172 C   0  0  0  0  0  0  0  0  0  0  0  0
    3.1896   20.4140   35.9181 C   0  0  0  0  0  0  0  0  0  0  0  0
    2.8821   21.0546   37.1723 C   0  0  0  0  0  0  0  0  0  0  0  0
    3.0264   22.2212   37.4426 O   0  0  0  0  0  0  0  0  0  0  0  0
    2.4929   18.8889   38.0411 C   0  0  0  0  0  0  0  0  0  0  0  0
    4.8347   22.7603   35.1473 S   0  0  0  0  0  0  0  0  0  0  0  0
    1.8392   20.7214   39.4260 C   0  0  0  0  0  0  0  0  0  0  0  0
    4.1913   21.2734   33.2514 O   0  0  0  0  0  0  0  0  0  0  0  0
    2.4245   20.3215   38.1140 N   0  0  0  0  0  0  0  0  0  0  0  0
    1.8376   16.7727   40.6899 H   0  0  0  0  0  0  0  0  0  0  0  0
    0.9296   16.9573   39.1509 H   0  0  0  0  0  0  0  0  0  0  0  0
    2.6225   16.3569   39.1285 H   0  0  0  0  0  0  0  0  0  0  0  0
    3.4104   18.4184   39.9742 H   0  0  0  0  0  0  0  0  0  0  0  0
    0.5179   19.2177   40.1989 H   0  0  0  0  0  0  0  0  0  0  0  0
    1.8394   19.5913   41.2821 H   0  0  0  0  0  0  0  0  0  0  0  0
    2.3277   19.7937   35.6312 H   0  0  0  0  0  0  0  0  0  0  0  0
    4.1086   19.8332   36.0865 H   0  0  0  0  0  0  0  0  0  0  0  0
    1.6471   18.4836   37.4664 H   0  0  0  0  0  0  0  0  0  0  0  0
    3.3994   18.5285   37.5326 H   0  0  0  0  0  0  0  0  0  0  0  0
    4.8522   22.8291   36.5155 H   0  0  0  0  0  0  0  0  0  0  0  0
    0.8947   21.2612   39.2633 H   0  0  0  0  0  0  0  0  0  0  0  0
    2.5333   21.3822   39.9661 H   0  0  0  0  0  0  0  0  0  0  0  0
  2  3  2  0
  3 10  1  0
  3  6  1  0
  4  1  1  0
  4  5  1  0
  6  7  1  0
  7  8  2  0
  7 13  1  0
  9 13  1  0
  9  4  1  0
 11  5  1  0
 12  3  2  0
 13 11  1  0
  1 14  1  0
  1 15  1  0
  1 16  1  0
  4 17  1  1
  5 18  1  0
  5 19  1  0
  6 20  1  0
  6 21  1  0
  9 22  1  0
  9 23  1  0
 10 24  1  0
 11 25  1  0
 11 26  1  0
M  END
>  <mol_id>  (50) 
2026-09-16-6tgu-s0-n100-0050

>  <rmsd_to_ref>  (50) 


$$$$

     RDKit          3D

 44 46  0  0  0  0  0  0  0  0999 V2000
    2.3980   24.2740   30.4340 C   0  0  1  0  0  0  0  0  0  0  0  0
    2.2180   15.0390   40.3630 C   0  0  0  0  0  0  0  0  0  0  0  0
    1.0450   24.4210   31.6920 S   0  0  0  0  0  0  0  0  0  0  0  0
    1.8800   14.2180   41.2350 O   0  0  0  0  0  0  0  0  0  0  0  0
    3.5080   23.2800   31.3350 C   0  0  1  0  0  0  0  0  0  0  0  0
    3.0950   17.2060   39.3280 O   0  0  0  0  0  0  0  0  0  0  0  0
    3.0180   19.9090   39.1810 S   0  0  0  0  0  6  0  0  0  0  0  0
    1.9790   25.0050   29.1330 C   0  0  0  0  0  0  0  0  0  0  0  0
    2.6620   23.3680   32.3200 C   0  0  0  0  0  0  0  0  0  0  0  0
    2.9550   20.2460   37.7720 N   0  0  0  0  0  0  0  0  0  0  0  0
    1.5720   18.3470   40.6370 O   0  0  0  0  0  0  0  0  0  0  0  0
    4.2320   19.8090   39.7270 O   0  0  0  0  0  0  0  0  0  0  0  0
    1.4810   17.1410   41.0220 C   0  0  0  0  0  0  0  0  0  0  0  0
    2.5860   14.4570   39.0930 O   0  0  0  0  0  0  0  0  0  0  0  0
    2.2750   22.6720   35.1630 C   0  0  0  0  0  0  0  0  0  0  0  0
    2.2370   21.1980   37.2060 C   0  0  0  0  0  0  0  0  0  0  0  0
    3.7040   22.3540   33.5300 C   0  0  0  0  0  0  0  0  0  0  0  0
    4.9220   23.8000   31.3770 C   0  0  0  0  0  0  0  0  0  0  0  0
    3.9700   24.2900   30.3560 C   0  0  2  0  0  0  0  0  0  0  0  0
    2.2140   16.3150   40.3600 C   0  0  2  0  0  0  0  0  0  0  0  0
    2.9240   18.2340   39.6190 C   0  0  1  0  0  0  0  0  0  0  0  0
    2.1290   20.7210   39.8710 O   0  0  0  0  0  0  0  0  0  0  0  0
    2.5630   21.3680   36.0330 C   0  0  0  0  0  0  0  0  0  0  0  0
    2.5040   22.8080   33.6650 C   0  0  0  0  0  0  0  0  0  0  0  0
    1.5832   24.3625   32.9505 H   0  0  0  0  0  0  0  0  0  0  0  0
    1.4470   25.9331   29.3890 H   0  0  0  0  0  0  0  0  0  0  0  0
    2.8755   25.2470   28.5434 H   0  0  0  0  0  0  0  0  0  0  0  0
    1.3171   24.3537   28.5434 H   0  0  0  0  0  0  0  0  0  0  0  0
    2.6537   24.4497   32.5194 H   0  0  0  0  0  0  0  0  0  0  0  0
    1.9528   22.6602   31.8661 H   0  0  0  0  0  0  0  0  0  0  0  0
    3.9278   20.4578   37.5082 H   0  0  0  0  0  0  0  0  0  0  0  0
    1.7790   17.0940   42.0798 H   0  0  0  0  0  0  0  0  0  0  0  0
    0.4370   16.8365   40.8569 H   0  0  0  0  0  0  0  0  0  0  0  0
    1.8759   23.5502   35.6916 H   0  0  0  0  0  0  0  0  0  0  0  0
    1.1745   20.9161   37.2450 H   0  0  0  0  0  0  0  0  0  0  0  0
    2.4122   22.1358   37.7535 H   0  0  0  0  0  0  0  0  0  0  0  0
    4.1676   21.7749   34.3423 H   0  0  0  0  0  0  0  0  0  0  0  0
    4.2636   22.5460   32.6026 H   0  0  0  0  0  0  0  0  0  0  0  0
    5.2423   24.4618   32.1952 H   0  0  0  0  0  0  0  0  0  0  0  0
    5.9229   23.3441   31.3569 H   0  0  0  0  0  0  0  0  0  0  0  0
    4.3649   24.8957   29.5270 H   0  0  0  0  0  0  0  0  0  0  0  0
    1.3792   16.3107   39.6437 H   0  0  0  0  0  0  0  0  0  0  0  0
    4.0037   18.0816   39.4739 H   0  0  0  0  0  0  0  0  0  0  0  0
    3.1021   20.5460   35.5393 H   0  0  0  0  0  0  0  0  0  0  0  0
  1  8  1  0
  1  5  1  0
  1  3  1  1
  2  4  1  0
  5 18  1  0
  5  9  1  6
  6 21  1  0
  6 20  1  0
  7 12  2  0
  7 22  2  0
  9 24  1  0
 10  7  1  0
 11 13  1  0
 14  2  2  0
 15 23  2  3
 16 10  1  0
 17 24  2  3
 19  1  1  0
 19  5  1  0
 19 18  1  0
 20  2  1  0
 20 13  1  0
 21  7  1  0
 21 11  1  0
 23 16  1  0
 24 15  1  0
  3 25  1  0
  8 26  1  0
  8 27  1  0
  8 28  1  0
  9 29  1  0
  9 30  1  0
 10 31  1  0
 13 32  1  0
 13 33  1  0
 15 34  1  0
 16 35  1  0
 16 36  1  0
 17 37  1  0
 17 38  1  0
 18 39  1  0
 18 40  1  0
 19 41  1  6
 20 42  1  1
 21 43  1  1
 23 44  1  0
M  CHG  1   4  -1
M  END
>  <mol_id>  (51) 
2026-09-16-6tgu-s0-n100-0051

>  <rmsd_to_ref>  (51) 


$$$$

     RDKit          3D

 41 41  0  0  0  0  0  0  0  0999 V2000
    3.0728   17.8486   40.4637 C   0  0  0  0  0  0  0  0  0  0  0  0
    3.4664   20.1601   37.2345 C   0  0  0  0  0  0  0  0  0  0  0  0
    1.2592   19.4334   41.2143 C   0  0  0  0  0  0  0  0  0  0  0  0
    2.1036   22.4012   34.6494 C   0  0  0  0  0  0  0  0  0  0  0  0
    3.0175   23.3776   33.9356 C   0  0  1  0  0  0  0  0  0  0  0  0
    2.8067   19.3413   38.3808 C   0  0  1  0  0  0  0  0  0  0  0  0
    1.5382   18.0379   40.7280 C   0  0  2  0  0  0  0  0  0  0  0  0
    4.7066   23.4845   34.2346 S   0  0  0  0  0  0  0  0  0  0  0  0
    2.6087   23.4707   32.2161 S   0  0  0  0  0  0  0  0  0  0  0  0
    2.6582   20.8608   36.4231 N   0  0  0  0  0  0  0  0  0  0  0  0
    1.1232   17.0402   41.6400 O   0  0  0  0  0  0  0  0  0  0  0  0
    5.0971   23.9216   32.6366 C   0  0  0  0  0  0  0  0  0  0  0  0
    3.9127   24.9847   30.4257 C   0  0  0  0  0  0  0  0  0  0  0  0
    3.7902   18.7623   39.5103 C   0  0  0  0  0  0  0  0  0  0  0  0
    4.0509   24.2295   31.7195 C   0  0  1  0  0  0  0  0  0  0  0  0
    4.6353   20.0768   36.9595 O   0  0  0  0  0  0  0  0  0  0  0  0
    1.9521   20.2989   39.1150 O   0  0  0  0  0  0  0  0  0  0  0  0
    3.1976   21.6261   35.3727 C   0  0  0  0  0  0  0  0  0  0  0  0
    3.5768   17.9460   41.4367 H   0  0  0  0  0  0  0  0  0  0  0  0
    3.1240   16.8706   39.9629 H   0  0  0  0  0  0  0  0  0  0  0  0
    1.2489   19.4433   42.3141 H   0  0  0  0  0  0  0  0  0  0  0  0
    2.0434   20.1127   40.8488 H   0  0  0  0  0  0  0  0  0  0  0  0
    0.2811   19.7650   40.8354 H   0  0  0  0  0  0  0  0  0  0  0  0
    1.5317   21.7717   33.9518 H   0  0  0  0  0  0  0  0  0  0  0  0
    1.3090   22.8345   35.2746 H   0  0  0  0  0  0  0  0  0  0  0  0
    2.7614   24.2879   34.4975 H   0  0  0  0  0  0  0  0  0  0  0  0
    2.3226   18.4829   37.8922 H   0  0  0  0  0  0  0  0  0  0  0  0
    0.9591   17.9200   39.8002 H   0  0  0  0  0  0  0  0  0  0  0  0
    1.6390   20.8381   36.5701 H   0  0  0  0  0  0  0  0  0  0  0  0
    1.2758   17.3555   42.5660 H   0  0  0  0  0  0  0  0  0  0  0  0
    5.7425   24.8103   32.6963 H   0  0  0  0  0  0  0  0  0  0  0  0
    5.5462   23.0078   32.2203 H   0  0  0  0  0  0  0  0  0  0  0  0
    3.7037   26.0433   30.6396 H   0  0  0  0  0  0  0  0  0  0  0  0
    4.8480   24.9041   29.8525 H   0  0  0  0  0  0  0  0  0  0  0  0
    3.0853   24.5589   29.8392 H   0  0  0  0  0  0  0  0  0  0  0  0
    4.6009   18.2014   39.0223 H   0  0  0  0  0  0  0  0  0  0  0  0
    4.1863   19.6121   40.0855 H   0  0  0  0  0  0  0  0  0  0  0  0
    3.7672   25.1339   32.2777 H   0  0  0  0  0  0  0  0  0  0  0  0
    2.0490   20.1484   40.0887 H   0  0  0  0  0  0  0  0  0  0  0  0
    3.6970   20.9555   34.6578 H   0  0  0  0  0  0  0  0  0  0  0  0
    3.9180   22.3431   35.7932 H   0  0  0  0  0  0  0  0  0  0  0  0
  1  7  1  0
  2  6  1  0
  4 18  1  0
  5  8  1  0
  5  4  1  0
  6 17  1  0
  6 14  1  0
  7  3  1  0
  7 11  1  0
  9  5  1  0
 10  2  1  0
 12  8  1  0
 14  1  1  0
 15 13  1  0
 15  9  1  0
 15 12  1  0
 16  2  2  0
 18 10  1  0
  1 19  1  0
  1 20  1  0
  3 21  1  0
  3 22  1  0
  3 23  1  0
  4 24  1  0
  4 25  1  0
  5 26  1  1
  6 27  1  6
  7 28  1  6
 10 29  1  0
 11 30  1  0
 12 31  1  0
 12 32  1  0
 13 33  1  0
 13 34  1  0
 13 35  1  0
 14 36  1  0
 14 37  1  0
 15 38  1  1
 17 39  1  0
 18 40  1  0
 18 41  1  0
M  END
>  <mol_id>  (52) 
2026-09-16-6tgu-s0-n100-0052

>  <rmsd_to_ref>  (52) 


$$$$

     RDKit          3D

 39 40  0  0  0  0  0  0  0  0999 V2000
    4.6700   23.2120   31.3550 C   0  0  0  0  0  0  0  0  0  0  0  0
    4.3330   19.3700   39.7440 C   0  0  0  0  0  0  0  0  0  0  0  0
    4.0180   22.6090   32.2280 C   0  0  2  0  0  0  0  0  0  0  0  0
    1.2550   18.7020   41.4580 C   0  0  0  0  0  0  0  0  0  0  0  0
    4.3880   23.9500   30.6830 O   0  0  0  0  0  0  0  0  0  0  0  0
    3.6110   22.5400   33.5580 C   0  0  2  0  0  0  0  0  0  0  0  0
    1.9830   20.0330   39.6080 C   0  0  1  0  0  0  0  0  0  0  0  0
    2.1260   21.4060   36.0230 C   0  0  0  0  0  0  0  0  0  0  0  0
    4.4970   21.8810   34.5140 C   0  0  0  0  0  0  0  0  0  0  0  0
    1.2940   20.0020   40.7280 C   0  0  0  0  0  0  0  0  0  0  0  0
    2.6680   20.7260   37.3130 C   0  0  0  0  0  0  0  0  0  0  0  0
    2.9890   18.9770   39.3620 C   0  0  0  0  0  0  0  0  0  0  0  0
    5.2240   22.4160   31.8570 O   0  0  0  0  0  0  0  0  0  0  0  0
    2.9690   21.6190   34.7490 C   0  0  2  0  0  0  0  0  0  0  0  0
    0.0820   18.6490   42.2820 C   0  0  0  0  0  0  0  0  0  0  0  0
    1.9520   21.1080   38.5740 C   0  0  0  0  0  0  0  0  0  0  0  0
   -0.8050   18.4970   42.9710 C   0  0  0  0  0  0  0  0  0  0  0  0
    4.4105   19.3927   40.8410 H   0  0  0  0  0  0  0  0  0  0  0  0
    5.0556   18.6455   39.3402 H   0  0  0  0  0  0  0  0  0  0  0  0
    4.5514   20.3696   39.3402 H   0  0  0  0  0  0  0  0  0  0  0  0
    2.9491   22.3514   32.2613 H   0  0  0  0  0  0  0  0  0  0  0  0
    2.1508   18.6096   42.0896 H   0  0  0  0  0  0  0  0  0  0  0  0
    1.2299   17.8757   40.7324 H   0  0  0  0  0  0  0  0  0  0  0  0
    3.1347   23.4466   33.1564 H   0  0  0  0  0  0  0  0  0  0  0  0
    2.8013   20.5547   40.1259 H   0  0  0  0  0  0  0  0  0  0  0  0
    1.2575   20.8074   35.7110 H   0  0  0  0  0  0  0  0  0  0  0  0
    1.9964   22.4425   36.3677 H   0  0  0  0  0  0  0  0  0  0  0  0
    5.1346   21.0535   34.1695 H   0  0  0  0  0  0  0  0  0  0  0  0
    5.2981   22.2555   35.1682 H   0  0  0  0  0  0  0  0  0  0  0  0
    1.7276   20.7516   41.4063 H   0  0  0  0  0  0  0  0  0  0  0  0
    0.2529   20.1965   40.4308 H   0  0  0  0  0  0  0  0  0  0  0  0
    2.5821   19.6366   37.1874 H   0  0  0  0  0  0  0  0  0  0  0  0
    3.7065   21.0690   37.4307 H   0  0  0  0  0  0  0  0  0  0  0  0
    2.7078   18.0843   39.9400 H   0  0  0  0  0  0  0  0  0  0  0  0
    3.0001   18.7807   38.2797 H   0  0  0  0  0  0  0  0  0  0  0  0
    2.0781   20.9763   34.8050 H   0  0  0  0  0  0  0  0  0  0  0  0
    0.9027   21.3288   38.3286 H   0  0  0  0  0  0  0  0  0  0  0  0
    2.4676   21.9844   38.9936 H   0  0  0  0  0  0  0  0  0  0  0  0
   -1.6659   18.3495   43.6397 H   0  0  0  0  0  0  0  0  0  0  0  0
  1 13  1  0
  3  1  1  0
  3  6  1  0
  4 15  1  0
  5  1  2  0
  6  9  1  0
  6 14  1  0
  7 16  1  0
  7 10  1  0
  8 11  1  0
  9 14  1  0
 10  4  1  0
 11 16  1  0
 12  7  1  0
 12  2  1  0
 13  3  1  0
 14  8  1  0
 15 17  3  0
  2 18  1  0
  2 19  1  0
  2 20  1  0
  3 21  1  6
  4 22  1  0
  4 23  1  0
  6 24  1  1
  7 25  1  6
  8 26  1  0
  8 27  1  0
  9 28  1  0
  9 29  1  0
 10 30  1  0
 10 31  1  0
 11 32  1  0
 11 33  1  0
 12 34  1  0
 12 35  1  0
 14 36  1  6
 16 37  1  0
 16 38  1  0
 17 39  1  0
M  END
>  <mol_id>  (53) 
2026-09-16-6tgu-s0-n100-0053

>  <rmsd_to_ref>  (53) 


$$$$

     RDKit          3D

 45 45  0  0  0  0  0  0  0  0999 V2000
    5.2790   15.5660   36.7850 N   0  0  0  0  0  0  0  0  0  0  0  0
    1.3950   22.0610   36.8140 O   0  0  0  0  0  0  0  0  0  0  0  0
    1.8980   20.5220   40.6760 C   0  0  0  0  0  0  0  0  0  0  0  0
   -1.0770   20.4890   43.0250 C   0  0  0  0  0  0  0  0  0  0  0  0
    3.8750   22.5400   32.2490 C   0  0  0  0  0  0  0  0  0  0  0  0
    2.6560   15.6900   37.7480 C   0  0  0  0  0  0  0  0  0  0  0  0
    2.6250   24.7820   32.1850 C   0  0  0  0  0  0  0  0  0  0  0  0
    2.3310   21.2960   36.8700 C   0  0  0  0  0  0  0  0  0  0  0  0
    3.0770   18.1340   38.2990 C   0  0  0  0  0  0  0  0  0  0  0  0
    2.9460   19.2160   37.5700 N   0  0  0  0  0  0  0  0  0  0  0  0
    5.4260   13.5270   36.2280 N   0  0  0  0  0  0  0  0  0  0  0  0
    3.5310   22.2320   33.5660 C   0  0  0  0  0  0  0  0  0  0  0  0
    4.5660   14.3540   36.8820 C   0  0  0  0  0  0  0  0  0  0  0  0
    0.9680   21.0990   41.5620 C   0  0  0  0  0  0  0  0  0  0  0  0
    2.9270   22.2300   34.6820 C   0  0  0  0  0  0  0  0  0  0  0  0
    4.5990   16.7010   37.2960 C   0  0  0  0  0  0  0  0  0  0  0  0
    3.2310   14.3830   37.3770 C   0  0  0  0  0  0  0  0  0  0  0  0
    4.0430   23.9750   30.1830 C   0  0  0  0  0  0  0  0  0  0  0  0
    1.9380   20.7760   39.3220 C   0  0  0  0  0  0  0  0  0  0  0  0
    3.4360   16.8190   37.7500 C   0  0  0  0  0  0  0  0  0  0  0  0
    2.4290   20.3650   38.0380 C   0  0  0  0  0  0  0  0  0  0  0  0
    3.5380   23.7630   31.6000 C   0  0  0  0  0  0  0  0  0  0  0  0
    3.2110   21.3340   35.8140 N   0  0  0  0  0  0  0  0  0  0  0  0
    2.9300   18.1440   39.5810 O   0  0  0  0  0  0  0  0  0  0  0  0
   -0.0770   20.7280   42.2780 C   0  0  0  0  0  0  0  0  0  0  0  0
    2.6399   19.8240   41.0911 H   0  0  0  0  0  0  0  0  0  0  0  0
   -1.9425   20.2821   43.6716 H   0  0  0  0  0  0  0  0  0  0  0  0
    4.4419   21.7916   31.6759 H   0  0  0  0  0  0  0  0  0  0  0  0
    1.5938   15.7600   38.0252 H   0  0  0  0  0  0  0  0  0  0  0  0
    2.6721   24.7294   33.2827 H   0  0  0  0  0  0  0  0  0  0  0  0
    2.9329   25.7843   31.8524 H   0  0  0  0  0  0  0  0  0  0  0  0
    1.5951   24.5856   31.8524 H   0  0  0  0  0  0  0  0  0  0  0  0
    5.1965   12.5291   36.1166 H   0  0  0  0  0  0  0  0  0  0  0  0
    6.3066   13.8989   35.8443 H   0  0  0  0  0  0  0  0  0  0  0  0
    1.6267   21.5286   42.3312 H   0  0  0  0  0  0  0  0  0  0  0  0
    0.3461   21.4984   40.7473 H   0  0  0  0  0  0  0  0  0  0  0  0
    2.1186   22.9640   34.8150 H   0  0  0  0  0  0  0  0  0  0  0  0
    5.1883   17.6298   37.2937 H   0  0  0  0  0  0  0  0  0  0  0  0
    2.6454   13.4575   37.4798 H   0  0  0  0  0  0  0  0  0  0  0  0
    5.0568   24.4006   30.2149 H   0  0  0  0  0  0  0  0  0  0  0  0
    4.0666   23.0108   29.6540 H   0  0  0  0  0  0  0  0  0  0  0  0
    3.3713   24.6671   29.6540 H   0  0  0  0  0  0  0  0  0  0  0  0
    1.3359   21.6811   39.1537 H   0  0  0  0  0  0  0  0  0  0  0  0
    4.4051   24.3151   31.9916 H   0  0  0  0  0  0  0  0  0  0  0  0
    4.0556   20.7445   35.8154 H   0  0  0  0  0  0  0  0  0  0  0  0
  1 13  1  0
  1 16  2  0
  2  8  2  0
  3 14  1  0
  5 12  2  0
  6 20  2  0
  8 21  1  0
  9 24  2  0
 10 21  2  3
 10  9  1  0
 11 13  1  0
 12 15  2  0
 13 17  2  0
 14 25  1  0
 15 23  1  0
 16 20  1  0
 17  6  1  0
 18 22  1  0
 19  3  2  3
 20  9  1  0
 21 19  1  0
 22  7  1  0
 22  5  1  0
 23  8  1  0
 25  4  3  0
  3 26  1  0
  4 27  1  0
  5 28  1  0
  6 29  1  0
  7 30  1  0
  7 31  1  0
  7 32  1  0
 11 33  1  0
 11 34  1  0
 14 35  1  0
 14 36  1  0
 15 37  1  0
 16 38  1  0
 17 39  1  0
 18 40  1  0
 18 41  1  0
 18 42  1  0
 19 43  1  0
 22 44  1  0
 23 45  1  0
M  END
>  <mol_id>  (54) 
2026-09-16-6tgu-s0-n100-0054

>  <rmsd_to_ref>  (54) 


$$$$

     RDKit          3D

 63 66  0  0  0  0  0  0  0  0999 V2000
    1.3611   28.7771   34.3961 C   0  0  0  0  0  0  0  0  0  0  0  0
    0.7966   20.1023   41.4163 C   0  0  0  0  0  0  0  0  0  0  0  0
    2.8360   25.1035   34.6480 C   0  0  0  0  0  0  0  0  0  0  0  0
    3.2734   21.9401   36.2418 C   0  0  0  0  0  0  0  0  0  0  0  0
    0.2049   17.3930   42.6614 C   0  0  0  0  0  0  0  0  0  0  0  0
   -0.0132   28.4207   29.6843 C   0  0  0  0  0  0  0  0  0  0  0  0
    0.8851   17.5184   41.4170 C   0  0  1  0  0  0  0  0  0  0  0  0
    3.0885   17.3241   38.0145 C   0  0  0  0  0  0  0  0  0  0  0  0
    3.7669   22.4213   34.9021 C   0  0  0  0  0  0  0  0  0  0  0  0
    2.5744   19.8910   38.7347 C   0  0  0  0  0  0  0  0  0  0  0  0
    3.2161   23.9076   34.6863 C   0  0  0  0  0  0  0  0  0  0  0  0
    2.1444   18.8920   39.6578 C   0  0  0  0  0  0  0  0  0  0  0  0
    1.4038   16.4108   40.7558 C   0  0  0  0  0  0  0  0  0  0  0  0
    3.4988   14.1319   38.4961 N   0  0  0  0  0  0  0  0  0  0  0  0
    1.8966   26.9901   32.9508 C   0  0  1  0  0  0  0  0  0  0  0  0
    1.1340   21.4488   40.7718 C   0  0  0  0  0  0  0  0  0  0  0  0
    0.7004   29.6205   30.1190 C   0  0  1  0  0  0  0  0  0  0  0  0
    2.4599   17.8774   39.3009 C   0  0  0  0  0  0  0  0  0  0  0  0
    0.9449   28.3122   30.6090 C   0  0  1  0  0  0  0  0  0  0  0  0
    2.0330   30.2686   30.2282 F   0  0  0  0  0  0  0  0  0  0  0  0
    2.0870   16.6877   39.7966 N   0  0  0  0  0  0  0  0  0  0  0  0
    0.2140   20.1655   42.5758 O   0  0  0  0  0  0  0  0  0  0  0  0
    3.5648   20.6049   36.4554 O   0  0  0  0  0  0  0  0  0  0  0  0
    1.1811   18.8035   40.9108 N   0  0  0  0  0  0  0  0  0  0  0  0
    3.1804   19.7378   37.4708 C   0  0  0  0  0  0  0  0  0  0  0  0
    3.6428   18.3281   37.2185 C   0  0  0  0  0  0  0  0  0  0  0  0
    1.3738   27.4345   31.4277 N   0  0  0  0  0  0  0  0  0  0  0  0
    1.8491   28.3223   32.6649 C   0  0  1  0  0  0  0  0  0  0  0  0
    1.3556   15.2401   41.2065 O   0  0  0  0  0  0  0  0  0  0  0  0
    1.2802   29.2997   33.2758 C   0  0  0  0  0  0  0  0  0  0  0  0
    1.7146   26.5585   34.2107 C   0  0  2  0  0  0  0  0  0  0  0  0
    3.0455   14.5496   38.6490 N   0  0  0  0  0  0  0  0  0  0  0  0
    1.4477   27.6640   35.0946 C   0  0  0  0  0  0  0  0  0  0  0  0
    0.4646   29.2120   34.8621 H   0  0  0  0  0  0  0  0  0  0  0  0
    2.4584   28.8148   34.3292 H   0  0  0  0  0  0  0  0  0  0  0  0
    2.1828   22.0768   36.2879 H   0  0  0  0  0  0  0  0  0  0  0  0
    3.7827   22.5265   37.0207 H   0  0  0  0  0  0  0  0  0  0  0  0
    0.9363   17.4137   43.4828 H   0  0  0  0  0  0  0  0  0  0  0  0
   -0.5019   18.2276   42.7786 H   0  0  0  0  0  0  0  0  0  0  0  0
   -0.3451   16.4407   42.6842 H   0  0  0  0  0  0  0  0  0  0  0  0
   -1.0665   28.2769   29.9670 H   0  0  0  0  0  0  0  0  0  0  0  0
   -0.2066   27.9456   28.7112 H   0  0  0  0  0  0  0  0  0  0  0  0
    1.8383   17.6461   41.9508 H   0  0  0  0  0  0  0  0  0  0  0  0
    3.8808   16.6113   38.2867 H   0  0  0  0  0  0  0  0  0  0  0  0
    2.2909   16.8378   37.4337 H   0  0  0  0  0  0  0  0  0  0  0  0
    4.8668   22.4235   34.8867 H   0  0  0  0  0  0  0  0  0  0  0  0
    3.4113   21.7583   34.0996 H   0  0  0  0  0  0  0  0  0  0  0  0
    2.4096   20.9304   39.0549 H   0  0  0  0  0  0  0  0  0  0  0  0
    2.3993   26.0306   33.1422 H   0  0  0  0  0  0  0  0  0  0  0  0
    1.2950   22.2014   41.5577 H   0  0  0  0  0  0  0  0  0  0  0  0
    2.0479   21.3477   40.1681 H   0  0  0  0  0  0  0  0  0  0  0  0
    0.3013   21.7652   40.1263 H   0  0  0  0  0  0  0  0  0  0  0  0
    0.2551   30.6219   30.0258 H   0  0  0  0  0  0  0  0  0  0  0  0
    1.7568   27.8497   31.1894 H   0  0  0  0  0  0  0  0  0  0  0  0
    2.4414   15.8745   39.2731 H   0  0  0  0  0  0  0  0  0  0  0  0
    3.4110   18.0860   36.1709 H   0  0  0  0  0  0  0  0  0  0  0  0
    4.7138   18.3311   37.4697 H   0  0  0  0  0  0  0  0  0  0  0  0
    2.5879   29.1318   32.7598 H   0  0  0  0  0  0  0  0  0  0  0  0
    1.8425   30.2419   33.1985 H   0  0  0  0  0  0  0  0  0  0  0  0
    0.2867   29.6172   32.9262 H   0  0  0  0  0  0  0  0  0  0  0  0
    0.7750   26.0091   34.3697 H   0  0  0  0  0  0  0  0  0  0  0  0
    2.2643   27.7533   35.8261 H   0  0  0  0  0  0  0  0  0  0  0  0
    0.4984   27.4889   35.6221 H   0  0  0  0  0  0  0  0  0  0  0  0
  1 33  1  0
  2 22  2  0
  3 11  3  0
  4 23  1  0
  6 17  1  0
  6 19  1  0
  7  5  1  0
  8 18  1  0
  9  4  1  0
 10 12  1  0
 11  9  1  0
 12 24  1  0
 13 29  2  0
 13  7  1  0
 14 32  3  0
 15 31  1  0
 16  2  1  0
 17 20  1  0
 17 19  1  0
 18 12  2  0
 18 21  1  0
 19 27  1  0
 21 13  1  0
 23 25  1  0
 24  2  1  0
 24  7  1  0
 25 10  2  0
 26 25  1  0
 26  8  1  0
 27 28  1  0
 27 15  1  0
 28 15  1  0
 28 30  1  0
 30  1  1  0
 31  3  1  0
 31 33  1  0
  1 34  1  0
  1 35  1  0
  4 36  1  0
  4 37  1  0
  5 38  1  0
  5 39  1  0
  5 40  1  0
  6 41  1  0
  6 42  1  0
  7 43  1  6
  8 44  1  0
  8 45  1  0
  9 46  1  0
  9 47  1  0
 10 48  1  0
 15 49  1  6
 16 50  1  0
 16 51  1  0
 16 52  1  0
 17 53  1  1
 19 54  1  6
 21 55  1  0
 26 56  1  0
 26 57  1  0
 28 58  1  6
 30 59  1  0
 30 60  1  0
 31 61  1  6
 33 62  1  0
 33 63  1  0
M  END
>  <mol_id>  (55) 
2026-09-16-6tgu-s0-n100-0055

>  <rmsd_to_ref>  (55) 


$$$$

     RDKit          3D

 45 47  0  0  0  0  0  0  0  0999 V2000
    2.0940   16.9810   40.4640 C   0  0  0  0  0  0  0  0  0  0  0  0
    3.0540   20.1120   37.3660 C   0  0  0  0  0  0  0  0  0  0  0  0
    3.5680   17.8220   37.7850 C   0  0  0  0  0  0  0  0  0  0  0  0
    0.6820   17.7120   42.1870 C   0  0  0  0  0  0  0  0  0  0  0  0
    1.9070   25.6260   31.1720 C   0  0  0  0  0  0  0  0  0  0  0  0
    3.0410   20.8380   36.3900 C   0  0  0  0  0  0  0  0  0  0  0  0
    2.3440   24.7100   33.3660 C   0  0  1  0  0  0  0  0  0  0  0  0
    0.3250   27.2270   32.0420 O   0  0  0  0  0  0  0  0  0  0  0  0
    1.1230   25.5140   33.5120 C   0  0  0  0  0  0  0  0  0  0  0  0
    3.1970   22.4730   34.3870 C   0  0  0  0  0  0  0  0  0  0  0  0
    3.6050   16.5660   38.3950 C   0  0  0  0  0  0  0  0  0  0  0  0
    4.1190   22.5320   33.5890 O   0  0  0  0  0  0  0  0  0  0  0  0
    4.4270   15.5900   37.8230 C   0  0  0  0  0  0  0  0  0  0  0  0
    0.7410   25.8960   32.1020 C   0  0  2  0  0  0  0  0  0  0  0  0
    1.0070   22.5650   33.5640 O   0  0  0  0  0  0  0  0  0  0  0  0
    1.9790   18.3470   40.4190 C   0  0  0  0  0  0  0  0  0  0  0  0
    1.2750   16.5300   41.5370 C   0  0  0  0  0  0  0  0  0  0  0  0
    2.9930   19.0180   38.3410 C   0  0  0  0  0  0  0  0  0  0  0  0
    1.1750   18.6480   41.4510 C   0  0  0  0  0  0  0  0  0  0  0  0
    2.9510   21.5830   35.4470 N   0  0  0  0  0  0  0  0  0  0  0  0
    4.0950   17.9970   36.6270 O   0  0  0  0  0  0  0  0  0  0  0  0
    2.7930   16.2200   39.4980 C   0  0  0  0  0  0  0  0  0  0  0  0
    2.0060   23.4350   34.1730 C   0  0  2  0  0  0  0  0  0  0  0  0
    2.4060   19.2270   39.6090 N   0  0  0  0  0  0  0  0  0  0  0  0
    2.7130   24.5140   31.8690 C   0  0  0  0  0  0  0  0  0  0  0  0
    0.0091   17.7770   43.0547 H   0  0  0  0  0  0  0  0  0  0  0  0
    2.5210   26.5301   31.0470 H   0  0  0  0  0  0  0  0  0  0  0  0
    1.5768   25.3320   30.1648 H   0  0  0  0  0  0  0  0  0  0  0  0
    3.2658   25.1679   33.7541 H   0  0  0  0  0  0  0  0  0  0  0  0
    0.2147   27.5800   32.9603 H   0  0  0  0  0  0  0  0  0  0  0  0
    0.3239   24.9228   33.9832 H   0  0  0  0  0  0  0  0  0  0  0  0
    1.2801   26.3945   34.1524 H   0  0  0  0  0  0  0  0  0  0  0  0
    4.9158   15.0096   38.6194 H   0  0  0  0  0  0  0  0  0  0  0  0
    3.8189   14.9177   37.1998 H   0  0  0  0  0  0  0  0  0  0  0  0
    5.1929   16.0749   37.1998 H   0  0  0  0  0  0  0  0  0  0  0  0
   -0.1110   25.2814   31.7759 H   0  0  0  0  0  0  0  0  0  0  0  0
    0.4869   22.1120   34.2742 H   0  0  0  0  0  0  0  0  0  0  0  0
    1.1130   15.4822   41.8299 H   0  0  0  0  0  0  0  0  0  0  0  0
    0.9357   19.6992   41.6696 H   0  0  0  0  0  0  0  0  0  0  0  0
    1.9294   21.5220   35.3306 H   0  0  0  0  0  0  0  0  0  0  0  0
    4.5187   17.2363   36.1559 H   0  0  0  0  0  0  0  0  0  0  0  0
    2.6812   15.1342   39.6337 H   0  0  0  0  0  0  0  0  0  0  0  0
    1.6517   23.8950   35.1073 H   0  0  0  0  0  0  0  0  0  0  0  0
    2.4070   23.5195   31.5122 H   0  0  0  0  0  0  0  0  0  0  0  0
    3.7942   24.5723   31.6752 H   0  0  0  0  0  0  0  0  0  0  0  0
  1 17  1  0
  2 18  1  0
  3 18  1  0
  3 11  2  0
  5 25  1  0
  5 14  1  0
  6  2  3  0
  7  9  1  0
  7 23  1  0
 10 20  1  0
 11 22  1  0
 12 10  2  0
 13 11  1  0
 14  8  1  0
 14  9  1  0
 16  1  1  0
 16 19  2  0
 17  4  2  0
 18 24  2  0
 19  4  1  0
 20  6  1  0
 21  3  1  0
 22  1  2  0
 23 15  1  0
 23 10  1  0
 24 16  1  0
 25  7  1  0
  4 26  1  0
  5 27  1  0
  5 28  1  0
  7 29  1  1
  8 30  1  0
  9 31  1  0
  9 32  1  0
 13 33  1  0
 13 34  1  0
 13 35  1  0
 14 36  1  6
 15 37  1  0
 17 38  1  0
 19 39  1  0
 20 40  1  0
 21 41  1  0
 22 42  1  0
 23 43  1  1
 25 44  1  0
 25 45  1  0
M  END
>  <mol_id>  (56) 
2026-09-16-6tgu-s0-n100-0056

>  <rmsd_to_ref>  (56) 


$$$$

     RDKit          3D

 26 26  0  0  0  0  0  0  0  0999 V2000
    3.7660   22.4620   35.1930 C   0  0  2  0  0  0  0  0  0  0  0  0
    2.3010   22.1320   37.8090 S   0  0  0  0  0  0  0  0  0  0  0  0
    2.4830   21.8720   34.4620 C   0  0  0  0  0  0  0  0  0  0  0  0
    2.1240   24.1870   34.7780 O   0  0  0  0  0  0  0  0  0  0  0  0
    3.2810   19.2550   37.5370 C   0  0  0  0  0  0  0  0  0  0  0  0
    3.7070   24.0210   32.9080 C   0  0  0  0  0  0  0  0  0  0  0  0
    4.1960   19.2390   38.8180 C   0  0  0  0  0  0  0  0  0  0  0  0
    3.4760   21.6860   36.5680 C   0  0  1  0  0  0  0  0  0  0  0  0
    3.8420   20.3320   36.6890 C   0  0  0  0  0  0  0  0  0  0  0  0
    2.9650   23.2900   34.2140 C   0  0  1  0  0  0  0  0  0  0  0  0
    4.8303   22.6772   35.3689 H   0  0  0  0  0  0  0  0  0  0  0  0
    2.8457   21.9253   39.0490 H   0  0  0  0  0  0  0  0  0  0  0  0
    2.5926   21.1041   33.6820 H   0  0  0  0  0  0  0  0  0  0  0  0
    1.5396   21.4041   34.7801 H   0  0  0  0  0  0  0  0  0  0  0  0
    2.1850   24.1219   35.7640 H   0  0  0  0  0  0  0  0  0  0  0  0
    3.3261   18.2874   37.0158 H   0  0  0  0  0  0  0  0  0  0  0  0
    2.2227   19.4270   37.7830 H   0  0  0  0  0  0  0  0  0  0  0  0
    4.4475   24.7505   33.2680 H   0  0  0  0  0  0  0  0  0  0  0  0
    4.2114   23.2571   32.2980 H   0  0  0  0  0  0  0  0  0  0  0  0
    2.9507   24.5367   32.2980 H   0  0  0  0  0  0  0  0  0  0  0  0
    3.5654   19.2500   39.7192 H   0  0  0  0  0  0  0  0  0  0  0  0
    4.8153   18.3299   38.8149 H   0  0  0  0  0  0  0  0  0  0  0  0
    4.8467   20.1259   38.8149 H   0  0  0  0  0  0  0  0  0  0  0  0
    4.2346   22.4488   36.7976 H   0  0  0  0  0  0  0  0  0  0  0  0
    3.7499   19.9395   35.6656 H   0  0  0  0  0  0  0  0  0  0  0  0
    4.7697   20.4889   37.2589 H   0  0  0  0  0  0  0  0  0  0  0  0
  1  8  1  0
  3  1  1  0
  5  7  1  0
  8  9  1  0
  8  2  1  0
  9  5  1  0
 10  6  1  0
 10  3  1  0
 10  4  1  1
 10  1  1  0
  1 11  1  6
  2 12  1  0
  3 13  1  0
  3 14  1  0
  4 15  1  0
  5 16  1  0
  5 17  1  0
  6 18  1  0
  6 19  1  0
  6 20  1  0
  7 21  1  0
  7 22  1  0
  7 23  1  0
  8 24  1  1
  9 25  1  0
  9 26  1  0
M  END
>  <mol_id>  (57) 
2026-09-16-6tgu-s0-n100-0057

>  <rmsd_to_ref>  (57) 


$$$$

     RDKit          3D

 89 93  0  0  0  0  0  0  0  0999 V2000
   -1.1025   20.0613   43.2214 C   0  0  0  0  0  0  0  0  0  0  0  0
    3.1907   24.1954   25.8326 C   0  0  0  0  0  0  0  0  0  0  0  0
    3.3956   23.2799   27.0032 C   0  0  2  0  0  0  0  0  0  0  0  0
    3.1129   23.5584   28.5001 C   0  0  2  0  0  0  0  0  0  0  0  0
    5.2642   24.3792   27.7605 C   0  0  0  0  0  0  0  0  0  0  0  0
    4.1185   20.0629   37.7412 C   0  0  1  0  0  0  0  0  0  0  0  0
    4.3710   17.3952   38.1709 C   0  0  0  0  0  0  0  0  0  0  0  0
    2.9533   20.7514   38.2840 O   0  0  0  0  0  0  0  0  0  0  0  0
    1.2755   19.2288   42.8472 C   0  0  0  0  0  0  0  0  0  0  0  0
    1.9568   24.9412   32.7154 C   0  0  2  0  0  0  0  0  0  0  0  0
    0.5703   21.7051   41.6032 S   0  0  0  0  0  0  0  0  0  0  0  0
    2.8623   20.6899   39.5952 C   0  0  1  0  0  0  0  0  0  0  0  0
    4.1359   18.8235   38.1401 N   0  0  0  0  0  0  0  0  0  0  0  0
    4.3195   20.7925   36.3759 C   0  0  0  0  0  0  0  0  0  0  0  0
    4.7851   23.1331   27.2394 N   0  0  0  0  0  0  0  0  0  0  0  0
    5.6021   16.8856   37.6602 C   0  0  0  0  0  0  0  0  0  0  0  0
    1.6068   21.3063   40.2695 C   0  0  1  0  0  0  0  0  0  0  0  0
    2.4999   26.0230   30.3650 S   0  0  1  0  0  4  0  0  0  0  0  0
    6.9014   21.9414   27.8161 C   0  0  0  0  0  0  0  0  0  0  0  0
    2.9295   24.7009   31.6575 C   0  0  0  0  0  0  0  0  0  0  0  0
    1.6564   23.5716   28.7742 C   0  0  0  0  0  0  0  0  0  0  0  0
    0.5406   17.9388   42.9309 C   0  0  0  0  0  0  0  0  0  0  0  0
    2.5974   24.9012   28.9374 C   0  0  2  0  0  0  0  0  0  0  0  0
    0.2195   20.1976   42.4561 C   0  0  0  0  0  0  0  0  0  0  0  0
    1.8057   23.7541   33.6104 C   0  0  0  0  0  0  0  0  0  0  0  0
   -0.3726   17.7917   44.0733 C   0  0  0  0  0  0  0  0  0  0  0  0
   -0.7761   19.2841   44.4640 C   0  0  0  0  0  0  0  0  0  0  0  0
    5.7383   23.0254   28.1499 C   0  0  1  0  0  0  0  0  0  0  0  0
    3.1794   23.1821   34.0856 C   0  0  0  0  0  0  0  0  0  0  0  0
    0.7162   25.6340   32.1967 C   0  0  0  0  0  0  0  0  0  0  0  0
    0.7895   25.5407   30.6511 C   0  0  0  0  0  0  0  0  0  0  0  0
    2.1304   19.9111   40.5272 N   0  0  0  0  0  0  0  0  0  0  0  0
    3.0153   22.5044   35.3750 C   0  0  0  0  0  0  0  0  0  0  0  0
    4.0437   22.2129   36.3693 C   0  0  0  0  0  0  0  0  0  0  0  0
   -1.8428   19.5198   42.6141 H   0  0  0  0  0  0  0  0  0  0  0  0
   -1.5361   21.0437   43.4599 H   0  0  0  0  0  0  0  0  0  0  0  0
    2.8987   25.1926   26.1936 H   0  0  0  0  0  0  0  0  0  0  0  0
    4.1264   24.2725   25.2593 H   0  0  0  0  0  0  0  0  0  0  0  0
    2.3970   23.7924   25.1864 H   0  0  0  0  0  0  0  0  0  0  0  0
    2.6798   22.5370   26.6213 H   0  0  0  0  0  0  0  0  0  0  0  0
    3.9870   23.0061   28.8755 H   0  0  0  0  0  0  0  0  0  0  0  0
    4.6478   24.9816   28.4440 H   0  0  0  0  0  0  0  0  0  0  0  0
    5.6990   25.3102   27.3679 H   0  0  0  0  0  0  0  0  0  0  0  0
    5.1725   20.0826   38.0556 H   0  0  0  0  0  0  0  0  0  0  0  0
    4.3031   17.0799   39.2226 H   0  0  0  0  0  0  0  0  0  0  0  0
    3.6126   16.9881   37.4860 H   0  0  0  0  0  0  0  0  0  0  0  0
    1.7150   19.4960   43.8195 H   0  0  0  0  0  0  0  0  0  0  0  0
    2.1173   19.2001   42.1397 H   0  0  0  0  0  0  0  0  0  0  0  0
    2.3377   25.6939   33.4213 H   0  0  0  0  0  0  0  0  0  0  0  0
    3.9554   20.7817   39.5125 H   0  0  0  0  0  0  0  0  0  0  0  0
    4.6048   19.0175   39.0365 H   0  0  0  0  0  0  0  0  0  0  0  0
    3.4080   18.6384   37.4353 H   0  0  0  0  0  0  0  0  0  0  0  0
    5.3667   20.6516   36.0699 H   0  0  0  0  0  0  0  0  0  0  0  0
    3.5859   20.3447   35.6895 H   0  0  0  0  0  0  0  0  0  0  0  0
    6.2873   16.6773   38.4951 H   0  0  0  0  0  0  0  0  0  0  0  0
    5.4113   15.9571   37.1020 H   0  0  0  0  0  0  0  0  0  0  0  0
    6.0568   17.6296   36.9896 H   0  0  0  0  0  0  0  0  0  0  0  0
    1.1435   22.2117   39.8502 H   0  0  0  0  0  0  0  0  0  0  0  0
    3.0342   27.2838   30.3215 H   0  0  0  0  0  0  0  0  0  0  0  0
    7.3360   21.5689   28.7554 H   0  0  0  0  0  0  0  0  0  0  0  0
    6.4688   21.1009   27.2536 H   0  0  0  0  0  0  0  0  0  0  0  0
    7.6869   22.4203   27.2132 H   0  0  0  0  0  0  0  0  0  0  0  0
    2.8163   23.6895   31.2398 H   0  0  0  0  0  0  0  0  0  0  0  0
    3.9708   24.7614   32.0069 H   0  0  0  0  0  0  0  0  0  0  0  0
    0.9334   23.4986   27.9484 H   0  0  0  0  0  0  0  0  0  0  0  0
    0.9652   23.0057   29.4161 H   0  0  0  0  0  0  0  0  0  0  0  0
   -0.0511   17.8279   42.0102 H   0  0  0  0  0  0  0  0  0  0  0  0
    1.3116   17.1659   43.0653 H   0  0  0  0  0  0  0  0  0  0  0  0
    2.8607   25.9053   28.5734 H   0  0  0  0  0  0  0  0  0  0  0  0
    0.0485   19.7939   41.4473 H   0  0  0  0  0  0  0  0  0  0  0  0
    1.2229   24.0514   34.4946 H   0  0  0  0  0  0  0  0  0  0  0  0
    1.2971   22.9659   33.0358 H   0  0  0  0  0  0  0  0  0  0  0  0
   -1.2622   17.2117   43.7866 H   0  0  0  0  0  0  0  0  0  0  0  0
    0.0934   17.2535   44.9119 H   0  0  0  0  0  0  0  0  0  0  0  0
    0.0639   19.7653   44.9862 H   0  0  0  0  0  0  0  0  0  0  0  0
   -1.6569   19.2629   45.1226 H   0  0  0  0  0  0  0  0  0  0  0  0
    6.0248   22.7379   29.1724 H   0  0  0  0  0  0  0  0  0  0  0  0
    3.5537   22.4644   33.3407 H   0  0  0  0  0  0  0  0  0  0  0  0
    3.8976   24.0077   34.1978 H   0  0  0  0  0  0  0  0  0  0  0  0
   -0.1875   25.1283   32.5677 H   0  0  0  0  0  0  0  0  0  0  0  0
    0.6671   26.6794   32.5354 H   0  0  0  0  0  0  0  0  0  0  0  0
    0.0867   26.2366   30.1697 H   0  0  0  0  0  0  0  0  0  0  0  0
    0.5191   24.5565   30.2408 H   0  0  0  0  0  0  0  0  0  0  0  0
    1.5907   19.0999   40.1933 H   0  0  0  0  0  0  0  0  0  0  0  0
    2.3936   19.4027   41.3834 H   0  0  0  0  0  0  0  0  0  0  0  0
    2.2681   23.1055   35.9137 H   0  0  0  0  0  0  0  0  0  0  0  0
    2.8422   21.4823   35.0072 H   0  0  0  0  0  0  0  0  0  0  0  0
    3.6903   22.5224   37.3639 H   0  0  0  0  0  0  0  0  0  0  0  0
    4.9624   22.7636   36.1188 H   0  0  0  0  0  0  0  0  0  0  0  0
  1 27  1  0
  3  2  1  0
  3 15  1  0
  4  3  1  0
  4 21  1  0
  4 23  1  0
  5 28  1  0
  6 14  1  0
  6 13  1  0
  6  8  1  0
  7 13  1  0
  9 22  1  0
 10 25  1  0
 11 24  1  0
 12  8  1  0
 12 17  1  0
 12 32  1  0
 14 34  1  0
 15  5  1  0
 15 28  1  0
 16  7  1  0
 17 32  1  0
 17 11  1  0
 18 31  1  0
 18 20  1  0
 20 10  1  0
 22 26  1  0
 23 21  1  0
 23 18  1  0
 24  9  1  0
 24  1  1  0
 25 29  1  0
 26 27  1  0
 28 19  1  0
 29 33  1  0
 30 10  1  0
 31 30  1  0
 33 34  1  0
  1 35  1  0
  1 36  1  0
  2 37  1  0
  2 38  1  0
  2 39  1  0
  3 40  1  6
  4 41  1  1
  5 42  1  0
  5 43  1  0
  6 44  1  1
  7 45  1  0
  7 46  1  0
  9 47  1  0
  9 48  1  0
 10 49  1  1
 12 50  1  1
 13 51  1  0
 13 52  1  0
 14 53  1  0
 14 54  1  0
 16 55  1  0
 16 56  1  0
 16 57  1  0
 17 58  1  6
 18 59  1  6
 19 60  1  0
 19 61  1  0
 19 62  1  0
 20 63  1  0
 20 64  1  0
 21 65  1  0
 21 66  1  0
 22 67  1  0
 22 68  1  0
 23 69  1  6
 24 70  1  0
 25 71  1  0
 25 72  1  0
 26 73  1  0
 26 74  1  0
 27 75  1  0
 27 76  1  0
 28 77  1  1
 29 78  1  0
 29 79  1  0
 30 80  1  0
 30 81  1  0
 31 82  1  0
 31 83  1  0
 32 84  1  0
 32 85  1  0
 33 86  1  0
 33 87  1  0
 34 88  1  0
 34 89  1  0
M  CHG  2  13   1  32   1
M  END
>  <mol_id>  (58) 
2026-09-16-6tgu-s0-n100-0058

>  <rmsd_to_ref>  (58) 


$$$$

     RDKit          3D

 44 44  0  0  0  0  0  0  0  0999 V2000
    1.4770   17.0260   42.4290 O   0  0  0  0  0  0  0  0  0  0  0  0
    0.8420   18.0160   41.8920 C   0  0  0  0  0  0  0  0  0  0  0  0
    1.6730   18.9990   40.8960 C   0  0  0  0  0  0  0  0  0  0  0  0
    3.4840   25.5850   30.8480 C   0  0  2  0  0  0  0  0  0  0  0  0
    1.5440   26.1940   32.4230 C   0  0  0  0  0  0  0  0  0  0  0  0
    3.9800   20.3730   36.0790 O   0  0  0  0  0  0  0  0  0  0  0  0
    3.1040   20.9200   36.7830 C   0  0  0  0  0  0  0  0  0  0  0  0
    2.9310   18.9250   38.4260 C   0  0  1  0  0  0  0  0  0  0  0  0
    3.3610   23.2060   34.2760 C   0  0  0  0  0  0  0  0  0  0  0  0
    3.9340   24.4620   31.8770 C   0  0  0  0  0  0  0  0  0  0  0  0
    3.1740   24.3490   33.2620 C   0  0  0  0  0  0  0  0  0  0  0  0
    0.3890   18.8750   42.9280 O   0  0  0  0  0  0  0  0  0  0  0  0
    2.5630   17.0970   39.8130 O   0  0  0  0  0  0  0  0  0  0  0  0
    3.8990   18.1970   37.7050 O   0  0  0  0  0  0  0  0  0  0  0  0
    2.4790   18.2410   39.6640 C   0  0  0  0  0  0  0  0  0  0  0  0
    2.1210   25.4240   33.6130 C   0  0  0  0  0  0  0  0  0  0  0  0
    2.9480   23.2250   35.5600 C   0  0  0  0  0  0  0  0  0  0  0  0
    2.7460   20.3450   38.1270 C   0  0  0  0  0  0  0  0  0  0  0  0
    2.2900   22.1000   36.2360 N   0  0  0  0  0  0  0  0  0  0  0  0
    4.8520   17.1720   38.1110 C   0  0  0  0  0  0  0  0  0  0  0  0
    1.9800   26.0380   30.9750 C   0  0  0  0  0  0  0  0  0  0  0  0
    4.2210   25.5600   29.3820 Cl  0  0  0  0  0  0  0  0  0  0  0  0
    1.4298   17.0996   43.4151 H   0  0  0  0  0  0  0  0  0  0  0  0
    0.0701   17.5149   41.2894 H   0  0  0  0  0  0  0  0  0  0  0  0
    0.9624   19.7105   40.4501 H   0  0  0  0  0  0  0  0  0  0  0  0
    2.4456   19.4775   41.5158 H   0  0  0  0  0  0  0  0  0  0  0  0
    3.9578   26.5133   31.1999 H   0  0  0  0  0  0  0  0  0  0  0  0
    0.7464   26.9218   32.6331 H   0  0  0  0  0  0  0  0  0  0  0  0
    1.9321   18.9501   37.9659 H   0  0  0  0  0  0  0  0  0  0  0  0
    4.4462   23.0318   34.3216 H   0  0  0  0  0  0  0  0  0  0  0  0
    2.6659   22.4620   33.8598 H   0  0  0  0  0  0  0  0  0  0  0  0
    4.7580   23.7756   31.6324 H   0  0  0  0  0  0  0  0  0  0  0  0
    0.6014   18.4723   43.8071 H   0  0  0  0  0  0  0  0  0  0  0  0
    1.8073   25.6224   34.6485 H   0  0  0  0  0  0  0  0  0  0  0  0
    3.8455   23.4453   36.1567 H   0  0  0  0  0  0  0  0  0  0  0  0
    2.1157   23.9414   35.4970 H   0  0  0  0  0  0  0  0  0  0  0  0
    3.3403   20.8981   38.8692 H   0  0  0  0  0  0  0  0  0  0  0  0
    1.6510   20.4488   38.1438 H   0  0  0  0  0  0  0  0  0  0  0  0
    1.2658   22.1029   36.3448 H   0  0  0  0  0  0  0  0  0  0  0  0
    4.8950   17.1257   39.2092 H   0  0  0  0  0  0  0  0  0  0  0  0
    4.5324   16.1967   37.7151 H   0  0  0  0  0  0  0  0  0  0  0  0
    5.8479   17.4199   37.7151 H   0  0  0  0  0  0  0  0  0  0  0  0
    1.8571   27.0036   30.4627 H   0  0  0  0  0  0  0  0  0  0  0  0
    1.3541   25.2576   30.5176 H   0  0  0  0  0  0  0  0  0  0  0  0
  2  1  1  0
  2 12  1  0
  3  2  1  0
  4 22  1  0
  4 21  1  0
  4 10  1  0
  5 16  2  0
  6  7  2  0
  7 18  1  0
  8 18  1  0
  8 15  1  0
  9 17  1  0
 10 11  2  0
 11 16  1  0
 11  9  1  0
 14 20  1  0
 14  8  1  0
 15 13  2  0
 15  3  1  0
 17 19  1  0
 19  7  1  0
 21  5  1  0
  1 23  1  0
  2 24  1  0
  3 25  1  0
  3 26  1  0
  4 27  1  1
  5 28  1  0
  8 29  1  6
  9 30  1  0
  9 31  1  0
 10 32  1  0
 12 33  1  0
 16 34  1  0
 17 35  1  0
 17 36  1  0
 18 37  1  0
 18 38  1  0
 19 39  1  0
 20 40  1  0
 20 41  1  0
 20 42  1  0
 21 43  1  0
 21 44  1  0
M  END
>  <mol_id>  (59) 
2026-09-16-6tgu-s0-n100-0059

>  <rmsd_to_ref>  (59) 


$$$$

     RDKit          3D

 47 48  0  0  0  0  0  0  0  0999 V2000
    2.2030   19.0240   39.8990 C   0  0  1  0  0  0  0  0  0  0  0  0
    2.6100   19.9640   37.8910 C   0  0  0  0  0  0  0  0  0  0  0  0
    2.7770   18.0300   39.0580 N   0  0  0  0  0  0  0  0  0  0  0  0
    1.5710   17.4830   42.1420 C   0  0  0  0  0  0  0  0  0  0  0  0
    2.6950   21.4390   35.9890 N   0  0  0  0  0  0  0  0  0  0  0  0
    4.6350   20.4830   35.0950 O   0  0  0  0  0  0  0  0  0  0  0  0
    3.7430   21.3920   35.0810 C   0  0  0  0  0  0  0  0  0  0  0  0
    3.6330   22.3190   34.1780 N   0  0  0  0  0  0  0  0  0  0  0  0
    2.9970   16.4840   38.0380 C   0  0  0  0  0  0  0  0  0  0  0  0
   -0.7430   18.9110   41.7660 C   0  0  0  0  0  0  0  0  0  0  0  0
    4.1180   18.1090   37.1330 N   0  0  0  0  0  0  0  0  0  0  0  0
    0.6650   19.5700   41.7350 C   0  0  0  0  0  0  0  0  0  0  0  0
    2.5530   20.6740   36.8530 N   0  0  0  0  0  0  0  0  0  0  0  0
    4.3420   22.4180   32.9480 C   0  0  0  0  0  0  0  0  0  0  0  0
    3.3480   23.1180   31.9560 C   0  0  0  0  0  0  0  0  0  0  0  0
    3.5980   22.9490   30.6690 C   0  0  0  0  0  0  0  0  0  0  0  0
    2.1180   20.1460   39.1590 C   0  0  0  0  0  0  0  0  0  0  0  0
    3.1250   18.6210   37.9070 N   0  0  0  0  0  0  0  0  0  0  0  0
    3.9610   24.2500   30.0270 C   0  0  0  0  0  0  0  0  0  0  0  0
    1.7870   18.7330   41.2870 N   0  0  0  0  0  0  0  0  0  0  0  0
    3.9640   16.7520   37.0830 C   0  0  0  0  0  0  0  0  0  0  0  0
    0.8370   20.7710   41.9500 O   0  0  0  0  0  0  0  0  0  0  0  0
    3.2057   19.2998   40.2574 H   0  0  0  0  0  0  0  0  0  0  0  0
    1.6179   17.7546   43.2069 H   0  0  0  0  0  0  0  0  0  0  0  0
    0.5848   17.0507   41.9169 H   0  0  0  0  0  0  0  0  0  0  0  0
    2.3549   16.7449   41.9169 H   0  0  0  0  0  0  0  0  0  0  0  0
    2.0027   22.1954   35.8921 H   0  0  0  0  0  0  0  0  0  0  0  0
    2.9546   23.0687   34.3747 H   0  0  0  0  0  0  0  0  0  0  0  0
    3.3233   15.6529   38.6805 H   0  0  0  0  0  0  0  0  0  0  0  0
    2.0490   16.1955   37.5605 H   0  0  0  0  0  0  0  0  0  0  0  0
   -1.0563   18.7644   42.8102 H   0  0  0  0  0  0  0  0  0  0  0  0
   -1.4651   19.5647   41.2549 H   0  0  0  0  0  0  0  0  0  0  0  0
   -0.7037   17.9378   41.2549 H   0  0  0  0  0  0  0  0  0  0  0  0
    4.0573   18.5020   36.1829 H   0  0  0  0  0  0  0  0  0  0  0  0
    1.7261   20.2099   36.4507 H   0  0  0  0  0  0  0  0  0  0  0  0
    5.2514   23.0238   33.0745 H   0  0  0  0  0  0  0  0  0  0  0  0
    4.6658   21.4334   32.5795 H   0  0  0  0  0  0  0  0  0  0  0  0
    2.3401   22.7261   32.1572 H   0  0  0  0  0  0  0  0  0  0  0  0
    3.4567   24.1971   32.1398 H   0  0  0  0  0  0  0  0  0  0  0  0
    4.4337   22.2432   30.5529 H   0  0  0  0  0  0  0  0  0  0  0  0
    2.6947   22.5534   30.1817 H   0  0  0  0  0  0  0  0  0  0  0  0
    1.7033   21.0959   39.5274 H   0  0  0  0  0  0  0  0  0  0  0  0
    4.1696   24.9978   30.8063 H   0  0  0  0  0  0  0  0  0  0  0  0
    4.8553   24.1132   29.4013 H   0  0  0  0  0  0  0  0  0  0  0  0
    3.1251   24.5959   29.4013 H   0  0  0  0  0  0  0  0  0  0  0  0
    3.6259   16.4343   36.0856 H   0  0  0  0  0  0  0  0  0  0  0  0
    4.9044   16.2141   37.2733 H   0  0  0  0  0  0  0  0  0  0  0  0
  1 20  1  0
  2 18  1  0
  2 17  2  0
  3  9  1  0
  3  1  1  0
  5 13  1  0
  7  6  2  0
  7  5  1  0
  8  7  1  0
 11 18  1  0
 12 10  1  0
 12 22  2  0
 13  2  1  0
 14  8  1  0
 15 14  1  0
 16 15  1  0
 17  1  1  0
 18  3  1  0
 19 16  1  0
 20 12  1  0
 20  4  1  0
 21 11  1  0
 21  9  1  0
  1 23  1  1
  4 24  1  0
  4 25  1  0
  4 26  1  0
  5 27  1  0
  8 28  1  0
  9 29  1  0
  9 30  1  0
 10 31  1  0
 10 32  1  0
 10 33  1  0
 11 34  1  0
 13 35  1  0
 14 36  1  0
 14 37  1  0
 15 38  1  0
 15 39  1  0
 16 40  1  0
 16 41  1  0
 17 42  1  0
 19 43  1  0
 19 44  1  0
 19 45  1  0
 21 46  1  0
 21 47  1  0
M  END
>  <mol_id>  (60) 
2026-09-16-6tgu-s0-n100-0060

>  <rmsd_to_ref>  (60) 


$$$$

     RDKit          3D

 64 67  0  0  0  0  0  0  0  0999 V2000
    2.7138   17.7431   36.8666 C   0  0  0  0  0  0  0  0  0  0  0  0
    1.5726   22.2113   35.0686 C   0  0  0  0  0  0  0  0  0  0  0  0
    1.9544   25.5738   33.7547 C   0  0  0  0  0  0  0  0  0  0  0  0
    2.5417   20.5852   35.9466 N   0  0  0  0  0  0  0  0  0  0  0  0
    1.6326   26.4898   31.8146 C   0  0  0  0  0  0  0  0  0  0  0  0
    2.3710   18.8282   37.7172 C   0  0  0  0  0  0  0  0  0  0  0  0
    2.9002   15.3530   36.8135 O   0  0  0  0  0  0  0  0  0  0  0  0
    0.9048   28.5843   32.1669 N   0  0  0  0  0  0  0  0  0  0  0  0
    2.5550   16.4376   37.4834 C   0  0  0  0  0  0  0  0  0  0  0  0
    1.1625   28.8854   33.2181 C   0  0  0  0  0  0  0  0  0  0  0  0
    1.5259   17.4184   39.4625 C   0  0  0  0  0  0  0  0  0  0  0  0
    1.7342   15.0293   39.1772 O   0  0  0  0  0  0  0  0  0  0  0  0
    2.7234   23.3979   33.4579 C   0  0  0  0  0  0  0  0  0  0  0  0
    2.4576   21.4869   35.3050 C   0  0  1  0  0  0  0  0  0  0  0  0
    1.9071   25.6579   30.5657 C   0  0  0  0  0  0  0  0  0  0  0  0
    0.2633   21.6346   42.0309 N   0  0  0  0  0  0  0  0  0  0  0  0
    1.7085   26.6859   33.1618 C   0  0  0  0  0  0  0  0  0  0  0  0
    1.2262   21.2284   39.7896 C   0  0  0  0  0  0  0  0  0  0  0  0
    0.8105   27.5218   30.3338 C   0  0  0  0  0  0  0  0  0  0  0  0
    1.1122   19.7258   39.9907 C   0  0  0  0  0  0  0  0  0  0  0  0
    0.9809   26.3392   29.5681 C   0  0  0  0  0  0  0  0  0  0  0  0
    2.7991   24.9505   33.0895 N   0  0  0  0  0  0  0  0  0  0  0  0
    1.9081   16.3570   38.6344 C   0  0  0  0  0  0  0  0  0  0  0  0
    0.4455   19.4714   41.2158 C   0  0  0  0  0  0  0  0  0  0  0  0
    0.0795   20.3201   42.2328 C   0  0  0  0  0  0  0  0  0  0  0  0
    2.5885   20.1108   37.2451 C   0  0  0  0  0  0  0  0  0  0  0  0
    1.6626   23.1307   34.1268 C   0  0  0  0  0  0  0  0  0  0  0  0
    1.9550   14.7591   40.4924 C   0  0  0  0  0  0  0  0  0  0  0  0
    1.0222   27.6316   31.5337 C   0  0  0  0  0  0  0  0  0  0  0  0
    1.4148   15.1198   35.5596 O   0  0  0  0  0  0  0  0  0  0  0  0
    1.6657   18.6910   39.0836 C   0  0  0  0  0  0  0  0  0  0  0  0
    1.5364   27.7971   33.8259 N   0  0  0  0  0  0  0  0  0  0  0  0
    0.8125   22.0488   41.0181 C   0  0  0  0  0  0  0  0  0  0  0  0
    3.2232   20.9864   34.9188 O   0  0  0  0  0  0  0  0  0  0  0  0
    3.0676   17.8793   35.8339 H   0  0  0  0  0  0  0  0  0  0  0  0
    0.6403   22.1248   35.6459 H   0  0  0  0  0  0  0  0  0  0  0  0
    2.3474   25.7699   34.7632 H   0  0  0  0  0  0  0  0  0  0  0  0
    1.0317   24.9813   33.8422 H   0  0  0  0  0  0  0  0  0  0  0  0
    2.7943   14.4604   37.2284 H   0  0  0  0  0  0  0  0  0  0  0  0
    1.1095   29.8969   33.6473 H   0  0  0  0  0  0  0  0  0  0  0  0
    1.0987   17.1984   40.4520 H   0  0  0  0  0  0  0  0  0  0  0  0
    3.6041   23.1286   34.0595 H   0  0  0  0  0  0  0  0  0  0  0  0
    2.7002   22.8191   32.5228 H   0  0  0  0  0  0  0  0  0  0  0  0
    2.3182   22.5778   35.3260 H   0  0  0  0  0  0  0  0  0  0  0  0
    2.9600   25.7274   30.2550 H   0  0  0  0  0  0  0  0  0  0  0  0
    1.7347   24.5783   30.6875 H   0  0  0  0  0  0  0  0  0  0  0  0
    1.5730   21.6847   38.8508 H   0  0  0  0  0  0  0  0  0  0  0  0
   -0.2436   27.8056   30.1983 H   0  0  0  0  0  0  0  0  0  0  0  0
    1.6393   28.1268   29.9376 H   0  0  0  0  0  0  0  0  0  0  0  0
    0.0403   25.7901   29.4137 H   0  0  0  0  0  0  0  0  0  0  0  0
    1.3403   26.4502   28.5345 H   0  0  0  0  0  0  0  0  0  0  0  0
    3.7400   25.3095   33.3056 H   0  0  0  0  0  0  0  0  0  0  0  0
    2.6074   25.0758   32.0853 H   0  0  0  0  0  0  0  0  0  0  0  0
    0.1760   18.4175   41.3798 H   0  0  0  0  0  0  0  0  0  0  0  0
   -0.3461   19.9385   43.1726 H   0  0  0  0  0  0  0  0  0  0  0  0
    3.6034   20.3588   37.5891 H   0  0  0  0  0  0  0  0  0  0  0  0
    1.6560   20.5674   37.6083 H   0  0  0  0  0  0  0  0  0  0  0  0
    0.7580   23.7130   33.8978 H   0  0  0  0  0  0  0  0  0  0  0  0
    1.4365   15.5053   41.1122 H   0  0  0  0  0  0  0  0  0  0  0  0
    1.5722   13.7555   40.7298 H   0  0  0  0  0  0  0  0  0  0  0  0
    3.0348   14.7978   40.6984 H   0  0  0  0  0  0  0  0  0  0  0  0
    1.3775   15.2019   36.5455 H   0  0  0  0  0  0  0  0  0  0  0  0
    1.4820   16.0212   35.1557 H   0  0  0  0  0  0  0  0  0  0  0  0
    1.0332   23.1258   40.9855 H   0  0  0  0  0  0  0  0  0  0  0  0
  1  9  2  0
  1  6  1  0
  4 26  1  0
  5 17  1  0
  6 31  2  0
  7  9  1  0
  8 10  2  0
  9 23  1  0
 10 32  1  0
 12 28  1  0
 13 27  1  0
 14  2  1  0
 14  4  1  0
 15  5  1  0
 16 25  2  0
 17  3  1  0
 17 32  2  0
 18 20  1  0
 18 33  2  0
 19 29  1  0
 20 24  2  0
 21 19  1  0
 21 15  1  0
 22 13  1  0
 22  3  1  0
 23 12  1  0
 23 11  2  0
 24 25  1  0
 26  6  1  0
 27  2  2  3
 29  5  2  0
 29  8  1  0
 31 11  1  0
 31 20  1  0
 33 16  1  0
 34 14  1  0
 34  4  1  0
  1 35  1  0
  2 36  1  0
  3 37  1  0
  3 38  1  0
  7 39  1  0
 10 40  1  0
 11 41  1  0
 13 42  1  0
 13 43  1  0
 14 44  1  1
 15 45  1  0
 15 46  1  0
 18 47  1  0
 19 48  1  0
 19 49  1  0
 21 50  1  0
 21 51  1  0
 22 52  1  0
 22 53  1  0
 24 54  1  0
 25 55  1  0
 26 56  1  0
 26 57  1  0
 27 58  1  0
 28 59  1  0
 28 60  1  0
 28 61  1  0
 30 62  1  0
 30 63  1  0
 33 64  1  0
M  CHG  1  22   1
M  END
>  <mol_id>  (61) 
2026-09-16-6tgu-s0-n100-0061

>  <rmsd_to_ref>  (61) 


$$$$

     RDKit          3D

 28 28  0  0  0  0  0  0  0  0999 V2000
    0.6609   19.5106   40.2521 C   0  0  0  0  0  0  0  0  0  0  0  0
    3.1120   18.2599   39.4344 C   0  0  0  0  0  0  0  0  0  0  0  0
    2.4026   22.2520   34.2670 O   0  0  0  0  0  0  0  0  0  0  0  0
    2.5299   19.2287   38.6359 C   0  0  0  0  0  0  0  0  0  0  0  0
    4.0947   20.7540   35.1766 C   0  0  0  0  0  0  0  0  0  0  0  0
    3.4904   21.7067   34.1247 C   0  0  0  0  0  0  0  0  0  0  0  0
    3.2740   19.4809   37.3136 C   0  0  0  0  0  0  0  0  0  0  0  0
    1.3160   19.9315   39.0273 C   0  0  0  0  0  0  0  0  0  0  0  0
    4.2293   23.5056   32.5366 C   0  0  0  0  0  0  0  0  0  0  0  0
    3.1620   20.7673   36.3929 C   0  0  0  0  0  0  0  0  0  0  0  0
    2.4818   17.8643   40.6065 C   0  0  0  0  0  0  0  0  0  0  0  0
    4.4018   22.0190   33.0796 N   0  0  0  0  0  0  0  0  0  0  0  0
    1.2464   18.5220   41.0248 C   0  0  0  0  0  0  0  0  0  0  0  0
   -0.2887   19.9710   40.5625 H   0  0  0  0  0  0  0  0  0  0  0  0
    4.0698   17.8051   39.1417 H   0  0  0  0  0  0  0  0  0  0  0  0
    5.0972   21.1013   35.4672 H   0  0  0  0  0  0  0  0  0  0  0  0
    4.1907   19.7363   34.7706 H   0  0  0  0  0  0  0  0  0  0  0  0
    4.3413   19.4054   37.5686 H   0  0  0  0  0  0  0  0  0  0  0  0
    2.7521   18.7552   36.6726 H   0  0  0  0  0  0  0  0  0  0  0  0
    0.9104   20.7518   38.4169 H   0  0  0  0  0  0  0  0  0  0  0  0
    3.9536   24.1702   33.3688 H   0  0  0  0  0  0  0  0  0  0  0  0
    5.1767   23.8465   32.0936 H   0  0  0  0  0  0  0  0  0  0  0  0
    3.4384   23.5274   31.7725 H   0  0  0  0  0  0  0  0  0  0  0  0
    3.4037   21.6501   37.0030 H   0  0  0  0  0  0  0  0  0  0  0  0
    2.1340   20.7871   36.0020 H   0  0  0  0  0  0  0  0  0  0  0  0
    2.9117   17.0578   41.2186 H   0  0  0  0  0  0  0  0  0  0  0  0
    5.0988   21.3551   32.7131 H   0  0  0  0  0  0  0  0  0  0  0  0
    0.7721   18.2261   41.9722 H   0  0  0  0  0  0  0  0  0  0  0  0
  1 13  2  0
  2 11  2  0
  4  2  1  0
  4  8  2  0
  5 10  1  0
  6  3  2  0
  6  5  1  0
  7  4  1  0
  8  1  1  0
  9 12  1  0
 10  7  1  0
 11 13  1  0
 12  6  1  0
  1 14  1  0
  2 15  1  0
  5 16  1  0
  5 17  1  0
  7 18  1  0
  7 19  1  0
  8 20  1  0
  9 21  1  0
  9 22  1  0
  9 23  1  0
 10 24  1  0
 10 25  1  0
 11 26  1  0
 12 27  1  0
 13 28  1  0
M  END
>  <mol_id>  (62) 
2026-09-16-6tgu-s0-n100-0062

>  <rmsd_to_ref>  (62) 


$$$$

     RDKit          3D

 51 51  0  0  0  0  0  0  0  0999 V2000
    0.3451   20.4266   40.5374 C   0  0  0  0  0  0  0  0  0  0  0  0
    2.9219   22.2493   35.3216 C   0  0  2  0  0  0  0  0  0  0  0  0
    2.9887   14.5176   37.4791 C   0  0  0  0  0  0  0  0  0  0  0  0
    0.3800   21.3207   39.7018 O   0  0  0  0  0  0  0  0  0  0  0  0
    2.2257   24.1957   33.3837 O   0  0  0  0  0  0  0  0  0  0  0  0
    3.2859   21.1443   36.1847 C   0  0  0  0  0  0  0  0  0  0  0  0
   -0.4096   20.6967   41.6290 N   0  0  0  0  0  0  0  0  0  0  0  0
    1.9768   18.3652   39.7902 C   0  0  0  0  0  0  0  0  0  0  0  0
    3.3009   16.4511   39.6117 O   0  0  0  0  0  0  0  0  0  0  0  0
    2.9342   18.6980   38.7646 C   0  0  0  0  0  0  0  0  0  0  0  0
    2.6059   20.8534   37.3730 C   0  0  0  0  0  0  0  0  0  0  0  0
    1.3970   16.2445   40.9456 O   0  0  0  0  0  0  0  0  0  0  0  0
    3.2858   13.4623   37.0155 O   0  0  0  0  0  0  0  0  0  0  0  0
    2.0975   16.9016   40.2610 C   0  0  0  0  0  0  0  0  0  0  0  0
    2.7087   19.4451   37.8879 C   0  0  0  0  0  0  0  0  0  0  0  0
    1.6188   22.8506   35.3385 C   0  0  0  0  0  0  0  0  0  0  0  0
    3.1247   23.2176   32.9383 C   0  0  2  0  0  0  0  0  0  0  0  0
    4.5152   13.3526   38.7053 O   0  0  0  0  0  0  0  0  0  0  0  0
    1.9323   24.2637   34.7712 C   0  0  0  0  0  0  0  0  0  0  0  0
    3.8885   14.4619   38.2666 C   0  0  2  0  0  0  0  0  0  0  0  0
    3.8044   22.5257   34.1015 C   0  0  0  0  0  0  0  0  0  0  0  0
    2.1458   15.4007   37.1246 F   0  0  0  0  0  0  0  0  0  0  0  0
    4.0673   23.7053   31.8993 C   0  0  0  0  0  0  0  0  0  0  0  0
    3.7877   15.1658   39.6157 C   0  0  0  0  0  0  0  0  0  0  0  0
    0.9355   19.1024   40.4199 C   0  0  0  0  0  0  0  0  0  0  0  0
    3.2582   22.9335   36.1146 H   0  0  0  0  0  0  0  0  0  0  0  0
    3.2152   20.2384   35.5646 H   0  0  0  0  0  0  0  0  0  0  0  0
    4.2649   21.4722   36.5641 H   0  0  0  0  0  0  0  0  0  0  0  0
   -0.4943   19.9990   42.3821 H   0  0  0  0  0  0  0  0  0  0  0  0
   -0.8989   21.5998   41.7062 H   0  0  0  0  0  0  0  0  0  0  0  0
    3.8093   19.1068   39.2909 H   0  0  0  0  0  0  0  0  0  0  0  0
    3.0083   17.7443   38.2214 H   0  0  0  0  0  0  0  0  0  0  0  0
    2.9990   21.5220   38.1530 H   0  0  0  0  0  0  0  0  0  0  0  0
    1.5410   20.9951   37.1361 H   0  0  0  0  0  0  0  0  0  0  0  0
    1.6934   19.1036   37.6376 H   0  0  0  0  0  0  0  0  0  0  0  0
    3.7826   19.4585   37.6504 H   0  0  0  0  0  0  0  0  0  0  0  0
    0.9141   22.3045   34.6941 H   0  0  0  0  0  0  0  0  0  0  0  0
    1.1369   22.8573   36.3273 H   0  0  0  0  0  0  0  0  0  0  0  0
    2.5304   22.4515   32.4186 H   0  0  0  0  0  0  0  0  0  0  0  0
    4.3693   13.2546   39.6796 H   0  0  0  0  0  0  0  0  0  0  0  0
    2.7995   24.6818   35.3032 H   0  0  0  0  0  0  0  0  0  0  0  0
    1.0500   24.9050   34.9142 H   0  0  0  0  0  0  0  0  0  0  0  0
    4.4220   14.9386   37.4310 H   0  0  0  0  0  0  0  0  0  0  0  0
    4.1925   21.5618   33.7406 H   0  0  0  0  0  0  0  0  0  0  0  0
    4.5833   23.2208   34.4481 H   0  0  0  0  0  0  0  0  0  0  0  0
    4.8344   24.3388   32.3686 H   0  0  0  0  0  0  0  0  0  0  0  0
    4.5502   22.8464   31.4101 H   0  0  0  0  0  0  0  0  0  0  0  0
    3.5156   24.2916   31.1499 H   0  0  0  0  0  0  0  0  0  0  0  0
    3.1280   14.5626   40.2568 H   0  0  0  0  0  0  0  0  0  0  0  0
    4.8248   15.2531   39.9717 H   0  0  0  0  0  0  0  0  0  0  0  0
    0.3621   18.4125   41.0565 H   0  0  0  0  0  0  0  0  0  0  0  0
  1  7  1  0
  2 16  1  0
  2  6  1  0
  3 20  1  0
  4  1  2  0
  5 19  1  0
  6 11  1  0
  8 14  1  0
  8 25  2  3
  9 14  1  0
 10  8  1  0
 11 15  1  0
 13  3  2  0
 14 12  2  0
 15 10  1  0
 17 23  1  0
 17  5  1  0
 17 21  1  0
 19 16  1  0
 20 18  1  0
 20 24  1  0
 21  2  1  0
 22  3  1  0
 24  9  1  0
 25  1  1  0
  2 26  1  1
  6 27  1  0
  6 28  1  0
  7 29  1  0
  7 30  1  0
 10 31  1  0
 10 32  1  0
 11 33  1  0
 11 34  1  0
 15 35  1  0
 15 36  1  0
 16 37  1  0
 16 38  1  0
 17 39  1  6
 18 40  1  0
 19 41  1  0
 19 42  1  0
 20 43  1  6
 21 44  1  0
 21 45  1  0
 23 46  1  0
 23 47  1  0
 23 48  1  0
 24 49  1  0
 24 50  1  0
 25 51  1  0
M  END
>  <mol_id>  (63) 
2026-09-16-6tgu-s0-n100-0063

>  <rmsd_to_ref>  (63) 


$$$$

     RDKit          3D

 50 51  0  0  0  0  0  0  0  0999 V2000
    2.6078   15.4227   38.3587 C   0  0  0  0  0  0  0  0  0  0  0  0
    2.5554   14.2755   37.7684 N   0  0  0  0  0  0  0  0  0  0  0  0
    3.2808   13.9176   36.5847 C   0  0  0  0  0  0  0  0  0  0  0  0
    2.5371   23.4996   34.1511 C   0  0  0  0  0  0  0  0  0  0  0  0
    3.0845   20.7562   36.4076 C   0  0  0  0  0  0  0  0  0  0  0  0
    2.2295   22.1201   34.4004 C   0  0  0  0  0  0  0  0  0  0  0  0
    3.3014   28.2276   31.9689 C   0  0  0  0  0  0  0  0  0  0  0  0
    1.7710   26.5078   32.2892 C   0  0  0  0  0  0  0  0  0  0  0  0
    2.6990   25.4570   32.8511 C   0  0  0  0  0  0  0  0  0  0  0  0
    4.6554   26.3496   31.4568 C   0  0  0  0  0  0  0  0  0  0  0  0
    2.4486   19.4035   36.5707 O   0  0  0  0  0  0  0  0  0  0  0  0
    2.3043   24.5997   33.9306 C   0  0  0  0  0  0  0  0  0  0  0  0
    2.3088   16.6107   39.4609 C   0  0  0  0  0  0  0  0  0  0  0  0
    3.0170   18.4475   37.2965 C   0  0  0  0  0  0  0  0  0  0  0  0
    3.9077   25.3439   32.0331 C   0  0  0  0  0  0  0  0  0  0  0  0
    2.0623   27.8286   31.8406 C   0  0  0  0  0  0  0  0  0  0  0  0
    0.4540   19.8943   39.9278 C   0  0  0  0  0  0  0  0  0  0  0  0
    1.9847   18.1240   39.5465 C   0  0  0  0  0  0  0  0  0  0  0  0
    4.7813   13.7797   36.4255 O   0  0  0  0  0  0  0  0  0  0  0  0
    2.0864   21.8054   35.8918 C   0  0  0  0  0  0  0  0  0  0  0  0
    2.9416   18.6774   38.7241 O   0  0  0  0  0  0  0  0  0  0  0  0
    3.9590   17.5647   36.9917 C   0  0  0  0  0  0  0  0  0  0  0  0
    3.8743   16.1791   37.5138 C   0  0  0  0  0  0  0  0  0  0  0  0
    4.4374   27.6468   31.6044 C   0  0  0  0  0  0  0  0  0  0  0  0
    1.0227   18.5444   40.2100 O   0  0  0  0  0  0  0  0  0  0  0  0
    2.7073   13.4745   35.7195 O   0  0  0  0  0  0  0  0  0  0  0  0
    1.9422   13.5586   38.1818 H   0  0  0  0  0  0  0  0  0  0  0  0
    3.1315   23.6696   35.0609 H   0  0  0  0  0  0  0  0  0  0  0  0
    2.3747   23.2969   33.0822 H   0  0  0  0  0  0  0  0  0  0  0  0
    3.4732   21.0854   37.3825 H   0  0  0  0  0  0  0  0  0  0  0  0
    3.8922   20.6637   35.6666 H   0  0  0  0  0  0  0  0  0  0  0  0
    1.2830   21.8743   33.8967 H   0  0  0  0  0  0  0  0  0  0  0  0
    3.0653   21.5187   34.0133 H   0  0  0  0  0  0  0  0  0  0  0  0
    3.4214   29.2049   32.4594 H   0  0  0  0  0  0  0  0  0  0  0  0
    0.7148   26.2097   32.2153 H   0  0  0  0  0  0  0  0  0  0  0  0
    5.5024   26.0489   30.8225 H   0  0  0  0  0  0  0  0  0  0  0  0
    2.6633   25.1269   34.8267 H   0  0  0  0  0  0  0  0  0  0  0  0
    1.2654   24.4485   33.6022 H   0  0  0  0  0  0  0  0  0  0  0  0
    2.3545   16.1884   40.4755 H   0  0  0  0  0  0  0  0  0  0  0  0
    4.2678   24.3200   31.8540 H   0  0  0  0  0  0  0  0  0  0  0  0
    1.4267   28.5229   32.4099 H   0  0  0  0  0  0  0  0  0  0  0  0
    1.8701   27.8178   30.7575 H   0  0  0  0  0  0  0  0  0  0  0  0
    0.0259   20.3122   40.8510 H   0  0  0  0  0  0  0  0  0  0  0  0
    1.2502   20.5581   39.5596 H   0  0  0  0  0  0  0  0  0  0  0  0
   -0.3336   19.8082   39.1647 H   0  0  0  0  0  0  0  0  0  0  0  0
    2.2394   22.7361   36.4580 H   0  0  0  0  0  0  0  0  0  0  0  0
    1.0801   21.3844   36.0334 H   0  0  0  0  0  0  0  0  0  0  0  0
    4.8032   17.8604   36.3515 H   0  0  0  0  0  0  0  0  0  0  0  0
    4.7577   15.5507   37.3276 H   0  0  0  0  0  0  0  0  0  0  0  0
    5.2884   28.3142   31.4036 H   0  0  0  0  0  0  0  0  0  0  0  0
  1 13  1  0
  2  1  1  0
  3  2  1  0
  4  6  1  0
  5 11  1  0
  6 20  1  0
  7 16  1  0
  8  9  2  0
  9 12  1  0
 10 24  1  0
 10 15  2  0
 11 14  1  0
 12  4  1  0
 13 18  2  0
 14 21  1  0
 15  9  1  0
 16  8  1  0
 17 25  1  0
 18 25  1  0
 19  3  1  0
 20  5  1  0
 21 18  1  0
 22 14  2  0
 22 23  1  0
 23  1  2  0
 24  7  2  0
 26  3  2  0
  2 27  1  0
  4 28  1  0
  4 29  1  0
  5 30  1  0
  5 31  1  0
  6 32  1  0
  6 33  1  0
  7 34  1  0
  8 35  1  0
 10 36  1  0
 12 37  1  0
 12 38  1  0
 13 39  1  0
 15 40  1  0
 16 41  1  0
 16 42  1  0
 17 43  1  0
 17 44  1  0
 17 45  1  0
 20 46  1  0
 20 47  1  0
 22 48  1  0
 23 49  1  0
 24 50  1  0
M  CHG  1  19  -1
M  END
>  <mol_id>  (64) 
2026-09-16-6tgu-s0-n100-0064

>  <rmsd_to_ref>  (64) 


$$$$

     RDKit          3D

 74 77  0  0  0  0  0  0  0  0999 V2000
    3.7080   24.5510   32.5580 C   0  0  0  0  0  0  0  0  0  0  0  0
    2.3570   14.7620   40.4320 C   0  0  2  0  0  0  0  0  0  0  0  0
    1.8170   13.6230   42.4650 O   0  0  0  0  0  0  0  0  0  0  0  0
    2.1950   19.3500   40.1400 C   0  0  0  0  0  0  0  0  0  0  0  0
    2.9460   18.4580   39.5980 N   0  0  0  0  0  0  0  0  0  0  0  0
    3.2040   23.4380   33.4820 C   0  0  0  0  0  0  0  0  0  0  0  0
    1.1500   21.1430   41.2320 C   0  0  0  0  0  0  0  0  0  0  0  0
    2.5450   12.5160   40.7390 O   0  0  0  0  0  0  0  0  0  0  0  0
    4.9860   22.9180   31.3090 O   0  0  0  0  0  0  0  0  0  0  0  0
    3.0070   15.9250   38.6260 C   0  0  2  0  0  0  0  0  0  0  0  0
    3.6320   19.6270   36.7410 N   0  0  0  0  0  0  0  0  0  0  0  0
    3.1040   24.5830   29.7970 S   0  0  1  0  0  4  0  0  0  0  0  0
    2.1160   14.9490   36.5910 N   0  0  0  0  0  0  0  0  0  0  0  0
    2.6340   16.1760   37.1720 C   0  0  2  0  0  0  0  0  0  0  0  0
    2.1710   25.7290   30.4520 C   0  0  0  0  0  0  0  0  0  0  0  0
    5.4950   24.0080   28.6550 C   0  0  0  0  0  0  0  0  0  0  0  0
    3.9440   22.2280   33.1340 O   0  0  0  0  0  0  0  0  0  0  0  0
    5.2340   22.6610   32.6320 C   0  0  0  0  0  0  0  0  0  0  0  0
    2.0130   23.3950   29.4940 C   0  0  0  0  0  0  0  0  0  0  0  0
    2.8690   20.7490   37.1180 C   0  0  0  0  0  0  0  0  0  0  0  0
    1.6270   16.0800   40.9750 C   0  0  0  0  0  0  0  0  0  0  0  0
    1.4530   19.7210   41.2990 C   0  0  0  0  0  0  0  0  0  0  0  0
    4.1860   23.3710   28.8570 C   0  0  2  0  0  0  0  0  0  0  0  0
    2.2200   20.4110   39.2460 C   0  0  0  0  0  0  0  0  0  0  0  0
    0.5660   21.7020   42.2430 N   0  0  0  0  0  0  0  0  0  0  0  0
    2.7820   22.8160   28.2770 C   0  0  0  0  0  0  0  0  0  0  0  0
    3.9810   16.5180   37.6440 N   0  0  0  0  0  0  0  0  0  0  0  0
    3.4030   19.0000   38.0970 C   0  0  2  0  0  0  0  0  0  0  0  0
    1.5610   21.6670   39.9260 S   0  0  0  0  0  0  0  0  0  0  0  0
    2.9250   20.2590   38.1580 C   0  0  1  0  0  0  0  0  0  0  0  0
    2.2810   13.5520   41.1960 C   0  0  0  0  0  0  0  0  0  0  0  0
    4.0530   23.9810   31.2020 C   0  0  1  0  0  0  0  0  0  0  0  0
    3.3940   14.6010   39.2820 C   0  0  0  0  0  0  0  0  0  0  0  0
    2.9228   25.3129   32.4437 H   0  0  0  0  0  0  0  0  0  0  0  0
    4.6080   25.0054   32.9980 H   0  0  0  0  0  0  0  0  0  0  0  0
    1.6396   15.3314   39.8228 H   0  0  0  0  0  0  0  0  0  0  0  0
    3.2178   17.5600   40.0229 H   0  0  0  0  0  0  0  0  0  0  0  0
    3.3899   23.7058   34.5326 H   0  0  0  0  0  0  0  0  0  0  0  0
    2.1215   23.2856   33.3596 H   0  0  0  0  0  0  0  0  0  0  0  0
    2.4857   16.1698   39.5632 H   0  0  0  0  0  0  0  0  0  0  0  0
    3.2302   19.0910   35.9586 H   0  0  0  0  0  0  0  0  0  0  0  0
    4.5899   19.7494   36.3827 H   0  0  0  0  0  0  0  0  0  0  0  0
    1.8426   14.3014   37.3438 H   0  0  0  0  0  0  0  0  0  0  0  0
    1.2943   15.1650   36.0087 H   0  0  0  0  0  0  0  0  0  0  0  0
    2.8439   14.5109   36.0087 H   0  0  0  0  0  0  0  0  0  0  0  0
    2.0103   16.7765   36.4935 H   0  0  0  0  0  0  0  0  0  0  0  0
    2.2247   25.6631   31.5487 H   0  0  0  0  0  0  0  0  0  0  0  0
    2.5232   26.7190   30.1265 H   0  0  0  0  0  0  0  0  0  0  0  0
    1.1302   25.5849   30.1265 H   0  0  0  0  0  0  0  0  0  0  0  0
    5.9497   24.2293   29.6319 H   0  0  0  0  0  0  0  0  0  0  0  0
    6.1505   23.3281   28.0910 H   0  0  0  0  0  0  0  0  0  0  0  0
    5.3645   24.9433   28.0910 H   0  0  0  0  0  0  0  0  0  0  0  0
    5.9876   21.8677   32.7450 H   0  0  0  0  0  0  0  0  0  0  0  0
    5.6367   23.5307   33.1719 H   0  0  0  0  0  0  0  0  0  0  0  0
    1.9178   22.6778   30.3226 H   0  0  0  0  0  0  0  0  0  0  0  0
    0.9638   23.6894   29.3439 H   0  0  0  0  0  0  0  0  0  0  0  0
    3.3736   21.7218   37.0223 H   0  0  0  0  0  0  0  0  0  0  0  0
    1.9318   21.0510   36.6277 H   0  0  0  0  0  0  0  0  0  0  0  0
    1.6302   16.0742   42.0750 H   0  0  0  0  0  0  0  0  0  0  0  0
    2.1604   16.9707   40.6115 H   0  0  0  0  0  0  0  0  0  0  0  0
    0.5890   16.1004   40.6115 H   0  0  0  0  0  0  0  0  0  0  0  0
    1.1572   19.0423   42.1126 H   0  0  0  0  0  0  0  0  0  0  0  0
    4.8475   22.4921   28.8514 H   0  0  0  0  0  0  0  0  0  0  0  0
    0.3421   22.7070   42.2174 H   0  0  0  0  0  0  0  0  0  0  0  0
    0.3252   21.1417   43.0731 H   0  0  0  0  0  0  0  0  0  0  0  0
    2.4914   23.2622   27.3145 H   0  0  0  0  0  0  0  0  0  0  0  0
    2.6792   21.7508   28.0226 H   0  0  0  0  0  0  0  0  0  0  0  0
    4.7893   15.9633   37.3278 H   0  0  0  0  0  0  0  0  0  0  0  0
    4.5539   17.3738   37.6264 H   0  0  0  0  0  0  0  0  0  0  0  0
    4.3886   19.3581   38.4290 H   0  0  0  0  0  0  0  0  0  0  0  0
    3.4722   21.1744   38.4274 H   0  0  0  0  0  0  0  0  0  0  0  0
    4.5457   24.1698   30.2368 H   0  0  0  0  0  0  0  0  0  0  0  0
    3.2036   13.7261   38.6430 H   0  0  0  0  0  0  0  0  0  0  0  0
    4.4488   14.4322   39.5443 H   0  0  0  0  0  0  0  0  0  0  0  0
  1  6  1  0
  2 21  1  0
  2 31  1  0
  4 22  1  0
  5  4  1  0
  7 22  2  0
  7 25  1  0
  8 31  2  0
  9 18  1  0
 10 33  1  0
 11 20  1  0
 12 15  1  0
 12 32  1  0
 14 13  1  0
 14 27  1  0
 14 10  1  0
 17  6  1  0
 18 17  1  0
 19 12  1  0
 23 16  1  0
 23 12  1  0
 24 29  1  0
 24  4  2  0
 26 23  1  0
 26 19  1  0
 27 10  1  0
 28 11  1  0
 28 30  1  0
 28  5  1  0
 29  7  1  0
 30 20  1  0
 30 24  1  0
 31  3  1  0
 32  9  1  0
 32  1  1  0
 33  2  1  0
  1 34  1  0
  1 35  1  0
  2 36  1  6
  5 37  1  0
  6 38  1  0
  6 39  1  0
 10 40  1  1
 11 41  1  0
 11 42  1  0
 13 43  1  0
 13 44  1  0
 13 45  1  0
 14 46  1  1
 15 47  1  0
 15 48  1  0
 15 49  1  0
 16 50  1  0
 16 51  1  0
 16 52  1  0
 18 53  1  0
 18 54  1  0
 19 55  1  0
 19 56  1  0
 20 57  1  0
 20 58  1  0
 21 59  1  0
 21 60  1  0
 21 61  1  0
 22 62  1  0
 23 63  1  1
 25 64  1  0
 25 65  1  0
 26 66  1  0
 26 67  1  0
 27 68  1  0
 27 69  1  0
 28 70  1  1
 30 71  1  1
 32 72  1  6
 33 73  1  0
 33 74  1  0
M  CHG  4   3  -1  11   1  13   1  27   1
M  END
>  <mol_id>  (65) 
2026-09-16-6tgu-s0-n100-0065

>  <rmsd_to_ref>  (65) 


$$$$

     RDKit          3D

 60 61  0  0  0  0  0  0  0  0999 V2000
    0.3450   20.4830   42.5360 C   0  0  2  0  0  0  0  0  0  0  0  0
    2.0640   24.7570   30.4990 C   0  0  0  0  0  0  0  0  0  0  0  0
    3.2080   22.5250   33.4790 C   0  0  0  0  0  0  0  0  0  0  0  0
    3.8390   24.5960   28.7840 C   0  0  0  0  0  0  0  0  0  0  0  0
    2.2770   20.9550   38.6000 C   0  0  0  0  0  0  0  0  0  0  0  0
    4.0600   23.1680   31.3500 C   0  0  0  0  0  0  0  0  0  0  0  0
    3.4880   19.1340   37.1930 C   0  0  0  0  0  0  0  0  0  0  0  0
    1.7940   23.9330   28.3540 F   0  0  0  0  0  0  0  0  0  0  0  0
    3.6950   21.9770   32.3600 N   0  0  0  0  0  0  0  0  0  0  0  0
    2.9920   19.7190   38.5840 N   0  0  0  0  0  0  0  0  0  0  0  0
    2.1240   20.0790   40.7380 C   0  0  1  0  0  0  0  0  0  0  0  0
    3.6780   21.9430   34.6820 C   0  0  0  0  0  0  0  0  0  0  0  0
    3.5060   20.1940   36.3990 C   0  0  0  0  0  0  0  0  0  0  0  0
    3.6340   20.9180   35.4580 C   0  0  0  0  0  0  0  0  0  0  0  0
    0.9530   18.1870   42.0970 C   0  0  0  0  0  0  0  0  0  0  0  0
    3.1280   19.2230   39.8940 C   0  0  0  0  0  0  0  0  0  0  0  0
   -0.2610   18.7820   44.1320 C   0  0  0  0  0  0  0  0  0  0  0  0
    0.5350   21.8530   42.3380 O   0  0  0  0  0  0  0  0  0  0  0  0
    4.1830   24.7290   27.3280 C   0  0  0  0  0  0  0  0  0  0  0  0
    0.1950   17.7490   43.3240 C   0  0  0  0  0  0  0  0  0  0  0  0
    2.5100   24.4710   29.1790 C   0  0  1  0  0  0  0  0  0  0  0  0
    3.9970   18.3480   40.3230 O   0  0  0  0  0  0  0  0  0  0  0  0
    3.0850   24.2150   31.6650 C   0  0  0  0  0  0  0  0  0  0  0  0
   -0.5010   20.1410   43.5760 C   0  0  0  0  0  0  0  0  0  0  0  0
    1.6490   21.0400   39.7710 C   0  0  0  0  0  0  0  0  0  0  0  0
    1.1000   19.4820   41.8310 C   0  0  0  0  0  0  0  0  0  0  0  0
   -0.0578   20.1778   41.5590 H   0  0  0  0  0  0  0  0  0  0  0  0
    1.0831   24.2815   30.6461 H   0  0  0  0  0  0  0  0  0  0  0  0
    2.0144   25.8517   30.5946 H   0  0  0  0  0  0  0  0  0  0  0  0
    2.1125   22.4284   33.4580 H   0  0  0  0  0  0  0  0  0  0  0  0
    3.5531   23.5694   33.4863 H   0  0  0  0  0  0  0  0  0  0  0  0
    4.2363   25.4902   29.2866 H   0  0  0  0  0  0  0  0  0  0  0  0
    4.2754   23.6241   29.0579 H   0  0  0  0  0  0  0  0  0  0  0  0
    1.5451   20.9759   37.7791 H   0  0  0  0  0  0  0  0  0  0  0  0
    2.9659   21.8023   38.4679 H   0  0  0  0  0  0  0  0  0  0  0  0
    3.9565   22.8396   30.3053 H   0  0  0  0  0  0  0  0  0  0  0  0
    5.0991   23.5117   31.4604 H   0  0  0  0  0  0  0  0  0  0  0  0
    4.4927   18.6962   37.2867 H   0  0  0  0  0  0  0  0  0  0  0  0
    2.8439   18.3267   36.8143 H   0  0  0  0  0  0  0  0  0  0  0  0
    2.9873   21.3613   31.9346 H   0  0  0  0  0  0  0  0  0  0  0  0
    4.5315   21.4138   32.5696 H   0  0  0  0  0  0  0  0  0  0  0  0
    2.6543   20.4912   41.6092 H   0  0  0  0  0  0  0  0  0  0  0  0
    4.7620   21.9939   34.5022 H   0  0  0  0  0  0  0  0  0  0  0  0
    2.8435   22.4006   35.2335 H   0  0  0  0  0  0  0  0  0  0  0  0
    1.3852   17.4348   41.4207 H   0  0  0  0  0  0  0  0  0  0  0  0
   -1.2171   18.4458   44.5597 H   0  0  0  0  0  0  0  0  0  0  0  0
    0.5853   18.9462   44.8153 H   0  0  0  0  0  0  0  0  0  0  0  0
    0.5980   22.3076   43.2152 H   0  0  0  0  0  0  0  0  0  0  0  0
    5.2047   25.1240   27.2272 H   0  0  0  0  0  0  0  0  0  0  0  0
    4.1220   23.7425   26.8452 H   0  0  0  0  0  0  0  0  0  0  0  0
    3.4742   25.4179   26.8452 H   0  0  0  0  0  0  0  0  0  0  0  0
   -0.6759   17.1626   42.9958 H   0  0  0  0  0  0  0  0  0  0  0  0
    0.9053   17.1720   43.9344 H   0  0  0  0  0  0  0  0  0  0  0  0
    2.1525   25.4870   29.4027 H   0  0  0  0  0  0  0  0  0  0  0  0
    3.6562   25.0862   32.0183 H   0  0  0  0  0  0  0  0  0  0  0  0
    2.4124   23.7283   32.3866 H   0  0  0  0  0  0  0  0  0  0  0  0
   -0.3675   20.8739   44.3853 H   0  0  0  0  0  0  0  0  0  0  0  0
   -1.5223   20.1409   43.1674 H   0  0  0  0  0  0  0  0  0  0  0  0
    1.8012   22.0507   40.1776 H   0  0  0  0  0  0  0  0  0  0  0  0
    0.5854   20.8256   39.5898 H   0  0  0  0  0  0  0  0  0  0  0  0
  1 18  1  0
  1 24  1  0
  2 23  1  0
  3 12  1  0
  4 21  1  0
  5 25  1  0
  6 23  1  0
  6  9  1  0
  7 10  1  0
  9  3  1  0
 10  5  1  0
 10 16  1  0
 11 26  1  0
 12 14  1  0
 13  7  1  0
 14 13  3  0
 15 20  1  0
 16 22  2  0
 16 11  1  0
 19  4  1  0
 20 17  1  0
 21  8  1  0
 21  2  1  0
 24 17  1  0
 25 11  1  0
 26 15  2  0
 26  1  1  0
  1 27  1  6
  2 28  1  0
  2 29  1  0
  3 30  1  0
  3 31  1  0
  4 32  1  0
  4 33  1  0
  5 34  1  0
  5 35  1  0
  6 36  1  0
  6 37  1  0
  7 38  1  0
  7 39  1  0
  9 40  1  0
  9 41  1  0
 11 42  1  1
 12 43  1  0
 12 44  1  0
 15 45  1  0
 17 46  1  0
 17 47  1  0
 18 48  1  0
 19 49  1  0
 19 50  1  0
 19 51  1  0
 20 52  1  0
 20 53  1  0
 21 54  1  6
 23 55  1  0
 23 56  1  0
 24 57  1  0
 24 58  1  0
 25 59  1  0
 25 60  1  0
M  CHG  1   9   1
M  END
>  <mol_id>  (66) 
2026-09-16-6tgu-s0-n100-0066

>  <rmsd_to_ref>  (66) 


$$$$

     RDKit          3D

 58 60  0  0  0  0  0  0  0  0999 V2000
    5.6478   25.1063   29.5545 N   0  0  0  0  0  0  0  0  0  0  0  0
    2.5144   15.8967   39.5236 O   0  0  0  0  0  0  0  0  0  0  0  0
    4.6322   23.3685   28.6164 C   0  0  0  0  0  0  0  0  0  0  0  0
   -0.7319   20.3344   43.1312 C   0  0  0  0  0  0  0  0  0  0  0  0
    2.1839   16.5975   40.6152 C   0  0  0  0  0  0  0  0  0  0  0  0
    3.4397   20.0429   39.9247 C   0  0  0  0  0  0  0  0  0  0  0  0
    0.9858   19.0440   42.3864 C   0  0  0  0  0  0  0  0  0  0  0  0
    2.0940   21.9964   40.2124 O   0  0  0  0  0  0  0  0  0  0  0  0
   -0.1073   19.2113   43.3544 C   0  0  0  0  0  0  0  0  0  0  0  0
    4.2342   24.1052   31.3899 C   0  0  2  0  0  0  0  0  0  0  0  0
    1.6465   17.7913   42.3042 N   0  0  0  0  0  0  0  0  0  0  0  0
    2.2833   20.8572   40.5079 C   0  0  0  0  0  0  0  0  0  0  0  0
    3.6069   20.8704   37.6081 C   0  0  0  0  0  0  0  0  0  0  0  0
    3.2981   19.8634   38.3269 C   0  0  0  0  0  0  0  0  0  0  0  0
    1.5989   16.8281   41.8909 O   0  0  0  0  0  0  0  0  0  0  0  0
    2.9142   21.8157   36.8600 C   0  0  0  0  0  0  0  0  0  0  0  0
    3.0940   25.3030   29.2272 C   0  0  0  0  0  0  0  0  0  0  0  0
    6.4509   24.9102   30.0321 F   0  0  0  0  0  0  0  0  0  0  0  0
    2.8557   17.2828   39.9700 O   0  0  0  0  0  0  0  0  0  0  0  0
    3.4588   24.3417   32.2733 C   0  0  1  0  0  0  0  0  0  0  0  0
    4.4548   24.2311   29.7549 C   0  0  0  0  0  0  0  0  0  0  0  0
    1.2107   20.2719   41.5570 C   0  0  1  0  0  0  0  0  0  0  0  0
   -1.9307   20.6154   43.6090 O   0  0  0  0  0  0  0  0  0  0  0  0
    2.9484   23.5191   31.5934 C   0  0  0  0  0  0  0  0  0  0  0  0
    3.5962   22.1833   35.6012 C   0  0  2  0  0  0  0  0  0  0  0  0
    3.3773   22.8361   34.2434 C   0  0  0  0  0  0  0  0  0  0  0  0
    0.0338   21.4360   41.9739 S   0  0  0  0  0  0  0  0  0  0  0  0
    3.4583   24.0911   33.8029 C   0  0  0  0  0  0  0  0  0  0  0  0
    4.3141   20.9874   35.2406 C   0  0  0  0  0  0  0  0  0  0  0  0
    5.8785   25.0770   28.5511 H   0  0  0  0  0  0  0  0  0  0  0  0
    4.8296   22.3426   28.9608 H   0  0  0  0  0  0  0  0  0  0  0  0
    3.7198   23.3798   28.0020 H   0  0  0  0  0  0  0  0  0  0  0  0
    5.4829   23.7238   28.0161 H   0  0  0  0  0  0  0  0  0  0  0  0
    1.2490   16.9134   40.1294 H   0  0  0  0  0  0  0  0  0  0  0  0
    4.3855   20.5605   40.1428 H   0  0  0  0  0  0  0  0  0  0  0  0
    3.4215   19.0438   40.3847 H   0  0  0  0  0  0  0  0  0  0  0  0
   -0.3611   18.4951   44.1498 H   0  0  0  0  0  0  0  0  0  0  0  0
    5.3259   24.2110   31.4740 H   0  0  0  0  0  0  0  0  0  0  0  0
    2.5058   17.8502   42.8690 H   0  0  0  0  0  0  0  0  0  0  0  0
    4.1809   21.4952   38.3082 H   0  0  0  0  0  0  0  0  0  0  0  0
    3.8951   20.2662   36.7352 H   0  0  0  0  0  0  0  0  0  0  0  0
    2.2498   19.6091   38.1116 H   0  0  0  0  0  0  0  0  0  0  0  0
    4.0247   19.0825   38.0580 H   0  0  0  0  0  0  0  0  0  0  0  0
    1.9233   21.4068   36.6131 H   0  0  0  0  0  0  0  0  0  0  0  0
    2.8473   22.7277   37.4713 H   0  0  0  0  0  0  0  0  0  0  0  0
    2.5853   25.7124   30.1124 H   0  0  0  0  0  0  0  0  0  0  0  0
    3.4922   26.1284   28.6187 H   0  0  0  0  0  0  0  0  0  0  0  0
    2.3780   24.7194   28.6300 H   0  0  0  0  0  0  0  0  0  0  0  0
    3.2485   25.3735   32.5911 H   0  0  0  0  0  0  0  0  0  0  0  0
    1.8419   20.6111   42.3915 H   0  0  0  0  0  0  0  0  0  0  0  0
    2.1008   23.7709   30.9390 H   0  0  0  0  0  0  0  0  0  0  0  0
    2.5244   22.5114   31.7161 H   0  0  0  0  0  0  0  0  0  0  0  0
    3.7595   23.1764   36.0452 H   0  0  0  0  0  0  0  0  0  0  0  0
    3.0916   22.1196   33.4593 H   0  0  0  0  0  0  0  0  0  0  0  0
    3.5233   24.9314   34.5098 H   0  0  0  0  0  0  0  0  0  0  0  0
    4.6295   20.4599   36.1529 H   0  0  0  0  0  0  0  0  0  0  0  0
    3.6603   20.3325   34.6459 H   0  0  0  0  0  0  0  0  0  0  0  0
    5.2007   21.2566   34.6477 H   0  0  0  0  0  0  0  0  0  0  0  0
  1 21  1  0
  1 18  1  0
  2 19  1  0
  2  5  1  0
  3 21  1  0
  4  9  1  0
  4 23  2  0
  5 15  1  0
  6 12  1  0
  7  9  2  0
  8 12  2  0
 10 21  1  0
 10 24  1  0
 10 20  1  0
 11  7  1  0
 13 14  1  0
 14  6  1  0
 15 11  1  0
 16 13  1  0
 17 21  1  0
 19  5  1  0
 20 28  1  0
 22 12  1  0
 22 27  1  0
 22  7  1  0
 24 20  1  0
 25 29  1  0
 25 16  1  0
 26 25  1  0
 27  4  1  0
 28 26  2  3
  1 30  1  0
  3 31  1  0
  3 32  1  0
  3 33  1  0
  5 34  1  0
  6 35  1  0
  6 36  1  0
  9 37  1  0
 10 38  1  1
 11 39  1  0
 13 40  1  0
 13 41  1  0
 14 42  1  0
 14 43  1  0
 16 44  1  0
 16 45  1  0
 17 46  1  0
 17 47  1  0
 17 48  1  0
 20 49  1  1
 22 50  1  6
 24 51  1  0
 24 52  1  0
 25 53  1  1
 26 54  1  0
 28 55  1  0
 29 56  1  0
 29 57  1  0
 29 58  1  0
M  END
>  <mol_id>  (67) 
2026-09-16-6tgu-s0-n100-0067

>  <rmsd_to_ref>  (67) 


$$$$

     RDKit          3D

 70 71  0  0  0  0  0  0  0  0999 V2000
    4.6853   25.7384   31.1171 C   0  0  0  0  0  0  0  0  0  0  0  0
    4.3829   16.4750   37.8665 O   0  0  0  0  0  0  0  0  0  0  0  0
    2.9618   18.7081   38.3966 C   0  0  0  0  0  0  0  0  0  0  0  0
    2.4883   27.9260   30.9722 C   0  0  1  0  0  0  0  0  0  0  0  0
    2.4003   17.5128   38.6853 C   0  0  0  0  0  0  0  0  0  0  0  0
    3.1602   24.6653   28.4072 O   0  0  0  0  0  0  0  0  0  0  0  0
    2.1601   21.5108   39.2844 N   0  0  0  0  0  0  0  0  0  0  0  0
    1.1113   19.9094   40.8834 C   0  0  0  0  0  0  0  0  0  0  0  0
    0.3184   18.5283   42.6985 C   0  0  0  0  0  0  0  0  0  0  0  0
    3.9928   23.5919   34.8044 C   0  0  0  0  0  0  0  0  0  0  0  0
    1.8455   22.8973   35.9407 N   0  0  0  0  0  0  0  0  0  0  0  0
    3.1791   25.8290   29.4775 C   0  0  1  0  0  0  0  0  0  0  0  0
    2.0545   20.3370   39.8854 C   0  0  2  0  0  0  0  0  0  0  0  0
    1.3223   27.3495   30.0022 C   0  0  2  0  0  0  0  0  0  0  0  0
    1.3782   21.9669   38.4512 N   0  0  0  0  0  0  0  0  0  0  0  0
   -0.5287   22.0178   42.9412 N   0  0  0  0  0  0  0  0  0  0  0  0
    1.0178   18.6579   41.4287 C   0  0  0  0  0  0  0  0  0  0  0  0
    3.1840   24.3930   33.9398 O   0  0  0  0  0  0  0  0  0  0  0  0
    1.6454   26.0537   29.1982 C   0  0  1  0  0  0  0  0  0  0  0  0
    2.6551   26.5128   31.5148 O   0  0  0  0  0  0  0  0  0  0  0  0
    3.8281   21.5072   36.4024 C   0  0  0  0  0  0  0  0  0  0  0  0
    3.1026   22.3521   35.3365 C   0  0  2  0  0  0  0  0  0  0  0  0
   -0.1833   19.6997   43.3442 C   0  0  0  0  0  0  0  0  0  0  0  0
    2.9956   19.5612   39.4788 O   0  0  0  0  0  0  0  0  0  0  0  0
    3.1060   16.4501   38.0963 C   0  0  0  0  0  0  0  0  0  0  0  0
    1.8842   27.4991   27.0394 C   0  0  0  0  0  0  0  0  0  0  0  0
    2.5990   28.2856   29.5643 C   0  0  0  0  0  0  0  0  0  0  0  0
   -0.1056   20.9005   42.6608 C   0  0  0  0  0  0  0  0  0  0  0  0
    1.4646   26.1332   27.5992 C   0  0  0  0  0  0  0  0  0  0  0  0
    0.5310   21.0434   41.4389 N   0  0  0  0  0  0  0  0  0  0  0  0
    3.5145   25.9920   30.8433 C   0  0  0  0  0  0  0  0  0  0  0  0
    2.3783   15.4709   37.7200 O   0  0  0  0  0  0  0  0  0  0  0  0
    1.5620   22.8612   37.3094 C   0  0  0  0  0  0  0  0  0  0  0  0
    5.0413   25.8357   32.1533 H   0  0  0  0  0  0  0  0  0  0  0  0
    5.3773   25.4140   30.3260 H   0  0  0  0  0  0  0  0  0  0  0  0
    3.9924   18.5375   38.0520 H   0  0  0  0  0  0  0  0  0  0  0  0
    2.3438   19.1838   37.6209 H   0  0  0  0  0  0  0  0  0  0  0  0
    2.8377   28.6053   31.7638 H   0  0  0  0  0  0  0  0  0  0  0  0
    2.3957   17.3758   39.7768 H   0  0  0  0  0  0  0  0  0  0  0  0
    1.3768   17.5091   38.2826 H   0  0  0  0  0  0  0  0  0  0  0  0
    3.0485   23.7958   28.8671 H   0  0  0  0  0  0  0  0  0  0  0  0
    2.1788   22.2040   40.0459 H   0  0  0  0  0  0  0  0  0  0  0  0
    0.1774   17.5382   43.1563 H   0  0  0  0  0  0  0  0  0  0  0  0
    4.3349   24.1961   35.6575 H   0  0  0  0  0  0  0  0  0  0  0  0
    4.8717   23.2180   34.2588 H   0  0  0  0  0  0  0  0  0  0  0  0
    1.0728   22.3947   35.4811 H   0  0  0  0  0  0  0  0  0  0  0  0
    1.9763   23.9080   35.7919 H   0  0  0  0  0  0  0  0  0  0  0  0
    4.0991   26.4165   29.3419 H   0  0  0  0  0  0  0  0  0  0  0  0
    1.4074   19.9784   39.0714 H   0  0  0  0  0  0  0  0  0  0  0  0
    0.2303   27.2894   30.1205 H   0  0  0  0  0  0  0  0  0  0  0  0
    0.9583   21.1254   38.0311 H   0  0  0  0  0  0  0  0  0  0  0  0
   -0.3712   22.8050   42.2959 H   0  0  0  0  0  0  0  0  0  0  0  0
   -1.0414   22.1683   43.8218 H   0  0  0  0  0  0  0  0  0  0  0  0
    1.4551   17.7825   40.9262 H   0  0  0  0  0  0  0  0  0  0  0  0
    2.5982   24.9772   34.4834 H   0  0  0  0  0  0  0  0  0  0  0  0
    0.9472   25.2661   29.5177 H   0  0  0  0  0  0  0  0  0  0  0  0
    3.5278   21.8454   37.4052 H   0  0  0  0  0  0  0  0  0  0  0  0
    3.5587   20.4482   36.2768 H   0  0  0  0  0  0  0  0  0  0  0  0
    4.9155   21.6252   36.2861 H   0  0  0  0  0  0  0  0  0  0  0  0
    2.8983   21.6974   34.4765 H   0  0  0  0  0  0  0  0  0  0  0  0
   -0.6179   19.6488   44.3534 H   0  0  0  0  0  0  0  0  0  0  0  0
    2.0020   28.2140   27.8671 H   0  0  0  0  0  0  0  0  0  0  0  0
    2.8396   27.3979   26.5036 H   0  0  0  0  0  0  0  0  0  0  0  0
    1.1120   27.8643   26.3464 H   0  0  0  0  0  0  0  0  0  0  0  0
    2.4268   29.3272   29.2556 H   0  0  0  0  0  0  0  0  0  0  0  0
    3.3958   28.1827   28.8129 H   0  0  0  0  0  0  0  0  0  0  0  0
    2.0839   25.3529   27.1327 H   0  0  0  0  0  0  0  0  0  0  0  0
    0.3988   25.9856   27.3705 H   0  0  0  0  0  0  0  0  0  0  0  0
    2.3610   23.5119   37.6943 H   0  0  0  0  0  0  0  0  0  0  0  0
    0.4811   22.8538   37.1051 H   0  0  0  0  0  0  0  0  0  0  0  0
  2 25  1  0
  3  5  1  0
  3 24  1  0
  4 27  1  0
  4 20  1  0
  7 13  1  0
  8 17  2  0
  8 30  1  0
  9 23  2  0
 10 22  1  0
 11 33  1  0
 12  6  1  0
 12 31  1  0
 13 24  1  0
 13  8  1  0
 14 27  1  0
 14  4  1  0
 15  7  1  0
 17  9  1  0
 18 10  1  0
 19 29  1  0
 19 12  1  0
 19 14  1  0
 22 11  1  0
 22 21  1  0
 25  5  1  0
 26 29  1  0
 28 16  1  0
 28 23  1  0
 30 28  2  0
 31  1  2  3
 31 20  1  0
 32 25  2  0
 33 15  1  0
  1 34  1  0
  1 35  1  0
  3 36  1  0
  3 37  1  0
  4 38  1  1
  5 39  1  0
  5 40  1  0
  6 41  1  0
  7 42  1  0
  9 43  1  0
 10 44  1  0
 10 45  1  0
 11 46  1  0
 11 47  1  0
 12 48  1  6
 13 49  1  6
 14 50  1  1
 15 51  1  0
 16 52  1  0
 16 53  1  0
 17 54  1  0
 18 55  1  0
 19 56  1  1
 21 57  1  0
 21 58  1  0
 21 59  1  0
 22 60  1  6
 23 61  1  0
 26 62  1  0
 26 63  1  0
 26 64  1  0
 27 65  1  0
 27 66  1  0
 29 67  1  0
 29 68  1  0
 33 69  1  0
 33 70  1  0
M  CHG  2   2  -1  11   1
M  END
>  <mol_id>  (68) 
2026-09-16-6tgu-s0-n100-0068

>  <rmsd_to_ref>  (68) 


$$$$

     RDKit          3D

 31 32  0  0  0  0  0  0  0  0999 V2000
    3.4420   22.3810   33.7110 C   0  0  0  0  0  0  0  0  0  0  0  0
    4.5850   23.0410   33.2220 C   0  0  0  0  0  0  0  0  0  0  0  0
    2.4190   19.6880   38.0280 C   0  0  0  0  0  0  0  0  0  0  0  0
    2.9260   21.8360   35.1210 C   0  0  2  0  0  0  0  0  0  0  0  0
    4.3480   18.7490   39.1180 C   0  0  0  0  0  0  0  0  0  0  0  0
    1.3420   20.8070   40.0270 N   0  0  0  0  0  0  0  0  0  0  0  0
    3.7550   19.8910   37.8680 C   0  0  2  0  0  0  0  0  0  0  0  0
    2.9450   21.1340   38.0410 C   0  0  1  0  0  0  0  0  0  0  0  0
    1.9690   22.8510   34.0790 C   0  0  0  0  0  0  0  0  0  0  0  0
    2.4330   21.9000   36.5320 C   0  0  0  0  0  0  0  0  0  0  0  0
    4.0710   21.5690   32.6970 C   0  0  0  0  0  0  0  0  0  0  0  0
    4.4888   23.9303   32.5818 H   0  0  0  0  0  0  0  0  0  0  0  0
    5.5085   23.4641   33.6440 H   0  0  0  0  0  0  0  0  0  0  0  0
    2.0436   19.2359   38.9579 H   0  0  0  0  0  0  0  0  0  0  0  0
    1.6484   19.1563   37.4505 H   0  0  0  0  0  0  0  0  0  0  0  0
    3.4200   20.9771   35.5989 H   0  0  0  0  0  0  0  0  0  0  0  0
    4.1362   19.1569   40.1174 H   0  0  0  0  0  0  0  0  0  0  0  0
    3.8386   17.7810   39.0015 H   0  0  0  0  0  0  0  0  0  0  0  0
    5.4328   18.6088   39.0015 H   0  0  0  0  0  0  0  0  0  0  0  0
    1.3420   20.8070   41.0570 H   0  0  0  0  0  0  0  0  0  0  0  0
    1.3420   21.7781   39.6837 H   0  0  0  0  0  0  0  0  0  0  0  0
    2.1830   20.3215   39.6837 H   0  0  0  0  0  0  0  0  0  0  0  0
    0.5010   20.3215   39.6837 H   0  0  0  0  0  0  0  0  0  0  0  0
    4.6222   19.8573   37.1921 H   0  0  0  0  0  0  0  0  0  0  0  0
    3.0041   22.0210   38.6889 H   0  0  0  0  0  0  0  0  0  0  0  0
    1.7690   23.8981   34.3504 H   0  0  0  0  0  0  0  0  0  0  0  0
    0.9763   22.7949   33.6085 H   0  0  0  0  0  0  0  0  0  0  0  0
    2.4859   22.9734   36.7665 H   0  0  0  0  0  0  0  0  0  0  0  0
    1.5621   21.2476   36.3709 H   0  0  0  0  0  0  0  0  0  0  0  0
    3.6147   21.4496   31.7032 H   0  0  0  0  0  0  0  0  0  0  0  0
    4.4773   20.5507   32.6077 H   0  0  0  0  0  0  0  0  0  0  0  0
  1  9  1  0
  1  4  1  0
  2  1  1  0
  3  8  1  0
  4 10  1  0
  7  3  1  0
  7  8  1  0
  7  5  1  0
  8 10  1  0
  9  4  1  0
 11  2  1  0
 11  1  1  0
  2 12  1  0
  2 13  1  0
  3 14  1  0
  3 15  1  0
  4 16  1  6
  5 17  1  0
  5 18  1  0
  5 19  1  0
  6 20  1  0
  6 21  1  0
  6 22  1  0
  6 23  1  0
  7 24  1  6
  8 25  1  1
  9 26  1  0
  9 27  1  0
 10 28  1  0
 10 29  1  0
 11 30  1  0
 11 31  1  0
M  CHG  1   6   1
M  END
>  <mol_id>  (69) 
2026-09-16-6tgu-s0-n100-0069

>  <rmsd_to_ref>  (69) 


$$$$

     RDKit          3D

 34 36  0  0  0  0  0  0  0  0999 V2000
    4.4366   22.7342   33.5770 C   0  0  0  0  0  0  0  0  0  0  0  0
    4.8411   22.3144   31.1822 C   0  0  0  0  0  0  0  0  0  0  0  0
    5.1372   22.4242   32.5995 C   0  0  0  0  0  0  0  0  0  0  0  0
    1.1385   19.6845   40.1822 C   0  0  0  0  0  0  0  0  0  0  0  0
    3.1791   21.1115   35.1582 C   0  0  1  0  0  0  0  0  0  0  0  0
    2.3685   19.6502   37.9821 C   0  0  0  0  0  0  0  0  0  0  0  0
    3.6007   22.0337   30.7120 O   0  0  0  0  0  0  0  0  0  0  0  0
    2.6574   18.2804   38.1804 C   0  0  0  0  0  0  0  0  0  0  0  0
    2.6771   22.4553   34.8560 C   0  0  1  0  0  0  0  0  0  0  0  0
    1.6335   20.4467   39.0403 C   0  0  0  0  0  0  0  0  0  0  0  0
    0.2297   20.5443   41.1162 C   0  0  0  0  0  0  0  0  0  0  0  0
    3.1209   22.7808   33.5173 C   0  0  0  0  0  0  0  0  0  0  0  0
    1.3023   18.3086   40.3133 C   0  0  0  0  0  0  0  0  0  0  0  0
    2.1024   17.6212   39.2704 C   0  0  0  0  0  0  0  0  0  0  0  0
    2.5890   20.2683   36.6086 C   0  0  1  0  0  0  0  0  0  0  0  0
    2.1631   21.5800   36.1481 C   0  0  1  0  0  0  0  0  0  0  0  0
    4.9327   22.9790   34.5278 H   0  0  0  0  0  0  0  0  0  0  0  0
    5.1243   23.2793   30.7365 H   0  0  0  0  0  0  0  0  0  0  0  0
    5.3945   21.4040   30.9087 H   0  0  0  0  0  0  0  0  0  0  0  0
    6.1803   22.1878   32.8561 H   0  0  0  0  0  0  0  0  0  0  0  0
    3.9761   21.5796   35.7547 H   0  0  0  0  0  0  0  0  0  0  0  0
    2.9819   21.8991   31.4730 H   0  0  0  0  0  0  0  0  0  0  0  0
    3.3138   17.7429   37.4802 H   0  0  0  0  0  0  0  0  0  0  0  0
    2.3863   23.5146   34.7976 H   0  0  0  0  0  0  0  0  0  0  0  0
    1.4821   21.5328   38.9535 H   0  0  0  0  0  0  0  0  0  0  0  0
    0.3187   20.1807   42.1505 H   0  0  0  0  0  0  0  0  0  0  0  0
    0.5467   21.5966   41.0689 H   0  0  0  0  0  0  0  0  0  0  0  0
   -0.8166   20.4615   40.7872 H   0  0  0  0  0  0  0  0  0  0  0  0
    2.7815   23.7871   33.2308 H   0  0  0  0  0  0  0  0  0  0  0  0
    2.7150   22.0876   32.7658 H   0  0  0  0  0  0  0  0  0  0  0  0
    0.8579   17.7552   41.1536 H   0  0  0  0  0  0  0  0  0  0  0  0
    2.2641   16.5373   39.3645 H   0  0  0  0  0  0  0  0  0  0  0  0
    2.7053   19.2039   36.8608 H   0  0  0  0  0  0  0  0  0  0  0  0
    2.9637   22.0172   36.7628 H   0  0  0  0  0  0  0  0  0  0  0  0
  1 12  1  0
  2  3  1  0
  3  1  2  3
  4 13  1  0
  4 11  1  0
  5 16  1  0
  5 15  1  0
  6  8  2  0
  6 10  1  0
  7  2  1  0
  8 14  1  0
  9  5  1  0
  9 16  1  0
 10  4  2  0
 12  9  1  0
 14 13  2  0
 15  6  1  0
 16 15  1  0
  1 17  1  0
  2 18  1  0
  2 19  1  0
  3 20  1  0
  5 21  1  1
  7 22  1  0
  8 23  1  0
  9 24  1  1
 10 25  1  0
 11 26  1  0
 11 27  1  0
 11 28  1  0
 12 29  1  0
 12 30  1  0
 13 31  1  0
 14 32  1  0
 15 33  1  6
 16 34  1  1
M  END
>  <mol_id>  (70) 
2026-09-16-6tgu-s0-n100-0070

>  <rmsd_to_ref>  (70) 


$$$$

     RDKit          3D

 60 61  0  0  0  0  0  0  0  0999 V2000
    4.0288   19.3956   40.1426 O   0  0  0  0  0  0  0  0  0  0  0  0
    1.9191   14.5717   38.2294 O   0  0  0  0  0  0  0  0  0  0  0  0
    2.8528   19.1548   39.7627 C   0  0  0  0  0  0  0  0  0  0  0  0
   -0.9186   20.4897   43.1996 C   0  0  0  0  0  0  0  0  0  0  0  0
    4.1175   26.1663   29.2472 C   0  0  0  0  0  0  0  0  0  0  0  0
    3.2504   20.6882   36.5357 C   0  0  0  0  0  0  0  0  0  0  0  0
    3.3222   21.8705   35.6324 C   0  0  1  0  0  0  0  0  0  0  0  0
    0.8936   19.1988   41.5275 C   0  0  0  0  0  0  0  0  0  0  0  0
    2.4579   16.3481   39.6693 C   0  0  0  0  0  0  0  0  0  0  0  0
    5.3246   25.0262   29.0961 S   0  0  0  0  0  0  0  0  0  0  0  0
   -1.0750   19.0845   43.0206 C   0  0  0  0  0  0  0  0  0  0  0  0
    4.2666   21.6654   34.4256 C   0  0  0  0  0  0  0  0  0  0  0  0
    2.7746   20.6954   37.9472 C   0  0  0  0  0  0  0  0  0  0  0  0
    3.9221   23.2105   30.7186 C   0  0  0  0  0  0  0  0  0  0  0  0
    2.2630   14.9905   39.4498 C   0  0  0  0  0  0  0  0  0  0  0  0
    4.0470   24.3281   31.7082 C   0  0  0  0  0  0  0  0  0  0  0  0
    1.0037   20.5910   41.6698 C   0  0  0  0  0  0  0  0  0  0  0  0
    1.8669   17.0719   40.6187 N   0  0  0  0  0  0  0  0  0  0  0  0
    2.1224   14.2635   40.5138 O   0  0  0  0  0  0  0  0  0  0  0  0
   -0.0866   18.3813   42.1146 C   0  0  0  0  0  0  0  0  0  0  0  0
    3.7147   26.7091   30.6450 C   0  0  0  0  0  0  0  0  0  0  0  0
    5.1236   22.9037   33.7562 C   0  0  0  0  0  0  0  0  0  0  0  0
    3.4415   25.6839   31.6567 C   0  0  0  0  0  0  0  0  0  0  0  0
    4.5911   23.2987   29.3126 C   0  0  0  0  0  0  0  0  0  0  0  0
    2.3340   19.5943   38.5369 N   0  0  0  0  0  0  0  0  0  0  0  0
    2.1980   22.9184   35.5673 C   0  0  0  0  0  0  0  0  0  0  0  0
    4.7011   24.1941   33.0974 C   0  0  0  0  0  0  0  0  0  0  0  0
    0.0860   21.2490   42.5557 C   0  0  0  0  0  0  0  0  0  0  0  0
    1.9557   18.4158   40.6535 C   0  0  1  0  0  0  0  0  0  0  0  0
   -1.6150   21.0105   43.8732 H   0  0  0  0  0  0  0  0  0  0  0  0
    3.2109   25.7251   28.8076 H   0  0  0  0  0  0  0  0  0  0  0  0
    4.5496   27.0498   28.7545 H   0  0  0  0  0  0  0  0  0  0  0  0
    4.2769   20.2950   36.5789 H   0  0  0  0  0  0  0  0  0  0  0  0
    2.4247   20.1379   36.0610 H   0  0  0  0  0  0  0  0  0  0  0  0
    3.8251   22.6039   36.2797 H   0  0  0  0  0  0  0  0  0  0  0  0
    3.1600   16.8700   39.0024 H   0  0  0  0  0  0  0  0  0  0  0  0
   -1.8832   18.5318   43.5216 H   0  0  0  0  0  0  0  0  0  0  0  0
    5.0073   20.9154   34.7404 H   0  0  0  0  0  0  0  0  0  0  0  0
    3.5576   21.4191   33.6215 H   0  0  0  0  0  0  0  0  0  0  0  0
    3.6162   21.0573   38.5561 H   0  0  0  0  0  0  0  0  0  0  0  0
    1.8641   21.3094   37.8854 H   0  0  0  0  0  0  0  0  0  0  0  0
    4.3362   22.3151   31.2054 H   0  0  0  0  0  0  0  0  0  0  0  0
    2.8495   23.2241   30.4753 H   0  0  0  0  0  0  0  0  0  0  0  0
    1.7684   21.1593   41.1201 H   0  0  0  0  0  0  0  0  0  0  0  0
   -0.1331   17.2983   41.9278 H   0  0  0  0  0  0  0  0  0  0  0  0
    4.5356   27.3415   31.0142 H   0  0  0  0  0  0  0  0  0  0  0  0
    2.7708   27.2552   30.5005 H   0  0  0  0  0  0  0  0  0  0  0  0
    5.7765   23.2365   34.5765 H   0  0  0  0  0  0  0  0  0  0  0  0
    5.3914   22.3769   32.8284 H   0  0  0  0  0  0  0  0  0  0  0  0
    3.6982   26.1516   32.6187 H   0  0  0  0  0  0  0  0  0  0  0  0
    2.4093   25.4194   31.3834 H   0  0  0  0  0  0  0  0  0  0  0  0
    3.8376   23.1164   28.5323 H   0  0  0  0  0  0  0  0  0  0  0  0
    5.3848   22.5419   29.2277 H   0  0  0  0  0  0  0  0  0  0  0  0
    1.5899   19.0460   38.0824 H   0  0  0  0  0  0  0  0  0  0  0  0
    1.8882   23.1875   36.5880 H   0  0  0  0  0  0  0  0  0  0  0  0
    2.5629   23.8158   35.0463 H   0  0  0  0  0  0  0  0  0  0  0  0
    1.3390   22.5013   35.0214 H   0  0  0  0  0  0  0  0  0  0  0  0
    4.8759   25.1232   33.6596 H   0  0  0  0  0  0  0  0  0  0  0  0
    0.1632   22.3320   42.7320 H   0  0  0  0  0  0  0  0  0  0  0  0
    2.8744   18.4019   41.2582 H   0  0  0  0  0  0  0  0  0  0  0  0
  2 15  2  0
  3  1  2  0
  5 21  1  0
  6 13  1  0
  7 26  1  0
  7  6  1  0
  8 17  1  0
  8 20  2  0
  9 18  2  3
 10  5  1  0
 10 24  1  0
 11  4  2  0
 12  7  1  0
 13 25  1  0
 14 16  1  0
 15  9  1  0
 15 19  1  0
 16 27  2  3
 17 28  2  0
 18 29  1  0
 20 11  1  0
 21 23  1  0
 22 12  1  0
 23 16  1  0
 24 14  1  0
 25  3  1  0
 27 22  1  0
 28  4  1  0
 29  3  1  0
 29  8  1  0
  4 30  1  0
  5 31  1  0
  5 32  1  0
  6 33  1  0
  6 34  1  0
  7 35  1  1
  9 36  1  0
 11 37  1  0
 12 38  1  0
 12 39  1  0
 13 40  1  0
 13 41  1  0
 14 42  1  0
 14 43  1  0
 17 44  1  0
 20 45  1  0
 21 46  1  0
 21 47  1  0
 22 48  1  0
 22 49  1  0
 23 50  1  0
 23 51  1  0
 24 52  1  0
 24 53  1  0
 25 54  1  0
 26 55  1  0
 26 56  1  0
 26 57  1  0
 27 58  1  0
 28 59  1  0
 29 60  1  1
M  CHG  1  19  -1
M  END
>  <mol_id>  (71) 
2026-09-16-6tgu-s0-n100-0071

>  <rmsd_to_ref>  (71) 


$$$$

     RDKit          3D

 49 50  0  0  0  0  0  0  0  0999 V2000
    1.8143   26.0989   31.2308 C   0  0  0  0  0  0  0  0  0  0  0  0
    2.1141   22.8450   35.4652 C   0  0  0  0  0  0  0  0  0  0  0  0
    0.9513   17.7834   42.5133 C   0  0  0  0  0  0  0  0  0  0  0  0
    1.4542   23.9940   35.5828 C   0  0  0  0  0  0  0  0  0  0  0  0
    1.7280   25.0082   34.5415 C   0  0  0  0  0  0  0  0  0  0  0  0
    2.5752   18.0881   37.6724 O   0  0  0  0  0  0  0  0  0  0  0  0
    1.8913   24.2406   32.9996 C   0  0  0  0  0  0  0  0  0  0  0  0
    2.3432   18.9444   38.6795 C   0  0  0  0  0  0  0  0  0  0  0  0
    0.6664   20.2370   43.0505 C   0  0  0  0  0  0  0  0  0  0  0  0
    1.2783   21.9528   41.4970 C   0  0  0  0  0  0  0  0  0  0  0  0
    1.1783   26.2543   29.8362 C   0  0  0  0  0  0  0  0  0  0  0  0
    1.6402   24.8839   31.8171 O   0  0  0  0  0  0  0  0  0  0  0  0
    0.8750   21.6807   42.6868 C   0  0  0  0  0  0  0  0  0  0  0  0
    1.1964   27.0754   32.1478 C   0  0  0  0  0  0  0  0  0  0  0  0
    1.6802   21.0038   40.4640 C   0  0  0  0  0  0  0  0  0  0  0  0
    1.9993   18.5995   39.9599 N   0  0  0  0  0  0  0  0  0  0  0  0
    3.5691   17.1031   37.7095 C   0  0  0  0  0  0  0  0  0  0  0  0
    1.0396   19.2510   42.1403 C   0  0  0  0  0  0  0  0  0  0  0  0
    2.5183   21.5491   36.0657 C   0  0  0  0  0  0  0  0  0  0  0  0
    2.3772   21.6710   37.0041 C   0  0  0  0  0  0  0  0  0  0  0  0
    1.5966   19.5597   40.8601 C   0  0  0  0  0  0  0  0  0  0  0  0
    1.8570   21.3416   39.0677 N   0  0  0  0  0  0  0  0  0  0  0  0
    2.2442   20.5459   38.2024 C   0  0  0  0  0  0  0  0  0  0  0  0
    2.8918   26.2453   31.0652 H   0  0  0  0  0  0  0  0  0  0  0  0
    2.5690   22.8640   34.4638 H   0  0  0  0  0  0  0  0  0  0  0  0
    1.0820   17.6728   43.5999 H   0  0  0  0  0  0  0  0  0  0  0  0
   -0.0330   17.3892   42.2204 H   0  0  0  0  0  0  0  0  0  0  0  0
    1.7408   17.2240   41.9901 H   0  0  0  0  0  0  0  0  0  0  0  0
    0.7473   24.1788   36.4051 H   0  0  0  0  0  0  0  0  0  0  0  0
    0.8961   25.7269   34.5047 H   0  0  0  0  0  0  0  0  0  0  0  0
    2.6632   25.5337   34.7850 H   0  0  0  0  0  0  0  0  0  0  0  0
    2.9340   23.8953   32.9416 H   0  0  0  0  0  0  0  0  0  0  0  0
    1.0717   23.5075   33.0302 H   0  0  0  0  0  0  0  0  0  0  0  0
    0.2259   19.9636   44.0206 H   0  0  0  0  0  0  0  0  0  0  0  0
    1.3257   23.0183   41.2279 H   0  0  0  0  0  0  0  0  0  0  0  0
    0.1218   26.5406   29.9449 H   0  0  0  0  0  0  0  0  0  0  0  0
    1.7134   27.0337   29.2740 H   0  0  0  0  0  0  0  0  0  0  0  0
    1.2456   25.2996   29.2941 H   0  0  0  0  0  0  0  0  0  0  0  0
    0.6879   22.4812   43.4177 H   0  0  0  0  0  0  0  0  0  0  0  0
    1.4847   26.8398   33.1828 H   0  0  0  0  0  0  0  0  0  0  0  0
    1.5421   28.0880   31.8923 H   0  0  0  0  0  0  0  0  0  0  0  0
    0.1018   27.0267   32.0520 H   0  0  0  0  0  0  0  0  0  0  0  0
    3.8638   16.9187   38.7532 H   0  0  0  0  0  0  0  0  0  0  0  0
    3.1806   16.1734   37.2685 H   0  0  0  0  0  0  0  0  0  0  0  0
    4.4440   17.4433   37.1362 H   0  0  0  0  0  0  0  0  0  0  0  0
    1.8941   20.7292   35.6806 H   0  0  0  0  0  0  0  0  0  0  0  0
    3.5579   21.2803   35.8274 H   0  0  0  0  0  0  0  0  0  0  0  0
    2.2909   22.7173   37.3326 H   0  0  0  0  0  0  0  0  0  0  0  0
    1.6469   22.3065   38.7752 H   0  0  0  0  0  0  0  0  0  0  0  0
  1 12  1  0
  1 14  1  0
  2  4  2  3
  2 19  1  0
  5  4  1  0
  6 17  1  0
  6  8  1  0
  7  5  1  0
  8 16  2  0
 10 13  2  0
 11  1  1  0
 12  7  1  0
 13  9  1  0
 15 21  2  0
 15 10  1  0
 16 21  1  0
 18  3  1  0
 18  9  2  0
 19 20  1  0
 20 23  2  3
 21 18  1  0
 22 15  1  0
 23  8  1  0
 23 22  1  0
  1 24  1  0
  2 25  1  0
  3 26  1  0
  3 27  1  0
  3 28  1  0
  4 29  1  0
  5 30  1  0
  5 31  1  0
  7 32  1  0
  7 33  1  0
  9 34  1  0
 10 35  1  0
 11 36  1  0
 11 37  1  0
 11 38  1  0
 13 39  1  0
 14 40  1  0
 14 41  1  0
 14 42  1  0
 17 43  1  0
 17 44  1  0
 17 45  1  0
 19 46  1  0
 19 47  1  0
 20 48  1  0
 22 49  1  0
M  END
>  <mol_id>  (72) 
2026-09-16-6tgu-s0-n100-0072

>  <rmsd_to_ref>  (72) 


$$$$

     RDKit          3D

 28 30  0  0  0  0  0  0  0  0999 V2000
    2.0902   20.7742   37.9353 C   0  0  0  0  0  0  0  0  0  0  0  0
    2.5600   19.6378   37.2320 C   0  0  0  0  0  0  0  0  0  0  0  0
    4.7625   23.2012   32.4533 C   0  0  0  0  0  0  0  0  0  0  0  0
    4.5785   22.7068   33.8810 C   0  0  0  0  0  0  0  0  0  0  0  0
    1.3476   18.1851   40.6374 C   0  0  0  0  0  0  0  0  0  0  0  0
    1.6927   20.3795   39.3142 C   0  0  0  0  0  0  0  0  0  0  0  0
    3.9902   21.4864   34.2007 N   0  0  0  0  0  0  0  0  0  0  0  0
    2.5034   22.2194   36.0512 C   0  0  0  0  0  0  0  0  0  0  0  0
    3.1777   19.9624   35.9815 C   0  0  0  0  0  0  0  0  0  0  0  0
    2.2748   18.2332   38.1238 S   0  0  0  0  0  0  0  0  0  0  0  0
    1.9669   22.0151   37.3240 C   0  0  0  0  0  0  0  0  0  0  0  0
    1.6906   19.0819   39.5355 C   0  0  0  0  0  0  0  0  0  0  0  0
    5.3662   23.4024   33.4777 C   0  0  0  0  0  0  0  0  0  0  0  0
    3.2111   21.2096   35.4141 C   0  0  0  0  0  0  0  0  0  0  0  0
    0.8549   17.0426   40.0819 O   0  0  0  0  0  0  0  0  0  0  0  0
    4.0999   23.9587   32.0093 H   0  0  0  0  0  0  0  0  0  0  0  0
    4.9258   22.8118   31.4376 H   0  0  0  0  0  0  0  0  0  0  0  0
    4.1945   22.6431   34.9098 H   0  0  0  0  0  0  0  0  0  0  0  0
    2.2438   17.9593   41.2338 H   0  0  0  0  0  0  0  0  0  0  0  0
    0.6062   18.6487   41.3049 H   0  0  0  0  0  0  0  0  0  0  0  0
    1.4220   21.1140   40.0871 H   0  0  0  0  0  0  0  0  0  0  0  0
    4.1115   20.7137   33.5306 H   0  0  0  0  0  0  0  0  0  0  0  0
    2.3641   23.1883   35.5494 H   0  0  0  0  0  0  0  0  0  0  0  0
    3.6652   19.1439   35.4315 H   0  0  0  0  0  0  0  0  0  0  0  0
    1.4476   22.8352   37.8415 H   0  0  0  0  0  0  0  0  0  0  0  0
    6.4001   23.0283   33.5086 H   0  0  0  0  0  0  0  0  0  0  0  0
    5.5965   24.3970   33.8873 H   0  0  0  0  0  0  0  0  0  0  0  0
    0.6607   16.3855   40.7964 H   0  0  0  0  0  0  0  0  0  0  0  0
  1  6  1  0
  2  1  1  0
  2 10  1  0
  3 13  1  0
  3  4  1  0
  4  7  1  0
  6 12  2  0
  7 14  1  0
  8 11  1  0
  9  2  2  0
 10 12  1  0
 11  1  2  0
 12  5  1  0
 13  4  1  0
 14  8  2  0
 14  9  1  0
 15  5  1  0
  3 16  1  0
  3 17  1  0
  4 18  1  0
  5 19  1  0
  5 20  1  0
  6 21  1  0
  7 22  1  0
  8 23  1  0
  9 24  1  0
 11 25  1  0
 13 26  1  0
 13 27  1  0
 15 28  1  0
M  END
>  <mol_id>  (73) 
2026-09-16-6tgu-s0-n100-0073

>  <rmsd_to_ref>  (73) 


$$$$

     RDKit          3D

 66 68  0  0  0  0  0  0  0  0999 V2000
    4.2092   19.5107   36.2405 C   0  0  0  0  0  0  0  0  0  0  0  0
    2.3691   26.1954   29.4052 C   0  0  0  0  0  0  0  0  0  0  0  0
    2.9867   17.2223   38.4319 O   0  0  0  0  0  0  0  0  0  0  0  0
    3.5156   13.5844   36.8914 O   0  0  0  0  0  0  0  0  0  0  0  0
    1.1139   28.0229   31.5550 C   0  0  0  0  0  0  0  0  0  0  0  0
    4.2930   15.1520   38.7764 O   0  0  0  0  0  0  0  0  0  0  0  0
    3.1569   26.0596   30.5313 C   0  0  0  0  0  0  0  0  0  0  0  0
    3.4273   15.0358   36.5051 C   0  0  0  0  0  0  0  0  0  0  0  0
    1.2685   19.1726   40.0020 N   0  0  0  0  0  0  0  0  0  0  0  0
    3.5515   18.2142   38.7811 C   0  0  1  0  0  0  0  0  0  0  0  0
    3.0700   26.4126   31.9818 C   0  0  1  0  0  0  0  0  0  0  0  0
    1.5758   27.0738   34.0550 S   0  0  0  0  0  0  0  0  0  0  0  0
    3.0716   20.2414   38.5978 C   0  0  0  0  0  0  0  0  0  0  0  0
    2.3129   22.7321   35.7931 C   0  0  0  0  0  0  0  0  0  0  0  0
    1.8101   20.8286   41.3233 O   0  0  0  0  0  0  0  0  0  0  0  0
    1.2335   28.1702   30.1983 C   0  0  0  0  0  0  0  0  0  0  0  0
    1.1590   27.0220   29.0105 S   0  0  0  0  0  0  0  0  0  0  0  0
    1.4920   26.6419   32.2598 C   0  0  1  0  0  0  0  0  0  0  0  0
    0.3576   18.8310   42.2645 C   0  0  0  0  0  0  0  0  0  0  0  0
    3.9137   19.2034   37.9831 C   0  0  2  0  0  0  0  0  0  0  0  0
    0.9307   19.6763   41.3903 C   0  0  0  0  0  0  0  0  0  0  0  0
    2.6840   19.2522   39.5703 C   0  0  1  0  0  0  0  0  0  0  0  0
    4.1211   21.3984   34.7136 O   0  0  0  0  0  0  0  0  0  0  0  0
    3.6569   15.9478   37.7994 C   0  0  0  0  0  0  0  0  0  0  0  0
   -0.2514   20.0796   41.8564 C   0  0  0  0  0  0  0  0  0  0  0  0
    3.5683   25.5887   33.1978 C   0  0  0  0  0  0  0  0  0  0  0  0
    1.1160   28.8513   32.4256 O   0  0  0  0  0  0  0  0  0  0  0  0
    3.8961   20.9826   36.0634 C   0  0  1  0  0  0  0  0  0  0  0  0
    3.0910   26.1929   34.3356 C   0  0  0  0  0  0  0  0  0  0  0  0
    2.7089   21.4384   36.4746 N   0  0  0  0  0  0  0  0  0  0  0  0
    5.2570   19.3007   35.9797 H   0  0  0  0  0  0  0  0  0  0  0  0
    3.5968   18.8687   35.5901 H   0  0  0  0  0  0  0  0  0  0  0  0
    3.1038   26.4660   28.6327 H   0  0  0  0  0  0  0  0  0  0  0  0
    1.7873   25.2821   29.5991 H   0  0  0  0  0  0  0  0  0  0  0  0
    3.4589   13.5011   37.8763 H   0  0  0  0  0  0  0  0  0  0  0  0
    3.3239   24.9729   30.5672 H   0  0  0  0  0  0  0  0  0  0  0  0
    3.7885   26.9254   30.2832 H   0  0  0  0  0  0  0  0  0  0  0  0
    4.1992   15.2630   35.7550 H   0  0  0  0  0  0  0  0  0  0  0  0
    2.4329   15.2427   36.0828 H   0  0  0  0  0  0  0  0  0  0  0  0
    0.9873   18.1827   39.9562 H   0  0  0  0  0  0  0  0  0  0  0  0
    0.7638   19.8043   39.3639 H   0  0  0  0  0  0  0  0  0  0  0  0
    4.3568   17.5935   39.2008 H   0  0  0  0  0  0  0  0  0  0  0  0
    3.8284   27.2091   31.9999 H   0  0  0  0  0  0  0  0  0  0  0  0
    2.2522   20.6056   37.9607 H   0  0  0  0  0  0  0  0  0  0  0  0
    3.4786   21.2193   38.8943 H   0  0  0  0  0  0  0  0  0  0  0  0
    1.9884   23.4611   36.5504 H   0  0  0  0  0  0  0  0  0  0  0  0
    3.1753   23.1351   35.2420 H   0  0  0  0  0  0  0  0  0  0  0  0
    1.4873   22.5395   35.0922 H   0  0  0  0  0  0  0  0  0  0  0  0
    2.0427   21.1200   42.2404 H   0  0  0  0  0  0  0  0  0  0  0  0
    0.4445   28.8889   29.9321 H   0  0  0  0  0  0  0  0  0  0  0  0
    2.3165   28.3595   30.1601 H   0  0  0  0  0  0  0  0  0  0  0  0
    0.8229   25.8241   31.9542 H   0  0  0  0  0  0  0  0  0  0  0  0
   -0.0557   17.8703   41.9233 H   0  0  0  0  0  0  0  0  0  0  0  0
    0.6410   18.3577   43.2161 H   0  0  0  0  0  0  0  0  0  0  0  0
    4.9918   19.0006   37.9037 H   0  0  0  0  0  0  0  0  0  0  0  0
    2.8457   19.2886   40.6577 H   0  0  0  0  0  0  0  0  0  0  0  0
    4.5642   22.2838   34.7105 H   0  0  0  0  0  0  0  0  0  0  0  0
   -0.3141   20.9238   42.5587 H   0  0  0  0  0  0  0  0  0  0  0  0
   -1.2128   20.3850   41.4176 H   0  0  0  0  0  0  0  0  0  0  0  0
    3.1884   24.5584   33.1332 H   0  0  0  0  0  0  0  0  0  0  0  0
    4.6675   25.5515   33.2134 H   0  0  0  0  0  0  0  0  0  0  0  0
    4.6062   21.4426   36.7665 H   0  0  0  0  0  0  0  0  0  0  0  0
    3.8480   26.9017   34.7024 H   0  0  0  0  0  0  0  0  0  0  0  0
    2.8856   25.4022   35.0722 H   0  0  0  0  0  0  0  0  0  0  0  0
    2.7519   21.6008   37.4908 H   0  0  0  0  0  0  0  0  0  0  0  0
    2.0020   20.7295   36.2323 H   0  0  0  0  0  0  0  0  0  0  0  0
  2  7  1  0
  5 27  2  0
  8  4  1  0
  8 24  1  0
  9 21  1  0
 10  3  1  0
 10 22  1  0
 11  7  1  0
 11 18  1  0
 11 26  1  0
 12 29  1  0
 13 22  1  0
 14 30  1  0
 15 21  1  0
 16  5  1  0
 17  2  1  0
 17 16  1  0
 18  5  1  0
 18 12  1  0
 20  1  1  0
 20 13  1  0
 20 10  1  0
 21 25  1  0
 21 19  1  0
 22  9  1  0
 24  3  1  0
 24  6  2  0
 25 19  1  0
 26 29  1  0
 28 23  1  0
 28  1  1  0
 28 30  1  0
  1 31  1  0
  1 32  1  0
  2 33  1  0
  2 34  1  0
  4 35  1  0
  7 36  1  0
  7 37  1  0
  8 38  1  0
  8 39  1  0
  9 40  1  0
  9 41  1  0
 10 42  1  1
 11 43  1  6
 13 44  1  0
 13 45  1  0
 14 46  1  0
 14 47  1  0
 14 48  1  0
 15 49  1  0
 16 50  1  0
 16 51  1  0
 18 52  1  1
 19 53  1  0
 19 54  1  0
 20 55  1  1
 22 56  1  1
 23 57  1  0
 25 58  1  0
 25 59  1  0
 26 60  1  0
 26 61  1  0
 28 62  1  1
 29 63  1  0
 29 64  1  0
 30 65  1  0
 30 66  1  0
M  CHG  2   9   1  30   1
M  END
>  <mol_id>  (74) 
2026-09-16-6tgu-s0-n100-0074

>  <rmsd_to_ref>  (74) 


$$$$

     RDKit          3D

 42 41  0  0  0  0  0  0  0  0999 V2000
    3.4810   24.2300   32.4270 C   0  0  0  0  0  0  0  0  0  0  0  0
    3.8630   23.1440   33.6350 S   0  0  0  0  0  0  0  0  0  0  0  0
    2.8820   18.5440   39.9770 C   0  0  0  0  0  0  0  0  0  0  0  0
    4.2180   24.2990   30.9620 S   0  0  0  0  0  0  0  0  0  0  0  0
    3.4180   21.4820   35.3570 N   0  0  0  0  0  0  0  0  0  0  0  0
    2.6810   17.2750   39.5090 C   0  0  1  0  0  0  0  0  0  0  0  0
    3.9280   19.4790   37.9440 C   0  0  0  0  0  0  0  0  0  0  0  0
    2.5130   25.2950   32.4290 C   0  0  0  0  0  0  0  0  0  0  0  0
    1.8890   21.4570   36.9080 O   0  0  0  0  0  0  0  0  0  0  0  0
    3.0410   21.0480   36.3090 C   0  0  0  0  0  0  0  0  0  0  0  0
    3.7910   19.9910   36.8340 O   0  0  0  0  0  0  0  0  0  0  0  0
    3.1360   16.8550   38.3520 O   0  0  0  0  0  0  0  0  0  0  0  0
    1.2730   16.6310   41.3330 C   0  0  0  0  0  0  0  0  0  0  0  0
    2.1860   25.8900   31.3390 C   0  0  0  0  0  0  0  0  0  0  0  0
    3.3450   25.6050   30.2890 C   0  0  0  0  0  0  0  0  0  0  0  0
    3.0180   19.7280   39.1090 C   0  0  0  0  0  0  0  0  0  0  0  0
    2.2040   16.2750   40.4110 C   0  0  0  0  0  0  0  0  0  0  0  0
    2.3230   23.3450   34.5920 S   0  0  0  0  0  0  0  0  0  0  0  0
    1.4780   17.4910   42.4680 C   0  0  0  0  0  0  0  0  0  0  0  0
    2.0306   18.7561   40.6405 H   0  0  0  0  0  0  0  0  0  0  0  0
    3.9019   18.4605   40.3805 H   0  0  0  0  0  0  0  0  0  0  0  0
    2.9155   22.2637   34.9127 H   0  0  0  0  0  0  0  0  0  0  0  0
    4.2697   21.1023   34.9196 H   0  0  0  0  0  0  0  0  0  0  0  0
    1.8277   17.7659   39.0182 H   0  0  0  0  0  0  0  0  0  0  0  0
    4.9320   19.7729   38.2841 H   0  0  0  0  0  0  0  0  0  0  0  0
    3.6880   18.4298   37.7169 H   0  0  0  0  0  0  0  0  0  0  0  0
    2.0472   25.6034   33.3766 H   0  0  0  0  0  0  0  0  0  0  0  0
    3.8551   16.1912   38.5015 H   0  0  0  0  0  0  0  0  0  0  0  0
    0.9112   15.6819   41.7551 H   0  0  0  0  0  0  0  0  0  0  0  0
    0.6475   17.2916   40.7146 H   0  0  0  0  0  0  0  0  0  0  0  0
    1.2307   25.4939   30.9642 H   0  0  0  0  0  0  0  0  0  0  0  0
    2.0618   26.9705   31.5033 H   0  0  0  0  0  0  0  0  0  0  0  0
    3.9917   26.4874   30.1743 H   0  0  0  0  0  0  0  0  0  0  0  0
    2.9549   25.3757   29.2864 H   0  0  0  0  0  0  0  0  0  0  0  0
    3.4253   20.5582   39.7047 H   0  0  0  0  0  0  0  0  0  0  0  0
    2.0212   19.9695   38.7113 H   0  0  0  0  0  0  0  0  0  0  0  0
    1.7682   15.4689   39.8026 H   0  0  0  0  0  0  0  0  0  0  0  0
    3.0874   16.0042   41.0079 H   0  0  0  0  0  0  0  0  0  0  0  0
    2.6094   23.3076   35.9312 H   0  0  0  0  0  0  0  0  0  0  0  0
    1.3405   16.9143   43.3946 H   0  0  0  0  0  0  0  0  0  0  0  0
    2.4988   17.8999   42.4386 H   0  0  0  0  0  0  0  0  0  0  0  0
    0.7514   18.3164   42.4386 H   0  0  0  0  0  0  0  0  0  0  0  0
  1  8  2  0
  1  2  1  0
  2 18  1  0
  4  1  1  0
  5 10  1  0
  6 12  1  0
  6  3  1  0
  6 17  1  0
  7 16  1  0
 10 11  1  0
 10  9  2  0
 11  7  1  0
 13 19  1  0
 14  8  1  0
 15  4  1  0
 15 14  1  0
 16  3  1  0
 17 13  1  0
  3 20  1  0
  3 21  1  0
  5 22  1  0
  5 23  1  0
  6 24  1  6
  7 25  1  0
  7 26  1  0
  8 27  1  0
 12 28  1  0
 13 29  1  0
 13 30  1  0
 14 31  1  0
 14 32  1  0
 15 33  1  0
 15 34  1  0
 16 35  1  0
 16 36  1  0
 17 37  1  0
 17 38  1  0
 18 39  1  0
 19 40  1  0
 19 41  1  0
 19 42  1  0
M  END
>  <mol_id>  (75) 
2026-09-16-6tgu-s0-n100-0075

>  <rmsd_to_ref>  (75) 


$$$$

     RDKit          3D

 54 56  0  0  0  0  0  0  0  0999 V2000
    4.2190   17.0590   36.6550 N   0  0  0  0  0  0  0  0  0  0  0  0
    5.9460   27.4270   30.6430 C   0  0  0  0  0  0  0  0  0  0  0  0
    2.3040   19.1850   40.4160 C   0  0  0  0  0  0  0  0  0  0  0  0
    4.0190   24.6530   33.0140 C   0  0  0  0  0  0  0  0  0  0  0  0
    3.3280   14.9410   37.5880 C   0  0  0  0  0  0  0  0  0  0  0  0
    4.4280   15.8970   37.2450 C   0  0  0  0  0  0  0  0  0  0  0  0
    4.3380   13.1770   36.3810 O   0  0  0  0  0  0  0  0  0  0  0  0
    0.0480   19.2460   42.1370 C   0  0  0  0  0  0  0  0  0  0  0  0
    2.4570   27.3380   31.1450 C   0  0  0  0  0  0  0  0  0  0  0  0
    5.0850   26.1330   31.1490 S   0  0  2  0  0  4  0  0  0  0  0  0
    1.6810   20.3740   40.8220 C   0  0  0  0  0  0  0  0  0  0  0  0
    2.9250   24.9870   31.9820 C   0  0  1  0  0  0  0  0  0  0  0  0
    1.7850   17.9980   40.8980 C   0  0  0  0  0  0  0  0  0  0  0  0
    5.3220   25.0450   32.1450 C   0  0  2  0  0  0  0  0  0  0  0  0
    5.2950   24.9500   30.5490 O   0  0  0  0  0  0  0  0  0  0  0  0
    2.2370   13.7470   35.8520 O   0  0  0  0  0  0  0  0  0  0  0  0
    0.6740   18.0320   41.8320 C   0  0  0  0  0  0  0  0  0  0  0  0
    3.7650   18.2770   37.1900 C   0  0  0  0  0  0  0  0  0  0  0  0
    0.6290   20.4640   41.6530 C   0  0  0  0  0  0  0  0  0  0  0  0
    3.2840   13.8310   36.5350 C   0  0  0  0  0  0  0  0  0  0  0  0
    3.4480   18.1520   38.5430 N   0  0  0  0  0  0  0  0  0  0  0  0
    3.6570   19.3250   36.5710 O   0  0  0  0  0  0  0  0  0  0  0  0
    4.2960   20.0210   39.5050 O   0  0  0  0  0  0  0  0  0  0  0  0
    1.6050   25.4890   32.4270 C   0  0  0  0  0  0  0  0  0  0  0  0
    0.8460   26.6760   31.3630 S   0  0  0  0  0  0  0  0  0  0  0  0
    3.3820   26.1900   31.0650 C   0  0  1  0  0  0  0  0  0  0  0  0
   -1.0940   19.2300   42.8960 O   0  0  0  0  0  0  0  0  0  0  0  0
    3.4410   19.2070   39.4790 C   0  0  0  0  0  0  0  0  0  0  0  0
   -1.3450   18.0800   43.6630 C   0  0  0  0  0  0  0  0  0  0  0  0
    4.4199   17.0760   35.6449 H   0  0  0  0  0  0  0  0  0  0  0  0
    6.3170   27.9846   31.5156 H   0  0  0  0  0  0  0  0  0  0  0  0
    6.7980   27.0861   30.0364 H   0  0  0  0  0  0  0  0  0  0  0  0
    5.3025   28.0812   30.0364 H   0  0  0  0  0  0  0  0  0  0  0  0
    3.9297   25.2675   33.9220 H   0  0  0  0  0  0  0  0  0  0  0  0
    4.0031   23.6234   33.4009 H   0  0  0  0  0  0  0  0  0  0  0  0
    3.5170   14.5019   38.5787 H   0  0  0  0  0  0  0  0  0  0  0  0
    2.3657   15.4737   37.6060 H   0  0  0  0  0  0  0  0  0  0  0  0
    5.1146   15.3437   36.5874 H   0  0  0  0  0  0  0  0  0  0  0  0
    4.7574   16.2169   38.2446 H   0  0  0  0  0  0  0  0  0  0  0  0
    2.5023   27.9264   30.2167 H   0  0  0  0  0  0  0  0  0  0  0  0
    2.7260   28.0047   31.9775 H   0  0  0  0  0  0  0  0  0  0  0  0
    2.0893   21.3153   40.4254 H   0  0  0  0  0  0  0  0  0  0  0  0
    2.8029   23.9869   31.5405 H   0  0  0  0  0  0  0  0  0  0  0  0
    2.2102   17.0357   40.5766 H   0  0  0  0  0  0  0  0  0  0  0  0
    6.0174   24.7435   32.9422 H   0  0  0  0  0  0  0  0  0  0  0  0
    0.3233   17.1010   42.3012 H   0  0  0  0  0  0  0  0  0  0  0  0
    0.2258   21.4425   41.9529 H   0  0  0  0  0  0  0  0  0  0  0  0
    3.1989   17.2133   38.8860 H   0  0  0  0  0  0  0  0  0  0  0  0
    0.9262   24.6277   32.5130 H   0  0  0  0  0  0  0  0  0  0  0  0
    1.7847   26.0084   33.3799 H   0  0  0  0  0  0  0  0  0  0  0  0
    3.2502   26.2174   29.9733 H   0  0  0  0  0  0  0  0  0  0  0  0
   -1.2898   18.3330   44.7321 H   0  0  0  0  0  0  0  0  0  0  0  0
   -2.3484   17.6948   43.4287 H   0  0  0  0  0  0  0  0  0  0  0  0
   -0.5934   17.3118   43.4287 H   0  0  0  0  0  0  0  0  0  0  0  0
  1 18  1  0
  1  6  1  0
  3 11  2  0
  3 13  1  0
  6  5  1  0
  7 20  1  0
  8 27  1  0
  9 25  1  0
 10  2  1  6
 10 14  1  0
 11 19  1  0
 12 24  1  0
 12  4  1  0
 13 17  2  0
 14  4  1  0
 15 10  1  0
 15 14  1  0
 16 20  2  0
 17  8  1  0
 18 21  1  0
 19  8  2  0
 20  5  1  0
 21 28  1  0
 22 18  2  0
 25 24  1  0
 26  9  1  0
 26 10  1  0
 26 12  1  0
 27 29  1  0
 28 23  2  0
 28  3  1  0
  1 30  1  0
  2 31  1  0
  2 32  1  0
  2 33  1  0
  4 34  1  0
  4 35  1  0
  5 36  1  0
  5 37  1  0
  6 38  1  0
  6 39  1  0
  9 40  1  0
  9 41  1  0
 11 42  1  0
 12 43  1  6
 13 44  1  0
 14 45  1  1
 17 46  1  0
 19 47  1  0
 21 48  1  0
 24 49  1  0
 24 50  1  0
 26 51  1  6
 29 52  1  0
 29 53  1  0
 29 54  1  0
M  CHG  1   7  -1
M  END
>  <mol_id>  (76) 
2026-09-16-6tgu-s0-n100-0076

>  <rmsd_to_ref>  (76) 


$$$$

     RDKit          3D

 80 84  0  0  0  0  0  0  0  0999 V2000
    0.8774   18.5055   39.8802 C   0  0  0  0  0  0  0  0  0  0  0  0
    0.2099   19.2609   40.9102 C   0  0  0  0  0  0  0  0  0  0  0  0
    2.2222   20.3409   36.6173 C   0  0  0  0  0  0  0  0  0  0  0  0
    2.8438   17.6857   35.9557 C   0  0  0  0  0  0  0  0  0  0  0  0
    3.4936   20.4201   34.6218 O   0  0  0  0  0  0  0  0  0  0  0  0
   -0.0268   20.7133   40.8125 C   0  0  0  0  0  0  0  0  0  0  0  0
    2.5422   17.6299   38.4674 C   0  0  0  0  0  0  0  0  0  0  0  0
    2.4252   24.7304   32.5984 N   0  0  0  0  0  0  0  0  0  0  0  0
    3.5610   22.9242   33.4099 C   0  0  0  0  0  0  0  0  0  0  0  0
    1.1701   27.9591   29.7761 C   0  0  0  0  0  0  0  0  0  0  0  0
    0.9297   21.4535   40.0130 C   0  0  0  0  0  0  0  0  0  0  0  0
    1.3602   13.0119   35.3842 C   0  0  0  0  0  0  0  0  0  0  0  0
    1.9738   22.3119   35.0332 C   0  0  0  0  0  0  0  0  0  0  0  0
    4.2967   24.4527   31.2791 C   0  0  0  0  0  0  0  0  0  0  0  0
    1.2950   20.7013   38.8034 C   0  0  0  0  0  0  0  0  0  0  0  0
    2.2168   18.6294   38.1534 C   0  0  0  0  0  0  0  0  0  0  0  0
    1.5998   26.6394   29.6625 C   0  0  0  0  0  0  0  0  0  0  0  0
    2.1425   16.3908   38.0170 C   0  0  0  0  0  0  0  0  0  0  0  0
    1.8910   25.8387   30.6443 C   0  0  0  0  0  0  0  0  0  0  0  0
    1.6957   19.5856   38.8133 C   0  0  0  0  0  0  0  0  0  0  0  0
    2.2010   15.1574   35.9735 N   0  0  0  0  0  0  0  0  0  0  0  0
    2.5872   13.7889   35.9635 C   0  0  1  0  0  0  0  0  0  0  0  0
    1.5688   21.3034   37.4856 C   0  0  0  0  0  0  0  0  0  0  0  0
    2.3036   18.9336   36.8627 C   0  0  0  0  0  0  0  0  0  0  0  0
    1.9642   28.2845   32.3032 C   0  0  0  0  0  0  0  0  0  0  0  0
    1.5942   24.1564   33.5071 C   0  0  0  0  0  0  0  0  0  0  0  0
    0.9144   13.7918   34.2200 N   0  0  0  0  0  0  0  0  0  0  0  0
    2.2561   25.9021   32.0046 C   0  0  0  0  0  0  0  0  0  0  0  0
    2.9926   13.4348   37.2508 C   0  0  0  0  0  0  0  0  0  0  0  0
    2.7773   16.3275   36.7194 C   0  0  1  0  0  0  0  0  0  0  0  0
    3.3377   23.7732   32.1571 C   0  0  2  0  0  0  0  0  0  0  0  0
    2.0527   22.6564   33.7304 C   0  0  1  0  0  0  0  0  0  0  0  0
    1.3491   28.5473   31.0757 C   0  0  0  0  0  0  0  0  0  0  0  0
    2.6215   20.9546   35.2963 C   0  0  0  0  0  0  0  0  0  0  0  0
    2.2742   27.0237   32.7112 C   0  0  0  0  0  0  0  0  0  0  0  0
    1.6065   17.8225   40.3407 H   0  0  0  0  0  0  0  0  0  0  0  0
    0.1357   17.9229   39.3141 H   0  0  0  0  0  0  0  0  0  0  0  0
   -0.7812   18.7993   41.0313 H   0  0  0  0  0  0  0  0  0  0  0  0
    0.9414   19.2108   41.7303 H   0  0  0  0  0  0  0  0  0  0  0  0
    3.8883   17.8811   35.6714 H   0  0  0  0  0  0  0  0  0  0  0  0
    2.1951   17.6067   35.0709 H   0  0  0  0  0  0  0  0  0  0  0  0
   -1.0237   20.8645   40.3727 H   0  0  0  0  0  0  0  0  0  0  0  0
    0.0727   21.1031   41.8363 H   0  0  0  0  0  0  0  0  0  0  0  0
    3.6302   17.6374   38.3055 H   0  0  0  0  0  0  0  0  0  0  0  0
    2.0278   17.6062   39.4394 H   0  0  0  0  0  0  0  0  0  0  0  0
    4.0690   23.4814   34.2108 H   0  0  0  0  0  0  0  0  0  0  0  0
    4.2048   22.0394   33.2966 H   0  0  0  0  0  0  0  0  0  0  0  0
    0.7267   28.5107   28.9341 H   0  0  0  0  0  0  0  0  0  0  0  0
    0.4851   22.4155   39.7185 H   0  0  0  0  0  0  0  0  0  0  0  0
    1.8372   21.6175   40.6126 H   0  0  0  0  0  0  0  0  0  0  0  0
    1.6574   11.9984   35.0768 H   0  0  0  0  0  0  0  0  0  0  0  0
    0.5597   12.8992   36.1302 H   0  0  0  0  0  0  0  0  0  0  0  0
    0.9146   22.2648   35.3263 H   0  0  0  0  0  0  0  0  0  0  0  0
    2.5114   23.0694   35.6223 H   0  0  0  0  0  0  0  0  0  0  0  0
    5.0283   25.0016   31.8904 H   0  0  0  0  0  0  0  0  0  0  0  0
    4.8201   23.7079   30.6616 H   0  0  0  0  0  0  0  0  0  0  0  0
    3.7607   25.1582   30.6272 H   0  0  0  0  0  0  0  0  0  0  0  0
    1.7027   26.2358   28.6444 H   0  0  0  0  0  0  0  0  0  0  0  0
    2.5027   15.5891   38.6784 H   0  0  0  0  0  0  0  0  0  0  0  0
    1.0508   16.2598   37.9851 H   0  0  0  0  0  0  0  0  0  0  0  0
    1.8354   24.7915   30.3123 H   0  0  0  0  0  0  0  0  0  0  0  0
    2.2581   15.4397   34.9845 H   0  0  0  0  0  0  0  0  0  0  0  0
    1.3471   15.0488   36.5390 H   0  0  0  0  0  0  0  0  0  0  0  0
    3.4543   13.5492   35.3305 H   0  0  0  0  0  0  0  0  0  0  0  0
    1.3142   22.3349   37.2009 H   0  0  0  0  0  0  0  0  0  0  0  0
    2.2071   29.1292   32.9646 H   0  0  0  0  0  0  0  0  0  0  0  0
    1.6478   24.7063   34.4582 H   0  0  0  0  0  0  0  0  0  0  0  0
    0.5577   24.1830   33.1395 H   0  0  0  0  0  0  0  0  0  0  0  0
    0.3712   14.6063   34.5400 H   0  0  0  0  0  0  0  0  0  0  0  0
    1.7353   14.1141   33.6879 H   0  0  0  0  0  0  0  0  0  0  0  0
    0.3244   13.2012   33.6166 H   0  0  0  0  0  0  0  0  0  0  0  0
    2.3215   13.9004   37.9876 H   0  0  0  0  0  0  0  0  0  0  0  0
    2.9540   12.3409   37.3595 H   0  0  0  0  0  0  0  0  0  0  0  0
    4.0219   13.7840   37.4202 H   0  0  0  0  0  0  0  0  0  0  0  0
    3.8542   16.1399   36.8419 H   0  0  0  0  0  0  0  0  0  0  0  0
    3.1417   22.9697   31.4319 H   0  0  0  0  0  0  0  0  0  0  0  0
    1.5008   21.8835   33.1755 H   0  0  0  0  0  0  0  0  0  0  0  0
    1.7997   29.5156   30.8128 H   0  0  0  0  0  0  0  0  0  0  0  0
    0.3791   28.1683   31.4301 H   0  0  0  0  0  0  0  0  0  0  0  0
    2.5792   26.9221   33.7632 H   0  0  0  0  0  0  0  0  0  0  0  0
  1  2  1  0
  3 24  1  0
  3 23  2  0
  4 30  1  0
  4 24  1  0
  5 34  2  0
  6  2  1  0
  8 26  1  0
  9 32  1  0
 10 33  1  0
 11  6  1  0
 12 22  1  0
 13 34  1  0
 15 20  2  0
 15 11  1  0
 16  7  1  0
 16 20  1  0
 17 10  2  0
 17 19  1  0
 18  7  1  0
 19 28  2  0
 20  1  1  0
 22 21  1  0
 22 29  1  0
 23 15  1  0
 24 16  2  0
 25 35  2  0
 26 32  1  0
 27 12  1  0
 28  8  1  0
 28 35  1  0
 30 21  1  0
 30 18  1  0
 31 14  1  0
 31  8  1  0
 31  9  1  0
 32 13  1  0
 33 25  1  0
 34  3  1  0
  1 36  1  0
  1 37  1  0
  2 38  1  0
  2 39  1  0
  4 40  1  0
  4 41  1  0
  6 42  1  0
  6 43  1  0
  7 44  1  0
  7 45  1  0
  9 46  1  0
  9 47  1  0
 10 48  1  0
 11 49  1  0
 11 50  1  0
 12 51  1  0
 12 52  1  0
 13 53  1  0
 13 54  1  0
 14 55  1  0
 14 56  1  0
 14 57  1  0
 17 58  1  0
 18 59  1  0
 18 60  1  0
 19 61  1  0
 21 62  1  0
 21 63  1  0
 22 64  1  6
 23 65  1  0
 25 66  1  0
 26 67  1  0
 26 68  1  0
 27 69  1  0
 27 70  1  0
 27 71  1  0
 29 72  1  0
 29 73  1  0
 29 74  1  0
 30 75  1  1
 31 76  1  6
 32 77  1  6
 33 78  1  0
 33 79  1  0
 35 80  1  0
M  CHG  2  21   1  27   1
M  END
>  <mol_id>  (77) 
2026-09-16-6tgu-s0-n100-0077

>  <rmsd_to_ref>  (77) 


$$$$

     RDKit          3D

 44 45  0  0  0  0  0  0  0  0999 V2000
    5.2187   23.5446   33.7877 C   0  0  0  0  0  0  0  0  0  0  0  0
    2.5219   16.9755   40.4709 O   0  0  0  0  0  0  0  0  0  0  0  0
    2.4234   18.2001   39.7453 C   0  0  0  0  0  0  0  0  0  0  0  0
    0.4248   19.0012   40.9231 C   0  0  0  0  0  0  0  0  0  0  0  0
    3.6372   23.9884   33.4596 C   0  0  2  0  0  0  0  0  0  0  0  0
    2.6097   20.8808   37.0887 N   0  0  0  0  0  0  0  0  0  0  0  0
    4.5114   20.2092   36.5001 O   0  0  0  0  0  0  0  0  0  0  0  0
    3.1504   25.1367   29.4850 O   0  0  0  0  0  0  0  0  0  0  0  0
    3.3289   16.0471   39.8637 C   0  0  0  0  0  0  0  0  0  0  0  0
    3.7226   21.1019   36.2424 C   0  0  0  0  0  0  0  0  0  0  0  0
    2.5888   25.5449   31.4944 C   0  0  0  0  0  0  0  0  0  0  0  0
    1.4969   20.2443   39.0103 C   0  0  0  0  0  0  0  0  0  0  0  0
    4.8491   25.5179   31.1000 F   0  0  0  0  0  0  0  0  0  0  0  0
    2.5921   23.5502   34.9394 S   0  0  0  0  0  0  0  0  0  0  0  0
    4.6708   22.3581   34.5222 C   0  0  0  0  0  0  0  0  0  0  0  0
    3.6377   25.2693   30.6179 C   0  0  0  0  0  0  0  0  0  0  0  0
    2.4342   19.8935   38.1801 C   0  0  0  0  0  0  0  0  0  0  0  0
    2.8620   23.8756   32.1361 C   0  0  0  0  0  0  0  0  0  0  0  0
   -0.3381   20.4353   41.1181 C   0  0  0  0  0  0  0  0  0  0  0  0
    1.4890   19.1140   40.0163 C   0  0  2  0  0  0  0  0  0  0  0  0
    3.0551   18.7224   38.4843 C   0  0  0  0  0  0  0  0  0  0  0  0
    3.8717   22.2947   35.8269 C   0  0  2  0  0  0  0  0  0  0  0  0
    5.8182   23.2964   32.8994 H   0  0  0  0  0  0  0  0  0  0  0  0
    5.9260   24.2404   34.2626 H   0  0  0  0  0  0  0  0  0  0  0  0
    0.8155   18.6671   41.8956 H   0  0  0  0  0  0  0  0  0  0  0  0
   -0.2972   18.2728   40.5253 H   0  0  0  0  0  0  0  0  0  0  0  0
    3.8583   25.0396   33.2226 H   0  0  0  0  0  0  0  0  0  0  0  0
    1.8019   21.4976   36.9213 H   0  0  0  0  0  0  0  0  0  0  0  0
    3.6385   15.2920   40.6013 H   0  0  0  0  0  0  0  0  0  0  0  0
    2.7759   15.5579   39.0482 H   0  0  0  0  0  0  0  0  0  0  0  0
    4.2193   16.5468   39.4546 H   0  0  0  0  0  0  0  0  0  0  0  0
    1.6118   25.7049   31.0151 H   0  0  0  0  0  0  0  0  0  0  0  0
    2.5751   26.4341   32.1418 H   0  0  0  0  0  0  0  0  0  0  0  0
    0.8640   21.1437   38.9870 H   0  0  0  0  0  0  0  0  0  0  0  0
    4.0226   21.8611   33.7853 H   0  0  0  0  0  0  0  0  0  0  0  0
    5.6244   21.9765   34.9159 H   0  0  0  0  0  0  0  0  0  0  0  0
    3.4462   23.2894   31.4115 H   0  0  0  0  0  0  0  0  0  0  0  0
    1.8988   23.3710   32.3025 H   0  0  0  0  0  0  0  0  0  0  0  0
   -0.6762   20.5320   42.1604 H   0  0  0  0  0  0  0  0  0  0  0  0
    0.3557   21.2551   40.8801 H   0  0  0  0  0  0  0  0  0  0  0  0
   -1.2067   20.4831   40.4449 H   0  0  0  0  0  0  0  0  0  0  0  0
    1.7460   19.2008   41.0824 H   0  0  0  0  0  0  0  0  0  0  0  0
    3.8671   18.2464   37.9149 H   0  0  0  0  0  0  0  0  0  0  0  0
    4.1221   22.5810   36.8591 H   0  0  0  0  0  0  0  0  0  0  0  0
  1  5  1  0
  1 15  1  0
  3 20  1  0
  3  2  1  0
  4 19  1  0
  5 18  1  0
  5 14  1  0
  6 17  1  0
  8 16  2  0
  9  2  1  0
 10  7  2  0
 10  6  1  0
 11 18  1  0
 12 20  1  0
 14 22  1  0
 15 22  1  0
 16 13  1  0
 16 11  1  0
 17 21  1  0
 17 12  2  0
 20  4  1  0
 21  3  2  0
 22 10  1  0
  1 23  1  0
  1 24  1  0
  4 25  1  0
  4 26  1  0
  5 27  1  1
  6 28  1  0
  9 29  1  0
  9 30  1  0
  9 31  1  0
 11 32  1  0
 11 33  1  0
 12 34  1  0
 15 35  1  0
 15 36  1  0
 18 37  1  0
 18 38  1  0
 19 39  1  0
 19 40  1  0
 19 41  1  0
 20 42  1  1
 21 43  1  0
 22 44  1  1
M  END
>  <mol_id>  (78) 
2026-09-16-6tgu-s0-n100-0078

>  <rmsd_to_ref>  (78) 


$$$$

     RDKit          3D

 50 55  0  0  0  0  0  0  0  0999 V2000
    1.1664   14.2059   36.3849 N   0  0  0  0  0  0  0  0  0  0  0  0
    2.2523   18.9268   38.6316 N   0  0  0  0  0  0  0  0  0  0  0  0
    1.0591   22.1317   40.9284 C   0  0  0  0  0  0  0  0  0  0  0  0
    4.4590   25.1098   30.6139 C   0  0  0  0  0  0  0  0  0  0  0  0
    3.1107   22.1530   36.2560 C   0  0  0  0  0  0  0  0  0  0  0  0
    0.9372   19.7996   40.4796 C   0  0  0  0  0  0  0  0  0  0  0  0
    2.9559   20.8969   36.8548 C   0  0  0  0  0  0  0  0  0  0  0  0
    2.8765   18.0061   37.6993 C   0  0  0  0  0  0  0  0  0  0  0  0
    3.4657   24.3453   32.8536 C   0  0  2  0  0  0  0  0  0  0  0  0
    0.0112   19.6307   41.4575 C   0  0  0  0  0  0  0  0  0  0  0  0
    3.4236   16.6530   37.8961 C   0  0  0  0  0  0  0  0  0  0  0  0
   -0.3961   20.6807   42.3323 C   0  0  0  0  0  0  0  0  0  0  0  0
    3.8908   24.0699   31.5489 C   0  0  2  0  0  0  0  0  0  0  0  0
    1.4111   17.5435   40.1931 O   0  0  0  0  0  0  0  0  0  0  0  0
    1.5421   13.4311   37.6258 N   0  0  0  0  0  0  0  0  0  0  0  0
    0.2285   21.9013   42.0879 C   0  0  0  0  0  0  0  0  0  0  0  0
    3.1625   23.6449   33.9990 C   0  0  0  0  0  0  0  0  0  0  0  0
    1.8888   21.2541   38.9014 O   0  0  0  0  0  0  0  0  0  0  0  0
    2.3961   24.3814   31.4938 C   0  0  2  0  0  0  0  0  0  0  0  0
    2.1235   15.7198   37.9799 C   0  0  0  0  0  0  0  0  0  0  0  0
    2.3918   14.2675   38.4676 C   0  0  0  0  0  0  0  0  0  0  0  0
    3.0107   25.1245   30.2595 C   0  0  1  0  0  0  0  0  0  0  0  0
    1.5244   15.6523   36.5756 C   0  0  0  0  0  0  0  0  0  0  0  0
    1.2540   21.0630   40.0965 C   0  0  0  0  0  0  0  0  0  0  0  0
    1.5692   18.6557   39.7538 C   0  0  0  0  0  0  0  0  0  0  0  0
    3.0354   22.9332   35.2734 C   0  0  0  0  0  0  0  0  0  0  0  0
    2.4836   20.2509   38.1706 C   0  0  0  0  0  0  0  0  0  0  0  0
    0.1533   14.1212   36.2199 H   0  0  0  0  0  0  0  0  0  0  0  0
    1.5106   23.1140   40.7252 H   0  0  0  0  0  0  0  0  0  0  0  0
    4.8640   26.0220   31.0764 H   0  0  0  0  0  0  0  0  0  0  0  0
    5.3040   24.9802   29.9217 H   0  0  0  0  0  0  0  0  0  0  0  0
    2.4968   22.7342   36.9597 H   0  0  0  0  0  0  0  0  0  0  0  0
    4.0855   21.8158   35.8737 H   0  0  0  0  0  0  0  0  0  0  0  0
    3.2779   20.1125   36.1541 H   0  0  0  0  0  0  0  0  0  0  0  0
    3.7252   18.5767   37.2944 H   0  0  0  0  0  0  0  0  0  0  0  0
    1.9583   17.7043   37.1739 H   0  0  0  0  0  0  0  0  0  0  0  0
    3.9396   24.9524   33.6389 H   0  0  0  0  0  0  0  0  0  0  0  0
   -0.4461   18.6380   41.5810 H   0  0  0  0  0  0  0  0  0  0  0  0
    4.0607   16.3613   37.0482 H   0  0  0  0  0  0  0  0  0  0  0  0
    4.0579   16.5781   38.7917 H   0  0  0  0  0  0  0  0  0  0  0  0
   -1.1392   20.5389   43.1309 H   0  0  0  0  0  0  0  0  0  0  0  0
    0.6898   13.1730   38.1434 H   0  0  0  0  0  0  0  0  0  0  0  0
    0.0837   22.7221   42.8058 H   0  0  0  0  0  0  0  0  0  0  0  0
    1.3049   24.2443   31.4752 H   0  0  0  0  0  0  0  0  0  0  0  0
    1.4517   16.1688   38.7263 H   0  0  0  0  0  0  0  0  0  0  0  0
    2.1172   14.1571   39.5271 H   0  0  0  0  0  0  0  0  0  0  0  0
    3.4540   13.9922   38.3907 H   0  0  0  0  0  0  0  0  0  0  0  0
    2.5016   25.6326   29.4272 H   0  0  0  0  0  0  0  0  0  0  0  0
    2.2607   15.9724   35.8236 H   0  0  0  0  0  0  0  0  0  0  0  0
    0.6545   16.3158   36.4611 H   0  0  0  0  0  0  0  0  0  0  0  0
  1 23  1  0
  1 15  1  0
  2 25  1  0
  3 16  1  0
  5  7  1  0
  6 10  2  0
  7 27  2  3
  8 11  1  0
  8  2  1  0
  9 17  1  0
 10 12  1  0
 11 20  1  0
 13  4  1  6
 13  9  1  0
 15 21  1  0
 16 12  2  0
 17 26  3  0
 18 24  1  0
 19 13  1  0
 19  9  1  0
 20 21  1  0
 22  4  1  0
 22 19  1  0
 22 13  1  0
 23 20  1  0
 24  6  1  0
 24  3  2  0
 25 14  2  0
 25  6  1  0
 26  5  1  0
 27  2  1  0
 27 18  1  0
  1 28  1  0
  3 29  1  0
  4 30  1  0
  4 31  1  0
  5 32  1  0
  5 33  1  0
  7 34  1  0
  8 35  1  0
  8 36  1  0
  9 37  1  1
 10 38  1  0
 11 39  1  0
 11 40  1  0
 12 41  1  0
 15 42  1  0
 16 43  1  0
 19 44  1  1
 20 45  1  0
 21 46  1  0
 21 47  1  0
 22 48  1  6
 23 49  1  0
 23 50  1  0
M  END
>  <mol_id>  (79) 
2026-09-16-6tgu-s0-n100-0079

>  <rmsd_to_ref>  (79) 


$$$$

     RDKit          3D

 45 47  0  0  0  0  0  0  0  0999 V2000
    3.2307   25.3503   29.6765 S   0  0  0  0  0  0  0  0  0  0  0  0
    3.9503   23.3542   34.0800 C   0  0  0  0  0  0  0  0  0  0  0  0
    3.1563   24.2386   33.3045 C   0  0  0  0  0  0  0  0  0  0  0  0
    1.8995   20.3505   39.7314 C   0  0  0  0  0  0  0  0  0  0  0  0
    3.0765   25.6287   31.3051 C   0  0  0  0  0  0  0  0  0  0  0  0
   -0.3699   20.4705   43.1390 C   0  0  0  0  0  0  0  0  0  0  0  0
    2.2750   19.3009   38.9526 C   0  0  0  0  0  0  0  0  0  0  0  0
    2.1590   26.3743   31.9800 O   0  0  0  0  0  0  0  0  0  0  0  0
    1.9481   21.5423   39.2081 C   0  0  0  0  0  0  0  0  0  0  0  0
    0.8851   19.1166   41.4178 C   0  0  0  0  0  0  0  0  0  0  0  0
    2.7511   19.5847   37.6716 C   0  0  0  0  0  0  0  0  0  0  0  0
    2.0117   18.0747   39.5565 C   0  0  0  0  0  0  0  0  0  0  0  0
    1.4090   17.8881   40.7686 C   0  0  0  0  0  0  0  0  0  0  0  0
    4.8309   23.7756   31.1112 C   0  0  0  0  0  0  0  0  0  0  0  0
    3.0806   21.2585   35.6258 C   0  0  0  0  0  0  0  0  0  0  0  0
    1.7976   24.7361   33.7548 C   0  0  0  0  0  0  0  0  0  0  0  0
    2.6975   20.9582   37.0855 C   0  0  0  0  0  0  0  0  0  0  0  0
    2.1689   21.9627   37.8878 C   0  0  0  0  0  0  0  0  0  0  0  0
    0.0339   19.2648   42.4573 O   0  0  0  0  0  0  0  0  0  0  0  0
    4.2962   24.8384   32.1114 C   0  0  2  0  0  0  0  0  0  0  0  0
    3.5117   22.6483   35.4604 C   0  0  0  0  0  0  0  0  0  0  0  0
    4.5575   24.1380   29.6272 C   0  0  0  0  0  0  0  0  0  0  0  0
    1.3523   20.3195   40.8866 C   0  0  0  0  0  0  0  0  0  0  0  0
    4.9591   23.1297   33.7037 H   0  0  0  0  0  0  0  0  0  0  0  0
   -0.2295   20.3435   44.2226 H   0  0  0  0  0  0  0  0  0  0  0  0
    0.2423   21.3136   42.7863 H   0  0  0  0  0  0  0  0  0  0  0  0
   -1.4302   20.6735   42.9279 H   0  0  0  0  0  0  0  0  0  0  0  0
    1.7883   22.3608   39.9254 H   0  0  0  0  0  0  0  0  0  0  0  0
    3.1808   18.7685   37.0723 H   0  0  0  0  0  0  0  0  0  0  0  0
    2.3171   17.1721   39.0070 H   0  0  0  0  0  0  0  0  0  0  0  0
    1.3182   16.8946   41.2322 H   0  0  0  0  0  0  0  0  0  0  0  0
    5.9175   23.6786   31.2525 H   0  0  0  0  0  0  0  0  0  0  0  0
    4.3004   22.8350   31.3202 H   0  0  0  0  0  0  0  0  0  0  0  0
    3.9024   20.5911   35.3272 H   0  0  0  0  0  0  0  0  0  0  0  0
    2.1945   21.0940   34.9950 H   0  0  0  0  0  0  0  0  0  0  0  0
    1.7795   24.8101   34.8522 H   0  0  0  0  0  0  0  0  0  0  0  0
    1.6067   25.7272   33.3173 H   0  0  0  0  0  0  0  0  0  0  0  0
    1.0206   24.0324   33.4217 H   0  0  0  0  0  0  0  0  0  0  0  0
    1.9476   22.9779   37.5266 H   0  0  0  0  0  0  0  0  0  0  0  0
    5.2044   25.3191   32.5040 H   0  0  0  0  0  0  0  0  0  0  0  0
    4.3787   22.7609   36.1280 H   0  0  0  0  0  0  0  0  0  0  0  0
    2.5529   23.1597   35.6318 H   0  0  0  0  0  0  0  0  0  0  0  0
    4.2451   23.2466   29.0635 H   0  0  0  0  0  0  0  0  0  0  0  0
    5.4552   24.5304   29.1272 H   0  0  0  0  0  0  0  0  0  0  0  0
    1.2490   21.2486   41.4665 H   0  0  0  0  0  0  0  0  0  0  0  0
  1  5  1  0
  2 21  1  0
  3 16  1  0
  3  2  2  3
  4 23  1  0
  5  8  2  0
  5 20  1  0
  7 12  1  0
  7  4  1  0
  9  4  2  0
 10 19  1  0
 11  7  2  0
 12 13  2  0
 13 10  1  0
 14 20  1  0
 15 17  1  0
 17 11  1  0
 17 18  2  0
 18  9  1  0
 19  6  1  0
 20  3  1  0
 21 15  1  0
 22  1  1  0
 22 14  1  0
 23 10  2  0
  2 24  1  0
  6 25  1  0
  6 26  1  0
  6 27  1  0
  9 28  1  0
 11 29  1  0
 12 30  1  0
 13 31  1  0
 14 32  1  0
 14 33  1  0
 15 34  1  0
 15 35  1  0
 16 36  1  0
 16 37  1  0
 16 38  1  0
 18 39  1  0
 20 40  1  1
 21 41  1  0
 21 42  1  0
 22 43  1  0
 22 44  1  0
 23 45  1  0
M  END
>  <mol_id>  (80) 
2026-09-16-6tgu-s0-n100-0080

>  <rmsd_to_ref>  (80) 


$$$$

     RDKit          3D

 75 79  0  0  0  0  0  0  0  0999 V2000
    0.9128   18.7332   42.1949 C   0  0  0  0  0  0  0  0  0  0  0  0
    0.2760   17.5965   42.9689 C   0  0  0  0  0  0  0  0  0  0  0  0
    1.8760   20.4694   41.1387 C   0  0  0  0  0  0  0  0  0  0  0  0
    1.7588   24.4547   31.7609 C   0  0  0  0  0  0  0  0  0  0  0  0
    1.9428   18.3233   41.3597 N   0  0  0  0  0  0  0  0  0  0  0  0
    2.0753   23.0183   34.1168 C   0  0  0  0  0  0  0  0  0  0  0  0
    2.1293   25.1680   27.9044 C   0  0  0  0  0  0  0  0  0  0  0  0
   -1.4515   19.4733   43.0793 C   0  0  1  0  0  0  0  0  0  0  0  0
    2.3045   21.3454   37.7199 C   0  0  0  0  0  0  0  0  0  0  0  0
    4.5907   19.7843   40.1566 O   0  0  0  0  0  0  0  0  0  0  0  0
    1.0365   25.1664   28.4722 F   0  0  0  0  0  0  0  0  0  0  0  0
    0.0560   21.0925   42.3946 C   0  0  0  0  0  0  0  0  0  0  0  0
   -1.1711   18.0275   43.2349 C   0  0  0  0  0  0  0  0  0  0  0  0
    4.0574   26.0813   28.6148 C   0  0  0  0  0  0  0  0  0  0  0  0
    3.1498   18.5892   38.5933 C   0  0  2  0  0  0  0  0  0  0  0  0
   -1.2284   19.7963   44.6355 O   0  0  0  0  0  0  0  0  0  0  0  0
    3.7095   23.0301   33.9272 C   0  0  2  0  0  0  0  0  0  0  0  0
    2.4518   24.9902   31.2438 C   0  0  0  0  0  0  0  0  0  0  0  0
    3.6819   17.2348   38.6194 C   0  0  0  0  0  0  0  0  0  0  0  0
    3.8571   21.4656   35.9793 C   0  0  0  0  0  0  0  0  0  0  0  0
    3.5727   19.4599   37.3982 C   0  0  0  0  0  0  0  0  0  0  0  0
    4.4406   25.1950   29.5805 N   0  0  0  0  0  0  0  0  0  0  0  0
    2.8560   24.0984   31.8431 C   0  0  0  0  0  0  0  0  0  0  0  0
   -1.2505   20.6367   42.6207 C   0  0  0  0  0  0  0  0  0  0  0  0
    4.0182   23.2508   32.3903 C   0  0  0  0  0  0  0  0  0  0  0  0
    4.9206   15.3769   38.0361 C   0  0  0  0  0  0  0  0  0  0  0  0
    1.0116   20.1663   41.8805 C   0  0  0  0  0  0  0  0  0  0  0  0
    3.1414   22.8109   35.4226 C   0  0  2  0  0  0  0  0  0  0  0  0
    2.4661   19.2791   40.7666 N   0  0  0  0  0  0  0  0  0  0  0  0
    4.6745   16.7145   37.8529 N   0  0  0  0  0  0  0  0  0  0  0  0
    3.4015   24.8795   28.5276 C   0  0  1  0  0  0  0  0  0  0  0  0
    2.1602   25.5414   26.7004 F   0  0  0  0  0  0  0  0  0  0  0  0
    3.5112   19.3425   39.8017 C   0  0  0  0  0  0  0  0  0  0  0  0
    3.7868   14.7359   38.7611 C   0  0  0  0  0  0  0  0  0  0  0  0
    3.0601   15.9875   39.6992 S   0  0  0  0  0  0  0  0  0  0  0  0
    3.2380   20.7121   36.9736 C   0  0  0  0  0  0  0  0  0  0  0  0
    0.2964   16.6707   42.3752 H   0  0  0  0  0  0  0  0  0  0  0  0
    0.8155   17.3939   43.9058 H   0  0  0  0  0  0  0  0  0  0  0  0
    2.1526   21.4831   40.8131 H   0  0  0  0  0  0  0  0  0  0  0  0
    1.0308   23.8399   31.2113 H   0  0  0  0  0  0  0  0  0  0  0  0
    0.9924   24.7242   32.5025 H   0  0  0  0  0  0  0  0  0  0  0  0
    1.4785   22.1719   33.7462 H   0  0  0  0  0  0  0  0  0  0  0  0
    1.2459   23.6985   33.8733 H   0  0  0  0  0  0  0  0  0  0  0  0
    2.2530   26.2342   28.1455 H   0  0  0  0  0  0  0  0  0  0  0  0
   -2.0637   19.2928   42.1834 H   0  0  0  0  0  0  0  0  0  0  0  0
    1.7804   20.8035   38.5209 H   0  0  0  0  0  0  0  0  0  0  0  0
    2.0695   22.4024   37.5259 H   0  0  0  0  0  0  0  0  0  0  0  0
   -0.0080   21.9261   41.6798 H   0  0  0  0  0  0  0  0  0  0  0  0
    0.4337   21.3477   43.3957 H   0  0  0  0  0  0  0  0  0  0  0  0
   -1.8202   17.4806   42.5352 H   0  0  0  0  0  0  0  0  0  0  0  0
   -1.3614   17.7984   44.2938 H   0  0  0  0  0  0  0  0  0  0  0  0
    3.4883   26.9746   28.9117 H   0  0  0  0  0  0  0  0  0  0  0  0
    4.6349   26.6572   27.8767 H   0  0  0  0  0  0  0  0  0  0  0  0
    2.0676   18.4082   38.5160 H   0  0  0  0  0  0  0  0  0  0  0  0
   -1.8370   19.2360   45.1793 H   0  0  0  0  0  0  0  0  0  0  0  0
    3.7201   24.1186   34.0857 H   0  0  0  0  0  0  0  0  0  0  0  0
    2.4556   24.9456   30.1447 H   0  0  0  0  0  0  0  0  0  0  0  0
    2.7110   26.0589   31.2188 H   0  0  0  0  0  0  0  0  0  0  0  0
    4.8390   21.7670   36.3731 H   0  0  0  0  0  0  0  0  0  0  0  0
    3.8489   20.7937   35.1083 H   0  0  0  0  0  0  0  0  0  0  0  0
    4.6656   19.5187   37.5083 H   0  0  0  0  0  0  0  0  0  0  0  0
    2.9543   18.9299   36.6588 H   0  0  0  0  0  0  0  0  0  0  0  0
    5.3706   24.7539   29.5469 H   0  0  0  0  0  0  0  0  0  0  0  0
    4.4868   25.1865   30.6095 H   0  0  0  0  0  0  0  0  0  0  0  0
    2.7094   23.4453   30.9702 H   0  0  0  0  0  0  0  0  0  0  0  0
   -1.7123   21.3399   43.3295 H   0  0  0  0  0  0  0  0  0  0  0  0
   -1.6744   20.5819   41.6071 H   0  0  0  0  0  0  0  0  0  0  0  0
    4.9723   23.7835   32.2645 H   0  0  0  0  0  0  0  0  0  0  0  0
    4.1066   22.2939   31.8550 H   0  0  0  0  0  0  0  0  0  0  0  0
    5.8423   15.2549   38.6240 H   0  0  0  0  0  0  0  0  0  0  0  0
    5.0337   14.8964   37.0532 H   0  0  0  0  0  0  0  0  0  0  0  0
    3.0182   23.2364   36.4294 H   0  0  0  0  0  0  0  0  0  0  0  0
    3.1703   23.8376   28.2610 H   0  0  0  0  0  0  0  0  0  0  0  0
    3.0603   14.3222   38.0464 H   0  0  0  0  0  0  0  0  0  0  0  0
    4.1297   13.9037   39.3934 H   0  0  0  0  0  0  0  0  0  0  0  0
  1  2  1  0
  2 13  1  0
  3 27  2  0
  4 23  1  0
  5  1  2  0
  6 28  1  0
  7 11  1  0
  8 13  1  0
  8 16  1  0
 12 24  1  0
 14 22  1  0
 15 21  1  0
 15 33  1  0
 17 25  1  0
 17  6  1  0
 17 28  1  0
 18  4  1  0
 18 23  1  0
 19 15  1  0
 19 35  1  0
 20 36  1  0
 23 25  1  0
 24  8  1  0
 26 34  1  0
 27  1  1  0
 27 12  1  0
 28 20  1  0
 29  3  1  0
 29  5  1  0
 30 26  1  0
 30 19  2  0
 31  7  1  0
 31 14  1  0
 31 22  1  0
 32  7  1  0
 33 10  2  0
 33 29  1  0
 34 35  1  0
 36 21  1  0
 36  9  2  3
  2 37  1  0
  2 38  1  0
  3 39  1  0
  4 40  1  0
  4 41  1  0
  6 42  1  0
  6 43  1  0
  7 44  1  0
  8 45  1  1
  9 46  1  0
  9 47  1  0
 12 48  1  0
 12 49  1  0
 13 50  1  0
 13 51  1  0
 14 52  1  0
 14 53  1  0
 15 54  1  6
 16 55  1  0
 17 56  1  1
 18 57  1  0
 18 58  1  0
 20 59  1  0
 20 60  1  0
 21 61  1  0
 21 62  1  0
 22 63  1  0
 22 64  1  0
 23 65  1  0
 24 66  1  0
 24 67  1  0
 25 68  1  0
 25 69  1  0
 26 70  1  0
 26 71  1  0
 28 72  1  1
 31 73  1  6
 34 74  1  0
 34 75  1  0
M  CHG  1  22   1
M  END
>  <mol_id>  (81) 
2026-09-16-6tgu-s0-n100-0081

>  <rmsd_to_ref>  (81) 


$$$$

     RDKit          3D

105107  0  0  0  0  0  0  0  0999 V2000
    0.7704   27.0780   30.0409 C   0  0  0  0  0  0  0  0  0  0  0  0
    1.3226   23.7592   39.8850 Cl  0  0  0  0  0  0  0  0  0  0  0  0
    3.0648   13.4548   36.5976 C   0  0  1  0  0  0  0  0  0  0  0  0
   -0.1270   10.6002   35.6363 O   0  0  0  0  0  0  0  0  0  0  0  0
    1.3485   12.5691   35.4908 N   0  0  0  0  0  0  0  0  0  0  0  0
    4.6567   25.8385   33.4679 C   0  0  0  0  0  0  0  0  0  0  0  0
    1.4476   27.4421   31.3374 C   0  0  0  0  0  0  0  0  0  0  0  0
    2.7040   27.4411   33.9831 C   0  0  0  0  0  0  0  0  0  0  0  0
    3.3969   15.7907   37.8598 C   0  0  2  0  0  0  0  0  0  0  0  0
   -0.1173   31.2566   34.1419 O   0  0  0  0  0  0  0  0  0  0  0  0
   -1.9676   21.4496   42.0634 C   0  0  0  0  0  0  0  0  0  0  0  0
    4.7827   15.3136   38.1273 N   0  0  0  0  0  0  0  0  0  0  0  0
    3.8747   21.4885   34.3367 N   0  0  0  0  0  0  0  0  0  0  0  0
    2.6247   14.9693   36.9092 C   0  0  0  0  0  0  0  0  0  0  0  0
   -0.8076   21.0520   41.5143 C   0  0  0  0  0  0  0  0  0  0  0  0
    1.9000   28.6075   33.4241 C   0  0  0  0  0  0  0  0  0  0  0  0
    1.4938   29.6062   34.4317 C   0  0  0  0  0  0  0  0  0  0  0  0
    2.1071   21.7595   37.9846 C   0  0  0  0  0  0  0  0  0  0  0  0
    1.0857   19.6772   39.4252 C   0  0  0  0  0  0  0  0  0  0  0  0
    0.7955   11.1880   35.9804 C   0  0  0  0  0  0  0  0  0  0  0  0
    1.4012   22.1808   39.0887 C   0  0  0  0  0  0  0  0  0  0  0  0
    3.2168   17.1372   37.5471 O   0  0  0  0  0  0  0  0  0  0  0  0
    2.4800   20.4979   37.6388 C   0  0  0  0  0  0  0  0  0  0  0  0
    5.4907   11.6787   33.1196 C   0  0  0  0  0  0  0  0  0  0  0  0
    2.0139   17.2890   39.3510 O   0  0  0  0  0  0  0  0  0  0  0  0
    5.0780   13.7944   31.7493 C   0  0  0  0  0  0  0  0  0  0  0  0
    5.3659   14.2452   37.6810 C   0  0  0  0  0  0  0  0  0  0  0  0
   -0.3329   21.7434   40.5140 O   0  0  0  0  0  0  0  0  0  0  0  0
    5.1767   26.3101   32.5737 C   0  0  0  0  0  0  0  0  0  0  0  0
   -0.8522   29.8334   32.5019 O   0  0  0  0  0  0  0  0  0  0  0  0
    6.5906   25.9192   31.8597 F   0  0  0  0  0  0  0  0  0  0  0  0
    4.3088   26.3225   31.1933 O   0  0  0  0  0  0  0  0  0  0  0  0
    3.0925   21.5209   35.5116 C   0  0  0  0  0  0  0  0  0  0  0  0
    2.1366   22.4014   35.6132 O   0  0  0  0  0  0  0  0  0  0  0  0
    2.6787   12.7721   35.1946 C   0  0  1  0  0  0  0  0  0  0  0  0
    2.4820   17.9344   38.3790 C   0  0  0  0  0  0  0  0  0  0  0  0
    0.5462   30.3242   33.9944 N   0  0  0  0  0  0  0  0  0  0  0  0
    4.5283   13.2748   36.6842 C   0  0  0  0  0  0  0  0  0  0  0  0
    4.5640   12.8552   32.7905 C   0  0  0  0  0  0  0  0  0  0  0  0
    1.5921   14.1046   33.4003 N   0  0  0  0  0  0  0  0  0  0  0  0
   -0.7259   19.2142   43.0276 C   0  0  0  0  0  0  0  0  0  0  0  0
    2.1443   26.2216   31.9310 C   0  0  0  0  0  0  0  0  0  0  0  0
    2.0805   19.3811   38.4895 C   0  0  0  0  0  0  0  0  0  0  0  0
   -0.1826   19.9767   41.9941 C   0  0  0  0  0  0  0  0  0  0  0  0
    1.4214   10.7479   37.1643 N   0  0  0  0  0  0  0  0  0  0  0  0
    3.1617   12.3588   32.4912 C   0  0  0  0  0  0  0  0  0  0  0  0
    1.0882   28.4017   32.2916 O   0  0  0  0  0  0  0  0  0  0  0  0
   -0.3930   28.5110   30.2770 S   0  0  0  0  0  0  0  0  0  0  0  0
   -2.5291   20.7532   43.1137 C   0  0  0  0  0  0  0  0  0  0  0  0
    0.7457   21.0887   39.6672 C   0  0  0  0  0  0  0  0  0  0  0  0
    5.6488   27.3604   33.5493 C   0  0  0  0  0  0  0  0  0  0  0  0
    2.2250   12.8664   33.6277 C   0  0  1  0  0  0  0  0  0  0  0  0
    3.2896   20.4252   36.4185 N   0  0  0  0  0  0  0  0  0  0  0  0
   -0.1039   18.1369   43.4471 O   0  0  0  0  0  0  0  0  0  0  0  0
   -0.3769   30.3669   33.1432 C   0  0  0  0  0  0  0  0  0  0  0  0
    2.8496   26.2558   33.1433 O   0  0  0  0  0  0  0  0  0  0  0  0
   -1.9376   19.6431   43.6652 C   0  0  0  0  0  0  0  0  0  0  0  0
    0.2814   26.0926   30.0471 H   0  0  0  0  0  0  0  0  0  0  0  0
    1.3506   26.9696   29.1126 H   0  0  0  0  0  0  0  0  0  0  0  0
    2.4666   12.9586   37.3761 H   0  0  0  0  0  0  0  0  0  0  0  0
    0.6923   13.3560   35.3862 H   0  0  0  0  0  0  0  0  0  0  0  0
    5.0223   26.3069   34.3936 H   0  0  0  0  0  0  0  0  0  0  0  0
    3.5707   25.9920   33.3834 H   0  0  0  0  0  0  0  0  0  0  0  0
    4.8740   24.7605   33.4918 H   0  0  0  0  0  0  0  0  0  0  0  0
    3.1585   27.4899   34.9836 H   0  0  0  0  0  0  0  0  0  0  0  0
    2.9893   15.6604   38.8732 H   0  0  0  0  0  0  0  0  0  0  0  0
   -2.4763   22.3422   41.6704 H   0  0  0  0  0  0  0  0  0  0  0  0
    4.6335   20.7984   34.2420 H   0  0  0  0  0  0  0  0  0  0  0  0
    3.6866   22.1550   33.5742 H   0  0  0  0  0  0  0  0  0  0  0  0
    2.6351   15.5050   35.9485 H   0  0  0  0  0  0  0  0  0  0  0  0
    1.6562   14.8472   37.4163 H   0  0  0  0  0  0  0  0  0  0  0  0
    1.1619   29.0859   35.3422 H   0  0  0  0  0  0  0  0  0  0  0  0
    2.3544   30.2540   34.6542 H   0  0  0  0  0  0  0  0  0  0  0  0
    2.4115   22.5524   37.2856 H   0  0  0  0  0  0  0  0  0  0  0  0
    0.5680   18.8732   39.9688 H   0  0  0  0  0  0  0  0  0  0  0  0
    5.5601   11.5608   34.2110 H   0  0  0  0  0  0  0  0  0  0  0  0
    5.0851   10.7574   32.6762 H   0  0  0  0  0  0  0  0  0  0  0  0
    6.4918   11.8740   32.7075 H   0  0  0  0  0  0  0  0  0  0  0  0
    5.4737   14.6988   32.2346 H   0  0  0  0  0  0  0  0  0  0  0  0
    5.8798   13.3045   31.1773 H   0  0  0  0  0  0  0  0  0  0  0  0
    4.2591   14.0717   31.0692 H   0  0  0  0  0  0  0  0  0  0  0  0
    6.3993   14.0027   37.9696 H   0  0  0  0  0  0  0  0  0  0  0  0
    3.3452   26.3920   31.4099 H   0  0  0  0  0  0  0  0  0  0  0  0
    3.7143   12.4261   35.0616 H   0  0  0  0  0  0  0  0  0  0  0  0
    4.7104   12.2396   37.0085 H   0  0  0  0  0  0  0  0  0  0  0  0
    4.8937   13.5367   35.6803 H   0  0  0  0  0  0  0  0  0  0  0  0
    4.5315   13.4765   33.6976 H   0  0  0  0  0  0  0  0  0  0  0  0
    1.3418   14.5331   34.3029 H   0  0  0  0  0  0  0  0  0  0  0  0
    2.2328   14.7290   32.8897 H   0  0  0  0  0  0  0  0  0  0  0  0
    0.7392   13.9569   32.8420 H   0  0  0  0  0  0  0  0  0  0  0  0
    2.0912   25.2695   31.3826 H   0  0  0  0  0  0  0  0  0  0  0  0
    0.7863   19.6833   41.5638 H   0  0  0  0  0  0  0  0  0  0  0  0
    2.2541   11.2389   37.5198 H   0  0  0  0  0  0  0  0  0  0  0  0
    1.0460    9.9354   37.6740 H   0  0  0  0  0  0  0  0  0  0  0  0
    2.8232   12.7547   31.5223 H   0  0  0  0  0  0  0  0  0  0  0  0
    3.1453   11.2600   32.4412 H   0  0  0  0  0  0  0  0  0  0  0  0
   -0.5923   28.7216   31.6159 H   0  0  0  0  0  0  0  0  0  0  0  0
   -3.4881   21.1007   43.5256 H   0  0  0  0  0  0  0  0  0  0  0  0
    5.4146   27.0397   34.5751 H   0  0  0  0  0  0  0  0  0  0  0  0
    6.7357   27.4945   33.4463 H   0  0  0  0  0  0  0  0  0  0  0  0
    5.1402   28.3125   33.3377 H   0  0  0  0  0  0  0  0  0  0  0  0
    1.5078   12.0400   33.5143 H   0  0  0  0  0  0  0  0  0  0  0  0
    3.9445   19.6534   36.2279 H   0  0  0  0  0  0  0  0  0  0  0  0
    0.7319   17.8440   43.0047 H   0  0  0  0  0  0  0  0  0  0  0  0
   -2.3629   19.1198   44.5343 H   0  0  0  0  0  0  0  0  0  0  0  0
  1 48  1  0
  1  7  1  0
  3 35  1  0
  3 38  1  0
  3 14  1  0
  4 20  2  0
  5 20  1  0
  7 42  2  0
  7 47  1  0
  9 22  1  0
  9 12  1  0
 11 49  1  0
 13 33  1  0
 14  9  1  0
 15 44  1  0
 15 11  2  0
 16  8  2  0
 16 17  1  0
 18 21  2  0
 19 50  2  0
 20 45  1  0
 21 50  1  0
 21  2  1  0
 22 36  1  0
 23 18  1  0
 23 43  2  0
 26 39  1  0
 27 12  2  0
 28 15  1  0
 29  6  1  0
 29 51  1  0
 30 55  2  0
 31 29  1  0
 32 29  1  0
 33 34  2  0
 33 53  1  0
 35  5  1  0
 36 43  1  0
 36 25  2  0
 37 10  1  0
 37 17  1  0
 38 27  1  0
 39 24  1  0
 41 54  1  0
 41 57  1  0
 42 56  1  0
 43 19  1  0
 44 41  2  0
 46 39  1  0
 46 52  1  0
 47 16  1  0
 49 57  2  0
 50 28  1  0
 52 40  1  0
 52 35  1  0
 53 23  1  0
 55 37  1  0
 55 10  1  0
 56  8  1  0
  1 58  1  0
  1 59  1  0
  3 60  1  1
  5 61  1  0
  6 62  1  0
  6 63  1  0
  6 64  1  0
  8 65  1  0
  9 66  1  1
 11 67  1  0
 13 68  1  0
 13 69  1  0
 14 70  1  0
 14 71  1  0
 17 72  1  0
 17 73  1  0
 18 74  1  0
 19 75  1  0
 24 76  1  0
 24 77  1  0
 24 78  1  0
 26 79  1  0
 26 80  1  0
 26 81  1  0
 27 82  1  0
 32 83  1  0
 35 84  1  6
 38 85  1  0
 38 86  1  0
 39 87  1  0
 40 88  1  0
 40 89  1  0
 40 90  1  0
 42 91  1  0
 44 92  1  0
 45 93  1  0
 45 94  1  0
 46 95  1  0
 46 96  1  0
 48 97  1  0
 49 98  1  0
 51 99  1  0
 51100  1  0
 51101  1  0
 52102  1  1
 53103  1  0
 54104  1  0
 57105  1  0
M  CHG  1  40   1
M  END
>  <mol_id>  (82) 
2026-09-16-6tgu-s0-n100-0082

>  <rmsd_to_ref>  (82) 


$$$$

     RDKit          3D

 37 37  0  0  0  0  0  0  0  0999 V2000
    4.0494   19.4839   39.5742 C   0  0  0  0  0  0  0  0  0  0  0  0
    0.9023   21.2301   40.8480 C   0  0  0  0  0  0  0  0  0  0  0  0
    5.5137   20.6424   34.7277 C   0  0  0  0  0  0  0  0  0  0  0  0
    2.2370   20.8289   40.7524 O   0  0  0  0  0  0  0  0  0  0  0  0
    3.5400   24.1023   32.0104 C   0  0  0  0  0  0  0  0  0  0  0  0
    4.6810   24.2486   31.1056 C   0  0  0  0  0  0  0  0  0  0  0  0
    3.4021   20.9099   36.8013 C   0  0  0  0  0  0  0  0  0  0  0  0
    3.4973   25.0256   30.7440 C   0  0  0  0  0  0  0  0  0  0  0  0
    2.9596   22.9214   34.5430 C   0  0  0  0  0  0  0  0  0  0  0  0
    4.8220   21.7364   35.3337 O   0  0  0  0  0  0  0  0  0  0  0  0
    2.1563   21.0105   38.1912 S   0  0  0  0  0  0  0  0  0  0  0  0
    3.3497   21.7530   35.4162 C   0  0  1  0  0  0  0  0  0  0  0  0
    2.6692   20.0061   39.5696 C   0  0  1  0  0  0  0  0  0  0  0  0
    0.2182   19.9337   41.2151 C   0  0  0  0  0  0  0  0  0  0  0  0
    3.6490   23.0449   33.2083 C   0  0  0  0  0  0  0  0  0  0  0  0
    4.3714   19.3082   40.6112 H   0  0  0  0  0  0  0  0  0  0  0  0
    4.0855   18.5381   39.0138 H   0  0  0  0  0  0  0  0  0  0  0  0
    4.7201   20.2163   39.1011 H   0  0  0  0  0  0  0  0  0  0  0  0
    0.5316   21.6215   39.8892 H   0  0  0  0  0  0  0  0  0  0  0  0
    0.7313   22.0444   41.5675 H   0  0  0  0  0  0  0  0  0  0  0  0
    5.8280   19.9312   35.5057 H   0  0  0  0  0  0  0  0  0  0  0  0
    4.8458   20.1355   34.0157 H   0  0  0  0  0  0  0  0  0  0  0  0
    6.3996   21.0186   34.1952 H   0  0  0  0  0  0  0  0  0  0  0  0
    3.9569   24.8839   32.6626 H   0  0  0  0  0  0  0  0  0  0  0  0
    5.5805   24.7747   31.4579 H   0  0  0  0  0  0  0  0  0  0  0  0
    5.2967   23.5227   30.5544 H   0  0  0  0  0  0  0  0  0  0  0  0
    4.3684   21.1669   37.2599 H   0  0  0  0  0  0  0  0  0  0  0  0
    3.1781   19.9031   36.4188 H   0  0  0  0  0  0  0  0  0  0  0  0
    3.4955   26.1202   30.8532 H   0  0  0  0  0  0  0  0  0  0  0  0
    2.8549   25.1220   29.8563 H   0  0  0  0  0  0  0  0  0  0  0  0
    2.2039   23.6519   34.8672 H   0  0  0  0  0  0  0  0  0  0  0  0
    2.3369   21.4345   35.1285 H   0  0  0  0  0  0  0  0  0  0  0  0
    2.1969   19.0128   39.5493 H   0  0  0  0  0  0  0  0  0  0  0  0
    0.0815   19.8873   42.3056 H   0  0  0  0  0  0  0  0  0  0  0  0
   -0.7629   19.8839   40.7201 H   0  0  0  0  0  0  0  0  0  0  0  0
    0.8380   19.0863   40.8868 H   0  0  0  0  0  0  0  0  0  0  0  0
    4.3775   22.2431   33.0176 H   0  0  0  0  0  0  0  0  0  0  0  0
  2 14  1  0
  3 10  1  0
  4  2  1  0
  5 15  1  0
  6  5  1  0
  7 11  1  0
  8  6  1  0
  8  5  1  0
 10 12  1  0
 11 13  1  0
 12  9  1  0
 12  7  1  0
 13  1  1  0
 13  4  1  0
 15  9  2  3
  1 16  1  0
  1 17  1  0
  1 18  1  0
  2 19  1  0
  2 20  1  0
  3 21  1  0
  3 22  1  0
  3 23  1  0
  5 24  1  0
  6 25  1  0
  6 26  1  0
  7 27  1  0
  7 28  1  0
  8 29  1  0
  8 30  1  0
  9 31  1  0
 12 32  1  6
 13 33  1  6
 14 34  1  0
 14 35  1  0
 14 36  1  0
 15 37  1  0
M  END
>  <mol_id>  (83) 
2026-09-16-6tgu-s0-n100-0083

>  <rmsd_to_ref>  (83) 


$$$$

     RDKit          3D

 58 59  0  0  0  0  0  0  0  0999 V2000
    2.8965   24.0174   32.0093 C   0  0  1  0  0  0  0  0  0  0  0  0
    0.4988   18.4528   42.3259 C   0  0  0  0  0  0  0  0  0  0  0  0
    3.2212   22.8918   33.2333 C   0  0  0  0  0  0  0  0  0  0  0  0
    1.7505   17.6792   40.5423 O   0  0  0  0  0  0  0  0  0  0  0  0
    2.1432   25.8411   30.9641 C   0  0  1  0  0  0  0  0  0  0  0  0
    3.3589   19.8113   38.0279 O   0  0  0  0  0  0  0  0  0  0  0  0
    1.2785   20.0243   40.5020 C   0  0  0  0  0  0  0  0  0  0  0  0
   -0.5169   17.5920   44.0026 C   0  0  0  0  0  0  0  0  0  0  0  0
   -0.7305   20.9003   42.6016 C   0  0  0  0  0  0  0  0  0  0  0  0
    2.1108   25.2930   32.1677 O   0  0  0  0  0  0  0  0  0  0  0  0
   -0.8822   18.8268   43.9827 N   0  0  0  0  0  0  0  0  0  0  0  0
    5.2721   21.6025   36.6003 C   0  0  0  0  0  0  0  0  0  0  0  0
    2.6080   27.2749   31.4876 C   0  0  0  0  0  0  0  0  0  0  0  0
    2.0595   20.7200   39.7640 C   0  0  0  0  0  0  0  0  0  0  0  0
    1.9497   22.4303   35.4274 O   0  0  0  0  0  0  0  0  0  0  0  0
    3.1871   20.9156   37.5504 C   0  0  0  0  0  0  0  0  0  0  0  0
    4.0986   24.1388   31.1675 C   0  0  0  0  0  0  0  0  0  0  0  0
   -0.3479   19.4028   42.9069 C   0  0  0  0  0  0  0  0  0  0  0  0
    3.1022   25.7351   30.0517 C   0  0  0  0  0  0  0  0  0  0  0  0
    3.2883   22.2483   35.4273 C   0  0  0  0  0  0  0  0  0  0  0  0
    2.0687   21.3191   38.4292 C   0  0  0  0  0  0  0  0  0  0  0  0
    0.3729   17.3020   42.9771 N   0  0  0  0  0  0  0  0  0  0  0  0
    3.8076   21.6434   36.4581 N   0  0  0  0  0  0  0  0  0  0  0  0
    4.5302   22.9050   34.1668 S   0  0  0  0  0  0  0  0  0  0  0  0
    1.4032   18.7977   41.1325 C   0  0  1  0  0  0  0  0  0  0  0  0
    2.5010   23.0738   33.2705 C   0  0  0  0  0  0  0  0  0  0  0  0
    4.2689   24.9374   29.9340 C   0  0  0  0  0  0  0  0  0  0  0  0
    2.7762   23.2009   31.2819 H   0  0  0  0  0  0  0  0  0  0  0  0
    3.1670   21.8321   32.9433 H   0  0  0  0  0  0  0  0  0  0  0  0
    3.4926   23.8389   32.7440 H   0  0  0  0  0  0  0  0  0  0  0  0
    1.9587   16.9954   41.2274 H   0  0  0  0  0  0  0  0  0  0  0  0
    1.2383   25.4711   30.4601 H   0  0  0  0  0  0  0  0  0  0  0  0
    0.3885   19.8914   39.8694 H   0  0  0  0  0  0  0  0  0  0  0  0
    1.4206   20.6283   41.4103 H   0  0  0  0  0  0  0  0  0  0  0  0
   -0.8673   16.8568   44.7420 H   0  0  0  0  0  0  0  0  0  0  0  0
   -0.8723   21.4428   43.5479 H   0  0  0  0  0  0  0  0  0  0  0  0
    0.0769   21.3747   42.0244 H   0  0  0  0  0  0  0  0  0  0  0  0
   -1.6632   20.9291   42.0192 H   0  0  0  0  0  0  0  0  0  0  0  0
    5.5362   21.5769   37.6678 H   0  0  0  0  0  0  0  0  0  0  0  0
    5.6636   20.7023   36.1040 H   0  0  0  0  0  0  0  0  0  0  0  0
    5.7108   22.4977   36.1353 H   0  0  0  0  0  0  0  0  0  0  0  0
    2.6169   27.2784   32.5875 H   0  0  0  0  0  0  0  0  0  0  0  0
    3.6188   27.4924   31.1120 H   0  0  0  0  0  0  0  0  0  0  0  0
    1.9087   28.0423   31.1241 H   0  0  0  0  0  0  0  0  0  0  0  0
    2.2503   21.5948   40.4029 H   0  0  0  0  0  0  0  0  0  0  0  0
    2.6324   19.8396   39.4376 H   0  0  0  0  0  0  0  0  0  0  0  0
    4.8794   24.5081   31.8485 H   0  0  0  0  0  0  0  0  0  0  0  0
    4.0875   23.1357   30.7161 H   0  0  0  0  0  0  0  0  0  0  0  0
    2.5453   25.4961   29.1337 H   0  0  0  0  0  0  0  0  0  0  0  0
    3.6329   26.6503   30.3530 H   0  0  0  0  0  0  0  0  0  0  0  0
    2.1116   22.4116   38.5500 H   0  0  0  0  0  0  0  0  0  0  0  0
    1.1548   20.9592   37.9340 H   0  0  0  0  0  0  0  0  0  0  0  0
    0.8298   16.4026   42.7694 H   0  0  0  0  0  0  0  0  0  0  0  0
    2.3640   19.2423   41.4310 H   0  0  0  0  0  0  0  0  0  0  0  0
    2.1881   23.6022   34.1831 H   0  0  0  0  0  0  0  0  0  0  0  0
    1.6754   22.3468   33.2679 H   0  0  0  0  0  0  0  0  0  0  0  0
    4.2570   24.3130   29.0285 H   0  0  0  0  0  0  0  0  0  0  0  0
    5.2193   25.4835   29.8403 H   0  0  0  0  0  0  0  0  0  0  0  0
  1 10  1  0
  1 26  1  0
  2 18  2  0
  2 22  1  0
  3 26  1  0
  3 24  1  0
  5 13  1  0
  5 10  1  0
  7 25  1  0
  9 18  1  0
 11  8  2  0
 14  7  1  0
 15 20  2  0
 16  6  2  0
 16 21  1  0
 17  1  1  0
 18 11  1  0
 19  5  1  0
 20 23  1  0
 21 14  1  0
 22  8  1  0
 23 12  1  0
 23 16  1  0
 24 20  1  0
 25  4  1  0
 25  2  1  0
 27 19  1  0
 27 17  1  0
  1 28  1  6
  3 29  1  0
  3 30  1  0
  4 31  1  0
  5 32  1  6
  7 33  1  0
  7 34  1  0
  8 35  1  0
  9 36  1  0
  9 37  1  0
  9 38  1  0
 12 39  1  0
 12 40  1  0
 12 41  1  0
 13 42  1  0
 13 43  1  0
 13 44  1  0
 14 45  1  0
 14 46  1  0
 17 47  1  0
 17 48  1  0
 19 49  1  0
 19 50  1  0
 21 51  1  0
 21 52  1  0
 22 53  1  0
 25 54  1  1
 26 55  1  0
 26 56  1  0
 27 57  1  0
 27 58  1  0
M  END
>  <mol_id>  (84) 
2026-09-16-6tgu-s0-n100-0084

>  <rmsd_to_ref>  (84) 


$$$$

     RDKit          3D

 55 56  0  0  0  0  0  0  0  0999 V2000
    1.0058   21.9115   41.5643 O   0  0  0  0  0  0  0  0  0  0  0  0
    3.5795   26.4096   31.0324 O   0  0  0  0  0  0  0  0  0  0  0  0
   -0.3356   20.2440   42.3261 C   0  0  0  0  0  0  0  0  0  0  0  0
    1.9965   27.7107   34.1587 O   0  0  0  0  0  0  0  0  0  0  0  0
    2.3493   26.9325   31.2970 C   0  0  0  0  0  0  0  0  0  0  0  0
    3.3296   21.0309   35.9759 C   0  0  0  0  0  0  0  0  0  0  0  0
    3.1991   24.1562   34.0357 C   0  0  0  0  0  0  0  0  0  0  0  0
    1.1606   29.3899   32.8403 C   0  0  0  0  0  0  0  0  0  0  0  0
    3.1999   18.0543   37.2875 C   0  0  0  0  0  0  0  0  0  0  0  0
    3.4329   17.8696   38.4412 O   0  0  0  0  0  0  0  0  0  0  0  0
    3.1021   20.4564   37.1979 C   0  0  0  0  0  0  0  0  0  0  0  0
    1.4766   14.3957   34.8421 C   0  0  0  0  0  0  0  0  0  0  0  0
    0.0982   21.5837   42.5071 C   0  0  0  0  0  0  0  0  0  0  0  0
    3.2450   17.0870   36.3284 N   0  0  0  0  0  0  0  0  0  0  0  0
    2.4271   14.5830   35.9355 C   0  0  0  0  0  0  0  0  0  0  0  0
    3.7273   25.1966   31.7397 C   0  0  0  0  0  0  0  0  0  0  0  0
    3.0847   19.2274   36.7663 N   0  0  0  0  0  0  0  0  0  0  0  0
    2.9989   23.3147   34.5445 C   0  0  0  0  0  0  0  0  0  0  0  0
    3.1888   25.7781   33.1798 N   0  0  0  0  0  0  0  0  0  0  0  0
    2.2248   13.6304   37.0004 O   0  0  0  0  0  0  0  0  0  0  0  0
    2.2724   16.0036   36.6017 C   0  0  0  0  0  0  0  0  0  0  0  0
    3.7754   14.4749   35.5169 O   0  0  0  0  0  0  0  0  0  0  0  0
    1.9097   29.4545   34.1219 C   0  0  0  0  0  0  0  0  0  0  0  0
    1.3527   28.6015   31.2251 S   0  0  0  0  0  0  0  0  0  0  0  0
    2.6318   27.0324   33.4058 C   0  0  0  0  0  0  0  0  0  0  0  0
    1.1339   20.8779   40.7130 C   0  0  0  0  0  0  0  0  0  0  0  0
    0.4580   19.7404   41.1960 C   0  0  0  0  0  0  0  0  0  0  0  0
    3.2598   22.1409   35.4034 C   0  0  0  0  0  0  0  0  0  0  0  0
    1.9144   20.9239   39.5354 C   0  0  0  0  0  0  0  0  0  0  0  0
    2.5328   20.6703   38.4871 C   0  0  0  0  0  0  0  0  0  0  0  0
   -1.0983   19.7020   42.9046 H   0  0  0  0  0  0  0  0  0  0  0  0
    1.7095   26.2811   30.6834 H   0  0  0  0  0  0  0  0  0  0  0  0
    2.6054   27.0905   32.3549 H   0  0  0  0  0  0  0  0  0  0  0  0
    3.6907   20.2698   35.2686 H   0  0  0  0  0  0  0  0  0  0  0  0
    0.1793   29.0139   33.1654 H   0  0  0  0  0  0  0  0  0  0  0  0
    1.5340   30.3635   32.4899 H   0  0  0  0  0  0  0  0  0  0  0  0
    0.5179   14.0391   35.2468 H   0  0  0  0  0  0  0  0  0  0  0  0
    1.3220   15.3529   34.3226 H   0  0  0  0  0  0  0  0  0  0  0  0
    1.8741   13.6540   34.1337 H   0  0  0  0  0  0  0  0  0  0  0  0
   -0.2549   22.2574   43.3017 H   0  0  0  0  0  0  0  0  0  0  0  0
    3.8764   17.1069   35.5149 H   0  0  0  0  0  0  0  0  0  0  0  0
    3.0925   24.3914   31.3415 H   0  0  0  0  0  0  0  0  0  0  0  0
    4.7203   24.7236   31.7268 H   0  0  0  0  0  0  0  0  0  0  0  0
    2.9422   19.1814   35.7472 H   0  0  0  0  0  0  0  0  0  0  0  0
    2.4956   14.0361   37.8619 H   0  0  0  0  0  0  0  0  0  0  0  0
    2.2835   15.8411   37.6895 H   0  0  0  0  0  0  0  0  0  0  0  0
    1.3498   16.3864   36.1409 H   0  0  0  0  0  0  0  0  0  0  0  0
    4.3592   14.3666   36.3090 H   0  0  0  0  0  0  0  0  0  0  0  0
    2.8881   29.9513   34.0456 H   0  0  0  0  0  0  0  0  0  0  0  0
    1.5003   30.0098   34.9787 H   0  0  0  0  0  0  0  0  0  0  0  0
    3.5312   27.6576   33.3042 H   0  0  0  0  0  0  0  0  0  0  0  0
    1.7065   26.7178   32.9010 H   0  0  0  0  0  0  0  0  0  0  0  0
    0.5119   18.7101   40.8144 H   0  0  0  0  0  0  0  0  0  0  0  0
    4.3508   22.2197   35.2870 H   0  0  0  0  0  0  0  0  0  0  0  0
    2.1965   22.1670   35.6837 H   0  0  0  0  0  0  0  0  0  0  0  0
  1 13  1  0
  2  5  1  0
  2 16  1  0
  3 13  2  0
  6 11  2  3
  7 18  3  0
  8 23  1  0
  9 10  2  0
 11 30  1  0
 12 15  1  0
 14 21  1  0
 14  9  1  0
 15 21  1  0
 15 20  1  0
 16 19  1  0
 17 11  1  0
 17  9  1  0
 18 28  1  0
 19 25  1  0
 19  7  1  0
 22 15  1  0
 23  4  1  0
 24  5  1  0
 24  8  1  0
 25  4  1  0
 26 27  2  0
 26  1  1  0
 27  3  1  0
 28  6  1  0
 29 26  1  0
 30 29  3  0
  3 31  1  0
  5 32  1  0
  5 33  1  0
  6 34  1  0
  8 35  1  0
  8 36  1  0
 12 37  1  0
 12 38  1  0
 12 39  1  0
 13 40  1  0
 14 41  1  0
 16 42  1  0
 16 43  1  0
 17 44  1  0
 20 45  1  0
 21 46  1  0
 21 47  1  0
 22 48  1  0
 23 49  1  0
 23 50  1  0
 25 51  1  0
 25 52  1  0
 27 53  1  0
 28 54  1  0
 28 55  1  0
M  END
>  <mol_id>  (85) 
2026-09-16-6tgu-s0-n100-0085

>  <rmsd_to_ref>  (85) 


$$$$

     RDKit          3D

 47 46  0  0  0  0  0  0  0  0999 V2000
    3.0100   19.5880   37.8980 C   0  0  1  0  0  0  0  0  0  0  0  0
    3.6370   22.5060   33.1090 C   0  0  0  0  0  0  0  0  0  0  0  0
    3.4170   23.8700   32.3710 C   0  0  0  0  0  0  0  0  0  0  0  0
    3.4210   18.9390   40.0900 O   0  0  0  0  0  0  0  0  0  0  0  0
    1.4440   21.5620   40.0790 O   0  0  0  0  0  0  0  0  0  0  0  0
    2.7530   22.0360   34.2060 C   0  0  2  0  0  0  0  0  0  0  0  0
    4.4500   19.2300   37.8850 C   0  0  0  0  0  0  0  0  0  0  0  0
    1.2930   20.1870   39.7550 C   0  0  2  0  0  0  0  0  0  0  0  0
    4.0860   23.9100   31.1260 C   0  0  0  0  0  0  0  0  0  0  0  0
    0.5710   19.4580   40.8860 C   0  0  0  0  0  0  0  0  0  0  0  0
    3.3140   21.0980   35.3170 C   0  0  0  0  0  0  0  0  0  0  0  0
    2.5740   19.5800   39.3550 C   0  0  2  0  0  0  0  0  0  0  0  0
    3.1700   24.7140   30.2100 C   0  0  0  0  0  0  0  0  0  0  0  0
    3.7910   25.9350   29.6660 C   0  0  0  0  0  0  0  0  0  0  0  0
    2.7280   21.2490   37.0270 S   0  0  0  0  0  0  0  0  0  0  0  0
    2.4270   23.7630   29.2170 C   0  0  0  0  0  0  0  0  0  0  0  0
    1.2700   22.5690   34.3150 C   0  0  0  0  0  0  0  0  0  0  0  0
    2.3972   18.8673   37.3368 H   0  0  0  0  0  0  0  0  0  0  0  0
    4.6513   22.5489   33.5324 H   0  0  0  0  0  0  0  0  0  0  0  0
    3.4095   21.7819   32.3128 H   0  0  0  0  0  0  0  0  0  0  0  0
    2.3397   24.0123   32.2005 H   0  0  0  0  0  0  0  0  0  0  0  0
    3.8275   24.6702   33.0043 H   0  0  0  0  0  0  0  0  0  0  0  0
    3.2139   19.0957   41.0453 H   0  0  0  0  0  0  0  0  0  0  0  0
    1.4558   21.6698   41.0630 H   0  0  0  0  0  0  0  0  0  0  0  0
    3.0980   22.8663   34.8397 H   0  0  0  0  0  0  0  0  0  0  0  0
    4.8146   19.1393   38.9188 H   0  0  0  0  0  0  0  0  0  0  0  0
    4.5847   18.2710   37.3633 H   0  0  0  0  0  0  0  0  0  0  0  0
    5.0181   20.0142   37.3633 H   0  0  0  0  0  0  0  0  0  0  0  0
    0.6519   20.0872   38.8668 H   0  0  0  0  0  0  0  0  0  0  0  0
    5.0626   24.4059   31.2279 H   0  0  0  0  0  0  0  0  0  0  0  0
    4.2835   22.9025   30.7311 H   0  0  0  0  0  0  0  0  0  0  0  0
    0.9382   19.8287   41.8544 H   0  0  0  0  0  0  0  0  0  0  0  0
   -0.5108   19.6421   40.8092 H   0  0  0  0  0  0  0  0  0  0  0  0
    0.7655   18.3781   40.8092 H   0  0  0  0  0  0  0  0  0  0  0  0
    3.0978   20.0674   34.9990 H   0  0  0  0  0  0  0  0  0  0  0  0
    4.3693   21.4001   35.3881 H   0  0  0  0  0  0  0  0  0  0  0  0
    3.0798   20.5442   39.5116 H   0  0  0  0  0  0  0  0  0  0  0  0
    2.3637   25.1674   30.8053 H   0  0  0  0  0  0  0  0  0  0  0  0
    4.1190   26.5799   30.4945 H   0  0  0  0  0  0  0  0  0  0  0  0
    4.6593   25.6610   29.0487 H   0  0  0  0  0  0  0  0  0  0  0  0
    3.0582   26.4753   29.0487 H   0  0  0  0  0  0  0  0  0  0  0  0
    1.8470   23.0206   29.7849 H   0  0  0  0  0  0  0  0  0  0  0  0
    1.7478   24.3525   28.5836 H   0  0  0  0  0  0  0  0  0  0  0  0
    3.1633   23.2466   28.5836 H   0  0  0  0  0  0  0  0  0  0  0  0
    0.9931   22.6685   35.3749 H   0  0  0  0  0  0  0  0  0  0  0  0
    1.1959   23.5500   33.8230 H   0  0  0  0  0  0  0  0  0  0  0  0
    0.5883   21.8596   33.8230 H   0  0  0  0  0  0  0  0  0  0  0  0
  1  7  1  0
  1 12  1  0
  2  6  1  0
  3  2  1  0
  6 17  1  0
  6 11  1  0
  8  5  1  0
  8 10  1  0
  9  3  1  0
 11 15  1  0
 12  8  1  0
 12  4  1  0
 13  9  1  0
 14 13  1  0
 15  1  1  0
 16 13  1  0
  1 18  1  6
  2 19  1  0
  2 20  1  0
  3 21  1  0
  3 22  1  0
  4 23  1  0
  5 24  1  0
  6 25  1  6
  7 26  1  0
  7 27  1  0
  7 28  1  0
  8 29  1  6
  9 30  1  0
  9 31  1  0
 10 32  1  0
 10 33  1  0
 10 34  1  0
 11 35  1  0
 11 36  1  0
 12 37  1  1
 13 38  1  0
 14 39  1  0
 14 40  1  0
 14 41  1  0
 16 42  1  0
 16 43  1  0
 16 44  1  0
 17 45  1  0
 17 46  1  0
 17 47  1  0
M  END
>  <mol_id>  (86) 
2026-09-16-6tgu-s0-n100-0086

>  <rmsd_to_ref>  (86) 


$$$$

     RDKit          3D

 25 25  0  0  0  0  0  0  0  0999 V2000
    2.3771   18.4830   40.0657 C   0  0  0  0  0  0  0  0  0  0  0  0
    4.4241   20.8330   35.1527 C   0  0  0  0  0  0  0  0  0  0  0  0
    3.1826   20.7885   35.7054 C   0  0  0  0  0  0  0  0  0  0  0  0
    4.0227   23.9907   32.6089 S   0  0  0  0  0  0  0  0  0  0  0  0
    2.1622   19.7970   38.0601 C   0  0  0  0  0  0  0  0  0  0  0  0
    3.6071   22.7403   33.7579 C   0  0  0  0  0  0  0  0  0  0  0  0
    0.4484   19.9364   39.7644 C   0  0  0  0  0  0  0  0  0  0  0  0
    2.0481   21.5337   35.2285 C   0  0  0  0  0  0  0  0  0  0  0  0
    2.2985   22.4939   34.2025 C   0  0  0  0  0  0  0  0  0  0  0  0
    4.6397   21.8414   34.2549 C   0  0  0  0  0  0  0  0  0  0  0  0
    0.9786   20.2891   38.5531 C   0  0  0  0  0  0  0  0  0  0  0  0
    1.1856   18.9841   40.5760 C   0  0  0  0  0  0  0  0  0  0  0  0
    2.8880   18.8542   38.7976 C   0  0  0  0  0  0  0  0  0  0  0  0
    2.9490   17.7663   40.6734 H   0  0  0  0  0  0  0  0  0  0  0  0
    5.2058   20.1036   35.4116 H   0  0  0  0  0  0  0  0  0  0  0  0
    3.0352   20.1365   36.5789 H   0  0  0  0  0  0  0  0  0  0  0  0
    3.7805   25.2196   33.1638 H   0  0  0  0  0  0  0  0  0  0  0  0
    2.5394   20.1434   37.0866 H   0  0  0  0  0  0  0  0  0  0  0  0
   -0.5053   20.3605   40.1120 H   0  0  0  0  0  0  0  0  0  0  0  0
    1.0385   21.3717   35.6342 H   0  0  0  0  0  0  0  0  0  0  0  0
    1.4583   23.0459   33.7560 H   0  0  0  0  0  0  0  0  0  0  0  0
    5.6647   21.9838   33.8819 H   0  0  0  0  0  0  0  0  0  0  0  0
    0.4228   21.0110   37.9366 H   0  0  0  0  0  0  0  0  0  0  0  0
    0.8132   18.6697   41.5622 H   0  0  0  0  0  0  0  0  0  0  0  0
    3.8195   18.4182   38.4074 H   0  0  0  0  0  0  0  0  0  0  0  0
  1 12  1  0
  2  3  2  0
  4  6  1  0
  5 13  1  0
  5 11  2  0
  6 10  2  0
  6  9  1  0
  7 12  2  0
  8  3  1  0
  9  8  2  0
 10  2  1  0
 11  7  1  0
 13  1  2  0
  1 14  1  0
  2 15  1  0
  3 16  1  0
  4 17  1  0
  5 18  1  0
  7 19  1  0
  8 20  1  0
  9 21  1  0
 10 22  1  0
 11 23  1  0
 12 24  1  0
 13 25  1  0
M  END
>  <mol_id>  (87) 
2026-09-16-6tgu-s0-n100-0087

>  <rmsd_to_ref>  (87) 


$$$$

     RDKit          3D

 55 55  0  0  0  0  0  0  0  0999 V2000
    2.5620   17.5290   39.8360 C   0  0  0  0  0  0  0  0  0  0  0  0
    3.6460   22.7640   34.4230 C   0  0  0  0  0  0  0  0  0  0  0  0
    5.1170   14.7290   36.1580 N   0  0  0  0  0  0  0  0  0  0  0  0
    1.7240   22.0140   36.3720 O   0  0  0  0  0  0  0  0  0  0  0  0
    2.5730   21.4230   36.9500 C   0  0  0  0  0  0  0  0  0  0  0  0
    3.8880   24.0400   31.7620 C   0  0  0  0  0  0  0  0  0  0  0  0
    3.7050   21.2750   34.8690 C   0  0  0  0  0  0  0  0  0  0  0  0
    3.0570   17.2670   38.4650 C   0  0  2  0  0  0  0  0  0  0  0  0
    2.4300   21.0420   38.3610 C   0  0  0  0  0  0  0  0  0  0  0  0
    3.7190   21.0680   36.2870 O   0  0  0  0  0  0  0  0  0  0  0  0
    0.7670   17.9570   41.8520 C   0  0  0  0  0  0  0  0  0  0  0  0
    2.6180   18.5900   36.5160 O   0  0  0  0  0  0  0  0  0  0  0  0
    3.4480   16.0150   37.6790 C   0  0  0  0  0  0  0  0  0  0  0  0
    2.7100   14.9790   37.8740 O   0  0  0  0  0  0  0  0  0  0  0  0
    3.8300   24.9440   29.4780 N   0  0  0  0  0  0  0  0  0  0  0  0
    2.8400   25.6880   29.8500 C   0  0  0  0  0  0  0  0  0  0  0  0
    2.3000   25.8100   31.1500 C   0  0  0  0  0  0  0  0  0  0  0  0
    2.7890   24.8500   32.0850 C   0  0  0  0  0  0  0  0  0  0  0  0
    0.2880   20.1510   40.7770 O   0  0  0  0  0  0  0  0  0  0  0  0
    1.2730   19.2540   41.2180 C   0  0  2  0  0  0  0  0  0  0  0  0
    2.4900   19.5990   38.7460 C   0  0  0  0  0  0  0  0  0  0  0  0
    3.1550   18.5440   37.7810 C   0  0  1  0  0  0  0  0  0  0  0  0
    2.0160   18.7900   39.9520 C   0  0  0  0  0  0  0  0  0  0  0  0
    4.6500   15.7500   36.8560 C   0  0  0  0  0  0  0  0  0  0  0  0
    4.3580   24.1560   30.4410 C   0  0  0  0  0  0  0  0  0  0  0  0
    2.3100   23.5880   34.4070 C   0  0  0  0  0  0  0  0  0  0  0  0
    3.4016   17.4385   40.5409 H   0  0  0  0  0  0  0  0  0  0  0  0
    1.7751   16.7941   40.0612 H   0  0  0  0  0  0  0  0  0  0  0  0
    4.3330   23.3091   35.0870 H   0  0  0  0  0  0  0  0  0  0  0  0
    3.8759   22.6870   33.3501 H   0  0  0  0  0  0  0  0  0  0  0  0
    5.4515   13.9976   36.8014 H   0  0  0  0  0  0  0  0  0  0  0  0
    4.3669   14.3472   35.5644 H   0  0  0  0  0  0  0  0  0  0  0  0
    5.8964   15.0468   35.5644 H   0  0  0  0  0  0  0  0  0  0  0  0
    4.3510   23.3601   32.4923 H   0  0  0  0  0  0  0  0  0  0  0  0
    2.8242   20.7603   34.4576 H   0  0  0  0  0  0  0  0  0  0  0  0
    4.6587   20.8782   34.4908 H   0  0  0  0  0  0  0  0  0  0  0  0
    2.0207   17.1662   38.1101 H   0  0  0  0  0  0  0  0  0  0  0  0
    3.2324   21.5535   38.9129 H   0  0  0  0  0  0  0  0  0  0  0  0
    1.3958   21.3295   38.6014 H   0  0  0  0  0  0  0  0  0  0  0  0
    0.8019   18.0465   42.9478 H   0  0  0  0  0  0  0  0  0  0  0  0
   -0.2691   17.7723   41.5320 H   0  0  0  0  0  0  0  0  0  0  0  0
    1.4043   17.1195   41.5320 H   0  0  0  0  0  0  0  0  0  0  0  0
    1.6336   18.6743   36.5783 H   0  0  0  0  0  0  0  0  0  0  0  0
    2.9068   14.1341   37.3970 H   0  0  0  0  0  0  0  0  0  0  0  0
    2.3643   26.2947   29.0654 H   0  0  0  0  0  0  0  0  0  0  0  0
    1.5634   26.5815   31.4188 H   0  0  0  0  0  0  0  0  0  0  0  0
    2.3014   24.7442   33.0653 H   0  0  0  0  0  0  0  0  0  0  0  0
   -0.1605   20.5594   41.5594 H   0  0  0  0  0  0  0  0  0  0  0  0
    1.8541   19.7928   41.9809 H   0  0  0  0  0  0  0  0  0  0  0  0
    4.2160   18.7575   37.5843 H   0  0  0  0  0  0  0  0  0  0  0  0
    5.3222   16.6198   36.8152 H   0  0  0  0  0  0  0  0  0  0  0  0
    5.2346   23.5506   30.1670 H   0  0  0  0  0  0  0  0  0  0  0  0
    1.9889   23.7860   35.4403 H   0  0  0  0  0  0  0  0  0  0  0  0
    2.4739   24.5421   33.8847 H   0  0  0  0  0  0  0  0  0  0  0  0
    1.5309   23.0133   33.8847 H   0  0  0  0  0  0  0  0  0  0  0  0
  1 23  1  0
  2  7  1  0
  3 24  1  0
  4  5  2  0
  5  9  1  0
  6 18  1  0
  7 10  1  0
  8 13  1  0
  8  1  1  0
  9 21  1  0
 10  5  1  0
 13 14  1  0
 15 16  2  0
 15 25  1  0
 16 17  1  0
 17 18  2  0
 19 20  1  0
 20 11  1  0
 21 23  2  0
 22 12  1  0
 22  8  1  0
 22 21  1  0
 23 20  1  0
 24 13  2  3
 25  6  2  0
 26  2  1  0
  1 27  1  0
  1 28  1  0
  2 29  1  0
  2 30  1  0
  3 31  1  0
  3 32  1  0
  3 33  1  0
  6 34  1  0
  7 35  1  0
  7 36  1  0
  8 37  1  6
  9 38  1  0
  9 39  1  0
 11 40  1  0
 11 41  1  0
 11 42  1  0
 12 43  1  0
 14 44  1  0
 16 45  1  0
 17 46  1  0
 18 47  1  0
 19 48  1  0
 20 49  1  1
 22 50  1  6
 24 51  1  0
 25 52  1  0
 26 53  1  0
 26 54  1  0
 26 55  1  0
M  CHG  1   3   1
M  END
>  <mol_id>  (88) 
2026-09-16-6tgu-s0-n100-0088

>  <rmsd_to_ref>  (88) 


$$$$

     RDKit          3D

 65 65  0  0  0  0  0  0  0  0999 V2000
    0.3634   20.6719   41.3744 C   0  0  0  0  0  0  0  0  0  0  0  0
    4.4208   15.5569   38.2136 N   0  0  0  0  0  0  0  0  0  0  0  0
    1.8078   19.5001   39.4409 C   0  0  0  0  0  0  0  0  0  0  0  0
    2.0299   17.2473   40.5730 N   0  0  0  0  0  0  0  0  0  0  0  0
    1.6169   23.6269   30.2161 C   0  0  1  0  0  0  0  0  0  0  0  0
    3.5699   22.0857   29.2695 S   0  0  0  0  0  0  0  0  0  0  0  0
    2.4189   19.8501   38.2434 C   0  0  0  0  0  0  0  0  0  0  0  0
   -0.5243   25.6407   27.9955 C   0  0  0  0  0  0  0  0  0  0  0  0
    1.1301   22.4430   30.6541 O   0  0  0  0  0  0  0  0  0  0  0  0
    0.7994   21.0289   43.7476 O   0  0  0  0  0  0  0  0  0  0  0  0
    0.5069   24.7125   27.9770 C   0  0  0  0  0  0  0  0  0  0  0  0
   -0.7564   18.5633   41.5932 O   0  0  0  0  0  0  0  0  0  0  0  0
    0.1726   19.8022   45.6334 O   0  0  0  0  0  0  0  0  0  0  0  0
    0.2075   19.0422   44.4475 C   0  0  0  0  0  0  0  0  0  0  0  0
    3.1741   23.5301   30.3085 C   0  0  0  0  0  0  0  0  0  0  0  0
    3.4668   24.3290   31.1531 O   0  0  0  0  0  0  0  0  0  0  0  0
    2.1908   19.9960   31.0946 S   0  0  0  0  0  0  0  0  0  0  0  0
    1.9113   21.5462   31.5072 C   0  0  0  0  0  0  0  0  0  0  0  0
    2.3850   18.1816   39.6000 C   0  0  1  0  0  0  0  0  0  0  0  0
   -0.1592   20.0069   43.4255 C   0  0  2  0  0  0  0  0  0  0  0  0
    3.2780   18.9286   37.6444 N   0  0  0  0  0  0  0  0  0  0  0  0
    0.0400   19.6056   42.1651 C   0  0  2  0  0  0  0  0  0  0  0  0
    0.8602   20.4263   40.0340 C   0  0  0  0  0  0  0  0  0  0  0  0
    2.0037   22.5757   33.9416 C   0  0  1  0  0  0  0  0  0  0  0  0
    3.2662   22.6164   34.6444 C   0  0  0  0  0  0  0  0  0  0  0  0
    3.4141   21.3296   35.3487 N   0  0  0  0  0  0  0  0  0  0  0  0
    3.2690   17.8805   38.5823 C   0  0  0  0  0  0  0  0  0  0  0  0
    3.9399   16.5957   38.3715 C   0  0  0  0  0  0  0  0  0  0  0  0
    1.6435   24.1360   28.7767 C   0  0  0  0  0  0  0  0  0  0  0  0
    0.3944   17.7107   43.7759 O   0  0  0  0  0  0  0  0  0  0  0  0
    2.2546   21.9640   32.6115 N   0  0  0  0  0  0  0  0  0  0  0  0
    0.7371   26.1455   27.4144 C   0  0  0  0  0  0  0  0  0  0  0  0
    1.0293   21.7162   34.7393 C   0  0  0  0  0  0  0  0  0  0  0  0
   -0.5434   21.2865   41.2749 H   0  0  0  0  0  0  0  0  0  0  0  0
    1.2160   21.1360   41.8917 H   0  0  0  0  0  0  0  0  0  0  0  0
    2.0244   17.7003   41.4981 H   0  0  0  0  0  0  0  0  0  0  0  0
    1.0914   16.8764   40.3665 H   0  0  0  0  0  0  0  0  0  0  0  0
    2.7118   16.4754   40.5728 H   0  0  0  0  0  0  0  0  0  0  0  0
    0.9328   24.2585   30.8018 H   0  0  0  0  0  0  0  0  0  0  0  0
    3.6845   20.9724   30.0596 H   0  0  0  0  0  0  0  0  0  0  0  0
    2.2302   20.8293   37.7792 H   0  0  0  0  0  0  0  0  0  0  0  0
   -1.3916   25.4878   27.3364 H   0  0  0  0  0  0  0  0  0  0  0  0
   -1.1725   26.0148   28.8017 H   0  0  0  0  0  0  0  0  0  0  0  0
    0.8078   21.1767   44.7265 H   0  0  0  0  0  0  0  0  0  0  0  0
    0.3637   23.6342   27.8131 H   0  0  0  0  0  0  0  0  0  0  0  0
   -1.2497   18.0932   42.3114 H   0  0  0  0  0  0  0  0  0  0  0  0
    3.1466   18.5966   40.2765 H   0  0  0  0  0  0  0  0  0  0  0  0
   -1.2293   20.2608   43.4402 H   0  0  0  0  0  0  0  0  0  0  0  0
    0.9179   18.9461   42.2327 H   0  0  0  0  0  0  0  0  0  0  0  0
    1.2648   21.4067   39.7423 H   0  0  0  0  0  0  0  0  0  0  0  0
   -0.0306   19.8711   39.7051 H   0  0  0  0  0  0  0  0  0  0  0  0
    1.5756   23.5817   33.8206 H   0  0  0  0  0  0  0  0  0  0  0  0
    4.0913   22.7520   33.9296 H   0  0  0  0  0  0  0  0  0  0  0  0
    3.2911   23.4559   35.3548 H   0  0  0  0  0  0  0  0  0  0  0  0
    3.2673   21.4719   36.3581 H   0  0  0  0  0  0  0  0  0  0  0  0
    2.7171   20.6606   34.9913 H   0  0  0  0  0  0  0  0  0  0  0  0
    4.3610   20.9574   35.1885 H   0  0  0  0  0  0  0  0  0  0  0  0
    2.4130   24.9220   28.7734 H   0  0  0  0  0  0  0  0  0  0  0  0
    1.7361   23.1691   28.2603 H   0  0  0  0  0  0  0  0  0  0  0  0
    3.2715   21.8005   32.6174 H   0  0  0  0  0  0  0  0  0  0  0  0
    1.3582   26.8728   27.9578 H   0  0  0  0  0  0  0  0  0  0  0  0
    1.0678   26.6005   26.4692 H   0  0  0  0  0  0  0  0  0  0  0  0
    1.1199   21.9560   35.8091 H   0  0  0  0  0  0  0  0  0  0  0  0
    0.0017   21.9194   34.4037 H   0  0  0  0  0  0  0  0  0  0  0  0
    1.2635   20.6532   34.5807 H   0  0  0  0  0  0  0  0  0  0  0  0
  1 22  1  0
  2 28  3  0
  3 19  1  0
  3 23  1  0
  5 29  1  0
  5  9  1  0
  6 15  1  0
  7  3  2  0
  9 18  1  0
 11  8  1  0
 11 29  1  0
 14 13  1  0
 15  5  1  0
 15 16  2  0
 17 18  2  0
 18 31  1  0
 19  4  1  0
 20 10  1  0
 20 14  1  0
 21  7  1  0
 21 27  2  0
 22 12  1  0
 22 20  1  0
 23  1  1  0
 24 25  1  0
 24 33  1  0
 25 26  1  0
 27 19  1  0
 28 27  1  0
 30 14  2  0
 31 24  1  0
 32 11  1  0
 32  8  1  0
  1 34  1  0
  1 35  1  0
  4 36  1  0
  4 37  1  0
  4 38  1  0
  5 39  1  1
  6 40  1  0
  7 41  1  0
  8 42  1  0
  8 43  1  0
 10 44  1  0
 11 45  1  0
 12 46  1  0
 19 47  1  1
 20 48  1  6
 22 49  1  1
 23 50  1  0
 23 51  1  0
 24 52  1  6
 25 53  1  0
 25 54  1  0
 26 55  1  0
 26 56  1  0
 26 57  1  0
 29 58  1  0
 29 59  1  0
 31 60  1  0
 32 61  1  0
 32 62  1  0
 33 63  1  0
 33 64  1  0
 33 65  1  0
M  CHG  3   4   1  13  -1  26   1
M  END
>  <mol_id>  (89) 
2026-09-16-6tgu-s0-n100-0089

>  <rmsd_to_ref>  (89) 


$$$$

     RDKit          3D

 41 45  0  0  0  0  0  0  0  0999 V2000
    3.2600   18.2180   37.9750 S   0  0  0  0  0  0  0  0  0  0  0  0
    4.6450   23.1280   33.5540 C   0  0  2  0  0  0  0  0  0  0  0  0
    1.3060   18.2210   41.4230 C   0  0  0  0  0  0  0  0  0  0  0  0
    2.3930   16.4100   40.3620 N   0  0  0  0  0  0  0  0  0  0  0  0
    0.9900   19.6160   41.4340 C   0  0  0  0  0  0  0  0  0  0  0  0
    3.3390   22.7440   33.7110 C   0  0  0  0  0  0  0  0  0  0  0  0
    5.5730   23.7190   33.9120 C   0  0  0  0  0  0  0  0  0  0  0  0
    1.4170   20.4310   40.4670 C   0  0  0  0  0  0  0  0  0  0  0  0
    2.0510   17.7470   40.3580 C   0  0  0  0  0  0  0  0  0  0  0  0
    4.0770   24.0720   30.1360 C   0  0  1  0  0  0  0  0  0  0  0  0
    2.4560   18.5240   39.3200 C   0  0  0  0  0  0  0  0  0  0  0  0
    4.0470   21.1090   35.5600 C   0  0  0  0  0  0  0  0  0  0  0  0
    3.2560   19.7140   37.4000 C   0  0  0  0  0  0  0  0  0  0  0  0
    3.4840   25.3940   29.7490 C   0  0  0  0  0  0  0  0  0  0  0  0
    2.1770   19.9050   39.4240 C   0  0  0  0  0  0  0  0  0  0  0  0
    4.7450   24.3080   32.8640 C   0  0  1  0  0  0  0  0  0  0  0  0
    4.7140   25.3370   30.5050 C   0  0  1  0  0  0  0  0  0  0  0  0
    2.6750   20.6490   38.4220 C   0  0  0  0  0  0  0  0  0  0  0  0
    3.9180   19.9690   36.2030 N   0  0  0  0  0  0  0  0  0  0  0  0
    3.1730   21.4380   34.4570 C   0  0  0  0  0  0  0  0  0  0  0  0
    4.8860   24.1690   31.3690 C   0  0  2  0  0  0  0  0  0  0  0  0
    4.7232   22.0337   33.6336 H   0  0  0  0  0  0  0  0  0  0  0  0
    0.9701   17.5520   42.2290 H   0  0  0  0  0  0  0  0  0  0  0  0
    2.9471   16.0178   39.5873 H   0  0  0  0  0  0  0  0  0  0  0  0
    2.0942   15.8043   41.1396 H   0  0  0  0  0  0  0  0  0  0  0  0
    0.3833   20.0251   42.2553 H   0  0  0  0  0  0  0  0  0  0  0  0
    2.8103   23.5315   34.2681 H   0  0  0  0  0  0  0  0  0  0  0  0
    2.9257   22.5924   32.7029 H   0  0  0  0  0  0  0  0  0  0  0  0
    5.5795   24.1663   34.9169 H   0  0  0  0  0  0  0  0  0  0  0  0
    6.6439   23.4839   34.0014 H   0  0  0  0  0  0  0  0  0  0  0  0
    1.1724   21.5031   40.4930 H   0  0  0  0  0  0  0  0  0  0  0  0
    3.7659   23.1125   29.6972 H   0  0  0  0  0  0  0  0  0  0  0  0
    4.8289   21.8200   35.8651 H   0  0  0  0  0  0  0  0  0  0  0  0
    3.4976   25.7177   28.6978 H   0  0  0  0  0  0  0  0  0  0  0  0
    2.5067   25.8804   29.8843 H   0  0  0  0  0  0  0  0  0  0  0  0
    4.3129   25.3053   32.6949 H   0  0  0  0  0  0  0  0  0  0  0  0
    5.3541   26.2258   30.6062 H   0  0  0  0  0  0  0  0  0  0  0  0
    2.6599   21.7472   38.3610 H   0  0  0  0  0  0  0  0  0  0  0  0
    4.3679   19.1548   35.7607 H   0  0  0  0  0  0  0  0  0  0  0  0
    2.3820   20.7345   34.1579 H   0  0  0  0  0  0  0  0  0  0  0  0
    5.5804   23.4138   31.7659 H   0  0  0  0  0  0  0  0  0  0  0  0
  1 11  1  0
  2  6  1  0
  2  7  1  0
  3  5  2  0
  6 20  1  0
  8  5  1  0
  9  4  1  0
  9  3  1  0
 10 14  1  0
 10 17  1  0
 10 21  1  0
 11 15  1  0
 11  9  2  0
 12 19  1  0
 13  1  1  0
 13 18  2  0
 15  8  2  0
 16  2  1  0
 16  7  1  0
 17 14  1  0
 17 21  1  0
 18 15  1  0
 19 13  1  0
 20 12  2  3
 21 16  1  0
  2 22  1  6
  3 23  1  0
  4 24  1  0
  4 25  1  0
  5 26  1  0
  6 27  1  0
  6 28  1  0
  7 29  1  0
  7 30  1  0
  8 31  1  0
 10 32  1  6
 12 33  1  0
 14 34  1  0
 14 35  1  0
 16 36  1  6
 17 37  1  6
 18 38  1  0
 19 39  1  0
 20 40  1  0
 21 41  1  1
M  END
>  <mol_id>  (90) 
2026-09-16-6tgu-s0-n100-0090

>  <rmsd_to_ref>  (90) 


$$$$

     RDKit          3D

 51 52  0  0  0  0  0  0  0  0999 V2000
    0.7992   19.1532   41.4144 C   0  0  0  0  0  0  0  0  0  0  0  0
    3.8102   23.0298   34.4508 C   0  0  0  0  0  0  0  0  0  0  0  0
   -0.0786   20.8291   42.7753 C   0  0  0  0  0  0  0  0  0  0  0  0
    2.4024   20.5555   38.3740 N   0  0  0  0  0  0  0  0  0  0  0  0
    3.1936   16.1690   37.9382 C   0  0  0  0  0  0  0  0  0  0  0  0
    0.6630   21.7624   41.9838 C   0  0  0  0  0  0  0  0  0  0  0  0
    1.3167   19.9957   40.5055 C   0  0  0  0  0  0  0  0  0  0  0  0
    4.3954   25.2782   31.3643 C   0  0  0  0  0  0  0  0  0  0  0  0
    1.3850   21.3477   40.8932 C   0  0  0  0  0  0  0  0  0  0  0  0
   -0.0029   19.5420   42.4569 C   0  0  0  0  0  0  0  0  0  0  0  0
    1.7213   16.0937   38.1463 C   0  0  0  0  0  0  0  0  0  0  0  0
    2.9520   19.8943   37.4228 N   0  0  0  0  0  0  0  0  0  0  0  0
    3.4713   25.4612   30.8544 C   0  0  0  0  0  0  0  0  0  0  0  0
    1.0555   17.8908   41.4082 O   0  0  0  0  0  0  0  0  0  0  0  0
    2.7257   18.6292   37.4026 N   0  0  0  0  0  0  0  0  0  0  0  0
    4.3778   23.8994   32.2390 C   0  0  0  0  0  0  0  0  0  0  0  0
    4.0474   23.4729   32.9639 C   0  0  0  0  0  0  0  0  0  0  0  0
    1.8075   19.6358   39.1741 C   0  0  1  0  0  0  0  0  0  0  0  0
    4.5364   24.1652   32.5158 C   0  0  0  0  0  0  0  0  0  0  0  0
    1.8964   18.4013   38.4076 C   0  0  0  0  0  0  0  0  0  0  0  0
    1.3434   17.3131   38.8867 N   0  0  0  0  0  0  0  0  0  0  0  0
    4.7043   24.3865   30.8215 C   0  0  0  0  0  0  0  0  0  0  0  0
    2.7376   15.4809   37.0624 C   0  0  0  0  0  0  0  0  0  0  0  0
    3.7470   22.9341   35.5448 H   0  0  0  0  0  0  0  0  0  0  0  0
    4.1364   24.0475   34.1900 H   0  0  0  0  0  0  0  0  0  0  0  0
    4.5355   22.3009   34.0602 H   0  0  0  0  0  0  0  0  0  0  0  0
    2.8219   22.8369   34.0081 H   0  0  0  0  0  0  0  0  0  0  0  0
   -0.6931   21.1677   43.6225 H   0  0  0  0  0  0  0  0  0  0  0  0
    1.7012   21.2088   37.9969 H   0  0  0  0  0  0  0  0  0  0  0  0
    3.6219   17.1419   37.6551 H   0  0  0  0  0  0  0  0  0  0  0  0
    4.0093   15.9506   38.6431 H   0  0  0  0  0  0  0  0  0  0  0  0
    0.6540   22.8288   42.2538 H   0  0  0  0  0  0  0  0  0  0  0  0
    4.7678   26.2945   31.5602 H   0  0  0  0  0  0  0  0  0  0  0  0
    2.0071   22.0597   40.3310 H   0  0  0  0  0  0  0  0  0  0  0  0
   -0.5780   18.7950   43.0237 H   0  0  0  0  0  0  0  0  0  0  0  0
    0.7105   15.7266   38.3776 H   0  0  0  0  0  0  0  0  0  0  0  0
    3.5425   20.3518   36.7137 H   0  0  0  0  0  0  0  0  0  0  0  0
    2.6518   25.5100   31.5867 H   0  0  0  0  0  0  0  0  0  0  0  0
    3.5349   26.4157   30.3114 H   0  0  0  0  0  0  0  0  0  0  0  0
    3.2781   24.6460   30.1416 H   0  0  0  0  0  0  0  0  0  0  0  0
    1.6264   17.5052   40.6974 H   0  0  0  0  0  0  0  0  0  0  0  0
    3.4483   22.5589   32.8386 H   0  0  0  0  0  0  0  0  0  0  0  0
    4.2441   23.8677   33.9716 H   0  0  0  0  0  0  0  0  0  0  0  0
    2.7861   19.3773   39.6048 H   0  0  0  0  0  0  0  0  0  0  0  0
    5.5687   23.9489   32.8282 H   0  0  0  0  0  0  0  0  0  0  0  0
    4.1079   24.2973   33.5203 H   0  0  0  0  0  0  0  0  0  0  0  0
    0.7090   17.3097   39.6982 H   0  0  0  0  0  0  0  0  0  0  0  0
    4.0513   24.0408   30.0065 H   0  0  0  0  0  0  0  0  0  0  0  0
    5.6272   24.2280   30.2442 H   0  0  0  0  0  0  0  0  0  0  0  0
    2.7216   15.8556   36.0283 H   0  0  0  0  0  0  0  0  0  0  0  0
    2.9483   14.4641   36.6993 H   0  0  0  0  0  0  0  0  0  0  0  0
  1 14  1  0
  1 10  2  0
  4 18  1  0
  5 11  1  0
  6  3  2  0
  7  9  2  0
  7  1  1  0
  8 19  1  0
  9  6  1  0
 10  3  1  0
 11 21  1  0
 12 15  1  0
 12  4  1  0
 13  8  1  0
 15 20  2  0
 16 19  1  0
 16 17  2  3
 18  7  1  0
 20 21  1  0
 20 18  1  0
 22  8  1  0
 22 16  1  0
 23  5  1  0
 23 11  1  0
  2 24  1  0
  2 25  1  0
  2 26  1  0
  2 27  1  0
  3 28  1  0
  4 29  1  0
  5 30  1  0
  5 31  1  0
  6 32  1  0
  8 33  1  0
  9 34  1  0
 10 35  1  0
 11 36  1  0
 12 37  1  0
 13 38  1  0
 13 39  1  0
 13 40  1  0
 14 41  1  0
 17 42  1  0
 17 43  1  0
 18 44  1  6
 19 45  1  0
 19 46  1  0
 21 47  1  0
 22 48  1  0
 22 49  1  0
 23 50  1  0
 23 51  1  0
M  END
>  <mol_id>  (91) 
2026-09-16-6tgu-s0-n100-0091

>  <rmsd_to_ref>  (91) 


$$$$

     RDKit          3D

 65 67  0  0  0  0  0  0  0  0999 V2000
    4.0513   23.4888   31.4488 C   0  0  2  0  0  0  0  0  0  0  0  0
    2.1655   26.5191   30.5286 C   0  0  0  0  0  0  0  0  0  0  0  0
   -0.1358   19.9572   43.3320 C   0  0  0  0  0  0  0  0  0  0  0  0
    3.2164   24.0217   33.4860 C   0  0  0  0  0  0  0  0  0  0  0  0
    3.3577   22.0230   36.2568 C   0  0  1  0  0  0  0  0  0  0  0  0
    3.0447   21.1153   37.3247 C   0  0  0  0  0  0  0  0  0  0  0  0
    3.3136   19.4176   39.7423 C   0  0  0  0  0  0  0  0  0  0  0  0
    0.5976   16.5360   43.2034 C   0  0  0  0  0  0  0  0  0  0  0  0
    3.2251   24.4790   30.5962 C   0  0  0  0  0  0  0  0  0  0  0  0
    4.5113   23.7670   32.7215 C   0  0  0  0  0  0  0  0  0  0  0  0
    2.7731   22.6847   33.9398 C   0  0  2  0  0  0  0  0  0  0  0  0
    0.2570   18.6476   42.9018 C   0  0  0  0  0  0  0  0  0  0  0  0
    2.3119   22.5293   35.2971 C   0  0  0  0  0  0  0  0  0  0  0  0
    4.9724   22.4071   30.7269 C   0  0  0  0  0  0  0  0  0  0  0  0
    4.5678   22.5865   36.0273 O   0  0  0  0  0  0  0  0  0  0  0  0
    2.3535   20.2564   39.7022 C   0  0  2  0  0  0  0  0  0  0  0  0
    1.2091   18.6154   41.8338 C   0  0  0  0  0  0  0  0  0  0  0  0
    2.4121   21.3328   38.5651 C   0  0  0  0  0  0  0  0  0  0  0  0
    1.5320   19.8307   41.1498 C   0  0  0  0  0  0  0  0  0  0  0  0
    3.7077   21.7804   33.3646 C   0  0  0  0  0  0  0  0  0  0  0  0
    3.5495   19.6837   37.3635 C   0  0  0  0  0  0  0  0  0  0  0  0
    3.7790   19.0212   38.5202 C   0  0  0  0  0  0  0  0  0  0  0  0
    0.8750   21.1176   41.6040 C   0  0  0  0  0  0  0  0  0  0  0  0
    0.2063   21.0586   42.7016 C   0  0  0  0  0  0  0  0  0  0  0  0
    2.2355   24.9760   32.8015 C   0  0  0  0  0  0  0  0  0  0  0  0
   -0.2712   17.5677   43.4184 O   0  0  0  0  0  0  0  0  0  0  0  0
    2.7840   25.5974   31.3948 C   0  0  2  0  0  0  0  0  0  0  0  0
    3.0621   23.0603   31.6674 H   0  0  0  0  0  0  0  0  0  0  0  0
    1.6722   27.3043   31.1203 H   0  0  0  0  0  0  0  0  0  0  0  0
    2.9244   26.9746   29.8753 H   0  0  0  0  0  0  0  0  0  0  0  0
    1.4168   25.9987   29.9133 H   0  0  0  0  0  0  0  0  0  0  0  0
   -0.7556   20.0449   44.2365 H   0  0  0  0  0  0  0  0  0  0  0  0
    3.3443   24.6457   34.3828 H   0  0  0  0  0  0  0  0  0  0  0  0
    3.6316   21.1730   35.6146 H   0  0  0  0  0  0  0  0  0  0  0  0
    4.1472   19.8775   40.2933 H   0  0  0  0  0  0  0  0  0  0  0  0
    2.9165   18.5152   40.2302 H   0  0  0  0  0  0  0  0  0  0  0  0
    0.9447   16.1415   44.1698 H   0  0  0  0  0  0  0  0  0  0  0  0
    0.0880   15.7381   42.6433 H   0  0  0  0  0  0  0  0  0  0  0  0
    1.4600   16.8976   42.6240 H   0  0  0  0  0  0  0  0  0  0  0  0
    2.3463   23.9580   30.1884 H   0  0  0  0  0  0  0  0  0  0  0  0
    3.8588   24.8563   29.7801 H   0  0  0  0  0  0  0  0  0  0  0  0
    5.0609   22.9121   33.1423 H   0  0  0  0  0  0  0  0  0  0  0  0
    5.2187   24.6084   32.7603 H   0  0  0  0  0  0  0  0  0  0  0  0
    1.7662   22.4322   33.5759 H   0  0  0  0  0  0  0  0  0  0  0  0
    1.9615   23.5084   35.6555 H   0  0  0  0  0  0  0  0  0  0  0  0
    1.5154   21.7709   35.2727 H   0  0  0  0  0  0  0  0  0  0  0  0
    5.4978   21.8082   31.4854 H   0  0  0  0  0  0  0  0  0  0  0  0
    4.3469   21.7475   30.1076 H   0  0  0  0  0  0  0  0  0  0  0  0
    5.7085   22.9190   30.0896 H   0  0  0  0  0  0  0  0  0  0  0  0
    5.0361   22.7247   36.8884 H   0  0  0  0  0  0  0  0  0  0  0  0
    1.5139   20.8446   39.3033 H   0  0  0  0  0  0  0  0  0  0  0  0
    1.6869   17.6685   41.5422 H   0  0  0  0  0  0  0  0  0  0  0  0
    1.9352   22.3077   38.7441 H   0  0  0  0  0  0  0  0  0  0  0  0
    4.2520   21.2573   34.1648 H   0  0  0  0  0  0  0  0  0  0  0  0
    3.1731   21.0460   32.7442 H   0  0  0  0  0  0  0  0  0  0  0  0
    4.4209   22.3382   32.7400 H   0  0  0  0  0  0  0  0  0  0  0  0
    2.8101   19.0850   36.8112 H   0  0  0  0  0  0  0  0  0  0  0  0
    4.5681   19.7949   36.9638 H   0  0  0  0  0  0  0  0  0  0  0  0
    3.3796   18.0081   38.3655 H   0  0  0  0  0  0  0  0  0  0  0  0
    4.8578   19.1957   38.6455 H   0  0  0  0  0  0  0  0  0  0  0  0
    0.9645   22.0503   41.0278 H   0  0  0  0  0  0  0  0  0  0  0  0
   -0.1062   22.0126   43.1514 H   0  0  0  0  0  0  0  0  0  0  0  0
    1.3045   24.4268   32.5972 H   0  0  0  0  0  0  0  0  0  0  0  0
    2.0863   25.8236   33.4865 H   0  0  0  0  0  0  0  0  0  0  0  0
    3.4709   26.3299   31.8439 H   0  0  0  0  0  0  0  0  0  0  0  0
  1 14  1  0
  1 10  1  0
  4 11  1  0
  5 15  1  0
  5  6  1  0
  6 21  1  0
  6 18  2  0
  8 26  1  0
  9 27  1  0
  9  1  1  0
 10  4  1  0
 11 20  1  0
 11 13  1  0
 12  3  1  0
 12 26  1  0
 13  5  1  0
 16  7  1  0
 16 19  1  0
 17 12  2  0
 18 16  1  0
 19 23  2  0
 19 17  1  0
 21 22  1  0
 22  7  1  0
 23 24  1  0
 24  3  2  0
 25  4  1  0
 27  2  1  0
 27 25  1  0
  1 28  1  1
  2 29  1  0
  2 30  1  0
  2 31  1  0
  3 32  1  0
  4 33  1  0
  5 34  1  6
  7 35  1  0
  7 36  1  0
  8 37  1  0
  8 38  1  0
  8 39  1  0
  9 40  1  0
  9 41  1  0
 10 42  1  0
 10 43  1  0
 11 44  1  6
 13 45  1  0
 13 46  1  0
 14 47  1  0
 14 48  1  0
 14 49  1  0
 15 50  1  0
 16 51  1  6
 17 52  1  0
 18 53  1  0
 20 54  1  0
 20 55  1  0
 20 56  1  0
 21 57  1  0
 21 58  1  0
 22 59  1  0
 22 60  1  0
 23 61  1  0
 24 62  1  0
 25 63  1  0
 25 64  1  0
 27 65  1  1
M  END
>  <mol_id>  (92) 
2026-09-16-6tgu-s0-n100-0092

>  <rmsd_to_ref>  (92) 


$$$$

     RDKit          3D

 68 72  0  0  0  0  0  0  0  0999 V2000
    1.9476   21.1449   39.5620 C   0  0  0  0  0  0  0  0  0  0  0  0
    1.3517   12.5020   36.1580 N   0  0  0  0  0  0  0  0  0  0  0  0
    2.5720   16.2648   38.8939 O   0  0  0  0  0  0  0  0  0  0  0  0
    1.4158   14.8040   36.5674 C   0  0  0  0  0  0  0  0  0  0  0  0
    2.0498   24.6194   32.5637 C   0  0  2  0  0  0  0  0  0  0  0  0
    0.7292   15.9985   41.5047 C   0  0  0  0  0  0  0  0  0  0  0  0
    2.5392   19.0040   37.6942 C   0  0  0  0  0  0  0  0  0  0  0  0
    0.3565   13.9954   34.4174 N   0  0  0  0  0  0  0  0  0  0  0  0
    1.0143   13.7570   35.6752 C   0  0  0  0  0  0  0  0  0  0  0  0
    1.4942   17.1718   41.0039 C   0  0  2  0  0  0  0  0  0  0  0  0
    2.1519   14.9104   39.0940 C   0  0  0  0  0  0  0  0  0  0  0  0
    3.0803   21.7581   35.0424 C   0  0  0  0  0  0  0  0  0  0  0  0
    1.8094   26.9757   32.5570 C   0  0  1  0  0  0  0  0  0  0  0  0
    0.7551   18.3683   41.5280 C   0  0  0  0  0  0  0  0  0  0  0  0
    2.1639   25.6060   34.9855 C   0  0  0  0  0  0  0  0  0  0  0  0
    0.4776   26.8182   33.2315 C   0  0  0  0  0  0  0  0  0  0  0  0
    2.0684   17.4495   39.5193 C   0  0  1  0  0  0  0  0  0  0  0  0
    1.9841   12.6099   37.5641 S   0  0  0  0  0  0  0  0  0  0  0  0
    2.5917   22.6561   33.9029 C   0  0  0  0  0  0  0  0  0  0  0  0
    2.2268   21.3932   38.1465 C   0  0  0  0  0  0  0  0  0  0  0  0
    1.9211   19.7880   40.0012 C   0  0  0  0  0  0  0  0  0  0  0  0
    2.6381   20.3317   37.2666 C   0  0  0  0  0  0  0  0  0  0  0  0
    2.6636   26.0754   29.1409 C   0  0  0  0  0  0  0  0  0  0  0  0
    3.0276   20.7645   35.8352 C   0  0  0  0  0  0  0  0  0  0  0  0
    2.2219   18.6725   39.0593 C   0  0  0  0  0  0  0  0  0  0  0  0
    1.7117   19.4744   41.2695 O   0  0  0  0  0  0  0  0  0  0  0  0
    0.8299   25.6040   32.6426 C   0  0  2  0  0  0  0  0  0  0  0  0
    4.1281   19.9573   35.8128 O   0  0  0  0  0  0  0  0  0  0  0  0
    1.7038   26.9852   29.8969 O   0  0  0  0  0  0  0  0  0  0  0  0
    3.2567   25.2764   30.3576 C   0  0  0  0  0  0  0  0  0  0  0  0
    2.3089   27.4910   31.3878 C   0  0  0  0  0  0  0  0  0  0  0  0
    2.0739   24.3485   34.0162 C   0  0  2  0  0  0  0  0  0  0  0  0
    2.6990   24.2386   31.3849 C   0  0  0  0  0  0  0  0  0  0  0  0
    1.8712   14.2152   37.8159 C   0  0  0  0  0  0  0  0  0  0  0  0
    1.7651   21.9743   40.2612 H   0  0  0  0  0  0  0  0  0  0  0  0
    1.3845   15.8805   36.3434 H   0  0  0  0  0  0  0  0  0  0  0  0
    1.3594   23.7756   32.4177 H   0  0  0  0  0  0  0  0  0  0  0  0
    0.8553   15.9166   42.5944 H   0  0  0  0  0  0  0  0  0  0  0  0
   -0.3371   16.1277   41.2677 H   0  0  0  0  0  0  0  0  0  0  0  0
    1.1038   15.0836   41.0225 H   0  0  0  0  0  0  0  0  0  0  0  0
    2.7079   18.1930   36.9703 H   0  0  0  0  0  0  0  0  0  0  0  0
    0.1374   14.9585   34.1252 H   0  0  0  0  0  0  0  0  0  0  0  0
    0.1048   13.2030   33.8095 H   0  0  0  0  0  0  0  0  0  0  0  0
    2.4966   16.8942   41.3622 H   0  0  0  0  0  0  0  0  0  0  0  0
    2.9481   14.3676   39.6247 H   0  0  0  0  0  0  0  0  0  0  0  0
    1.2206   14.9292   39.6791 H   0  0  0  0  0  0  0  0  0  0  0  0
    2.7585   27.4420   32.8600 H   0  0  0  0  0  0  0  0  0  0  0  0
   -0.1882   18.5229   40.9837 H   0  0  0  0  0  0  0  0  0  0  0  0
    0.4653   18.2768   42.5852 H   0  0  0  0  0  0  0  0  0  0  0  0
    2.2878   25.2614   36.0227 H   0  0  0  0  0  0  0  0  0  0  0  0
    3.0254   26.2278   34.7004 H   0  0  0  0  0  0  0  0  0  0  0  0
    1.2408   26.1987   34.9038 H   0  0  0  0  0  0  0  0  0  0  0  0
    0.4457   26.8694   34.3299 H   0  0  0  0  0  0  0  0  0  0  0  0
   -0.4416   27.4132   33.1265 H   0  0  0  0  0  0  0  0  0  0  0  0
    1.4053   17.8608   38.7440 H   0  0  0  0  0  0  0  0  0  0  0  0
    2.5579   22.2007   32.9022 H   0  0  0  0  0  0  0  0  0  0  0  0
    2.1199   22.4126   37.7474 H   0  0  0  0  0  0  0  0  0  0  0  0
    2.1375   25.4181   28.4331 H   0  0  0  0  0  0  0  0  0  0  0  0
    3.4021   26.5892   28.5078 H   0  0  0  0  0  0  0  0  0  0  0  0
    0.0517   24.8602   32.4163 H   0  0  0  0  0  0  0  0  0  0  0  0
    4.1698   19.1608   36.3993 H   0  0  0  0  0  0  0  0  0  0  0  0
    4.1004   24.7363   29.9032 H   0  0  0  0  0  0  0  0  0  0  0  0
    3.2133   26.1265   31.0544 H   0  0  0  0  0  0  0  0  0  0  0  0
    2.1592   28.5797   31.4348 H   0  0  0  0  0  0  0  0  0  0  0  0
    3.3418   27.1130   31.3745 H   0  0  0  0  0  0  0  0  0  0  0  0
    1.4089   24.3089   34.8915 H   0  0  0  0  0  0  0  0  0  0  0  0
    1.9826   23.6149   30.8301 H   0  0  0  0  0  0  0  0  0  0  0  0
    3.6242   23.7884   31.7738 H   0  0  0  0  0  0  0  0  0  0  0  0
  1 21  1  0
  2 18  1  0
  3 11  1  0
  4 34  2  0
  5 32  1  0
  7 25  1  0
  8  9  1  0
  9  2  2  0
  9  4  1  0
 10 14  1  0
 10  6  1  0
 12 24  2  0
 13 31  1  0
 13 27  1  0
 13 16  1  0
 17  3  1  0
 17 10  1  0
 18 34  1  0
 19 12  2  0
 20  1  2  0
 21 26  1  0
 22  7  2  0
 22 20  1  0
 23 29  1  0
 23 30  1  0
 24 28  1  0
 24 22  1  0
 25 17  1  0
 25 21  2  0
 26 14  1  0
 27  5  1  0
 27 16  1  0
 29 31  1  0
 30 33  1  0
 32 19  1  0
 32 15  1  0
 33  5  1  0
 34 11  1  0
  1 35  1  0
  4 36  1  0
  5 37  1  6
  6 38  1  0
  6 39  1  0
  6 40  1  0
  7 41  1  0
  8 42  1  0
  8 43  1  0
 10 44  1  1
 11 45  1  0
 11 46  1  0
 13 47  1  1
 14 48  1  0
 14 49  1  0
 15 50  1  0
 15 51  1  0
 15 52  1  0
 16 53  1  0
 16 54  1  0
 17 55  1  6
 19 56  1  0
 20 57  1  0
 23 58  1  0
 23 59  1  0
 27 60  1  6
 28 61  1  0
 30 62  1  0
 30 63  1  0
 31 64  1  0
 31 65  1  0
 32 66  1  1
 33 67  1  0
 33 68  1  0
M  END
>  <mol_id>  (93) 
2026-09-16-6tgu-s0-n100-0093

>  <rmsd_to_ref>  (93) 


$$$$

     RDKit          3D

 59 59  0  0  0  0  0  0  0  0999 V2000
    3.9421   24.3484   31.8341 C   0  0  1  0  0  0  0  0  0  0  0  0
    3.8469   16.9834   38.3533 C   0  0  0  0  0  0  0  0  0  0  0  0
    2.8610   26.7028   29.3693 C   0  0  0  0  0  0  0  0  0  0  0  0
    1.5426   22.1211   39.8225 C   0  0  0  0  0  0  0  0  0  0  0  0
    3.3622   24.8339   30.6112 N   0  0  0  0  0  0  0  0  0  0  0  0
    2.7932   23.9379   32.7827 C   0  0  0  0  0  0  0  0  0  0  0  0
    2.8839   17.5402   39.2976 C   0  0  0  0  0  0  0  0  0  0  0  0
    2.8888   18.8469   38.6165 C   0  0  0  0  0  0  0  0  0  0  0  0
    2.1556   17.2111   40.4335 C   0  0  0  0  0  0  0  0  0  0  0  0
    2.6106   21.5834   37.8578 C   0  0  0  0  0  0  0  0  0  0  0  0
    2.0720   21.2014   39.1018 N   0  0  0  0  0  0  0  0  0  0  0  0
    3.6682   25.5281   29.5662 C   0  0  2  0  0  0  0  0  0  0  0  0
    4.1969   21.8788   36.0373 C   0  0  0  0  0  0  0  0  0  0  0  0
    4.9978   23.2689   31.8742 C   0  0  0  0  0  0  0  0  0  0  0  0
    1.2723   19.4368   40.5733 C   0  0  0  0  0  0  0  0  0  0  0  0
    1.3235   29.2774   32.0336 C   0  0  0  0  0  0  0  0  0  0  0  0
    1.9203   28.6280   31.0203 N   0  0  0  0  0  0  0  0  0  0  0  0
    3.6048   23.3720   33.9536 C   0  0  0  0  0  0  0  0  0  0  0  0
    3.2062   22.9188   34.9358 C   0  0  0  0  0  0  0  0  0  0  0  0
    3.5525   21.4312   37.1666 C   0  0  0  0  0  0  0  0  0  0  0  0
    2.0763   27.4009   30.4490 C   0  0  0  0  0  0  0  0  0  0  0  0
    4.8941   25.1026   28.7756 C   0  0  0  0  0  0  0  0  0  0  0  0
    1.2576   18.0723   41.0664 C   0  0  0  0  0  0  0  0  0  0  0  0
    2.1150   19.8101   39.5797 C   0  0  0  0  0  0  0  0  0  0  0  0
    1.2310   26.7976   31.0718 O   0  0  0  0  0  0  0  0  0  0  0  0
    4.5496   25.2200   32.1191 H   0  0  0  0  0  0  0  0  0  0  0  0
    4.6837   16.5318   38.9063 H   0  0  0  0  0  0  0  0  0  0  0  0
    3.3555   16.2143   37.7392 H   0  0  0  0  0  0  0  0  0  0  0  0
    4.2273   17.7845   37.7024 H   0  0  0  0  0  0  0  0  0  0  0  0
    3.5441   27.4639   28.9641 H   0  0  0  0  0  0  0  0  0  0  0  0
    2.0416   26.2826   28.7676 H   0  0  0  0  0  0  0  0  0  0  0  0
    1.6653   21.8695   40.8863 H   0  0  0  0  0  0  0  0  0  0  0  0
    2.0372   23.0811   39.6134 H   0  0  0  0  0  0  0  0  0  0  0  0
    0.4713   22.2014   39.5859 H   0  0  0  0  0  0  0  0  0  0  0  0
    3.0400   23.9555   30.1803 H   0  0  0  0  0  0  0  0  0  0  0  0
    2.9518   25.6519   31.0838 H   0  0  0  0  0  0  0  0  0  0  0  0
    2.1862   24.8033   33.0871 H   0  0  0  0  0  0  0  0  0  0  0  0
    2.0595   23.2428   32.3484 H   0  0  0  0  0  0  0  0  0  0  0  0
    3.3382   19.0926   37.6430 H   0  0  0  0  0  0  0  0  0  0  0  0
    2.2953   16.2076   40.8618 H   0  0  0  0  0  0  0  0  0  0  0  0
    1.9047   22.2613   37.3557 H   0  0  0  0  0  0  0  0  0  0  0  0
    3.0253   24.9696   28.8699 H   0  0  0  0  0  0  0  0  0  0  0  0
    5.0737   22.4617   36.3559 H   0  0  0  0  0  0  0  0  0  0  0  0
    4.4498   20.9792   35.4571 H   0  0  0  0  0  0  0  0  0  0  0  0
    5.2362   23.0279   32.9206 H   0  0  0  0  0  0  0  0  0  0  0  0
    4.6210   22.3684   31.3671 H   0  0  0  0  0  0  0  0  0  0  0  0
    5.9052   23.6243   31.3639 H   0  0  0  0  0  0  0  0  0  0  0  0
    0.5894   20.1792   41.0123 H   0  0  0  0  0  0  0  0  0  0  0  0
    1.6897   28.8784   32.9911 H   0  0  0  0  0  0  0  0  0  0  0  0
    1.5576   30.3504   31.9700 H   0  0  0  0  0  0  0  0  0  0  0  0
    0.2346   29.1352   31.9695 H   0  0  0  0  0  0  0  0  0  0  0  0
    2.4607   29.3117   30.4713 H   0  0  0  0  0  0  0  0  0  0  0  0
    4.6988   23.4018   33.8434 H   0  0  0  0  0  0  0  0  0  0  0  0
    2.1647   23.1304   35.2197 H   0  0  0  0  0  0  0  0  0  0  0  0
    4.1497   20.6103   37.5900 H   0  0  0  0  0  0  0  0  0  0  0  0
    5.7120   24.8598   29.4698 H   0  0  0  0  0  0  0  0  0  0  0  0
    4.6510   24.2163   28.1710 H   0  0  0  0  0  0  0  0  0  0  0  0
    5.2065   25.9236   28.1135 H   0  0  0  0  0  0  0  0  0  0  0  0
    0.5905   17.7420   41.8762 H   0  0  0  0  0  0  0  0  0  0  0  0
  1 14  1  0
  1  6  1  0
  2  7  1  0
  3 12  1  0
  3 21  1  0
  5  1  1  0
  6 18  1  0
  7  9  2  0
  8  7  1  0
  8 24  2  0
  9 23  1  0
 10 11  1  0
 11 24  1  0
 11  4  1  0
 12 22  1  0
 12  5  1  0
 13 20  1  0
 15 23  2  0
 17 16  1  0
 18 19  2  3
 19 13  1  0
 20 10  2  3
 21 25  2  0
 21 17  1  0
 24 15  1  0
  1 26  1  1
  2 27  1  0
  2 28  1  0
  2 29  1  0
  3 30  1  0
  3 31  1  0
  4 32  1  0
  4 33  1  0
  4 34  1  0
  5 35  1  0
  5 36  1  0
  6 37  1  0
  6 38  1  0
  8 39  1  0
  9 40  1  0
 10 41  1  0
 12 42  1  6
 13 43  1  0
 13 44  1  0
 14 45  1  0
 14 46  1  0
 14 47  1  0
 15 48  1  0
 16 49  1  0
 16 50  1  0
 16 51  1  0
 17 52  1  0
 18 53  1  0
 19 54  1  0
 20 55  1  0
 22 56  1  0
 22 57  1  0
 22 58  1  0
 23 59  1  0
M  CHG  1   5   1
M  END
>  <mol_id>  (94) 
2026-09-16-6tgu-s0-n100-0094

>  <rmsd_to_ref>  (94) 


$$$$

     RDKit          3D

 56 56  0  0  0  0  0  0  0  0999 V2000
    3.2662   17.2568   37.6361 C   0  0  0  0  0  0  0  0  0  0  0  0
    2.5201   14.1457   40.3125 C   0  0  0  0  0  0  0  0  0  0  0  0
    2.2312   21.1167   37.1607 C   0  0  0  0  0  0  0  0  0  0  0  0
    2.1240   22.0179   35.9366 C   0  0  0  0  0  0  0  0  0  0  0  0
    2.3399   16.6581   38.6648 N   0  0  0  0  0  0  0  0  0  0  0  0
    3.8642   23.9282   31.2347 C   0  0  0  0  0  0  0  0  0  0  0  0
    4.1910   24.8759   29.9833 C   0  0  0  0  0  0  0  0  0  0  0  0
    3.0208   23.5403   33.8182 C   0  0  0  0  0  0  0  0  0  0  0  0
    1.7597   19.2733   39.4937 C   0  0  0  0  0  0  0  0  0  0  0  0
    2.0589   26.4145   31.2798 C   0  0  0  0  0  0  0  0  0  0  0  0
    2.1403   22.5540   34.6027 C   0  0  0  0  0  0  0  0  0  0  0  0
    4.2408   26.3184   30.6352 C   0  0  0  0  0  0  0  0  0  0  0  0
    1.7958   17.5368   39.7991 C   0  0  0  0  0  0  0  0  0  0  0  0
    2.5529   14.1897   38.7025 C   0  0  0  0  0  0  0  0  0  0  0  0
    1.9580   25.2514   32.2171 C   0  0  0  0  0  0  0  0  0  0  0  0
    1.8151   11.8836   40.5336 O   0  0  0  0  0  0  0  0  0  0  0  0
    2.7287   23.8506   32.2836 C   0  0  0  0  0  0  0  0  0  0  0  0
    1.8584   15.5615   38.5071 C   0  0  0  0  0  0  0  0  0  0  0  0
    2.2068   20.3925   38.2556 C   0  0  0  0  0  0  0  0  0  0  0  0
    1.4340   20.0220   40.7344 O   0  0  0  0  0  0  0  0  0  0  0  0
    2.9158   12.6557   40.0680 C   0  0  0  0  0  0  0  0  0  0  0  0
    2.8284   27.0780   30.5616 C   0  0  0  0  0  0  0  0  0  0  0  0
    2.7692   20.5404   41.3119 C   0  0  0  0  0  0  0  0  0  0  0  0
    4.0472   17.8428   38.1428 H   0  0  0  0  0  0  0  0  0  0  0  0
    3.7339   16.4514   37.0508 H   0  0  0  0  0  0  0  0  0  0  0  0
    2.6933   17.9130   36.9644 H   0  0  0  0  0  0  0  0  0  0  0  0
    3.2734   14.7633   40.8236 H   0  0  0  0  0  0  0  0  0  0  0  0
    1.6678   14.4710   40.9272 H   0  0  0  0  0  0  0  0  0  0  0  0
    1.0741   22.2879   36.1228 H   0  0  0  0  0  0  0  0  0  0  0  0
    3.2220   21.9840   35.8803 H   0  0  0  0  0  0  0  0  0  0  0  0
    4.7643   24.0311   31.8585 H   0  0  0  0  0  0  0  0  0  0  0  0
    3.4854   23.0948   30.6247 H   0  0  0  0  0  0  0  0  0  0  0  0
    3.3997   24.8129   29.2218 H   0  0  0  0  0  0  0  0  0  0  0  0
    5.1204   24.6024   29.4623 H   0  0  0  0  0  0  0  0  0  0  0  0
    3.8625   24.0375   34.3227 H   0  0  0  0  0  0  0  0  0  0  0  0
    1.3012   26.1278   30.5357 H   0  0  0  0  0  0  0  0  0  0  0  0
    2.2444   27.0938   32.1249 H   0  0  0  0  0  0  0  0  0  0  0  0
    1.3162   22.1597   33.9899 H   0  0  0  0  0  0  0  0  0  0  0  0
    4.5323   26.2180   31.6911 H   0  0  0  0  0  0  0  0  0  0  0  0
    4.9702   26.9154   30.0681 H   0  0  0  0  0  0  0  0  0  0  0  0
    1.4476   17.1074   40.7500 H   0  0  0  0  0  0  0  0  0  0  0  0
    3.5793   14.1826   38.3067 H   0  0  0  0  0  0  0  0  0  0  0  0
    2.0872   13.3364   38.1877 H   0  0  0  0  0  0  0  0  0  0  0  0
    2.1532   25.6987   33.2029 H   0  0  0  0  0  0  0  0  0  0  0  0
    1.0162   24.8520   31.8129 H   0  0  0  0  0  0  0  0  0  0  0  0
    1.7820   11.9189   41.5224 H   0  0  0  0  0  0  0  0  0  0  0  0
    2.1875   22.9424   31.9799 H   0  0  0  0  0  0  0  0  0  0  0  0
    1.5110   15.5545   37.4634 H   0  0  0  0  0  0  0  0  0  0  0  0
    1.1892   15.5408   39.3799 H   0  0  0  0  0  0  0  0  0  0  0  0
    3.0852   12.4747   38.9964 H   0  0  0  0  0  0  0  0  0  0  0  0
    3.8469   12.3918   40.5910 H   0  0  0  0  0  0  0  0  0  0  0  0
    2.9231   28.1047   30.9447 H   0  0  0  0  0  0  0  0  0  0  0  0
    2.4589   27.1555   29.5284 H   0  0  0  0  0  0  0  0  0  0  0  0
    2.7112   20.5586   42.4102 H   0  0  0  0  0  0  0  0  0  0  0  0
    3.5871   19.8748   40.9989 H   0  0  0  0  0  0  0  0  0  0  0  0
    2.9603   21.5571   40.9379 H   0  0  0  0  0  0  0  0  0  0  0  0
  1  5  1  0
  3 19  3  0
  4  3  1  0
  5 13  1  0
  6 17  1  0
  7 12  1  0
  7  6  1  0
  8 11  2  3
  9 13  2  3
  9 20  1  0
 10 15  1  0
 11  4  1  0
 12 22  1  0
 14  2  1  0
 17 15  1  0
 17  8  1  0
 18 14  1  0
 18  5  1  0
 19  9  1  0
 20 23  1  0
 21  2  1  0
 21 16  1  0
 22 10  1  0
  1 24  1  0
  1 25  1  0
  1 26  1  0
  2 27  1  0
  2 28  1  0
  4 29  1  0
  4 30  1  0
  6 31  1  0
  6 32  1  0
  7 33  1  0
  7 34  1  0
  8 35  1  0
 10 36  1  0
 10 37  1  0
 11 38  1  0
 12 39  1  0
 12 40  1  0
 13 41  1  0
 14 42  1  0
 14 43  1  0
 15 44  1  0
 15 45  1  0
 16 46  1  0
 17 47  1  0
 18 48  1  0
 18 49  1  0
 21 50  1  0
 21 51  1  0
 22 52  1  0
 22 53  1  0
 23 54  1  0
 23 55  1  0
 23 56  1  0
M  END
>  <mol_id>  (95) 
2026-09-16-6tgu-s0-n100-0095

>  <rmsd_to_ref>  (95) 


$$$$

     RDKit          3D

 46 48  0  0  0  0  0  0  0  0999 V2000
    3.1980   18.4660   38.2660 C   0  0  1  0  0  0  0  0  0  0  0  0
    3.1090   19.6340   37.3660 O   0  0  0  0  0  0  0  0  0  0  0  0
    4.3060   19.0200   39.0050 O   0  0  0  0  0  0  0  0  0  0  0  0
    2.9940   22.9310   34.1520 C   0  0  0  0  0  0  0  0  0  0  0  0
    2.5470   17.3490   39.5520 C   0  0  1  0  0  0  0  0  0  0  0  0
    3.1870   21.8670   35.2210 C   0  0  0  0  0  0  0  0  0  0  0  0
    1.9970   14.9670   39.6280 O   0  0  0  0  0  0  0  0  0  0  0  0
    2.1380   23.9850   34.4040 C   0  0  0  0  0  0  0  0  0  0  0  0
    2.0140   16.0040   40.6170 C   0  0  1  0  0  0  0  0  0  0  0  0
    2.4460   24.8590   32.1780 C   0  0  0  0  0  0  0  0  0  0  0  0
    3.6340   22.9480   33.0090 C   0  0  0  0  0  0  0  0  0  0  0  0
    0.9960   26.8570   31.3370 C   0  0  0  0  0  0  0  0  0  0  0  0
    3.3050   23.8280   31.9660 C   0  0  0  0  0  0  0  0  0  0  0  0
    3.1360   14.2320   36.9060 N   0  0  0  0  0  0  0  0  0  0  0  0
    3.6440   15.7740   38.5960 O   0  0  0  0  0  0  0  0  0  0  0  0
    1.8670   24.9760   33.4720 C   0  0  0  0  0  0  0  0  0  0  0  0
    3.9800   14.2990   37.9420 C   0  0  0  0  0  0  0  0  0  0  0  0
    2.4270   21.5800   36.0920 C   0  0  0  0  0  0  0  0  0  0  0  0
    1.6110   20.8950   39.8870 C   0  0  0  0  0  0  0  0  0  0  0  0
    1.8420   21.2520   38.5210 C   0  0  0  0  0  0  0  0  0  0  0  0
    2.4760   20.8160   37.3670 C   0  0  0  0  0  0  0  0  0  0  0  0
    2.1640   25.9350   31.1340 C   0  0  0  0  0  0  0  0  0  0  0  0
    2.7010   15.9540   38.8530 C   0  0  1  0  0  0  0  0  0  0  0  0
    2.9300   26.0730   30.1230 O   0  0  0  0  0  0  0  0  0  0  0  0
    2.7689   17.7785   37.5222 H   0  0  0  0  0  0  0  0  0  0  0  0
    4.1318   18.9329   39.9756 H   0  0  0  0  0  0  0  0  0  0  0  0
    1.5707   17.3348   39.0454 H   0  0  0  0  0  0  0  0  0  0  0  0
    4.1299   21.3015   35.1862 H   0  0  0  0  0  0  0  0  0  0  0  0
    1.6492   24.0412   35.3878 H   0  0  0  0  0  0  0  0  0  0  0  0
    1.7052   16.0046   41.6728 H   0  0  0  0  0  0  0  0  0  0  0  0
    4.4647   22.2425   32.8602 H   0  0  0  0  0  0  0  0  0  0  0  0
    0.8209   26.9952   32.4141 H   0  0  0  0  0  0  0  0  0  0  0  0
    1.2123   27.8305   30.8728 H   0  0  0  0  0  0  0  0  0  0  0  0
    0.0993   26.4206   30.8728 H   0  0  0  0  0  0  0  0  0  0  0  0
    3.7462   23.6817   30.9691 H   0  0  0  0  0  0  0  0  0  0  0  0
    2.1698   14.1553   37.2547 H   0  0  0  0  0  0  0  0  0  0  0  0
    3.2277   15.0829   36.3329 H   0  0  0  0  0  0  0  0  0  0  0  0
    3.3608   13.4062   36.3329 H   0  0  0  0  0  0  0  0  0  0  0  0
    1.2216   25.8295   33.7268 H   0  0  0  0  0  0  0  0  0  0  0  0
    3.7851   13.4923   38.6640 H   0  0  0  0  0  0  0  0  0  0  0  0
    5.0345   14.1828   37.6514 H   0  0  0  0  0  0  0  0  0  0  0  0
    1.4231   21.9881   35.9034 H   0  0  0  0  0  0  0  0  0  0  0  0
    2.0897   21.6349   40.5453 H   0  0  0  0  0  0  0  0  0  0  0  0
    0.5288   20.8757   40.0830 H   0  0  0  0  0  0  0  0  0  0  0  0
    2.0369   19.8999   40.0830 H   0  0  0  0  0  0  0  0  0  0  0  0
    1.3405   22.2086   38.3127 H   0  0  0  0  0  0  0  0  0  0  0  0
  1  3  1  0
  2 21  1  0
  2  1  1  0
  4  8  2  0
  4  6  1  0
  5  1  1  0
  5  9  1  0
  6 18  2  3
  9  7  1  0
 10 16  2  0
 11  4  1  0
 13 10  1  0
 13 11  2  0
 14 17  1  0
 16  8  1  0
 17 15  1  0
 18 21  1  0
 20 19  1  0
 21 20  2  3
 22 12  1  0
 22 10  1  0
 23 15  1  6
 23  5  1  0
 23  7  1  0
 23  9  1  0
 24 22  2  0
  1 25  1  6
  3 26  1  0
  5 27  1  6
  6 28  1  0
  8 29  1  0
  9 30  1  1
 11 31  1  0
 12 32  1  0
 12 33  1  0
 12 34  1  0
 13 35  1  0
 14 36  1  0
 14 37  1  0
 14 38  1  0
 16 39  1  0
 17 40  1  0
 17 41  1  0
 18 42  1  0
 19 43  1  0
 19 44  1  0
 19 45  1  0
 20 46  1  0
M  CHG  1  14   1
M  END
>  <mol_id>  (96) 
2026-09-16-6tgu-s0-n100-0096

>  <rmsd_to_ref>  (96) 


$$$$

     RDKit          3D

 47 50  0  0  0  0  0  0  0  0999 V2000
    1.4332   22.1099   33.1522 C   0  0  0  0  0  0  0  0  0  0  0  0
    1.6735   18.8306   40.2400 O   0  0  0  0  0  0  0  0  0  0  0  0
    0.3614   22.1615   42.2252 N   0  0  0  0  0  0  0  0  0  0  0  0
    1.7015   21.0380   40.5648 O   0  0  0  0  0  0  0  0  0  0  0  0
    2.6741   23.2765   34.8967 C   0  0  0  0  0  0  0  0  0  0  0  0
   -0.7565   21.8485   43.0498 N   0  0  0  0  0  0  0  0  0  0  0  0
    3.3693   21.1589   36.1934 C   0  0  0  0  0  0  0  0  0  0  0  0
    1.8957   20.1324   39.5989 C   0  0  0  0  0  0  0  0  0  0  0  0
    2.8918   16.4248   37.8499 C   0  0  0  0  0  0  0  0  0  0  0  0
    0.6774   20.9218   41.5713 C   0  0  0  0  0  0  0  0  0  0  0  0
    2.0316   17.6895   39.6880 C   0  0  0  0  0  0  0  0  0  0  0  0
    2.6148   17.6440   38.4150 C   0  0  0  0  0  0  0  0  0  0  0  0
    2.8485   21.3722   37.6793 C   0  0  0  0  0  0  0  0  0  0  0  0
    1.8966   16.4793   40.4125 C   0  0  0  0  0  0  0  0  0  0  0  0
    2.5459   20.0324   38.3300 C   0  0  0  0  0  0  0  0  0  0  0  0
    2.8208   18.8912   37.7321 N   0  0  0  0  0  0  0  0  0  0  0  0
    3.8350   23.1123   32.7846 C   0  0  0  0  0  0  0  0  0  0  0  0
    2.5731   15.2489   38.4572 C   0  0  0  0  0  0  0  0  0  0  0  0
    2.9799   21.9251   33.2322 C   0  0  1  0  0  0  0  0  0  0  0  0
   -0.3485   19.9351   41.9772 C   0  0  0  0  0  0  0  0  0  0  0  0
    2.1108   15.2067   39.7492 C   0  0  0  0  0  0  0  0  0  0  0  0
    3.4291   22.0665   34.7483 C   0  0  1  0  0  0  0  0  0  0  0  0
    3.2996   23.9778   33.8192 C   0  0  0  0  0  0  0  0  0  0  0  0
   -1.1390   20.4710   42.9532 C   0  0  0  0  0  0  0  0  0  0  0  0
    1.0271   22.2437   34.1658 H   0  0  0  0  0  0  0  0  0  0  0  0
    1.2009   22.9965   32.5440 H   0  0  0  0  0  0  0  0  0  0  0  0
    0.9810   21.2197   32.6905 H   0  0  0  0  0  0  0  0  0  0  0  0
    1.5961   23.1268   34.7371 H   0  0  0  0  0  0  0  0  0  0  0  0
    2.6899   23.7591   35.8850 H   0  0  0  0  0  0  0  0  0  0  0  0
   -1.2365   22.5354   43.6486 H   0  0  0  0  0  0  0  0  0  0  0  0
    4.4276   20.9042   36.3521 H   0  0  0  0  0  0  0  0  0  0  0  0
    2.4835   20.5844   35.8849 H   0  0  0  0  0  0  0  0  0  0  0  0
    3.9800   16.4018   37.6910 H   0  0  0  0  0  0  0  0  0  0  0  0
    2.2178   16.4202   36.9806 H   0  0  0  0  0  0  0  0  0  0  0  0
    3.6217   21.8928   38.2635 H   0  0  0  0  0  0  0  0  0  0  0  0
    1.9275   21.9730   37.6526 H   0  0  0  0  0  0  0  0  0  0  0  0
    1.6289   16.5046   41.4791 H   0  0  0  0  0  0  0  0  0  0  0  0
    4.9163   22.9337   32.8790 H   0  0  0  0  0  0  0  0  0  0  0  0
    3.7820   23.4409   31.7362 H   0  0  0  0  0  0  0  0  0  0  0  0
    2.6889   14.3084   37.8985 H   0  0  0  0  0  0  0  0  0  0  0  0
    3.1210   20.9985   32.6564 H   0  0  0  0  0  0  0  0  0  0  0  0
   -0.4575   18.9245   41.5569 H   0  0  0  0  0  0  0  0  0  0  0  0
    1.9120   14.2520   40.2582 H   0  0  0  0  0  0  0  0  0  0  0  0
    4.4925   21.7854   34.7547 H   0  0  0  0  0  0  0  0  0  0  0  0
    4.1250   24.5779   34.2297 H   0  0  0  0  0  0  0  0  0  0  0  0
    2.5216   24.5954   33.3467 H   0  0  0  0  0  0  0  0  0  0  0  0
   -1.9095   19.9527   43.5429 H   0  0  0  0  0  0  0  0  0  0  0  0
  3  6  1  0
  4 10  1  0
  7 13  1  0
  8  2  1  0
  8  4  1  0
  9 18  1  0
  9 12  1  0
 10 20  1  0
 10  3  2  0
 11 14  2  0
 11  2  1  0
 12 11  1  0
 13 15  1  0
 15  8  2  0
 16 12  2  0
 16 15  1  0
 17 19  1  0
 17 23  1  0
 18 21  2  0
 19  1  1  0
 19 22  1  0
 20 24  2  0
 21 14  1  0
 22  5  1  0
 22  7  1  0
 23  5  1  0
 24  6  1  0
  1 25  1  0
  1 26  1  0
  1 27  1  0
  5 28  1  0
  5 29  1  0
  6 30  1  0
  7 31  1  0
  7 32  1  0
  9 33  1  0
  9 34  1  0
 13 35  1  0
 13 36  1  0
 14 37  1  0
 17 38  1  0
 17 39  1  0
 18 40  1  0
 19 41  1  6
 20 42  1  0
 21 43  1  0
 22 44  1  6
 23 45  1  0
 23 46  1  0
 24 47  1  0
M  END
>  <mol_id>  (97) 
2026-09-16-6tgu-s0-n100-0097

>  <rmsd_to_ref>  (97) 


$$$$

     RDKit          3D

 56 59  0  0  0  0  0  0  0  0999 V2000
    2.1494   16.7456   39.5383 O   0  0  0  0  0  0  0  0  0  0  0  0
    5.5226   23.6535   29.2249 C   0  0  0  0  0  0  0  0  0  0  0  0
    3.2143   22.4816   35.3083 S   0  0  0  0  0  0  0  0  0  0  0  0
    2.7057   15.9383   38.5320 C   0  0  1  0  0  0  0  0  0  0  0  0
    3.7138   15.0405   37.8701 C   0  0  0  0  0  0  0  0  0  0  0  0
    2.3320   18.0455   39.4181 C   0  0  0  0  0  0  0  0  0  0  0  0
    1.7294   18.6619   40.3090 C   0  0  0  0  0  0  0  0  0  0  0  0
    0.6009   22.0942   42.7109 O   0  0  0  0  0  0  0  0  0  0  0  0
    4.0929   22.9584   32.9785 C   0  0  0  0  0  0  0  0  0  0  0  0
    1.3240   15.5945   37.7371 C   0  0  0  0  0  0  0  0  0  0  0  0
    0.0137   21.2989   42.0788 C   0  0  0  0  0  0  0  0  0  0  0  0
    5.4758   23.1846   30.0322 C   0  0  1  0  0  0  0  0  0  0  0  0
   -1.4067   21.0164   42.2989 C   0  0  0  0  0  0  0  0  0  0  0  0
    2.0086   20.5773   39.1741 C   0  0  0  0  0  0  0  0  0  0  0  0
    4.6010   22.0729   34.1782 C   0  0  0  0  0  0  0  0  0  0  0  0
    2.7960   19.9567   38.3239 C   0  0  0  0  0  0  0  0  0  0  0  0
    2.8661   18.6228   38.3259 C   0  0  0  0  0  0  0  0  0  0  0  0
    5.2996   22.9711   31.6657 C   0  0  2  0  0  0  0  0  0  0  0  0
    1.4904   14.1995   37.8604 N   0  0  0  0  0  0  0  0  0  0  0  0
    3.6120   21.3086   36.4210 C   0  0  0  0  0  0  0  0  0  0  0  0
    5.0795   24.7235   29.9341 C   0  0  0  0  0  0  0  0  0  0  0  0
    4.4565   22.6690   31.7856 C   0  0  0  0  0  0  0  0  0  0  0  0
    4.6516   23.6533   30.7450 C   0  0  1  0  0  0  0  0  0  0  0  0
    0.5875   20.4734   41.2562 N   0  0  0  0  0  0  0  0  0  0  0  0
    3.4395   20.6350   37.3026 C   0  0  0  0  0  0  0  0  0  0  0  0
    1.5615   20.0024   40.2909 C   0  0  0  0  0  0  0  0  0  0  0  0
    2.8772   13.8983   37.4382 C   0  0  0  0  0  0  0  0  0  0  0  0
    4.8372   23.2991   28.4410 H   0  0  0  0  0  0  0  0  0  0  0  0
    6.4345   23.6862   28.6106 H   0  0  0  0  0  0  0  0  0  0  0  0
    3.6697   16.3310   38.8877 H   0  0  0  0  0  0  0  0  0  0  0  0
    4.1863   15.5370   37.0096 H   0  0  0  0  0  0  0  0  0  0  0  0
    4.5487   14.7538   38.5264 H   0  0  0  0  0  0  0  0  0  0  0  0
    1.3126   18.0918   41.1523 H   0  0  0  0  0  0  0  0  0  0  0  0
    2.9937   22.9217   32.9962 H   0  0  0  0  0  0  0  0  0  0  0  0
    4.5608   23.9369   33.1621 H   0  0  0  0  0  0  0  0  0  0  0  0
    1.3260   15.9412   36.6932 H   0  0  0  0  0  0  0  0  0  0  0  0
    0.3872   16.0430   38.0996 H   0  0  0  0  0  0  0  0  0  0  0  0
    6.1140   22.5324   29.4180 H   0  0  0  0  0  0  0  0  0  0  0  0
   -1.6117   20.9875   43.3792 H   0  0  0  0  0  0  0  0  0  0  0  0
   -2.0143   21.8053   41.8315 H   0  0  0  0  0  0  0  0  0  0  0  0
   -1.6609   20.0443   41.8514 H   0  0  0  0  0  0  0  0  0  0  0  0
    1.7066   21.6122   38.9554 H   0  0  0  0  0  0  0  0  0  0  0  0
    4.6458   21.0025   33.9286 H   0  0  0  0  0  0  0  0  0  0  0  0
    5.6214   22.2580   34.5447 H   0  0  0  0  0  0  0  0  0  0  0  0
    3.3205   18.0465   37.5066 H   0  0  0  0  0  0  0  0  0  0  0  0
    6.0035   22.8042   32.4944 H   0  0  0  0  0  0  0  0  0  0  0  0
    1.3460   13.9097   38.8382 H   0  0  0  0  0  0  0  0  0  0  0  0
    0.8075   13.6918   37.2800 H   0  0  0  0  0  0  0  0  0  0  0  0
    5.8491   25.3848   30.3587 H   0  0  0  0  0  0  0  0  0  0  0  0
    4.4532   25.5438   29.5535 H   0  0  0  0  0  0  0  0  0  0  0  0
    3.7818   23.1520   31.0633 H   0  0  0  0  0  0  0  0  0  0  0  0
    4.4175   21.5807   31.6303 H   0  0  0  0  0  0  0  0  0  0  0  0
    3.6088   23.7609   31.0785 H   0  0  0  0  0  0  0  0  0  0  0  0
   -0.0232   19.6484   41.3425 H   0  0  0  0  0  0  0  0  0  0  0  0
    2.9243   13.7865   36.3449 H   0  0  0  0  0  0  0  0  0  0  0  0
    3.2309   12.9583   37.8868 H   0  0  0  0  0  0  0  0  0  0  0  0
  2 21  1  0
  3 20  1  0
  4  1  1  0
  5  4  1  0
  6  1  1  0
  6  7  2  0
  9 15  1  0
 10 19  1  0
 10  4  1  0
 11 13  1  0
 11  8  2  0
 12  2  1  0
 12 23  1  0
 12 18  1  0
 14 26  2  0
 15  3  1  0
 16 14  1  0
 17 16  2  0
 17  6  1  0
 18 22  1  0
 20 25  3  0
 22  9  1  0
 23 21  1  0
 23 18  1  0
 24 11  1  0
 25 16  1  0
 26  7  1  0
 26 24  1  0
 27  5  1  0
 27 19  1  0
  2 28  1  0
  2 29  1  0
  4 30  1  6
  5 31  1  0
  5 32  1  0
  7 33  1  0
  9 34  1  0
  9 35  1  0
 10 36  1  0
 10 37  1  0
 12 38  1  6
 13 39  1  0
 13 40  1  0
 13 41  1  0
 14 42  1  0
 15 43  1  0
 15 44  1  0
 17 45  1  0
 18 46  1  1
 19 47  1  0
 19 48  1  0
 21 49  1  0
 21 50  1  0
 22 51  1  0
 22 52  1  0
 23 53  1  6
 24 54  1  0
 27 55  1  0
 27 56  1  0
M  CHG  1  19   1
M  END
>  <mol_id>  (98) 
2026-09-16-6tgu-s0-n100-0099

>  <rmsd_to_ref>  (98) 


$$$$

     RDKit          3D

 53 54  0  0  0  0  0  0  0  0999 V2000
    1.8090   15.0310   40.7000 O   0  0  0  0  0  0  0  0  0  0  0  0
    2.8440   24.7700   31.8970 C   0  0  0  0  0  0  0  0  0  0  0  0
    2.9350   21.9220   34.4770 C   0  0  0  0  0  0  0  0  0  0  0  0
    3.9870   19.4000   38.7200 C   0  0  0  0  0  0  0  0  0  0  0  0
    1.9020   24.7290   34.2500 C   0  0  0  0  0  0  0  0  0  0  0  0
    3.5660   23.0330   33.6410 C   0  0  0  0  0  0  0  0  0  0  0  0
    2.6010   16.7790   39.5910 N   0  0  0  0  0  0  0  0  0  0  0  0
    3.0910   21.0800   36.8940 C   0  0  0  0  0  0  0  0  0  0  0  0
    1.4960   26.1970   33.9650 C   0  0  0  0  0  0  0  0  0  0  0  0
    2.2910   20.2800   40.3780 N   0  0  0  0  0  0  0  0  0  0  0  0
    0.9920   26.4520   32.4570 C   0  0  0  0  0  0  0  0  0  0  0  0
    1.3430   19.8760   41.3220 C   0  0  0  0  0  0  0  0  0  0  0  0
    1.1560   18.5040   41.2850 C   0  0  0  0  0  0  0  0  0  0  0  0
    2.8780   19.1490   39.7360 C   0  0  0  0  0  0  0  0  0  0  0  0
    3.2200   14.6400   39.2550 O   0  0  0  0  0  0  0  0  0  0  0  0
    2.4910   15.4600   39.9750 C   0  0  0  0  0  0  0  0  0  0  0  0
    3.4350   18.7340   36.5140 O   0  0  0  0  0  0  0  0  0  0  0  0
    2.5150   23.9090   33.1110 C   0  0  2  0  0  0  0  0  0  0  0  0
    1.4890   25.6570   30.0540 C   0  0  0  0  0  0  0  0  0  0  0  0
    0.2330   17.7040   41.9940 C   0  0  0  0  0  0  0  0  0  0  0  0
    3.5250   19.7000   37.3240 C   0  0  0  0  0  0  0  0  0  0  0  0
    3.6070   21.5790   35.6530 C   0  0  0  0  0  0  0  0  0  0  0  0
    2.2370   18.0260   40.1560 C   0  0  0  0  0  0  0  0  0  0  0  0
    1.7620   25.7160   31.4480 C   0  0  2  0  0  0  0  0  0  0  0  0
    3.7349   25.3679   32.1395 H   0  0  0  0  0  0  0  0  0  0  0  0
    2.9883   24.0664   31.0638 H   0  0  0  0  0  0  0  0  0  0  0  0
    2.8763   21.0210   33.8487 H   0  0  0  0  0  0  0  0  0  0  0  0
    1.9586   22.3133   34.7987 H   0  0  0  0  0  0  0  0  0  0  0  0
    4.5823   20.2555   39.0717 H   0  0  0  0  0  0  0  0  0  0  0  0
    4.5572   18.4615   38.6555 H   0  0  0  0  0  0  0  0  0  0  0  0
    2.6361   24.7477   35.0690 H   0  0  0  0  0  0  0  0  0  0  0  0
    0.9500   24.2221   34.4664 H   0  0  0  0  0  0  0  0  0  0  0  0
    4.2497   23.6213   34.2706 H   0  0  0  0  0  0  0  0  0  0  0  0
    4.1256   22.5877   32.8052 H   0  0  0  0  0  0  0  0  0  0  0  0
    3.0571   16.8830   38.6734 H   0  0  0  0  0  0  0  0  0  0  0  0
    1.9939   21.0707   36.8148 H   0  0  0  0  0  0  0  0  0  0  0  0
    3.5016   21.7544   37.6599 H   0  0  0  0  0  0  0  0  0  0  0  0
    0.6831   26.4717   34.6533 H   0  0  0  0  0  0  0  0  0  0  0  0
    2.3966   26.8118   34.1096 H   0  0  0  0  0  0  0  0  0  0  0  0
   -0.0610   26.1421   32.3852 H   0  0  0  0  0  0  0  0  0  0  0  0
    1.1279   27.5234   32.2483 H   0  0  0  0  0  0  0  0  0  0  0  0
    1.6895   20.1645   42.3254 H   0  0  0  0  0  0  0  0  0  0  0  0
    0.3861   20.3656   41.0880 H   0  0  0  0  0  0  0  0  0  0  0  0
    1.7787   23.2123   32.6839 H   0  0  0  0  0  0  0  0  0  0  0  0
    0.4247   25.4270   29.8982 H   0  0  0  0  0  0  0  0  0  0  0  0
    1.7258   26.6271   29.5926 H   0  0  0  0  0  0  0  0  0  0  0  0
    2.1053   24.8713   29.5926 H   0  0  0  0  0  0  0  0  0  0  0  0
    0.3868   17.8373   43.0750 H   0  0  0  0  0  0  0  0  0  0  0  0
   -0.7916   18.0045   41.7296 H   0  0  0  0  0  0  0  0  0  0  0  0
    0.3849   16.6471   41.7296 H   0  0  0  0  0  0  0  0  0  0  0  0
    4.3313   20.8143   35.3358 H   0  0  0  0  0  0  0  0  0  0  0  0
    3.8403   22.5994   35.9912 H   0  0  0  0  0  0  0  0  0  0  0  0
    1.7505   26.8154   31.4128 H   0  0  0  0  0  0  0  0  0  0  0  0
  2 18  1  0
  3 22  1  0
  4 14  1  0
  6  3  1  0
  7 16  1  0
  7 23  1  0
  8 21  1  0
  9  5  1  0
 10 12  1  0
 11  9  1  0
 13 12  1  0
 13 20  1  0
 14 23  1  0
 14 10  2  0
 15 16  2  0
 16  1  1  0
 17 21  2  0
 18  6  1  0
 18  5  1  0
 21  4  1  0
 22  8  1  0
 23 13  2  0
 24 19  1  0
 24  2  1  0
 24 11  1  0
  2 25  1  0
  2 26  1  0
  3 27  1  0
  3 28  1  0
  4 29  1  0
  4 30  1  0
  5 31  1  0
  5 32  1  0
  6 33  1  0
  6 34  1  0
  7 35  1  0
  8 36  1  0
  8 37  1  0
  9 38  1  0
  9 39  1  0
 11 40  1  0
 11 41  1  0
 12 42  1  0
 12 43  1  0
 18 44  1  6
 19 45  1  0
 19 46  1  0
 19 47  1  0
 20 48  1  0
 20 49  1  0
 20 50  1  0
 22 51  1  0
 22 52  1  0
 24 53  1  6
M  CHG  1   1  -1
M  END
>  <mol_id>  (99) 
2026-09-16-6tgu-s0-n100-0100

>  <rmsd_to_ref>  (99) 


$$$$
