
     RDKit          3D

 67 70  0  0  0  0  0  0  0  0999 V2000
    3.1000   19.4580   38.6490 C   0  0  2  0  0  0  0  0  0  0  0  0
    2.9670   16.5460   38.4680 C   0  0  0  0  0  0  0  0  0  0  0  0
    3.3080   24.4390   30.2700 C   0  0  0  0  0  0  0  0  0  0  0  0
    2.4040   14.1480   40.9230 C   0  0  0  0  0  0  0  0  0  0  0  0
    2.8780   20.2820   37.4380 C   0  0  0  0  0  0  0  0  0  0  0  0
    2.2550   19.5490   39.8700 C   0  0  0  0  0  0  0  0  0  0  0  0
    2.1930   16.4420   39.8650 N   0  0  0  0  0  0  0  0  0  0  0  0
    4.7500   24.4480   28.1910 C   0  0  0  0  0  0  0  0  0  0  0  0
    1.4800   16.5560   42.0440 O   0  0  0  0  0  0  0  0  0  0  0  0
    2.4670   25.8000   32.2600 C   0  0  0  0  0  0  0  0  0  0  0  0
    3.2800   24.5980   31.6920 C   0  0  1  0  0  0  0  0  0  0  0  0
    1.5890   15.0200   39.9320 C   0  0  0  0  0  0  0  0  0  0  0  0
    2.2550   25.1900   29.4490 C   0  0  0  0  0  0  0  0  0  0  0  0
    2.0310   25.1790   33.6060 C   0  0  0  0  0  0  0  0  0  0  0  0
    2.6890   22.8030   34.5980 C   0  0  0  0  0  0  0  0  0  0  0  0
    2.9290   21.8830   35.4420 C   0  0  0  0  0  0  0  0  0  0  0  0
   -0.7370   20.6210   43.3330 S   0  0  0  0  0  0  0  0  0  0  0  0
    0.6600   19.1780   41.9110 C   0  0  0  0  0  0  0  0  0  0  0  0
    4.2290   17.3380   38.0180 C   0  0  0  0  0  0  0  0  0  0  0  0
    0.1210   18.3750   42.8550 N   0  0  0  0  0  0  0  0  0  0  0  0
    2.3100   24.8350   28.0640 C   0  0  0  0  0  0  0  0  0  0  0  0
    0.3040   20.5690   42.0100 C   0  0  0  0  0  0  0  0  0  0  0  0
   -1.4290   18.4690   44.8980 N   0  0  0  0  0  0  0  0  0  0  0  0
    4.4330   18.7410   38.5940 C   0  0  0  0  0  0  0  0  0  0  0  0
    1.8040   17.2520   40.9600 C   0  0  0  0  0  0  0  0  0  0  0  0
    3.5310   23.5520   32.6260 N   0  0  0  0  0  0  0  0  0  0  0  0
    2.8700   20.9180   36.5310 C   0  0  0  0  0  0  0  0  0  0  0  0
    4.6230   24.7740   29.6460 C   0  0  0  0  0  0  0  0  0  0  0  0
    1.6680   18.7030   40.8240 C   0  0  0  0  0  0  0  0  0  0  0  0
   -0.6890   18.9860   43.7590 C   0  0  0  0  0  0  0  0  0  0  0  0
    2.7460   23.8320   34.0640 C   0  0  1  0  0  0  0  0  0  0  0  0
    3.5890   24.9340   27.3480 C   0  0  0  0  0  0  0  0  0  0  0  0
    2.2866   18.7362   38.8144 H   0  0  0  0  0  0  0  0  0  0  0  0
    3.2277   15.5014   38.2425 H   0  0  0  0  0  0  0  0  0  0  0  0
    2.2343   17.2027   37.9762 H   0  0  0  0  0  0  0  0  0  0  0  0
    3.0820   23.3637   30.2180 H   0  0  0  0  0  0  0  0  0  0  0  0
    2.1443   14.4259   41.9551 H   0  0  0  0  0  0  0  0  0  0  0  0
    2.1666   13.0866   40.7583 H   0  0  0  0  0  0  0  0  0  0  0  0
    3.4790   14.3132   40.7583 H   0  0  0  0  0  0  0  0  0  0  0  0
    2.0179   20.5997   40.0933 H   0  0  0  0  0  0  0  0  0  0  0  0
    5.6718   24.9129   27.8114 H   0  0  0  0  0  0  0  0  0  0  0  0
    4.7651   23.3511   28.1104 H   0  0  0  0  0  0  0  0  0  0  0  0
    1.6060   26.0534   31.6241 H   0  0  0  0  0  0  0  0  0  0  0  0
    3.0149   26.7511   32.3321 H   0  0  0  0  0  0  0  0  0  0  0  0
    4.3493   24.8408   31.6051 H   0  0  0  0  0  0  0  0  0  0  0  0
    0.5453   15.0825   40.2739 H   0  0  0  0  0  0  0  0  0  0  0  0
    1.6252   14.5630   38.9321 H   0  0  0  0  0  0  0  0  0  0  0  0
    1.2567   24.9446   29.8403 H   0  0  0  0  0  0  0  0  0  0  0  0
    2.4588   26.2676   29.5346 H   0  0  0  0  0  0  0  0  0  0  0  0
    2.2124   25.9302   34.3888 H   0  0  0  0  0  0  0  0  0  0  0  0
    0.9781   24.8984   33.4554 H   0  0  0  0  0  0  0  0  0  0  0  0
    5.1087   16.7385   38.2948 H   0  0  0  0  0  0  0  0  0  0  0  0
    4.0852   17.4992   36.9394 H   0  0  0  0  0  0  0  0  0  0  0  0
    1.9791   23.7888   27.9872 H   0  0  0  0  0  0  0  0  0  0  0  0
    1.6780   25.5911   27.5753 H   0  0  0  0  0  0  0  0  0  0  0  0
    0.6341   21.4020   41.3719 H   0  0  0  0  0  0  0  0  0  0  0  0
   -1.3797   17.4673   45.1325 H   0  0  0  0  0  0  0  0  0  0  0  0
   -2.0028   19.1043   45.4707 H   0  0  0  0  0  0  0  0  0  0  0  0
    4.8513   18.6645   39.6085 H   0  0  0  0  0  0  0  0  0  0  0  0
    5.1285   19.3044   37.9545 H   0  0  0  0  0  0  0  0  0  0  0  0
    3.1997   22.6608   32.2299 H   0  0  0  0  0  0  0  0  0  0  0  0
    4.5439   23.5129   32.8087 H   0  0  0  0  0  0  0  0  0  0  0  0
    5.4049   24.2203   30.1864 H   0  0  0  0  0  0  0  0  0  0  0  0
    4.7210   25.8672   29.7191 H   0  0  0  0  0  0  0  0  0  0  0  0
    2.7853   24.1496   35.1164 H   0  0  0  0  0  0  0  0  0  0  0  0
    3.5330   24.3234   26.4348 H   0  0  0  0  0  0  0  0  0  0  0  0
    3.7631   25.9933   27.1081 H   0  0  0  0  0  0  0  0  0  0  0  0
  1  5  1  0
  1  6  1  0
  2  7  1  0
  6 29  2  0
  7 12  1  0
  7 25  1  0
  8 28  1  0
 10 14  1  0
 11  3  1  0
 11 10  1  0
 11 26  1  0
 12  4  1  0
 13  3  1  0
 14 31  1  0
 15 16  3  0
 16 27  1  0
 17 30  1  0
 18 22  2  0
 18 20  1  0
 19  2  1  0
 19 24  1  0
 20 30  2  0
 21 13  1  0
 22 17  1  0
 24  1  1  0
 25  9  2  0
 26 31  1  0
 27  5  3  0
 28  3  1  0
 29 25  1  0
 29 18  1  0
 30 23  1  0
 31 15  1  0
 32 21  1  0
 32  8  1  0
  1 33  1  6
  2 34  1  0
  2 35  1  0
  3 36  1  0
  4 37  1  0
  4 38  1  0
  4 39  1  0
  6 40  1  0
  8 41  1  0
  8 42  1  0
 10 43  1  0
 10 44  1  0
 11 45  1  6
 12 46  1  0
 12 47  1  0
 13 48  1  0
 13 49  1  0
 14 50  1  0
 14 51  1  0
 19 52  1  0
 19 53  1  0
 21 54  1  0
 21 55  1  0
 22 56  1  0
 23 57  1  0
 23 58  1  0
 24 59  1  0
 24 60  1  0
 26 61  1  0
 26 62  1  0
 28 63  1  0
 28 64  1  0
 31 65  1  1
 32 66  1  0
 32 67  1  0
M  CHG  1  26   1
M  END
>  <mol_id>  (1) 
2026-09-18-3war-s0-n100-0001

>  <rmsd_to_ref>  (1) 


$$$$

     RDKit          3D

 61 62  0  0  0  0  0  0  0  0999 V2000
    5.4313   23.4855   33.1439 O   0  0  0  0  0  0  0  0  0  0  0  0
    3.3414   23.5126   32.4699 C   0  0  0  0  0  0  0  0  0  0  0  0
    0.0579   25.8456   30.7163 C   0  0  0  0  0  0  0  0  0  0  0  0
    3.8817   22.1637   34.5250 C   0  0  1  0  0  0  0  0  0  0  0  0
    5.1719   23.9747   30.1702 C   0  0  0  0  0  0  0  0  0  0  0  0
    1.3705   25.3483   30.4906 C   0  0  2  0  0  0  0  0  0  0  0  0
    3.8515   17.0972   38.4736 C   0  0  0  0  0  0  0  0  0  0  0  0
    1.0327   25.5803   31.4179 C   0  0  0  0  0  0  0  0  0  0  0  0
    2.2226   21.3220   39.0636 C   0  0  0  0  0  0  0  0  0  0  0  0
    4.2939   22.6844   33.2283 C   0  0  2  0  0  0  0  0  0  0  0  0
    4.2664   23.8471   28.8139 S   0  0  0  0  0  0  0  0  0  0  0  0
    3.3928   19.2090   39.0051 C   0  0  1  0  0  0  0  0  0  0  0  0
    1.2484   24.8907   29.1196 N   0  0  0  0  0  0  0  0  0  0  0  0
    3.0643   20.4136   41.0017 F   0  0  0  0  0  0  0  0  0  0  0  0
    1.6995   15.2062   40.2468 O   0  0  0  0  0  0  0  0  0  0  0  0
    3.9950   14.6839   41.1417 O   0  0  0  0  0  0  0  0  0  0  0  0
    4.1256   24.3417   31.3386 O   0  0  0  0  0  0  0  0  0  0  0  0
    3.6431   15.7377   38.7494 N   0  0  0  0  0  0  0  0  0  0  0  0
    3.1372   15.6400   40.3317 S   0  0  0  0  0  6  0  0  0  0  0  0
    3.7944   19.3162   37.6574 C   0  0  0  0  0  0  0  0  0  0  0  0
    0.1325   25.4349   28.5421 C   0  0  0  0  0  0  0  0  0  0  0  0
    3.0054   24.8535   30.5697 C   0  0  1  0  0  0  0  0  0  0  0  0
    2.4299   22.3740   34.8771 C   0  0  0  0  0  0  0  0  0  0  0  0
    1.9378   22.0021   38.1934 F   0  0  0  0  0  0  0  0  0  0  0  0
    4.3954   17.9040   37.0688 S   0  0  0  0  0  0  0  0  0  0  0  0
    2.5593   23.7482   29.3217 C   0  0  2  0  0  0  0  0  0  0  0  0
    3.6484   18.0360   39.5440 N   0  0  0  0  0  0  0  0  0  0  0  0
    3.2744   17.3359   40.8247 C   0  0  0  0  0  0  0  0  0  0  0  0
    2.7799   20.3644   39.6982 C   0  0  1  0  0  0  0  0  0  0  0  0
    4.5089   21.1114   34.9503 O   0  0  0  0  0  0  0  0  0  0  0  0
    5.7476   23.7066   34.0555 H   0  0  0  0  0  0  0  0  0  0  0  0
    2.5913   22.8640   31.9939 H   0  0  0  0  0  0  0  0  0  0  0  0
    2.8423   24.2136   33.1550 H   0  0  0  0  0  0  0  0  0  0  0  0
   -0.7957   26.1079   31.3587 H   0  0  0  0  0  0  0  0  0  0  0  0
    0.2983   26.6956   30.0609 H   0  0  0  0  0  0  0  0  0  0  0  0
   -0.2008   24.9706   30.1020 H   0  0  0  0  0  0  0  0  0  0  0  0
    4.3163   22.8624   35.2550 H   0  0  0  0  0  0  0  0  0  0  0  0
    4.5203   23.9076   31.0538 H   0  0  0  0  0  0  0  0  0  0  0  0
    5.9101   23.1596   30.1962 H   0  0  0  0  0  0  0  0  0  0  0  0
    5.6944   24.9427   30.1726 H   0  0  0  0  0  0  0  0  0  0  0  0
    0.4687   25.9777   30.4643 H   0  0  0  0  0  0  0  0  0  0  0  0
    1.5214   26.4258   31.9241 H   0  0  0  0  0  0  0  0  0  0  0  0
    1.0456   24.9276   32.3033 H   0  0  0  0  0  0  0  0  0  0  0  0
    1.1921   21.0629   39.3480 H   0  0  0  0  0  0  0  0  0  0  0  0
    3.1990   21.8286   39.0732 H   0  0  0  0  0  0  0  0  0  0  0  0
    4.4414   21.6734   32.8207 H   0  0  0  0  0  0  0  0  0  0  0  0
    2.3936   18.8559   38.7102 H   0  0  0  0  0  0  0  0  0  0  0  0
    2.9243   19.6096   37.0517 H   0  0  0  0  0  0  0  0  0  0  0  0
    4.5945   20.0693   37.6045 H   0  0  0  0  0  0  0  0  0  0  0  0
   -0.5461   25.7991   29.3275 H   0  0  0  0  0  0  0  0  0  0  0  0
    0.4270   26.2735   27.8940 H   0  0  0  0  0  0  0  0  0  0  0  0
   -0.3797   24.6691   27.9410 H   0  0  0  0  0  0  0  0  0  0  0  0
    3.5685   25.7478   30.8746 H   0  0  0  0  0  0  0  0  0  0  0  0
    2.3195   22.4114   35.9709 H   0  0  0  0  0  0  0  0  0  0  0  0
    2.0803   23.3214   34.4408 H   0  0  0  0  0  0  0  0  0  0  0  0
    1.8313   21.5428   34.4763 H   0  0  0  0  0  0  0  0  0  0  0  0
    2.2084   22.7344   29.0788 H   0  0  0  0  0  0  0  0  0  0  0  0
    2.3173   17.7121   41.2152 H   0  0  0  0  0  0  0  0  0  0  0  0
    4.0046   17.4932   41.6321 H   0  0  0  0  0  0  0  0  0  0  0  0
    1.6823   20.3284   39.6347 H   0  0  0  0  0  0  0  0  0  0  0  0
    4.5377   21.1218   35.9399 H   0  0  0  0  0  0  0  0  0  0  0  0
  2 10  1  0
  3  8  1  0
  4 23  1  0
  4 30  1  0
  6 22  1  0
  6  8  1  0
  7 18  2  0
  7 27  1  0
  9 29  1  0
 10  1  1  0
 10  4  1  0
 11  5  1  0
 12 27  1  0
 12 29  1  0
 13 26  1  0
 13  6  1  0
 15 19  2  0
 17  2  1  0
 18 19  1  0
 19 28  1  0
 19 16  2  0
 20 12  1  0
 21 13  1  0
 22 17  1  0
 24  9  1  0
 25 20  1  0
 25  7  1  0
 26 11  1  0
 26 22  1  0
 27 28  1  0
 29 14  1  0
  1 31  1  0
  2 32  1  0
  2 33  1  0
  3 34  1  0
  3 35  1  0
  3 36  1  0
  4 37  1  1
  5 38  1  0
  5 39  1  0
  5 40  1  0
  6 41  1  6
  8 42  1  0
  8 43  1  0
  9 44  1  0
  9 45  1  0
 10 46  1  6
 12 47  1  6
 20 48  1  0
 20 49  1  0
 21 50  1  0
 21 51  1  0
 21 52  1  0
 22 53  1  6
 23 54  1  0
 23 55  1  0
 23 56  1  0
 26 57  1  1
 28 58  1  0
 28 59  1  0
 29 60  1  1
 30 61  1  0
M  END
>  <mol_id>  (2) 
2026-09-18-3war-s0-n100-0002

>  <rmsd_to_ref>  (2) 


$$$$

     RDKit          3D

 28 29  0  0  0  0  0  0  0  0999 V2000
    3.4589   23.3215   33.8589 C   0  0  0  0  0  0  0  0  0  0  0  0
    3.2494   24.7785   31.4338 C   0  0  0  0  0  0  0  0  0  0  0  0
    2.4763   20.7443   38.6431 C   0  0  0  0  0  0  0  0  0  0  0  0
    2.9025   18.6832   37.8347 N   0  0  0  0  0  0  0  0  0  0  0  0
    3.4844   21.3529   35.3441 C   0  0  0  0  0  0  0  0  0  0  0  0
    2.2780   17.0701   40.0042 Cl  0  0  0  0  0  0  0  0  0  0  0  0
    2.4697   18.5854   39.1526 C   0  0  0  0  0  0  0  0  0  0  0  0
    4.0671   22.7456   32.7492 C   0  0  1  0  0  0  0  0  0  0  0  0
    2.2091   19.7957   39.6438 C   0  0  0  0  0  0  0  0  0  0  0  0
    2.3258   25.8061   31.7029 C   0  0  0  0  0  0  0  0  0  0  0  0
    3.2751   20.6186   36.1804 C   0  0  0  0  0  0  0  0  0  0  0  0
    4.2321   23.9934   31.7240 N   0  0  0  0  0  0  0  0  0  0  0  0
    1.8289   20.0883   41.2761 Cl  0  0  0  0  0  0  0  0  0  0  0  0
    2.8191   20.0781   37.5114 C   0  0  0  0  0  0  0  0  0  0  0  0
    4.1351   21.7602   34.0856 C   0  0  1  0  0  0  0  0  0  0  0  0
    2.3658   23.4432   33.8726 H   0  0  0  0  0  0  0  0  0  0  0  0
    3.5876   24.2833   34.3770 H   0  0  0  0  0  0  0  0  0  0  0  0
    2.5205   23.9997   31.1649 H   0  0  0  0  0  0  0  0  0  0  0  0
    3.9910   25.5582   31.2054 H   0  0  0  0  0  0  0  0  0  0  0  0
    2.4180   21.8368   38.7568 H   0  0  0  0  0  0  0  0  0  0  0  0
    2.8792   22.2303   35.6156 H   0  0  0  0  0  0  0  0  0  0  0  0
    4.3435   22.1927   31.8393 H   0  0  0  0  0  0  0  0  0  0  0  0
    2.2402   25.9466   32.7905 H   0  0  0  0  0  0  0  0  0  0  0  0
    2.6720   26.7412   31.2384 H   0  0  0  0  0  0  0  0  0  0  0  0
    1.3434   25.5334   31.2900 H   0  0  0  0  0  0  0  0  0  0  0  0
    4.5526   23.5918   30.8314 H   0  0  0  0  0  0  0  0  0  0  0  0
    4.8600   24.6200   32.2475 H   0  0  0  0  0  0  0  0  0  0  0  0
    4.7738   20.8666   34.1458 H   0  0  0  0  0  0  0  0  0  0  0  0
  1 15  1  0
  2 10  1  0
  2 12  1  0
  3  9  2  0
  4  7  2  0
  5 11  2  0
  7  9  1  0
  7  6  1  0
  8 12  1  0
  8  1  1  0
  8 15  1  0
  9 13  1  0
 11 14  2  0
 14  4  1  0
 14  3  1  0
 15  5  1  0
  1 16  1  0
  1 17  1  0
  2 18  1  0
  2 19  1  0
  3 20  1  0
  5 21  1  0
  8 22  1  6
 10 23  1  0
 10 24  1  0
 10 25  1  0
 12 26  1  0
 12 27  1  0
 15 28  1  1
M  CHG  1  12   1
M  END
>  <mol_id>  (3) 
2026-09-18-3war-s0-n100-0003

>  <rmsd_to_ref>  (3) 


$$$$

     RDKit          3D

 76 76  0  0  0  0  0  0  0  0999 V2000
    3.5416   22.4730   34.7085 C   0  0  0  0  0  0  0  0  0  0  0  0
    3.5021   18.3231   38.4657 C   0  0  0  0  0  0  0  0  0  0  0  0
    2.8547   18.7468   40.7626 F   0  0  0  0  0  0  0  0  0  0  0  0
    4.5072   12.5870   39.5461 S   0  0  0  0  0  0  0  0  0  0  0  0
    2.9034   16.1272   38.8024 N   0  0  0  0  0  0  0  0  0  0  0  0
    3.7493   17.0096   38.6801 O   0  0  0  0  0  0  0  0  0  0  0  0
    2.0061   29.5761   32.1369 C   0  0  0  0  0  0  0  0  0  0  0  0
    2.9706   26.8376   33.1111 C   0  0  1  0  0  0  0  0  0  0  0  0
    4.9372   29.6132   32.4168 C   0  0  0  0  0  0  0  0  0  0  0  0
    3.0042   14.7792   38.5872 C   0  0  0  0  0  0  0  0  0  0  0  0
    2.3192   20.3172   39.3117 C   0  0  0  0  0  0  0  0  0  0  0  0
    2.8898   27.1906   31.6941 C   0  0  2  0  0  0  0  0  0  0  0  0
    2.7290   14.1747   35.1797 N   0  0  0  0  0  0  0  0  0  0  0  0
    2.3436   27.2283   35.2345 O   0  0  0  0  0  0  0  0  0  0  0  0
    3.7730   13.8121   36.0448 C   0  0  2  0  0  0  0  0  0  0  0  0
    2.5446   25.5999   33.5583 C   0  0  1  0  0  0  0  0  0  0  0  0
    4.7828   26.5689   35.0201 O   0  0  0  0  0  0  0  0  0  0  0  0
    2.4912   30.4383   32.4849 O   0  0  0  0  0  0  0  0  0  0  0  0
    2.8960   24.9786   34.5683 C   0  0  0  0  0  0  0  0  0  0  0  0
    3.4349   26.7885   34.6414 S   0  0  0  0  0  6  0  0  0  0  0  0
    3.9826   14.6602   37.2664 C   0  0  0  0  0  0  0  0  0  0  0  0
    3.3320   19.2970   39.6553 C   0  0  2  0  0  0  0  0  0  0  0  0
    2.5565   21.0151   37.9594 C   0  0  0  0  0  0  0  0  0  0  0  0
    4.6919   12.7337   35.5977 C   0  0  0  0  0  0  0  0  0  0  0  0
    3.6106   20.3639   37.1825 C   0  0  0  0  0  0  0  0  0  0  0  0
    5.6702   27.6643   31.4869 C   0  0  0  0  0  0  0  0  0  0  0  0
    4.2838   21.7187   34.1979 O   0  0  0  0  0  0  0  0  0  0  0  0
    4.6278   28.3732   31.9486 C   0  0  0  0  0  0  0  0  0  0  0  0
    3.6965   18.9411   37.2378 C   0  0  0  0  0  0  0  0  0  0  0  0
    3.4651   13.8843   39.7067 C   0  0  0  0  0  0  0  0  0  0  0  0
    2.3504   22.1300   35.2529 N   0  0  0  0  0  0  0  0  0  0  0  0
    4.7682   30.8563   31.8076 O   0  0  0  0  0  0  0  0  0  0  0  0
    3.8323   23.9469   34.9129 C   0  0  0  0  0  0  0  0  0  0  0  0
    3.1530   28.0935   32.1241 C   0  0  1  0  0  0  0  0  0  0  0  0
    2.7061   26.7556   30.1857 C   0  0  0  0  0  0  0  0  0  0  0  0
    4.7871   12.0702   40.7836 H   0  0  0  0  0  0  0  0  0  0  0  0
    1.1502   29.3593   32.7930 H   0  0  0  0  0  0  0  0  0  0  0  0
    1.6741   29.7621   31.1048 H   0  0  0  0  0  0  0  0  0  0  0  0
    3.0767   27.8344   32.6582 H   0  0  0  0  0  0  0  0  0  0  0  0
    4.3774   29.6948   33.3602 H   0  0  0  0  0  0  0  0  0  0  0  0
    6.0306   29.5437   32.3188 H   0  0  0  0  0  0  0  0  0  0  0  0
    1.3345   19.8278   39.2787 H   0  0  0  0  0  0  0  0  0  0  0  0
    2.3830   21.0974   40.0844 H   0  0  0  0  0  0  0  0  0  0  0  0
    3.9779   27.0592   31.5993 H   0  0  0  0  0  0  0  0  0  0  0  0
    1.8916   14.4091   35.7316 H   0  0  0  0  0  0  0  0  0  0  0  0
    3.0132   14.9932   34.6227 H   0  0  0  0  0  0  0  0  0  0  0  0
    2.5160   13.3880   34.5500 H   0  0  0  0  0  0  0  0  0  0  0  0
    3.6642   13.0645   36.8442 H   0  0  0  0  0  0  0  0  0  0  0  0
    1.9035   24.9809   32.9135 H   0  0  0  0  0  0  0  0  0  0  0  0
    2.4334   30.4736   33.4725 H   0  0  0  0  0  0  0  0  0  0  0  0
    3.1955   25.7931   35.2442 H   0  0  0  0  0  0  0  0  0  0  0  0
    2.0454   24.2829   34.5181 H   0  0  0  0  0  0  0  0  0  0  0  0
    4.9561   14.3402   37.6664 H   0  0  0  0  0  0  0  0  0  0  0  0
    3.7913   15.6484   36.8228 H   0  0  0  0  0  0  0  0  0  0  0  0
    4.3467   19.6816   39.8355 H   0  0  0  0  0  0  0  0  0  0  0  0
    1.6222   20.9918   37.3793 H   0  0  0  0  0  0  0  0  0  0  0  0
    2.8741   22.0486   38.1623 H   0  0  0  0  0  0  0  0  0  0  0  0
    5.0535   12.1738   36.4728 H   0  0  0  0  0  0  0  0  0  0  0  0
    4.1553   12.0513   34.9221 H   0  0  0  0  0  0  0  0  0  0  0  0
    5.5473   13.1773   35.0671 H   0  0  0  0  0  0  0  0  0  0  0  0
    4.5726   20.7644   37.5348 H   0  0  0  0  0  0  0  0  0  0  0  0
    3.3587   20.5851   36.1348 H   0  0  0  0  0  0  0  0  0  0  0  0
    6.6739   28.1137   31.4639 H   0  0  0  0  0  0  0  0  0  0  0  0
    5.5205   26.6340   31.1317 H   0  0  0  0  0  0  0  0  0  0  0  0
    3.9104   18.3511   36.3344 H   0  0  0  0  0  0  0  0  0  0  0  0
    2.5455   13.4665   40.1424 H   0  0  0  0  0  0  0  0  0  0  0  0
    4.1108   14.5831   40.2588 H   0  0  0  0  0  0  0  0  0  0  0  0
    2.0175   21.1572   35.1923 H   0  0  0  0  0  0  0  0  0  0  0  0
    1.7772   22.8419   35.7277 H   0  0  0  0  0  0  0  0  0  0  0  0
    4.5797   31.5396   32.4987 H   0  0  0  0  0  0  0  0  0  0  0  0
    4.0391   24.0700   35.9862 H   0  0  0  0  0  0  0  0  0  0  0  0
    4.6335   24.1194   34.1793 H   0  0  0  0  0  0  0  0  0  0  0  0
    2.9324   27.8863   33.1817 H   0  0  0  0  0  0  0  0  0  0  0  0
    2.0825   25.8506   30.1385 H   0  0  0  0  0  0  0  0  0  0  0  0
    2.2173   27.5672   29.6270 H   0  0  0  0  0  0  0  0  0  0  0  0
    3.6906   26.5461   29.7420 H   0  0  0  0  0  0  0  0  0  0  0  0
  1 33  1  0
  1 31  1  0
  2  6  1  0
  2 22  1  0
  4 30  1  0
  6  5  1  0
  7 18  1  0
  8 12  1  0
  8 16  1  0
  8 20  1  0
 10  5  2  3
 10 30  1  0
 11 22  1  0
 12 35  1  0
 12 34  1  0
 13 15  1  0
 15 24  1  0
 15 21  1  0
 16 20  1  0
 16 19  1  0
 19 33  1  0
 20 17  2  0
 20 14  2  0
 21 10  1  0
 22  3  1  0
 23 11  1  0
 25 29  1  0
 25 23  1  0
 26 28  2  3
 27  1  2  0
 28 34  1  0
 28  9  1  0
 29  2  2  0
 32  9  1  0
 34  7  1  0
  4 36  1  0
  7 37  1  0
  7 38  1  0
  8 39  1  1
  9 40  1  0
  9 41  1  0
 11 42  1  0
 11 43  1  0
 12 44  1  1
 13 45  1  0
 13 46  1  0
 13 47  1  0
 15 48  1  1
 16 49  1  1
 18 50  1  0
 19 51  1  0
 19 52  1  0
 21 53  1  0
 21 54  1  0
 22 55  1  1
 23 56  1  0
 23 57  1  0
 24 58  1  0
 24 59  1  0
 24 60  1  0
 25 61  1  0
 25 62  1  0
 26 63  1  0
 26 64  1  0
 29 65  1  0
 30 66  1  0
 30 67  1  0
 31 68  1  0
 31 69  1  0
 32 70  1  0
 33 71  1  0
 33 72  1  0
 34 73  1  1
 35 74  1  0
 35 75  1  0
 35 76  1  0
M  CHG  1  13   1
M  END
>  <mol_id>  (4) 
2026-09-18-3war-s0-n100-0004

>  <rmsd_to_ref>  (4) 


$$$$

     RDKit          3D

 34 37  0  0  0  0  0  0  0  0999 V2000
    2.6918   21.3455   37.8822 C   0  0  1  0  0  0  0  0  0  0  0  0
    2.7482   19.6968   39.9431 C   0  0  0  0  0  0  0  0  0  0  0  0
    2.4242   23.2285   32.4465 C   0  0  0  0  0  0  0  0  0  0  0  0
    1.7831   22.8085   36.1828 C   0  0  2  0  0  0  0  0  0  0  0  0
    2.5196   23.3064   34.8915 C   0  0  0  0  0  0  0  0  0  0  0  0
    3.4336   18.7403   40.7051 C   0  0  0  0  0  0  0  0  0  0  0  0
    3.1850   20.0208   38.5048 C   0  0  0  0  0  0  0  0  0  0  0  0
    3.8289   23.5997   32.9133 C   0  0  0  0  0  0  0  0  0  0  0  0
    3.3251   21.8776   36.4550 C   0  0  2  0  0  0  0  0  0  0  0  0
    1.6060   18.9088   42.4020 C   0  0  0  0  0  0  0  0  0  0  0  0
    1.0121   20.0458   41.6843 C   0  0  0  0  0  0  0  0  0  0  0  0
    4.0069   23.6024   34.4431 C   0  0  0  0  0  0  0  0  0  0  0  0
    1.7068   20.4049   40.5150 C   0  0  0  0  0  0  0  0  0  0  0  0
    1.5804   23.5552   33.6534 C   0  0  0  0  0  0  0  0  0  0  0  0
    3.8941   19.2711   37.8964 O   0  0  0  0  0  0  0  0  0  0  0  0
    2.0612   21.4101   36.4194 N   0  0  0  0  0  0  0  0  0  0  0  0
    2.7974   18.3385   41.9497 C   0  0  0  0  0  0  0  0  0  0  0  0
    2.4659   21.7088   38.8955 H   0  0  0  0  0  0  0  0  0  0  0  0
    2.1228   23.8301   31.5763 H   0  0  0  0  0  0  0  0  0  0  0  0
    2.3338   22.1821   32.1193 H   0  0  0  0  0  0  0  0  0  0  0  0
    0.9411   23.4564   36.4678 H   0  0  0  0  0  0  0  0  0  0  0  0
    2.4155   24.3468   35.2333 H   0  0  0  0  0  0  0  0  0  0  0  0
    4.3962   18.3183   40.3807 H   0  0  0  0  0  0  0  0  0  0  0  0
    4.5372   22.8751   32.4851 H   0  0  0  0  0  0  0  0  0  0  0  0
    4.0131   24.6291   32.5722 H   0  0  0  0  0  0  0  0  0  0  0  0
    4.3709   21.9539   36.1226 H   0  0  0  0  0  0  0  0  0  0  0  0
    1.1105   18.5062   43.2978 H   0  0  0  0  0  0  0  0  0  0  0  0
    0.1076   20.5678   42.0298 H   0  0  0  0  0  0  0  0  0  0  0  0
    4.6983   22.8140   34.7754 H   0  0  0  0  0  0  0  0  0  0  0  0
    4.4417   24.5237   34.8579 H   0  0  0  0  0  0  0  0  0  0  0  0
    1.3940   21.3312   40.0107 H   0  0  0  0  0  0  0  0  0  0  0  0
    1.2526   24.6048   33.6224 H   0  0  0  0  0  0  0  0  0  0  0  0
    0.6695   22.9402   33.6975 H   0  0  0  0  0  0  0  0  0  0  0  0
    3.2731   17.5551   42.5581 H   0  0  0  0  0  0  0  0  0  0  0  0
  1  7  1  0
  2  6  1  0
  2 13  2  0
  3  8  1  0
  3 14  1  0
  4  5  1  0
  4 16  1  0
  6 17  2  0
  7  2  1  0
  8 12  1  0
  9  4  1  0
  9 16  1  0
  9  1  1  0
 11 10  2  0
 12  5  1  0
 13 11  1  0
 14  5  1  0
 15  7  2  0
 16  1  1  0
 17 10  1  0
  1 18  1  1
  3 19  1  0
  3 20  1  0
  4 21  1  1
  5 22  1  0
  6 23  1  0
  8 24  1  0
  8 25  1  0
  9 26  1  6
 10 27  1  0
 11 28  1  0
 12 29  1  0
 12 30  1  0
 13 31  1  0
 14 32  1  0
 14 33  1  0
 17 34  1  0
M  END
>  <mol_id>  (5) 
2026-09-18-3war-s0-n100-0005

>  <rmsd_to_ref>  (5) 


$$$$

     RDKit          3D

 65 70  0  0  0  0  0  0  0  0999 V2000
    1.1540   15.2110   42.0970 S   0  0  0  0  0  0  0  0  0  0  0  0
    3.1570   16.5310   38.6270 N   0  0  0  0  0  0  0  0  0  0  0  0
    1.8450   22.9090   33.6150 O   0  0  0  0  0  0  0  0  0  0  0  0
    2.0760   19.8010   39.4520 C   0  0  0  0  0  0  0  0  0  0  0  0
    1.9670   15.5630   40.6600 C   0  0  0  0  0  0  0  0  0  0  0  0
    3.4080   18.6860   37.7540 C   0  0  0  0  0  0  0  0  0  0  0  0
    2.4060   25.4540   33.3580 C   0  0  0  0  0  0  0  0  0  0  0  0
    0.7690   26.5060   28.5660 O   0  0  0  0  0  0  0  0  0  0  0  0
    3.2440   19.6870   36.9390 C   0  0  0  0  0  0  0  0  0  0  0  0
    1.7900   19.7120   40.8250 C   0  0  0  0  0  0  0  0  0  0  0  0
    2.1110   21.9020   36.5420 C   0  0  0  0  0  0  0  0  0  0  0  0
    1.7140   26.7900   30.8950 C   0  0  2  0  0  0  0  0  0  0  0  0
    2.3070   25.9280   31.8780 C   0  0  2  0  0  0  0  0  0  0  0  0
    3.0630   26.9990   28.5670 C   0  0  1  0  0  0  0  0  0  0  0  0
    3.1690   15.3150   38.6390 C   0  0  0  0  0  0  0  0  0  0  0  0
    0.5010   17.8320   43.3440 C   0  0  0  0  0  0  0  0  0  0  0  0
    2.0350   25.6850   28.4180 C   0  0  0  0  0  0  0  0  0  0  0  0
    2.6180   18.6680   38.9500 C   0  0  0  0  0  0  0  0  0  0  0  0
    1.2520   25.3430   30.9680 C   0  0  1  0  0  0  0  0  0  0  0  0
    0.5720   26.2490   29.9620 C   0  0  2  0  0  0  0  0  0  0  0  0
    2.8610   23.9740   33.6400 C   0  0  1  0  0  0  0  0  0  0  0  0
    3.2580   25.5340   29.3370 C   0  0  2  0  0  0  0  0  0  0  0  0
    2.1470   23.3800   34.8420 C   0  0  2  0  0  0  0  0  0  0  0  0
    3.9030   14.5890   37.6090 C   0  0  0  0  0  0  0  0  0  0  0  0
    0.4120   16.7430   42.4090 C   0  0  0  0  0  0  0  0  0  0  0  0
    1.8980   16.9410   40.4260 N   0  0  0  0  0  0  0  0  0  0  0  0
    2.5570   17.4310   39.4500 C   0  0  0  0  0  0  0  0  0  0  0  0
    2.4910   20.6980   37.4220 C   0  0  0  0  0  0  0  0  0  0  0  0
    3.6280   27.1520   27.1970 O   0  0  0  0  0  0  0  0  0  0  0  0
    2.8460   22.2860   35.4890 C   0  0  0  0  0  0  0  0  0  0  0  0
    3.9590   25.5790   30.6020 O   0  0  0  0  0  0  0  0  0  0  0  0
    2.5590   14.7300   39.7840 C   0  0  0  0  0  0  0  0  0  0  0  0
    1.9280   20.9170   38.6340 C   0  0  0  0  0  0  0  0  0  0  0  0
    4.1266   17.8829   37.5333 H   0  0  0  0  0  0  0  0  0  0  0  0
    1.4097   25.5793   33.8072 H   0  0  0  0  0  0  0  0  0  0  0  0
    3.2096   26.0708   33.7868 H   0  0  0  0  0  0  0  0  0  0  0  0
    3.6858   19.7079   35.9319 H   0  0  0  0  0  0  0  0  0  0  0  0
    2.6829   19.9899   41.4043 H   0  0  0  0  0  0  0  0  0  0  0  0
    0.9648   20.3958   41.0727 H   0  0  0  0  0  0  0  0  0  0  0  0
    1.4985   18.6807   41.0727 H   0  0  0  0  0  0  0  0  0  0  0  0
    1.1053   21.6888   36.1508 H   0  0  0  0  0  0  0  0  0  0  0  0
    2.2561   22.7428   37.2363 H   0  0  0  0  0  0  0  0  0  0  0  0
    0.9338   27.0755   31.6160 H   0  0  0  0  0  0  0  0  0  0  0  0
    3.3507   26.0188   32.2133 H   0  0  0  0  0  0  0  0  0  0  0  0
    3.1409   28.0346   28.9296 H   0  0  0  0  0  0  0  0  0  0  0  0
    0.4688   17.4376   44.3704 H   0  0  0  0  0  0  0  0  0  0  0  0
    1.4463   18.3725   43.1884 H   0  0  0  0  0  0  0  0  0  0  0  0
   -0.3440   18.5188   43.1884 H   0  0  0  0  0  0  0  0  0  0  0  0
    1.6316   24.8226   27.8670 H   0  0  0  0  0  0  0  0  0  0  0  0
    2.0322   25.0575   30.2470 H   0  0  0  0  0  0  0  0  0  0  0  0
   -0.5015   26.3097   29.7300 H   0  0  0  0  0  0  0  0  0  0  0  0
    3.8723   24.0955   33.2247 H   0  0  0  0  0  0  0  0  0  0  0  0
    3.6818   24.5357   29.5208 H   0  0  0  0  0  0  0  0  0  0  0  0
    1.6516   23.8648   35.6961 H   0  0  0  0  0  0  0  0  0  0  0  0
    4.6083   13.8914   38.0842 H   0  0  0  0  0  0  0  0  0  0  0  0
    3.1956   14.0255   36.9829 H   0  0  0  0  0  0  0  0  0  0  0  0
    4.4588   15.3026   36.9829 H   0  0  0  0  0  0  0  0  0  0  0  0
    0.5691   17.2620   41.4519 H   0  0  0  0  0  0  0  0  0  0  0  0
   -0.4333   16.2842   42.9429 H   0  0  0  0  0  0  0  0  0  0  0  0
    4.5816   27.4102   27.2603 H   0  0  0  0  0  0  0  0  0  0  0  0
    2.9620   21.4474   34.7867 H   0  0  0  0  0  0  0  0  0  0  0  0
    3.8477   22.6052   35.8127 H   0  0  0  0  0  0  0  0  0  0  0  0
    3.3045   25.5370   31.3436 H   0  0  0  0  0  0  0  0  0  0  0  0
    2.5708   13.6421   39.9464 H   0  0  0  0  0  0  0  0  0  0  0  0
    1.4235   21.8483   38.9308 H   0  0  0  0  0  0  0  0  0  0  0  0
  1 25  1  0
  2 15  2  0
  2 27  1  0
  3 21  1  0
  3 23  1  0
  4 10  1  0
  5  1  1  0
  6 18  1  0
  7 21  1  0
  8 20  1  0
  9 28  1  0
  9  6  2  0
 11 28  1  0
 12 19  1  0
 12 13  1  0
 13  7  1  0
 14 22  1  0
 15 32  1  0
 17  8  1  0
 17 14  1  0
 17 22  1  0
 18 27  1  0
 18  4  2  0
 19 13  1  0
 20 12  1  0
 20 19  1  0
 21 23  1  0
 22 31  1  0
 23 30  1  0
 24 15  1  0
 25 16  1  0
 26  5  1  0
 27 26  2  0
 28 33  2  0
 29 14  1  0
 30 11  1  0
 32  5  2  0
 33  4  1  0
  6 34  1  0
  7 35  1  0
  7 36  1  0
  9 37  1  0
 10 38  1  0
 10 39  1  0
 10 40  1  0
 11 41  1  0
 11 42  1  0
 12 43  1  6
 13 44  1  6
 14 45  1  1
 16 46  1  0
 16 47  1  0
 16 48  1  0
 17 49  1  0
 19 50  1  6
 20 51  1  1
 21 52  1  1
 22 53  1  6
 23 54  1  1
 24 55  1  0
 24 56  1  0
 24 57  1  0
 25 58  1  0
 25 59  1  0
 29 60  1  0
 30 61  1  0
 30 62  1  0
 31 63  1  0
 32 64  1  0
 33 65  1  0
M  END
>  <mol_id>  (6) 
2026-09-18-3war-s0-n100-0006

>  <rmsd_to_ref>  (6) 


$$$$

     RDKit          3D

 87 90  0  0  0  0  0  0  0  0999 V2000
    2.0560   15.5730   40.0950 C   0  0  0  0  0  0  0  0  0  0  0  0
    3.6120   14.2730   38.3010 C   0  0  2  0  0  0  0  0  0  0  0  0
   -0.0690   18.7300   43.3370 N   0  0  0  0  0  0  0  0  0  0  0  0
    2.6430   19.6720   38.0080 N   0  0  0  0  0  0  0  0  0  0  0  0
    2.3730   14.2870   36.2810 O   0  0  0  0  0  0  0  0  0  0  0  0
    2.3040   18.0160   39.5880 C   0  0  1  0  0  0  0  0  0  0  0  0
    2.5690   19.5900   39.4230 C   0  0  2  0  0  0  0  0  0  0  0  0
    2.9810   13.6170   37.1520 C   0  0  0  0  0  0  0  0  0  0  0  0
    3.0180   25.0930   27.5710 C   0  0  0  0  0  0  0  0  0  0  0  0
   -1.0930   19.5140   43.2880 C   0  0  0  0  0  0  0  0  0  0  0  0
    2.7230   15.0930   39.2920 C   0  0  0  0  0  0  0  0  0  0  0  0
   -1.0390   20.6120   42.5740 N   0  0  0  0  0  0  0  0  0  0  0  0
    2.3800   25.2130   34.5200 S   0  0  0  0  0  0  0  0  0  0  0  0
    3.7930   22.6130   34.4900 C   0  0  1  0  0  0  0  0  0  0  0  0
    2.7760   22.5980   33.4280 F   0  0  0  0  0  0  0  0  0  0  0  0
    2.8690   25.3010   30.0540 C   0  0  0  0  0  0  0  0  0  0  0  0
    4.3170   16.4730   37.7100 C   0  0  0  0  0  0  0  0  0  0  0  0
    2.1060   25.0220   28.4510 C   0  0  0  0  0  0  0  0  0  0  0  0
    1.5980   21.3770   40.1880 O   0  0  0  0  0  0  0  0  0  0  0  0
    3.1680   18.4100   37.4700 C   0  0  0  0  0  0  0  0  0  0  0  0
    0.6310   19.5820   40.9720 N   0  0  0  0  0  0  0  0  0  0  0  0
    4.1570   24.2540   32.1650 C   0  0  0  0  0  0  0  0  0  0  0  0
    3.2590   17.3820   38.5000 C   0  0  1  0  0  0  0  0  0  0  0  0
    1.4600   20.1340   40.1590 C   0  0  0  0  0  0  0  0  0  0  0  0
    3.9560   24.8530   33.4010 C   0  0  2  0  0  0  0  0  0  0  0  0
    4.1080   24.4520   29.8080 C   0  0  1  0  0  0  0  0  0  0  0  0
    3.3730   24.4220   29.4020 C   0  0  0  0  0  0  0  0  0  0  0  0
    1.4850   17.7290   40.9440 C   0  0  0  0  0  0  0  0  0  0  0  0
   -2.1030   19.1470   43.9300 O   0  0  0  0  0  0  0  0  0  0  0  0
    3.7320   25.0040   31.2280 C   0  0  0  0  0  0  0  0  0  0  0  0
    2.4200   24.9280   29.5300 C   0  0  1  0  0  0  0  0  0  0  0  0
   -0.0670   20.6950   41.5200 C   0  0  0  0  0  0  0  0  0  0  0  0
    4.7140   23.8190   34.4320 C   0  0  0  0  0  0  0  0  0  0  0  0
    1.3760   16.2380   41.2970 C   0  0  0  0  0  0  0  0  0  0  0  0
    3.0290   12.3820   37.0170 O   0  0  0  0  0  0  0  0  0  0  0  0
    4.4410   15.0790   37.1870 C   0  0  0  0  0  0  0  0  0  0  0  0
    2.7070   24.2690   36.0940 C   0  0  0  0  0  0  0  0  0  0  0  0
    4.1360   24.0270   28.3880 C   0  0  0  0  0  0  0  0  0  0  0  0
    4.2760   25.1800   30.2960 C   0  0  2  0  0  0  0  0  0  0  0  0
    2.9090   22.7530   35.8750 C   0  0  0  0  0  0  0  0  0  0  0  0
    4.0813   13.7102   39.1214 H   0  0  0  0  0  0  0  0  0  0  0  0
    0.7929   18.9763   42.8297 H   0  0  0  0  0  0  0  0  0  0  0  0
   -0.1137   17.8580   43.8834 H   0  0  0  0  0  0  0  0  0  0  0  0
    1.7025   19.8436   37.6246 H   0  0  0  0  0  0  0  0  0  0  0  0
    3.2693   20.4451   37.7417 H   0  0  0  0  0  0  0  0  0  0  0  0
    1.7083   17.0986   39.4714 H   0  0  0  0  0  0  0  0  0  0  0  0
    3.4479   20.1315   39.8030 H   0  0  0  0  0  0  0  0  0  0  0  0
    3.4135   26.1122   27.4491 H   0  0  0  0  0  0  0  0  0  0  0  0
    2.7416   24.8365   26.5376 H   0  0  0  0  0  0  0  0  0  0  0  0
   -1.6785   21.3966   42.7644 H   0  0  0  0  0  0  0  0  0  0  0  0
    4.4310   21.7206   34.4084 H   0  0  0  0  0  0  0  0  0  0  0  0
    2.4057   25.0670   31.0238 H   0  0  0  0  0  0  0  0  0  0  0  0
    2.8838   26.2867   29.5660 H   0  0  0  0  0  0  0  0  0  0  0  0
    4.4832   17.0670   36.7992 H   0  0  0  0  0  0  0  0  0  0  0  0
    4.8847   16.2410   38.6232 H   0  0  0  0  0  0  0  0  0  0  0  0
    1.4966   25.9337   28.3654 H   0  0  0  0  0  0  0  0  0  0  0  0
    1.5846   24.0785   28.2323 H   0  0  0  0  0  0  0  0  0  0  0  0
    2.4987   18.0568   36.6717 H   0  0  0  0  0  0  0  0  0  0  0  0
    4.1799   18.5971   37.0814 H   0  0  0  0  0  0  0  0  0  0  0  0
    0.5033   18.5806   41.1765 H   0  0  0  0  0  0  0  0  0  0  0  0
    5.2324   24.0719   32.0224 H   0  0  0  0  0  0  0  0  0  0  0  0
    3.6027   23.3043   32.1374 H   0  0  0  0  0  0  0  0  0  0  0  0
    4.0854   17.9311   38.9750 H   0  0  0  0  0  0  0  0  0  0  0  0
    4.1832   25.8694   33.0470 H   0  0  0  0  0  0  0  0  0  0  0  0
    4.7099   24.0072   30.6141 H   0  0  0  0  0  0  0  0  0  0  0  0
    3.0995   23.3582   29.4614 H   0  0  0  0  0  0  0  0  0  0  0  0
    3.7008   25.0305   28.5463 H   0  0  0  0  0  0  0  0  0  0  0  0
    1.9926   18.2455   41.7720 H   0  0  0  0  0  0  0  0  0  0  0  0
    0.4607   18.0968   40.7843 H   0  0  0  0  0  0  0  0  0  0  0  0
    2.7571   24.5894   30.9317 H   0  0  0  0  0  0  0  0  0  0  0  0
    3.7995   25.9941   31.7025 H   0  0  0  0  0  0  0  0  0  0  0  0
    1.3838   24.8455   29.8898 H   0  0  0  0  0  0  0  0  0  0  0  0
    0.7117   21.3780   41.8903 H   0  0  0  0  0  0  0  0  0  0  0  0
   -0.7125   20.9658   40.6714 H   0  0  0  0  0  0  0  0  0  0  0  0
    5.7037   23.5363   34.0440 H   0  0  0  0  0  0  0  0  0  0  0  0
    4.8903   24.2638   35.4225 H   0  0  0  0  0  0  0  0  0  0  0  0
    0.3254   15.9244   41.3853 H   0  0  0  0  0  0  0  0  0  0  0  0
    1.8320   15.9775   42.2635 H   0  0  0  0  0  0  0  0  0  0  0  0
    3.9868   14.9774   36.1903 H   0  0  0  0  0  0  0  0  0  0  0  0
    5.4756   14.7329   37.0461 H   0  0  0  0  0  0  0  0  0  0  0  0
    3.6151   24.6769   36.5619 H   0  0  0  0  0  0  0  0  0  0  0  0
    1.8186   24.3874   36.7318 H   0  0  0  0  0  0  0  0  0  0  0  0
    3.8117   22.9803   28.2918 H   0  0  0  0  0  0  0  0  0  0  0  0
    5.1478   24.0852   27.9605 H   0  0  0  0  0  0  0  0  0  0  0  0
    5.2434   25.6976   30.2167 H   0  0  0  0  0  0  0  0  0  0  0  0
    1.9375   22.2495   35.7619 H   0  0  0  0  0  0  0  0  0  0  0  0
    3.4190   22.2849   36.7299 H   0  0  0  0  0  0  0  0  0  0  0  0
  1 34  1  0
  2  8  1  0
  2 11  1  0
  4  7  1  0
  5  8  2  0
  6 28  1  0
  7  6  1  0
  7 24  1  0
  9 38  1  0
  9 18  1  0
 10  3  1  0
 10 29  2  0
 11  1  3  0
 12 10  1  0
 13 37  1  0
 14 15  1  0
 14 40  1  0
 16 39  1  0
 17 23  1  0
 20  4  1  0
 21 32  1  0
 23 20  1  0
 23  6  1  0
 24 19  2  0
 24 21  1  0
 25 22  1  0
 25 33  1  0
 25 13  1  0
 26 38  1  0
 26 39  1  0
 27 31  1  0
 27 26  1  0
 28 34  1  0
 30 22  1  0
 31 18  1  0
 31 16  1  0
 32 12  1  0
 33 14  1  0
 35  8  1  0
 36 17  1  0
 36  2  1  0
 39 30  1  0
 40 37  1  0
  2 41  1  1
  3 42  1  0
  3 43  1  0
  4 44  1  0
  4 45  1  0
  6 46  1  6
  7 47  1  1
  9 48  1  0
  9 49  1  0
 12 50  1  0
 14 51  1  1
 16 52  1  0
 16 53  1  0
 17 54  1  0
 17 55  1  0
 18 56  1  0
 18 57  1  0
 20 58  1  0
 20 59  1  0
 21 60  1  0
 22 61  1  0
 22 62  1  0
 23 63  1  6
 25 64  1  6
 26 65  1  1
 27 66  1  0
 27 67  1  0
 28 68  1  0
 28 69  1  0
 30 70  1  0
 30 71  1  0
 31 72  1  1
 32 73  1  0
 32 74  1  0
 33 75  1  0
 33 76  1  0
 34 77  1  0
 34 78  1  0
 36 79  1  0
 36 80  1  0
 37 81  1  0
 37 82  1  0
 38 83  1  0
 38 84  1  0
 39 85  1  1
 40 86  1  0
 40 87  1  0
M  CHG  2   4   1  35  -1
M  END
>  <mol_id>  (7) 
2026-09-18-3war-s0-n100-0007

>  <rmsd_to_ref>  (7) 


$$$$

     RDKit          3D

 43 43  0  0  0  0  0  0  0  0999 V2000
    2.0463   16.1863   39.5129 O   0  0  0  0  0  0  0  0  0  0  0  0
    2.8286   18.4710   39.8422 C   0  0  0  0  0  0  0  0  0  0  0  0
    3.4278   22.4618   33.8173 C   0  0  0  0  0  0  0  0  0  0  0  0
    2.3143   22.0881   36.3751 O   0  0  0  0  0  0  0  0  0  0  0  0
    0.9659   24.7435   30.7705 C   0  0  0  0  0  0  0  0  0  0  0  0
    3.1560   16.9819   39.7902 C   0  0  0  0  0  0  0  0  0  0  0  0
    1.5047   22.4620   39.8433 C   0  0  0  0  0  0  0  0  0  0  0  0
    4.2704   18.7399   37.9888 N   0  0  0  0  0  0  0  0  0  0  0  0
    2.8922   20.6013   38.8314 C   0  0  0  0  0  0  0  0  0  0  0  0
    4.1809   20.8362   36.7838 O   0  0  0  0  0  0  0  0  0  0  0  0
    3.3532   21.5346   36.0078 C   0  0  0  0  0  0  0  0  0  0  0  0
    3.7009   21.7823   34.7575 N   0  0  0  0  0  0  0  0  0  0  0  0
    2.0703   21.1730   39.8331 C   0  0  0  0  0  0  0  0  0  0  0  0
    2.0640   18.9948   40.8925 C   0  0  0  0  0  0  0  0  0  0  0  0
    2.1612   24.8231   31.4218 C   0  0  0  0  0  0  0  0  0  0  0  0
    1.7110   20.2979   40.8956 C   0  0  0  0  0  0  0  0  0  0  0  0
    1.2528   25.9736   31.4925 C   0  0  0  0  0  0  0  0  0  0  0  0
    2.1200   24.0822   32.7040 C   0  0  0  0  0  0  0  0  0  0  0  0
    3.3408   19.3298   38.9004 C   0  0  0  0  0  0  0  0  0  0  0  0
    3.4786   23.2360   32.7203 C   0  0  0  0  0  0  0  0  0  0  0  0
    1.5421   16.0204   40.3485 H   0  0  0  0  0  0  0  0  0  0  0  0
    2.7591   21.7153   33.3639 H   0  0  0  0  0  0  0  0  0  0  0  0
    3.8573   23.3095   34.3714 H   0  0  0  0  0  0  0  0  0  0  0  0
    0.9457   24.7521   29.6707 H   0  0  0  0  0  0  0  0  0  0  0  0
    0.1335   24.0246   30.7909 H   0  0  0  0  0  0  0  0  0  0  0  0
    3.5681   16.6801   40.7644 H   0  0  0  0  0  0  0  0  0  0  0  0
    3.8774   16.8337   38.9731 H   0  0  0  0  0  0  0  0  0  0  0  0
    1.4291   22.8209   40.8804 H   0  0  0  0  0  0  0  0  0  0  0  0
    2.1417   23.1466   39.2640 H   0  0  0  0  0  0  0  0  0  0  0  0
    0.5014   22.4258   39.3938 H   0  0  0  0  0  0  0  0  0  0  0  0
    4.5619   17.7598   38.1129 H   0  0  0  0  0  0  0  0  0  0  0  0
    4.6487   19.2949   37.2079 H   0  0  0  0  0  0  0  0  0  0  0  0
    3.1758   21.2163   37.9647 H   0  0  0  0  0  0  0  0  0  0  0  0
    4.4894   21.1694   34.5053 H   0  0  0  0  0  0  0  0  0  0  0  0
    1.7496   18.3408   41.7193 H   0  0  0  0  0  0  0  0  0  0  0  0
    3.2082   24.6681   31.1222 H   0  0  0  0  0  0  0  0  0  0  0  0
    1.1302   20.6934   41.7420 H   0  0  0  0  0  0  0  0  0  0  0  0
    1.4805   26.9032   30.9502 H   0  0  0  0  0  0  0  0  0  0  0  0
    0.7741   26.5709   32.2825 H   0  0  0  0  0  0  0  0  0  0  0  0
    2.0852   24.7786   33.5547 H   0  0  0  0  0  0  0  0  0  0  0  0
    1.2282   23.4441   32.7904 H   0  0  0  0  0  0  0  0  0  0  0  0
    3.5497   22.6123   31.8170 H   0  0  0  0  0  0  0  0  0  0  0  0
    4.3596   23.8945   32.7363 H   0  0  0  0  0  0  0  0  0  0  0  0
  1  6  1  0
  2 14  1  0
  3 12  1  0
  5 15  1  0
  5 17  1  0
  6  2  1  0
  8 19  1  0
  9 13  2  0
 11  4  2  0
 11 10  1  0
 12 11  1  0
 13  7  1  0
 13 16  1  0
 14 16  2  0
 15 17  1  0
 15 18  1  0
 19  9  1  0
 19  2  2  0
 20 18  1  0
 20  3  1  0
  1 21  1  0
  3 22  1  0
  3 23  1  0
  5 24  1  0
  5 25  1  0
  6 26  1  0
  6 27  1  0
  7 28  1  0
  7 29  1  0
  7 30  1  0
  8 31  1  0
  8 32  1  0
  9 33  1  0
 12 34  1  0
 14 35  1  0
 15 36  1  0
 16 37  1  0
 17 38  1  0
 17 39  1  0
 18 40  1  0
 18 41  1  0
 20 42  1  0
 20 43  1  0
M  CHG  1  10  -1
M  END
>  <mol_id>  (8) 
2026-09-18-3war-s0-n100-0008

>  <rmsd_to_ref>  (8) 


$$$$

     RDKit          3D

 44 45  0  0  0  0  0  0  0  0999 V2000
    2.3310   23.8230   33.9950 C   0  0  0  0  0  0  0  0  0  0  0  0
    3.0970   24.6540   31.7950 C   0  0  0  0  0  0  0  0  0  0  0  0
    2.1330   24.6120   32.8740 C   0  0  0  0  0  0  0  0  0  0  0  0
    2.7440   18.7970   38.9570 C   0  0  0  0  0  0  0  0  0  0  0  0
    2.4880   25.5710   30.7290 C   0  0  0  0  0  0  0  0  0  0  0  0
    1.6960   16.5240   42.9460 O   0  0  0  0  0  0  0  0  0  0  0  0
    1.3020   19.5440   41.2730 C   0  0  0  0  0  0  0  0  0  0  0  0
    2.6180   20.1300   39.3270 C   0  0  0  0  0  0  0  0  0  0  0  0
    0.2090   16.0220   41.1340 O   0  0  0  0  0  0  0  0  0  0  0  0
   -0.2490   18.1390   42.7970 O   0  0  0  0  0  0  0  0  0  0  0  0
    3.3150   19.2150   36.6030 N   0  0  0  0  0  0  0  0  0  0  0  0
    0.8540   17.1730   41.9170 S   0  0  0  0  0  4  0  0  0  0  0  0
    1.0310   25.0360   32.4900 O   0  0  0  0  0  0  0  0  0  0  0  0
    1.2490   26.6650   30.8630 C   0  0  0  0  0  0  0  0  0  0  0  0
    2.2230   17.8120   39.7880 C   0  0  0  0  0  0  0  0  0  0  0  0
    3.3290   21.8510   34.8790 N   0  0  0  0  0  0  0  0  0  0  0  0
    4.2080   24.0220   31.7630 C   0  0  0  0  0  0  0  0  0  0  0  0
    4.2550   23.0260   32.8610 C   0  0  0  0  0  0  0  0  0  0  0  0
    3.3940   22.8850   33.9510 C   0  0  0  0  0  0  0  0  0  0  0  0
    1.5880   18.1820   40.9430 C   0  0  0  0  0  0  0  0  0  0  0  0
    1.2300   25.8440   31.3970 C   0  0  0  0  0  0  0  0  0  0  0  0
    1.9000   20.5470   40.3920 C   0  0  0  0  0  0  0  0  0  0  0  0
    3.4560   18.4280   37.7200 C   0  0  0  0  0  0  0  0  0  0  0  0
    1.6898   23.9199   34.8835 H   0  0  0  0  0  0  0  0  0  0  0  0
    2.3465   25.0562   29.7673 H   0  0  0  0  0  0  0  0  0  0  0  0
    3.0868   26.4496   30.4469 H   0  0  0  0  0  0  0  0  0  0  0  0
    1.3696   16.7755   43.8462 H   0  0  0  0  0  0  0  0  0  0  0  0
    0.6736   19.8192   42.1329 H   0  0  0  0  0  0  0  0  0  0  0  0
    3.1320   20.8885   38.7183 H   0  0  0  0  0  0  0  0  0  0  0  0
   -0.1626   15.3589   41.7683 H   0  0  0  0  0  0  0  0  0  0  0  0
   -0.1005   18.0090   43.7671 H   0  0  0  0  0  0  0  0  0  0  0  0
    3.1405   20.1890   36.8890 H   0  0  0  0  0  0  0  0  0  0  0  0
    4.1772   19.1714   36.0412 H   0  0  0  0  0  0  0  0  0  0  0  0
    2.5216   18.8748   36.0412 H   0  0  0  0  0  0  0  0  0  0  0  0
    0.4303   27.3949   30.9471 H   0  0  0  0  0  0  0  0  0  0  0  0
    2.0890   26.8571   30.1793 H   0  0  0  0  0  0  0  0  0  0  0  0
    2.3197   16.7493   39.5211 H   0  0  0  0  0  0  0  0  0  0  0  0
    2.6338   21.8834   35.6383 H   0  0  0  0  0  0  0  0  0  0  0  0
    3.9761   21.0529   34.8069 H   0  0  0  0  0  0  0  0  0  0  0  0
    5.0102   24.1918   31.0297 H   0  0  0  0  0  0  0  0  0  0  0  0
    5.0799   22.3001   32.8096 H   0  0  0  0  0  0  0  0  0  0  0  0
    1.7674   21.6203   40.5931 H   0  0  0  0  0  0  0  0  0  0  0  0
    3.1193   17.4175   37.4452 H   0  0  0  0  0  0  0  0  0  0  0  0
    4.5172   18.5415   37.9864 H   0  0  0  0  0  0  0  0  0  0  0  0
  2  3  2  0
  3  1  1  0
  4  8  1  0
  4 15  2  0
  5 21  1  0
  5  2  1  0
  8 22  2  0
  9 12  1  0
 11 23  1  0
 12 10  1  0
 12  6  1  0
 13  3  1  0
 14 21  2  3
 15 20  1  0
 17  2  1  0
 17 18  2  0
 18 19  1  0
 19  1  2  0
 19 16  1  0
 20  7  2  0
 20 12  1  0
 21 13  1  0
 22  7  1  0
 23  4  1  0
  1 24  1  0
  5 25  1  0
  5 26  1  0
  6 27  1  0
  7 28  1  0
  8 29  1  0
  9 30  1  0
 10 31  1  0
 11 32  1  0
 11 33  1  0
 11 34  1  0
 14 35  1  0
 14 36  1  0
 15 37  1  0
 16 38  1  0
 16 39  1  0
 17 40  1  0
 18 41  1  0
 22 42  1  0
 23 43  1  0
 23 44  1  0
M  CHG  1  11   1
M  END
>  <mol_id>  (9) 
2026-09-18-3war-s0-n100-0009

>  <rmsd_to_ref>  (9) 


$$$$

     RDKit          3D

 22 22  0  0  0  0  0  0  0  0999 V2000
    3.5017   19.2189   38.1952 C   0  0  0  0  0  0  0  0  0  0  0  0
    2.5855   19.8837   39.0557 C   0  0  0  0  0  0  0  0  0  0  0  0
    3.0581   22.2215   36.1457 N   0  0  0  0  0  0  0  0  0  0  0  0
    2.8419   21.0756   36.9933 C   0  0  0  0  0  0  0  0  0  0  0  0
    4.2278   22.8005   34.0234 C   0  0  0  0  0  0  0  0  0  0  0  0
    2.1238   19.6100   40.5495 C   0  0  0  0  0  0  0  0  0  0  0  0
    3.5780   19.8050   36.9337 C   0  0  0  0  0  0  0  0  0  0  0  0
    3.1646   21.9053   34.7021 C   0  0  0  0  0  0  0  0  0  0  0  0
    1.9903   21.3457   38.3829 S   0  0  0  0  0  0  0  0  0  0  0  0
    3.9265   23.2807   32.8841 O   0  0  0  0  0  0  0  0  0  0  0  0
    5.4299   23.4661   34.8421 C   0  0  0  0  0  0  0  0  0  0  0  0
    4.0872   18.3368   38.4935 H   0  0  0  0  0  0  0  0  0  0  0  0
    3.1324   23.1808   36.5133 H   0  0  0  0  0  0  0  0  0  0  0  0
    2.8985   19.9671   41.2440 H   0  0  0  0  0  0  0  0  0  0  0  0
    1.1817   20.1428   40.7457 H   0  0  0  0  0  0  0  0  0  0  0  0
    1.9713   18.5302   40.6942 H   0  0  0  0  0  0  0  0  0  0  0  0
    4.0945   19.3926   36.0544 H   0  0  0  0  0  0  0  0  0  0  0  0
    2.1896   22.0757   34.2223 H   0  0  0  0  0  0  0  0  0  0  0  0
    3.4656   20.8531   34.5918 H   0  0  0  0  0  0  0  0  0  0  0  0
    5.2555   23.3357   35.9204 H   0  0  0  0  0  0  0  0  0  0  0  0
    6.3767   22.9811   34.5625 H   0  0  0  0  0  0  0  0  0  0  0  0
    5.4841   24.5392   34.6066 H   0  0  0  0  0  0  0  0  0  0  0  0
  1  2  2  0
  2  6  1  0
  3  4  1  0
  4  9  1  0
  5 11  1  0
  5  8  1  0
  7  4  2  0
  7  1  1  0
  8  3  1  0
  9  2  1  0
 10  5  2  0
  1 12  1  0
  3 13  1  0
  6 14  1  0
  6 15  1  0
  6 16  1  0
  7 17  1  0
  8 18  1  0
  8 19  1  0
 11 20  1  0
 11 21  1  0
 11 22  1  0
M  END
>  <mol_id>  (10) 
2026-09-18-3war-s0-n100-0010

>  <rmsd_to_ref>  (10) 


$$$$

     RDKit          3D

 54 58  0  0  0  0  0  0  0  0999 V2000
    4.8522   24.0184   32.5073 O   0  0  0  0  0  0  0  0  0  0  0  0
   -1.3979   18.6546   43.7546 C   0  0  0  0  0  0  0  0  0  0  0  0
   -0.8847   17.7343   42.9219 C   0  0  1  0  0  0  0  0  0  0  0  0
    5.9311   22.6841   30.4296 C   0  0  1  0  0  0  0  0  0  0  0  0
    3.3939   23.5322   29.1309 C   0  0  2  0  0  0  0  0  0  0  0  0
    2.2228   20.8121   38.0894 C   0  0  0  0  0  0  0  0  0  0  0  0
    4.4774   21.7541   33.6832 O   0  0  0  0  0  0  0  0  0  0  0  0
    3.9366   23.4135   31.6467 C   0  0  1  0  0  0  0  0  0  0  0  0
    3.2031   25.5369   30.4807 C   0  0  0  0  0  0  0  0  0  0  0  0
    3.0781   22.0449   35.9688 Cl  0  0  0  0  0  0  0  0  0  0  0  0
    2.3068   18.5947   41.4626 C   0  0  0  0  0  0  0  0  0  0  0  0
   -1.4868   19.9310   43.7901 O   0  0  0  0  0  0  0  0  0  0  0  0
    3.9176   18.6476   38.0786 C   0  0  0  0  0  0  0  0  0  0  0  0
    0.6326   17.9504   43.0316 N   0  0  0  0  0  0  0  0  0  0  0  0
    3.1530   20.7568   37.0846 C   0  0  0  0  0  0  0  0  0  0  0  0
    6.0639   23.4105   29.1839 C   0  0  0  0  0  0  0  0  0  0  0  0
    1.6951   17.5745   42.0725 C   0  0  1  0  0  0  0  0  0  0  0  0
    2.6465   19.7081   41.8870 O   0  0  0  0  0  0  0  0  0  0  0  0
    2.9179   16.6231   40.5448 N   0  0  0  0  0  0  0  0  0  0  0  0
    3.6537   24.4825   27.9317 C   0  0  0  0  0  0  0  0  0  0  0  0
    3.0853   18.7898   39.1371 C   0  0  0  0  0  0  0  0  0  0  0  0
    2.2046   16.4132   41.6543 C   0  0  0  0  0  0  0  0  0  0  0  0
    3.5159   24.2243   30.4636 C   0  0  0  0  0  0  0  0  0  0  0  0
    4.5970   22.0704   31.0275 C   0  0  2  0  0  0  0  0  0  0  0  0
    1.9558   14.9218   42.3599 S   0  0  0  0  0  0  0  0  0  0  0  0
    5.1123   21.3428   32.4449 N   0  0  0  0  0  0  0  0  0  0  0  0
    2.1598   19.8712   39.0834 C   0  0  0  0  0  0  0  0  0  0  0  0
    4.7472   22.5288   29.3820 S   0  0  1  0  0  4  0  0  0  0  0  0
   -1.4850   17.5869   44.5069 N   0  0  0  0  0  0  0  0  0  0  0  0
    2.9109   18.0116   40.3214 N   0  0  0  0  0  0  0  0  0  0  0  0
    4.0320   19.5894   37.0754 C   0  0  0  0  0  0  0  0  0  0  0  0
    4.5520   23.9017   33.4434 H   0  0  0  0  0  0  0  0  0  0  0  0
   -1.0389   17.2828   41.9308 H   0  0  0  0  0  0  0  0  0  0  0  0
    6.8051   22.6744   31.0976 H   0  0  0  0  0  0  0  0  0  0  0  0
    2.4200   23.0815   28.8888 H   0  0  0  0  0  0  0  0  0  0  0  0
    1.5007   21.6418   38.0983 H   0  0  0  0  0  0  0  0  0  0  0  0
    4.8597   21.2387   34.4371 H   0  0  0  0  0  0  0  0  0  0  0  0
    3.0504   23.2472   32.2768 H   0  0  0  0  0  0  0  0  0  0  0  0
    3.2695   26.1059   31.4197 H   0  0  0  0  0  0  0  0  0  0  0  0
    2.8817   26.0378   29.5556 H   0  0  0  0  0  0  0  0  0  0  0  0
    4.5323   17.7377   38.0148 H   0  0  0  0  0  0  0  0  0  0  0  0
    0.7392   18.9683   43.1470 H   0  0  0  0  0  0  0  0  0  0  0  0
    0.8300   17.2438   43.7544 H   0  0  0  0  0  0  0  0  0  0  0  0
    5.9871   24.5079   29.1850 H   0  0  0  0  0  0  0  0  0  0  0  0
    6.8413   23.4548   28.4070 H   0  0  0  0  0  0  0  0  0  0  0  0
    2.4391   17.6124   42.8819 H   0  0  0  0  0  0  0  0  0  0  0  0
    3.3820   15.9083   39.9663 H   0  0  0  0  0  0  0  0  0  0  0  0
    3.6844   25.5228   28.2881 H   0  0  0  0  0  0  0  0  0  0  0  0
    4.6155   24.2270   27.4630 H   0  0  0  0  0  0  0  0  0  0  0  0
    2.8454   24.3714   27.1939 H   0  0  0  0  0  0  0  0  0  0  0  0
    4.9605   20.3291   32.3431 H   0  0  0  0  0  0  0  0  0  0  0  0
    1.3797   19.9525   39.8546 H   0  0  0  0  0  0  0  0  0  0  0  0
   -1.7243   17.0721   45.3663 H   0  0  0  0  0  0  0  0  0  0  0  0
    4.7778   19.4622   36.2768 H   0  0  0  0  0  0  0  0  0  0  0  0
  2 12  2  0
  2 29  1  0
  3 14  1  0
  3  2  1  0
  3 29  1  0
  4 16  1  0
  4 24  1  0
  5 20  1  0
  5 28  1  0
  5 23  1  0
  6 27  2  0
  8  1  1  0
 10 15  1  0
 11 18  2  0
 11 17  1  0
 13 21  2  0
 15  6  1  0
 17 14  1  0
 19 22  1  0
 21 27  1  0
 21 30  1  0
 22 17  1  0
 22 25  2  0
 23  9  2  3
 23  8  1  0
 24  8  1  0
 24 26  1  6
 26  7  1  0
 28 16  1  6
 28  4  1  0
 28 24  1  0
 30 19  1  0
 30 11  1  0
 31 15  2  0
 31 13  1  0
  1 32  1  0
  3 33  1  6
  4 34  1  6
  5 35  1  6
  6 36  1  0
  7 37  1  0
  8 38  1  1
  9 39  1  0
  9 40  1  0
 13 41  1  0
 14 42  1  0
 14 43  1  0
 16 44  1  0
 16 45  1  0
 17 46  1  1
 19 47  1  0
 20 48  1  0
 20 49  1  0
 20 50  1  0
 26 51  1  0
 27 52  1  0
 29 53  1  0
 31 54  1  0
M  CHG  1  14   1
M  END
>  <mol_id>  (11) 
2026-09-18-3war-s0-n100-0011

>  <rmsd_to_ref>  (11) 


$$$$

     RDKit          3D

 52 53  0  0  0  0  0  0  0  0999 V2000
    3.1891   17.5174   41.3132 C   0  0  0  0  0  0  0  0  0  0  0  0
    2.9912   22.7892   34.4508 C   0  0  0  0  0  0  0  0  0  0  0  0
    0.3422   18.4162   43.6345 C   0  0  0  0  0  0  0  0  0  0  0  0
    3.3368   24.1790   29.9820 C   0  0  0  0  0  0  0  0  0  0  0  0
    3.6667   18.0380   40.0343 C   0  0  0  0  0  0  0  0  0  0  0  0
    0.1497   21.6421   41.7416 C   0  0  0  0  0  0  0  0  0  0  0  0
    4.8466   23.8937   29.8847 C   0  0  0  0  0  0  0  0  0  0  0  0
    2.2103   20.1014   40.2543 N   0  0  0  0  0  0  0  0  0  0  0  0
    0.6717   20.2302   42.1515 C   0  0  0  0  0  0  0  0  0  0  0  0
    3.6771   23.7612   33.4424 S   0  0  0  0  0  0  0  0  0  0  0  0
    5.6646   17.3058   38.8178 C   0  0  0  0  0  0  0  0  0  0  0  0
    3.1026   24.7737   27.4903 C   0  0  0  0  0  0  0  0  0  0  0  0
    1.7716   19.5588   41.5333 C   0  0  0  0  0  0  0  0  0  0  0  0
    4.0243   20.1368   38.6336 C   0  0  0  0  0  0  0  0  0  0  0  0
    4.4657   17.3906   39.1326 O   0  0  0  0  0  0  0  0  0  0  0  0
    3.1050   19.3226   39.4838 C   0  0  0  0  0  0  0  0  0  0  0  0
    5.4382   23.8757   28.5142 C   0  0  0  0  0  0  0  0  0  0  0  0
    4.8822   24.9315   27.3098 S   0  0  0  0  0  0  0  0  0  0  0  0
    3.6761   21.6212   35.1376 N   0  0  0  0  0  0  0  0  0  0  0  0
    2.0414   21.7599   36.8448 O   0  0  0  0  0  0  0  0  0  0  0  0
    3.6833   20.0058   37.1711 C   0  0  0  0  0  0  0  0  0  0  0  0
    2.7140   25.0741   28.9453 C   0  0  0  0  0  0  0  0  0  0  0  0
    2.1350   18.3144   42.0117 C   0  0  0  0  0  0  0  0  0  0  0  0
    0.0093   19.6347   43.2291 C   0  0  0  0  0  0  0  0  0  0  0  0
    1.4891   17.7291   43.0902 C   0  0  0  0  0  0  0  0  0  0  0  0
    3.1226   21.2310   36.4071 C   0  0  0  0  0  0  0  0  0  0  0  0
    3.5857   16.5848   41.7409 H   0  0  0  0  0  0  0  0  0  0  0  0
    1.9300   22.9632   34.6821 H   0  0  0  0  0  0  0  0  0  0  0  0
   -0.2690   17.9186   44.4019 H   0  0  0  0  0  0  0  0  0  0  0  0
    2.8180   23.2104   29.9309 H   0  0  0  0  0  0  0  0  0  0  0  0
    3.2247   24.7347   30.9247 H   0  0  0  0  0  0  0  0  0  0  0  0
   -0.1498   22.1981   42.6423 H   0  0  0  0  0  0  0  0  0  0  0  0
    0.9478   22.1910   41.2203 H   0  0  0  0  0  0  0  0  0  0  0  0
   -0.7170   21.5328   41.0731 H   0  0  0  0  0  0  0  0  0  0  0  0
    5.3703   24.6686   30.4638 H   0  0  0  0  0  0  0  0  0  0  0  0
    4.9729   22.8703   30.2677 H   0  0  0  0  0  0  0  0  0  0  0  0
    6.2887   17.4236   39.7159 H   0  0  0  0  0  0  0  0  0  0  0  0
    5.8560   16.3219   38.3647 H   0  0  0  0  0  0  0  0  0  0  0  0
    5.9105   18.0968   38.0941 H   0  0  0  0  0  0  0  0  0  0  0  0
    2.7959   23.7495   27.2315 H   0  0  0  0  0  0  0  0  0  0  0  0
    2.5986   25.4845   26.8190 H   0  0  0  0  0  0  0  0  0  0  0  0
    3.9407   21.1937   38.9271 H   0  0  0  0  0  0  0  0  0  0  0  0
    5.0502   19.7693   38.7836 H   0  0  0  0  0  0  0  0  0  0  0  0
    6.5130   24.0768   28.6347 H   0  0  0  0  0  0  0  0  0  0  0  0
    5.1335   22.8903   28.1319 H   0  0  0  0  0  0  0  0  0  0  0  0
    4.4853   21.1388   34.7212 H   0  0  0  0  0  0  0  0  0  0  0  0
    4.6047   19.7000   36.6538 H   0  0  0  0  0  0  0  0  0  0  0  0
    2.8473   19.2911   37.1633 H   0  0  0  0  0  0  0  0  0  0  0  0
    3.0121   26.1091   29.1685 H   0  0  0  0  0  0  0  0  0  0  0  0
    1.6297   24.9001   29.0094 H   0  0  0  0  0  0  0  0  0  0  0  0
   -0.7943   20.1808   43.7450 H   0  0  0  0  0  0  0  0  0  0  0  0
    1.8378   16.7764   43.5153 H   0  0  0  0  0  0  0  0  0  0  0  0
  1 23  1  0
  2 19  1  0
  5  1  2  0
  6  9  1  0
  7  4  1  0
  8 13  1  0
  9 24  1  0
 10  2  2  0
 11 15  1  0
 12 22  1  0
 13 23  1  0
 13  9  2  0
 14 16  1  0
 15  5  1  0
 16  5  1  0
 16  8  2  0
 17  7  1  0
 18 12  1  0
 18 17  1  0
 19 26  1  0
 21 14  1  0
 22  4  1  0
 23 25  2  0
 24  3  2  0
 25  3  1  0
 26 21  1  0
 26 20  2  0
  1 27  1  0
  2 28  1  0
  3 29  1  0
  4 30  1  0
  4 31  1  0
  6 32  1  0
  6 33  1  0
  6 34  1  0
  7 35  1  0
  7 36  1  0
 11 37  1  0
 11 38  1  0
 11 39  1  0
 12 40  1  0
 12 41  1  0
 14 42  1  0
 14 43  1  0
 17 44  1  0
 17 45  1  0
 19 46  1  0
 21 47  1  0
 21 48  1  0
 22 49  1  0
 22 50  1  0
 24 51  1  0
 25 52  1  0
M  END
>  <mol_id>  (12) 
2026-09-18-3war-s0-n100-0012

>  <rmsd_to_ref>  (12) 


$$$$

     RDKit          3D

 99103  0  0  0  0  0  0  0  0999 V2000
    5.1020   24.2319   28.0391 C   0  0  0  0  0  0  0  0  0  0  0  0
    3.7334   15.6331   37.7616 C   0  0  1  0  0  0  0  0  0  0  0  0
    5.6898   14.2483   37.3116 O   0  0  0  0  0  0  0  0  0  0  0  0
    0.9188   15.9803   42.2347 C   0  0  0  0  0  0  0  0  0  0  0  0
    2.4219   25.2615   33.0262 C   0  0  0  0  0  0  0  0  0  0  0  0
    3.1801   27.2819   31.6007 C   0  0  1  0  0  0  0  0  0  0  0  0
    2.2854   18.9051   39.9477 C   0  0  2  0  0  0  0  0  0  0  0  0
    3.9357   27.0234   30.1567 C   0  0  1  0  0  0  0  0  0  0  0  0
    1.7538   22.7657   37.0935 C   0  0  0  0  0  0  0  0  0  0  0  0
    2.3017   19.8678   41.5547 C   0  0  0  0  0  0  0  0  0  0  0  0
    4.1642   24.7732   30.6288 C   0  0  0  0  0  0  0  0  0  0  0  0
    2.0673   28.3689   31.5651 C   0  0  0  0  0  0  0  0  0  0  0  0
    1.6841   23.4264   35.6558 C   0  0  0  0  0  0  0  0  0  0  0  0
    1.4908   25.7449   32.1124 C   0  0  0  0  0  0  0  0  0  0  0  0
    1.1850   20.8488   41.6350 C   0  0  0  0  0  0  0  0  0  0  0  0
    2.5703   14.8399   38.3787 C   0  0  0  0  0  0  0  0  0  0  0  0
    2.1916   17.5784   38.9757 C   0  0  1  0  0  0  0  0  0  0  0  0
    3.3226   16.8863   38.4489 C   0  0  0  0  0  0  0  0  0  0  0  0
    1.5413   22.0020   40.5305 C   0  0  0  0  0  0  0  0  0  0  0  0
    2.2556   20.1825   39.0935 N   0  0  0  0  0  0  0  0  0  0  0  0
    4.5018   14.5327   36.7144 C   0  0  1  0  0  0  0  0  0  0  0  0
    3.1376   19.5257   37.0286 O   0  0  0  0  0  0  0  0  0  0  0  0
    3.4383   13.5039   36.4888 C   0  0  2  0  0  0  0  0  0  0  0  0
    1.1850   17.3082   41.3317 C   0  0  0  0  0  0  0  0  0  0  0  0
    2.7513   22.8312   34.8472 C   0  0  1  0  0  0  0  0  0  0  0  0
    2.7786   20.1680   37.7661 C   0  0  0  0  0  0  0  0  0  0  0  0
    3.4041   23.0391   33.4058 C   0  0  0  0  0  0  0  0  0  0  0  0
    1.7787   26.8068   31.1185 C   0  0  2  0  0  0  0  0  0  0  0  0
    2.6179   21.6034   36.9011 C   0  0  1  0  0  0  0  0  0  0  0  0
    5.0110   26.5381   28.9571 C   0  0  0  0  0  0  0  0  0  0  0  0
    4.7861   25.7278   28.2364 C   0  0  0  0  0  0  0  0  0  0  0  0
    1.8174   21.5961   39.4278 C   0  0  0  0  0  0  0  0  0  0  0  0
    2.8643   13.3082   35.0160 C   0  0  0  0  0  0  0  0  0  0  0  0
    3.2489   21.4774   35.6931 C   0  0  0  0  0  0  0  0  0  0  0  0
    2.9749   14.1614   39.5082 O   0  0  0  0  0  0  0  0  0  0  0  0
    2.3347   14.1151   35.9828 O   0  0  0  0  0  0  0  0  0  0  0  0
    3.0275   26.8760   29.8715 C   0  0  2  0  0  0  0  0  0  0  0  0
    3.2442   24.3052   32.9818 C   0  0  0  0  0  0  0  0  0  0  0  0
    3.4502   25.5425   29.5649 N   0  0  0  0  0  0  0  0  0  0  0  0
    2.0619   17.0134   40.2851 O   0  0  0  0  0  0  0  0  0  0  0  0
    5.2204   23.7496   29.0205 H   0  0  0  0  0  0  0  0  0  0  0  0
    4.2771   23.7521   27.4918 H   0  0  0  0  0  0  0  0  0  0  0  0
    6.0338   24.1267   27.4639 H   0  0  0  0  0  0  0  0  0  0  0  0
    3.0984   15.8960   36.9027 H   0  0  0  0  0  0  0  0  0  0  0  0
    5.5995   14.3520   38.2920 H   0  0  0  0  0  0  0  0  0  0  0  0
    0.9521   16.2491   43.3008 H   0  0  0  0  0  0  0  0  0  0  0  0
   -0.0701   15.5642   41.9922 H   0  0  0  0  0  0  0  0  0  0  0  0
    1.6946   15.2302   42.0213 H   0  0  0  0  0  0  0  0  0  0  0  0
    3.0575   26.1358   33.2301 H   0  0  0  0  0  0  0  0  0  0  0  0
    1.6949   24.7625   33.6838 H   0  0  0  0  0  0  0  0  0  0  0  0
    3.9338   27.1279   32.3870 H   0  0  0  0  0  0  0  0  0  0  0  0
    1.1941   19.0281   39.8850 H   0  0  0  0  0  0  0  0  0  0  0  0
    4.9523   27.4036   30.3356 H   0  0  0  0  0  0  0  0  0  0  0  0
    2.1908   23.4623   37.8242 H   0  0  0  0  0  0  0  0  0  0  0  0
    0.7622   22.4982   37.4873 H   0  0  0  0  0  0  0  0  0  0  0  0
    2.2124   19.1603   42.3922 H   0  0  0  0  0  0  0  0  0  0  0  0
    3.2470   20.4283   41.6025 H   0  0  0  0  0  0  0  0  0  0  0  0
    3.8932   25.1750   31.6163 H   0  0  0  0  0  0  0  0  0  0  0  0
    3.8746   23.7136   30.5721 H   0  0  0  0  0  0  0  0  0  0  0  0
    5.2503   24.8649   30.4813 H   0  0  0  0  0  0  0  0  0  0  0  0
    1.6480   28.7654   32.5015 H   0  0  0  0  0  0  0  0  0  0  0  0
    1.9448   29.3583   31.1003 H   0  0  0  0  0  0  0  0  0  0  0  0
    0.7059   23.2229   35.1957 H   0  0  0  0  0  0  0  0  0  0  0  0
    1.8105   24.5170   35.7233 H   0  0  0  0  0  0  0  0  0  0  0  0
    1.1641   24.8713   31.5292 H   0  0  0  0  0  0  0  0  0  0  0  0
    0.7931   26.2689   32.7822 H   0  0  0  0  0  0  0  0  0  0  0  0
    0.2283   20.3640   41.3906 H   0  0  0  0  0  0  0  0  0  0  0  0
    1.0805   21.2687   42.6463 H   0  0  0  0  0  0  0  0  0  0  0  0
    1.7635   15.5371   38.6485 H   0  0  0  0  0  0  0  0  0  0  0  0
    2.2171   14.1064   37.6390 H   0  0  0  0  0  0  0  0  0  0  0  0
    1.5811   17.6382   38.0626 H   0  0  0  0  0  0  0  0  0  0  0  0
    3.9689   16.8498   39.3383 H   0  0  0  0  0  0  0  0  0  0  0  0
    3.2271   17.4117   37.4872 H   0  0  0  0  0  0  0  0  0  0  0  0
    0.6685   22.6652   40.4390 H   0  0  0  0  0  0  0  0  0  0  0  0
    2.4447   22.5079   40.9017 H   0  0  0  0  0  0  0  0  0  0  0  0
    4.8250   14.8133   35.7011 H   0  0  0  0  0  0  0  0  0  0  0  0
    3.7560   12.8060   37.2774 H   0  0  0  0  0  0  0  0  0  0  0  0
    0.2300   17.6624   40.9165 H   0  0  0  0  0  0  0  0  0  0  0  0
    1.6323   18.0886   41.9650 H   0  0  0  0  0  0  0  0  0  0  0  0
    1.9360   22.2484   34.3940 H   0  0  0  0  0  0  0  0  0  0  0  0
    4.4789   22.8115   33.4615 H   0  0  0  0  0  0  0  0  0  0  0  0
    2.9037   22.3657   32.6943 H   0  0  0  0  0  0  0  0  0  0  0  0
    2.7545   22.1844   37.8251 H   0  0  0  0  0  0  0  0  0  0  0  0
    5.2141   27.4339   28.3519 H   0  0  0  0  0  0  0  0  0  0  0  0
    5.8156   26.0839   29.5541 H   0  0  0  0  0  0  0  0  0  0  0  0
    5.1508   26.1599   27.2928 H   0  0  0  0  0  0  0  0  0  0  0  0
    3.8018   25.5226   28.6825 H   0  0  0  0  0  0  0  0  0  0  0  0
    2.6330   22.2444   39.0750 H   0  0  0  0  0  0  0  0  0  0  0  0
    0.8199   21.6035   38.9641 H   0  0  0  0  0  0  0  0  0  0  0  0
    2.3645   12.3731   34.7232 H   0  0  0  0  0  0  0  0  0  0  0  0
    3.2284   13.4115   33.9832 H   0  0  0  0  0  0  0  0  0  0  0  0
    2.9350   20.5564   35.1801 H   0  0  0  0  0  0  0  0  0  0  0  0
    4.3428   21.4100   35.7869 H   0  0  0  0  0  0  0  0  0  0  0  0
    2.7317   14.6849   40.3126 H   0  0  0  0  0  0  0  0  0  0  0  0
    2.5615   27.5933   29.1798 H   0  0  0  0  0  0  0  0  0  0  0  0
    3.3635   24.1802   31.8954 H   0  0  0  0  0  0  0  0  0  0  0  0
    3.8124   24.7035   33.8352 H   0  0  0  0  0  0  0  0  0  0  0  0
    2.6093   25.0052   29.3099 H   0  0  0  0  0  0  0  0  0  0  0  0
    4.1489   25.6585   28.8171 H   0  0  0  0  0  0  0  0  0  0  0  0
  1 31  1  0
  2 16  1  0
  2 18  1  0
  6 12  1  0
  7 17  1  0
  7 10  1  0
  8 30  1  0
  8  6  1  0
 10 15  1  0
 13  9  1  0
 14  5  1  0
 16 35  1  0
 17 18  1  0
 17 40  1  0
 19 15  1  0
 20 32  1  0
 20  7  1  0
 21  3  1  0
 21  2  1  0
 22 26  2  0
 23 21  1  0
 24  4  1  0
 25 27  1  0
 25 34  1  0
 25 13  1  0
 26 20  1  0
 28  6  1  0
 28 12  1  0
 28 14  1  1
 29  9  1  0
 29 26  1  0
 31 30  1  0
 32 19  1  0
 33 36  1  0
 33 23  1  0
 34 29  1  0
 36 23  1  0
 37 39  1  0
 37  8  1  0
 37 28  1  0
 38  5  1  0
 38 27  1  0
 39 11  1  0
 40 24  1  0
  1 41  1  0
  1 42  1  0
  1 43  1  0
  2 44  1  1
  3 45  1  0
  4 46  1  0
  4 47  1  0
  4 48  1  0
  5 49  1  0
  5 50  1  0
  6 51  1  1
  7 52  1  6
  8 53  1  6
  9 54  1  0
  9 55  1  0
 10 56  1  0
 10 57  1  0
 11 58  1  0
 11 59  1  0
 11 60  1  0
 12 61  1  0
 12 62  1  0
 13 63  1  0
 13 64  1  0
 14 65  1  0
 14 66  1  0
 15 67  1  0
 15 68  1  0
 16 69  1  0
 16 70  1  0
 17 71  1  6
 18 72  1  0
 18 73  1  0
 19 74  1  0
 19 75  1  0
 21 76  1  6
 23 77  1  1
 24 78  1  0
 24 79  1  0
 25 80  1  1
 27 81  1  0
 27 82  1  0
 29 83  1  1
 30 84  1  0
 30 85  1  0
 31 86  1  0
 31 87  1  0
 32 88  1  0
 32 89  1  0
 33 90  1  0
 33 91  1  0
 34 92  1  0
 34 93  1  0
 35 94  1  0
 37 95  1  6
 38 96  1  0
 38 97  1  0
 39 98  1  0
 39 99  1  0
M  CHG  1  39   1
M  END
>  <mol_id>  (13) 
2026-09-18-3war-s0-n100-0013

>  <rmsd_to_ref>  (13) 


$$$$

     RDKit          3D

 76 79  0  0  0  0  0  0  0  0999 V2000
    0.1370   19.5780   42.2930 C   0  0  0  0  0  0  0  0  0  0  0  0
    3.5320   21.8840   32.1760 C   0  0  0  0  0  0  0  0  0  0  0  0
    0.9330   18.4640   42.1210 C   0  0  0  0  0  0  0  0  0  0  0  0
    3.2550   12.9070   36.0630 O   0  0  0  0  0  0  0  0  0  0  0  0
    3.6610   17.7590   37.7840 C   0  0  0  0  0  0  0  0  0  0  0  0
    3.3910   14.2600   37.5160 O   0  0  0  0  0  0  0  0  0  0  0  0
    1.5400   21.3160   39.1940 C   0  0  0  0  0  0  0  0  0  0  0  0
    3.9540   25.6470   31.7140 C   0  0  0  0  0  0  0  0  0  0  0  0
    3.1600   16.4780   38.1250 C   0  0  1  0  0  0  0  0  0  0  0  0
    2.7590   25.4800   31.7440 O   0  0  0  0  0  0  0  0  0  0  0  0
    2.9960   20.8790   35.7670 C   0  0  0  0  0  0  0  0  0  0  0  0
    3.7750   15.4260   37.2350 C   0  0  0  0  0  0  0  0  0  0  0  0
    1.7370   24.8150   29.0680 C   0  0  1  0  0  0  0  0  0  0  0  0
    3.7840   19.7770   36.6310 C   0  0  0  0  0  0  0  0  0  0  0  0
    3.5640   13.1090   36.8890 C   0  0  0  0  0  0  0  0  0  0  0  0
    2.0370   26.4640   31.0180 C   0  0  2  0  0  0  0  0  0  0  0  0
    2.0080   23.8190   29.7750 C   0  0  0  0  0  0  0  0  0  0  0  0
    0.6120   25.8120   29.1720 C   0  0  0  0  0  0  0  0  0  0  0  0
    4.4230   24.0290   31.2280 C   0  0  1  0  0  0  0  0  0  0  0  0
    2.5290   18.5480   39.3970 N   0  0  0  0  0  0  0  0  0  0  0  0
    2.2520   20.6550   38.1750 N   0  0  0  0  0  0  0  0  0  0  0  0
    3.0330   19.3410   38.1210 C   0  0  2  0  0  0  0  0  0  0  0  0
    2.1470   19.2150   40.3030 C   0  0  0  0  0  0  0  0  0  0  0  0
    3.7970   23.3370   32.3770 C   0  0  0  0  0  0  0  0  0  0  0  0
    3.0270   24.8110   29.1680 C   0  0  2  0  0  0  0  0  0  0  0  0
    2.7450   15.9230   39.1780 C   0  0  0  0  0  0  0  0  0  0  0  0
    1.1140   27.2550   31.8410 C   0  0  0  0  0  0  0  0  0  0  0  0
    2.1170   18.6020   41.3580 N   0  0  0  0  0  0  0  0  0  0  0  0
    1.4100   20.2910   40.2890 C   0  0  1  0  0  0  0  0  0  0  0  0
    0.4610   20.5250   41.4760 C   0  0  0  0  0  0  0  0  0  0  0  0
    2.2870   15.4350   40.0970 N   0  0  0  0  0  0  0  0  0  0  0  0
    0.5850   26.4060   30.6400 C   0  0  2  0  0  0  0  0  0  0  0  0
    4.2860   24.3790   29.8940 C   0  0  0  0  0  0  0  0  0  0  0  0
   -0.9120   19.2978   42.1167 H   0  0  0  0  0  0  0  0  0  0  0  0
    0.2781   19.9463   43.3199 H   0  0  0  0  0  0  0  0  0  0  0  0
    3.4417   21.3890   33.1542 H   0  0  0  0  0  0  0  0  0  0  0  0
    2.5958   21.7565   31.6127 H   0  0  0  0  0  0  0  0  0  0  0  0
    4.3629   21.4342   31.6127 H   0  0  0  0  0  0  0  0  0  0  0  0
    1.2281   18.1158   43.1218 H   0  0  0  0  0  0  0  0  0  0  0  0
    0.3104   17.7704   41.5369 H   0  0  0  0  0  0  0  0  0  0  0  0
    3.7372   17.7313   36.6870 H   0  0  0  0  0  0  0  0  0  0  0  0
    4.4906   17.7813   38.5060 H   0  0  0  0  0  0  0  0  0  0  0  0
    2.0964   22.1959   39.5492 H   0  0  0  0  0  0  0  0  0  0  0  0
    0.5631   21.6860   38.8493 H   0  0  0  0  0  0  0  0  0  0  0  0
    4.2491   26.4051   30.9736 H   0  0  0  0  0  0  0  0  0  0  0  0
    4.4100   26.0203   32.6428 H   0  0  0  0  0  0  0  0  0  0  0  0
    2.1924   17.0011   38.1140 H   0  0  0  0  0  0  0  0  0  0  0  0
    2.4918   21.5841   36.4442 H   0  0  0  0  0  0  0  0  0  0  0  0
    3.7089   21.4261   35.1326 H   0  0  0  0  0  0  0  0  0  0  0  0
    2.2478   20.3813   35.1326 H   0  0  0  0  0  0  0  0  0  0  0  0
    3.5003   15.6442   36.1924 H   0  0  0  0  0  0  0  0  0  0  0  0
    4.8638   15.4604   37.3876 H   0  0  0  0  0  0  0  0  0  0  0  0
    1.1411   24.9905   28.1602 H   0  0  0  0  0  0  0  0  0  0  0  0
    3.8791   18.8682   36.0187 H   0  0  0  0  0  0  0  0  0  0  0  0
    4.7507   20.2298   36.8964 H   0  0  0  0  0  0  0  0  0  0  0  0
    4.1328   12.3296   37.4172 H   0  0  0  0  0  0  0  0  0  0  0  0
    2.9065   26.6181   30.3621 H   0  0  0  0  0  0  0  0  0  0  0  0
    1.7948   23.8157   30.8541 H   0  0  0  0  0  0  0  0  0  0  0  0
    1.8202   22.7353   29.7573 H   0  0  0  0  0  0  0  0  0  0  0  0
    0.7711   26.6247   28.4480 H   0  0  0  0  0  0  0  0  0  0  0  0
   -0.3455   25.3167   28.9533 H   0  0  0  0  0  0  0  0  0  0  0  0
    5.2389   23.2972   31.1340 H   0  0  0  0  0  0  0  0  0  0  0  0
    1.5478   20.5408   37.4321 H   0  0  0  0  0  0  0  0  0  0  0  0
    3.0804   21.2658   38.2151 H   0  0  0  0  0  0  0  0  0  0  0  0
    2.8378   23.8314   32.5904 H   0  0  0  0  0  0  0  0  0  0  0  0
    4.5196   23.4037   33.2037 H   0  0  0  0  0  0  0  0  0  0  0  0
    3.6442   25.5013   28.5743 H   0  0  0  0  0  0  0  0  0  0  0  0
    0.8935   26.9474   32.8739 H   0  0  0  0  0  0  0  0  0  0  0  0
    1.0443   28.3103   32.1433 H   0  0  0  0  0  0  0  0  0  0  0  0
    2.9848   18.1695   41.7056 H   0  0  0  0  0  0  0  0  0  0  0  0
    0.6463   19.7603   39.7015 H   0  0  0  0  0  0  0  0  0  0  0  0
    0.9226   21.3142   42.0877 H   0  0  0  0  0  0  0  0  0  0  0  0
   -0.4942   20.7288   40.9699 H   0  0  0  0  0  0  0  0  0  0  0  0
   -0.4992   26.2365   30.5635 H   0  0  0  0  0  0  0  0  0  0  0  0
    4.6408   23.4992   29.3372 H   0  0  0  0  0  0  0  0  0  0  0  0
    4.8032   25.3494   29.9224 H   0  0  0  0  0  0  0  0  0  0  0  0
  2 24  1  0
  3  1  1  0
  4 15  2  0
 22  5  1  6
  5  9  1  0
  8 10  1  0
  9 12  1  0
  9 26  1  0
 11 14  1  0
 12  6  1  0
 13 25  1  0
 13 18  1  0
 13 17  1  0
 15  6  1  0
 16 10  1  0
 16 27  1  0
 19  8  1  0
 19 24  1  0
 20 23  2  0
 21  7  1  0
 22 14  1  0
 22 21  1  0
 22 20  1  0
 23 28  1  0
 25 17  1  0
 25 33  1  0
 26 31  3  0
 28  3  1  0
 29  7  1  0
 29 23  1  0
 29 30  1  0
 30  1  1  0
 32 18  1  0
 32 16  1  0
 32 27  1  0
 33 19  1  0
  1 34  1  0
  1 35  1  0
  2 36  1  0
  2 37  1  0
  2 38  1  0
  3 39  1  0
  3 40  1  0
  5 41  1  0
  5 42  1  0
  7 43  1  0
  7 44  1  0
  8 45  1  0
  8 46  1  0
  9 47  1  6
 11 48  1  0
 11 49  1  0
 11 50  1  0
 12 51  1  0
 12 52  1  0
 13 53  1  6
 14 54  1  0
 14 55  1  0
 15 56  1  0
 16 57  1  6
 17 58  1  0
 17 59  1  0
 18 60  1  0
 18 61  1  0
 19 62  1  6
 21 63  1  0
 21 64  1  0
 24 65  1  0
 24 66  1  0
 25 67  1  6
 27 68  1  0
 27 69  1  0
 28 70  1  0
 29 71  1  6
 30 72  1  0
 30 73  1  0
 32 74  1  1
 33 75  1  0
 33 76  1  0
M  CHG  1  21   1
M  END
>  <mol_id>  (14) 
2026-09-18-3war-s0-n100-0014

>  <rmsd_to_ref>  (14) 


$$$$

     RDKit          3D

 44 45  0  0  0  0  0  0  0  0999 V2000
    3.5848   19.4275   36.9943 C   0  0  0  0  0  0  0  0  0  0  0  0
    2.9686   24.0579   34.0330 C   0  0  0  0  0  0  0  0  0  0  0  0
    3.3116   14.4521   34.9636 N   0  0  0  0  0  0  0  0  0  0  0  0
    1.3531   20.5059   40.0869 C   0  0  0  0  0  0  0  0  0  0  0  0
    4.8176   17.5373   38.3270 C   0  0  0  0  0  0  0  0  0  0  0  0
    4.5737   14.7930   35.5973 C   0  0  0  0  0  0  0  0  0  0  0  0
    1.5912   26.0457   33.4894 C   0  0  0  0  0  0  0  0  0  0  0  0
    1.3061   18.2469   41.0097 C   0  0  0  0  0  0  0  0  0  0  0  0
    2.3664   20.1132   39.1664 C   0  0  0  0  0  0  0  0  0  0  0  0
    2.4266   24.5941   35.1333 N   0  0  0  0  0  0  0  0  0  0  0  0
    3.9858   23.0643   33.8261 N   0  0  0  0  0  0  0  0  0  0  0  0
    4.0142   21.8064   34.2813 N   0  0  0  0  0  0  0  0  0  0  0  0
    1.6467   25.7703   34.8174 C   0  0  0  0  0  0  0  0  0  0  0  0
    3.2100   21.6507   35.3947 C   0  0  0  0  0  0  0  0  0  0  0  0
    6.0646   15.0590   34.7554 S   0  0  0  0  0  0  0  0  0  0  0  0
    4.4753   15.4558   36.9199 C   0  0  0  0  0  0  0  0  0  0  0  0
    2.8673   18.7911   39.2376 C   0  0  0  0  0  0  0  0  0  0  0  0
    3.7334   18.5654   38.0387 C   0  0  0  0  0  0  0  0  0  0  0  0
    0.7932   19.5375   40.9508 C   0  0  0  0  0  0  0  0  0  0  0  0
    2.3996   24.7522   32.5929 S   0  0  0  0  0  0  0  0  0  0  0  0
    2.3743   17.8568   40.1329 C   0  0  0  0  0  0  0  0  0  0  0  0
    5.2088   16.6440   37.1513 C   0  0  0  0  0  0  0  0  0  0  0  0
    3.3258   20.2791   35.9050 C   0  0  0  0  0  0  0  0  0  0  0  0
    1.1710   27.2483   32.8004 C   0  0  0  0  0  0  0  0  0  0  0  0
    3.3058   13.9896   34.0433 H   0  0  0  0  0  0  0  0  0  0  0  0
    2.4226   14.6731   35.4345 H   0  0  0  0  0  0  0  0  0  0  0  0
    1.0104   21.5505   40.1250 H   0  0  0  0  0  0  0  0  0  0  0  0
    5.7176   18.0777   38.6557 H   0  0  0  0  0  0  0  0  0  0  0  0
    4.3994   16.8646   39.0903 H   0  0  0  0  0  0  0  0  0  0  0  0
    0.8934   17.5239   41.7285 H   0  0  0  0  0  0  0  0  0  0  0  0
    2.7510   20.8211   38.4174 H   0  0  0  0  0  0  0  0  0  0  0  0
    4.7930   23.3566   33.2570 H   0  0  0  0  0  0  0  0  0  0  0  0
    3.6830   21.1744   33.5385 H   0  0  0  0  0  0  0  0  0  0  0  0
    1.1459   26.3837   35.5810 H   0  0  0  0  0  0  0  0  0  0  0  0
    3.5262   22.3584   36.1752 H   0  0  0  0  0  0  0  0  0  0  0  0
    2.1639   21.8474   35.1171 H   0  0  0  0  0  0  0  0  0  0  0  0
    3.8406   15.0298   37.7108 H   0  0  0  0  0  0  0  0  0  0  0  0
   -0.0622   19.8095   41.5867 H   0  0  0  0  0  0  0  0  0  0  0  0
    2.7912   16.8396   40.1716 H   0  0  0  0  0  0  0  0  0  0  0  0
    6.0473   16.9197   36.4949 H   0  0  0  0  0  0  0  0  0  0  0  0
    3.1148   19.6201   35.0500 H   0  0  0  0  0  0  0  0  0  0  0  0
    0.8184   27.9875   33.5348 H   0  0  0  0  0  0  0  0  0  0  0  0
    2.0205   27.6653   32.2393 H   0  0  0  0  0  0  0  0  0  0  0  0
    0.3551   27.0057   32.1036 H   0  0  0  0  0  0  0  0  0  0  0  0
  1 18  2  0
  2 10  2  0
  3  6  1  0
  4 19  2  0
  6 16  1  0
  7 13  2  0
  9 17  2  0
  9  4  1  0
 11  2  1  0
 11 12  1  0
 12 14  1  0
 13 10  1  0
 14 23  1  0
 15  6  2  0
 16 22  2  3
 17 21  1  0
 18  5  1  0
 18 17  1  0
 19  8  1  0
 20  7  1  0
 20  2  1  0
 21  8  2  0
 22  5  1  0
 23  1  2  0
 24  7  1  0
  3 25  1  0
  3 26  1  0
  4 27  1  0
  5 28  1  0
  5 29  1  0
  8 30  1  0
  9 31  1  0
 11 32  1  0
 12 33  1  0
 13 34  1  0
 14 35  1  0
 14 36  1  0
 16 37  1  0
 19 38  1  0
 21 39  1  0
 22 40  1  0
 23 41  1  0
 24 42  1  0
 24 43  1  0
 24 44  1  0
M  END
>  <mol_id>  (15) 
2026-09-18-3war-s0-n100-0015

>  <rmsd_to_ref>  (15) 


$$$$

     RDKit          3D

 50 54  0  0  0  0  0  0  0  0999 V2000
    2.0923   22.5799   34.0501 C   0  0  0  0  0  0  0  0  0  0  0  0
    2.2776   19.2781   37.3236 O   0  0  0  0  0  0  0  0  0  0  0  0
    4.6835   17.3047   37.9229 O   0  0  0  0  0  0  0  0  0  0  0  0
    1.3858   24.5010   32.0834 C   0  0  0  0  0  0  0  0  0  0  0  0
    1.6116   21.6151   34.6654 C   0  0  0  0  0  0  0  0  0  0  0  0
    2.7745   26.9888   30.6202 O   0  0  0  0  0  0  0  0  0  0  0  0
    2.5606   22.8994   32.9305 C   0  0  0  0  0  0  0  0  0  0  0  0
    1.1824   19.8556   41.3665 C   0  0  0  0  0  0  0  0  0  0  0  0
    3.7474   17.7423   38.4837 C   0  0  0  0  0  0  0  0  0  0  0  0
    2.9946   19.0267   38.3577 C   0  0  0  0  0  0  0  0  0  0  0  0
    1.8453   23.5718   32.8629 C   0  0  0  0  0  0  0  0  0  0  0  0
    2.1356   26.2384   30.2539 C   0  0  1  0  0  0  0  0  0  0  0  0
    1.3477   17.4532   42.2230 C   0  0  0  0  0  0  0  0  0  0  0  0
    2.9905   19.5505   39.7275 C   0  0  1  0  0  0  0  0  0  0  0  0
    1.6512   18.5554   41.2812 C   0  0  1  0  0  0  0  0  0  0  0  0
    3.2479   17.3237   39.7019 C   0  0  1  0  0  0  0  0  0  0  0  0
    1.8839   20.7503   40.1039 S   0  0  0  0  0  0  0  0  0  0  0  0
    3.3082   26.4272   29.8558 C   0  0  2  0  0  0  0  0  0  0  0  0
    4.1987   23.4049   31.3947 C   0  0  0  0  0  0  0  0  0  0  0  0
    3.7371   22.5293   31.9572 C   0  0  0  0  0  0  0  0  0  0  0  0
    2.5086   18.4215   40.2816 N   0  0  0  0  0  0  0  0  0  0  0  0
    4.2623   25.6263   30.1355 C   0  0  0  0  0  0  0  0  0  0  0  0
    3.4223   14.6488   39.2509 C   0  0  0  0  0  0  0  0  0  0  0  0
    3.6176   24.7678   31.0349 C   0  0  0  0  0  0  0  0  0  0  0  0
    2.1369   25.1153   31.1766 C   0  0  0  0  0  0  0  0  0  0  0  0
    2.0161   15.0802   39.1702 O   0  0  0  0  0  0  0  0  0  0  0  0
    3.0498   15.8385   39.4124 C   0  0  1  0  0  0  0  0  0  0  0  0
    2.1159   23.4562   34.7147 H   0  0  0  0  0  0  0  0  0  0  0  0
    0.3293   24.7925   32.1772 H   0  0  0  0  0  0  0  0  0  0  0  0
    1.2921   21.7337   35.7113 H   0  0  0  0  0  0  0  0  0  0  0  0
    1.5051   20.6414   34.1648 H   0  0  0  0  0  0  0  0  0  0  0  0
    0.0870   19.8648   41.2667 H   0  0  0  0  0  0  0  0  0  0  0  0
    1.4480   20.2946   42.3394 H   0  0  0  0  0  0  0  0  0  0  0  0
    2.0092   24.1417   33.7894 H   0  0  0  0  0  0  0  0  0  0  0  0
    1.1453   22.8322   32.4471 H   0  0  0  0  0  0  0  0  0  0  0  0
    1.1269   26.1784   29.8193 H   0  0  0  0  0  0  0  0  0  0  0  0
    1.4428   17.8174   43.2566 H   0  0  0  0  0  0  0  0  0  0  0  0
    0.3208   17.0976   42.0526 H   0  0  0  0  0  0  0  0  0  0  0  0
    2.0541   16.6260   42.0591 H   0  0  0  0  0  0  0  0  0  0  0  0
    3.9521   20.0043   40.0096 H   0  0  0  0  0  0  0  0  0  0  0  0
    2.5271   18.8316   41.8867 H   0  0  0  0  0  0  0  0  0  0  0  0
    3.6686   17.1891   40.7093 H   0  0  0  0  0  0  0  0  0  0  0  0
    3.8279   26.6278   28.9073 H   0  0  0  0  0  0  0  0  0  0  0  0
    5.2321   23.2409   31.0556 H   0  0  0  0  0  0  0  0  0  0  0  0
    4.0904   21.4957   31.8282 H   0  0  0  0  0  0  0  0  0  0  0  0
    4.6165   25.0888   29.2435 H   0  0  0  0  0  0  0  0  0  0  0  0
    5.1669   26.1109   30.5316 H   0  0  0  0  0  0  0  0  0  0  0  0
    3.9695   14.3519   38.3439 H   0  0  0  0  0  0  0  0  0  0  0  0
    3.9981   13.9078   39.8247 H   0  0  0  0  0  0  0  0  0  0  0  0
    3.1680   16.0219   38.3343 H   0  0  0  0  0  0  0  0  0  0  0  0
  1  5  2  3
  2 10  2  0
  3  9  2  0
  4 11  1  0
  7  1  1  0
 10  9  1  0
 11  7  1  0
 12  6  1  0
 12 25  1  0
 14 10  1  0
 14 17  1  0
 14 21  1  0
 15  8  1  0
 15 13  1  0
 16  9  1  0
 16 21  1  0
 17  8  1  0
 18 22  1  0
 18 12  1  0
 18  6  1  0
 19 20  1  0
 20  7  2  0
 21 15  1  0
 22 24  1  0
 23 27  1  0
 24 25  1  0
 24 19  2  0
 25  4  2  0
 26 23  1  0
 26 27  1  0
 27 16  1  0
  1 28  1  0
  4 29  1  0
  5 30  1  0
  5 31  1  0
  8 32  1  0
  8 33  1  0
 11 34  1  0
 11 35  1  0
 12 36  1  6
 13 37  1  0
 13 38  1  0
 13 39  1  0
 14 40  1  1
 15 41  1  6
 16 42  1  1
 18 43  1  6
 19 44  1  0
 20 45  1  0
 22 46  1  0
 22 47  1  0
 23 48  1  0
 23 49  1  0
 27 50  1  6
M  END
>  <mol_id>  (16) 
2026-09-18-3war-s0-n100-0016

>  <rmsd_to_ref>  (16) 


$$$$

     RDKit          3D

 83 88  0  0  0  0  0  0  0  0999 V2000
    1.3110   26.6730   32.6350 C   0  0  2  0  0  0  0  0  0  0  0  0
    2.6130   23.0340   34.4370 C   0  0  0  0  0  0  0  0  0  0  0  0
    3.1210   24.3770   33.4820 C   0  0  2  0  0  0  0  0  0  0  0  0
    3.6810   24.8570   32.1070 C   0  0  1  0  0  0  0  0  0  0  0  0
    0.1530   19.6300   42.3360 C   0  0  0  0  0  0  0  0  0  0  0  0
    2.2900   18.3760   39.2660 C   0  0  1  0  0  0  0  0  0  0  0  0
    3.1050   15.5560   38.3040 C   0  0  1  0  0  0  0  0  0  0  0  0
    1.0290   18.7200   41.5330 C   0  0  0  0  0  0  0  0  0  0  0  0
    2.7940   21.2260   36.2990 C   0  0  0  0  0  0  0  0  0  0  0  0
   -1.0370   21.6740   42.6920 O   0  0  0  0  0  0  0  0  0  0  0  0
    3.9300   13.1560   38.2280 C   0  0  0  0  0  0  0  0  0  0  0  0
    0.0890   21.0330   41.9710 C   0  0  0  0  0  0  0  0  0  0  0  0
    4.5730   23.5900   33.0340 C   0  0  1  0  0  0  0  0  0  0  0  0
    1.9910   28.4080   34.3440 C   0  0  0  0  0  0  0  0  0  0  0  0
    2.6570   18.9440   37.8280 C   0  0  0  0  0  0  0  0  0  0  0  0
    4.9880   24.5820   31.8900 C   0  0  0  0  0  0  0  0  0  0  0  0
    1.6370   19.3560   40.2010 C   0  0  0  0  0  0  0  0  0  0  0  0
    4.4390   27.5380   34.3130 C   0  0  0  0  0  0  0  0  0  0  0  0
    1.9640   16.7990   40.0140 C   0  0  0  0  0  0  0  0  0  0  0  0
    0.8260   26.4500   30.9610 C   0  0  0  0  0  0  0  0  0  0  0  0
    3.6940   16.7910   37.6160 C   0  0  0  0  0  0  0  0  0  0  0  0
    1.5660   20.6520   39.8380 C   0  0  0  0  0  0  0  0  0  0  0  0
    2.1700   29.2700   35.2480 O   0  0  0  0  0  0  0  0  0  0  0  0
    2.5990   14.1600   36.3640 N   0  0  0  0  0  0  0  0  0  0  0  0
    1.1130   21.6350   40.8210 C   0  0  0  0  0  0  0  0  0  0  0  0
    1.9620   21.0800   38.5400 C   0  0  0  0  0  0  0  0  0  0  0  0
    2.4280   20.3800   37.4350 C   0  0  0  0  0  0  0  0  0  0  0  0
    2.7780   13.0370   35.7270 C   0  0  0  0  0  0  0  0  0  0  0  0
    3.8110   12.0700   35.7530 N   0  0  0  0  0  0  0  0  0  0  0  0
    1.7890   12.7760   34.6600 N   0  0  0  0  0  0  0  0  0  0  0  0
    3.5500   26.3690   31.8510 C   0  0  1  0  0  0  0  0  0  0  0  0
    0.5560   27.8910   33.5790 S   0  0  0  0  0  0  0  0  0  0  0  0
    3.2170   14.2790   37.5340 C   0  0  2  0  0  0  0  0  0  0  0  0
    3.1520   27.4890   33.8210 C   0  0  2  0  0  0  0  0  0  0  0  0
    2.6390   26.9410   32.6920 N   0  0  0  0  0  0  0  0  0  0  0  0
    2.6150   15.4220   39.7880 C   0  0  0  0  0  0  0  0  0  0  0  0
    4.9570   12.3730   37.0760 S   0  0  0  0  0  0  0  0  0  0  0  0
    3.1720   22.0940   35.4120 C   0  0  0  0  0  0  0  0  0  0  0  0
    4.5730   27.1840   31.2670 C   0  0  0  0  0  0  0  0  0  0  0  0
    0.9888   25.7182   33.0761 H   0  0  0  0  0  0  0  0  0  0  0  0
    2.2221   22.3506   33.6688 H   0  0  0  0  0  0  0  0  0  0  0  0
    2.1856   23.6790   35.2189 H   0  0  0  0  0  0  0  0  0  0  0  0
    2.4192   25.0928   33.9350 H   0  0  0  0  0  0  0  0  0  0  0  0
   -0.4300   19.2434   43.1849 H   0  0  0  0  0  0  0  0  0  0  0  0
    3.2837   18.0652   38.9112 H   0  0  0  0  0  0  0  0  0  0  0  0
    2.2924   16.2907   38.4037 H   0  0  0  0  0  0  0  0  0  0  0  0
    1.8671   18.4046   42.1719 H   0  0  0  0  0  0  0  0  0  0  0  0
    0.3857   17.8896   41.2066 H   0  0  0  0  0  0  0  0  0  0  0  0
   -1.2260   22.6366   42.5590 H   0  0  0  0  0  0  0  0  0  0  0  0
    4.5350   13.5543   39.0559 H   0  0  0  0  0  0  0  0  0  0  0  0
    3.2025   12.4394   38.6370 H   0  0  0  0  0  0  0  0  0  0  0  0
    5.0862   22.7363   33.5006 H   0  0  0  0  0  0  0  0  0  0  0  0
    3.7332   18.7601   37.6941 H   0  0  0  0  0  0  0  0  0  0  0  0
    1.9298   18.4204   37.1901 H   0  0  0  0  0  0  0  0  0  0  0  0
    5.7144   25.3671   32.1469 H   0  0  0  0  0  0  0  0  0  0  0  0
    5.4736   24.3390   30.9334 H   0  0  0  0  0  0  0  0  0  0  0  0
    4.4114   27.5370   35.4127 H   0  0  0  0  0  0  0  0  0  0  0  0
    5.0004   26.6606   33.9594 H   0  0  0  0  0  0  0  0  0  0  0  0
    4.9320   28.4556   33.9594 H   0  0  0  0  0  0  0  0  0  0  0  0
    2.1031   16.9833   41.0895 H   0  0  0  0  0  0  0  0  0  0  0  0
    1.0211   16.5913   39.4869 H   0  0  0  0  0  0  0  0  0  0  0  0
   -0.1729   25.9907   30.9267 H   0  0  0  0  0  0  0  0  0  0  0  0
    0.7984   27.4259   30.4541 H   0  0  0  0  0  0  0  0  0  0  0  0
    1.5489   25.7938   30.4541 H   0  0  0  0  0  0  0  0  0  0  0  0
    4.0356   17.5072   38.3778 H   0  0  0  0  0  0  0  0  0  0  0  0
    4.5454   16.4898   36.9880 H   0  0  0  0  0  0  0  0  0  0  0  0
    2.9241   17.2630   36.9880 H   0  0  0  0  0  0  0  0  0  0  0  0
    1.9979   22.0451   41.3297 H   0  0  0  0  0  0  0  0  0  0  0  0
    0.5458   22.3955   40.2643 H   0  0  0  0  0  0  0  0  0  0  0  0
    1.0738   21.6049   38.1583 H   0  0  0  0  0  0  0  0  0  0  0  0
    2.9322   21.5039   38.8383 H   0  0  0  0  0  0  0  0  0  0  0  0
    3.8887   11.2877   35.0875 H   0  0  0  0  0  0  0  0  0  0  0  0
    0.9862   13.4092   34.5359 H   0  0  0  0  0  0  0  0  0  0  0  0
    1.9027   11.9609   34.0406 H   0  0  0  0  0  0  0  0  0  0  0  0
    3.1842   26.3538   30.8137 H   0  0  0  0  0  0  0  0  0  0  0  0
    2.2858   14.0087   38.0534 H   0  0  0  0  0  0  0  0  0  0  0  0
    3.7889   26.7403   34.3148 H   0  0  0  0  0  0  0  0  0  0  0  0
    1.8841   14.6075   39.8991 H   0  0  0  0  0  0  0  0  0  0  0  0
    3.4114   15.1761   40.5058 H   0  0  0  0  0  0  0  0  0  0  0  0
    4.2707   22.1389   35.3822 H   0  0  0  0  0  0  0  0  0  0  0  0
    5.1656   27.6561   32.0645 H   0  0  0  0  0  0  0  0  0  0  0  0
    5.2292   26.5584   30.6440 H   0  0  0  0  0  0  0  0  0  0  0  0
    4.1099   27.9634   30.6440 H   0  0  0  0  0  0  0  0  0  0  0  0
  1 20  1  0
  1 35  1  0
  1 32  1  0
  2 38  1  0
  3  2  1  0
  4 31  1  0
  4 13  1  0
  4  3  1  0
  6 19  1  0
  6 17  1  0
  7 21  1  0
  7 36  1  0
  8  5  1  0
  9 27  2  0
 12  5  2  0
 12 10  1  0
 13 16  1  0
 13  3  1  0
 14 23  2  0
 15  6  1  0
  4 16  1  6
 17  8  1  0
 22 17  2  0
 22 25  1  0
 24 33  1  0
 25 12  1  0
 26 22  1  0
 27 15  1  0
 27 26  1  0
 28 29  1  0
 28 24  2  0
 29 37  1  0
 30 28  1  0
 31 39  1  0
 31 35  1  0
 32 14  1  0
 33 11  1  0
 33  7  1  0
 34 18  1  0
 34 14  1  0
 35 34  1  0
 36 19  1  0
 37 11  1  0
 38  9  2  0
  1 40  1  1
  2 41  1  0
  2 42  1  0
  3 43  1  1
  5 44  1  0
  6 45  1  1
  7 46  1  6
  8 47  1  0
  8 48  1  0
 10 49  1  0
 11 50  1  0
 11 51  1  0
 13 52  1  6
 15 53  1  0
 15 54  1  0
 16 55  1  0
 16 56  1  0
 18 57  1  0
 18 58  1  0
 18 59  1  0
 19 60  1  0
 19 61  1  0
 20 62  1  0
 20 63  1  0
 20 64  1  0
 21 65  1  0
 21 66  1  0
 21 67  1  0
 25 68  1  0
 25 69  1  0
 26 70  1  0
 26 71  1  0
 29 72  1  0
 30 73  1  0
 30 74  1  0
 31 75  1  6
 33 76  1  6
 34 77  1  1
 36 78  1  0
 36 79  1  0
 38 80  1  0
 39 81  1  0
 39 82  1  0
 39 83  1  0
M  END
>  <mol_id>  (17) 
2026-09-18-3war-s0-n100-0017

>  <rmsd_to_ref>  (17) 


$$$$

     RDKit          3D

 39 39  0  0  0  0  0  0  0  0999 V2000
    3.7028   23.0753   32.3819 C   0  0  0  0  0  0  0  0  0  0  0  0
    0.2983   20.5815   41.6217 C   0  0  0  0  0  0  0  0  0  0  0  0
    2.8140   19.3990   36.3036 O   0  0  0  0  0  0  0  0  0  0  0  0
    2.3029   19.2021   41.2235 C   0  0  0  0  0  0  0  0  0  0  0  0
    3.5120   21.4434   35.6535 N   0  0  0  0  0  0  0  0  0  0  0  0
    2.8646   25.2562   31.2542 C   0  0  0  0  0  0  0  0  0  0  0  0
    2.8891   20.1671   38.9445 C   0  0  0  0  0  0  0  0  0  0  0  0
    3.8386   25.2842   30.8213 C   0  0  0  0  0  0  0  0  0  0  0  0
    1.9009   19.8036   39.9557 C   0  0  2  0  0  0  0  0  0  0  0  0
    2.8474   20.5342   36.4353 C   0  0  0  0  0  0  0  0  0  0  0  0
    3.8198   24.6436   31.9653 C   0  0  0  0  0  0  0  0  0  0  0  0
    2.1921   20.9619   37.7894 C   0  0  0  0  0  0  0  0  0  0  0  0
    1.3105   20.9819   40.6780 C   0  0  0  0  0  0  0  0  0  0  0  0
    3.7753   21.3594   34.1975 C   0  0  0  0  0  0  0  0  0  0  0  0
    4.0942   22.6931   33.6226 C   0  0  0  0  0  0  0  0  0  0  0  0
    1.4981   17.9985   41.3633 O   0  0  0  0  0  0  0  0  0  0  0  0
    3.3119   22.3358   31.6676 H   0  0  0  0  0  0  0  0  0  0  0  0
    0.6936   20.6730   42.6442 H   0  0  0  0  0  0  0  0  0  0  0  0
   -0.5838   21.2293   41.5103 H   0  0  0  0  0  0  0  0  0  0  0  0
    0.0122   19.5366   41.4313 H   0  0  0  0  0  0  0  0  0  0  0  0
    2.1053   19.8940   42.0555 H   0  0  0  0  0  0  0  0  0  0  0  0
    3.3788   18.9741   41.2405 H   0  0  0  0  0  0  0  0  0  0  0  0
    3.8696   22.2816   36.1335 H   0  0  0  0  0  0  0  0  0  0  0  0
    2.0821   24.6503   30.7741 H   0  0  0  0  0  0  0  0  0  0  0  0
    2.1340   26.0401   31.5026 H   0  0  0  0  0  0  0  0  0  0  0  0
    3.6676   20.7949   39.4027 H   0  0  0  0  0  0  0  0  0  0  0  0
    3.3455   19.2538   38.5354 H   0  0  0  0  0  0  0  0  0  0  0  0
    4.0229   24.7128   29.8996 H   0  0  0  0  0  0  0  0  0  0  0  0
    4.4548   26.1226   30.4643 H   0  0  0  0  0  0  0  0  0  0  0  0
    1.3218   19.1610   39.2763 H   0  0  0  0  0  0  0  0  0  0  0  0
    4.4331   24.6579   32.8783 H   0  0  0  0  0  0  0  0  0  0  0  0
    2.3301   22.0420   37.9448 H   0  0  0  0  0  0  0  0  0  0  0  0
    1.1141   20.7430   37.7751 H   0  0  0  0  0  0  0  0  0  0  0  0
    2.1126   21.5064   41.2180 H   0  0  0  0  0  0  0  0  0  0  0  0
    0.8398   21.6385   39.9314 H   0  0  0  0  0  0  0  0  0  0  0  0
    4.6266   20.6840   34.0268 H   0  0  0  0  0  0  0  0  0  0  0  0
    2.8684   20.9793   33.7045 H   0  0  0  0  0  0  0  0  0  0  0  0
    4.6741   23.4022   34.2317 H   0  0  0  0  0  0  0  0  0  0  0  0
    1.3643   17.8008   42.3241 H   0  0  0  0  0  0  0  0  0  0  0  0
  1 15  2  3
  3 10  2  0
  4 16  1  0
  5 10  1  0
  6 11  1  0
  8  6  1  0
  8 11  1  0
  9  7  1  0
  9 13  1  0
  9  4  1  0
 10 12  1  0
 11  1  1  0
 12  7  1  0
 13  2  1  0
 14  5  1  0
 15 14  1  0
  1 17  1  0
  2 18  1  0
  2 19  1  0
  2 20  1  0
  4 21  1  0
  4 22  1  0
  5 23  1  0
  6 24  1  0
  6 25  1  0
  7 26  1  0
  7 27  1  0
  8 28  1  0
  8 29  1  0
  9 30  1  6
 11 31  1  0
 12 32  1  0
 12 33  1  0
 13 34  1  0
 13 35  1  0
 14 36  1  0
 14 37  1  0
 15 38  1  0
 16 39  1  0
M  END
>  <mol_id>  (18) 
2026-09-18-3war-s0-n100-0018

>  <rmsd_to_ref>  (18) 


$$$$

     RDKit          3D

 67 69  0  0  0  0  0  0  0  0999 V2000
   -0.4470   19.6400   42.5570 N   0  0  0  0  0  0  0  0  0  0  0  0
    3.1350   24.1940   26.4790 C   0  0  0  0  0  0  0  0  0  0  0  0
    2.4090   17.5530   40.3640 N   0  0  0  0  0  0  0  0  0  0  0  0
    3.5400   24.2670   27.8610 C   0  0  2  0  0  0  0  0  0  0  0  0
   -1.0060   19.2780   43.8370 C   0  0  0  0  0  0  0  0  0  0  0  0
    3.6930   18.5360   38.0230 C   0  0  0  0  0  0  0  0  0  0  0  0
    2.5540   20.9180   36.1330 C   0  0  0  0  0  0  0  0  0  0  0  0
    3.1030   22.0060   35.1810 C   0  0  0  0  0  0  0  0  0  0  0  0
    3.0880   16.8080   39.5880 C   0  0  2  0  0  0  0  0  0  0  0  0
    1.0880   17.9510   42.6700 O   0  0  0  0  0  0  0  0  0  0  0  0
    5.8200   23.3430   27.4030 N   0  0  0  0  0  0  0  0  0  0  0  0
    1.4270   25.5510   29.0720 C   0  0  0  0  0  0  0  0  0  0  0  0
    3.5880   22.0910   32.8220 C   0  0  0  0  0  0  0  0  0  0  0  0
    1.2370   19.5010   40.7260 C   0  0  0  0  0  0  0  0  0  0  0  0
    4.0380   21.4720   34.0740 C   0  0  0  0  0  0  0  0  0  0  0  0
    1.9870   24.4390   26.1000 C   0  0  0  0  0  0  0  0  0  0  0  0
    2.0880   21.3610   37.4150 C   0  0  0  0  0  0  0  0  0  0  0  0
    0.6080   18.9920   42.0230 C   0  0  0  0  0  0  0  0  0  0  0  0
    2.0300   20.4890   38.6360 C   0  0  0  0  0  0  0  0  0  0  0  0
    2.1720   18.7060   40.0320 C   0  0  0  0  0  0  0  0  0  0  0  0
    4.9680   23.4540   29.8420 S   0  0  0  0  0  0  0  0  0  0  0  0
    3.4830   24.1800   30.1190 C   0  0  0  0  0  0  0  0  0  0  0  0
    1.0390   20.9420   39.9270 S   0  0  0  0  0  0  0  0  0  0  0  0
    2.7450   24.8290   29.0070 C   0  0  0  0  0  0  0  0  0  0  0  0
    2.7160   15.3920   39.5340 C   0  0  0  0  0  0  0  0  0  0  0  0
    4.1870   17.3170   38.7710 C   0  0  0  0  0  0  0  0  0  0  0  0
    1.9310   14.8550   39.9630 O   0  0  0  0  0  0  0  0  0  0  0  0
    3.0410   24.2270   31.5470 C   0  0  0  0  0  0  0  0  0  0  0  0
    4.8000   23.6950   28.2370 C   0  0  1  0  0  0  0  0  0  0  0  0
    3.6690   23.3870   32.4670 C   0  0  0  0  0  0  0  0  0  0  0  0
    2.6780   19.2800   38.8290 C   0  0  0  0  0  0  0  0  0  0  0  0
   -0.8684   20.4203   42.0331 H   0  0  0  0  0  0  0  0  0  0  0  0
    3.8850   23.9063   25.7275 H   0  0  0  0  0  0  0  0  0  0  0  0
    2.0623   17.1888   41.2629 H   0  0  0  0  0  0  0  0  0  0  0  0
    3.0446   23.3046   28.0570 H   0  0  0  0  0  0  0  0  0  0  0  0
   -0.3758   19.6861   44.6409 H   0  0  0  0  0  0  0  0  0  0  0  0
   -2.0224   19.6898   43.9229 H   0  0  0  0  0  0  0  0  0  0  0  0
   -1.0460   18.1821   43.9229 H   0  0  0  0  0  0  0  0  0  0  0  0
    4.5446   19.2002   37.8142 H   0  0  0  0  0  0  0  0  0  0  0  0
    3.2240   18.2066   37.0841 H   0  0  0  0  0  0  0  0  0  0  0  0
    3.3588   20.1880   36.3046 H   0  0  0  0  0  0  0  0  0  0  0  0
    1.6661   20.5114   35.6267 H   0  0  0  0  0  0  0  0  0  0  0  0
    2.2489   22.5044   34.6992 H   0  0  0  0  0  0  0  0  0  0  0  0
    3.7053   22.6887   35.7984 H   0  0  0  0  0  0  0  0  0  0  0  0
    2.3872   17.0234   38.7680 H   0  0  0  0  0  0  0  0  0  0  0  0
    6.6382   23.0607   27.9614 H   0  0  0  0  0  0  0  0  0  0  0  0
    5.5218   22.5563   26.8089 H   0  0  0  0  0  0  0  0  0  0  0  0
    6.0704   24.1462   26.8089 H   0  0  0  0  0  0  0  0  0  0  0  0
    1.1450   25.7055   30.1240 H   0  0  0  0  0  0  0  0  0  0  0  0
    1.5176   26.5255   28.5698 H   0  0  0  0  0  0  0  0  0  0  0  0
    0.6546   24.9501   28.5698 H   0  0  0  0  0  0  0  0  0  0  0  0
    4.1304   21.5505   32.0323 H   0  0  0  0  0  0  0  0  0  0  0  0
    2.5018   22.0285   32.9842 H   0  0  0  0  0  0  0  0  0  0  0  0
    3.9618   20.3767   34.0064 H   0  0  0  0  0  0  0  0  0  0  0  0
    5.0894   21.7163   34.2859 H   0  0  0  0  0  0  0  0  0  0  0  0
    1.7333   24.3674   25.0320 H   0  0  0  0  0  0  0  0  0  0  0  0
    1.2169   24.7290   26.8300 H   0  0  0  0  0  0  0  0  0  0  0  0
    2.7292   22.2123   37.6871 H   0  0  0  0  0  0  0  0  0  0  0  0
    1.0168   21.5036   37.2096 H   0  0  0  0  0  0  0  0  0  0  0  0
    3.3943   14.7771   38.9243 H   0  0  0  0  0  0  0  0  0  0  0  0
    4.5078   16.5455   38.0556 H   0  0  0  0  0  0  0  0  0  0  0  0
    5.0435   17.5827   39.4081 H   0  0  0  0  0  0  0  0  0  0  0  0
    3.1866   25.2593   31.8980 H   0  0  0  0  0  0  0  0  0  0  0  0
    2.0022   23.8662   31.5190 H   0  0  0  0  0  0  0  0  0  0  0  0
    4.3716   22.6866   28.1386 H   0  0  0  0  0  0  0  0  0  0  0  0
    4.7294   23.4897   32.1931 H   0  0  0  0  0  0  0  0  0  0  0  0
    3.0695   23.7402   33.3190 H   0  0  0  0  0  0  0  0  0  0  0  0
  1  5  1  0
  4  2  1  0
  4 29  1  0
  4 24  1  0
  6 26  1  0
  6 31  1  0
  7 17  1  0
  8  7  1  0
  9 25  1  0
  9  3  1  0
 13 15  1  0
 14 18  1  0
 15  8  1  0
 16  2  2  3
 17 19  1  0
 18  1  1  0
 18 10  2  0
 19 31  2  0
 19 23  1  0
 20  3  1  0
 20 14  2  0
 21 22  1  0
 22 28  1  0
 23 14  1  0
 24 12  1  0
 24 22  2  0
 25 27  2  0
 26  9  1  0
 28 30  1  0
 29 11  1  0
 29 21  1  0
 30 13  1  0
 31 20  1  0
  1 32  1  0
  2 33  1  0
  3 34  1  0
  4 35  1  6
  5 36  1  0
  5 37  1  0
  5 38  1  0
  6 39  1  0
  6 40  1  0
  7 41  1  0
  7 42  1  0
  8 43  1  0
  8 44  1  0
  9 45  1  6
 11 46  1  0
 11 47  1  0
 11 48  1  0
 12 49  1  0
 12 50  1  0
 12 51  1  0
 13 52  1  0
 13 53  1  0
 15 54  1  0
 15 55  1  0
 16 56  1  0
 16 57  1  0
 17 58  1  0
 17 59  1  0
 25 60  1  0
 26 61  1  0
 26 62  1  0
 28 63  1  0
 28 64  1  0
 29 65  1  6
 30 66  1  0
 30 67  1  0
M  CHG  1  11   1
M  END
>  <mol_id>  (19) 
2026-09-18-3war-s0-n100-0019

>  <rmsd_to_ref>  (19) 


$$$$

     RDKit          3D

 40 41  0  0  0  0  0  0  0  0999 V2000
    3.2690   24.5670   32.0340 C   0  0  0  0  0  0  0  0  0  0  0  0
    2.7090   19.5780   38.4340 C   0  0  0  0  0  0  0  0  0  0  0  0
    3.3710   19.4070   37.1340 C   0  0  0  0  0  0  0  0  0  0  0  0
    2.5350   21.4260   36.1810 C   0  0  0  0  0  0  0  0  0  0  0  0
    3.6440   17.7880   39.5500 O   0  0  0  0  0  0  0  0  0  0  0  0
    1.1340   19.9870   40.9270 C   0  0  0  0  0  0  0  0  0  0  0  0
    3.2980   20.2970   36.1530 C   0  0  0  0  0  0  0  0  0  0  0  0
    2.9160   25.4630   29.8230 F   0  0  0  0  0  0  0  0  0  0  0  0
    1.9320   18.7980   40.7510 C   0  0  0  0  0  0  0  0  0  0  0  0
    1.5770   26.5260   31.4550 C   0  0  0  0  0  0  0  0  0  0  0  0
    2.6170   25.5240   31.1590 C   0  0  0  0  0  0  0  0  0  0  0  0
    1.8200   21.6130   37.3970 C   0  0  0  0  0  0  0  0  0  0  0  0
    4.4000   23.8400   31.5410 C   0  0  0  0  0  0  0  0  0  0  0  0
    1.9180   20.7080   38.5590 C   0  0  0  0  0  0  0  0  0  0  0  0
    1.1890   20.9900   39.7780 C   0  0  0  0  0  0  0  0  0  0  0  0
    2.7530   24.2290   33.3820 C   0  0  0  0  0  0  0  0  0  0  0  0
    2.1110   25.3890   34.2640 S   0  0  0  0  0  0  0  0  0  0  0  0
    2.3870   22.3470   35.0880 C   0  0  0  0  0  0  0  0  0  0  0  0
    2.8460   22.8810   34.0250 C   0  0  0  0  0  0  0  0  0  0  0  0
    2.7890   18.5930   39.5430 C   0  0  0  0  0  0  0  0  0  0  0  0
    2.1200   17.6330   41.6200 C   0  0  0  0  0  0  0  0  0  0  0  0
    3.9584   18.4925   36.9649 H   0  0  0  0  0  0  0  0  0  0  0  0
    0.5271   20.1590   41.8282 H   0  0  0  0  0  0  0  0  0  0  0  0
    3.8977   20.1099   35.2500 H   0  0  0  0  0  0  0  0  0  0  0  0
    1.4683   26.6307   32.5446 H   0  0  0  0  0  0  0  0  0  0  0  0
    1.8665   27.4943   31.0206 H   0  0  0  0  0  0  0  0  0  0  0  0
    0.6202   26.2007   31.0206 H   0  0  0  0  0  0  0  0  0  0  0  0
    1.1539   22.4848   37.4759 H   0  0  0  0  0  0  0  0  0  0  0  0
    4.9899   23.4608   32.3885 H   0  0  0  0  0  0  0  0  0  0  0  0
    4.0538   22.9949   30.9279 H   0  0  0  0  0  0  0  0  0  0  0  0
    5.0251   24.5059   30.9279 H   0  0  0  0  0  0  0  0  0  0  0  0
    1.6228   21.9121   40.1922 H   0  0  0  0  0  0  0  0  0  0  0  0
    0.1457   21.0065   39.4298 H   0  0  0  0  0  0  0  0  0  0  0  0
    1.4332   21.9741   34.6864 H   0  0  0  0  0  0  0  0  0  0  0  0
    2.9300   23.1010   35.6767 H   0  0  0  0  0  0  0  0  0  0  0  0
    2.4683   22.2123   33.2375 H   0  0  0  0  0  0  0  0  0  0  0  0
    3.8530   23.0466   34.4354 H   0  0  0  0  0  0  0  0  0  0  0  0
    2.0691   17.9486   42.6725 H   0  0  0  0  0  0  0  0  0  0  0  0
    1.3293   16.8949   41.4199 H   0  0  0  0  0  0  0  0  0  0  0  0
    3.1027   17.1811   41.4199 H   0  0  0  0  0  0  0  0  0  0  0  0
  1 16  1  0
  2 14  2  0
  2 20  1  0
  3  2  1  0
  4 12  2  0
  7  4  1  0
  7  3  2  0
  8 11  1  0
  9  6  2  0
  9 21  1  0
 11 10  1  0
 11  1  2  3
 12 14  1  0
 13  1  1  0
 14 15  1  0
 15  6  1  0
 16 19  1  0
 16 17  2  0
 18  4  1  0
 19 18  1  0
 20  5  2  0
 20  9  1  0
  3 22  1  0
  6 23  1  0
  7 24  1  0
 10 25  1  0
 10 26  1  0
 10 27  1  0
 12 28  1  0
 13 29  1  0
 13 30  1  0
 13 31  1  0
 15 32  1  0
 15 33  1  0
 18 34  1  0
 18 35  1  0
 19 36  1  0
 19 37  1  0
 21 38  1  0
 21 39  1  0
 21 40  1  0
M  END
>  <mol_id>  (20) 
2026-09-18-3war-s0-n100-0020

>  <rmsd_to_ref>  (20) 


$$$$

     RDKit          3D

 80 83  0  0  0  0  0  0  0  0999 V2000
    1.5328   17.7930   42.6674 C   0  0  0  0  0  0  0  0  0  0  0  0
    1.6359   23.5528   33.5036 S   0  0  0  0  0  0  0  0  0  0  0  0
    1.8321   27.8568   33.8696 C   0  0  0  0  0  0  0  0  0  0  0  0
    1.9687   25.9539   28.6759 C   0  0  1  0  0  0  0  0  0  0  0  0
    0.0252   26.5769   27.3519 C   0  0  0  0  0  0  0  0  0  0  0  0
    3.2648   20.2832   35.5913 C   0  0  0  0  0  0  0  0  0  0  0  0
    1.8227   25.2611   31.1391 C   0  0  0  0  0  0  0  0  0  0  0  0
    2.5329   21.5318   35.1314 C   0  0  0  0  0  0  0  0  0  0  0  0
    2.1236   14.2952   35.9041 N   0  0  0  0  0  0  0  0  0  0  0  0
    2.7061   18.1161   40.5482 C   0  0  0  0  0  0  0  0  0  0  0  0
    0.2712   25.7638   26.3845 O   0  0  0  0  0  0  0  0  0  0  0  0
    2.8481   15.0237   36.8089 C   0  0  0  0  0  0  0  0  0  0  0  0
    3.4245   20.2028   38.1592 C   0  0  0  0  0  0  0  0  0  0  0  0
   -1.1841   27.2014   27.2953 N   0  0  0  0  0  0  0  0  0  0  0  0
    3.0420   22.7419   34.4027 C   0  0  0  0  0  0  0  0  0  0  0  0
    3.1858   18.0424   36.9268 C   0  0  0  0  0  0  0  0  0  0  0  0
    2.1650   26.4015   34.7759 S   0  0  0  0  0  0  0  0  0  0  0  0
    0.4165   27.0383   29.9265 C   0  0  0  0  0  0  0  0  0  0  0  0
    0.8182   27.0123   28.5090 C   0  0  2  0  0  0  0  0  0  0  0  0
    3.3042   19.5449   36.8776 N   0  0  0  0  0  0  0  0  0  0  0  0
    2.3178   18.5807   41.8155 C   0  0  0  0  0  0  0  0  0  0  0  0
    1.1477   18.3004   43.9964 C   0  0  0  0  0  0  0  0  0  0  0  0
    2.5656   25.5960   27.2963 C   0  0  0  0  0  0  0  0  0  0  0  0
    0.9352   27.4647   32.7691 C   0  0  0  0  0  0  0  0  0  0  0  0
    1.7879   25.2813   33.5665 C   0  0  2  0  0  0  0  0  0  0  0  0
    4.6641   19.6980   38.6948 C   0  0  0  0  0  0  0  0  0  0  0  0
    1.6851   16.0163   40.9662 C   0  0  0  0  0  0  0  0  0  0  0  0
    3.6815   17.1211   37.7784 N   0  0  0  0  0  0  0  0  0  0  0  0
    3.0183   16.2689   38.8367 C   0  0  2  0  0  0  0  0  0  0  0  0
    2.0210   15.5518   37.9742 C   0  0  0  0  0  0  0  0  0  0  0  0
    1.2565   25.9555   32.3578 C   0  0  2  0  0  0  0  0  0  0  0  0
    1.7054   26.3088   30.1110 C   0  0  1  0  0  0  0  0  0  0  0  0
    1.2246   16.5180   42.2257 C   0  0  0  0  0  0  0  0  0  0  0  0
    2.4531   16.8230   40.1570 C   0  0  0  0  0  0  0  0  0  0  0  0
    1.3417   28.6020   34.5131 H   0  0  0  0  0  0  0  0  0  0  0  0
    2.7588   28.3093   33.4870 H   0  0  0  0  0  0  0  0  0  0  0  0
    2.6381   25.0828   28.7315 H   0  0  0  0  0  0  0  0  0  0  0  0
    4.3214   20.5286   35.4089 H   0  0  0  0  0  0  0  0  0  0  0  0
    2.6071   19.5701   35.0726 H   0  0  0  0  0  0  0  0  0  0  0  0
    2.8719   24.9699   31.2958 H   0  0  0  0  0  0  0  0  0  0  0  0
    1.3062   24.3249   30.8808 H   0  0  0  0  0  0  0  0  0  0  0  0
    1.7307   21.1480   34.4840 H   0  0  0  0  0  0  0  0  0  0  0  0
    2.4153   21.9999   36.1199 H   0  0  0  0  0  0  0  0  0  0  0  0
    1.6315   13.5333   36.3921 H   0  0  0  0  0  0  0  0  0  0  0  0
    1.4362   14.9075   35.4422 H   0  0  0  0  0  0  0  0  0  0  0  0
    2.7581   13.8968   35.1973 H   0  0  0  0  0  0  0  0  0  0  0  0
    3.2216   18.7989   39.8569 H   0  0  0  0  0  0  0  0  0  0  0  0
    3.6456   14.3822   37.2120 H   0  0  0  0  0  0  0  0  0  0  0  0
    3.2436   15.8992   36.2731 H   0  0  0  0  0  0  0  0  0  0  0  0
    2.5803   19.9411   38.8139 H   0  0  0  0  0  0  0  0  0  0  0  0
    3.4151   21.2995   38.0747 H   0  0  0  0  0  0  0  0  0  0  0  0
   -1.4549   27.8673   28.0330 H   0  0  0  0  0  0  0  0  0  0  0  0
   -1.8277   27.0078   26.5148 H   0  0  0  0  0  0  0  0  0  0  0  0
    3.8137   22.4380   33.6802 H   0  0  0  0  0  0  0  0  0  0  0  0
    3.4762   23.4505   35.1234 H   0  0  0  0  0  0  0  0  0  0  0  0
    2.1000   17.8712   36.9663 H   0  0  0  0  0  0  0  0  0  0  0  0
    3.8871   17.8380   36.1044 H   0  0  0  0  0  0  0  0  0  0  0  0
   -0.4921   26.4701   30.1746 H   0  0  0  0  0  0  0  0  0  0  0  0
    0.1397   27.9516   30.4736 H   0  0  0  0  0  0  0  0  0  0  0  0
    2.6357   19.5810   42.1448 H   0  0  0  0  0  0  0  0  0  0  0  0
    1.8458   17.9132   44.7531 H   0  0  0  0  0  0  0  0  0  0  0  0
    1.1829   19.3998   43.9934 H   0  0  0  0  0  0  0  0  0  0  0  0
    0.1269   17.9668   44.2345 H   0  0  0  0  0  0  0  0  0  0  0  0
    3.5914   25.2212   27.4268 H   0  0  0  0  0  0  0  0  0  0  0  0
    1.9490   24.8191   26.8205 H   0  0  0  0  0  0  0  0  0  0  0  0
    2.5811   26.4928   26.6597 H   0  0  0  0  0  0  0  0  0  0  0  0
   -0.1112   27.5435   33.0989 H   0  0  0  0  0  0  0  0  0  0  0  0
    1.0896   28.1288   31.9059 H   0  0  0  0  0  0  0  0  0  0  0  0
    2.6387   24.8171   34.0869 H   0  0  0  0  0  0  0  0  0  0  0  0
    4.6672   19.8188   39.7882 H   0  0  0  0  0  0  0  0  0  0  0  0
    4.7651   18.6320   38.4434 H   0  0  0  0  0  0  0  0  0  0  0  0
    5.5059   20.2582   38.2617 H   0  0  0  0  0  0  0  0  0  0  0  0
    1.4276   14.9954   40.6479 H   0  0  0  0  0  0  0  0  0  0  0  0
    4.1299   16.4324   37.1575 H   0  0  0  0  0  0  0  0  0  0  0  0
    4.1302   17.7857   38.4247 H   0  0  0  0  0  0  0  0  0  0  0  0
    3.7848   15.6927   39.3757 H   0  0  0  0  0  0  0  0  0  0  0  0
    1.2432   16.2438   37.6189 H   0  0  0  0  0  0  0  0  0  0  0  0
    1.4942   14.7514   38.5146 H   0  0  0  0  0  0  0  0  0  0  0  0
    0.2750   25.8978   31.8645 H   0  0  0  0  0  0  0  0  0  0  0  0
    0.6059   15.8690   42.8630 H   0  0  0  0  0  0  0  0  0  0  0  0
  1 22  1  0
  2 15  1  0
  3 17  1  0
  4 23  1  0
  4 32  1  0
  6 20  1  0
  8  6  1  0
  9 12  1  0
 10 21  2  0
 11  5  2  0
 12 30  1  0
 13 26  1  0
 14  5  1  0
 15  8  1  0
 16 20  1  0
 16 28  1  0
 18 32  1  0
 19  5  1  6
 19  4  1  0
 19 18  1  0
 19 32  1  0
 20 13  1  0
 21  1  1  0
 24  3  1  0
 25  2  1  0
 25 17  1  0
 27 33  1  0
 28 29  1  0
 29 30  1  0
 29 34  1  0
 31  7  1  0
 31 24  1  0
 31 25  1  0
 32  7  1  1
 33  1  2  0
 34 10  1  0
 34 27  2  0
  3 35  1  0
  3 36  1  0
  4 37  1  1
  6 38  1  0
  6 39  1  0
  7 40  1  0
  7 41  1  0
  8 42  1  0
  8 43  1  0
  9 44  1  0
  9 45  1  0
  9 46  1  0
 10 47  1  0
 12 48  1  0
 12 49  1  0
 13 50  1  0
 13 51  1  0
 14 52  1  0
 14 53  1  0
 15 54  1  0
 15 55  1  0
 16 56  1  0
 16 57  1  0
 18 58  1  0
 18 59  1  0
 21 60  1  0
 22 61  1  0
 22 62  1  0
 22 63  1  0
 23 64  1  0
 23 65  1  0
 23 66  1  0
 24 67  1  0
 24 68  1  0
 25 69  1  6
 26 70  1  0
 26 71  1  0
 26 72  1  0
 27 73  1  0
 28 74  1  0
 28 75  1  0
 29 76  1  1
 30 77  1  0
 30 78  1  0
 31 79  1  6
 33 80  1  0
M  CHG  2   9   1  28   1
M  END
>  <mol_id>  (21) 
2026-09-18-3war-s0-n100-0021

>  <rmsd_to_ref>  (21) 


$$$$

     RDKit          3D

 66 68  0  0  0  0  0  0  0  0999 V2000
    1.7036   23.7693   26.5768 C   0  0  0  0  0  0  0  0  0  0  0  0
    3.7606   18.6571   41.1373 C   0  0  0  0  0  0  0  0  0  0  0  0
    2.4522   22.8442   32.8929 C   0  0  0  0  0  0  0  0  0  0  0  0
    2.9569   24.0414   29.9382 C   0  0  0  0  0  0  0  0  0  0  0  0
    4.1054   18.7623   36.6587 N   0  0  0  0  0  0  0  0  0  0  0  0
    3.6241   19.7006   34.7264 C   0  0  0  0  0  0  0  0  0  0  0  0
    3.7537   19.5786   36.0434 C   0  0  1  0  0  0  0  0  0  0  0  0
    0.8241   27.7880   30.0969 C   0  0  0  0  0  0  0  0  0  0  0  0
    4.8797   16.0677   37.6830 O   0  0  0  0  0  0  0  0  0  0  0  0
    1.4806   26.8442   32.6297 C   0  0  0  0  0  0  0  0  0  0  0  0
    2.7077   15.4641   37.9018 O   0  0  0  0  0  0  0  0  0  0  0  0
    2.0949   23.8861   32.2789 C   0  0  0  0  0  0  0  0  0  0  0  0
    2.7946   24.1409   28.7585 C   0  0  0  0  0  0  0  0  0  0  0  0
    2.3291   21.7012   36.5921 O   0  0  0  0  0  0  0  0  0  0  0  0
    1.4451   26.8739   31.1467 C   0  0  1  0  0  0  0  0  0  0  0  0
    3.1423   20.7052   36.7161 C   0  0  0  0  0  0  0  0  0  0  0  0
    3.9224   18.1804   39.9399 C   0  0  0  0  0  0  0  0  0  0  0  0
    3.1476   17.8379   42.2086 C   0  0  0  0  0  0  0  0  0  0  0  0
    2.6056   22.7744   34.3293 C   0  0  0  0  0  0  0  0  0  0  0  0
    4.6808   18.9109   38.9439 C   0  0  0  0  0  0  0  0  0  0  0  0
    2.1308   24.7126   30.8866 C   0  0  2  0  0  0  0  0  0  0  0  0
    1.2062   25.4440   30.2810 C   0  0  2  0  0  0  0  0  0  0  0  0
    3.3069   21.1482   33.8935 S   0  0  0  0  0  0  0  0  0  0  0  0
    3.5533   20.4464   37.8470 N   0  0  0  0  0  0  0  0  0  0  0  0
    2.7497   16.4842   41.9472 C   0  0  0  0  0  0  0  0  0  0  0  0
    3.6338   16.8374   39.7045 C   0  0  0  0  0  0  0  0  0  0  0  0
    4.2206   19.1697   37.9228 N   0  0  0  0  0  0  0  0  0  0  0  0
    1.3718   27.3275   28.5635 C   0  0  0  0  0  0  0  0  0  0  0  0
    1.6507   25.9200   29.2303 C   0  0  0  0  0  0  0  0  0  0  0  0
    2.4012   24.6734   27.5310 C   0  0  0  0  0  0  0  0  0  0  0  0
    3.7306   16.1850   38.4030 C   0  0  0  0  0  0  0  0  0  0  0  0
    3.0016   16.0417   40.7291 C   0  0  0  0  0  0  0  0  0  0  0  0
    1.5235   22.7967   27.0582 H   0  0  0  0  0  0  0  0  0  0  0  0
    0.7426   24.2169   26.2835 H   0  0  0  0  0  0  0  0  0  0  0  0
    2.3293   23.6259   25.6835 H   0  0  0  0  0  0  0  0  0  0  0  0
    4.0836   19.6849   41.3593 H   0  0  0  0  0  0  0  0  0  0  0  0
    3.4309   22.5691   32.4729 H   0  0  0  0  0  0  0  0  0  0  0  0
    1.5769   22.1957   32.7401 H   0  0  0  0  0  0  0  0  0  0  0  0
    3.7761   23.4068   30.3070 H   0  0  0  0  0  0  0  0  0  0  0  0
    5.0237   18.4462   36.3158 H   0  0  0  0  0  0  0  0  0  0  0  0
    4.5683   19.3245   34.3056 H   0  0  0  0  0  0  0  0  0  0  0  0
    2.6663   19.1804   34.5787 H   0  0  0  0  0  0  0  0  0  0  0  0
    4.6839   19.0286   35.8381 H   0  0  0  0  0  0  0  0  0  0  0  0
   -0.2718   27.7029   30.1370 H   0  0  0  0  0  0  0  0  0  0  0  0
    1.1153   28.8301   30.2956 H   0  0  0  0  0  0  0  0  0  0  0  0
    2.5261   26.8222   32.9711 H   0  0  0  0  0  0  0  0  0  0  0  0
    0.9842   27.7421   33.0265 H   0  0  0  0  0  0  0  0  0  0  0  0
    0.9580   25.9464   32.9911 H   0  0  0  0  0  0  0  0  0  0  0  0
    1.0066   23.8202   32.4247 H   0  0  0  0  0  0  0  0  0  0  0  0
    3.0163   24.3923   32.6027 H   0  0  0  0  0  0  0  0  0  0  0  0
    2.3726   27.3458   31.5034 H   0  0  0  0  0  0  0  0  0  0  0  0
    2.9967   18.2694   43.2091 H   0  0  0  0  0  0  0  0  0  0  0  0
    3.3046   23.4972   34.7754 H   0  0  0  0  0  0  0  0  0  0  0  0
    1.7990   22.9388   35.0590 H   0  0  0  0  0  0  0  0  0  0  0  0
    4.9691   19.8655   39.4082 H   0  0  0  0  0  0  0  0  0  0  0  0
    5.4779   18.2011   38.6777 H   0  0  0  0  0  0  0  0  0  0  0  0
    2.4262   25.6167   31.4394 H   0  0  0  0  0  0  0  0  0  0  0  0
    0.2531   24.9031   30.1859 H   0  0  0  0  0  0  0  0  0  0  0  0
    3.4334   21.0750   38.6541 H   0  0  0  0  0  0  0  0  0  0  0  0
    2.2669   15.8569   42.7109 H   0  0  0  0  0  0  0  0  0  0  0  0
    2.2653   27.8608   28.2067 H   0  0  0  0  0  0  0  0  0  0  0  0
    0.7678   27.4479   27.6520 H   0  0  0  0  0  0  0  0  0  0  0  0
    1.3580   25.1926   28.4589 H   0  0  0  0  0  0  0  0  0  0  0  0
    2.6746   26.1203   29.5787 H   0  0  0  0  0  0  0  0  0  0  0  0
    2.5996   25.7250   27.2769 H   0  0  0  0  0  0  0  0  0  0  0  0
    2.7137   15.0094   40.4815 H   0  0  0  0  0  0  0  0  0  0  0  0
  1 30  1  0
  2 18  1  0
  3 19  1  0
  5 27  1  0
  7  6  1  0
  7 16  1  0
  7  5  1  0
  8 15  1  0
  9 31  1  0
 11 31  2  0
 12  3  1  0
 13  4  2  0
 14 16  2  0
 15 10  1  0
 16 24  1  0
 17  2  2  0
 20 17  1  0
 21  4  1  0
 21 12  1  0
 22 15  1  0
 22 21  1  0
 23 19  1  0
 23  6  1  0
 24 27  1  0
 25 18  2  0
 26 17  1  0
 26 32  2  0
 27 20  1  0
 28 29  1  0
 28  8  1  0
 29 22  1  0
 30 13  2  0
 31 26  1  0
 32 25  1  0
  1 33  1  0
  1 34  1  0
  1 35  1  0
  2 36  1  0
  3 37  1  0
  3 38  1  0
  4 39  1  0
  5 40  1  0
  6 41  1  0
  6 42  1  0
  7 43  1  6
  8 44  1  0
  8 45  1  0
 10 46  1  0
 10 47  1  0
 10 48  1  0
 12 49  1  0
 12 50  1  0
 15 51  1  6
 18 52  1  0
 19 53  1  0
 19 54  1  0
 20 55  1  0
 20 56  1  0
 21 57  1  1
 22 58  1  6
 24 59  1  0
 25 60  1  0
 28 61  1  0
 28 62  1  0
 29 63  1  0
 29 64  1  0
 30 65  1  0
 32 66  1  0
M  CHG  1   9  -1
M  END
>  <mol_id>  (22) 
2026-09-18-3war-s0-n100-0022

>  <rmsd_to_ref>  (22) 


$$$$

     RDKit          3D

 29 29  0  0  0  0  0  0  0  0999 V2000
    3.0290   20.8790   35.7550 O   0  0  0  0  0  0  0  0  0  0  0  0
    1.4930   22.5590   35.7500 O   0  0  0  0  0  0  0  0  0  0  0  0
    2.2980   20.9020   36.8990 C   0  0  2  0  0  0  0  0  0  0  0  0
    4.9410   19.3680   40.3190 O   0  0  0  0  0  0  0  0  0  0  0  0
    2.0680   19.7070   37.8790 C   0  0  0  0  0  0  0  0  0  0  0  0
    2.0080   19.5480   40.4750 C   0  0  0  0  0  0  0  0  0  0  0  0
    2.8510   22.0260   35.1290 C   0  0  2  0  0  0  0  0  0  0  0  0
    4.5090   22.4070   33.2170 C   0  0  0  0  0  0  0  0  0  0  0  0
    1.6350   22.0920   37.0290 C   0  0  0  0  0  0  0  0  0  0  0  0
    4.1390   19.0820   39.2400 C   0  0  0  0  0  0  0  0  0  0  0  0
    2.9050   23.9850   33.7730 O   0  0  0  0  0  0  0  0  0  0  0  0
    3.2860   22.7990   33.9900 C   0  0  0  0  0  0  0  0  0  0  0  0
    2.7810   19.8710   39.2290 C   0  0  1  0  0  0  0  0  0  0  0  0
    3.1584   21.3222   37.4404 H   0  0  0  0  0  0  0  0  0  0  0  0
    4.4434   19.1906   41.1563 H   0  0  0  0  0  0  0  0  0  0  0  0
    0.9880   19.6136   38.0656 H   0  0  0  0  0  0  0  0  0  0  0  0
    2.4895   18.8115   37.3991 H   0  0  0  0  0  0  0  0  0  0  0  0
    2.6133   19.8009   41.3579 H   0  0  0  0  0  0  0  0  0  0  0  0
    1.0759   20.1319   40.4900 H   0  0  0  0  0  0  0  0  0  0  0  0
    1.7685   18.4745   40.4900 H   0  0  0  0  0  0  0  0  0  0  0  0
    3.9328   22.0212   34.9298 H   0  0  0  0  0  0  0  0  0  0  0  0
    5.3174   22.1479   33.9165 H   0  0  0  0  0  0  0  0  0  0  0  0
    4.2794   21.5374   32.5836 H   0  0  0  0  0  0  0  0  0  0  0  0
    4.8277   23.2480   32.5836 H   0  0  0  0  0  0  0  0  0  0  0  0
    2.2219   22.7975   37.6354 H   0  0  0  0  0  0  0  0  0  0  0  0
    0.6659   21.9723   37.5356 H   0  0  0  0  0  0  0  0  0  0  0  0
    4.6916   19.3311   38.3221 H   0  0  0  0  0  0  0  0  0  0  0  0
    3.8866   18.0133   39.3044 H   0  0  0  0  0  0  0  0  0  0  0  0
    2.9322   20.9591   39.2849 H   0  0  0  0  0  0  0  0  0  0  0  0
  1  3  1  0
  2  9  1  0
  3  9  1  0
  3  5  1  0
  5 13  1  0
  7 12  1  0
  7  2  1  0
  7  1  1  0
  8 12  1  0
 10  4  1  0
 11 12  2  0
 13 10  1  0
 13  6  1  0
  3 14  1  1
  4 15  1  0
  5 16  1  0
  5 17  1  0
  6 18  1  0
  6 19  1  0
  6 20  1  0
  7 21  1  1
  8 22  1  0
  8 23  1  0
  8 24  1  0
  9 25  1  0
  9 26  1  0
 10 27  1  0
 10 28  1  0
 13 29  1  1
M  END
>  <mol_id>  (23) 
2026-09-18-3war-s0-n100-0023

>  <rmsd_to_ref>  (23) 


$$$$

     RDKit          3D

 60 62  0  0  0  0  0  0  0  0999 V2000
    2.1820   22.0490   36.0840 C   0  0  0  0  0  0  0  0  0  0  0  0
    2.9150   25.9890   30.3530 C   0  0  0  0  0  0  0  0  0  0  0  0
    4.1000   24.4640   31.8960 C   0  0  2  0  0  0  0  0  0  0  0  0
    3.0790   20.6450   36.2750 C   0  0  0  0  0  0  0  0  0  0  0  0
    1.5420   25.8410   29.8260 C   0  0  1  0  0  0  0  0  0  0  0  0
    0.9810   15.4570   42.5280 C   0  0  0  0  0  0  0  0  0  0  0  0
    2.0350   19.2790   39.8370 C   0  0  1  0  0  0  0  0  0  0  0  0
    4.0480   23.4020   32.9440 C   0  0  2  0  0  0  0  0  0  0  0  0
    2.6780   22.6130   34.9290 C   0  0  0  0  0  0  0  0  0  0  0  0
    1.5650   25.9870   27.1770 C   0  0  0  0  0  0  0  0  0  0  0  0
    1.2180   20.3070   40.3920 C   0  0  0  0  0  0  0  0  0  0  0  0
    0.4260   16.4760   41.6870 O   0  0  0  0  0  0  0  0  0  0  0  0
    2.5240   16.8840   39.7720 O   0  0  0  0  0  0  0  0  0  0  0  0
    0.8970   26.3810   28.4070 C   0  0  0  0  0  0  0  0  0  0  0  0
    0.5960   18.8490   42.2230 C   0  0  1  0  0  0  0  0  0  0  0  0
    0.9030   20.1430   41.7470 C   0  0  0  0  0  0  0  0  0  0  0  0
    1.8790   17.8420   40.3220 C   0  0  0  0  0  0  0  0  0  0  0  0
    2.9060   25.0810   29.3190 C   0  0  2  0  0  0  0  0  0  0  0  0
    2.5340   20.3360   37.6110 C   0  0  0  0  0  0  0  0  0  0  0  0
    3.9600   24.2170   30.4960 C   0  0  0  0  0  0  0  0  0  0  0  0
    4.2480   18.8910   38.5410 C   0  0  0  0  0  0  0  0  0  0  0  0
    0.9490   17.6800   41.4460 C   0  0  1  0  0  0  0  0  0  0  0  0
   -0.0360   18.4970   43.4660 O   0  0  0  0  0  0  0  0  0  0  0  0
    2.8970   19.4940   38.6120 C   0  0  0  0  0  0  0  0  0  0  0  0
    3.3070   22.9570   33.9030 C   0  0  0  0  0  0  0  0  0  0  0  0
    5.3490   23.7090   32.4260 C   0  0  0  0  0  0  0  0  0  0  0  0
    1.1122   21.8168   35.9764 H   0  0  0  0  0  0  0  0  0  0  0  0
    2.2638   22.7221   36.9502 H   0  0  0  0  0  0  0  0  0  0  0  0
    3.4307   26.9482   30.1981 H   0  0  0  0  0  0  0  0  0  0  0  0
    3.2987   25.8969   31.3798 H   0  0  0  0  0  0  0  0  0  0  0  0
    3.6164   25.4509   31.8504 H   0  0  0  0  0  0  0  0  0  0  0  0
    2.8410   19.8766   35.5247 H   0  0  0  0  0  0  0  0  0  0  0  0
    4.1716   20.7139   36.1683 H   0  0  0  0  0  0  0  0  0  0  0  0
    0.5963   25.8655   30.3874 H   0  0  0  0  0  0  0  0  0  0  0  0
    0.8319   15.7308   43.5829 H   0  0  0  0  0  0  0  0  0  0  0  0
    0.4798   14.4994   42.3233 H   0  0  0  0  0  0  0  0  0  0  0  0
    2.0573   15.3586   42.3233 H   0  0  0  0  0  0  0  0  0  0  0  0
    2.7315   19.8014   40.5093 H   0  0  0  0  0  0  0  0  0  0  0  0
    3.5140   22.5600   33.4086 H   0  0  0  0  0  0  0  0  0  0  0  0
    2.4891   25.4420   27.4200 H   0  0  0  0  0  0  0  0  0  0  0  0
    0.8993   25.3369   26.5903 H   0  0  0  0  0  0  0  0  0  0  0  0
    1.8119   26.8841   26.5903 H   0  0  0  0  0  0  0  0  0  0  0  0
    1.7483   21.2639   40.2779 H   0  0  0  0  0  0  0  0  0  0  0  0
    0.2634   20.2705   39.8467 H   0  0  0  0  0  0  0  0  0  0  0  0
   -0.1380   26.0124   28.3533 H   0  0  0  0  0  0  0  0  0  0  0  0
    1.0031   27.4751   28.4474 H   0  0  0  0  0  0  0  0  0  0  0  0
   -0.3895   18.9042   41.7375 H   0  0  0  0  0  0  0  0  0  0  0  0
    1.7663   20.5038   42.3254 H   0  0  0  0  0  0  0  0  0  0  0  0
   -0.0365   20.7015   41.8709 H   0  0  0  0  0  0  0  0  0  0  0  0
    3.0484   24.6979   28.2978 H   0  0  0  0  0  0  0  0  0  0  0  0
    1.6316   20.9183   37.8491 H   0  0  0  0  0  0  0  0  0  0  0  0
    4.9770   24.3250   30.0909 H   0  0  0  0  0  0  0  0  0  0  0  0
    3.4071   23.2675   30.5489 H   0  0  0  0  0  0  0  0  0  0  0  0
    4.6278   18.7215   39.5593 H   0  0  0  0  0  0  0  0  0  0  0  0
    4.1937   17.9317   38.0055 H   0  0  0  0  0  0  0  0  0  0  0  0
    4.9258   19.5720   38.0055 H   0  0  0  0  0  0  0  0  0  0  0  0
    0.1045   17.9137   40.7810 H   0  0  0  0  0  0  0  0  0  0  0  0
    0.5238   18.8088   44.2207 H   0  0  0  0  0  0  0  0  0  0  0  0
    5.8696   22.9856   31.7813 H   0  0  0  0  0  0  0  0  0  0  0  0
    6.3116   24.0087   32.8659 H   0  0  0  0  0  0  0  0  0  0  0  0
  1  4  1  0
  3 20  1  0
  3 26  1  0
  3  8  1  0
  4 19  1  0
  5 14  1  0
  5  2  1  0
  7 24  1  0
  7 17  1  0
  7 11  1  0
  8 25  1  0
  9  1  1  0
 10 14  1  0
 11 16  1  0
 12  6  1  0
 13 17  2  0
 15 23  1  0
 16 15  1  0
 17 22  1  0
 18  5  1  0
 18  2  1  0
 18 20  1  0
 19 24  2  3
 21 24  1  0
 22 12  1  0
 22 15  1  0
 25  9  3  0
 26  8  1  0
  1 27  1  0
  1 28  1  0
  2 29  1  0
  2 30  1  0
  3 31  1  1
  4 32  1  0
  4 33  1  0
  5 34  1  1
  6 35  1  0
  6 36  1  0
  6 37  1  0
  7 38  1  1
  8 39  1  6
 10 40  1  0
 10 41  1  0
 10 42  1  0
 11 43  1  0
 11 44  1  0
 14 45  1  0
 14 46  1  0
 15 47  1  6
 16 48  1  0
 16 49  1  0
 18 50  1  6
 19 51  1  0
 20 52  1  0
 20 53  1  0
 21 54  1  0
 21 55  1  0
 21 56  1  0
 22 57  1  6
 23 58  1  0
 26 59  1  0
 26 60  1  0
M  END
>  <mol_id>  (24) 
2026-09-18-3war-s0-n100-0024

>  <rmsd_to_ref>  (24) 


$$$$

     RDKit          3D

 85 87  0  0  0  0  0  0  0  0999 V2000
    3.5060   23.6989   33.9671 C   0  0  0  0  0  0  0  0  0  0  0  0
    1.9359   15.9249   39.3213 C   0  0  0  0  0  0  0  0  0  0  0  0
    3.6026   21.5451   34.4864 C   0  0  0  0  0  0  0  0  0  0  0  0
    0.2501   18.6174   41.5458 C   0  0  0  0  0  0  0  0  0  0  0  0
    2.8285   16.4186   38.3433 C   0  0  0  0  0  0  0  0  0  0  0  0
    3.3493   15.3797   37.3107 C   0  0  0  0  0  0  0  0  0  0  0  0
    3.6982   14.7574   35.0600 O   0  0  0  0  0  0  0  0  0  0  0  0
    2.6960   25.9371   30.0527 C   0  0  0  0  0  0  0  0  0  0  0  0
    2.8643   22.2798   34.4939 C   0  0  0  0  0  0  0  0  0  0  0  0
    4.1857   23.2749   32.6753 C   0  0  0  0  0  0  0  0  0  0  0  0
    4.5650   24.5760   33.5747 C   0  0  0  0  0  0  0  0  0  0  0  0
    6.6691   28.0059   31.5975 C   0  0  0  0  0  0  0  0  0  0  0  0
    1.7995   26.8901   30.3999 C   0  0  0  0  0  0  0  0  0  0  0  0
    3.4975   19.9662   36.7151 O   0  0  0  0  0  0  0  0  0  0  0  0
    5.9831   26.2794   32.4488 S   0  0  0  0  0  0  0  0  0  0  0  0
    4.5277   26.9808   30.9276 C   0  0  1  0  0  0  0  0  0  0  0  0
    3.6800   14.0394   37.6137 C   0  0  0  0  0  0  0  0  0  0  0  0
    1.9177   21.1258   37.8519 C   0  0  0  0  0  0  0  0  0  0  0  0
    5.4154   28.7490   31.1477 S   0  0  0  0  0  0  0  0  0  0  0  0
   -0.0254   19.7086   40.4925 C   0  0  0  0  0  0  0  0  0  0  0  0
    0.4139   17.2261   41.0296 C   0  0  0  0  0  0  0  0  0  0  0  0
    2.5326   11.3000   34.9062 O   0  0  0  0  0  0  0  0  0  0  0  0
    1.4060   17.1553   39.8849 N   0  0  0  0  0  0  0  0  0  0  0  0
    3.2412   12.4810   34.3223 C   0  0  0  0  0  0  0  0  0  0  0  0
    4.0584   27.2710   31.6521 C   0  0  1  0  0  0  0  0  0  0  0  0
    4.0287   13.0802   36.5742 C   0  0  0  0  0  0  0  0  0  0  0  0
    2.3962   21.5933   36.6447 N   0  0  0  0  0  0  0  0  0  0  0  0
    7.7628   28.5583   32.0502 C   0  0  0  0  0  0  0  0  0  0  0  0
    2.8681   17.8484   38.4593 N   0  0  0  0  0  0  0  0  0  0  0  0
    1.9064   26.8344   30.2074 O   0  0  0  0  0  0  0  0  0  0  0  0
    1.2032   20.3560   39.9586 C   0  0  0  0  0  0  0  0  0  0  0  0
    2.5917   12.9414   32.9684 N   0  0  0  0  0  0  0  0  0  0  0  0
    3.9487   25.8954   29.8586 C   0  0  0  0  0  0  0  0  0  0  0  0
    1.9015   28.7213   31.8150 O   0  0  0  0  0  0  0  0  0  0  0  0
    3.0935   20.8506   35.9894 C   0  0  0  0  0  0  0  0  0  0  0  0
    1.7959   20.2437   38.8399 C   0  0  0  0  0  0  0  0  0  0  0  0
    1.4683   14.7677   39.6418 C   0  0  0  0  0  0  0  0  0  0  0  0
    2.4081   27.4234   32.1069 C   0  0  1  0  0  0  0  0  0  0  0  0
    4.8056   26.8332   32.2209 C   0  0  0  0  0  0  0  0  0  0  0  0
    3.7568   13.4180   35.3001 C   0  0  2  0  0  0  0  0  0  0  0  0
    1.9817   18.0628   39.2216 N   0  0  0  0  0  0  0  0  0  0  0  0
    3.4994   15.7418   36.0526 C   0  0  0  0  0  0  0  0  0  0  0  0
    2.8042   24.1643   34.6748 H   0  0  0  0  0  0  0  0  0  0  0  0
    4.6226   21.9552   34.5219 H   0  0  0  0  0  0  0  0  0  0  0  0
    3.6757   20.8885   33.6070 H   0  0  0  0  0  0  0  0  0  0  0  0
    1.1748   18.8891   42.0760 H   0  0  0  0  0  0  0  0  0  0  0  0
   -0.6470   18.5905   42.1818 H   0  0  0  0  0  0  0  0  0  0  0  0
    2.2306   24.9411   30.0874 H   0  0  0  0  0  0  0  0  0  0  0  0
    2.4822   22.4067   35.5176 H   0  0  0  0  0  0  0  0  0  0  0  0
    2.0387   21.9800   33.8316 H   0  0  0  0  0  0  0  0  0  0  0  0
    3.6778   23.3855   31.7058 H   0  0  0  0  0  0  0  0  0  0  0  0
    4.6961   22.3838   32.2812 H   0  0  0  0  0  0  0  0  0  0  0  0
    5.5046   24.5973   34.1461 H   0  0  0  0  0  0  0  0  0  0  0  0
    4.6575   25.6561   33.3879 H   0  0  0  0  0  0  0  0  0  0  0  0
    0.9967   26.1466   30.5126 H   0  0  0  0  0  0  0  0  0  0  0  0
    1.4144   27.7663   29.8577 H   0  0  0  0  0  0  0  0  0  0  0  0
    2.6331   26.4469   29.8354 H   0  0  0  0  0  0  0  0  0  0  0  0
    5.1660   26.1676   30.5517 H   0  0  0  0  0  0  0  0  0  0  0  0
    3.6740   13.7114   38.6637 H   0  0  0  0  0  0  0  0  0  0  0  0
    1.2700   21.9495   38.1866 H   0  0  0  0  0  0  0  0  0  0  0  0
   -0.5680   19.2501   39.6527 H   0  0  0  0  0  0  0  0  0  0  0  0
   -0.6086   20.4954   40.9933 H   0  0  0  0  0  0  0  0  0  0  0  0
    0.7705   16.5838   41.8482 H   0  0  0  0  0  0  0  0  0  0  0  0
   -0.5626   16.8875   40.6529 H   0  0  0  0  0  0  0  0  0  0  0  0
    3.6300   28.2838   31.6241 H   0  0  0  0  0  0  0  0  0  0  0  0
    4.4967   12.1158   36.8213 H   0  0  0  0  0  0  0  0  0  0  0  0
    2.1683   22.5412   36.3124 H   0  0  0  0  0  0  0  0  0  0  0  0
    8.1379   29.4876   31.5969 H   0  0  0  0  0  0  0  0  0  0  0  0
    8.3085   28.0940   32.8848 H   0  0  0  0  0  0  0  0  0  0  0  0
    0.9839   21.4314   40.0309 H   0  0  0  0  0  0  0  0  0  0  0  0
    1.9246   19.7695   40.5466 H   0  0  0  0  0  0  0  0  0  0  0  0
    2.9818   13.7463   32.4576 H   0  0  0  0  0  0  0  0  0  0  0  0
    1.7758   12.4386   32.5914 H   0  0  0  0  0  0  0  0  0  0  0  0
    4.1979   26.1859   28.8273 H   0  0  0  0  0  0  0  0  0  0  0  0
    4.3727   24.8893   29.9928 H   0  0  0  0  0  0  0  0  0  0  0  0
    1.6718   29.1836   32.6598 H   0  0  0  0  0  0  0  0  0  0  0  0
    2.2803   19.2723   38.6623 H   0  0  0  0  0  0  0  0  0  0  0  0
    1.4189   14.6827   40.7374 H   0  0  0  0  0  0  0  0  0  0  0  0
    0.4595   14.6500   39.2191 H   0  0  0  0  0  0  0  0  0  0  0  0
    2.1271   13.9826   39.2424 H   0  0  0  0  0  0  0  0  0  0  0  0
    2.2014   27.0274   33.1122 H   0  0  0  0  0  0  0  0  0  0  0  0
    4.8934   27.6389   32.9647 H   0  0  0  0  0  0  0  0  0  0  0  0
    4.4755   25.8614   31.8250 H   0  0  0  0  0  0  0  0  0  0  0  0
    4.6780   13.0165   34.8526 H   0  0  0  0  0  0  0  0  0  0  0  0
    3.4699   16.8062   35.7768 H   0  0  0  0  0  0  0  0  0  0  0  0
  1  9  1  0
  2 37  1  0
  2 23  1  0
  3 35  1  0
  5 29  1  0
  5  2  2  0
  6 17  1  0
  6  5  1  0
  7 40  1  0
  7 42  1  0
  8 30  2  0
  9  3  1  0
 10 11  1  0
 10  1  1  0
 11  1  1  0
 12 28  2  3
 12 15  1  0
 16 33  1  0
 16 19  1  0
 16 25  1  0
 18 36  2  3
 19 12  1  0
 20  4  1  0
 21  4  1  0
 23 21  1  0
 24 22  2  0
 25 38  1  0
 25 39  1  0
 26 17  2  0
 27 18  1  0
 29 41  2  0
 31 20  1  0
 32 24  1  0
 33  8  1  0
 34 38  1  0
 35 27  1  0
 35 14  2  0
 36 31  1  0
 38 13  1  0
 39 15  1  0
 40 24  1  0
 40 26  1  0
 41 23  1  0
 42  6  2  0
  1 43  1  0
  3 44  1  0
  3 45  1  0
  4 46  1  0
  4 47  1  0
  8 48  1  0
  9 49  1  0
  9 50  1  0
 10 51  1  0
 10 52  1  0
 11 53  1  0
 11 54  1  0
 13 55  1  0
 13 56  1  0
 13 57  1  0
 16 58  1  1
 17 59  1  0
 18 60  1  0
 20 61  1  0
 20 62  1  0
 21 63  1  0
 21 64  1  0
 25 65  1  6
 26 66  1  0
 27 67  1  0
 28 68  1  0
 28 69  1  0
 31 70  1  0
 31 71  1  0
 32 72  1  0
 32 73  1  0
 33 74  1  0
 33 75  1  0
 34 76  1  0
 36 77  1  0
 37 78  1  0
 37 79  1  0
 37 80  1  0
 38 81  1  1
 39 82  1  0
 39 83  1  0
 40 84  1  6
 42 85  1  0
M  END
>  <mol_id>  (25) 
2026-09-18-3war-s0-n100-0025

>  <rmsd_to_ref>  (25) 


$$$$

     RDKit          3D

 48 48  0  0  0  0  0  0  0  0999 V2000
    3.5418   17.8928   41.1668 C   0  0  0  0  0  0  0  0  0  0  0  0
    1.0300   18.0991   42.2773 C   0  0  0  0  0  0  0  0  0  0  0  0
    3.4513   18.6639   39.9232 C   0  0  2  0  0  0  0  0  0  0  0  0
    1.2985   24.1650   33.8900 C   0  0  0  0  0  0  0  0  0  0  0  0
    3.9442   19.5196   39.5664 C   0  0  0  0  0  0  0  0  0  0  0  0
    2.5454   23.5417   33.2200 C   0  0  0  0  0  0  0  0  0  0  0  0
    1.9149   20.5690   38.9583 C   0  0  0  0  0  0  0  0  0  0  0  0
    2.9611   22.3262   35.1523 N   0  0  0  0  0  0  0  0  0  0  0  0
    2.5535   19.7443   39.9650 C   0  0  0  0  0  0  0  0  0  0  0  0
    3.4518   22.8769   33.9309 C   0  0  0  0  0  0  0  0  0  0  0  0
    3.4256   20.7888   37.0670 C   0  0  0  0  0  0  0  0  0  0  0  0
   -0.1914   18.8816   42.3577 C   0  0  0  0  0  0  0  0  0  0  0  0
    2.5491   24.4751   32.0630 C   0  0  0  0  0  0  0  0  0  0  0  0
    3.8643   21.7053   35.9875 C   0  0  0  0  0  0  0  0  0  0  0  0
    2.3782   20.7854   37.8374 C   0  0  0  0  0  0  0  0  0  0  0  0
    1.1531   24.9571   32.5562 C   0  0  0  0  0  0  0  0  0  0  0  0
    2.2545   18.0527   41.8867 C   0  0  0  0  0  0  0  0  0  0  0  0
    4.3677   18.2737   41.7855 H   0  0  0  0  0  0  0  0  0  0  0  0
    3.7351   16.8316   40.9510 H   0  0  0  0  0  0  0  0  0  0  0  0
    1.1712   17.8729   43.3445 H   0  0  0  0  0  0  0  0  0  0  0  0
    0.7069   17.6989   41.3049 H   0  0  0  0  0  0  0  0  0  0  0  0
    3.5506   17.6875   39.4265 H   0  0  0  0  0  0  0  0  0  0  0  0
    0.4822   23.4608   34.1086 H   0  0  0  0  0  0  0  0  0  0  0  0
    1.3249   24.6492   34.8773 H   0  0  0  0  0  0  0  0  0  0  0  0
    4.1838   20.1834   40.4101 H   0  0  0  0  0  0  0  0  0  0  0  0
    4.8735   19.2222   39.0584 H   0  0  0  0  0  0  0  0  0  0  0  0
    3.2919   20.0494   38.8566 H   0  0  0  0  0  0  0  0  0  0  0  0
    2.7787   22.5292   32.8588 H   0  0  0  0  0  0  0  0  0  0  0  0
    0.9271   20.1159   38.7878 H   0  0  0  0  0  0  0  0  0  0  0  0
    2.0154   21.5642   39.4161 H   0  0  0  0  0  0  0  0  0  0  0  0
    1.7005   19.3347   40.5259 H   0  0  0  0  0  0  0  0  0  0  0  0
    3.3088   20.4931   40.2455 H   0  0  0  0  0  0  0  0  0  0  0  0
    3.8355   22.0522   33.3124 H   0  0  0  0  0  0  0  0  0  0  0  0
    4.2276   23.6062   34.2072 H   0  0  0  0  0  0  0  0  0  0  0  0
    4.2666   20.8050   37.7759 H   0  0  0  0  0  0  0  0  0  0  0  0
    3.0955   19.9723   36.4078 H   0  0  0  0  0  0  0  0  0  0  0  0
   -0.5106   18.9563   43.4077 H   0  0  0  0  0  0  0  0  0  0  0  0
   -0.0079   19.8898   41.9577 H   0  0  0  0  0  0  0  0  0  0  0  0
   -0.9804   18.3914   41.7684 H   0  0  0  0  0  0  0  0  0  0  0  0
    2.5466   23.9873   31.0770 H   0  0  0  0  0  0  0  0  0  0  0  0
    3.3775   25.1753   31.8803 H   0  0  0  0  0  0  0  0  0  0  0  0
    4.9390   21.8945   35.8495 H   0  0  0  0  0  0  0  0  0  0  0  0
    2.0617   21.8314   37.7126 H   0  0  0  0  0  0  0  0  0  0  0  0
    2.1872   19.7374   37.5629 H   0  0  0  0  0  0  0  0  0  0  0  0
    1.0846   26.0463   32.6939 H   0  0  0  0  0  0  0  0  0  0  0  0
    0.2689   24.7930   31.9228 H   0  0  0  0  0  0  0  0  0  0  0  0
    2.5713   17.4240   42.7319 H   0  0  0  0  0  0  0  0  0  0  0  0
    2.0041   18.8440   41.1647 H   0  0  0  0  0  0  0  0  0  0  0  0
  1 17  1  0
  2 12  1  0
  3  5  1  0
  3  9  1  0
  3  1  1  0
  6 10  1  0
  6  4  1  0
  7  9  1  0
  8 14  2  3
 10  8  1  0
 11 15  1  0
 13 16  1  0
 13  6  1  0
 14 11  1  0
 15  7  1  0
 16  4  1  0
 17  2  1  0
  1 18  1  0
  1 19  1  0
  2 20  1  0
  2 21  1  0
  3 22  1  6
  4 23  1  0
  4 24  1  0
  5 25  1  0
  5 26  1  0
  5 27  1  0
  6 28  1  0
  7 29  1  0
  7 30  1  0
  9 31  1  0
  9 32  1  0
 10 33  1  0
 10 34  1  0
 11 35  1  0
 11 36  1  0
 12 37  1  0
 12 38  1  0
 12 39  1  0
 13 40  1  0
 13 41  1  0
 14 42  1  0
 15 43  1  0
 15 44  1  0
 16 45  1  0
 16 46  1  0
 17 47  1  0
 17 48  1  0
M  END
>  <mol_id>  (26) 
2026-09-18-3war-s0-n100-0026

>  <rmsd_to_ref>  (26) 


$$$$

     RDKit          3D

 40 40  0  0  0  0  0  0  0  0999 V2000
    3.6490   22.3910   34.2630 C   0  0  0  0  0  0  0  0  0  0  0  0
    3.8980   24.9750   30.2300 C   0  0  0  0  0  0  0  0  0  0  0  0
    2.4010   17.9650   38.0390 C   0  0  0  0  0  0  0  0  0  0  0  0
    2.9640   17.4900   40.4140 C   0  0  0  0  0  0  0  0  0  0  0  0
    2.1860   19.9460   37.1510 O   0  0  0  0  0  0  0  0  0  0  0  0
    4.4740   23.9920   32.5600 C   0  0  0  0  0  0  0  0  0  0  0  0
    3.0950   20.0060   39.6760 C   0  0  0  0  0  0  0  0  0  0  0  0
    2.4970   21.1480   36.5630 C   0  0  0  0  0  0  0  0  0  0  0  0
    2.4880   19.3850   38.3900 C   0  0  2  0  0  0  0  0  0  0  0  0
    3.7320   24.1930   31.5310 C   0  0  0  0  0  0  0  0  0  0  0  0
    3.6190   18.7960   40.5640 C   0  0  0  0  0  0  0  0  0  0  0  0
    1.4820   22.1320   37.7390 C   0  0  0  0  0  0  0  0  0  0  0  0
    3.1890   21.3730   35.3570 S   0  0  0  0  0  4  0  0  0  0  0  0
    2.8580   26.1870   30.2080 C   0  0  0  0  0  0  0  0  0  0  0  0
    2.5570   16.9750   39.0890 C   0  0  0  0  0  0  0  0  0  0  0  0
    4.2620   22.9610   33.4540 C   0  0  0  0  0  0  0  0  0  0  0  0
    2.7752   22.2275   33.6151 H   0  0  0  0  0  0  0  0  0  0  0  0
    4.3612   22.7839   35.0035 H   0  0  0  0  0  0  0  0  0  0  0  0
    4.9231   25.3689   30.1660 H   0  0  0  0  0  0  0  0  0  0  0  0
    3.7091   24.3110   29.3736 H   0  0  0  0  0  0  0  0  0  0  0  0
    2.2208   17.6550   36.9991 H   0  0  0  0  0  0  0  0  0  0  0  0
    3.6556   16.7462   40.8365 H   0  0  0  0  0  0  0  0  0  0  0  0
    1.9961   17.6538   40.9103 H   0  0  0  0  0  0  0  0  0  0  0  0
    5.3188   24.6737   32.7376 H   0  0  0  0  0  0  0  0  0  0  0  0
    2.3267   20.5725   40.2226 H   0  0  0  0  0  0  0  0  0  0  0  0
    3.9121   20.7009   39.4322 H   0  0  0  0  0  0  0  0  0  0  0  0
    2.1383   19.8903   39.3023 H   0  0  0  0  0  0  0  0  0  0  0  0
    2.7574   23.6881   31.6032 H   0  0  0  0  0  0  0  0  0  0  0  0
    3.5132   19.0948   41.6173 H   0  0  0  0  0  0  0  0  0  0  0  0
    4.6479   18.6266   40.2136 H   0  0  0  0  0  0  0  0  0  0  0  0
    1.7558   21.8665   38.7708 H   0  0  0  0  0  0  0  0  0  0  0  0
    1.6667   23.2039   37.5748 H   0  0  0  0  0  0  0  0  0  0  0  0
    0.4164   21.9142   37.5748 H   0  0  0  0  0  0  0  0  0  0  0  0
    3.6781   20.1537   34.9685 H   0  0  0  0  0  0  0  0  0  0  0  0
    2.6099   26.4761   31.2399 H   0  0  0  0  0  0  0  0  0  0  0  0
    3.3055   27.0447   29.6845 H   0  0  0  0  0  0  0  0  0  0  0  0
    1.9423   25.8749   29.6845 H   0  0  0  0  0  0  0  0  0  0  0  0
    2.3826   15.9039   38.9095 H   0  0  0  0  0  0  0  0  0  0  0  0
    4.3734   22.1285   32.7437 H   0  0  0  0  0  0  0  0  0  0  0  0
    4.6241   23.6271   34.2510 H   0  0  0  0  0  0  0  0  0  0  0  0
  1 13  1  0
  2 10  1  0
  3  9  1  0
  3 15  2  0
  4 11  1  0
  6 16  1  0
  7 11  1  0
  8  5  1  0
  8 12  1  0
  9  5  1  0
  9  7  1  0
 10  6  2  3
 13  8  2  3
 14  2  1  0
 15  4  1  0
 16  1  1  0
  1 17  1  0
  1 18  1  0
  2 19  1  0
  2 20  1  0
  3 21  1  0
  4 22  1  0
  4 23  1  0
  6 24  1  0
  7 25  1  0
  7 26  1  0
  9 27  1  1
 10 28  1  0
 11 29  1  0
 11 30  1  0
 12 31  1  0
 12 32  1  0
 12 33  1  0
 13 34  1  0
 14 35  1  0
 14 36  1  0
 14 37  1  0
 15 38  1  0
 16 39  1  0
 16 40  1  0
M  END
>  <mol_id>  (27) 
2026-09-18-3war-s0-n100-0027

>  <rmsd_to_ref>  (27) 


$$$$

     RDKit          3D

 70 72  0  0  0  0  0  0  0  0999 V2000
   -1.1359   19.1490   44.0533 N   0  0  0  0  0  0  0  0  0  0  0  0
    2.6594   26.6893   28.9446 S   0  0  2  0  0  4  0  0  0  0  0  0
    1.6974   18.7673   40.3992 N   0  0  0  0  0  0  0  0  0  0  0  0
    1.7783   21.5187   36.6348 C   0  0  0  0  0  0  0  0  0  0  0  0
    2.5957   22.1978   34.2043 C   0  0  0  0  0  0  0  0  0  0  0  0
    2.6575   25.9676   31.7246 O   0  0  0  0  0  0  0  0  0  0  0  0
    3.2355   19.0046   38.6175 C   0  0  1  0  0  0  0  0  0  0  0  0
    2.8128   19.3932   39.9502 N   0  0  0  0  0  0  0  0  0  0  0  0
    1.7652   17.4893   40.8064 C   0  0  0  0  0  0  0  0  0  0  0  0
   -0.2945   16.7826   44.5715 C   0  0  0  0  0  0  0  0  0  0  0  0
    0.0994   18.2496   42.3488 C   0  0  0  0  0  0  0  0  0  0  0  0
   -0.5231   18.0123   43.6530 C   0  0  2  0  0  0  0  0  0  0  0  0
    3.2473   19.6717   36.9585 O   0  0  0  0  0  0  0  0  0  0  0  0
    0.9220   17.1717   41.8860 N   0  0  0  0  0  0  0  0  0  0  0  0
    2.6721   23.4357   32.0887 C   0  0  0  0  0  0  0  0  0  0  0  0
    0.3178   26.6747   31.0145 S   0  0  1  0  0  4  0  0  0  0  0  0
    2.6838   21.5654   35.7117 C   0  0  0  0  0  0  0  0  0  0  0  0
    3.2390   20.4840   37.8367 C   0  0  1  0  0  0  0  0  0  0  0  0
    4.1882   16.8937   37.2541 C   0  0  0  0  0  0  0  0  0  0  0  0
    2.3037   25.2505   29.6614 C   0  0  0  0  0  0  0  0  0  0  0  0
   -1.0715   19.9937   42.9419 C   0  0  0  0  0  0  0  0  0  0  0  0
    2.1307   23.7651   32.8285 C   0  0  0  0  0  0  0  0  0  0  0  0
    2.1145   24.8806   31.9200 C   0  0  1  0  0  0  0  0  0  0  0  0
    1.8589   25.7560   30.9589 C   0  0  1  0  0  0  0  0  0  0  0  0
    1.8146   21.1190   38.1632 C   0  0  0  0  0  0  0  0  0  0  0  0
    4.3778   26.8350   29.0274 C   0  0  0  0  0  0  0  0  0  0  0  0
    1.7923   23.2687   34.0295 C   0  0  0  0  0  0  0  0  0  0  0  0
    0.0107   27.5379   32.2908 C   0  0  0  0  0  0  0  0  0  0  0  0
   -0.3227   19.5486   41.8089 C   0  0  0  0  0  0  0  0  0  0  0  0
    1.4831   27.6632   29.7941 C   0  0  0  0  0  0  0  0  0  0  0  0
    2.2446   16.6916   40.0935 O   0  0  0  0  0  0  0  0  0  0  0  0
    4.3059   17.7745   38.2756 C   0  0  0  0  0  0  0  0  0  0  0  0
    2.5144   27.0067   27.6197 H   0  0  0  0  0  0  0  0  0  0  0  0
    0.7994   19.2710   40.4279 H   0  0  0  0  0  0  0  0  0  0  0  0
    0.7797   21.8183   36.2842 H   0  0  0  0  0  0  0  0  0  0  0  0
    3.6130   22.4960   33.9109 H   0  0  0  0  0  0  0  0  0  0  0  0
    2.1463   21.4036   33.5900 H   0  0  0  0  0  0  0  0  0  0  0  0
    2.5850   18.2424   38.1637 H   0  0  0  0  0  0  0  0  0  0  0  0
    3.5816   19.1852   40.6033 H   0  0  0  0  0  0  0  0  0  0  0  0
   -0.3475   17.0964   45.6244 H   0  0  0  0  0  0  0  0  0  0  0  0
   -1.0706   16.0283   44.3742 H   0  0  0  0  0  0  0  0  0  0  0  0
    0.6965   16.3512   44.3669 H   0  0  0  0  0  0  0  0  0  0  0  0
   -1.0650   17.0551   43.6651 H   0  0  0  0  0  0  0  0  0  0  0  0
    3.2781   18.7629   37.3499 H   0  0  0  0  0  0  0  0  0  0  0  0
    0.8975   16.2343   42.3121 H   0  0  0  0  0  0  0  0  0  0  0  0
    2.8007   24.0497   31.1851 H   0  0  0  0  0  0  0  0  0  0  0  0
    3.1550   22.4497   32.1570 H   0  0  0  0  0  0  0  0  0  0  0  0
   -0.9320   26.1356   30.8583 H   0  0  0  0  0  0  0  0  0  0  0  0
    3.6516   21.1156   35.9780 H   0  0  0  0  0  0  0  0  0  0  0  0
    3.9058   21.3576   37.8835 H   0  0  0  0  0  0  0  0  0  0  0  0
    4.9501   16.1134   37.1101 H   0  0  0  0  0  0  0  0  0  0  0  0
    3.3307   16.9584   36.5683 H   0  0  0  0  0  0  0  0  0  0  0  0
    1.5053   24.7102   29.1317 H   0  0  0  0  0  0  0  0  0  0  0  0
    3.1231   24.5172   29.6909 H   0  0  0  0  0  0  0  0  0  0  0  0
   -1.5804   20.9689   42.9392 H   0  0  0  0  0  0  0  0  0  0  0  0
    2.8785   24.3876   31.3010 H   0  0  0  0  0  0  0  0  0  0  0  0
    1.8316   21.9651   38.8658 H   0  0  0  0  0  0  0  0  0  0  0  0
    1.0074   20.5511   38.6489 H   0  0  0  0  0  0  0  0  0  0  0  0
    4.6999   26.7845   30.0779 H   0  0  0  0  0  0  0  0  0  0  0  0
    4.8430   26.0144   28.4614 H   0  0  0  0  0  0  0  0  0  0  0  0
    4.6853   27.7987   28.5954 H   0  0  0  0  0  0  0  0  0  0  0  0
    1.9656   24.0149   34.8189 H   0  0  0  0  0  0  0  0  0  0  0  0
    0.7272   22.9985   34.0795 H   0  0  0  0  0  0  0  0  0  0  0  0
    0.2091   26.9414   33.1935 H   0  0  0  0  0  0  0  0  0  0  0  0
    0.6531   28.4309   32.2928 H   0  0  0  0  0  0  0  0  0  0  0  0
   -1.0452   27.8460   32.2797 H   0  0  0  0  0  0  0  0  0  0  0  0
   -0.1248   20.0277   40.8387 H   0  0  0  0  0  0  0  0  0  0  0  0
    2.0257   28.4206   30.3788 H   0  0  0  0  0  0  0  0  0  0  0  0
    0.8267   28.0939   29.0236 H   0  0  0  0  0  0  0  0  0  0  0  0
    5.1806   17.6693   38.9342 H   0  0  0  0  0  0  0  0  0  0  0  0
  2 26  1  0
  2 30  1  0
  2 20  1  0
  3  9  1  0
  4 25  1  0
  5 17  1  0
  6 23  1  0
  7 32  1  0
  7  8  1  0
  8  3  1  0
  9 14  1  0
 11 12  1  0
 12  1  1  0
 12 10  1  0
 14 11  1  0
 15 22  2  3
 16 24  1  0
 16 28  1  0
 17  4  2  3
 18 13  1  0
 18 25  1  0
 18  7  1  0
 19 32  2  3
 21  1  2  0
 22 27  1  0
 23 22  1  0
 24 20  1  0
 24  6  1  1
 24 23  1  0
 27  5  1  0
 29 11  2  0
 29 21  1  0
 30 16  1  0
 31  9  2  0
  2 33  1  6
  3 34  1  0
  4 35  1  0
  5 36  1  0
  5 37  1  0
  7 38  1  6
  8 39  1  0
 10 40  1  0
 10 41  1  0
 10 42  1  0
 12 43  1  6
 13 44  1  0
 14 45  1  0
 15 46  1  0
 15 47  1  0
 16 48  1  6
 17 49  1  0
 18 50  1  1
 19 51  1  0
 19 52  1  0
 20 53  1  0
 20 54  1  0
 21 55  1  0
 23 56  1  6
 25 57  1  0
 25 58  1  0
 26 59  1  0
 26 60  1  0
 26 61  1  0
 27 62  1  0
 27 63  1  0
 28 64  1  0
 28 65  1  0
 28 66  1  0
 29 67  1  0
 30 68  1  0
 30 69  1  0
 32 70  1  0
M  END
>  <mol_id>  (28) 
2026-09-18-3war-s0-n100-0028

>  <rmsd_to_ref>  (28) 


$$$$

     RDKit          3D

 70 72  0  0  0  0  0  0  0  0999 V2000
    3.6525   12.1199   38.6317 O   0  0  0  0  0  0  0  0  0  0  0  0
    3.9580   23.5267   29.7052 C   0  0  1  0  0  0  0  0  0  0  0  0
    4.2213   19.0076   36.6608 C   0  0  0  0  0  0  0  0  0  0  0  0
    3.1923   19.3249   38.9099 C   0  0  0  0  0  0  0  0  0  0  0  0
    2.4402   16.0909   41.5571 O   0  0  0  0  0  0  0  0  0  0  0  0
    4.2152   17.5905   37.5206 C   0  0  0  0  0  0  0  0  0  0  0  0
    2.9907   24.6989   32.0158 C   0  0  1  0  0  0  0  0  0  0  0  0
    5.0771   13.9521   37.3186 O   0  0  0  0  0  0  0  0  0  0  0  0
    3.5073   17.0123   39.7399 C   0  0  2  0  0  0  0  0  0  0  0  0
    3.6657   18.1470   38.6975 C   0  0  0  0  0  0  0  0  0  0  0  0
    2.9078   23.9519   30.6303 C   0  0  2  0  0  0  0  0  0  0  0  0
    2.6510   20.1315   39.9782 C   0  0  0  0  0  0  0  0  0  0  0  0
    2.7374   17.1576   40.9190 C   0  0  0  0  0  0  0  0  0  0  0  0
    2.9595   20.8496   35.3623 O   0  0  0  0  0  0  0  0  0  0  0  0
    4.1024   15.8920   39.4145 O   0  0  0  0  0  0  0  0  0  0  0  0
    6.2267   22.6817   29.1208 S   0  0  0  0  0  0  0  0  0  0  0  0
    2.0152   25.0162   32.9990 C   0  0  0  0  0  0  0  0  0  0  0  0
    2.4463   18.3626   41.6930 N   0  0  0  0  0  0  0  0  0  0  0  0
    4.9633   22.8359   30.2832 C   0  0  0  0  0  0  0  0  0  0  0  0
    3.7343   13.5721   38.0488 P   0  0  0  0  0  5  0  0  0  0  0  0
    3.8005   23.2618   28.2550 C   0  0  0  0  0  0  0  0  0  0  0  0
    1.8490   20.6217   42.2101 C   0  0  0  0  0  0  0  0  0  0  0  0
    2.5201   13.7485   37.2635 O   0  0  0  0  0  0  0  0  0  0  0  0
    3.3825   23.2054   31.9505 C   0  0  2  0  0  0  0  0  0  0  0  0
    2.3120   19.6455   41.3252 C   0  0  0  0  0  0  0  0  0  0  0  0
    3.7875   22.4231   34.3437 C   0  0  0  0  0  0  0  0  0  0  0  0
    0.4636   19.5638   42.6390 C   0  0  0  0  0  0  0  0  0  0  0  0
    2.8565   22.1938   33.1242 C   0  0  0  0  0  0  0  0  0  0  0  0
    3.4076   19.7884   37.5764 C   0  0  0  0  0  0  0  0  0  0  0  0
    5.1533   22.8341   27.8430 C   0  0  0  0  0  0  0  0  0  0  0  0
    3.8920   21.1591   34.9429 C   0  0  0  0  0  0  0  0  0  0  0  0
    3.8543   14.5612   39.4524 C   0  0  0  0  0  0  0  0  0  0  0  0
    3.6847   12.1588   39.6204 H   0  0  0  0  0  0  0  0  0  0  0  0
    4.1681   24.5842   29.4869 H   0  0  0  0  0  0  0  0  0  0  0  0
    5.2336   19.4216   36.5431 H   0  0  0  0  0  0  0  0  0  0  0  0
    3.8658   18.9488   35.6215 H   0  0  0  0  0  0  0  0  0  0  0  0
    3.5704   16.8212   37.0709 H   0  0  0  0  0  0  0  0  0  0  0  0
    5.1693   17.0510   37.6137 H   0  0  0  0  0  0  0  0  0  0  0  0
    3.3922   25.7053   32.2053 H   0  0  0  0  0  0  0  0  0  0  0  0
    5.7605   14.1978   37.9914 H   0  0  0  0  0  0  0  0  0  0  0  0
    2.6081   16.6937   39.1921 H   0  0  0  0  0  0  0  0  0  0  0  0
    2.1462   24.1558   29.8632 H   0  0  0  0  0  0  0  0  0  0  0  0
    3.3836   20.9371   40.1348 H   0  0  0  0  0  0  0  0  0  0  0  0
    1.6432   20.3262   39.5827 H   0  0  0  0  0  0  0  0  0  0  0  0
    3.0041   20.9132   36.3492 H   0  0  0  0  0  0  0  0  0  0  0  0
    2.4727   24.9685   33.9982 H   0  0  0  0  0  0  0  0  0  0  0  0
    1.6307   26.0312   32.8200 H   0  0  0  0  0  0  0  0  0  0  0  0
    1.1870   24.2947   32.9402 H   0  0  0  0  0  0  0  0  0  0  0  0
    5.3310   23.3778   31.1670 H   0  0  0  0  0  0  0  0  0  0  0  0
    4.6139   21.8445   30.6073 H   0  0  0  0  0  0  0  0  0  0  0  0
    3.0632   22.4651   28.0771 H   0  0  0  0  0  0  0  0  0  0  0  0
    3.4333   24.1338   27.6939 H   0  0  0  0  0  0  0  0  0  0  0  0
    1.5609   21.5670   41.7270 H   0  0  0  0  0  0  0  0  0  0  0  0
    2.5083   21.0244   42.9931 H   0  0  0  0  0  0  0  0  0  0  0  0
    4.1841   22.4550   32.0159 H   0  0  0  0  0  0  0  0  0  0  0  0
    3.3444   23.1494   35.0410 H   0  0  0  0  0  0  0  0  0  0  0  0
    4.7663   22.8329   34.0539 H   0  0  0  0  0  0  0  0  0  0  0  0
    0.3600   19.5211   43.7332 H   0  0  0  0  0  0  0  0  0  0  0  0
   -0.4587   19.9711   42.1990 H   0  0  0  0  0  0  0  0  0  0  0  0
    0.6406   18.5512   42.2476 H   0  0  0  0  0  0  0  0  0  0  0  0
    1.8151   22.4276   33.3905 H   0  0  0  0  0  0  0  0  0  0  0  0
    2.8834   21.1457   32.7913 H   0  0  0  0  0  0  0  0  0  0  0  0
    3.8799   20.7786   37.6563 H   0  0  0  0  0  0  0  0  0  0  0  0
    2.4047   19.7428   37.1268 H   0  0  0  0  0  0  0  0  0  0  0  0
    5.0716   21.8596   27.3392 H   0  0  0  0  0  0  0  0  0  0  0  0
    5.5507   23.6160   27.1792 H   0  0  0  0  0  0  0  0  0  0  0  0
    4.2037   20.4273   34.1832 H   0  0  0  0  0  0  0  0  0  0  0  0
    4.6336   21.2195   35.7531 H   0  0  0  0  0  0  0  0  0  0  0  0
    2.8957   14.4499   39.9803 H   0  0  0  0  0  0  0  0  0  0  0  0
    4.7860   14.1840   39.8992 H   0  0  0  0  0  0  0  0  0  0  0  0
  2 21  1  0
  2 19  1  0
  3  6  1  0
  3 29  1  0
  4 12  1  0
  6 10  1  0
  7 17  1  0
  8 20  1  0
  9 15  1  0
  9 13  1  0
 10  4  2  0
 10  9  1  0
 11  2  1  0
 11 24  1  0
 11  7  1  0
 12 25  1  0
 13  5  2  0
 13 18  1  0
 16 19  1  0
 20  1  1  0
 20 32  1  0
 22 27  1  0
 23 20  2  0
 24  7  1  0
 24 28  1  0
 25 18  2  0
 25 22  1  0
 26 31  1  0
 28 26  1  0
 29  4  1  0
 30 21  1  0
 30 16  1  0
 31 14  1  0
 32 15  1  0
  1 33  1  0
  2 34  1  6
  3 35  1  0
  3 36  1  0
  6 37  1  0
  6 38  1  0
  7 39  1  6
  8 40  1  0
  9 41  1  6
 11 42  1  6
 12 43  1  0
 12 44  1  0
 14 45  1  0
 17 46  1  0
 17 47  1  0
 17 48  1  0
 19 49  1  0
 19 50  1  0
 21 51  1  0
 21 52  1  0
 22 53  1  0
 22 54  1  0
 24 55  1  6
 26 56  1  0
 26 57  1  0
 27 58  1  0
 27 59  1  0
 27 60  1  0
 28 61  1  0
 28 62  1  0
 29 63  1  0
 29 64  1  0
 30 65  1  0
 30 66  1  0
 31 67  1  0
 31 68  1  0
 32 69  1  0
 32 70  1  0
M  END
>  <mol_id>  (29) 
2026-09-18-3war-s0-n100-0029

>  <rmsd_to_ref>  (29) 


$$$$

     RDKit          3D

 66 68  0  0  0  0  0  0  0  0999 V2000
    0.6340   27.1510   32.5500 O   0  0  0  0  0  0  0  0  0  0  0  0
    5.3960   23.3880   30.8860 C   0  0  0  0  0  0  0  0  0  0  0  0
    2.5860   26.2420   32.6500 C   0  0  2  0  0  0  0  0  0  0  0  0
    2.5940   24.8020   32.5960 C   0  0  1  0  0  0  0  0  0  0  0  0
    2.8330   15.3150   39.8070 O   0  0  0  0  0  0  0  0  0  0  0  0
    4.3040   20.3700   35.2660 C   0  0  0  0  0  0  0  0  0  0  0  0
    3.0870   20.0570   37.6430 C   0  0  2  0  0  0  0  0  0  0  0  0
    3.9930   22.9300   32.5530 N   0  0  0  0  0  0  0  0  0  0  0  0
    1.2590   15.5270   40.7070 S   0  0  0  0  0  4  0  0  0  0  0  0
    2.4080   17.8600   40.6150 N   0  0  0  0  0  0  0  0  0  0  0  0
    3.9090   18.3440   36.5850 O   0  0  0  0  0  0  0  0  0  0  0  0
    3.5560   19.8260   40.4890 O   0  0  0  0  0  0  0  0  0  0  0  0
    1.4990   26.7930   31.7630 C   0  0  0  0  0  0  0  0  0  0  0  0
    2.9360   25.1090   29.6510 O   0  0  0  0  0  0  0  0  0  0  0  0
    3.9920   25.6310   31.9540 S   0  0  2  0  0  4  0  0  0  0  0  0
   -0.6440   17.5940   43.7720 C   0  0  0  0  0  0  0  0  0  0  0  0
    3.2910   19.0100   38.4830 C   0  0  2  0  0  0  0  0  0  0  0  0
    1.4660   26.4940   30.5110 N   0  0  0  0  0  0  0  0  0  0  0  0
    1.6770   22.1490   37.6240 C   0  0  0  0  0  0  0  0  0  0  0  0
    0.8910   18.9080   42.0560 C   0  0  0  0  0  0  0  0  0  0  0  0
    1.6530   25.6550   28.0980 C   0  0  0  0  0  0  0  0  0  0  0  0
    3.2610   22.7910   33.6040 C   0  0  0  0  0  0  0  0  0  0  0  0
    1.8590   25.6480   29.5230 C   0  0  0  0  0  0  0  0  0  0  0  0
    2.3300   21.3460   37.7290 C   0  0  0  0  0  0  0  0  0  0  0  0
    0.0580   16.7340   43.0180 C   0  0  0  0  0  0  0  0  0  0  0  0
    3.7020   17.8330   37.8700 N   0  0  0  0  0  0  0  0  0  0  0  0
    0.1060   19.5970   42.8470 N   0  0  0  0  0  0  0  0  0  0  0  0
   -0.6440   18.9550   43.6470 C   0  0  0  0  0  0  0  0  0  0  0  0
    3.0310   18.9200   39.9950 C   0  0  0  0  0  0  0  0  0  0  0  0
    0.8570   16.6840   41.8650 C   0  0  0  0  0  0  0  0  0  0  0  0
    2.8260   24.1600   33.7610 C   0  0  0  0  0  0  0  0  0  0  0  0
    1.4530   17.8270   41.6120 C   0  0  0  0  0  0  0  0  0  0  0  0
    4.6800   24.0770   32.1980 C   0  0  2  0  0  0  0  0  0  0  0  0
    3.7910   19.7090   36.4780 C   0  0  2  0  0  0  0  0  0  0  0  0
    6.1512   22.6612   31.2199 H   0  0  0  0  0  0  0  0  0  0  0  0
    4.6349   22.8740   30.2806 H   0  0  0  0  0  0  0  0  0  0  0  0
    5.8804   24.1683   30.2806 H   0  0  0  0  0  0  0  0  0  0  0  0
    2.4950   27.0007   33.4412 H   0  0  0  0  0  0  0  0  0  0  0  0
    1.8797   24.0641   32.2021 H   0  0  0  0  0  0  0  0  0  0  0  0
    4.9550   21.2088   35.5535 H   0  0  0  0  0  0  0  0  0  0  0  0
    4.8796   19.6468   34.6697 H   0  0  0  0  0  0  0  0  0  0  0  0
    3.4606   20.7481   34.6697 H   0  0  0  0  0  0  0  0  0  0  0  0
    3.9809   20.5550   38.0467 H   0  0  0  0  0  0  0  0  0  0  0  0
    4.7098   22.1935   32.6212 H   0  0  0  0  0  0  0  0  0  0  0  0
    3.2653   22.9228   31.8241 H   0  0  0  0  0  0  0  0  0  0  0  0
    0.3198   15.6865   39.7224 H   0  0  0  0  0  0  0  0  0  0  0  0
    2.7051   16.9333   40.2775 H   0  0  0  0  0  0  0  0  0  0  0  0
    4.9079   26.3853   31.2692 H   0  0  0  0  0  0  0  0  0  0  0  0
   -1.2770   17.1645   44.5625 H   0  0  0  0  0  0  0  0  0  0  0  0
    4.3126   19.3671   38.6799 H   0  0  0  0  0  0  0  0  0  0  0  0
    0.8851   27.2143   30.0586 H   0  0  0  0  0  0  0  0  0  0  0  0
    0.9865   22.9981   37.5130 H   0  0  0  0  0  0  0  0  0  0  0  0
    1.3088   19.6837   41.3973 H   0  0  0  0  0  0  0  0  0  0  0  0
    0.5747   25.6916   27.8836 H   0  0  0  0  0  0  0  0  0  0  0  0
    2.1440   26.5370   27.6609 H   0  0  0  0  0  0  0  0  0  0  0  0
    2.0829   24.7417   27.6609 H   0  0  0  0  0  0  0  0  0  0  0  0
    2.4167   22.1075   33.4308 H   0  0  0  0  0  0  0  0  0  0  0  0
    3.7664   22.3527   34.4772 H   0  0  0  0  0  0  0  0  0  0  0  0
   -0.0188   15.7255   43.4505 H   0  0  0  0  0  0  0  0  0  0  0  0
    2.9708   17.1078   37.8882 H   0  0  0  0  0  0  0  0  0  0  0  0
   -0.4140   19.3459   44.6491 H   0  0  0  0  0  0  0  0  0  0  0  0
   -1.6293   19.1216   43.1873 H   0  0  0  0  0  0  0  0  0  0  0  0
    3.6057   24.7095   34.3089 H   0  0  0  0  0  0  0  0  0  0  0  0
    1.8686   24.1285   34.3018 H   0  0  0  0  0  0  0  0  0  0  0  0
    5.2496   24.4992   33.0390 H   0  0  0  0  0  0  0  0  0  0  0  0
    2.8099   19.5864   35.9959 H   0  0  0  0  0  0  0  0  0  0  0  0
  2 33  1  0
  3 13  1  0
  4  3  1  0
  4 31  1  0
  5  9  2  0
  6 34  1  0
  7 24  1  0
  7 17  1  0
  8 22  1  0
  9 30  1  0
 10 32  1  0
 11 26  1  0
 13  1  2  0
 15 33  1  0
 15  4  1  0
 15  3  1  0
 17 29  1  0
 18 13  1  0
 19 24  3  0
 20 27  2  0
 21 23  1  0
 22 31  1  0
 23 14  2  0
 23 18  1  0
 25 16  2  0
 26 17  1  0
 27 28  1  0
 28 16  1  0
 29 12  2  0
 29 10  1  0
 30 25  1  0
 32 30  2  0
 32 20  1  0
 33  8  1  0
 34 11  1  0
 34  7  1  0
  2 35  1  0
  2 36  1  0
  2 37  1  0
  3 38  1  1
  4 39  1  6
  6 40  1  0
  6 41  1  0
  6 42  1  0
  7 43  1  1
  8 44  1  0
  8 45  1  0
  9 46  1  6
 10 47  1  0
 15 48  1  0
 16 49  1  0
 17 50  1  1
 18 51  1  0
 19 52  1  0
 20 53  1  0
 21 54  1  0
 21 55  1  0
 21 56  1  0
 22 57  1  0
 22 58  1  0
 25 59  1  0
 26 60  1  0
 28 61  1  0
 28 62  1  0
 31 63  1  0
 31 64  1  0
 33 65  1  1
 34 66  1  1
M  CHG  1   8   1
M  END
>  <mol_id>  (30) 
2026-09-18-3war-s0-n100-0030

>  <rmsd_to_ref>  (30) 


$$$$

     RDKit          3D

 25 25  0  0  0  0  0  0  0  0999 V2000
    2.0260   20.7870   38.2620 C   0  0  0  0  0  0  0  0  0  0  0  0
    3.5720   22.6830   33.6270 C   0  0  0  0  0  0  0  0  0  0  0  0
    2.4040   22.2190   34.6060 C   0  0  0  0  0  0  0  0  0  0  0  0
    2.8400   20.2690   37.0540 C   0  0  0  0  0  0  0  0  0  0  0  0
    1.8790   23.4610   35.3620 C   0  0  0  0  0  0  0  0  0  0  0  0
    2.8290   21.1070   35.6290 N   0  0  0  0  0  0  0  0  0  0  0  0
    1.5740   20.6380   40.6240 C   0  0  0  0  0  0  0  0  0  0  0  0
    3.7460   18.3940   38.5650 C   0  0  0  0  0  0  0  0  0  0  0  0
    1.0540   21.0710   41.6190 N   0  0  0  0  0  0  0  0  0  0  0  0
    2.1660   20.0350   39.6070 C   0  0  0  0  0  0  0  0  0  0  0  0
    3.1160   18.7730   39.7940 C   0  0  0  0  0  0  0  0  0  0  0  0
    3.6320   19.0640   37.2380 C   0  0  0  0  0  0  0  0  0  0  0  0
    1.2290   21.3760   33.4940 S   0  0  0  0  0  0  0  0  0  0  0  0
    1.3676   21.6632   38.1682 H   0  0  0  0  0  0  0  0  0  0  0  0
    4.4331   23.0251   34.2198 H   0  0  0  0  0  0  0  0  0  0  0  0
    3.8763   21.8375   32.9926 H   0  0  0  0  0  0  0  0  0  0  0  0
    3.2131   23.5068   32.9926 H   0  0  0  0  0  0  0  0  0  0  0  0
    1.9519   23.2884   36.4459 H   0  0  0  0  0  0  0  0  0  0  0  0
    2.4830   24.3389   35.0890 H   0  0  0  0  0  0  0  0  0  0  0  0
    0.8285   23.6395   35.0890 H   0  0  0  0  0  0  0  0  0  0  0  0
    3.5209   20.5790   35.0782 H   0  0  0  0  0  0  0  0  0  0  0  0
    4.3902   17.5032   38.6048 H   0  0  0  0  0  0  0  0  0  0  0  0
    3.2704   18.2541   40.7515 H   0  0  0  0  0  0  0  0  0  0  0  0
    4.1616   18.6348   36.3747 H   0  0  0  0  0  0  0  0  0  0  0  0
    0.2951   20.7060   34.2396 H   0  0  0  0  0  0  0  0  0  0  0  0
  1 10  2  0
  2  3  1  0
  3  5  1  0
  3  6  1  0
  4 12  2  0
  4  1  1  0
  6  4  1  0
  7  9  3  0
  8 11  2  0
 10 11  1  0
 10  7  1  0
 12  8  1  0
 13  3  1  0
  1 14  1  0
  2 15  1  0
  2 16  1  0
  2 17  1  0
  5 18  1  0
  5 19  1  0
  5 20  1  0
  6 21  1  0
  8 22  1  0
 11 23  1  0
 12 24  1  0
 13 25  1  0
M  END
>  <mol_id>  (31) 
2026-09-18-3war-s0-n100-0031

>  <rmsd_to_ref>  (31) 


$$$$

     RDKit          3D

 32 34  0  0  0  0  0  0  0  0999 V2000
    2.6703   20.2353   38.0105 C   0  0  2  0  0  0  0  0  0  0  0  0
    1.9228   21.4515   34.9547 O   0  0  0  0  0  0  0  0  0  0  0  0
    2.0432   19.2643   40.2674 C   0  0  0  0  0  0  0  0  0  0  0  0
    3.4610   18.8021   39.7731 C   0  0  2  0  0  0  0  0  0  0  0  0
    2.8539   21.6227   35.5541 C   0  0  0  0  0  0  0  0  0  0  0  0
    4.9215   23.2665   34.0172 C   0  0  0  0  0  0  0  0  0  0  0  0
    3.8508   23.5537   32.0562 C   0  0  0  0  0  0  0  0  0  0  0  0
    3.7847   22.9829   33.4007 C   0  0  0  0  0  0  0  0  0  0  0  0
    4.1132   22.1280   34.1384 C   0  0  2  0  0  0  0  0  0  0  0  0
    1.7101   20.6662   39.3522 S   0  0  0  0  0  0  0  0  0  0  0  0
    3.6146   19.3828   38.4580 N   0  0  0  0  0  0  0  0  0  0  0  0
    2.7560   21.4349   37.0594 C   0  0  0  0  0  0  0  0  0  0  0  0
    3.4993   17.2018   39.7920 C   0  0  0  0  0  0  0  0  0  0  0  0
    4.6365   19.2841   41.0745 Cl  0  0  0  0  0  0  0  0  0  0  0  0
    2.7718   23.7578   32.8047 C   0  0  0  0  0  0  0  0  0  0  0  0
    2.3532   19.5731   37.1913 H   0  0  0  0  0  0  0  0  0  0  0  0
    1.2907   18.4855   40.0742 H   0  0  0  0  0  0  0  0  0  0  0  0
    2.0185   19.4551   41.3505 H   0  0  0  0  0  0  0  0  0  0  0  0
    4.9682   24.0236   34.8138 H   0  0  0  0  0  0  0  0  0  0  0  0
    5.9608   23.5188   33.7600 H   0  0  0  0  0  0  0  0  0  0  0  0
    3.7926   22.8954   31.1768 H   0  0  0  0  0  0  0  0  0  0  0  0
    4.5600   24.2044   31.5237 H   0  0  0  0  0  0  0  0  0  0  0  0
    4.3988   21.0658   34.1315 H   0  0  0  0  0  0  0  0  0  0  0  0
    3.6616   18.6033   37.7864 H   0  0  0  0  0  0  0  0  0  0  0  0
    4.4590   19.9669   38.5404 H   0  0  0  0  0  0  0  0  0  0  0  0
    1.8526   22.0084   37.3146 H   0  0  0  0  0  0  0  0  0  0  0  0
    3.8256   21.6159   37.2411 H   0  0  0  0  0  0  0  0  0  0  0  0
    3.3835   16.8445   40.8258 H   0  0  0  0  0  0  0  0  0  0  0  0
    2.6789   16.8081   39.1739 H   0  0  0  0  0  0  0  0  0  0  0  0
    4.4617   16.8532   39.3892 H   0  0  0  0  0  0  0  0  0  0  0  0
    2.5699   24.7673   33.1919 H   0  0  0  0  0  0  0  0  0  0  0  0
    1.6982   23.5874   32.6357 H   0  0  0  0  0  0  0  0  0  0  0  0
  1 12  1  0
  1 11  1  0
  1 10  1  0
  2  5  2  0
  4 13  1  0
  4  3  1  0
  4 14  1  1
  5 12  1  0
  6  9  1  0
  7 15  1  0
  7  8  1  0
  8  6  1  0
  8  9  1  0
  9  5  1  0
 10  3  1  0
 11  4  1  0
 15  8  1  0
  1 16  1  6
  3 17  1  0
  3 18  1  0
  6 19  1  0
  6 20  1  0
  7 21  1  0
  7 22  1  0
  9 23  1  6
 11 24  1  0
 11 25  1  0
 12 26  1  0
 12 27  1  0
 13 28  1  0
 13 29  1  0
 13 30  1  0
 15 31  1  0
 15 32  1  0
M  CHG  1  11   1
M  END
>  <mol_id>  (32) 
2026-09-18-3war-s0-n100-0032

>  <rmsd_to_ref>  (32) 


$$$$

     RDKit          3D

 69 70  0  0  0  0  0  0  0  0999 V2000
    1.7631   21.3366   37.4895 C   0  0  0  0  0  0  0  0  0  0  0  0
    1.5364   24.4180   34.7864 C   0  0  0  0  0  0  0  0  0  0  0  0
    1.8671   23.4327   34.3999 C   0  0  2  0  0  0  0  0  0  0  0  0
    1.2389   27.6469   31.9427 C   0  0  0  0  0  0  0  0  0  0  0  0
    0.5769   14.3209   40.4402 C   0  0  0  0  0  0  0  0  0  0  0  0
    1.6776   20.6828   38.5382 C   0  0  2  0  0  0  0  0  0  0  0  0
    0.5940   21.1682   39.7266 C   0  0  0  0  0  0  0  0  0  0  0  0
    3.1742   16.9918   37.9644 C   0  0  2  0  0  0  0  0  0  0  0  0
    4.3114   16.9605   37.2660 O   0  0  0  0  0  0  0  0  0  0  0  0
    2.0345   22.5659   35.7489 C   0  0  0  0  0  0  0  0  0  0  0  0
    1.7443   14.9439   40.5543 O   0  0  0  0  0  0  0  0  0  0  0  0
    2.8697   14.7585   37.3411 O   0  0  0  0  0  0  0  0  0  0  0  0
    2.0092   26.8584   30.5261 C   0  0  0  0  0  0  0  0  0  0  0  0
    2.8726   23.3263   33.5599 C   0  0  0  0  0  0  0  0  0  0  0  0
   -0.0364   27.9082   31.4311 C   0  0  0  0  0  0  0  0  0  0  0  0
    3.7746   19.2768   39.1356 C   0  0  0  0  0  0  0  0  0  0  0  0
    1.7419   20.2444   39.7620 C   0  0  2  0  0  0  0  0  0  0  0  0
   -0.2982   14.7335   39.6553 O   0  0  0  0  0  0  0  0  0  0  0  0
    2.0389   25.8680   32.8767 C   0  0  2  0  0  0  0  0  0  0  0  0
    2.3641   27.0340   32.0231 C   0  0  1  0  0  0  0  0  0  0  0  0
    1.2167   26.0557   34.0215 C   0  0  0  0  0  0  0  0  0  0  0  0
    0.6176   13.2691   41.1078 O   0  0  0  0  0  0  0  0  0  0  0  0
    3.1061   20.2859   40.0913 C   0  0  0  0  0  0  0  0  0  0  0  0
    2.9389   18.0819   38.9773 C   0  0  0  0  0  0  0  0  0  0  0  0
   -0.8059   26.9367   31.0586 F   0  0  0  0  0  0  0  0  0  0  0  0
    3.0973   15.5578   38.5234 C   0  0  2  0  0  0  0  0  0  0  0  0
    2.2607   15.8297   39.6644 C   0  0  0  0  0  0  0  0  0  0  0  0
    3.2274   26.5649   33.0705 C   0  0  0  0  0  0  0  0  0  0  0  0
    1.6496   22.2423   36.7683 C   0  0  0  0  0  0  0  0  0  0  0  0
    2.8494   21.2183   37.3630 H   0  0  0  0  0  0  0  0  0  0  0  0
    0.6891   21.1492   37.3434 H   0  0  0  0  0  0  0  0  0  0  0  0
    0.5786   24.1826   35.2733 H   0  0  0  0  0  0  0  0  0  0  0  0
    2.5141   24.6935   35.2087 H   0  0  0  0  0  0  0  0  0  0  0  0
    1.1153   23.0770   33.6800 H   0  0  0  0  0  0  0  0  0  0  0  0
    0.9370   27.5106   32.9916 H   0  0  0  0  0  0  0  0  0  0  0  0
    1.6489   28.1956   31.0819 H   0  0  0  0  0  0  0  0  0  0  0  0
    2.2179   20.1904   37.7163 H   0  0  0  0  0  0  0  0  0  0  0  0
    0.6413   22.1691   40.1802 H   0  0  0  0  0  0  0  0  0  0  0  0
   -0.4877   21.1724   39.9264 H   0  0  0  0  0  0  0  0  0  0  0  0
    2.3440   17.2880   37.3063 H   0  0  0  0  0  0  0  0  0  0  0  0
    5.0753   16.8423   37.8846 H   0  0  0  0  0  0  0  0  0  0  0  0
    2.1402   21.5712   35.2914 H   0  0  0  0  0  0  0  0  0  0  0  0
    2.4997   23.4406   36.2269 H   0  0  0  0  0  0  0  0  0  0  0  0
    2.5065   13.8759   37.6043 H   0  0  0  0  0  0  0  0  0  0  0  0
    1.0611   26.3079   30.4362 H   0  0  0  0  0  0  0  0  0  0  0  0
    1.9051   27.8471   30.0555 H   0  0  0  0  0  0  0  0  0  0  0  0
    2.8092   26.2954   30.0232 H   0  0  0  0  0  0  0  0  0  0  0  0
    3.7928   23.0959   34.1168 H   0  0  0  0  0  0  0  0  0  0  0  0
    2.6667   22.5188   32.8419 H   0  0  0  0  0  0  0  0  0  0  0  0
    2.9998   24.2751   33.0181 H   0  0  0  0  0  0  0  0  0  0  0  0
   -0.5815   28.4611   32.2104 H   0  0  0  0  0  0  0  0  0  0  0  0
    0.1778   28.4304   30.4869 H   0  0  0  0  0  0  0  0  0  0  0  0
    4.7514   18.9825   39.5468 H   0  0  0  0  0  0  0  0  0  0  0  0
    3.9024   19.7522   38.1520 H   0  0  0  0  0  0  0  0  0  0  0  0
    1.6147   19.3639   40.4089 H   0  0  0  0  0  0  0  0  0  0  0  0
    1.6868   24.8591   32.6152 H   0  0  0  0  0  0  0  0  0  0  0  0
    1.5566   26.8899   34.6528 H   0  0  0  0  0  0  0  0  0  0  0  0
    0.1648   26.3193   33.8376 H   0  0  0  0  0  0  0  0  0  0  0  0
    3.2608   19.9881   41.1389 H   0  0  0  0  0  0  0  0  0  0  0  0
    3.5271   21.2968   39.9874 H   0  0  0  0  0  0  0  0  0  0  0  0
    1.9253   18.4576   38.7739 H   0  0  0  0  0  0  0  0  0  0  0  0
    3.1816   17.5454   39.9064 H   0  0  0  0  0  0  0  0  0  0  0  0
    3.8760   14.9173   38.9632 H   0  0  0  0  0  0  0  0  0  0  0  0
    2.8461   16.5306   40.2777 H   0  0  0  0  0  0  0  0  0  0  0  0
    1.3336   16.0880   39.1316 H   0  0  0  0  0  0  0  0  0  0  0  0
    3.3563   27.1727   33.9782 H   0  0  0  0  0  0  0  0  0  0  0  0
    4.2854   26.2658   33.1048 H   0  0  0  0  0  0  0  0  0  0  0  0
    1.9640   23.0813   37.4065 H   0  0  0  0  0  0  0  0  0  0  0  0
    0.6904   21.8851   36.3655 H   0  0  0  0  0  0  0  0  0  0  0  0
  3 14  1  0
  3  2  1  0
  3 10  1  0
 20  4  1  1
  5 22  1  0
  6  1  1  0
  6 17  1  0
  6  7  1  0
  8  9  1  0
  8 26  1  0
  8 24  1  0
 10 29  1  0
 11  5  1  0
 15  4  1  0
 16 24  1  0
 16 23  1  0
 17  7  1  0
 17 23  1  0
 18  5  2  0
 19 28  1  0
 19 21  1  0
 20 13  1  0
 20 19  1  0
 20 28  1  0
 21  2  1  0
 25 15  1  0
 26 12  1  0
 26 27  1  0
 27 11  1  0
 29  1  1  0
  1 30  1  0
  1 31  1  0
  2 32  1  0
  2 33  1  0
  3 34  1  6
  4 35  1  0
  4 36  1  0
  6 37  1  6
  7 38  1  0
  7 39  1  0
  8 40  1  6
  9 41  1  0
 10 42  1  0
 10 43  1  0
 12 44  1  0
 13 45  1  0
 13 46  1  0
 13 47  1  0
 14 48  1  0
 14 49  1  0
 14 50  1  0
 15 51  1  0
 15 52  1  0
 16 53  1  0
 16 54  1  0
 17 55  1  6
 19 56  1  6
 21 57  1  0
 21 58  1  0
 23 59  1  0
 23 60  1  0
 24 61  1  0
 24 62  1  0
 26 63  1  1
 27 64  1  0
 27 65  1  0
 28 66  1  0
 28 67  1  0
 29 68  1  0
 29 69  1  0
M  CHG  1  22  -1
M  END
>  <mol_id>  (33) 
2026-09-18-3war-s0-n100-0033

>  <rmsd_to_ref>  (33) 


$$$$

     RDKit          3D

 93 97  0  0  0  0  0  0  0  0999 V2000
    4.2192   16.2946   37.7775 C   0  0  1  0  0  0  0  0  0  0  0  0
    2.3628   20.6113   37.9300 C   0  0  0  0  0  0  0  0  0  0  0  0
    3.8662   13.3795   39.0049 C   0  0  2  0  0  0  0  0  0  0  0  0
    2.2545   19.8269   40.4264 C   0  0  1  0  0  0  0  0  0  0  0  0
    3.2469   18.3982   38.5427 C   0  0  0  0  0  0  0  0  0  0  0  0
    1.5922   26.2023   28.9285 C   0  0  0  0  0  0  0  0  0  0  0  0
    4.5078   25.4149   31.3153 C   0  0  1  0  0  0  0  0  0  0  0  0
    3.4174    8.0049   39.9270 O   0  0  0  0  0  0  0  0  0  0  0  0
    2.6030   24.6903   30.2250 C   0  0  2  0  0  0  0  0  0  0  0  0
    1.0627   18.8147   40.5255 S   0  0  0  0  0  0  0  0  0  0  0  0
    3.3352   14.7238   39.9633 C   0  0  2  0  0  0  0  0  0  0  0  0
    3.4455   13.6677   37.8598 N   0  0  0  0  0  0  0  0  0  0  0  0
    4.4554   14.7633   37.3365 C   0  0  0  0  0  0  0  0  0  0  0  0
    1.9046   27.7794   28.7374 C   0  0  0  0  0  0  0  0  0  0  0  0
    3.2179   16.8527   38.6079 C   0  0  2  0  0  0  0  0  0  0  0  0
    3.8633   10.7878   39.4909 C   0  0  0  0  0  0  0  0  0  0  0  0
    4.0213   26.6349   31.5369 C   0  0  0  0  0  0  0  0  0  0  0  0
    4.3550   24.3275   32.3613 C   0  0  0  0  0  0  0  0  0  0  0  0
    2.0339    8.8292   38.0566 O   0  0  0  0  0  0  0  0  0  0  0  0
    1.8839   21.8210   37.1323 C   0  0  0  0  0  0  0  0  0  0  0  0
    3.3955    9.0441   38.7852 P   0  0  2  0  0  5  0  0  0  0  0  0
    1.7134   25.6316   30.3453 C   0  0  0  0  0  0  0  0  0  0  0  0
    1.3601   20.6379   42.4012 C   0  0  0  0  0  0  0  0  0  0  0  0
    1.5004   24.1202   35.0062 C   0  0  0  0  0  0  0  0  0  0  0  0
    2.5943   23.0092   34.8608 C   0  0  1  0  0  0  0  0  0  0  0  0
    3.7497   12.2458   40.2656 S   0  0  0  0  0  0  0  0  0  0  0  0
    0.4958   19.4296   42.0946 C   0  0  0  0  0  0  0  0  0  0  0  0
    2.0372   24.2304   31.4969 C   0  0  0  0  0  0  0  0  0  0  0  0
    2.8623   19.5608   39.1131 C   0  0  1  0  0  0  0  0  0  0  0  0
    2.4495   21.9090   35.8456 C   0  0  0  0  0  0  0  0  0  0  0  0
    3.8153   16.2076   39.6645 C   0  0  2  0  0  0  0  0  0  0  0  0
    0.8285   25.1474   28.0918 C   0  0  0  0  0  0  0  0  0  0  0  0
    4.5997    8.7549   37.6462 N   0  0  0  0  0  0  0  0  0  0  0  0
    3.0552   23.3891   32.2739 C   0  0  2  0  0  0  0  0  0  0  0  0
    3.5426   12.5052   36.9899 C   0  0  0  0  0  0  0  0  0  0  0  0
    2.2553   20.8084   41.2712 O   0  0  0  0  0  0  0  0  0  0  0  0
    2.4803   14.7708   40.9558 O   0  0  0  0  0  0  0  0  0  0  0  0
    2.7709   22.3584   33.3346 C   0  0  0  0  0  0  0  0  0  0  0  0
    3.6545   25.6625   30.4010 C   0  0  1  0  0  0  0  0  0  0  0  0
    3.1454   20.9780   35.4428 O   0  0  0  0  0  0  0  0  0  0  0  0
    5.2115   17.2396   40.3334 Cl  0  0  0  0  0  0  0  0  0  0  0  0
    4.7425   16.7034   36.9006 H   0  0  0  0  0  0  0  0  0  0  0  0
    1.5427   19.9622   37.5892 H   0  0  0  0  0  0  0  0  0  0  0  0
    3.3105   21.1494   38.0793 H   0  0  0  0  0  0  0  0  0  0  0  0
    4.7602   12.9543   38.5254 H   0  0  0  0  0  0  0  0  0  0  0  0
    3.2192   20.0190   40.9186 H   0  0  0  0  0  0  0  0  0  0  0  0
    2.8329   18.5452   37.5343 H   0  0  0  0  0  0  0  0  0  0  0  0
    4.1625   18.4046   39.1522 H   0  0  0  0  0  0  0  0  0  0  0  0
    2.2774   26.4498   28.1044 H   0  0  0  0  0  0  0  0  0  0  0  0
    5.5405   25.0574   31.1890 H   0  0  0  0  0  0  0  0  0  0  0  0
    3.5183    8.4703   40.7949 H   0  0  0  0  0  0  0  0  0  0  0  0
    2.8423   23.9304   29.4665 H   0  0  0  0  0  0  0  0  0  0  0  0
    2.5181   14.9091   39.2506 H   0  0  0  0  0  0  0  0  0  0  0  0
    4.4273   14.7331   36.2373 H   0  0  0  0  0  0  0  0  0  0  0  0
    5.4143   14.4922   37.8023 H   0  0  0  0  0  0  0  0  0  0  0  0
    2.0826   28.2396   29.7204 H   0  0  0  0  0  0  0  0  0  0  0  0
    2.7980   27.9026   28.1077 H   0  0  0  0  0  0  0  0  0  0  0  0
    1.0453   28.2675   28.2542 H   0  0  0  0  0  0  0  0  0  0  0  0
    2.1331   16.7261   38.4772 H   0  0  0  0  0  0  0  0  0  0  0  0
    4.1851   11.2073   38.5263 H   0  0  0  0  0  0  0  0  0  0  0  0
    3.8856   10.3203   40.4864 H   0  0  0  0  0  0  0  0  0  0  0  0
    3.3269   26.8301   32.3674 H   0  0  0  0  0  0  0  0  0  0  0  0
    4.3992   27.6618   31.6486 H   0  0  0  0  0  0  0  0  0  0  0  0
    5.2374   23.6748   32.2888 H   0  0  0  0  0  0  0  0  0  0  0  0
    4.2452   24.8686   33.3126 H   0  0  0  0  0  0  0  0  0  0  0  0
    0.7907   21.7576   37.0277 H   0  0  0  0  0  0  0  0  0  0  0  0
    2.2006   22.7175   37.6854 H   0  0  0  0  0  0  0  0  0  0  0  0
    2.0529   26.4039   31.0513 H   0  0  0  0  0  0  0  0  0  0  0  0
    0.7547   25.2633   30.7393 H   0  0  0  0  0  0  0  0  0  0  0  0
    0.7315   21.5320   42.5251 H   0  0  0  0  0  0  0  0  0  0  0  0
    1.9243   20.4940   43.3345 H   0  0  0  0  0  0  0  0  0  0  0  0
    1.3408   24.3404   36.0720 H   0  0  0  0  0  0  0  0  0  0  0  0
    1.8331   25.0323   34.4891 H   0  0  0  0  0  0  0  0  0  0  0  0
    0.5587   23.7682   34.5596 H   0  0  0  0  0  0  0  0  0  0  0  0
    3.5154   23.5724   35.0717 H   0  0  0  0  0  0  0  0  0  0  0  0
   -0.5627   19.7217   42.0318 H   0  0  0  0  0  0  0  0  0  0  0  0
    0.5746   18.6651   42.8816 H   0  0  0  0  0  0  0  0  0  0  0  0
    1.7544   25.1040   32.1025 H   0  0  0  0  0  0  0  0  0  0  0  0
    1.1547   23.6086   31.2854 H   0  0  0  0  0  0  0  0  0  0  0  0
    3.8157   19.6644   39.6520 H   0  0  0  0  0  0  0  0  0  0  0  0
    0.3989   24.3886   28.7623 H   0  0  0  0  0  0  0  0  0  0  0  0
    0.0211   25.6395   27.5298 H   0  0  0  0  0  0  0  0  0  0  0  0
    1.5230   24.6643   27.3886 H   0  0  0  0  0  0  0  0  0  0  0  0
    5.4834    8.5370   38.1285 H   0  0  0  0  0  0  0  0  0  0  0  0
    4.3269    7.9584   37.0529 H   0  0  0  0  0  0  0  0  0  0  0  0
    3.1480   22.4328   31.7383 H   0  0  0  0  0  0  0  0  0  0  0  0
    3.7143   11.6051   37.5986 H   0  0  0  0  0  0  0  0  0  0  0  0
    2.6063   12.3917   36.4237 H   0  0  0  0  0  0  0  0  0  0  0  0
    4.3803   12.6399   36.2900 H   0  0  0  0  0  0  0  0  0  0  0  0
    2.9691   14.7187   41.8151 H   0  0  0  0  0  0  0  0  0  0  0  0
    1.8414   21.8330   33.0699 H   0  0  0  0  0  0  0  0  0  0  0  0
    3.6364   21.6804   33.3688 H   0  0  0  0  0  0  0  0  0  0  0  0
    3.5104   25.8530   29.3272 H   0  0  0  0  0  0  0  0  0  0  0  0
  1 13  1  0
  1 15  1  0
  1 31  1  0
  3 11  1  0
  3 26  1  0
  4 29  1  0
  4 10  1  0
  4 36  1  0
  5 29  1  0
  6 22  1  0
  7 17  1  0
  7 18  1  0
  9 22  1  0
  9 39  1  0
  9 28  1  0
 10 27  1  0
 11 37  1  0
 12  3  1  0
 13 12  1  0
 14  6  1  0
 15  5  1  0
 15 31  1  0
 16 26  1  0
 19 21  2  0
 20  2  1  0
 21 33  1  0
 21 16  1  0
 21  8  1  1
 25 24  1  0
 25 30  1  0
 27 23  1  0
 28 34  1  0
 29  2  1  0
 30 20  1  0
 31 11  1  0
 31 41  1  1
 32  6  1  0
 34 18  1  0
 34 38  1  0
 35 12  1  0
 36 23  1  0
 38 25  1  0
 39  7  1  0
 39 17  1  0
 40 30  2  0
  1 42  1  1
  2 43  1  0
  2 44  1  0
  3 45  1  6
  4 46  1  1
  5 47  1  0
  5 48  1  0
  6 49  1  0
  7 50  1  6
  8 51  1  0
  9 52  1  6
 11 53  1  1
 13 54  1  0
 13 55  1  0
 14 56  1  0
 14 57  1  0
 14 58  1  0
 15 59  1  6
 16 60  1  0
 16 61  1  0
 17 62  1  0
 17 63  1  0
 18 64  1  0
 18 65  1  0
 20 66  1  0
 20 67  1  0
 22 68  1  0
 22 69  1  0
 23 70  1  0
 23 71  1  0
 24 72  1  0
 24 73  1  0
 24 74  1  0
 25 75  1  1
 27 76  1  0
 27 77  1  0
 28 78  1  0
 28 79  1  0
 29 80  1  1
 32 81  1  0
 32 82  1  0
 32 83  1  0
 33 84  1  0
 33 85  1  0
 34 86  1  6
 35 87  1  0
 35 88  1  0
 35 89  1  0
 37 90  1  0
 38 91  1  0
 38 92  1  0
 39 93  1  6
M  END
>  <mol_id>  (34) 
2026-09-18-3war-s0-n100-0034

>  <rmsd_to_ref>  (34) 


$$$$

     RDKit          3D

 58 61  0  0  0  0  0  0  0  0999 V2000
    2.1220   27.3220   32.1350 C   0  0  2  0  0  0  0  0  0  0  0  0
    2.1490   21.8660   35.8260 O   0  0  0  0  0  0  0  0  0  0  0  0
    3.2150   17.4890   36.9540 C   0  0  0  0  0  0  0  0  0  0  0  0
    1.3200   26.5070   31.1430 C   0  0  2  0  0  0  0  0  0  0  0  0
    2.7500   17.3940   39.5220 C   0  0  0  0  0  0  0  0  0  0  0  0
    4.2340   21.8790   34.9710 C   0  0  0  0  0  0  0  0  0  0  0  0
    1.6120   16.1510   41.0010 N   0  0  0  0  0  0  0  0  0  0  0  0
    2.6290   24.1390   34.0490 C   0  0  0  0  0  0  0  0  0  0  0  0
    1.2930   17.4850   41.2810 C   0  0  0  0  0  0  0  0  0  0  0  0
    1.2260   25.2500   32.3680 O   0  0  0  0  0  0  0  0  0  0  0  0
    3.2450   21.3700   35.8450 C   0  0  0  0  0  0  0  0  0  0  0  0
    2.4900   26.8030   30.7950 C   0  0  0  0  0  0  0  0  0  0  0  0
    3.4930   24.2010   32.8610 C   0  0  0  0  0  0  0  0  0  0  0  0
    1.0710   15.0090   41.8260 C   0  0  0  0  0  0  0  0  0  0  0  0
    0.4370   19.4030   42.3130 C   0  0  0  0  0  0  0  0  0  0  0  0
    4.2840   16.6150   37.4930 C   0  0  0  0  0  0  0  0  0  0  0  0
    3.0570   25.5610   33.5540 C   0  0  0  0  0  0  0  0  0  0  0  0
    3.6460   25.8920   30.6830 C   0  0  0  0  0  0  0  0  0  0  0  0
    0.4960   18.0360   42.2660 C   0  0  0  0  0  0  0  0  0  0  0  0
    2.4350   16.1230   39.9940 C   0  0  0  0  0  0  0  0  0  0  0  0
   -0.0130   14.4200   41.1610 O   0  0  0  0  0  0  0  0  0  0  0  0
    3.6600   17.7140   38.3150 C   0  0  0  0  0  0  0  0  0  0  0  0
    1.1180   20.2150   41.3620 C   0  0  0  0  0  0  0  0  0  0  0  0
    1.9730   18.2640   40.3360 C   0  0  0  0  0  0  0  0  0  0  0  0
    1.8700   19.5950   40.4240 C   0  0  0  0  0  0  0  0  0  0  0  0
    1.9040   26.3520   33.1510 C   0  0  1  0  0  0  0  0  0  0  0  0
    2.5870   27.0020   28.9810 C   0  0  0  0  0  0  0  0  0  0  0  0
    3.6450   20.3070   36.5320 O   0  0  0  0  0  0  0  0  0  0  0  0
    2.3828   28.2634   32.6408 H   0  0  0  0  0  0  0  0  0  0  0  0
    3.4556   18.2257   36.1734 H   0  0  0  0  0  0  0  0  0  0  0  0
    2.2357   17.3042   36.4883 H   0  0  0  0  0  0  0  0  0  0  0  0
    0.4463   26.4704   30.4757 H   0  0  0  0  0  0  0  0  0  0  0  0
    5.0601   22.3042   35.5599 H   0  0  0  0  0  0  0  0  0  0  0  0
    4.6165   21.0657   34.3367 H   0  0  0  0  0  0  0  0  0  0  0  0
    3.7945   22.6629   34.3367 H   0  0  0  0  0  0  0  0  0  0  0  0
    1.5817   23.8204   33.9410 H   0  0  0  0  0  0  0  0  0  0  0  0
    2.7009   23.6169   35.0145 H   0  0  0  0  0  0  0  0  0  0  0  0
    3.0848   23.9355   31.8746 H   0  0  0  0  0  0  0  0  0  0  0  0
    4.4594   23.7519   32.5884 H   0  0  0  0  0  0  0  0  0  0  0  0
    1.8611   14.2582   41.9743 H   0  0  0  0  0  0  0  0  0  0  0  0
    0.7369   15.3902   42.8023 H   0  0  0  0  0  0  0  0  0  0  0  0
   -0.1519   19.8867   43.1062 H   0  0  0  0  0  0  0  0  0  0  0  0
    4.0748   15.5604   37.7254 H   0  0  0  0  0  0  0  0  0  0  0  0
    5.3046   16.3379   37.1904 H   0  0  0  0  0  0  0  0  0  0  0  0
    3.6338   26.4517   33.8437 H   0  0  0  0  0  0  0  0  0  0  0  0
    3.9950   25.6170   31.6893 H   0  0  0  0  0  0  0  0  0  0  0  0
    3.3463   24.9846   30.1381 H   0  0  0  0  0  0  0  0  0  0  0  0
    4.4582   26.3955   30.1381 H   0  0  0  0  0  0  0  0  0  0  0  0
   -0.0625   17.4085   42.9761 H   0  0  0  0  0  0  0  0  0  0  0  0
    2.8384   15.1952   39.5622 H   0  0  0  0  0  0  0  0  0  0  0  0
   -0.6574   14.0699   41.8260 H   0  0  0  0  0  0  0  0  0  0  0  0
    4.0429   18.5809   38.8735 H   0  0  0  0  0  0  0  0  0  0  0  0
    1.0352   21.3115   41.3892 H   0  0  0  0  0  0  0  0  0  0  0  0
    2.4219   20.2133   39.7007 H   0  0  0  0  0  0  0  0  0  0  0  0
    1.4585   26.8803   34.0068 H   0  0  0  0  0  0  0  0  0  0  0  0
    3.0575   27.9673   28.7427 H   0  0  0  0  0  0  0  0  0  0  0  0
    3.1883   26.1857   28.5542 H   0  0  0  0  0  0  0  0  0  0  0  0
    1.5736   26.9728   28.5542 H   0  0  0  0  0  0  0  0  0  0  0  0
  1 12  1  0
  1 26  1  0
  2 11  2  0
  3 16  1  0
  3 22  1  0
  4  1  1  0
  4 10  1  0
  5 20  2  0
  5 24  1  0
  6 11  1  0
  7  9  1  0
  7 14  1  0
  9 19  2  0
 10 26  1  0
 11 28  1  0
 12  4  1  0
 13 17  1  0
 13  8  1  0
 16 22  1  0
 17  8  1  0
 18 12  1  0
 19 15  1  0
 20  7  1  0
 21 14  1  0
 22  5  1  0
 23 15  2  0
 24 25  2  0
 24  9  1  0
 25 23  1  0
 26 17  1  0
 27 12  1  0
  1 29  1  1
  3 30  1  0
  3 31  1  0
  4 32  1  6
  6 33  1  0
  6 34  1  0
  6 35  1  0
  8 36  1  0
  8 37  1  0
 13 38  1  0
 13 39  1  0
 14 40  1  0
 14 41  1  0
 15 42  1  0
 16 43  1  0
 16 44  1  0
 17 45  1  0
 18 46  1  0
 18 47  1  0
 18 48  1  0
 19 49  1  0
 20 50  1  0
 21 51  1  0
 22 52  1  0
 23 53  1  0
 25 54  1  0
 26 55  1  1
 27 56  1  0
 27 57  1  0
 27 58  1  0
M  CHG  1  28  -1
M  END
>  <mol_id>  (35) 
2026-09-18-3war-s0-n100-0035

>  <rmsd_to_ref>  (35) 


$$$$

     RDKit          3D

 48 51  0  0  0  0  0  0  0  0999 V2000
    1.9466   23.7633   34.6989 C   0  0  0  0  0  0  0  0  0  0  0  0
    3.0980   18.3838   39.0631 C   0  0  0  0  0  0  0  0  0  0  0  0
    5.4552   13.5165   38.7013 C   0  0  0  0  0  0  0  0  0  0  0  0
    2.0186   25.4862   30.9412 C   0  0  0  0  0  0  0  0  0  0  0  0
    4.9410   15.8571   37.7192 C   0  0  0  0  0  0  0  0  0  0  0  0
    1.2323   22.0534   37.4128 S   0  0  0  0  0  0  0  0  0  0  0  0
    4.1408   16.1192   38.9619 C   0  0  0  0  0  0  0  0  0  0  0  0
    3.1989   20.8049   36.3050 N   0  0  0  0  0  0  0  0  0  0  0  0
    4.7180   13.8543   39.9111 C   0  0  0  0  0  0  0  0  0  0  0  0
    3.5792   19.0665   37.9560 C   0  0  0  0  0  0  0  0  0  0  0  0
    1.5557   20.1891   39.5192 C   0  0  0  0  0  0  0  0  0  0  0  0
    2.1346   19.0239   39.8850 C   0  0  0  0  0  0  0  0  0  0  0  0
    2.9687   20.1908   37.5622 C   0  0  0  0  0  0  0  0  0  0  0  0
    3.0154   24.5990   31.2571 C   0  0  0  0  0  0  0  0  0  0  0  0
    2.4709   21.8541   36.1293 C   0  0  0  0  0  0  0  0  0  0  0  0
    3.5524   17.1936   39.2313 O   0  0  0  0  0  0  0  0  0  0  0  0
    6.0158   14.7276   37.9340 C   0  0  0  0  0  0  0  0  0  0  0  0
    4.0773   24.1421   30.2546 C   0  0  0  0  0  0  0  0  0  0  0  0
    2.0171   24.3387   33.4249 C   0  0  0  0  0  0  0  0  0  0  0  0
    1.0701   25.8528   31.8680 C   0  0  0  0  0  0  0  0  0  0  0  0
    2.9555   24.0052   32.5202 C   0  0  0  0  0  0  0  0  0  0  0  0
    2.6567   22.6835   34.9586 C   0  0  0  0  0  0  0  0  0  0  0  0
    1.0616   25.3184   33.1167 C   0  0  0  0  0  0  0  0  0  0  0  0
    1.9804   20.7300   38.2515 C   0  0  0  0  0  0  0  0  0  0  0  0
    3.7818   15.0296   39.6769 C   0  0  0  0  0  0  0  0  0  0  0  0
    1.3057   24.2073   35.4748 H   0  0  0  0  0  0  0  0  0  0  0  0
    6.2982   12.8683   38.9829 H   0  0  0  0  0  0  0  0  0  0  0  0
    4.7392   13.0240   38.0270 H   0  0  0  0  0  0  0  0  0  0  0  0
    1.9765   25.9127   29.9281 H   0  0  0  0  0  0  0  0  0  0  0  0
    5.4548   16.7845   37.4261 H   0  0  0  0  0  0  0  0  0  0  0  0
    4.2474   15.5199   36.9348 H   0  0  0  0  0  0  0  0  0  0  0  0
    5.0236   16.6622   39.3304 H   0  0  0  0  0  0  0  0  0  0  0  0
    4.1263   12.9819   40.2257 H   0  0  0  0  0  0  0  0  0  0  0  0
    5.4407   14.1358   40.6912 H   0  0  0  0  0  0  0  0  0  0  0  0
    4.4540   18.6880   37.4069 H   0  0  0  0  0  0  0  0  0  0  0  0
    0.8078   20.6932   40.1488 H   0  0  0  0  0  0  0  0  0  0  0  0
    1.8523   18.5610   40.8421 H   0  0  0  0  0  0  0  0  0  0  0  0
    6.3712   14.3877   36.9501 H   0  0  0  0  0  0  0  0  0  0  0  0
    6.8325   15.1543   38.5347 H   0  0  0  0  0  0  0  0  0  0  0  0
    4.9147   23.6761   30.7945 H   0  0  0  0  0  0  0  0  0  0  0  0
    3.6364   23.4113   29.5608 H   0  0  0  0  0  0  0  0  0  0  0  0
    4.4444   25.0106   29.6879 H   0  0  0  0  0  0  0  0  0  0  0  0
    0.3041   26.5926   31.5925 H   0  0  0  0  0  0  0  0  0  0  0  0
    3.7001   23.2397   32.7839 H   0  0  0  0  0  0  0  0  0  0  0  0
    3.4388   22.3952   34.2409 H   0  0  0  0  0  0  0  0  0  0  0  0
    0.3254   25.6450   33.8659 H   0  0  0  0  0  0  0  0  0  0  0  0
    3.5018   15.3990   40.6745 H   0  0  0  0  0  0  0  0  0  0  0  0
    3.0168   14.5791   39.0274 H   0  0  0  0  0  0  0  0  0  0  0  0
  1 22  2  3
  2 16  1  0
  2 12  2  0
  3  9  1  0
  4 14  2  0
  4 20  1  0
  5 17  1  0
  5  7  1  0
  6 24  1  0
  7 16  1  0
  7 25  1  0
  8 13  1  0
 10  2  1  0
 11 12  1  0
 13 10  2  0
 13 24  1  0
 14 21  1  0
 15  8  2  0
 15  6  1  0
 17  3  1  0
 18 14  1  0
 19  1  1  0
 20 23  2  0
 21 19  2  0
 22 15  1  0
 23 19  1  0
 24 11  2  0
 25  9  1  0
  1 26  1  0
  3 27  1  0
  3 28  1  0
  4 29  1  0
  5 30  1  0
  5 31  1  0
  7 32  1  0
  9 33  1  0
  9 34  1  0
 10 35  1  0
 11 36  1  0
 12 37  1  0
 17 38  1  0
 17 39  1  0
 18 40  1  0
 18 41  1  0
 18 42  1  0
 20 43  1  0
 21 44  1  0
 22 45  1  0
 23 46  1  0
 25 47  1  0
 25 48  1  0
M  END
>  <mol_id>  (36) 
2026-09-18-3war-s0-n100-0036

>  <rmsd_to_ref>  (36) 


$$$$

     RDKit          3D

 80 85  0  0  0  0  0  0  0  0999 V2000
    0.6780   25.5790   30.7410 C   0  0  1  0  0  0  0  0  0  0  0  0
    0.8450   20.7720   41.1150 C   0  0  0  0  0  0  0  0  0  0  0  0
    1.5380   27.1200   31.1190 S   0  0  0  0  0  0  0  0  0  0  0  0
    0.1140   20.8530   31.1690 C   0  0  0  0  0  0  0  0  0  0  0  0
    3.4110   17.9800   38.5940 C   0  0  2  0  0  0  0  0  0  0  0  0
    2.2880   20.6870   38.4190 C   0  0  0  0  0  0  0  0  0  0  0  0
    3.8140   19.0280   39.6600 C   0  0  0  0  0  0  0  0  0  0  0  0
   -0.7740   21.4580   42.8580 O   0  0  0  0  0  0  0  0  0  0  0  0
    3.9450   25.5820   30.2490 O   0  0  0  0  0  0  0  0  0  0  0  0
    0.7410   21.1050   29.8600 C   0  0  0  0  0  0  0  0  0  0  0  0
    2.4200   20.7510   36.0090 C   0  0  1  0  0  0  0  0  0  0  0  0
    1.3970   25.0830   32.9290 C   0  0  0  0  0  0  0  0  0  0  0  0
   -1.2540   21.3200   31.8490 C   0  0  0  0  0  0  0  0  0  0  0  0
    0.1290   25.1720   32.0750 C   0  0  0  0  0  0  0  0  0  0  0  0
   -0.1560   21.9810   31.9810 C   0  0  0  0  0  0  0  0  0  0  0  0
    1.8300   21.6900   28.9660 C   0  0  0  0  0  0  0  0  0  0  0  0
    1.0500   22.5650   29.5270 C   0  0  0  0  0  0  0  0  0  0  0  0
    4.0120   23.9500   30.4420 C   0  0  0  0  0  0  0  0  0  0  0  0
    3.3460   23.8000   31.7370 C   0  0  1  0  0  0  0  0  0  0  0  0
    4.2800   15.7430   37.5790 C   0  0  0  0  0  0  0  0  0  0  0  0
    1.4870   15.5180   39.7300 O   0  0  0  0  0  0  0  0  0  0  0  0
   -0.3680   25.9620   29.8210 O   0  0  0  0  0  0  0  0  0  0  0  0
    3.6190   16.3390   38.7650 C   0  0  2  0  0  0  0  0  0  0  0  0
    3.0020   21.9810   35.5450 C   0  0  1  0  0  0  0  0  0  0  0  0
    2.5950   20.0920   37.2550 C   0  0  0  0  0  0  0  0  0  0  0  0
    3.3800   22.5340   34.4040 C   0  0  0  0  0  0  0  0  0  0  0  0
    0.4620   18.2500   41.8670 N   0  0  0  0  0  0  0  0  0  0  0  0
    2.6790   20.0420   39.6730 N   0  0  0  0  0  0  0  0  0  0  0  0
    3.1890   14.2380   39.8620 O   0  0  0  0  0  0  0  0  0  0  0  0
    1.6080   21.7810   35.6110 C   0  0  0  0  0  0  0  0  0  0  0  0
   -0.3410   19.1810   42.3980 C   0  0  0  0  0  0  0  0  0  0  0  0
    2.1680   25.7740   30.6060 C   0  0  2  0  0  0  0  0  0  0  0  0
   -0.0960   20.4740   42.0910 C   0  0  0  0  0  0  0  0  0  0  0  0
    1.6500   19.7610   40.5970 C   0  0  0  0  0  0  0  0  0  0  0  0
    1.4600   18.4920   41.0400 C   0  0  0  0  0  0  0  0  0  0  0  0
    2.7620   15.3370   39.4870 C   0  0  0  0  0  0  0  0  0  0  0  0
    3.0770   18.6580   37.1900 C   0  0  0  0  0  0  0  0  0  0  0  0
    2.6370   25.0000   32.0930 C   0  0  1  0  0  0  0  0  0  0  0  0
    2.9210   22.3700   31.6780 O   0  0  0  0  0  0  0  0  0  0  0  0
    0.9544   21.8045   40.7517 H   0  0  0  0  0  0  0  0  0  0  0  0
    0.5990   19.8695   31.0827 H   0  0  0  0  0  0  0  0  0  0  0  0
    2.5640   17.4248   39.0234 H   0  0  0  0  0  0  0  0  0  0  0  0
    1.7499   21.6463   38.4297 H   0  0  0  0  0  0  0  0  0  0  0  0
    3.9185   18.5536   40.6469 H   0  0  0  0  0  0  0  0  0  0  0  0
    4.7817   19.4975   39.4293 H   0  0  0  0  0  0  0  0  0  0  0  0
   -1.4360   21.1837   43.5411 H   0  0  0  0  0  0  0  0  0  0  0  0
    0.3160   20.0931   29.7865 H   0  0  0  0  0  0  0  0  0  0  0  0
    2.4803   19.6809   35.7617 H   0  0  0  0  0  0  0  0  0  0  0  0
    1.4585   25.9775   33.5662 H   0  0  0  0  0  0  0  0  0  0  0  0
    1.3343   24.1654   33.5324 H   0  0  0  0  0  0  0  0  0  0  0  0
   -2.0736   21.7194   31.2335 H   0  0  0  0  0  0  0  0  0  0  0  0
   -1.9945   20.8713   32.5274 H   0  0  0  0  0  0  0  0  0  0  0  0
   -0.5655   25.9286   32.4688 H   0  0  0  0  0  0  0  0  0  0  0  0
   -0.4535   24.2393   32.0484 H   0  0  0  0  0  0  0  0  0  0  0  0
    0.3046   22.0165   32.9793 H   0  0  0  0  0  0  0  0  0  0  0  0
    0.0462   23.0449   31.7881 H   0  0  0  0  0  0  0  0  0  0  0  0
    1.7694   21.5377   27.8783 H   0  0  0  0  0  0  0  0  0  0  0  0
    2.9231   21.5691   28.9429 H   0  0  0  0  0  0  0  0  0  0  0  0
    1.4556   23.2201   30.3120 H   0  0  0  0  0  0  0  0  0  0  0  0
    0.4387   23.3881   29.1286 H   0  0  0  0  0  0  0  0  0  0  0  0
    3.4674   23.4251   29.6433 H   0  0  0  0  0  0  0  0  0  0  0  0
    5.0267   23.5274   30.3998 H   0  0  0  0  0  0  0  0  0  0  0  0
    3.8192   23.8311   32.7295 H   0  0  0  0  0  0  0  0  0  0  0  0
    5.0595   15.0402   37.9082 H   0  0  0  0  0  0  0  0  0  0  0  0
    3.5340   15.2063   36.9745 H   0  0  0  0  0  0  0  0  0  0  0  0
    4.7369   16.5404   36.9745 H   0  0  0  0  0  0  0  0  0  0  0  0
   -1.1651   26.2539   30.3305 H   0  0  0  0  0  0  0  0  0  0  0  0
    4.1707   16.5197   39.6993 H   0  0  0  0  0  0  0  0  0  0  0  0
    3.9088   22.4553   35.9484 H   0  0  0  0  0  0  0  0  0  0  0  0
    3.9894   23.4256   34.6129 H   0  0  0  0  0  0  0  0  0  0  0  0
    3.9739   21.8112   33.8253 H   0  0  0  0  0  0  0  0  0  0  0  0
    2.4909   22.8249   33.8253 H   0  0  0  0  0  0  0  0  0  0  0  0
    1.0154   22.3267   36.3600 H   0  0  0  0  0  0  0  0  0  0  0  0
    0.7877   21.8704   34.8835 H   0  0  0  0  0  0  0  0  0  0  0  0
   -1.1725   18.9024   43.0621 H   0  0  0  0  0  0  0  0  0  0  0  0
    2.1269   17.6799   40.7148 H   0  0  0  0  0  0  0  0  0  0  0  0
    2.2934   18.0592   36.7027 H   0  0  0  0  0  0  0  0  0  0  0  0
    4.0262   18.6841   36.6347 H   0  0  0  0  0  0  0  0  0  0  0  0
    3.3935   25.4182   32.7733 H   0  0  0  0  0  0  0  0  0  0  0  0
    2.8166   22.0186   32.5976 H   0  0  0  0  0  0  0  0  0  0  0  0
  1 22  1  6
  1  3  1  0
  1 14  1  0
  2 33  2  0
  4 13  1  0
  4 15  1  0
  5 23  1  0
  5  7  1  0
  6 28  1  0
  7 28  1  0
  9 18  1  0
 10  4  1  0
 11 25  1  0
 13 15  1  0
 14 12  1  0
 16 17  1  0
 16 10  1  0
 17 10  1  0
 18 19  1  0
 19 39  1  0
 19 38  1  0
 23 20  1  0
 23 36  1  0
 24 26  1  0
 24 30  1  0
 24 11  1  0
 25  6  2  0
 27 31  2  0
 28 34  1  0
 30 11  1  0
 32  9  1  6
 32  1  1  0
 32  3  1  0
 32 38  1  0
 33 31  1  0
 33  8  1  0
 34 35  2  0
 34  2  1  0
 35 27  1  0
 36 21  2  0
 36 29  1  0
 37 25  1  0
 37  5  1  0
 38 12  1  0
  2 40  1  0
  4 41  1  0
  5 42  1  1
  6 43  1  0
  7 44  1  0
  7 45  1  0
  8 46  1  0
 10 47  1  0
 11 48  1  6
 12 49  1  0
 12 50  1  0
 13 51  1  0
 13 52  1  0
 14 53  1  0
 14 54  1  0
 15 55  1  0
 15 56  1  0
 16 57  1  0
 16 58  1  0
 17 59  1  0
 17 60  1  0
 18 61  1  0
 18 62  1  0
 19 63  1  1
 20 64  1  0
 20 65  1  0
 20 66  1  0
 22 67  1  0
 23 68  1  1
 24 69  1  1
 26 70  1  0
 26 71  1  0
 26 72  1  0
 30 73  1  0
 30 74  1  0
 31 75  1  0
 35 76  1  0
 37 77  1  0
 37 78  1  0
 38 79  1  1
 39 80  1  0
M  CHG  1  29  -1
M  END
>  <mol_id>  (37) 
2026-09-18-3war-s0-n100-0037

>  <rmsd_to_ref>  (37) 


$$$$

     RDKit          3D

 30 31  0  0  0  0  0  0  0  0999 V2000
    3.0390   18.3590   39.3440 C   0  0  0  0  0  0  0  0  0  0  0  0
    2.5400   20.3130   37.1550 C   0  0  1  0  0  0  0  0  0  0  0  0
    3.0690   22.4320   34.0990 C   0  0  2  0  0  0  0  0  0  0  0  0
    1.4420   22.9540   34.4250 S   0  0  0  0  0  0  0  0  0  0  0  0
    1.4930   22.3240   36.0570 C   0  0  0  0  0  0  0  0  0  0  0  0
    3.8340   22.8710   33.0780 N   0  0  0  0  0  0  0  0  0  0  0  0
    3.4730   21.4650   35.0180 N   0  0  0  0  0  0  0  0  0  0  0  0
    2.6310   21.3070   36.0750 C   0  0  2  0  0  0  0  0  0  0  0  0
    3.2750   19.0990   37.0990 C   0  0  0  0  0  0  0  0  0  0  0  0
    3.7140   18.4270   38.2040 C   0  0  0  0  0  0  0  0  0  0  0  0
    2.4910   19.6130   39.6170 C   0  0  0  0  0  0  0  0  0  0  0  0
    2.3600   20.6020   38.5660 C   0  0  0  0  0  0  0  0  0  0  0  0
    3.7177   18.0667   40.1588 H   0  0  0  0  0  0  0  0  0  0  0  0
    2.2371   17.6107   39.2598 H   0  0  0  0  0  0  0  0  0  0  0  0
    1.5323   20.2682   36.7162 H   0  0  0  0  0  0  0  0  0  0  0  0
    3.4561   23.2404   34.7367 H   0  0  0  0  0  0  0  0  0  0  0  0
    1.6918   23.1340   36.7742 H   0  0  0  0  0  0  0  0  0  0  0  0
    0.5354   21.8650   36.3438 H   0  0  0  0  0  0  0  0  0  0  0  0
    4.6660   23.3485   33.4530 H   0  0  0  0  0  0  0  0  0  0  0  0
    4.1286   22.0704   32.5008 H   0  0  0  0  0  0  0  0  0  0  0  0
    3.2914   23.5293   32.5008 H   0  0  0  0  0  0  0  0  0  0  0  0
    3.5448   20.5630   34.5258 H   0  0  0  0  0  0  0  0  0  0  0  0
    4.3727   21.7846   35.4044 H   0  0  0  0  0  0  0  0  0  0  0  0
    3.2436   22.0029   36.6670 H   0  0  0  0  0  0  0  0  0  0  0  0
    2.6394   18.3890   36.5495 H   0  0  0  0  0  0  0  0  0  0  0  0
    4.2264   19.4465   36.6700 H   0  0  0  0  0  0  0  0  0  0  0  0
    3.8618   17.3858   37.8815 H   0  0  0  0  0  0  0  0  0  0  0  0
    4.5703   19.0494   38.5029 H   0  0  0  0  0  0  0  0  0  0  0  0
    2.1562   19.8524   40.6371 H   0  0  0  0  0  0  0  0  0  0  0  0
    2.1092   21.6334   38.8548 H   0  0  0  0  0  0  0  0  0  0  0  0
  1 11  1  0
  2  9  1  0
  2 12  1  0
  3  6  1  0
  3  4  1  0
  3  7  1  0
  4  5  1  0
  7  8  1  0
  8  5  1  0
  8  2  1  0
  9 10  1  0
 10  1  1  0
 12 11  2  0
  1 13  1  0
  1 14  1  0
  2 15  1  6
  3 16  1  1
  5 17  1  0
  5 18  1  0
  6 19  1  0
  6 20  1  0
  6 21  1  0
  7 22  1  0
  7 23  1  0
  8 24  1  1
  9 25  1  0
  9 26  1  0
 10 27  1  0
 10 28  1  0
 11 29  1  0
 12 30  1  0
M  CHG  2   6   1   7   1
M  END
>  <mol_id>  (38) 
2026-09-18-3war-s0-n100-0038

>  <rmsd_to_ref>  (38) 


$$$$

     RDKit          3D

 74 76  0  0  0  0  0  0  0  0999 V2000
    0.7660   26.6920   28.7270 C   0  0  0  0  0  0  0  0  0  0  0  0
    1.8690   20.5150   39.5190 S   0  0  0  0  0  0  0  0  0  0  0  0
    3.1630   19.8430   37.1430 C   0  0  0  0  0  0  0  0  0  0  0  0
    1.5500   19.3400   40.5820 C   0  0  0  0  0  0  0  0  0  0  0  0
    1.9010   13.8860   41.9030 C   0  0  1  0  0  0  0  0  0  0  0  0
    1.0990   25.6520   32.3520 C   0  0  0  0  0  0  0  0  0  0  0  0
    2.5280   21.2980   36.8970 C   0  0  0  0  0  0  0  0  0  0  0  0
    3.2750   24.2920   33.1280 C   0  0  1  0  0  0  0  0  0  0  0  0
    2.9120   13.4450   39.8340 O   0  0  0  0  0  0  0  0  0  0  0  0
    1.4970   15.3300   40.8100 C   0  0  1  0  0  0  0  0  0  0  0  0
    0.1740   18.2210   42.4720 S   0  0  0  0  0  0  0  0  0  0  0  0
    2.1340   25.4940   30.1530 C   0  0  0  0  0  0  0  0  0  0  0  0
    3.7360   24.2020   31.6670 C   0  0  0  0  0  0  0  0  0  0  0  0
    0.5950   19.5040   41.5860 C   0  0  0  0  0  0  0  0  0  0  0  0
    2.3300   14.5970   37.5700 O   0  0  0  0  0  0  0  0  0  0  0  0
    2.4680   21.6200   35.3860 C   0  0  0  0  0  0  0  0  0  0  0  0
    2.5140   23.0670   34.9520 C   0  0  0  0  0  0  0  0  0  0  0  0
    3.1480   19.5360   38.6260 C   0  0  2  0  0  0  0  0  0  0  0  0
    1.1940   13.4460   42.9980 N   0  0  0  0  0  0  0  0  0  0  0  0
    0.5890   26.9940   27.5910 C   0  0  0  0  0  0  0  0  0  0  0  0
    0.6550   16.7100   41.5160 C   0  0  0  0  0  0  0  0  0  0  0  0
    3.2080   24.9850   30.5210 N   0  0  0  0  0  0  0  0  0  0  0  0
    1.9560   25.0290   33.2880 C   0  0  0  0  0  0  0  0  0  0  0  0
    2.8380   14.9560   40.0400 C   0  0  2  0  0  0  0  0  0  0  0  0
    1.1650   26.3580   29.7810 N   0  0  0  0  0  0  0  0  0  0  0  0
    2.7570   23.0910   33.5770 O   0  0  0  0  0  0  0  0  0  0  0  0
    3.0230   16.8970   38.3160 C   0  0  0  0  0  0  0  0  0  0  0  0
    2.3170   18.2890   40.2630 C   0  0  0  0  0  0  0  0  0  0  0  0
    2.8840   18.1480   38.9760 C   0  0  0  0  0  0  0  0  0  0  0  0
    2.7050   12.8550   41.0910 C   0  0  0  0  0  0  0  0  0  0  0  0
    1.5590   26.5270   31.8810 C   0  0  0  0  0  0  0  0  0  0  0  0
    2.7380   15.6050   38.6140 C   0  0  1  0  0  0  0  0  0  0  0  0
    2.5711   19.0878   36.6052 H   0  0  0  0  0  0  0  0  0  0  0  0
    4.1987   19.8250   36.7729 H   0  0  0  0  0  0  0  0  0  0  0  0
    2.4272   14.4179   42.7094 H   0  0  0  0  0  0  0  0  0  0  0  0
    0.8426   24.9235   31.5687 H   0  0  0  0  0  0  0  0  0  0  0  0
    0.2048   25.9946   32.8933 H   0  0  0  0  0  0  0  0  0  0  0  0
    1.5096   21.3224   37.3121 H   0  0  0  0  0  0  0  0  0  0  0  0
    3.1607   22.0484   37.3936 H   0  0  0  0  0  0  0  0  0  0  0  0
    4.1652   24.7096   33.6211 H   0  0  0  0  0  0  0  0  0  0  0  0
    0.7005   15.6454   40.1200 H   0  0  0  0  0  0  0  0  0  0  0  0
    2.0494   24.8739   29.2484 H   0  0  0  0  0  0  0  0  0  0  0  0
    2.0471   25.9146   31.1657 H   0  0  0  0  0  0  0  0  0  0  0  0
    4.8126   24.4260   31.6934 H   0  0  0  0  0  0  0  0  0  0  0  0
    3.3312   23.2118   31.4108 H   0  0  0  0  0  0  0  0  0  0  0  0
    0.1380   20.4875   41.7704 H   0  0  0  0  0  0  0  0  0  0  0  0
    1.9982   13.7771   38.0148 H   0  0  0  0  0  0  0  0  0  0  0  0
    3.3210   21.1122   34.9122 H   0  0  0  0  0  0  0  0  0  0  0  0
    1.4681   21.2797   35.0789 H   0  0  0  0  0  0  0  0  0  0  0  0
    1.5525   23.5544   35.1710 H   0  0  0  0  0  0  0  0  0  0  0  0
    3.3061   23.6060   35.4924 H   0  0  0  0  0  0  0  0  0  0  0  0
    4.1737   19.7957   38.9267 H   0  0  0  0  0  0  0  0  0  0  0  0
    1.6738   13.7446   43.8591 H   0  0  0  0  0  0  0  0  0  0  0  0
    0.2451   13.8460   42.9774 H   0  0  0  0  0  0  0  0  0  0  0  0
    1.1338   12.4180   42.9774 H   0  0  0  0  0  0  0  0  0  0  0  0
    0.4252   27.2735   26.5398 H   0  0  0  0  0  0  0  0  0  0  0  0
    0.3811   17.1421   40.5422 H   0  0  0  0  0  0  0  0  0  0  0  0
    0.6944   16.1769   42.4774 H   0  0  0  0  0  0  0  0  0  0  0  0
    3.4323   24.3702   29.7256 H   0  0  0  0  0  0  0  0  0  0  0  0
    3.5693   25.8761   30.8902 H   0  0  0  0  0  0  0  0  0  0  0  0
    2.1960   25.8366   33.9953 H   0  0  0  0  0  0  0  0  0  0  0  0
    1.3344   24.1359   33.4491 H   0  0  0  0  0  0  0  0  0  0  0  0
    3.7123   15.3036   40.6098 H   0  0  0  0  0  0  0  0  0  0  0  0
    1.4501   27.2440   30.2223 H   0  0  0  0  0  0  0  0  0  0  0  0
    0.3704   25.7458   30.0150 H   0  0  0  0  0  0  0  0  0  0  0  0
    3.4724   17.0027   37.3176 H   0  0  0  0  0  0  0  0  0  0  0  0
    3.1573   18.2922   40.9728 H   0  0  0  0  0  0  0  0  0  0  0  0
    1.5993   17.4560   40.2959 H   0  0  0  0  0  0  0  0  0  0  0  0
    2.1360   11.9193   40.9873 H   0  0  0  0  0  0  0  0  0  0  0  0
    3.6552   12.5999   41.5830 H   0  0  0  0  0  0  0  0  0  0  0  0
    1.9206   27.2148   32.6595 H   0  0  0  0  0  0  0  0  0  0  0  0
    2.4042   26.2046   31.2552 H   0  0  0  0  0  0  0  0  0  0  0  0
    0.8143   27.0405   31.2552 H   0  0  0  0  0  0  0  0  0  0  0  0
    1.6823   15.8733   38.7675 H   0  0  0  0  0  0  0  0  0  0  0  0
  1 25  1  0
  2  4  1  0
  4 14  2  0
  5 19  1  0
  6 23  1  0
  7  3  1  0
  8 13  1  0
  8 23  1  0
  8 26  1  0
  9 30  1  0
 10 21  1  0
 10  5  1  0
 12 22  1  0
 14 11  1  0
 16  7  1  0
 17 16  1  0
 18  3  1  0
 18 29  1  0
 18  2  1  0
 20  1  3  0
 21 11  1  0
 22 13  1  0
 24  9  1  0
 24 10  1  0
 25 12  1  0
 26 17  1  0
 27 32  1  0
 27 29  2  0
 28  4  1  0
 29 28  1  0
 30  5  1  0
 31  6  1  0
 32 15  1  0
 32 24  1  0
  3 33  1  0
  3 34  1  0
  5 35  1  1
  6 36  1  0
  6 37  1  0
  7 38  1  0
  7 39  1  0
  8 40  1  1
 10 41  1  6
 12 42  1  0
 12 43  1  0
 13 44  1  0
 13 45  1  0
 14 46  1  0
 15 47  1  0
 16 48  1  0
 16 49  1  0
 17 50  1  0
 17 51  1  0
 18 52  1  1
 19 53  1  0
 19 54  1  0
 19 55  1  0
 20 56  1  0
 21 57  1  0
 21 58  1  0
 22 59  1  0
 22 60  1  0
 23 61  1  0
 23 62  1  0
 24 63  1  1
 25 64  1  0
 25 65  1  0
 27 66  1  0
 28 67  1  0
 28 68  1  0
 30 69  1  0
 30 70  1  0
 31 71  1  0
 31 72  1  0
 31 73  1  0
 32 74  1  1
M  CHG  3  19   1  22   1  25   1
M  END
>  <mol_id>  (39) 
2026-09-18-3war-s0-n100-0039

>  <rmsd_to_ref>  (39) 


$$$$

     RDKit          3D

 59 62  0  0  0  0  0  0  0  0999 V2000
    2.5198   19.5038   39.1170 C   0  0  0  0  0  0  0  0  0  0  0  0
    2.4469   23.9183   32.2021 C   0  0  2  0  0  0  0  0  0  0  0  0
    4.4114   17.4936   37.8701 O   0  0  0  0  0  0  0  0  0  0  0  0
    1.5496   26.2289   30.2192 C   0  0  0  0  0  0  0  0  0  0  0  0
    4.0058   22.1497   32.9909 C   0  0  0  0  0  0  0  0  0  0  0  0
    2.4737   23.7901   33.5677 C   0  0  0  0  0  0  0  0  0  0  0  0
    1.3460   25.6088   30.9130 C   0  0  0  0  0  0  0  0  0  0  0  0
    4.0015   25.8591   29.5302 C   0  0  0  0  0  0  0  0  0  0  0  0
    3.7939   23.2780   31.9711 C   0  0  2  0  0  0  0  0  0  0  0  0
    3.1350   22.6570   34.1169 C   0  0  0  0  0  0  0  0  0  0  0  0
    2.4014   16.5630   41.3967 N   0  0  0  0  0  0  0  0  0  0  0  0
    4.8074   16.4437   37.2442 C   0  0  0  0  0  0  0  0  0  0  0  0
    0.5708   20.7618   42.1435 C   0  0  0  0  0  0  0  0  0  0  0  0
    1.7112   16.6331   42.4852 C   0  0  0  0  0  0  0  0  0  0  0  0
    2.8312   18.1614   39.5449 C   0  0  0  0  0  0  0  0  0  0  0  0
    1.6402   18.6226   41.5605 C   0  0  0  0  0  0  0  0  0  0  0  0
    1.3559   19.9000   41.1879 C   0  0  0  0  0  0  0  0  0  0  0  0
    4.5804   24.1416   31.0913 C   0  0  0  0  0  0  0  0  0  0  0  0
    1.2323   17.9016   42.5756 N   0  0  0  0  0  0  0  0  0  0  0  0
    3.6284   24.9954   30.5867 C   0  0  1  0  0  0  0  0  0  0  0  0
    2.9439   19.9854   37.7318 C   0  0  0  0  0  0  0  0  0  0  0  0
    3.4910   17.1344   38.7760 N   0  0  0  0  0  0  0  0  0  0  0  0
    1.8315   20.3675   39.8987 C   0  0  0  0  0  0  0  0  0  0  0  0
    4.1733   15.3757   37.8094 N   0  0  0  0  0  0  0  0  0  0  0  0
    3.3662   15.7632   38.8747 C   0  0  0  0  0  0  0  0  0  0  0  0
    2.5693   24.9593   31.4718 C   0  0  2  0  0  0  0  0  0  0  0  0
    2.3568   17.7528   40.7640 C   0  0  0  0  0  0  0  0  0  0  0  0
    1.4252   23.6171   31.9277 H   0  0  0  0  0  0  0  0  0  0  0  0
    1.9623   27.1488   30.6591 H   0  0  0  0  0  0  0  0  0  0  0  0
    2.2890   25.7853   29.5362 H   0  0  0  0  0  0  0  0  0  0  0  0
    0.6324   26.4688   29.6611 H   0  0  0  0  0  0  0  0  0  0  0  0
    5.0597   22.0649   33.2946 H   0  0  0  0  0  0  0  0  0  0  0  0
    3.7584   21.1411   32.6283 H   0  0  0  0  0  0  0  0  0  0  0  0
    2.9688   24.6857   33.9711 H   0  0  0  0  0  0  0  0  0  0  0  0
    1.4195   23.6594   33.8532 H   0  0  0  0  0  0  0  0  0  0  0  0
    0.8278   26.1425   31.7232 H   0  0  0  0  0  0  0  0  0  0  0  0
    0.7133   24.8187   30.4822 H   0  0  0  0  0  0  0  0  0  0  0  0
    4.5094   26.7438   29.9418 H   0  0  0  0  0  0  0  0  0  0  0  0
    4.6824   25.3302   28.8472 H   0  0  0  0  0  0  0  0  0  0  0  0
    3.1028   26.1750   28.9800 H   0  0  0  0  0  0  0  0  0  0  0  0
    4.3689   22.5350   31.3991 H   0  0  0  0  0  0  0  0  0  0  0  0
    2.4069   21.8909   34.4217 H   0  0  0  0  0  0  0  0  0  0  0  0
    3.7156   22.9054   35.0175 H   0  0  0  0  0  0  0  0  0  0  0  0
    4.5442   16.5181   36.1787 H   0  0  0  0  0  0  0  0  0  0  0  0
    5.8995   16.3336   37.3167 H   0  0  0  0  0  0  0  0  0  0  0  0
    0.8095   20.4737   43.1779 H   0  0  0  0  0  0  0  0  0  0  0  0
    0.8353   21.8180   41.9867 H   0  0  0  0  0  0  0  0  0  0  0  0
   -0.5054   20.6227   41.9632 H   0  0  0  0  0  0  0  0  0  0  0  0
    0.8772   15.9168   42.4496 H   0  0  0  0  0  0  0  0  0  0  0  0
    2.3330   16.3869   43.3587 H   0  0  0  0  0  0  0  0  0  0  0  0
    5.3484   24.6909   31.6556 H   0  0  0  0  0  0  0  0  0  0  0  0
    5.1329   23.5917   30.3151 H   0  0  0  0  0  0  0  0  0  0  0  0
    2.9873   25.1197   29.7015 H   0  0  0  0  0  0  0  0  0  0  0  0
    3.8108   20.6558   37.8262 H   0  0  0  0  0  0  0  0  0  0  0  0
    3.2158   19.1197   37.1100 H   0  0  0  0  0  0  0  0  0  0  0  0
    2.1106   20.5277   37.2611 H   0  0  0  0  0  0  0  0  0  0  0  0
    1.6373   21.3978   39.5656 H   0  0  0  0  0  0  0  0  0  0  0  0
    2.7941   15.1530   39.5890 H   0  0  0  0  0  0  0  0  0  0  0  0
    2.8467   25.6230   32.3039 H   0  0  0  0  0  0  0  0  0  0  0  0
  1 15  2  0
  1 23  1  0
  2  6  1  0
  3 22  1  0
  4  7  1  0
  5 10  1  0
  6 10  1  0
  9 18  1  0
  9  2  1  0
  9  5  1  0
 11 14  1  0
 12  3  1  0
 12 24  1  0
 15 27  1  0
 16 19  2  0
 17 16  1  0
 17 13  1  0
 19 14  1  0
 20  8  1  0
 20 18  1  0
 20 26  1  0
 21  1  1  0
 22 25  1  0
 22 15  1  0
 23 17  2  0
 24 25  2  0
 26  7  1  0
 26  2  1  0
 27 16  1  0
 27 11  2  0
  2 28  1  6
  4 29  1  0
  4 30  1  0
  4 31  1  0
  5 32  1  0
  5 33  1  0
  6 34  1  0
  6 35  1  0
  7 36  1  0
  7 37  1  0
  8 38  1  0
  8 39  1  0
  8 40  1  0
  9 41  1  6
 10 42  1  0
 10 43  1  0
 12 44  1  0
 12 45  1  0
 13 46  1  0
 13 47  1  0
 13 48  1  0
 14 49  1  0
 14 50  1  0
 18 51  1  0
 18 52  1  0
 20 53  1  6
 21 54  1  0
 21 55  1  0
 21 56  1  0
 23 57  1  0
 25 58  1  0
 26 59  1  1
M  END
>  <mol_id>  (40) 
2026-09-18-3war-s0-n100-0040

>  <rmsd_to_ref>  (40) 


$$$$

     RDKit          3D

 54 55  0  0  0  0  0  0  0  0999 V2000
    2.5078   15.6704   38.2625 C   0  0  2  0  0  0  0  0  0  0  0  0
    1.5358   20.1711   42.9952 C   0  0  0  0  0  0  0  0  0  0  0  0
    0.6788   18.9720   43.2044 C   0  0  0  0  0  0  0  0  0  0  0  0
    1.5010   20.5480   41.5537 C   0  0  0  0  0  0  0  0  0  0  0  0
    2.2574   25.5937   32.4106 C   0  0  2  0  0  0  0  0  0  0  0  0
    2.1610   18.3681   40.5436 C   0  0  1  0  0  0  0  0  0  0  0  0
    1.1991   15.5197   37.4894 O   0  0  0  0  0  0  0  0  0  0  0  0
    1.7152   17.4524   41.3867 C   0  0  0  0  0  0  0  0  0  0  0  0
    3.6798   23.6882   32.6727 N   0  0  0  0  0  0  0  0  0  0  0  0
    2.8736   24.6527   33.0785 C   0  0  0  0  0  0  0  0  0  0  0  0
    2.9209   17.7784   37.0154 N   0  0  0  0  0  0  0  0  0  0  0  0
    0.9497   26.1219   31.3745 C   0  0  0  0  0  0  0  0  0  0  0  0
    2.6733   17.1084   38.2176 C   0  0  1  0  0  0  0  0  0  0  0  0
    2.4644   18.1207   39.1417 C   0  0  0  0  0  0  0  0  0  0  0  0
    2.6290   19.2748   38.3620 C   0  0  0  0  0  0  0  0  0  0  0  0
    2.8823   19.0214   37.1777 C   0  0  0  0  0  0  0  0  0  0  0  0
    0.9639   17.7492   42.5497 C   0  0  0  0  0  0  0  0  0  0  0  0
    2.9791   20.8694   35.2662 N   0  0  0  0  0  0  0  0  0  0  0  0
    3.8461   23.5835   31.5122 C   0  0  0  0  0  0  0  0  0  0  0  0
    3.3640   14.6165   37.5035 C   0  0  0  0  0  0  0  0  0  0  0  0
    3.3688   24.4605   30.9373 C   0  0  0  0  0  0  0  0  0  0  0  0
    2.3807   19.7215   40.8009 N   0  0  0  0  0  0  0  0  0  0  0  0
    2.9023   20.0820   36.1612 C   0  0  0  0  0  0  0  0  0  0  0  0
    1.1161   26.2665   32.5701 C   0  0  0  0  0  0  0  0  0  0  0  0
    3.0956   25.5547   31.4809 O   0  0  0  0  0  0  0  0  0  0  0  0
    2.7061   15.4464   39.3210 H   0  0  0  0  0  0  0  0  0  0  0  0
    1.1570   21.0056   43.6036 H   0  0  0  0  0  0  0  0  0  0  0  0
    2.5698   19.9454   43.2950 H   0  0  0  0  0  0  0  0  0  0  0  0
    0.6952   18.7603   44.2837 H   0  0  0  0  0  0  0  0  0  0  0  0
   -0.2757   19.2740   42.7486 H   0  0  0  0  0  0  0  0  0  0  0  0
    0.4762   20.4272   41.1726 H   0  0  0  0  0  0  0  0  0  0  0  0
    1.8227   21.5950   41.4520 H   0  0  0  0  0  0  0  0  0  0  0  0
    2.7897   26.3578   32.9963 H   0  0  0  0  0  0  0  0  0  0  0  0
    3.2058   18.1481   40.8086 H   0  0  0  0  0  0  0  0  0  0  0  0
    0.4452   15.4502   38.1272 H   0  0  0  0  0  0  0  0  0  0  0  0
    1.9412   16.3975   41.1719 H   0  0  0  0  0  0  0  0  0  0  0  0
    2.6890   24.6670   34.1628 H   0  0  0  0  0  0  0  0  0  0  0  0
    1.0984   25.0649   31.1087 H   0  0  0  0  0  0  0  0  0  0  0  0
   -0.0727   26.4269   31.1071 H   0  0  0  0  0  0  0  0  0  0  0  0
    1.6729   26.7432   30.8259 H   0  0  0  0  0  0  0  0  0  0  0  0
    3.0137   16.2717   38.8453 H   0  0  0  0  0  0  0  0  0  0  0  0
    2.5423   20.2963   38.7608 H   0  0  0  0  0  0  0  0  0  0  0  0
    0.5199   16.8670   43.0340 H   0  0  0  0  0  0  0  0  0  0  0  0
    4.9265   23.5663   31.3059 H   0  0  0  0  0  0  0  0  0  0  0  0
    3.3690   22.6506   31.1775 H   0  0  0  0  0  0  0  0  0  0  0  0
    4.0046   14.0803   38.2192 H   0  0  0  0  0  0  0  0  0  0  0  0
    2.7000   13.9002   36.9975 H   0  0  0  0  0  0  0  0  0  0  0  0
    3.9930   15.1238   36.7572 H   0  0  0  0  0  0  0  0  0  0  0  0
    2.4217   24.0780   30.5289 H   0  0  0  0  0  0  0  0  0  0  0  0
    4.1800   24.7472   30.2518 H   0  0  0  0  0  0  0  0  0  0  0  0
    3.2884   19.7683   41.2855 H   0  0  0  0  0  0  0  0  0  0  0  0
    2.2590   20.1189   39.8584 H   0  0  0  0  0  0  0  0  0  0  0  0
    0.3695   25.7666   33.2047 H   0  0  0  0  0  0  0  0  0  0  0  0
    1.0798   27.2544   33.0525 H   0  0  0  0  0  0  0  0  0  0  0  0
  1 20  1  0
  2  3  1  0
  4  2  1  0
  5 24  1  0
  5 10  1  0
  6 14  1  0
  6 22  1  0
  6  8  1  0
  7  1  1  0
  8 17  2  0
  9 10  2  0
 11 16  2  0
 11 13  1  0
 12 24  1  0
 13  1  1  0
 13 14  1  0
 15 14  2  0
 16 15  1  0
 17  3  1  0
 18 23  3  0
 19  9  1  0
 21 25  1  0
 21 19  1  0
 22  4  1  0
 23 16  1  0
 25  5  1  0
  1 26  1  1
  2 27  1  0
  2 28  1  0
  3 29  1  0
  3 30  1  0
  4 31  1  0
  4 32  1  0
  5 33  1  1
  6 34  1  1
  7 35  1  0
  8 36  1  0
 10 37  1  0
 12 38  1  0
 12 39  1  0
 12 40  1  0
 13 41  1  1
 15 42  1  0
 17 43  1  0
 19 44  1  0
 19 45  1  0
 20 46  1  0
 20 47  1  0
 20 48  1  0
 21 49  1  0
 21 50  1  0
 22 51  1  0
 22 52  1  0
 24 53  1  0
 24 54  1  0
M  CHG  1  22   1
M  END
>  <mol_id>  (41) 
2026-09-18-3war-s0-n100-0041

>  <rmsd_to_ref>  (41) 


$$$$

     RDKit          3D

 49 51  0  0  0  0  0  0  0  0999 V2000
    1.5458   17.5913   41.8377 Cl  0  0  0  0  0  0  0  0  0  0  0  0
    0.3761   26.0870   30.8710 C   0  0  0  0  0  0  0  0  0  0  0  0
    3.8445   18.5810   38.9454 C   0  0  1  0  0  0  0  0  0  0  0  0
    3.5102   24.1957   30.5682 C   0  0  0  0  0  0  0  0  0  0  0  0
    2.0726   21.7778   35.6741 C   0  0  0  0  0  0  0  0  0  0  0  0
    1.2347   24.9102   31.1824 C   0  0  2  0  0  0  0  0  0  0  0  0
    1.4783   24.3291   32.7135 S   0  0  0  0  0  0  0  0  0  0  0  0
    1.9921   24.6645   28.9932 O   0  0  0  0  0  0  0  0  0  0  0  0
    2.3436   20.2766   39.0314 C   0  0  1  0  0  0  0  0  0  0  0  0
    3.2166   17.9022   39.9515 C   0  0  0  0  0  0  0  0  0  0  0  0
    2.3262   21.2324   36.8042 C   0  0  0  0  0  0  0  0  0  0  0  0
    1.2850   27.2636   30.4704 C   0  0  0  0  0  0  0  0  0  0  0  0
    2.9517   26.7093   30.4351 S   0  0  0  0  0  0  0  0  0  0  0  0
    3.1311   22.1035   34.8205 C   0  0  0  0  0  0  0  0  0  0  0  0
    4.5911   17.9071   37.9250 O   0  0  0  0  0  0  0  0  0  0  0  0
    2.3598   23.0013   32.6640 C   0  0  1  0  0  0  0  0  0  0  0  0
    1.6485   19.7726   40.0685 C   0  0  0  0  0  0  0  0  0  0  0  0
    2.4273   25.0418   30.2634 C   0  0  2  0  0  0  0  0  0  0  0  0
    2.1754   18.5081   40.5167 C   0  0  0  0  0  0  0  0  0  0  0  0
    3.6251   19.8166   38.7381 C   0  0  0  0  0  0  0  0  0  0  0  0
    1.7901   21.2753   38.0387 C   0  0  0  0  0  0  0  0  0  0  0  0
    3.9020   23.4777   32.0653 S   0  0  0  0  0  0  0  0  0  0  0  0
    2.6236   22.5967   33.8701 N   0  0  0  0  0  0  0  0  0  0  0  0
    0.9061   22.0165   38.4212 O   0  0  0  0  0  0  0  0  0  0  0  0
   -0.3016   25.8421   30.0399 H   0  0  0  0  0  0  0  0  0  0  0  0
   -0.2247   26.3582   31.7516 H   0  0  0  0  0  0  0  0  0  0  0  0
    4.5304   18.5536   39.8049 H   0  0  0  0  0  0  0  0  0  0  0  0
    4.4025   24.7802   30.2994 H   0  0  0  0  0  0  0  0  0  0  0  0
    3.1661   23.2941   30.0402 H   0  0  0  0  0  0  0  0  0  0  0  0
    1.4170   21.0868   35.1238 H   0  0  0  0  0  0  0  0  0  0  0  0
    1.6454   22.7545   35.9452 H   0  0  0  0  0  0  0  0  0  0  0  0
    0.6224   24.0150   30.9991 H   0  0  0  0  0  0  0  0  0  0  0  0
    1.2102   24.0631   29.0774 H   0  0  0  0  0  0  0  0  0  0  0  0
    2.6936   21.1029   39.6675 H   0  0  0  0  0  0  0  0  0  0  0  0
    3.5542   16.9071   40.2771 H   0  0  0  0  0  0  0  0  0  0  0  0
    2.2902   20.1593   36.5651 H   0  0  0  0  0  0  0  0  0  0  0  0
    3.1548   21.9144   37.0456 H   0  0  0  0  0  0  0  0  0  0  0  0
    0.9967   27.6303   29.4743 H   0  0  0  0  0  0  0  0  0  0  0  0
    1.1796   28.0808   31.1992 H   0  0  0  0  0  0  0  0  0  0  0  0
    3.8134   22.8162   35.3068 H   0  0  0  0  0  0  0  0  0  0  0  0
    3.7311   21.2208   34.5544 H   0  0  0  0  0  0  0  0  0  0  0  0
    5.2352   17.2834   38.3448 H   0  0  0  0  0  0  0  0  0  0  0  0
    1.8349   22.2341   32.0759 H   0  0  0  0  0  0  0  0  0  0  0  0
    1.6888   20.4885   40.9028 H   0  0  0  0  0  0  0  0  0  0  0  0
    0.6146   19.6064   39.7318 H   0  0  0  0  0  0  0  0  0  0  0  0
    4.3351   20.3900   39.3523 H   0  0  0  0  0  0  0  0  0  0  0  0
    3.7441   19.9561   37.6535 H   0  0  0  0  0  0  0  0  0  0  0  0
    2.5592   23.5358   34.2884 H   0  0  0  0  0  0  0  0  0  0  0  0
    2.4307   21.6408   33.5384 H   0  0  0  0  0  0  0  0  0  0  0  0
  3 15  1  0
  3 10  1  0
  4 22  1  0
  5 11  1  0
  6  2  1  0
  6  7  1  0
  9 21  1  0
  9 17  1  0
 10 19  2  0
 11 21  1  0
 12  2  1  0
 13 12  1  0
 14  5  1  0
 16  7  1  0
 16 23  1  0
 17 19  1  0
 18  8  1  6
 18 13  1  0
 18  4  1  0
 18  6  1  0
 19  1  1  0
 20  3  1  0
 20  9  1  0
 21 24  2  0
 22 16  1  0
 23 14  1  0
  2 25  1  0
  2 26  1  0
  3 27  1  1
  4 28  1  0
  4 29  1  0
  5 30  1  0
  5 31  1  0
  6 32  1  6
  8 33  1  0
  9 34  1  1
 10 35  1  0
 11 36  1  0
 11 37  1  0
 12 38  1  0
 12 39  1  0
 14 40  1  0
 14 41  1  0
 15 42  1  0
 16 43  1  6
 17 44  1  0
 17 45  1  0
 20 46  1  0
 20 47  1  0
 23 48  1  0
 23 49  1  0
M  CHG  1  23   1
M  END
>  <mol_id>  (42) 
2026-09-18-3war-s0-n100-0042

>  <rmsd_to_ref>  (42) 


$$$$

     RDKit          3D

 80 81  0  0  0  0  0  0  0  0999 V2000
    2.2218   19.5801   35.9991 C   0  0  0  0  0  0  0  0  0  0  0  0
    0.3282   25.3251   31.2135 C   0  0  0  0  0  0  0  0  0  0  0  0
    2.6634   20.5552   34.8257 C   0  0  2  0  0  0  0  0  0  0  0  0
    2.0256   26.8095   32.1700 O   0  0  0  0  0  0  0  0  0  0  0  0
    2.3192   16.6895   39.8170 C   0  0  0  0  0  0  0  0  0  0  0  0
    3.8134   15.3368   38.5392 O   0  0  0  0  0  0  0  0  0  0  0  0
    2.3108   17.9963   39.7626 C   0  0  0  0  0  0  0  0  0  0  0  0
    1.3802   15.8372   40.4335 C   0  0  0  0  0  0  0  0  0  0  0  0
    2.3600   23.9632   30.2984 C   0  0  1  0  0  0  0  0  0  0  0  0
    2.1950   21.3310   33.3570 C   0  0  0  0  0  0  0  0  0  0  0  0
    0.6063   26.9840   28.8028 S   0  0  0  0  0  0  0  0  0  0  0  0
    3.2843   16.0380   39.0075 C   0  0  0  0  0  0  0  0  0  0  0  0
   -1.9807   11.7655   41.8827 C   0  0  0  0  0  0  0  0  0  0  0  0
    2.0592   24.4842   31.4061 C   0  0  0  0  0  0  0  0  0  0  0  0
    4.1131   22.4976   31.5080 C   0  0  0  0  0  0  0  0  0  0  0  0
    1.0762   26.1028   31.6089 C   0  0  2  0  0  0  0  0  0  0  0  0
    0.2842   12.1498   43.1001 C   0  0  0  0  0  0  0  0  0  0  0  0
    2.2067   23.9780   32.4954 C   0  0  0  0  0  0  0  0  0  0  0  0
   -0.0852   13.5341   42.4428 C   0  0  2  0  0  0  0  0  0  0  0  0
    3.4911   23.0162   30.3086 C   0  0  0  0  0  0  0  0  0  0  0  0
    2.0047   14.5563   41.1201 C   0  0  0  0  0  0  0  0  0  0  0  0
    4.7718   20.5966   33.2466 C   0  0  0  0  0  0  0  0  0  0  0  0
    3.2975   18.9777   38.9256 C   0  0  0  0  0  0  0  0  0  0  0  0
    3.9339   20.0290   34.3146 C   0  0  0  0  0  0  0  0  0  0  0  0
    1.5645   23.8200   28.9938 C   0  0  0  0  0  0  0  0  0  0  0  0
    3.6530   21.6655   32.5975 C   0  0  1  0  0  0  0  0  0  0  0  0
    2.4546   20.1128   38.7198 C   0  0  0  0  0  0  0  0  0  0  0  0
    0.3329   27.4603   30.3609 C   0  0  0  0  0  0  0  0  0  0  0  0
   -1.0919   12.9994   41.3664 O   0  0  0  0  0  0  0  0  0  0  0  0
    0.5445   25.0831   28.7159 S   0  0  0  0  0  0  0  0  0  0  0  0
    0.8205   21.2445   37.7097 O   0  0  0  0  0  0  0  0  0  0  0  0
    2.0141   20.4494   37.4180 C   0  0  2  0  0  0  0  0  0  0  0  0
    1.2050   14.2733   42.0717 C   0  0  0  0  0  0  0  0  0  0  0  0
   -0.8430   11.1571   42.9131 O   0  0  0  0  0  0  0  0  0  0  0  0
    2.9988   18.8163   36.1501 H   0  0  0  0  0  0  0  0  0  0  0  0
    1.2714   19.0966   35.7290 H   0  0  0  0  0  0  0  0  0  0  0  0
   -0.3381   25.0092   32.0298 H   0  0  0  0  0  0  0  0  0  0  0  0
   -0.2692   25.7695   30.4037 H   0  0  0  0  0  0  0  0  0  0  0  0
    0.8758   24.4521   30.8286 H   0  0  0  0  0  0  0  0  0  0  0  0
    2.2084   21.3068   35.4875 H   0  0  0  0  0  0  0  0  0  0  0  0
    1.8180   26.9382   33.1294 H   0  0  0  0  0  0  0  0  0  0  0  0
    1.3013   18.2517   39.4081 H   0  0  0  0  0  0  0  0  0  0  0  0
    2.6960   18.2026   40.7720 H   0  0  0  0  0  0  0  0  0  0  0  0
    0.8473   16.4140   41.2038 H   0  0  0  0  0  0  0  0  0  0  0  0
    0.7193   15.4713   39.6340 H   0  0  0  0  0  0  0  0  0  0  0  0
    2.3269   25.0560   30.1778 H   0  0  0  0  0  0  0  0  0  0  0  0
    1.5766   20.6620   32.7406 H   0  0  0  0  0  0  0  0  0  0  0  0
    1.5878   22.2323   33.5273 H   0  0  0  0  0  0  0  0  0  0  0  0
   -2.2436   11.0641   41.0772 H   0  0  0  0  0  0  0  0  0  0  0  0
   -2.9687   11.9996   42.3058 H   0  0  0  0  0  0  0  0  0  0  0  0
    4.9783   21.9412   31.1185 H   0  0  0  0  0  0  0  0  0  0  0  0
    4.0627   23.4424   32.0691 H   0  0  0  0  0  0  0  0  0  0  0  0
    1.3283   26.3854   30.5761 H   0  0  0  0  0  0  0  0  0  0  0  0
    1.1957   11.7560   42.6267 H   0  0  0  0  0  0  0  0  0  0  0  0
    0.4510   12.3002   44.1770 H   0  0  0  0  0  0  0  0  0  0  0  0
    1.9078   24.5257   33.4014 H   0  0  0  0  0  0  0  0  0  0  0  0
    2.6396   22.9702   32.5796 H   0  0  0  0  0  0  0  0  0  0  0  0
   -0.5644   14.3473   43.0077 H   0  0  0  0  0  0  0  0  0  0  0  0
    3.1440   22.1343   29.7501 H   0  0  0  0  0  0  0  0  0  0  0  0
    4.2972   23.6562   29.9205 H   0  0  0  0  0  0  0  0  0  0  0  0
    2.0648   13.7234   40.4040 H   0  0  0  0  0  0  0  0  0  0  0  0
    3.0291   14.7356   41.4785 H   0  0  0  0  0  0  0  0  0  0  0  0
    5.6571   21.1139   33.6448 H   0  0  0  0  0  0  0  0  0  0  0  0
    5.2054   19.8715   32.5422 H   0  0  0  0  0  0  0  0  0  0  0  0
    3.6020   18.5239   37.9710 H   0  0  0  0  0  0  0  0  0  0  0  0
    4.2446   19.2065   39.4363 H   0  0  0  0  0  0  0  0  0  0  0  0
    3.7000   19.0088   33.9764 H   0  0  0  0  0  0  0  0  0  0  0  0
    4.5754   20.2598   35.1778 H   0  0  0  0  0  0  0  0  0  0  0  0
    2.2747   23.7529   28.1565 H   0  0  0  0  0  0  0  0  0  0  0  0
    0.9471   22.9141   29.0843 H   0  0  0  0  0  0  0  0  0  0  0  0
    3.3368   20.8968   31.8769 H   0  0  0  0  0  0  0  0  0  0  0  0
    1.5516   19.9499   39.3265 H   0  0  0  0  0  0  0  0  0  0  0  0
    3.1050   20.9582   38.9890 H   0  0  0  0  0  0  0  0  0  0  0  0
   -0.0237   26.6022   30.9495 H   0  0  0  0  0  0  0  0  0  0  0  0
    1.2680   27.8412   30.7974 H   0  0  0  0  0  0  0  0  0  0  0  0
   -0.4279   28.2548   30.3733 H   0  0  0  0  0  0  0  0  0  0  0  0
    0.7008   21.3128   38.6901 H   0  0  0  0  0  0  0  0  0  0  0  0
    2.8275   20.9048   36.8339 H   0  0  0  0  0  0  0  0  0  0  0  0
    0.9539   15.2860   42.4199 H   0  0  0  0  0  0  0  0  0  0  0  0
    1.8014   13.3842   42.3244 H   0  0  0  0  0  0  0  0  0  0  0  0
  1 32  1  0
  3  1  1  0
  5  7  1  0
  5  8  1  0
  6 12  2  0
  8 21  1  0
  9 25  1  0
  9 14  1  0
 10  3  1  0
 11 28  1  0
 12  5  2  0
 13 34  1  0
 14 16  1  0
 14 18  2  3
 16  2  1  0
 16  4  1  0
 19 33  1  0
 19 17  1  0
 20  9  1  0
 20 15  1  0
 21 33  1  0
 22 24  1  0
 23 27  1  0
 23  7  1  0
 24  3  1  0
 25 30  1  0
 26 15  1  0
 26 22  1  0
 26 10  1  0
 29 13  1  0
 29 19  1  0
 30 11  1  0
 32 31  1  0
 32 27  1  0
 34 17  1  0
  1 35  1  0
  1 36  1  0
  2 37  1  0
  2 38  1  0
  2 39  1  0
  3 40  1  1
  4 41  1  0
  7 42  1  0
  7 43  1  0
  8 44  1  0
  8 45  1  0
  9 46  1  6
 10 47  1  0
 10 48  1  0
 13 49  1  0
 13 50  1  0
 15 51  1  0
 15 52  1  0
 16 53  1  6
 17 54  1  0
 17 55  1  0
 18 56  1  0
 18 57  1  0
 19 58  1  1
 20 59  1  0
 20 60  1  0
 21 61  1  0
 21 62  1  0
 22 63  1  0
 22 64  1  0
 23 65  1  0
 23 66  1  0
 24 67  1  0
 24 68  1  0
 25 69  1  0
 25 70  1  0
 26 71  1  1
 27 72  1  0
 27 73  1  0
 28 74  1  0
 28 75  1  0
 28 76  1  0
 31 77  1  0
 32 78  1  6
 33 79  1  0
 33 80  1  0
M  END
>  <mol_id>  (43) 
2026-09-18-3war-s0-n100-0043

>  <rmsd_to_ref>  (43) 


$$$$

     RDKit          3D

 67 71  0  0  0  0  0  0  0  0999 V2000
    1.9680   19.4460   40.0470 C   0  0  0  0  0  0  0  0  0  0  0  0
    1.0150   25.7130   30.3120 C   0  0  2  0  0  0  0  0  0  0  0  0
    3.1560   20.1460   36.5510 N   0  0  0  0  0  0  0  0  0  0  0  0
    3.2990   16.9500   37.7940 C   0  0  0  0  0  0  0  0  0  0  0  0
    0.1800   17.3910   43.2330 O   0  0  0  0  0  0  0  0  0  0  0  0
    2.0510   21.5960   38.4840 S   0  0  0  0  0  0  0  0  0  0  0  0
    1.5120   20.8450   39.9000 C   0  0  0  0  0  0  0  0  0  0  0  0
    0.2140   20.7270   41.8740 C   0  0  0  0  0  0  0  0  0  0  0  0
    1.4200   26.8790   32.3550 C   0  0  2  0  0  0  0  0  0  0  0  0
    4.9530   15.6700   37.1900 N   0  0  0  0  0  0  0  0  0  0  0  0
    2.2560   24.7560   33.4810 C   0  0  0  0  0  0  0  0  0  0  0  0
    4.3680   23.2980   32.1470 C   0  0  0  0  0  0  0  0  0  0  0  0
    0.5910   19.3430   42.1240 C   0  0  0  0  0  0  0  0  0  0  0  0
    1.6800   25.7910   31.6450 C   0  0  2  0  0  0  0  0  0  0  0  0
    1.6400   26.3380   34.0150 S   0  0  0  0  0  0  0  0  0  0  0  0
    1.1560   24.5140   29.3780 C   0  0  0  0  0  0  0  0  0  0  0  0
    2.7400   13.9980   36.4530 O   0  0  0  0  0  0  0  0  0  0  0  0
    3.3650   17.4240   36.6180 O   0  0  0  0  0  0  0  0  0  0  0  0
    0.7490   21.4630   40.8160 C   0  0  0  0  0  0  0  0  0  0  0  0
    0.6330   26.7060   29.6160 C   0  0  0  0  0  0  0  0  0  0  0  0
    3.8670   22.8160   33.3510 C   0  0  0  0  0  0  0  0  0  0  0  0
   -0.0730   18.6030   43.2150 C   0  0  0  0  0  0  0  0  0  0  0  0
    2.5310   24.9490   32.1890 C   0  0  0  0  0  0  0  0  0  0  0  0
    2.6960   19.0590   38.8780 C   0  0  0  0  0  0  0  0  0  0  0  0
    3.4880   13.3370   38.5040 O   0  0  0  0  0  0  0  0  0  0  0  0
    0.9750   28.1200   31.9530 C   0  0  0  0  0  0  0  0  0  0  0  0
    1.5260   18.7410   41.2060 C   0  0  0  0  0  0  0  0  0  0  0  0
    2.7050   20.1510   37.8920 C   0  0  0  0  0  0  0  0  0  0  0  0
    3.2900   14.1960   37.6040 C   0  0  0  0  0  0  0  0  0  0  0  0
    3.7660   15.5240   37.9010 C   0  0  2  0  0  0  0  0  0  0  0  0
    0.7240   27.8520   29.1570 C   0  0  0  0  0  0  0  0  0  0  0  0
    2.8820   21.3380   35.6440 C   0  0  0  0  0  0  0  0  0  0  0  0
    3.4020   17.6970   38.9600 C   0  0  0  0  0  0  0  0  0  0  0  0
    2.7920   23.4470   33.8750 C   0  0  0  0  0  0  0  0  0  0  0  0
    0.1620   26.8110   28.3630 C   0  0  0  0  0  0  0  0  0  0  0  0
   -0.8960   19.0930   43.9960 O   0  0  0  0  0  0  0  0  0  0  0  0
    2.9640   22.3070   35.4180 C   0  0  0  0  0  0  0  0  0  0  0  0
    3.6430   24.2800   31.5140 C   0  0  0  0  0  0  0  0  0  0  0  0
    0.2881   25.5668   31.1246 H   0  0  0  0  0  0  0  0  0  0  0  0
    3.6720   19.3324   36.1866 H   0  0  0  0  0  0  0  0  0  0  0  0
   -0.5165   21.2082   42.5410 H   0  0  0  0  0  0  0  0  0  0  0  0
    2.4572   27.2450   32.3368 H   0  0  0  0  0  0  0  0  0  0  0  0
    5.7384   15.7666   37.8493 H   0  0  0  0  0  0  0  0  0  0  0  0
    5.1023   14.8410   36.5972 H   0  0  0  0  0  0  0  0  0  0  0  0
    4.8970   16.5104   36.5972 H   0  0  0  0  0  0  0  0  0  0  0  0
    5.3043   22.9104   31.7191 H   0  0  0  0  0  0  0  0  0  0  0  0
    0.8435   25.2361   32.0948 H   0  0  0  0  0  0  0  0  0  0  0  0
    1.2640   23.5957   29.9739 H   0  0  0  0  0  0  0  0  0  0  0  0
    0.2608   24.4362   28.7435 H   0  0  0  0  0  0  0  0  0  0  0  0
    2.0448   24.6460   28.7435 H   0  0  0  0  0  0  0  0  0  0  0  0
    0.5472   22.5411   40.7330 H   0  0  0  0  0  0  0  0  0  0  0  0
    0.6007   26.3952   30.6707 H   0  0  0  0  0  0  0  0  0  0  0  0
    4.3272   21.9549   33.8576 H   0  0  0  0  0  0  0  0  0  0  0  0
    0.7545   28.7349   32.8381 H   0  0  0  0  0  0  0  0  0  0  0  0
    1.7531   28.6109   31.3501 H   0  0  0  0  0  0  0  0  0  0  0  0
    0.0622   28.0046   31.3501 H   0  0  0  0  0  0  0  0  0  0  0  0
    1.9029   17.7263   41.4016 H   0  0  0  0  0  0  0  0  0  0  0  0
    3.4833   15.3488   38.9495 H   0  0  0  0  0  0  0  0  0  0  0  0
    0.0803   28.6536   29.5482 H   0  0  0  0  0  0  0  0  0  0  0  0
    1.5435   28.5739   29.0254 H   0  0  0  0  0  0  0  0  0  0  0  0
    2.2939   20.9167   34.8153 H   0  0  0  0  0  0  0  0  0  0  0  0
    2.9540   17.1213   39.7833 H   0  0  0  0  0  0  0  0  0  0  0  0
    4.4714   17.8956   39.1243 H   0  0  0  0  0  0  0  0  0  0  0  0
   -0.9179   26.7735   28.1568 H   0  0  0  0  0  0  0  0  0  0  0  0
    0.3400   26.3456   27.3823 H   0  0  0  0  0  0  0  0  0  0  0  0
    3.2299   22.8943   36.3093 H   0  0  0  0  0  0  0  0  0  0  0  0
    3.9032   24.5669   30.4844 H   0  0  0  0  0  0  0  0  0  0  0  0
  1 27  2  0
  2 16  1  0
  3 28  1  0
  4 30  1  0
  4 33  1  0
  6  7  1  0
  7  1  1  0
  7 19  2  0
  8 13  2  0
  9 26  1  0
  9 15  1  0
 11 34  2  0
 11 15  1  0
 12 21  2  0
 13 22  1  0
 14  2  1  0
 14 23  1  0
 14  9  1  0
 17 29  2  0
 18  4  2  0
 19  8  1  0
 20  2  1  0
 21 34  1  0
 22  5  2  0
 22 36  1  0
 23 11  1  0
 24 33  1  0
 24  1  1  0
 27 13  1  0
 28  6  1  0
 28 24  2  0
 29 30  1  0
 29 25  1  0
 30 10  1  0
 31 20  1  0
 32  3  1  0
 34 37  1  0
 35 31  1  0
 35 20  1  0
 37 32  2  3
 38 12  1  0
 38 23  2  0
  2 39  1  1
  3 40  1  0
  8 41  1  0
  9 42  1  6
 10 43  1  0
 10 44  1  0
 10 45  1  0
 12 46  1  0
 14 47  1  1
 16 48  1  0
 16 49  1  0
 16 50  1  0
 19 51  1  0
 20 52  1  0
 21 53  1  0
 26 54  1  0
 26 55  1  0
 26 56  1  0
 27 57  1  0
 30 58  1  1
 31 59  1  0
 31 60  1  0
 32 61  1  0
 33 62  1  0
 33 63  1  0
 35 64  1  0
 35 65  1  0
 37 66  1  0
 38 67  1  0
M  CHG  3  10   1  25  -1  36  -1
M  END
>  <mol_id>  (44) 
2026-09-18-3war-s0-n100-0044

>  <rmsd_to_ref>  (44) 


$$$$

     RDKit          3D

 74 77  0  0  0  0  0  0  0  0999 V2000
    2.5340   15.2811   36.7457 C   0  0  0  0  0  0  0  0  0  0  0  0
    1.1653   18.7928   42.0928 C   0  0  0  0  0  0  0  0  0  0  0  0
    2.0242   25.1697   32.1380 C   0  0  0  0  0  0  0  0  0  0  0  0
    0.7792   27.1423   32.9950 C   0  0  0  0  0  0  0  0  0  0  0  0
    2.2575   25.0540   33.5412 C   0  0  0  0  0  0  0  0  0  0  0  0
    2.3985   21.5691   36.6482 C   0  0  0  0  0  0  0  0  0  0  0  0
    3.5648   23.9521   33.7941 C   0  0  0  0  0  0  0  0  0  0  0  0
    3.6261   11.8094   36.0616 C   0  0  0  0  0  0  0  0  0  0  0  0
    0.9884   17.3187   42.4065 C   0  0  0  0  0  0  0  0  0  0  0  0
    3.6326   15.0874   37.8130 C   0  0  2  0  0  0  0  0  0  0  0  0
    0.6316   19.7680   43.2690 C   0  0  0  0  0  0  0  0  0  0  0  0
    4.9213   24.5719   34.0081 C   0  0  0  0  0  0  0  0  0  0  0  0
    1.6996   21.1473   39.0548 C   0  0  0  0  0  0  0  0  0  0  0  0
    2.4261   20.8458   37.7415 C   0  0  2  0  0  0  0  0  0  0  0  0
    3.3643   13.0863   36.6033 C   0  0  0  0  0  0  0  0  0  0  0  0
    4.5004   11.1933   37.0881 C   0  0  0  0  0  0  0  0  0  0  0  0
    1.8482   25.7109   34.5300 C   0  0  0  0  0  0  0  0  0  0  0  0
    4.7782   12.0819   38.2458 S   0  0  0  0  0  0  0  0  0  0  0  0
    1.9184   19.0998   40.8340 C   0  0  0  0  0  0  0  0  0  0  0  0
    4.1318   17.5592   38.4553 C   0  0  0  0  0  0  0  0  0  0  0  0
    4.0045   13.4934   37.9273 C   0  0  0  0  0  0  0  0  0  0  0  0
    1.0871   26.8624   34.5681 C   0  0  0  0  0  0  0  0  0  0  0  0
    3.0044   22.8803   34.7760 C   0  0  0  0  0  0  0  0  0  0  0  0
    3.5964   18.8268   38.9857 C   0  0  0  0  0  0  0  0  0  0  0  0
   -0.2708   27.5173   30.9735 C   0  0  0  0  0  0  0  0  0  0  0  0
    1.2469   26.2230   31.9436 C   0  0  0  0  0  0  0  0  0  0  0  0
    2.1932   20.6662   40.4332 C   0  0  0  0  0  0  0  0  0  0  0  0
    2.6273   14.2594   35.7894 N   0  0  0  0  0  0  0  0  0  0  0  0
    4.6620   23.9065   32.7110 C   0  0  0  0  0  0  0  0  0  0  0  0
    3.7395   16.2434   38.7709 C   0  0  0  0  0  0  0  0  0  0  0  0
    0.0315   28.1609   32.3984 C   0  0  0  0  0  0  0  0  0  0  0  0
    3.1796   19.5669   37.8425 C   0  0  0  0  0  0  0  0  0  0  0  0
    2.7558   22.0983   35.4771 C   0  0  0  0  0  0  0  0  0  0  0  0
    1.5452   15.2447   37.2262 H   0  0  0  0  0  0  0  0  0  0  0  0
    2.6669   16.2565   36.2550 H   0  0  0  0  0  0  0  0  0  0  0  0
    2.4197   24.5027   31.3578 H   0  0  0  0  0  0  0  0  0  0  0  0
    1.4211   21.2008   36.3033 H   0  0  0  0  0  0  0  0  0  0  0  0
    3.1718   22.2008   37.1098 H   0  0  0  0  0  0  0  0  0  0  0  0
    3.2702   11.3789   35.1140 H   0  0  0  0  0  0  0  0  0  0  0  0
    1.0839   17.1605   43.4909 H   0  0  0  0  0  0  0  0  0  0  0  0
   -0.0075   16.9901   42.0745 H   0  0  0  0  0  0  0  0  0  0  0  0
    1.7604   16.7369   41.8817 H   0  0  0  0  0  0  0  0  0  0  0  0
    4.7129   15.2907   37.7747 H   0  0  0  0  0  0  0  0  0  0  0  0
    0.9730   19.3883   44.2433 H   0  0  0  0  0  0  0  0  0  0  0  0
    1.0270   20.7824   43.1119 H   0  0  0  0  0  0  0  0  0  0  0  0
   -0.4679   19.7961   43.2513 H   0  0  0  0  0  0  0  0  0  0  0  0
    5.0188   25.6669   34.0478 H   0  0  0  0  0  0  0  0  0  0  0  0
    5.6974   24.4660   34.7805 H   0  0  0  0  0  0  0  0  0  0  0  0
    0.6863   20.7353   38.9385 H   0  0  0  0  0  0  0  0  0  0  0  0
    1.8547   22.2329   39.1398 H   0  0  0  0  0  0  0  0  0  0  0  0
    1.5374   20.2951   37.3997 H   0  0  0  0  0  0  0  0  0  0  0  0
    4.9051   10.1742   37.0009 H   0  0  0  0  0  0  0  0  0  0  0  0
    2.1392   25.3094   35.5119 H   0  0  0  0  0  0  0  0  0  0  0  0
    2.2814   18.2866   40.1884 H   0  0  0  0  0  0  0  0  0  0  0  0
    5.2055   17.5919   38.6924 H   0  0  0  0  0  0  0  0  0  0  0  0
    3.7077   17.6159   37.4419 H   0  0  0  0  0  0  0  0  0  0  0  0
    0.7681   27.4458   35.4445 H   0  0  0  0  0  0  0  0  0  0  0  0
    2.7429   18.6353   39.6528 H   0  0  0  0  0  0  0  0  0  0  0  0
    4.3463   19.3731   39.5767 H   0  0  0  0  0  0  0  0  0  0  0  0
   -0.4977   26.4478   31.0949 H   0  0  0  0  0  0  0  0  0  0  0  0
   -1.1331   28.0255   30.5171 H   0  0  0  0  0  0  0  0  0  0  0  0
    0.6094   27.6340   30.3243 H   0  0  0  0  0  0  0  0  0  0  0  0
    0.9237   26.4287   30.9124 H   0  0  0  0  0  0  0  0  0  0  0  0
    3.2805   20.8291   40.4686 H   0  0  0  0  0  0  0  0  0  0  0  0
    1.6052   21.2474   41.1589 H   0  0  0  0  0  0  0  0  0  0  0  0
    2.3044   14.2608   34.8112 H   0  0  0  0  0  0  0  0  0  0  0  0
    5.1596   22.9553   32.4708 H   0  0  0  0  0  0  0  0  0  0  0  0
    4.7271   24.2062   31.6547 H   0  0  0  0  0  0  0  0  0  0  0  0
    2.7371   16.3422   39.2129 H   0  0  0  0  0  0  0  0  0  0  0  0
    4.6213   15.9232   39.3453 H   0  0  0  0  0  0  0  0  0  0  0  0
    0.6136   29.0898   32.3073 H   0  0  0  0  0  0  0  0  0  0  0  0
   -0.8651   28.4568   32.9629 H   0  0  0  0  0  0  0  0  0  0  0  0
    2.5686   18.8525   37.2714 H   0  0  0  0  0  0  0  0  0  0  0  0
    4.1672   19.9644   37.5658 H   0  0  0  0  0  0  0  0  0  0  0  0
  1 10  1  0
  2  9  1  0
  2 11  1  0
  3  5  2  0
  4 22  1  0
  5  7  1  0
  5 17  1  0
  7 12  1  0
  7 23  1  0
  8 15  1  0
  8 16  2  0
 10 21  1  0
 10 30  1  0
 13 27  1  0
 14  6  1  0
 14 32  1  0
 14 13  1  0
 15 21  2  0
 16 18  1  0
 19  2  2  3
 20 30  1  0
 20 24  1  0
 21 18  1  0
 22 17  2  0
 23 33  3  0
 25 31  1  0
 26  3  1  0
 26  4  2  0
 27 19  1  0
 28 15  1  0
 28  1  1  0
 29  7  1  0
 29 12  1  0
 31  4  1  0
 32 24  1  0
 33  6  1  0
  1 34  1  0
  1 35  1  0
  3 36  1  0
  6 37  1  0
  6 38  1  0
  8 39  1  0
  9 40  1  0
  9 41  1  0
  9 42  1  0
 10 43  1  6
 11 44  1  0
 11 45  1  0
 11 46  1  0
 12 47  1  0
 12 48  1  0
 13 49  1  0
 13 50  1  0
 14 51  1  6
 16 52  1  0
 17 53  1  0
 19 54  1  0
 20 55  1  0
 20 56  1  0
 22 57  1  0
 24 58  1  0
 24 59  1  0
 25 60  1  0
 25 61  1  0
 25 62  1  0
 26 63  1  0
 27 64  1  0
 27 65  1  0
 28 66  1  0
 29 67  1  0
 29 68  1  0
 30 69  1  0
 30 70  1  0
 31 71  1  0
 31 72  1  0
 32 73  1  0
 32 74  1  0
M  END
>  <mol_id>  (45) 
2026-09-18-3war-s0-n100-0045

>  <rmsd_to_ref>  (45) 


$$$$

     RDKit          3D

 74 77  0  0  0  0  0  0  0  0999 V2000
    1.8526   28.1627   33.9993 C   0  0  0  0  0  0  0  0  0  0  0  0
    3.3742   15.4944   38.9383 C   0  0  0  0  0  0  0  0  0  0  0  0
    3.1327   12.4412   35.8721 C   0  0  0  0  0  0  0  0  0  0  0  0
    1.8152   14.2890   42.2848 C   0  0  0  0  0  0  0  0  0  0  0  0
    0.7307   16.4647   43.3290 C   0  0  0  0  0  0  0  0  0  0  0  0
    4.8509   24.4442   32.2960 C   0  0  0  0  0  0  0  0  0  0  0  0
    0.6006   25.6652   30.4596 C   0  0  0  0  0  0  0  0  0  0  0  0
    3.3239   22.4968   33.9436 C   0  0  2  0  0  0  0  0  0  0  0  0
    2.3067   19.3610   39.8737 C   0  0  0  0  0  0  0  0  0  0  0  0
    5.6223   13.8147   38.0407 O   0  0  0  0  0  0  0  0  0  0  0  0
    2.6619   19.8580   38.5499 C   0  0  0  0  0  0  0  0  0  0  0  0
    4.3288   21.4274   33.8508 O   0  0  0  0  0  0  0  0  0  0  0  0
    3.4162   24.0633   31.8318 C   0  0  0  0  0  0  0  0  0  0  0  0
    3.3430   14.7894   37.6891 C   0  0  0  0  0  0  0  0  0  0  0  0
    2.5898   22.7066   35.2383 C   0  0  0  0  0  0  0  0  0  0  0  0
    3.1577   17.0050   38.9259 C   0  0  0  0  0  0  0  0  0  0  0  0
    0.8909   27.7327   33.0188 C   0  0  0  0  0  0  0  0  0  0  0  0
    2.5581   21.5187   36.2751 S   0  0  0  0  0  4  0  0  0  0  0  0
    2.9678   26.6068   32.1275 C   0  0  0  0  0  0  0  0  0  0  0  0
    1.7201   25.1216   30.5897 O   0  0  0  0  0  0  0  0  0  0  0  0
    3.4950   17.7215   37.7732 C   0  0  0  0  0  0  0  0  0  0  0  0
    1.9914   27.4797   32.8715 C   0  0  0  0  0  0  0  0  0  0  0  0
    2.4198   25.2012   31.8627 C   0  0  1  0  0  0  0  0  0  0  0  0
    2.7155   17.6333   40.0740 C   0  0  0  0  0  0  0  0  0  0  0  0
    1.3665   17.4157   42.4340 C   0  0  0  0  0  0  0  0  0  0  0  0
    2.1584   16.8726   41.2793 C   0  0  0  0  0  0  0  0  0  0  0  0
    2.8270   23.0002   32.6049 C   0  0  0  0  0  0  0  0  0  0  0  0
    3.2865   19.0170   37.5774 C   0  0  0  0  0  0  0  0  0  0  0  0
    0.8947   14.9400   43.3072 C   0  0  0  0  0  0  0  0  0  0  0  0
    3.3212   14.8301   40.2592 O   0  0  0  0  0  0  0  0  0  0  0  0
    2.5026   15.3936   41.3318 C   0  0  2  0  0  0  0  0  0  0  0  0
    4.2846   13.6178   37.7073 C   0  0  0  0  0  0  0  0  0  0  0  0
    3.6206   23.4970   30.4459 C   0  0  0  0  0  0  0  0  0  0  0  0
    2.2204   21.2486   38.1060 C   0  0  0  0  0  0  0  0  0  0  0  0
    3.9917   12.3520   36.9171 N   0  0  0  0  0  0  0  0  0  0  0  0
    2.1651   29.2141   34.0818 H   0  0  0  0  0  0  0  0  0  0  0  0
    2.0590   28.0580   35.0747 H   0  0  0  0  0  0  0  0  0  0  0  0
    2.1075   12.5684   36.2500 H   0  0  0  0  0  0  0  0  0  0  0  0
    3.4033   13.3055   35.2478 H   0  0  0  0  0  0  0  0  0  0  0  0
    3.1904   11.5221   35.2706 H   0  0  0  0  0  0  0  0  0  0  0  0
    1.9892   13.2057   42.2062 H   0  0  0  0  0  0  0  0  0  0  0  0
    0.0647   16.8797   44.0999 H   0  0  0  0  0  0  0  0  0  0  0  0
    4.8837   24.4782   33.3950 H   0  0  0  0  0  0  0  0  0  0  0  0
    5.5661   23.6924   31.9309 H   0  0  0  0  0  0  0  0  0  0  0  0
    5.1176   25.4313   31.8904 H   0  0  0  0  0  0  0  0  0  0  0  0
    0.1766   25.8738   31.4529 H   0  0  0  0  0  0  0  0  0  0  0  0
    0.7131   26.6077   29.9037 H   0  0  0  0  0  0  0  0  0  0  0  0
   -0.0720   24.9921   29.9078 H   0  0  0  0  0  0  0  0  0  0  0  0
    3.8113   23.4315   34.2579 H   0  0  0  0  0  0  0  0  0  0  0  0
    1.8415   19.9774   40.6572 H   0  0  0  0  0  0  0  0  0  0  0  0
    4.5882   21.1384   34.7615 H   0  0  0  0  0  0  0  0  0  0  0  0
    2.3208   14.4264   37.5065 H   0  0  0  0  0  0  0  0  0  0  0  0
    3.6562   15.4779   36.8906 H   0  0  0  0  0  0  0  0  0  0  0  0
    2.0891   23.6614   35.4565 H   0  0  0  0  0  0  0  0  0  0  0  0
    0.1735   26.9364   33.2667 H   0  0  0  0  0  0  0  0  0  0  0  0
    0.1245   28.2375   32.4124 H   0  0  0  0  0  0  0  0  0  0  0  0
    1.6538   20.6677   35.6963 H   0  0  0  0  0  0  0  0  0  0  0  0
    3.2003   27.0816   31.1629 H   0  0  0  0  0  0  0  0  0  0  0  0
    3.8650   26.5014   32.7551 H   0  0  0  0  0  0  0  0  0  0  0  0
    3.9754   17.1617   36.9572 H   0  0  0  0  0  0  0  0  0  0  0  0
    2.6926   27.2178   32.0655 H   0  0  0  0  0  0  0  0  0  0  0  0
    1.7698   25.0666   32.7398 H   0  0  0  0  0  0  0  0  0  0  0  0
    1.2711   18.4993   42.5968 H   0  0  0  0  0  0  0  0  0  0  0  0
    1.7874   23.3132   32.7815 H   0  0  0  0  0  0  0  0  0  0  0  0
    3.0864   22.1393   31.9710 H   0  0  0  0  0  0  0  0  0  0  0  0
    3.6084   19.4635   36.6250 H   0  0  0  0  0  0  0  0  0  0  0  0
    0.3474   14.3172   44.0301 H   0  0  0  0  0  0  0  0  0  0  0  0
    2.9622   15.8731   42.2086 H   0  0  0  0  0  0  0  0  0  0  0  0
    3.9387   22.4467   30.5223 H   0  0  0  0  0  0  0  0  0  0  0  0
    2.6771   23.5545   29.8835 H   0  0  0  0  0  0  0  0  0  0  0  0
    4.3950   24.0775   29.9232 H   0  0  0  0  0  0  0  0  0  0  0  0
    2.7715   22.0025   38.6873 H   0  0  0  0  0  0  0  0  0  0  0  0
    1.1379   21.3412   38.2774 H   0  0  0  0  0  0  0  0  0  0  0  0
    4.4320   11.4552   37.1678 H   0  0  0  0  0  0  0  0  0  0  0  0
  2 16  2  0
  2 30  1  0
  3 35  1  0
  4 29  2  0
  7 20  1  0
  8 12  1  0
  8 15  1  0
  9 24  1  0
 11  9  2  0
 13 23  1  0
 13  6  1  0
 13 27  1  0
 14  2  1  0
 15 18  2  3
 16 24  1  0
 17  1  1  0
 18 34  1  0
 19 22  1  0
 20 23  1  0
 21 16  1  0
 22 17  1  0
 22  1  1  0
 23 19  1  0
 24 26  2  0
 25  5  2  0
 26 31  1  0
 26 25  1  0
 27  8  1  0
 28 21  2  0
 28 11  1  0
 29  5  1  0
 30 31  1  0
 31  4  1  0
 32 14  1  0
 32 10  2  0
 33 13  1  0
 34 11  1  0
 35 32  1  0
  1 36  1  0
  1 37  1  0
  3 38  1  0
  3 39  1  0
  3 40  1  0
  4 41  1  0
  5 42  1  0
  6 43  1  0
  6 44  1  0
  6 45  1  0
  7 46  1  0
  7 47  1  0
  7 48  1  0
  8 49  1  1
  9 50  1  0
 12 51  1  0
 14 52  1  0
 14 53  1  0
 15 54  1  0
 17 55  1  0
 17 56  1  0
 18 57  1  6
 19 58  1  0
 19 59  1  0
 21 60  1  0
 22 61  1  0
 23 62  1  1
 25 63  1  0
 27 64  1  0
 27 65  1  0
 28 66  1  0
 29 67  1  0
 31 68  1  1
 33 69  1  0
 33 70  1  0
 33 71  1  0
 34 72  1  0
 34 73  1  0
 35 74  1  0
M  END
>  <mol_id>  (46) 
2026-09-18-3war-s0-n100-0046

>  <rmsd_to_ref>  (46) 


$$$$

     RDKit          3D

 47 49  0  0  0  0  0  0  0  0999 V2000
    2.8697   16.5065   40.2575 N   0  0  0  0  0  0  0  0  0  0  0  0
    3.1305   20.6041   34.9769 C   0  0  0  0  0  0  0  0  0  0  0  0
    1.0798   18.1069   41.4097 C   0  0  0  0  0  0  0  0  0  0  0  0
    2.0973   21.6376   34.5205 C   0  0  2  0  0  0  0  0  0  0  0  0
   -0.0731   26.0370   31.0502 C   0  0  0  0  0  0  0  0  0  0  0  0
    1.0387   20.5291   40.6236 C   0  0  0  0  0  0  0  0  0  0  0  0
    2.1004   20.2416   39.7358 C   0  0  0  0  0  0  0  0  0  0  0  0
    2.0759   14.7522   42.0759 O   0  0  0  0  0  0  0  0  0  0  0  0
    2.6299   20.9207   38.5425 C   0  0  0  0  0  0  0  0  0  0  0  0
    0.4820   26.0516   29.8404 C   0  0  0  0  0  0  0  0  0  0  0  0
    1.6296   15.6358   40.9719 S   0  0  0  0  0  6  0  0  0  0  0  0
    2.6781   22.1951   32.8265 S   0  0  0  0  0  0  0  0  0  0  0  0
    0.5131   25.4401   32.1381 C   0  0  0  0  0  0  0  0  0  0  0  0
    0.6410   16.7436   41.7935 N   0  0  0  0  0  0  0  0  0  0  0  0
    2.2317   17.9763   40.6911 C   0  0  0  0  0  0  0  0  0  0  0  0
    1.7821   20.5910   37.3441 C   0  0  0  0  0  0  0  0  0  0  0  0
    1.7660   25.4758   29.6353 C   0  0  0  0  0  0  0  0  0  0  0  0
    2.3460   24.7521   30.6690 C   0  0  0  0  0  0  0  0  0  0  0  0
    2.8041   19.0054   39.9086 C   0  0  0  0  0  0  0  0  0  0  0  0
    3.6572   19.7678   33.9600 C   0  0  0  0  0  0  0  0  0  0  0  0
    1.2211   23.3854   34.4542 S   0  0  0  0  0  0  0  0  0  0  0  0
    1.7728   24.7202   32.0160 C   0  0  0  0  0  0  0  0  0  0  0  0
    2.0042   23.7949   32.9760 C   0  0  2  0  0  0  0  0  0  0  0  0
    0.7520   14.9913   39.9457 O   0  0  0  0  0  0  0  0  0  0  0  0
    0.5355   19.4717   41.5063 C   0  0  0  0  0  0  0  0  0  0  0  0
    3.7165   16.2312   39.7397 H   0  0  0  0  0  0  0  0  0  0  0  0
    3.9700   21.1463   35.4365 H   0  0  0  0  0  0  0  0  0  0  0  0
    2.5981   19.9346   35.6686 H   0  0  0  0  0  0  0  0  0  0  0  0
    1.4954   21.0595   35.2372 H   0  0  0  0  0  0  0  0  0  0  0  0
   -1.0487   26.5270   31.1844 H   0  0  0  0  0  0  0  0  0  0  0  0
    0.5947   21.5352   40.6520 H   0  0  0  0  0  0  0  0  0  0  0  0
    2.6198   22.0082   38.7077 H   0  0  0  0  0  0  0  0  0  0  0  0
    3.6600   20.5806   38.3607 H   0  0  0  0  0  0  0  0  0  0  0  0
   -0.0542   26.5105   28.9967 H   0  0  0  0  0  0  0  0  0  0  0  0
    0.0222   25.5068   33.1203 H   0  0  0  0  0  0  0  0  0  0  0  0
   -0.1251   16.5112   42.4415 H   0  0  0  0  0  0  0  0  0  0  0  0
    0.7619   20.3445   37.6733 H   0  0  0  0  0  0  0  0  0  0  0  0
    1.7498   21.4581   36.6680 H   0  0  0  0  0  0  0  0  0  0  0  0
    2.2148   19.7293   36.8147 H   0  0  0  0  0  0  0  0  0  0  0  0
    2.2898   25.6012   28.6762 H   0  0  0  0  0  0  0  0  0  0  0  0
    3.2665   24.1841   30.4692 H   0  0  0  0  0  0  0  0  0  0  0  0
    3.7856   18.8577   39.4345 H   0  0  0  0  0  0  0  0  0  0  0  0
    4.2613   18.9704   34.4174 H   0  0  0  0  0  0  0  0  0  0  0  0
    2.8306   19.3199   33.3890 H   0  0  0  0  0  0  0  0  0  0  0  0
    4.2883   20.3644   33.2849 H   0  0  0  0  0  0  0  0  0  0  0  0
    2.4972   24.7695   32.8457 H   0  0  0  0  0  0  0  0  0  0  0  0
   -0.2502   19.6985   42.2421 H   0  0  0  0  0  0  0  0  0  0  0  0
  1 15  1  0
  1 11  1  0
  3 25  1  0
  3 14  1  0
  4 21  1  0
  4  2  1  0
  5 13  1  0
  6 25  2  0
  7 19  2  0
  7  6  1  0
  9  7  1  0
 10  5  2  0
 11 14  1  0
 11  8  2  0
 12 23  1  0
 12  4  1  0
 15  3  2  0
 16  9  1  0
 17 10  1  0
 17 18  2  0
 18 22  1  0
 19 15  1  0
 20  2  1  0
 22 13  2  0
 23 22  1  0
 23 21  1  0
 24 11  2  0
  1 26  1  0
  2 27  1  0
  2 28  1  0
  4 29  1  6
  5 30  1  0
  6 31  1  0
  9 32  1  0
  9 33  1  0
 10 34  1  0
 13 35  1  0
 14 36  1  0
 16 37  1  0
 16 38  1  0
 16 39  1  0
 17 40  1  0
 18 41  1  0
 19 42  1  0
 20 43  1  0
 20 44  1  0
 20 45  1  0
 23 46  1  1
 25 47  1  0
M  END
>  <mol_id>  (47) 
2026-09-18-3war-s0-n100-0047

>  <rmsd_to_ref>  (47) 


$$$$

     RDKit          3D

 67 73  0  0  0  0  0  0  0  0999 V2000
   -0.4420   20.2730   42.7120 C   0  0  0  0  0  0  0  0  0  0  0  0
    1.8590   24.6750   30.4770 N   0  0  0  0  0  0  0  0  0  0  0  0
    1.6420   16.9190   41.1360 C   0  0  2  0  0  0  0  0  0  0  0  0
    0.6410   25.7750   28.5370 C   0  0  0  0  0  0  0  0  0  0  0  0
    1.9900   21.2720   37.9670 C   0  0  0  0  0  0  0  0  0  0  0  0
    3.4510   23.0370   32.6570 C   0  0  2  0  0  0  0  0  0  0  0  0
    3.8730   23.8950   30.1800 N   0  0  0  0  0  0  0  0  0  0  0  0
    2.9710   16.2060   39.1940 C   0  0  1  0  0  0  0  0  0  0  0  0
    0.9030   18.0800   41.5810 C   0  0  0  0  0  0  0  0  0  0  0  0
    0.5520   26.5160   31.0610 C   0  0  0  0  0  0  0  0  0  0  0  0
    1.9650   19.6310   39.7910 C   0  0  0  0  0  0  0  0  0  0  0  0
    3.0270   18.8500   39.1420 C   0  0  1  0  0  0  0  0  0  0  0  0
    2.7820   24.3710   29.6220 C   0  0  0  0  0  0  0  0  0  0  0  0
    2.6730   16.8060   40.2660 N   0  0  0  0  0  0  0  0  0  0  0  0
    0.5060   20.4230   41.6580 C   0  0  0  0  0  0  0  0  0  0  0  0
    1.0160   19.3130   41.0560 C   0  0  0  0  0  0  0  0  0  0  0  0
    3.0080   20.4840   37.2520 C   0  0  0  0  0  0  0  0  0  0  0  0
    3.4340   20.8950   35.9580 C   0  0  0  0  0  0  0  0  0  0  0  0
    1.3750   24.9350   27.5630 C   0  0  0  0  0  0  0  0  0  0  0  0
    3.7870   24.1030   32.6950 C   0  0  0  0  0  0  0  0  0  0  0  0
    4.6670   19.1250   37.5680 O   0  0  0  0  0  0  0  0  0  0  0  0
    1.5350   20.7660   39.1660 C   0  0  0  0  0  0  0  0  0  0  0  0
    2.9880   21.9320   35.0670 C   0  0  0  0  0  0  0  0  0  0  0  0
    3.8820   24.1220   27.1890 S   0  0  0  0  0  0  0  0  0  0  0  0
    1.3850   15.2240   40.7160 C   0  0  0  0  0  0  0  0  0  0  0  0
    3.9090   21.9830   33.7660 C   0  0  0  0  0  0  0  0  0  0  0  0
    3.5970   19.5260   38.0450 C   0  0  0  0  0  0  0  0  0  0  0  0
    3.5500   17.5470   39.5740 C   0  0  1  0  0  0  0  0  0  0  0  0
    2.6030   24.4580   28.2230 C   0  0  0  0  0  0  0  0  0  0  0  0
    3.7580   23.9370   31.4930 C   0  0  2  0  0  0  0  0  0  0  0  0
    2.4780   15.0680   39.8630 N   0  0  0  0  0  0  0  0  0  0  0  0
   -0.1450   17.9290   42.6270 C   0  0  0  0  0  0  0  0  0  0  0  0
    0.8120   25.4540   30.0170 C   0  0  2  0  0  0  0  0  0  0  0  0
   -0.7710   19.0330   43.1050 C   0  0  0  0  0  0  0  0  0  0  0  0
   -0.8935   21.1537   43.1921 H   0  0  0  0  0  0  0  0  0  0  0  0
    1.4587   17.3397   42.1357 H   0  0  0  0  0  0  0  0  0  0  0  0
   -0.4305   25.6892   28.3035 H   0  0  0  0  0  0  0  0  0  0  0  0
    1.0713   26.7804   28.4182 H   0  0  0  0  0  0  0  0  0  0  0  0
    1.1217   21.3758   37.2997 H   0  0  0  0  0  0  0  0  0  0  0  0
    2.4905   22.2164   38.2271 H   0  0  0  0  0  0  0  0  0  0  0  0
    2.7215   22.2148   32.6994 H   0  0  0  0  0  0  0  0  0  0  0  0
    4.6944   23.5422   29.6684 H   0  0  0  0  0  0  0  0  0  0  0  0
    3.1031   15.8426   38.1642 H   0  0  0  0  0  0  0  0  0  0  0  0
    0.6593   26.0779   32.0643 H   0  0  0  0  0  0  0  0  0  0  0  0
    1.2762   27.3350   30.9392 H   0  0  0  0  0  0  0  0  0  0  0  0
   -0.4686   26.9078   30.9392 H   0  0  0  0  0  0  0  0  0  0  0  0
    2.3241   18.3432   38.4645 H   0  0  0  0  0  0  0  0  0  0  0  0
    0.8225   21.4255   41.3341 H   0  0  0  0  0  0  0  0  0  0  0  0
    4.2706   20.3017   35.5602 H   0  0  0  0  0  0  0  0  0  0  0  0
    1.6334   25.5297   26.6744 H   0  0  0  0  0  0  0  0  0  0  0  0
    0.7548   24.0857   27.2404 H   0  0  0  0  0  0  0  0  0  0  0  0
    3.0653   24.8258   33.1033 H   0  0  0  0  0  0  0  0  0  0  0  0
    4.6463   24.4824   33.2674 H   0  0  0  0  0  0  0  0  0  0  0  0
    0.7424   21.3366   39.6721 H   0  0  0  0  0  0  0  0  0  0  0  0
    1.9490   21.7302   34.7676 H   0  0  0  0  0  0  0  0  0  0  0  0
    3.0512   22.8996   35.5864 H   0  0  0  0  0  0  0  0  0  0  0  0
    1.4438   14.5636   41.5937 H   0  0  0  0  0  0  0  0  0  0  0  0
    0.4013   14.9755   40.2909 H   0  0  0  0  0  0  0  0  0  0  0  0
    3.9081   20.9830   33.3077 H   0  0  0  0  0  0  0  0  0  0  0  0
    4.9040   22.3063   34.1057 H   0  0  0  0  0  0  0  0  0  0  0  0
    4.5720   17.9534   39.5957 H   0  0  0  0  0  0  0  0  0  0  0  0
    2.6880   24.1711   31.3918 H   0  0  0  0  0  0  0  0  0  0  0  0
    2.2071   14.3840   39.1421 H   0  0  0  0  0  0  0  0  0  0  0  0
    3.2483   14.7857   40.4858 H   0  0  0  0  0  0  0  0  0  0  0  0
   -0.4092   16.9317   43.0086 H   0  0  0  0  0  0  0  0  0  0  0  0
   -0.0683   24.8016   29.9203 H   0  0  0  0  0  0  0  0  0  0  0  0
   -1.5780   18.9073   43.8419 H   0  0  0  0  0  0  0  0  0  0  0  0
  1 34  2  0
  3 25  1  0
  3  9  1  0
  4 33  1  0
  5 22  1  0
  6 20  1  0
  6 26  1  0
  7 30  1  0
  8 28  1  0
  8 31  1  0
  8 14  1  0
  9 32  2  0
 11 16  1  0
 12 27  1  0
 12 28  1  0
 12 11  1  0
 13  7  1  0
 13  2  2  0
 14  3  1  0
 15  1  1  0
 16  9  1  0
 16 15  2  0
 17  5  1  0
 17 27  1  0
 18 17  2  3
 19 29  1  0
 19  4  1  0
 21 27  2  0
 22 11  2  0
 23 18  1  0
 24 29  2  0
 26 23  1  0
 28 14  1  0
 29 13  1  0
 30  6  1  0
 30 20  1  0
 31 25  1  0
 32 34  1  0
 33  2  1  0
 33 10  1  0
  1 35  1  0
  3 36  1  1
  4 37  1  0
  4 38  1  0
  5 39  1  0
  5 40  1  0
  6 41  1  6
  7 42  1  0
  8 43  1  6
 10 44  1  0
 10 45  1  0
 10 46  1  0
 12 47  1  6
 15 48  1  0
 18 49  1  0
 19 50  1  0
 19 51  1  0
 20 52  1  0
 20 53  1  0
 22 54  1  0
 23 55  1  0
 23 56  1  0
 25 57  1  0
 25 58  1  0
 26 59  1  0
 26 60  1  0
 28 61  1  1
 30 62  1  6
 31 63  1  0
 31 64  1  0
 32 65  1  0
 33 66  1  1
 34 67  1  0
M  CHG  1  31   1
M  END
>  <mol_id>  (48) 
2026-09-18-3war-s0-n100-0048

>  <rmsd_to_ref>  (48) 


$$$$

     RDKit          3D

 55 57  0  0  0  0  0  0  0  0999 V2000
    0.8460   21.1130   40.2600 N   0  0  0  0  0  0  0  0  0  0  0  0
    2.1640   21.4030   35.8660 C   0  0  0  0  0  0  0  0  0  0  0  0
    0.5860   21.4480   41.6550 C   0  0  0  0  0  0  0  0  0  0  0  0
    3.6570   23.0020   32.6140 O   0  0  0  0  0  0  0  0  0  0  0  0
    3.3300   20.2050   36.3460 C   0  0  0  0  0  0  0  0  0  0  0  0
    4.8720   19.3480   39.4560 C   0  0  0  0  0  0  0  0  0  0  0  0
    2.2620   23.2730   33.0720 C   0  0  1  0  0  0  0  0  0  0  0  0
    2.8480   15.5840   38.7980 C   0  0  0  0  0  0  0  0  0  0  0  0
    1.9150   20.5270   39.8280 C   0  0  0  0  0  0  0  0  0  0  0  0
    1.7980   22.6840   34.1520 C   0  0  0  0  0  0  0  0  0  0  0  0
    3.2320   19.9830   37.7460 C   0  0  0  0  0  0  0  0  0  0  0  0
    3.2870   17.7290   38.3070 C   0  0  0  0  0  0  0  0  0  0  0  0
    1.0970   24.2350   32.5430 C   0  0  1  0  0  0  0  0  0  0  0  0
    3.1270   16.8140   39.5070 C   0  0  0  0  0  0  0  0  0  0  0  0
    1.2400   25.6750   31.5410 C   0  0  1  0  0  0  0  0  0  0  0  0
    2.4110   25.3790   30.6120 C   0  0  0  0  0  0  0  0  0  0  0  0
    3.8860   19.0330   38.4550 N   0  0  0  0  0  0  0  0  0  0  0  0
    2.3920   21.6950   34.5680 C   0  0  0  0  0  0  0  0  0  0  0  0
    1.5490   24.2200   30.8460 C   0  0  1  0  0  0  0  0  0  0  0  0
    2.1670   15.8840   37.4490 C   0  0  0  0  0  0  0  0  0  0  0  0
    2.4930   19.7500   40.6550 O   0  0  0  0  0  0  0  0  0  0  0  0
    2.3920   17.3690   37.1220 C   0  0  0  0  0  0  0  0  0  0  0  0
    2.0950   20.6710   38.3730 C   0  0  0  0  0  0  0  0  0  0  0  0
    0.1252   21.3613   39.5675 H   0  0  0  0  0  0  0  0  0  0  0  0
    1.1455   21.0057   35.9881 H   0  0  0  0  0  0  0  0  0  0  0  0
    2.2577   22.3054   36.4880 H   0  0  0  0  0  0  0  0  0  0  0  0
    1.1290   20.7484   42.3074 H   0  0  0  0  0  0  0  0  0  0  0  0
    0.9259   22.4749   41.8550 H   0  0  0  0  0  0  0  0  0  0  0  0
   -0.4931   21.3735   41.8550 H   0  0  0  0  0  0  0  0  0  0  0  0
    4.2464   22.8875   33.4012 H   0  0  0  0  0  0  0  0  0  0  0  0
    3.1312   19.2647   35.8108 H   0  0  0  0  0  0  0  0  0  0  0  0
    4.3421   20.5595   36.1009 H   0  0  0  0  0  0  0  0  0  0  0  0
    4.4363   19.2088   40.4564 H   0  0  0  0  0  0  0  0  0  0  0  0
    5.7398   18.6824   39.3381 H   0  0  0  0  0  0  0  0  0  0  0  0
    5.1931   20.3935   39.3381 H   0  0  0  0  0  0  0  0  0  0  0  0
    1.8980   22.4354   32.4588 H   0  0  0  0  0  0  0  0  0  0  0  0
    3.7915   15.0483   38.6165 H   0  0  0  0  0  0  0  0  0  0  0  0
    2.1735   14.9656   39.4084 H   0  0  0  0  0  0  0  0  0  0  0  0
    1.8011   23.4312   34.9592 H   0  0  0  0  0  0  0  0  0  0  0  0
    0.8084   22.3061   33.8556 H   0  0  0  0  0  0  0  0  0  0  0  0
    4.2754   17.4949   37.8849 H   0  0  0  0  0  0  0  0  0  0  0  0
    0.3741   24.0936   33.3599 H   0  0  0  0  0  0  0  0  0  0  0  0
    2.2910   17.1194   40.1534 H   0  0  0  0  0  0  0  0  0  0  0  0
    3.9781   16.7834   40.2032 H   0  0  0  0  0  0  0  0  0  0  0  0
    0.7903   26.6502   31.7792 H   0  0  0  0  0  0  0  0  0  0  0  0
    2.4241   25.8373   29.6121 H   0  0  0  0  0  0  0  0  0  0  0  0
    3.4955   25.5250   30.7243 H   0  0  0  0  0  0  0  0  0  0  0  0
    2.0824   20.8301   33.9630 H   0  0  0  0  0  0  0  0  0  0  0  0
    3.4655   21.9203   34.4849 H   0  0  0  0  0  0  0  0  0  0  0  0
    1.4735   23.3332   30.1995 H   0  0  0  0  0  0  0  0  0  0  0  0
    2.6089   15.2572   36.6604 H   0  0  0  0  0  0  0  0  0  0  0  0
    1.0906   15.6649   37.5077 H   0  0  0  0  0  0  0  0  0  0  0  0
    2.9042   17.5082   36.1585 H   0  0  0  0  0  0  0  0  0  0  0  0
    1.4819   17.9764   37.0090 H   0  0  0  0  0  0  0  0  0  0  0  0
    1.3987   21.2758   37.7735 H   0  0  0  0  0  0  0  0  0  0  0  0
  1  3  1  0
  2  5  1  0
  5 11  1  0
  7  4  1  0
  7 10  1  0
  8 14  1  0
  9  1  1  0
  9 21  2  0
 10 18  1  0
 11 23  2  3
 11 17  1  0
 12 17  1  0
 12 14  1  0
 13  7  1  0
 15 16  1  0
 15 13  1  0
 17  6  1  0
 18  2  1  0
 19 16  1  0
 19 15  1  0
 19 13  1  0
 20  8  1  0
 22 20  1  0
 22 12  1  0
 23  9  1  0
  1 24  1  0
  2 25  1  0
  2 26  1  0
  3 27  1  0
  3 28  1  0
  3 29  1  0
  4 30  1  0
  5 31  1  0
  5 32  1  0
  6 33  1  0
  6 34  1  0
  6 35  1  0
  7 36  1  6
  8 37  1  0
  8 38  1  0
 10 39  1  0
 10 40  1  0
 12 41  1  0
 13 42  1  6
 14 43  1  0
 14 44  1  0
 15 45  1  6
 16 46  1  0
 16 47  1  0
 18 48  1  0
 18 49  1  0
 19 50  1  6
 20 51  1  0
 20 52  1  0
 22 53  1  0
 22 54  1  0
 23 55  1  0
M  END
>  <mol_id>  (49) 
2026-09-18-3war-s0-n100-0049

>  <rmsd_to_ref>  (49) 


$$$$

     RDKit          3D

 23 22  0  0  0  0  0  0  0  0999 V2000
    5.0307   23.0628   33.2716 C   0  0  0  0  0  0  0  0  0  0  0  0
    3.6897   21.3063   37.3726 C   0  0  0  0  0  0  0  0  0  0  0  0
    1.4745   22.5283   39.6073 O   0  0  0  0  0  0  0  0  0  0  0  0
    3.9669   20.2088   39.6543 F   0  0  0  0  0  0  0  0  0  0  0  0
    3.2778   21.1879   38.8903 C   0  0  2  0  0  0  0  0  0  0  0  0
    4.2062   22.5184   34.4071 C   0  0  0  0  0  0  0  0  0  0  0  0
    4.5628   21.1390   36.4180 C   0  0  0  0  0  0  0  0  0  0  0  0
    1.8240   21.2015   39.1910 C   0  0  0  0  0  0  0  0  0  0  0  0
    2.5714   21.2638   36.8118 O   0  0  0  0  0  0  0  0  0  0  0  0
    4.7890   21.5121   35.2243 N   0  0  0  0  0  0  0  0  0  0  0  0
    2.8268   22.0905   33.9395 C   0  0  0  0  0  0  0  0  0  0  0  0
    5.6972   23.8527   33.6483 H   0  0  0  0  0  0  0  0  0  0  0  0
    5.6327   22.2527   32.8342 H   0  0  0  0  0  0  0  0  0  0  0  0
    4.3647   23.4810   32.5024 H   0  0  0  0  0  0  0  0  0  0  0  0
    1.3301   22.5396   40.5867 H   0  0  0  0  0  0  0  0  0  0  0  0
    3.6517   22.1591   39.2466 H   0  0  0  0  0  0  0  0  0  0  0  0
    4.1383   23.3857   35.0802 H   0  0  0  0  0  0  0  0  0  0  0  0
    5.3577   20.4568   36.7537 H   0  0  0  0  0  0  0  0  0  0  0  0
    1.2533   20.9294   38.2908 H   0  0  0  0  0  0  0  0  0  0  0  0
    1.5889   20.4759   39.9835 H   0  0  0  0  0  0  0  0  0  0  0  0
    2.1478   22.0351   34.8032 H   0  0  0  0  0  0  0  0  0  0  0  0
    2.4410   22.8239   33.2162 H   0  0  0  0  0  0  0  0  0  0  0  0
    2.8921   21.1024   33.4605 H   0  0  0  0  0  0  0  0  0  0  0  0
  1  6  1  0
  2  5  1  0
  5  8  1  0
  5  4  1  0
  6 10  1  0
  7  2  1  0
  8  3  1  0
  9  2  2  0
 10  7  2  3
 11  6  1  0
  1 12  1  0
  1 13  1  0
  1 14  1  0
  3 15  1  0
  5 16  1  1
  6 17  1  0
  7 18  1  0
  8 19  1  0
  8 20  1  0
 11 21  1  0
 11 22  1  0
 11 23  1  0
M  END
>  <mol_id>  (50) 
2026-09-18-3war-s0-n100-0050

>  <rmsd_to_ref>  (50) 


$$$$

     RDKit          3D

 59 62  0  0  0  0  0  0  0  0999 V2000
    2.6492   20.2593   36.1782 C   0  0  2  0  0  0  0  0  0  0  0  0
    3.8749   25.3003   28.4290 F   0  0  0  0  0  0  0  0  0  0  0  0
    1.8008   21.2617   37.2236 O   0  0  0  0  0  0  0  0  0  0  0  0
    1.8505   20.2096   39.6799 C   0  0  0  0  0  0  0  0  0  0  0  0
    2.6693   20.9443   35.1251 C   0  0  0  0  0  0  0  0  0  0  0  0
    2.0146   20.2795   38.2869 C   0  0  0  0  0  0  0  0  0  0  0  0
    4.0194   16.8617   37.5446 Cl  0  0  0  0  0  0  0  0  0  0  0  0
    2.2348   25.4755   31.2368 C   0  0  1  0  0  0  0  0  0  0  0  0
    3.6817   24.9924   29.3937 C   0  0  2  0  0  0  0  0  0  0  0  0
    2.8220   19.3640   37.4617 C   0  0  0  0  0  0  0  0  0  0  0  0
    2.0078   27.7006   30.9465 O   0  0  0  0  0  0  0  0  0  0  0  0
    2.6027   23.8999   32.6812 C   0  0  1  0  0  0  0  0  0  0  0  0
    3.1736   18.2558   39.5510 C   0  0  0  0  0  0  0  0  0  0  0  0
    2.7459   26.3223   31.6051 C   0  0  2  0  0  0  0  0  0  0  0  0
    3.3025   18.3300   38.1148 C   0  0  0  0  0  0  0  0  0  0  0  0
    3.6020   23.8433   33.8760 O   0  0  0  0  0  0  0  0  0  0  0  0
    2.1917   25.5968   29.7236 C   0  0  0  0  0  0  0  0  0  0  0  0
    2.1659   21.2651   34.1097 C   0  0  0  0  0  0  0  0  0  0  0  0
    2.8150   13.4105   39.0732 N   0  0  0  0  0  0  0  0  0  0  0  0
    2.1882   15.4340   36.6897 C   0  0  0  0  0  0  0  0  0  0  0  0
    3.2431   14.6046   37.2581 C   0  0  0  0  0  0  0  0  0  0  0  0
    1.9619   22.4767   33.3268 C   0  0  0  0  0  0  0  0  0  0  0  0
    2.6019   25.3384   32.4999 C   0  0  1  0  0  0  0  0  0  0  0  0
    1.7538   27.5892   32.4207 C   0  0  0  0  0  0  0  0  0  0  0  0
    3.9801   23.6511   31.5055 C   0  0  0  0  0  0  0  0  0  0  0  0
    4.1811   24.6362   30.6946 C   0  0  0  0  0  0  0  0  0  0  0  0
    1.5299   15.0255   35.6239 F   0  0  0  0  0  0  0  0  0  0  0  0
    2.6391   13.3842   37.9856 C   0  0  0  0  0  0  0  0  0  0  0  0
    1.3746   15.7569   37.5720 F   0  0  0  0  0  0  0  0  0  0  0  0
    2.4898   19.1704   40.3090 N   0  0  0  0  0  0  0  0  0  0  0  0
    0.8233   21.1348   40.4652 Cl  0  0  0  0  0  0  0  0  0  0  0  0
    3.5932   20.7241   36.4986 H   0  0  0  0  0  0  0  0  0  0  0  0
    2.7780   21.9409   35.5779 H   0  0  0  0  0  0  0  0  0  0  0  0
    3.1324   20.0935   34.6039 H   0  0  0  0  0  0  0  0  0  0  0  0
    1.5099   24.7060   30.9328 H   0  0  0  0  0  0  0  0  0  0  0  0
    4.3817   24.2059   29.0754 H   0  0  0  0  0  0  0  0  0  0  0  0
    3.6540   17.4127   40.0690 H   0  0  0  0  0  0  0  0  0  0  0  0
    3.0977   23.8311   34.7278 H   0  0  0  0  0  0  0  0  0  0  0  0
    1.3894   24.9882   29.2809 H   0  0  0  0  0  0  0  0  0  0  0  0
    1.9841   26.6024   29.3289 H   0  0  0  0  0  0  0  0  0  0  0  0
    2.6822   20.6153   33.3877 H   0  0  0  0  0  0  0  0  0  0  0  0
    1.1591   21.3068   34.5508 H   0  0  0  0  0  0  0  0  0  0  0  0
    1.9350   13.2071   39.5684 H   0  0  0  0  0  0  0  0  0  0  0  0
    3.5212   12.7040   39.3240 H   0  0  0  0  0  0  0  0  0  0  0  0
    3.1531   14.3451   39.3439 H   0  0  0  0  0  0  0  0  0  0  0  0
    2.7738   16.2767   36.2938 H   0  0  0  0  0  0  0  0  0  0  0  0
    3.9029   14.2545   36.4505 H   0  0  0  0  0  0  0  0  0  0  0  0
    3.8148   15.2033   37.9824 H   0  0  0  0  0  0  0  0  0  0  0  0
    1.1212   22.9068   33.8910 H   0  0  0  0  0  0  0  0  0  0  0  0
    2.2913   21.9356   32.4275 H   0  0  0  0  0  0  0  0  0  0  0  0
    2.7247   25.4493   33.5874 H   0  0  0  0  0  0  0  0  0  0  0  0
    2.2323   28.2972   33.1135 H   0  0  0  0  0  0  0  0  0  0  0  0
    0.8517   27.5772   33.0500 H   0  0  0  0  0  0  0  0  0  0  0  0
    4.9010   23.4909   32.0853 H   0  0  0  0  0  0  0  0  0  0  0  0
    3.7054   22.7868   30.8830 H   0  0  0  0  0  0  0  0  0  0  0  0
    5.2698   24.6075   30.5396 H   0  0  0  0  0  0  0  0  0  0  0  0
    3.5430   25.3455   31.2420 H   0  0  0  0  0  0  0  0  0  0  0  0
    1.5543   13.3670   37.8042 H   0  0  0  0  0  0  0  0  0  0  0  0
    3.1302   12.4831   37.5898 H   0  0  0  0  0  0  0  0  0  0  0  0
  1  5  1  0
  1  3  1  0
  1 10  1  0
  3  6  1  0
  4 30  1  0
  4 31  1  0
  6  4  2  0
  7 15  1  0
  8 17  1  0
  8 14  1  0
  8 23  1  0
  9  2  1  0
  9 17  1  0
  9 26  1  0
 10 15  2  0
 10  6  1  0
 14 11  1  6
 11 24  1  0
 12 22  1  0
 12 16  1  1
 13 30  2  0
 14 24  1  0
 14 23  1  0
 15 13  1  0
 18  5  1  0
 20 21  1  0
 20 29  1  0
 21 28  1  0
 22 18  1  0
 23 12  1  0
 25 12  1  0
 26 25  1  0
 27 20  1  0
 28 19  1  0
  1 32  1  6
  5 33  1  0
  5 34  1  0
  8 35  1  1
  9 36  1  6
 13 37  1  0
 16 38  1  0
 17 39  1  0
 17 40  1  0
 18 41  1  0
 18 42  1  0
 19 43  1  0
 19 44  1  0
 19 45  1  0
 20 46  1  0
 21 47  1  0
 21 48  1  0
 22 49  1  0
 22 50  1  0
 23 51  1  1
 24 52  1  0
 24 53  1  0
 25 54  1  0
 25 55  1  0
 26 56  1  0
 26 57  1  0
 28 58  1  0
 28 59  1  0
M  CHG  1  19   1
M  END
>  <mol_id>  (51) 
2026-09-18-3war-s0-n100-0051

>  <rmsd_to_ref>  (51) 


$$$$

     RDKit          3D

 63 66  0  0  0  0  0  0  0  0999 V2000
    4.2264   13.1046   38.3502 C   0  0  1  0  0  0  0  0  0  0  0  0
    3.9403   11.8760   37.5736 C   0  0  0  0  0  0  0  0  0  0  0  0
    3.4169   14.2222   37.7960 C   0  0  0  0  0  0  0  0  0  0  0  0
    3.4344   25.0473   31.0315 C   0  0  0  0  0  0  0  0  0  0  0  0
    3.4705   22.8140   34.5320 C   0  0  2  0  0  0  0  0  0  0  0  0
    3.9845   13.0298   39.6714 O   0  0  0  0  0  0  0  0  0  0  0  0
    2.7040   15.5773   40.2310 C   0  0  0  0  0  0  0  0  0  0  0  0
    3.3373   12.3120   36.2099 C   0  0  0  0  0  0  0  0  0  0  0  0
    3.8485   16.3764   38.2332 C   0  0  0  0  0  0  0  0  0  0  0  0
    2.1237   25.8751   30.8824 C   0  0  0  0  0  0  0  0  0  0  0  0
    4.6883   23.3394   32.4515 C   0  0  0  0  0  0  0  0  0  0  0  0
    2.4737   16.7650   40.6700 N   0  0  0  0  0  0  0  0  0  0  0  0
    3.2607   20.9364   35.9873 N   0  0  0  0  0  0  0  0  0  0  0  0
    3.2837   15.2997   38.8114 C   0  0  0  0  0  0  0  0  0  0  0  0
    2.9732   19.9655   37.9934 C   0  0  0  0  0  0  0  0  0  0  0  0
    3.8166   11.7444   40.2882 C   0  0  0  0  0  0  0  0  0  0  0  0
    3.7018   24.4870   32.2037 C   0  0  2  0  0  0  0  0  0  0  0  0
    2.8684   24.8752   33.2696 C   0  0  0  0  0  0  0  0  0  0  0  0
    4.1539   22.3047   33.2919 C   0  0  0  0  0  0  0  0  0  0  0  0
    3.4314   17.6576   38.6309 C   0  0  0  0  0  0  0  0  0  0  0  0
    1.7406   25.6405   29.4057 C   0  0  0  0  0  0  0  0  0  0  0  0
    2.2575   19.1434   40.1754 C   0  0  0  0  0  0  0  0  0  0  0  0
    2.5996   21.8423   35.2493 C   0  0  0  0  0  0  0  0  0  0  0  0
    2.6368   24.0852   34.4314 C   0  0  0  0  0  0  0  0  0  0  0  0
    2.8150   24.7490   28.8127 C   0  0  0  0  0  0  0  0  0  0  0  0
    3.9208   24.4473   29.8514 C   0  0  0  0  0  0  0  0  0  0  0  0
    3.0184   20.8644   37.0842 N   0  0  0  0  0  0  0  0  0  0  0  0
    3.5111   18.6802   37.7084 C   0  0  0  0  0  0  0  0  0  0  0  0
    2.8209   17.8724   39.9048 C   0  0  0  0  0  0  0  0  0  0  0  0
    2.2863   20.0973   39.1075 C   0  0  0  0  0  0  0  0  0  0  0  0
    5.3104   13.2623   38.2496 H   0  0  0  0  0  0  0  0  0  0  0  0
    4.8698   11.3111   37.4094 H   0  0  0  0  0  0  0  0  0  0  0  0
    3.2363   11.2298   38.1184 H   0  0  0  0  0  0  0  0  0  0  0  0
    3.9137   14.6238   36.9005 H   0  0  0  0  0  0  0  0  0  0  0  0
    2.4171   13.8489   37.5296 H   0  0  0  0  0  0  0  0  0  0  0  0
    4.3948   23.0275   35.0888 H   0  0  0  0  0  0  0  0  0  0  0  0
    2.4822   14.7216   40.8857 H   0  0  0  0  0  0  0  0  0  0  0  0
    2.4551   12.9453   36.3848 H   0  0  0  0  0  0  0  0  0  0  0  0
    4.0888   12.8792   35.6412 H   0  0  0  0  0  0  0  0  0  0  0  0
    3.0410   11.4202   35.6381 H   0  0  0  0  0  0  0  0  0  0  0  0
    4.6237   16.2549   37.4622 H   0  0  0  0  0  0  0  0  0  0  0  0
    1.3404   25.5031   31.5593 H   0  0  0  0  0  0  0  0  0  0  0  0
    2.2470   26.9378   31.1379 H   0  0  0  0  0  0  0  0  0  0  0  0
    5.5886   23.7499   32.9322 H   0  0  0  0  0  0  0  0  0  0  0  0
    4.9119   22.8843   31.4752 H   0  0  0  0  0  0  0  0  0  0  0  0
    4.2646   21.1535   35.9099 H   0  0  0  0  0  0  0  0  0  0  0  0
    3.7959   11.8623   41.3816 H   0  0  0  0  0  0  0  0  0  0  0  0
    2.8710   11.2960   39.9496 H   0  0  0  0  0  0  0  0  0  0  0  0
    4.6545   11.0900   40.0058 H   0  0  0  0  0  0  0  0  0  0  0  0
    4.7205   24.8272   31.9658 H   0  0  0  0  0  0  0  0  0  0  0  0
    2.3642   25.8504   33.2006 H   0  0  0  0  0  0  0  0  0  0  0  0
    3.4230   21.7271   32.7069 H   0  0  0  0  0  0  0  0  0  0  0  0
    5.0062   21.6950   33.6264 H   0  0  0  0  0  0  0  0  0  0  0  0
    0.8593   26.0421   28.8844 H   0  0  0  0  0  0  0  0  0  0  0  0
    1.8202   19.3853   41.1553 H   0  0  0  0  0  0  0  0  0  0  0  0
    1.9326   22.4076   35.9170 H   0  0  0  0  0  0  0  0  0  0  0  0
    2.0590   21.2783   34.4750 H   0  0  0  0  0  0  0  0  0  0  0  0
    1.9070   24.3728   35.2026 H   0  0  0  0  0  0  0  0  0  0  0  0
    2.8086   24.3675   27.7810 H   0  0  0  0  0  0  0  0  0  0  0  0
    4.8616   23.8966   29.7047 H   0  0  0  0  0  0  0  0  0  0  0  0
    2.7589   21.7856   37.4647 H   0  0  0  0  0  0  0  0  0  0  0  0
    3.9975   18.4989   36.7386 H   0  0  0  0  0  0  0  0  0  0  0  0
    1.6872   21.0118   39.2284 H   0  0  0  0  0  0  0  0  0  0  0  0
  1  2  1  0
  1  6  1  0
  3  1  1  0
  3 14  1  0
  5 23  1  0
  6 16  1  0
  7 12  2  0
  8  2  1  0
  9 20  1  0
  9 14  2  0
 10  4  1  0
 11 19  1  0
 13 27  1  0
 14  7  1  0
 15 30  2  0
 17  4  1  0
 17 11  1  0
 17 18  1  0
 18 24  2  0
 19  5  1  0
 20 29  1  0
 21 10  1  0
 23 13  1  0
 24  5  1  0
 25 21  2  0
 25 26  1  0
 26  4  2  0
 27 15  1  0
 28 15  1  0
 28 20  2  0
 29 22  2  0
 29 12  1  0
 30 22  1  0
  1 31  1  1
  2 32  1  0
  2 33  1  0
  3 34  1  0
  3 35  1  0
  5 36  1  1
  7 37  1  0
  8 38  1  0
  8 39  1  0
  8 40  1  0
  9 41  1  0
 10 42  1  0
 10 43  1  0
 11 44  1  0
 11 45  1  0
 13 46  1  0
 16 47  1  0
 16 48  1  0
 16 49  1  0
 17 50  1  1
 18 51  1  0
 19 52  1  0
 19 53  1  0
 21 54  1  0
 22 55  1  0
 23 56  1  0
 23 57  1  0
 24 58  1  0
 25 59  1  0
 26 60  1  0
 27 61  1  0
 28 62  1  0
 30 63  1  0
M  END
>  <mol_id>  (52) 
2026-09-18-3war-s0-n100-0052

>  <rmsd_to_ref>  (52) 


$$$$

     RDKit          3D

 50 52  0  0  0  0  0  0  0  0999 V2000
    1.5216   21.9007   39.7798 C   0  0  0  0  0  0  0  0  0  0  0  0
    2.3637   21.9733   35.1368 O   0  0  0  0  0  0  0  0  0  0  0  0
    2.3491   21.1422   38.7842 C   0  0  1  0  0  0  0  0  0  0  0  0
    4.6056   24.1920   32.3776 C   0  0  0  0  0  0  0  0  0  0  0  0
    4.0038   24.8949   31.3742 C   0  0  2  0  0  0  0  0  0  0  0  0
    3.1315   17.2573   40.2971 C   0  0  0  0  0  0  0  0  0  0  0  0
    3.5666   17.6230   39.0073 C   0  0  0  0  0  0  0  0  0  0  0  0
    2.6386   21.9635   37.8023 C   0  0  0  0  0  0  0  0  0  0  0  0
    2.2703   19.4035   40.5030 C   0  0  0  0  0  0  0  0  0  0  0  0
    2.5516   24.4237   33.4832 C   0  0  0  0  0  0  0  0  0  0  0  0
    2.3792   22.0838   40.9100 O   0  0  0  0  0  0  0  0  0  0  0  0
    2.6279   19.7351   39.2215 C   0  0  0  0  0  0  0  0  0  0  0  0
    3.9293   21.8816   36.9571 C   0  0  0  0  0  0  0  0  0  0  0  0
    2.4242   18.1495   41.0738 C   0  0  0  0  0  0  0  0  0  0  0  0
    2.8858   25.4505   30.9776 C   0  0  2  0  0  0  0  0  0  0  0  0
    3.4551   22.3012   35.4265 C   0  0  0  0  0  0  0  0  0  0  0  0
    1.7408   25.5509   33.1518 C   0  0  0  0  0  0  0  0  0  0  0  0
    1.6643   25.8981   31.6548 C   0  0  0  0  0  0  0  0  0  0  0  0
    3.2856   18.8613   38.5559 C   0  0  0  0  0  0  0  0  0  0  0  0
    2.9743   24.2292   30.4924 C   0  0  0  0  0  0  0  0  0  0  0  0
    4.2532   16.5920   38.2088 C   0  0  0  0  0  0  0  0  0  0  0  0
    4.1777   22.9248   34.4608 N   0  0  0  0  0  0  0  0  0  0  0  0
    3.7575   23.9137   33.4713 C   0  0  0  0  0  0  0  0  0  0  0  0
    0.6290   21.3227   40.0612 H   0  0  0  0  0  0  0  0  0  0  0  0
    1.1616   22.8579   39.3745 H   0  0  0  0  0  0  0  0  0  0  0  0
    1.4629   20.7952   38.2326 H   0  0  0  0  0  0  0  0  0  0  0  0
    5.4623   24.7767   32.7441 H   0  0  0  0  0  0  0  0  0  0  0  0
    4.9055   23.2229   31.9524 H   0  0  0  0  0  0  0  0  0  0  0  0
    4.9857   25.3719   31.5100 H   0  0  0  0  0  0  0  0  0  0  0  0
    3.3578   16.2536   40.6862 H   0  0  0  0  0  0  0  0  0  0  0  0
    1.8079   21.8764   37.0864 H   0  0  0  0  0  0  0  0  0  0  0  0
    2.8115   22.8979   38.3564 H   0  0  0  0  0  0  0  0  0  0  0  0
    1.8270   20.1938   41.1266 H   0  0  0  0  0  0  0  0  0  0  0  0
    2.3253   24.3411   34.5565 H   0  0  0  0  0  0  0  0  0  0  0  0
    2.3532   23.9860   32.4937 H   0  0  0  0  0  0  0  0  0  0  0  0
    1.8304   22.1868   41.7274 H   0  0  0  0  0  0  0  0  0  0  0  0
    4.6862   22.5844   37.3353 H   0  0  0  0  0  0  0  0  0  0  0  0
    4.3877   20.8822   36.9922 H   0  0  0  0  0  0  0  0  0  0  0  0
    2.0167   17.8890   42.0617 H   0  0  0  0  0  0  0  0  0  0  0  0
    2.7998   26.4760   30.5892 H   0  0  0  0  0  0  0  0  0  0  0  0
    0.7189   25.3481   33.5047 H   0  0  0  0  0  0  0  0  0  0  0  0
    2.2158   26.4162   33.6374 H   0  0  0  0  0  0  0  0  0  0  0  0
    1.5598   26.9869   31.5374 H   0  0  0  0  0  0  0  0  0  0  0  0
    0.7955   25.3920   31.2087 H   0  0  0  0  0  0  0  0  0  0  0  0
    3.6434   19.1385   37.5533 H   0  0  0  0  0  0  0  0  0  0  0  0
    3.1717   24.0597   29.4236 H   0  0  0  0  0  0  0  0  0  0  0  0
    2.3721   23.3087   30.5071 H   0  0  0  0  0  0  0  0  0  0  0  0
    4.8471   15.9482   38.8740 H   0  0  0  0  0  0  0  0  0  0  0  0
    3.5073   15.9821   37.6782 H   0  0  0  0  0  0  0  0  0  0  0  0
    4.9177   17.0764   37.4781 H   0  0  0  0  0  0  0  0  0  0  0  0
  1 11  1  0
  2 16  2  0
  3  8  1  0
  3 12  1  0
  3  1  1  0
  4 23  1  0
  5 20  1  0
  5  4  1  0
  6 14  2  0
  7  6  1  0
  9 14  1  0
 12  9  2  0
 13  8  1  0
 15 20  1  0
 15  5  1  0
 15 18  1  0
 16 13  1  0
 17 10  1  0
 18 17  1  0
 19  7  2  0
 19 12  1  0
 21  7  1  0
 22 16  1  0
 23 10  1  0
 23 22  2  3
  1 24  1  0
  1 25  1  0
  3 26  1  6
  4 27  1  0
  4 28  1  0
  5 29  1  6
  6 30  1  0
  8 31  1  0
  8 32  1  0
  9 33  1  0
 10 34  1  0
 10 35  1  0
 11 36  1  0
 13 37  1  0
 13 38  1  0
 14 39  1  0
 15 40  1  6
 17 41  1  0
 17 42  1  0
 18 43  1  0
 18 44  1  0
 19 45  1  0
 20 46  1  0
 20 47  1  0
 21 48  1  0
 21 49  1  0
 21 50  1  0
M  END
>  <mol_id>  (53) 
2026-09-18-3war-s0-n100-0053

>  <rmsd_to_ref>  (53) 


$$$$

     RDKit          3D

 30 29  0  0  0  0  0  0  0  0999 V2000
    3.7600   22.4029   34.4129 N   0  0  0  0  0  0  0  0  0  0  0  0
    3.7496   20.3748   35.8635 C   0  0  1  0  0  0  0  0  0  0  0  0
    3.0000   19.6991   34.8502 O   0  0  0  0  0  0  0  0  0  0  0  0
    4.0620   22.1391   33.2356 N   0  0  0  0  0  0  0  0  0  0  0  0
    4.5056   21.4596   35.2104 C   0  0  0  0  0  0  0  0  0  0  0  0
    3.7517   24.2918   32.1664 C   0  0  0  0  0  0  0  0  0  0  0  0
    2.6655   20.2711   38.2286 C   0  0  0  0  0  0  0  0  0  0  0  0
    2.5352   20.0290   40.9962 C   0  0  0  0  0  0  0  0  0  0  0  0
    4.7005   23.2273   32.6287 C   0  0  0  0  0  0  0  0  0  0  0  0
    2.5159   20.0890   39.4715 C   0  0  0  0  0  0  0  0  0  0  0  0
    1.3837   19.2216   41.5897 C   0  0  0  0  0  0  0  0  0  0  0  0
    2.8957   20.8782   36.9246 C   0  0  0  0  0  0  0  0  0  0  0  0
    2.7481   22.2832   34.5626 H   0  0  0  0  0  0  0  0  0  0  0  0
    4.4417   19.6710   36.3489 H   0  0  0  0  0  0  0  0  0  0  0  0
    2.5891   18.8835   35.2324 H   0  0  0  0  0  0  0  0  0  0  0  0
    4.6953   21.3268   33.2237 H   0  0  0  0  0  0  0  0  0  0  0  0
    5.2536   20.9913   34.5538 H   0  0  0  0  0  0  0  0  0  0  0  0
    4.9155   22.0549   36.0396 H   0  0  0  0  0  0  0  0  0  0  0  0
    3.2406   24.7303   33.0361 H   0  0  0  0  0  0  0  0  0  0  0  0
    4.3111   25.0764   31.6359 H   0  0  0  0  0  0  0  0  0  0  0  0
    3.0072   23.8499   31.4879 H   0  0  0  0  0  0  0  0  0  0  0  0
    2.4769   21.0561   41.3856 H   0  0  0  0  0  0  0  0  0  0  0  0
    3.4678   19.5238   41.2878 H   0  0  0  0  0  0  0  0  0  0  0  0
    5.2636   22.8600   31.7581 H   0  0  0  0  0  0  0  0  0  0  0  0
    5.3559   23.6828   33.3857 H   0  0  0  0  0  0  0  0  0  0  0  0
    1.6055   18.9847   42.6408 H   0  0  0  0  0  0  0  0  0  0  0  0
    0.4562   19.8104   41.5344 H   0  0  0  0  0  0  0  0  0  0  0  0
    1.2597   18.2878   41.0217 H   0  0  0  0  0  0  0  0  0  0  0  0
    3.2814   21.8845   37.1450 H   0  0  0  0  0  0  0  0  0  0  0  0
    1.9141   20.6879   36.4661 H   0  0  0  0  0  0  0  0  0  0  0  0
  1  5  1  0
  2  3  1  0
  2 12  1  0
  4  1  1  0
  5  2  1  0
  6  9  1  0
  7 10  3  0
  8 11  1  0
  9  4  1  0
 10  8  1  0
 12  7  1  0
  1 13  1  0
  2 14  1  1
  3 15  1  0
  4 16  1  0
  5 17  1  0
  5 18  1  0
  6 19  1  0
  6 20  1  0
  6 21  1  0
  8 22  1  0
  8 23  1  0
  9 24  1  0
  9 25  1  0
 11 26  1  0
 11 27  1  0
 11 28  1  0
 12 29  1  0
 12 30  1  0
M  END
>  <mol_id>  (54) 
2026-09-18-3war-s0-n100-0054

>  <rmsd_to_ref>  (54) 


$$$$

     RDKit          3D

 41 41  0  0  0  0  0  0  0  0999 V2000
    1.8660   23.9880   30.1930 C   0  0  0  0  0  0  0  0  0  0  0  0
    1.5250   26.1200   31.1890 C   0  0  0  0  0  0  0  0  0  0  0  0
    2.5470   19.0510   38.9590 C   0  0  0  0  0  0  0  0  0  0  0  0
    3.4760   21.0830   35.7320 C   0  0  0  0  0  0  0  0  0  0  0  0
    3.0850   24.2510   32.9720 C   0  0  0  0  0  0  0  0  0  0  0  0
    2.5300   22.1820   34.7430 S   0  0  2  0  0  4  0  0  0  0  0  0
    3.6040   24.8050   31.7590 C   0  0  0  0  0  0  0  0  0  0  0  0
    4.8000   18.6140   40.0380 C   0  0  0  0  0  0  0  0  0  0  0  0
    1.9030   21.2180   37.7220 C   0  0  0  0  0  0  0  0  0  0  0  0
    2.6150   25.2310   30.6630 C   0  0  0  0  0  0  0  0  0  0  0  0
    3.0970   21.6310   33.3000 C   0  0  0  0  0  0  0  0  0  0  0  0
    3.5950   22.9800   33.5730 C   0  0  1  0  0  0  0  0  0  0  0  0
    1.9070   20.6080   39.1160 C   0  0  0  0  0  0  0  0  0  0  0  0
    3.8400   18.9870   39.6170 C   0  0  0  0  0  0  0  0  0  0  0  0
    2.5600   20.3900   36.6690 C   0  0  0  0  0  0  0  0  0  0  0  0
    1.5210   23.4155   31.0667 H   0  0  0  0  0  0  0  0  0  0  0  0
    0.9991   24.2896   29.5867 H   0  0  0  0  0  0  0  0  0  0  0  0
    2.5377   23.3625   29.5867 H   0  0  0  0  0  0  0  0  0  0  0  0
    1.5404   26.1075   32.2888 H   0  0  0  0  0  0  0  0  0  0  0  0
    1.6858   27.1479   30.8317 H   0  0  0  0  0  0  0  0  0  0  0  0
    0.5504   25.7559   30.8317 H   0  0  0  0  0  0  0  0  0  0  0  0
    1.8633   18.3256   39.4241 H   0  0  0  0  0  0  0  0  0  0  0  0
    2.6678   18.8116   37.8922 H   0  0  0  0  0  0  0  0  0  0  0  0
    4.2294   21.6490   36.2995 H   0  0  0  0  0  0  0  0  0  0  0  0
    3.9907   20.3490   35.0946 H   0  0  0  0  0  0  0  0  0  0  0  0
    3.2215   25.0255   33.7411 H   0  0  0  0  0  0  0  0  0  0  0  0
    2.0718   23.9555   32.6619 H   0  0  0  0  0  0  0  0  0  0  0  0
    1.4291   22.5607   35.4651 H   0  0  0  0  0  0  0  0  0  0  0  0
    4.1878   25.6961   32.0332 H   0  0  0  0  0  0  0  0  0  0  0  0
    4.1670   23.9763   31.3049 H   0  0  0  0  0  0  0  0  0  0  0  0
    5.7491   18.2452   40.4542 H   0  0  0  0  0  0  0  0  0  0  0  0
    0.8568   21.3814   37.4241 H   0  0  0  0  0  0  0  0  0  0  0  0
    2.4878   22.1471   37.7916 H   0  0  0  0  0  0  0  0  0  0  0  0
    3.2031   25.7441   29.8879 H   0  0  0  0  0  0  0  0  0  0  0  0
    2.3822   21.4947   32.4751 H   0  0  0  0  0  0  0  0  0  0  0  0
    3.6320   20.7047   33.0435 H   0  0  0  0  0  0  0  0  0  0  0  0
    4.6124   23.3943   33.5159 H   0  0  0  0  0  0  0  0  0  0  0  0
    0.8819   20.5590   39.5120 H   0  0  0  0  0  0  0  0  0  0  0  0
    2.5041   21.2143   39.8130 H   0  0  0  0  0  0  0  0  0  0  0  0
    1.7635   19.9253   36.0693 H   0  0  0  0  0  0  0  0  0  0  0  0
    3.2005   19.6868   37.2216 H   0  0  0  0  0  0  0  0  0  0  0  0
  1 10  1  0
  3 13  1  0
  3 14  1  0
  4 15  1  0
  6  4  1  0
  7  5  1  0
  9 13  1  0
 10  2  1  0
 10  7  1  0
 11 12  1  0
 11  6  1  0
 12  5  1  0
 12  6  1  0
 14  8  3  0
 15  9  1  0
  1 16  1  0
  1 17  1  0
  1 18  1  0
  2 19  1  0
  2 20  1  0
  2 21  1  0
  3 22  1  0
  3 23  1  0
  4 24  1  0
  4 25  1  0
  5 26  1  0
  5 27  1  0
  6 28  1  6
  7 29  1  0
  7 30  1  0
  8 31  1  0
  9 32  1  0
  9 33  1  0
 10 34  1  0
 11 35  1  0
 11 36  1  0
 12 37  1  1
 13 38  1  0
 13 39  1  0
 15 40  1  0
 15 41  1  0
M  END
>  <mol_id>  (55) 
2026-09-18-3war-s0-n100-0055

>  <rmsd_to_ref>  (55) 


$$$$

     RDKit          3D

 40 40  0  0  0  0  0  0  0  0999 V2000
    2.9724   22.8301   34.1404 C   0  0  0  0  0  0  0  0  0  0  0  0
    3.7325   19.3313   40.1179 C   0  0  0  0  0  0  0  0  0  0  0  0
    0.6944   24.6782   33.6414 C   0  0  0  0  0  0  0  0  0  0  0  0
    4.0384   16.9272   39.3926 C   0  0  0  0  0  0  0  0  0  0  0  0
    4.0362   15.4084   39.7150 C   0  0  0  0  0  0  0  0  0  0  0  0
    3.8899   18.7689   37.7809 C   0  0  0  0  0  0  0  0  0  0  0  0
    3.0230   21.1951   38.4037 C   0  0  0  0  0  0  0  0  0  0  0  0
    3.5941   20.3654   41.2994 C   0  0  0  0  0  0  0  0  0  0  0  0
    3.5760   19.8198   38.7037 C   0  0  0  0  0  0  0  0  0  0  0  0
    3.9687   17.9423   40.4174 C   0  0  0  0  0  0  0  0  0  0  0  0
    1.8452   23.0565   35.1891 C   0  0  2  0  0  0  0  0  0  0  0  0
    3.3885   21.0542   36.0198 O   0  0  0  0  0  0  0  0  0  0  0  0
    4.1351   17.4726   38.0841 C   0  0  0  0  0  0  0  0  0  0  0  0
    1.2806   24.4751   34.9893 C   0  0  0  0  0  0  0  0  0  0  0  0
    1.5259   24.7459   32.3495 C   0  0  0  0  0  0  0  0  0  0  0  0
    2.8667   21.6520   36.9590 C   0  0  0  0  0  0  0  0  0  0  0  0
    2.1506   22.7750   36.6290 N   0  0  0  0  0  0  0  0  0  0  0  0
    3.9190   22.6190   34.6593 H   0  0  0  0  0  0  0  0  0  0  0  0
    2.7088   21.9776   33.4970 H   0  0  0  0  0  0  0  0  0  0  0  0
    3.0862   23.7337   33.5235 H   0  0  0  0  0  0  0  0  0  0  0  0
   -0.0169   23.8517   33.4967 H   0  0  0  0  0  0  0  0  0  0  0  0
    0.3389   25.7163   33.7193 H   0  0  0  0  0  0  0  0  0  0  0  0
    4.4417   15.2474   40.7248 H   0  0  0  0  0  0  0  0  0  0  0  0
    3.0063   15.0251   39.6680 H   0  0  0  0  0  0  0  0  0  0  0  0
    4.6592   14.8768   38.9807 H   0  0  0  0  0  0  0  0  0  0  0  0
    3.9364   19.0441   36.7169 H   0  0  0  0  0  0  0  0  0  0  0  0
    2.0243   21.2433   38.8623 H   0  0  0  0  0  0  0  0  0  0  0  0
    3.7938   21.8712   38.8018 H   0  0  0  0  0  0  0  0  0  0  0  0
    4.1140   19.9785   42.1882 H   0  0  0  0  0  0  0  0  0  0  0  0
    4.0420   21.3248   41.0013 H   0  0  0  0  0  0  0  0  0  0  0  0
    2.5297   20.5147   41.5333 H   0  0  0  0  0  0  0  0  0  0  0  0
    4.1011   17.6431   41.4676 H   0  0  0  0  0  0  0  0  0  0  0  0
    1.0993   22.2754   34.9802 H   0  0  0  0  0  0  0  0  0  0  0  0
    4.4278   16.7987   37.2654 H   0  0  0  0  0  0  0  0  0  0  0  0
    2.0955   25.2004   35.1306 H   0  0  0  0  0  0  0  0  0  0  0  0
    0.4749   24.6166   35.7247 H   0  0  0  0  0  0  0  0  0  0  0  0
    2.5952   24.6744   32.5974 H   0  0  0  0  0  0  0  0  0  0  0  0
    1.2460   23.9119   31.6892 H   0  0  0  0  0  0  0  0  0  0  0  0
    1.3312   25.6999   31.8377 H   0  0  0  0  0  0  0  0  0  0  0  0
    1.8259   23.4189   37.3644 H   0  0  0  0  0  0  0  0  0  0  0  0
  2 10  1  0
  2  8  1  0
  3 14  1  0
  4  5  1  0
  4 10  2  0
  6 13  2  0
  6  9  1  0
  7  9  1  0
  9  2  2  0
 11  1  1  0
 11 17  1  0
 12 16  2  0
 13  4  1  0
 14 11  1  0
 15  3  1  0
 16  7  1  0
 17 16  1  0
  1 18  1  0
  1 19  1  0
  1 20  1  0
  3 21  1  0
  3 22  1  0
  5 23  1  0
  5 24  1  0
  5 25  1  0
  6 26  1  0
  7 27  1  0
  7 28  1  0
  8 29  1  0
  8 30  1  0
  8 31  1  0
 10 32  1  0
 11 33  1  6
 13 34  1  0
 14 35  1  0
 14 36  1  0
 15 37  1  0
 15 38  1  0
 15 39  1  0
 17 40  1  0
M  END
>  <mol_id>  (56) 
2026-09-18-3war-s0-n100-0056

>  <rmsd_to_ref>  (56) 


$$$$

     RDKit          3D

 40 39  0  0  0  0  0  0  0  0999 V2000
    4.2200   18.8450   39.7360 O   0  0  0  0  0  0  0  0  0  0  0  0
    2.8400   21.5390   35.4800 O   0  0  0  0  0  0  0  0  0  0  0  0
    2.5840   25.6670   30.0230 C   0  0  0  0  0  0  0  0  0  0  0  0
    2.9870   18.6010   39.2120 C   0  0  0  0  0  0  0  0  0  0  0  0
    2.6510   24.6680   32.4600 C   0  0  1  0  0  0  0  0  0  0  0  0
    0.9920   21.6070   39.8840 F   0  0  0  0  0  0  0  0  0  0  0  0
    2.5580   20.6800   41.0800 F   0  0  0  0  0  0  0  0  0  0  0  0
    0.1260   26.6920   30.2630 C   0  0  0  0  0  0  0  0  0  0  0  0
    0.5570   19.4560   40.5930 F   0  0  0  0  0  0  0  0  0  0  0  0
    0.7930   26.9780   31.5570 C   0  0  0  0  0  0  0  0  0  0  0  0
    2.3050   19.9820   38.8520 C   0  0  0  0  0  0  0  0  0  0  0  0
    3.8520   25.4170   30.4910 C   0  0  0  0  0  0  0  0  0  0  0  0
    1.3770   25.8230   30.3740 C   0  0  0  0  0  0  0  0  0  0  0  0
    3.3290   23.6850   33.4480 C   0  0  0  0  0  0  0  0  0  0  0  0
    2.9360   20.7850   36.3900 C   0  0  0  0  0  0  0  0  0  0  0  0
    2.1360   20.9610   37.7150 C   0  0  0  0  0  0  0  0  0  0  0  0
    1.7410   25.3330   33.1450 O   0  0  0  0  0  0  0  0  0  0  0  0
    3.8200   22.4050   32.8090 O   0  0  0  0  0  0  0  0  0  0  0  0
    3.7700   19.7290   36.3620 O   0  0  0  0  0  0  0  0  0  0  0  0
    3.7130   24.2360   34.9970 S   0  0  0  0  0  0  0  0  0  0  0  0
    3.8160   24.8900   31.7900 C   0  0  0  0  0  0  0  0  0  0  0  0
    1.5890   20.4930   40.1790 C   0  0  0  0  0  0  0  0  0  0  0  0
    4.1665   18.8344   40.7245 H   0  0  0  0  0  0  0  0  0  0  0  0
    2.4746   24.8446   29.3007 H   0  0  0  0  0  0  0  0  0  0  0  0
    2.7587   26.7518   30.0755 H   0  0  0  0  0  0  0  0  0  0  0  0
    3.0858   17.9892   38.3032 H   0  0  0  0  0  0  0  0  0  0  0  0
    2.3702   18.0585   39.9436 H   0  0  0  0  0  0  0  0  0  0  0  0
    1.9127   24.6277   31.6456 H   0  0  0  0  0  0  0  0  0  0  0  0
    0.1146   27.4857   29.5015 H   0  0  0  0  0  0  0  0  0  0  0  0
   -0.9154   26.4062   30.0539 H   0  0  0  0  0  0  0  0  0  0  0  0
    1.3189   27.9303   31.7197 H   0  0  0  0  0  0  0  0  0  0  0  0
    0.5178   26.9671   32.6220 H   0  0  0  0  0  0  0  0  0  0  0  0
    4.3453   24.6948   29.8239 H   0  0  0  0  0  0  0  0  0  0  0  0
    4.4091   26.3652   30.5140 H   0  0  0  0  0  0  0  0  0  0  0  0
    1.5646   24.7832   30.0681 H   0  0  0  0  0  0  0  0  0  0  0  0
    1.4411   21.8068   37.8234 H   0  0  0  0  0  0  0  0  0  0  0  0
    1.9047   25.2134   34.1140 H   0  0  0  0  0  0  0  0  0  0  0  0
    3.1393   23.4128   35.9298 H   0  0  0  0  0  0  0  0  0  0  0  0
    4.3285   23.9180   31.7391 H   0  0  0  0  0  0  0  0  0  0  0  0
    4.2596   25.7082   32.3764 H   0  0  0  0  0  0  0  0  0  0  0  0
  2 15  2  0
  3 13  1  0
  3 12  1  0
  4  1  1  0
  5 17  1  0
  5 14  1  0
  6 22  1  0
  8 13  1  0
  8 10  1  0
 11  4  1  0
 11 22  1  0
 12 21  1  0
 13 10  1  0
 14 20  1  0
 15 16  1  0
 16 11  2  3
 18 14  2  0
 19 15  1  0
 21  5  1  0
 22  9  1  0
 22  7  1  0
  1 23  1  0
  3 24  1  0
  3 25  1  0
  4 26  1  0
  4 27  1  0
  5 28  1  6
  8 29  1  0
  8 30  1  0
 10 31  1  0
 10 32  1  0
 12 33  1  0
 12 34  1  0
 13 35  1  0
 16 36  1  0
 17 37  1  0
 20 38  1  0
 21 39  1  0
 21 40  1  0
M  CHG  1  19  -1
M  END
>  <mol_id>  (57) 
2026-09-18-3war-s0-n100-0057

>  <rmsd_to_ref>  (57) 


$$$$

     RDKit          3D

 63 63  0  0  0  0  0  0  0  0999 V2000
    1.2060   15.3130   39.4930 O   0  0  0  0  0  0  0  0  0  0  0  0
    4.5450   23.0430   32.7480 C   0  0  0  0  0  0  0  0  0  0  0  0
    2.2240   20.6840   37.9780 C   0  0  0  0  0  0  0  0  0  0  0  0
    2.9170   22.1700   34.4060 C   0  0  2  0  0  0  0  0  0  0  0  0
    2.3250   27.6170   28.0040 C   0  0  0  0  0  0  0  0  0  0  0  0
    4.8590   25.4750   29.8030 C   0  0  0  0  0  0  0  0  0  0  0  0
    3.8690   19.1830   39.3430 C   0  0  0  0  0  0  0  0  0  0  0  0
    2.6790   15.7350   39.0870 C   0  0  0  0  0  0  0  0  0  0  0  0
    2.5370   23.2770   34.5430 C   0  0  0  0  0  0  0  0  0  0  0  0
    1.5470   21.1080   41.0540 C   0  0  0  0  0  0  0  0  0  0  0  0
    1.7110   19.9310   40.0880 C   0  0  0  0  0  0  0  0  0  0  0  0
    2.9430   17.1420   38.6970 C   0  0  0  0  0  0  0  0  0  0  0  0
    0.7260   15.2650   40.3780 C   0  0  0  0  0  0  0  0  0  0  0  0
    3.5920   20.2550   36.0190 O   0  0  0  0  0  0  0  0  0  0  0  0
    2.0670   21.4360   36.8130 N   0  0  0  0  0  0  0  0  0  0  0  0
    2.7800   20.0190   38.9430 C   0  0  2  0  0  0  0  0  0  0  0  0
    3.4020   17.8810   39.7110 O   0  0  0  0  0  0  0  0  0  0  0  0
    2.5330   25.6670   29.2500 C   0  0  0  0  0  0  0  0  0  0  0  0
    3.1220   21.3270   35.7880 C   0  0  0  0  0  0  0  0  0  0  0  0
    4.8350   25.2790   28.3190 C   0  0  0  0  0  0  0  0  0  0  0  0
    0.5020   16.3990   41.3400 C   0  0  0  0  0  0  0  0  0  0  0  0
    3.8280   23.0950   34.0800 N   0  0  0  0  0  0  0  0  0  0  0  0
    3.4610   26.4300   27.8750 S   0  0  2  0  0  4  0  0  0  0  0  0
    1.4070   16.5450   42.4280 O   0  0  0  0  0  0  0  0  0  0  0  0
    3.4850   25.9130   30.2560 C   0  0  0  0  0  0  0  0  0  0  0  0
    5.6290   22.9644   32.9179 H   0  0  0  0  0  0  0  0  0  0  0  0
    4.1986   22.1676   32.1790 H   0  0  0  0  0  0  0  0  0  0  0  0
    4.3285   23.9592   32.1790 H   0  0  0  0  0  0  0  0  0  0  0  0
    1.6903   21.3901   38.6312 H   0  0  0  0  0  0  0  0  0  0  0  0
    2.4419   19.8226   37.3296 H   0  0  0  0  0  0  0  0  0  0  0  0
    2.5400   21.3020   33.8452 H   0  0  0  0  0  0  0  0  0  0  0  0
    2.1284   27.8224   29.0666 H   0  0  0  0  0  0  0  0  0  0  0  0
    2.6931   28.5314   27.5157 H   0  0  0  0  0  0  0  0  0  0  0  0
    1.3953   27.2894   27.5157 H   0  0  0  0  0  0  0  0  0  0  0  0
    5.5980   26.2473   30.0625 H   0  0  0  0  0  0  0  0  0  0  0  0
    5.1357   24.5340   30.3010 H   0  0  0  0  0  0  0  0  0  0  0  0
    4.3773   19.6406   40.2045 H   0  0  0  0  0  0  0  0  0  0  0  0
    4.5649   19.0818   38.4971 H   0  0  0  0  0  0  0  0  0  0  0  0
    3.3268   15.5122   39.9476 H   0  0  0  0  0  0  0  0  0  0  0  0
    2.8719   15.1655   38.1658 H   0  0  0  0  0  0  0  0  0  0  0  0
    1.7678   23.6751   33.8649 H   0  0  0  0  0  0  0  0  0  0  0  0
    2.0989   23.8353   35.3835 H   0  0  0  0  0  0  0  0  0  0  0  0
    1.5980   20.7419   42.0900 H   0  0  0  0  0  0  0  0  0  0  0  0
    2.3521   21.8377   40.8829 H   0  0  0  0  0  0  0  0  0  0  0  0
    0.5730   21.5898   40.8829 H   0  0  0  0  0  0  0  0  0  0  0  0
    1.9642   19.0500   40.6961 H   0  0  0  0  0  0  0  0  0  0  0  0
    0.7532   19.9027   39.5478 H   0  0  0  0  0  0  0  0  0  0  0  0
    3.6904   17.1491   37.8899 H   0  0  0  0  0  0  0  0  0  0  0  0
    1.9884   17.5811   38.3715 H   0  0  0  0  0  0  0  0  0  0  0  0
   -0.2806   14.8927   40.1367 H   0  0  0  0  0  0  0  0  0  0  0  0
    1.4630   14.6842   40.9519 H   0  0  0  0  0  0  0  0  0  0  0  0
    1.2467   22.0433   36.6744 H   0  0  0  0  0  0  0  0  0  0  0  0
    3.6197   20.3276   38.3030 H   0  0  0  0  0  0  0  0  0  0  0  0
    2.3548   24.5930   29.0927 H   0  0  0  0  0  0  0  0  0  0  0  0
    1.5169   26.0481   29.4297 H   0  0  0  0  0  0  0  0  0  0  0  0
    5.7853   25.5761   27.8513 H   0  0  0  0  0  0  0  0  0  0  0  0
    4.6971   24.2390   27.9883 H   0  0  0  0  0  0  0  0  0  0  0  0
    0.5374   17.3321   40.7585 H   0  0  0  0  0  0  0  0  0  0  0  0
   -0.4621   16.1668   41.8160 H   0  0  0  0  0  0  0  0  0  0  0  0
    3.9756   26.7942   26.6587 H   0  0  0  0  0  0  0  0  0  0  0  0
    0.9122   16.4652   43.2818 H   0  0  0  0  0  0  0  0  0  0  0  0
    3.2072   25.3541   31.1618 H   0  0  0  0  0  0  0  0  0  0  0  0
    3.5076   26.9921   30.4683 H   0  0  0  0  0  0  0  0  0  0  0  0
  1 13  1  0
  2 22  1  0
  4  9  1  0
  4 19  1  0
  6 25  1  0
  7 17  1  0
  8  1  1  0
 11 10  1  0
 12  8  1  0
 12 17  1  0
 13 21  1  0
 15  3  1  0
 16  3  1  0
 16  7  1  0
 16 11  1  0
 18 25  1  0
 19 14  2  0
 19 15  1  0
 20  6  1  0
 21 24  1  0
 22  4  1  0
 22  9  1  0
 23  5  1  0
 23 20  1  0
 23 18  1  0
  2 26  1  0
  2 27  1  0
  2 28  1  0
  3 29  1  0
  3 30  1  0
  4 31  1  6
  5 32  1  0
  5 33  1  0
  5 34  1  0
  6 35  1  0
  6 36  1  0
  7 37  1  0
  7 38  1  0
  8 39  1  0
  8 40  1  0
  9 41  1  0
  9 42  1  0
 10 43  1  0
 10 44  1  0
 10 45  1  0
 11 46  1  0
 11 47  1  0
 12 48  1  0
 12 49  1  0
 13 50  1  0
 13 51  1  0
 15 52  1  0
 16 53  1  1
 18 54  1  0
 18 55  1  0
 20 56  1  0
 20 57  1  0
 21 58  1  0
 21 59  1  0
 23 60  1  0
 24 61  1  0
 25 62  1  0
 25 63  1  0
M  END
>  <mol_id>  (58) 
2026-09-18-3war-s0-n100-0058

>  <rmsd_to_ref>  (58) 


$$$$

     RDKit          3D

 38 38  0  0  0  0  0  0  0  0999 V2000
    3.1200   19.0690   39.3560 N   0  0  0  0  0  0  0  0  0  0  0  0
    3.5170   23.5820   34.0320 N   0  0  0  0  0  0  0  0  0  0  0  0
    2.4320   20.6770   37.9430 N   0  0  0  0  0  0  0  0  0  0  0  0
    1.7770   15.6560   39.8530 C   0  0  0  0  0  0  0  0  0  0  0  0
    1.2680   26.0250   30.9550 C   0  0  0  0  0  0  0  0  0  0  0  0
    2.4270   17.9940   39.9650 C   0  0  0  0  0  0  0  0  0  0  0  0
    1.9620   27.1090   31.0070 C   0  0  0  0  0  0  0  0  0  0  0  0
    3.6500   24.0610   32.6260 C   0  0  0  0  0  0  0  0  0  0  0  0
    1.0400   15.7870   41.0410 C   0  0  0  0  0  0  0  0  0  0  0  0
    1.3070   26.8080   32.2700 C   0  0  0  0  0  0  0  0  0  0  0  0
    2.4080   16.7150   39.3030 C   0  0  0  0  0  0  0  0  0  0  0  0
    3.0230   19.4640   38.0840 C   0  0  0  0  0  0  0  0  0  0  0  0
    0.9200   17.0330   41.6030 C   0  0  0  0  0  0  0  0  0  0  0  0
    1.6800   18.1240   41.0870 C   0  0  0  0  0  0  0  0  0  0  0  0
    2.2230   26.1910   33.3220 C   0  0  0  0  0  0  0  0  0  0  0  0
    2.9780   25.3410   32.4370 O   0  0  0  0  0  0  0  0  0  0  0  0
    2.1480   21.2000   36.6440 O   0  0  0  0  0  0  0  0  0  0  0  0
    3.3560   18.7750   37.1340 O   0  0  0  0  0  0  0  0  0  0  0  0
    3.7657   19.6012   39.9566 H   0  0  0  0  0  0  0  0  0  0  0  0
    3.7313   24.3539   34.6794 H   0  0  0  0  0  0  0  0  0  0  0  0
    2.5536   23.2556   34.1938 H   0  0  0  0  0  0  0  0  0  0  0  0
    4.1742   22.8056   34.1938 H   0  0  0  0  0  0  0  0  0  0  0  0
    2.1860   21.2255   38.7794 H   0  0  0  0  0  0  0  0  0  0  0  0
    1.8412   14.6737   39.3622 H   0  0  0  0  0  0  0  0  0  0  0  0
    0.3413   25.9977   30.3629 H   0  0  0  0  0  0  0  0  0  0  0  0
    1.4859   24.9846   30.6721 H   0  0  0  0  0  0  0  0  0  0  0  0
    3.0582   27.0372   30.9506 H   0  0  0  0  0  0  0  0  0  0  0  0
    1.9560   28.0112   30.3777 H   0  0  0  0  0  0  0  0  0  0  0  0
    4.7173   24.1777   32.3866 H   0  0  0  0  0  0  0  0  0  0  0  0
    3.1809   23.3209   31.9611 H   0  0  0  0  0  0  0  0  0  0  0  0
    0.5695   14.9105   41.5105 H   0  0  0  0  0  0  0  0  0  0  0  0
    0.6116   27.2888   32.9737 H   0  0  0  0  0  0  0  0  0  0  0  0
    2.9156   16.5993   38.3340 H   0  0  0  0  0  0  0  0  0  0  0  0
    0.2377   17.1904   42.4514 H   0  0  0  0  0  0  0  0  0  0  0  0
    1.6589   19.0909   41.6112 H   0  0  0  0  0  0  0  0  0  0  0  0
    2.8535   26.9418   33.8208 H   0  0  0  0  0  0  0  0  0  0  0  0
    1.7278   25.6954   34.1700 H   0  0  0  0  0  0  0  0  0  0  0  0
    1.6775   22.0665   36.7328 H   0  0  0  0  0  0  0  0  0  0  0  0
  1  6  1  0
  3 12  1  0
  4  9  2  0
  5  7  1  0
  5 10  1  0
  6 14  1  0
  7 10  1  0
  8  2  1  0
  9 13  1  0
 10 15  1  0
 11  4  1  0
 11  6  2  0
 12  1  1  0
 14 13  2  0
 16  8  1  0
 16 15  1  0
 17  3  1  0
 18 12  2  0
  1 19  1  0
  2 20  1  0
  2 21  1  0
  2 22  1  0
  3 23  1  0
  4 24  1  0
  5 25  1  0
  5 26  1  0
  7 27  1  0
  7 28  1  0
  8 29  1  0
  8 30  1  0
  9 31  1  0
 10 32  1  0
 11 33  1  0
 13 34  1  0
 14 35  1  0
 15 36  1  0
 15 37  1  0
 17 38  1  0
M  CHG  1   2   1
M  END
>  <mol_id>  (59) 
2026-09-18-3war-s0-n100-0059

>  <rmsd_to_ref>  (59) 


$$$$

     RDKit          3D

 50 54  0  0  0  0  0  0  0  0999 V2000
    2.8938   24.7829   28.8993 C   0  0  0  0  0  0  0  0  0  0  0  0
    1.7040   19.6059   41.3833 C   0  0  0  0  0  0  0  0  0  0  0  0
    4.1900   18.8100   38.1833 C   0  0  0  0  0  0  0  0  0  0  0  0
    3.4855   20.6546   36.6707 C   0  0  0  0  0  0  0  0  0  0  0  0
    2.2415   20.7169   40.6683 C   0  0  0  0  0  0  0  0  0  0  0  0
    2.8962   24.5315   30.1022 C   0  0  1  0  0  0  0  0  0  0  0  0
    3.6773   21.5408   34.3678 C   0  0  1  0  0  0  0  0  0  0  0  0
    1.8625   24.3796   29.5721 C   0  0  1  0  0  0  0  0  0  0  0  0
    4.3385   22.6157   33.7417 C   0  0  0  0  0  0  0  0  0  0  0  0
    3.6440   16.8463   39.9293 N   0  0  0  0  0  0  0  0  0  0  0  0
    0.9051   25.8101   29.4980 C   0  0  0  0  0  0  0  0  0  0  0  0
    0.7226   25.3653   31.9763 C   0  0  0  0  0  0  0  0  0  0  0  0
    1.5570   24.2715   32.3783 C   0  0  0  0  0  0  0  0  0  0  0  0
    3.3722   24.0417   31.0707 C   0  0  0  0  0  0  0  0  0  0  0  0
    2.6053   23.4636   32.0804 C   0  0  1  0  0  0  0  0  0  0  0  0
    3.1918   18.1381   40.1355 C   0  0  0  0  0  0  0  0  0  0  0  0
    4.4483   19.7842   37.1831 N   0  0  0  0  0  0  0  0  0  0  0  0
    3.1544   20.4660   39.6899 C   0  0  0  0  0  0  0  0  0  0  0  0
    4.3753   16.5083   38.8190 C   0  0  0  0  0  0  0  0  0  0  0  0
    3.6631   20.8636   35.4214 N   0  0  0  0  0  0  0  0  0  0  0  0
    3.5160   19.1734   39.3041 C   0  0  0  0  0  0  0  0  0  0  0  0
    3.1814   22.7585   33.1682 C   0  0  1  0  0  0  0  0  0  0  0  0
    0.2974   19.9020   42.4308 Cl  0  0  0  0  0  0  0  0  0  0  0  0
    4.5957   17.5635   38.0053 N   0  0  0  0  0  0  0  0  0  0  0  0
    2.5588   21.1794   37.1830 O   0  0  0  0  0  0  0  0  0  0  0  0
    2.2943   18.3345   41.1780 C   0  0  0  0  0  0  0  0  0  0  0  0
    0.7635   26.2273   30.9043 C   0  0  0  0  0  0  0  0  0  0  0  0
    2.9614   25.8209   28.5412 H   0  0  0  0  0  0  0  0  0  0  0  0
    3.4507   24.4578   28.0081 H   0  0  0  0  0  0  0  0  0  0  0  0
    1.9280   21.7454   40.9003 H   0  0  0  0  0  0  0  0  0  0  0  0
    3.5199   24.9686   30.8959 H   0  0  0  0  0  0  0  0  0  0  0  0
    3.4729   20.5072   34.6839 H   0  0  0  0  0  0  0  0  0  0  0  0
    1.1359   23.5569   29.6433 H   0  0  0  0  0  0  0  0  0  0  0  0
    4.6500   23.4373   34.4034 H   0  0  0  0  0  0  0  0  0  0  0  0
    5.2949   22.5322   33.2048 H   0  0  0  0  0  0  0  0  0  0  0  0
    1.4129   26.5888   28.9098 H   0  0  0  0  0  0  0  0  0  0  0  0
   -0.0662   25.6407   29.0102 H   0  0  0  0  0  0  0  0  0  0  0  0
   -0.1177   25.5532   32.6609 H   0  0  0  0  0  0  0  0  0  0  0  0
    1.1831   23.9427   33.3591 H   0  0  0  0  0  0  0  0  0  0  0  0
    4.0466   23.2507   30.7109 H   0  0  0  0  0  0  0  0  0  0  0  0
    3.7864   24.9222   31.5835 H   0  0  0  0  0  0  0  0  0  0  0  0
    2.2713   22.5300   31.6042 H   0  0  0  0  0  0  0  0  0  0  0  0
    5.4068   19.8527   36.8124 H   0  0  0  0  0  0  0  0  0  0  0  0
    3.6278   21.3185   39.1812 H   0  0  0  0  0  0  0  0  0  0  0  0
    4.7413   15.4913   38.6144 H   0  0  0  0  0  0  0  0  0  0  0  0
    3.9752   19.9399   35.0894 H   0  0  0  0  0  0  0  0  0  0  0  0
    2.2383   23.1257   32.7373 H   0  0  0  0  0  0  0  0  0  0  0  0
    2.0410   17.4988   41.8471 H   0  0  0  0  0  0  0  0  0  0  0  0
    1.6118   26.9001   31.0991 H   0  0  0  0  0  0  0  0  0  0  0  0
   -0.2728   26.5960   30.9021 H   0  0  0  0  0  0  0  0  0  0  0  0
  2 23  1  0
  3 21  2  0
  4 25  2  0
  4 17  1  0
  5  2  1  0
  6  1  1  0
  6 14  1  0
  7 20  1  0
  8  1  1  0
  8  6  1  0
  9  7  1  0
 10 16  2  0
 11  8  1  0
 11 27  1  0
 12 13  2  0
 15 14  1  0
 15 13  1  0
 15 22  1  0
 16 26  1  0
 17  3  1  0
 18  5  2  0
 19 10  1  0
 20  4  1  0
 21 18  1  0
 21 16  1  0
 22  9  1  0
 22  7  1  0
 24  3  1  0
 24 19  2  0
 26  2  2  0
 27 12  1  0
  1 28  1  0
  1 29  1  0
  5 30  1  0
  6 31  1  1
  7 32  1  6
  8 33  1  6
  9 34  1  0
  9 35  1  0
 11 36  1  0
 11 37  1  0
 12 38  1  0
 13 39  1  0
 14 40  1  0
 14 41  1  0
 15 42  1  6
 17 43  1  0
 18 44  1  0
 19 45  1  0
 20 46  1  0
 22 47  1  1
 26 48  1  0
 27 49  1  0
 27 50  1  0
M  END
>  <mol_id>  (60) 
2026-09-18-3war-s0-n100-0060

>  <rmsd_to_ref>  (60) 


$$$$

     RDKit          3D

 33 33  0  0  0  0  0  0  0  0999 V2000
    3.4410   22.3750   33.7760 C   0  0  0  0  0  0  0  0  0  0  0  0
    1.1750   20.0560   40.6810 C   0  0  0  0  0  0  0  0  0  0  0  0
    1.7140   21.1330   38.5700 C   0  0  0  0  0  0  0  0  0  0  0  0
   -0.3630   20.9310   42.4350 C   0  0  0  0  0  0  0  0  0  0  0  0
    2.8580   21.0530   35.7710 N   0  0  0  0  0  0  0  0  0  0  0  0
    3.3600   20.8890   34.3580 C   0  0  0  0  0  0  0  0  0  0  0  0
    3.7260   22.8300   32.3300 C   0  0  2  0  0  0  0  0  0  0  0  0
    1.1210   21.1060   39.7940 C   0  0  0  0  0  0  0  0  0  0  0  0
    4.0280   23.8930   31.3640 C   0  0  0  0  0  0  0  0  0  0  0  0
    3.0510   19.9380   36.6510 C   0  0  0  0  0  0  0  0  0  0  0  0
    2.4630   20.0390   38.1480 C   0  0  0  0  0  0  0  0  0  0  0  0
    3.6810   18.9140   36.3840 O   0  0  0  0  0  0  0  0  0  0  0  0
    0.4250   19.9330   41.8650 O   0  0  0  0  0  0  0  0  0  0  0  0
    2.6190   18.9520   39.0500 C   0  0  0  0  0  0  0  0  0  0  0  0
    3.1650   21.8950   31.5110 O   0  0  0  0  0  0  0  0  0  0  0  0
    2.0140   18.9870   40.2780 C   0  0  0  0  0  0  0  0  0  0  0  0
    2.4631   22.8180   34.0159 H   0  0  0  0  0  0  0  0  0  0  0  0
    4.3999   22.6700   34.2271 H   0  0  0  0  0  0  0  0  0  0  0  0
    1.6023   22.0127   37.9191 H   0  0  0  0  0  0  0  0  0  0  0  0
   -0.3075   20.8607   43.5313 H   0  0  0  0  0  0  0  0  0  0  0  0
    0.0031   21.9166   42.1118 H   0  0  0  0  0  0  0  0  0  0  0  0
   -1.4067   20.8035   42.1118 H   0  0  0  0  0  0  0  0  0  0  0  0
    2.4008   21.9202   36.0868 H   0  0  0  0  0  0  0  0  0  0  0  0
    2.6606   20.2794   33.7670 H   0  0  0  0  0  0  0  0  0  0  0  0
    4.3323   20.3758   34.3207 H   0  0  0  0  0  0  0  0  0  0  0  0
    4.4836   23.3275   32.9534 H   0  0  0  0  0  0  0  0  0  0  0  0
    0.5519   21.9964   40.0993 H   0  0  0  0  0  0  0  0  0  0  0  0
    4.2900   24.8151   31.9035 H   0  0  0  0  0  0  0  0  0  0  0  0
    4.8741   23.5848   30.7323 H   0  0  0  0  0  0  0  0  0  0  0  0
    3.1462   24.0757   30.7323 H   0  0  0  0  0  0  0  0  0  0  0  0
    3.2264   18.0815   38.7614 H   0  0  0  0  0  0  0  0  0  0  0  0
    2.7408   21.1881   32.0591 H   0  0  0  0  0  0  0  0  0  0  0  0
    2.1854   18.1552   40.9771 H   0  0  0  0  0  0  0  0  0  0  0  0
  1  6  1  0
  2 13  1  0
  3  8  2  0
  5 10  1  0
  6  5  1  0
  7  9  1  0
  7  1  1  0
  8  2  1  0
 10 11  1  0
 11  3  1  0
 11 14  2  0
 12 10  2  0
 13  4  1  0
 14 16  1  0
 15  7  1  0
 16  2  2  0
  1 17  1  0
  1 18  1  0
  3 19  1  0
  4 20  1  0
  4 21  1  0
  4 22  1  0
  5 23  1  0
  6 24  1  0
  6 25  1  0
  7 26  1  1
  8 27  1  0
  9 28  1  0
  9 29  1  0
  9 30  1  0
 14 31  1  0
 15 32  1  0
 16 33  1  0
M  END
>  <mol_id>  (61) 
2026-09-18-3war-s0-n100-0061

>  <rmsd_to_ref>  (61) 


$$$$

     RDKit          3D

 59 61  0  0  0  0  0  0  0  0999 V2000
    2.0650   21.2130   38.2550 C   0  0  0  0  0  0  0  0  0  0  0  0
    2.0320   21.8980   31.7420 C   0  0  0  0  0  0  0  0  0  0  0  0
    2.0160   16.4730   41.7890 O   0  0  0  0  0  0  0  0  0  0  0  0
    3.4450   21.0400   36.2120 C   0  0  0  0  0  0  0  0  0  0  0  0
    1.6120   20.8540   39.4760 C   0  0  0  0  0  0  0  0  0  0  0  0
    2.2150   15.4250   38.2450 C   0  0  0  0  0  0  0  0  0  0  0  0
    2.5740   21.5350   35.3660 C   0  0  0  0  0  0  0  0  0  0  0  0
    2.6020   24.6580   31.5360 C   0  0  1  0  0  0  0  0  0  0  0  0
    3.4840   23.0630   32.0910 S   0  0  1  0  0  4  0  0  0  0  0  0
    2.8300   21.8260   34.3720 N   0  0  0  0  0  0  0  0  0  0  0  0
    3.1600   23.1130   33.8100 C   0  0  1  0  0  0  0  0  0  0  0  0
    2.4240   18.5510   38.9470 C   0  0  0  0  0  0  0  0  0  0  0  0
    1.8580   19.5620   39.8280 C   0  0  0  0  0  0  0  0  0  0  0  0
    2.7960   20.3420   37.3970 C   0  0  0  0  0  0  0  0  0  0  0  0
    1.9770   17.5790   40.9170 C   0  0  0  0  0  0  0  0  0  0  0  0
    2.3510   17.4150   39.6990 N   0  0  0  0  0  0  0  0  0  0  0  0
    0.9600   16.7140   42.7090 C   0  0  0  0  0  0  0  0  0  0  0  0
    4.4180   23.6760   29.6670 O   0  0  0  0  0  0  0  0  0  0  0  0
    3.2500   23.8300   29.5220 C   0  0  0  0  0  0  0  0  0  0  0  0
    1.8050   18.8590   41.1030 N   0  0  0  0  0  0  0  0  0  0  0  0
    0.9390   24.9780   29.7070 O   0  0  0  0  0  0  0  0  0  0  0  0
    2.4120   26.1630   31.3450 C   0  0  0  0  0  0  0  0  0  0  0  0
    1.8590   24.0410   30.3460 C   0  0  2  0  0  0  0  0  0  0  0  0
    2.8930   16.1980   39.2820 C   0  0  0  0  0  0  0  0  0  0  0  0
    4.5460   23.3670   34.3920 C   0  0  0  0  0  0  0  0  0  0  0  0
    2.9110   19.0260   37.7210 C   0  0  0  0  0  0  0  0  0  0  0  0
    0.9380   22.8940   31.1310 C   0  0  0  0  0  0  0  0  0  0  0  0
    1.8579   22.2347   37.9038 H   0  0  0  0  0  0  0  0  0  0  0  0
    2.3111   21.1190   31.0172 H   0  0  0  0  0  0  0  0  0  0  0  0
    1.6829   21.3496   32.6294 H   0  0  0  0  0  0  0  0  0  0  0  0
    4.0717   21.8613   36.5898 H   0  0  0  0  0  0  0  0  0  0  0  0
    4.0358   20.2862   35.6709 H   0  0  0  0  0  0  0  0  0  0  0  0
    1.0826   21.5550   40.1381 H   0  0  0  0  0  0  0  0  0  0  0  0
    1.5592   14.6773   38.7148 H   0  0  0  0  0  0  0  0  0  0  0  0
    1.6124   16.1000   37.6195 H   0  0  0  0  0  0  0  0  0  0  0  0
    2.9628   14.9155   37.6195 H   0  0  0  0  0  0  0  0  0  0  0  0
    1.7840   20.7761   35.2656 H   0  0  0  0  0  0  0  0  0  0  0  0
    2.3464   22.5070   35.8280 H   0  0  0  0  0  0  0  0  0  0  0  0
    2.8393   25.0728   32.5268 H   0  0  0  0  0  0  0  0  0  0  0  0
    4.7562   22.8376   31.6353 H   0  0  0  0  0  0  0  0  0  0  0  0
    3.6507   21.2444   34.1504 H   0  0  0  0  0  0  0  0  0  0  0  0
    1.8810   21.7599   33.9770 H   0  0  0  0  0  0  0  0  0  0  0  0
    2.3443   23.8237   34.0088 H   0  0  0  0  0  0  0  0  0  0  0  0
    1.3421   16.6268   43.7368 H   0  0  0  0  0  0  0  0  0  0  0  0
    0.5601   17.7265   42.5511 H   0  0  0  0  0  0  0  0  0  0  0  0
    0.1604   15.9752   42.5511 H   0  0  0  0  0  0  0  0  0  0  0  0
    3.0255   23.8306   28.4452 H   0  0  0  0  0  0  0  0  0  0  0  0
    0.4450   25.4812   30.4019 H   0  0  0  0  0  0  0  0  0  0  0  0
    2.3502   26.6525   32.3282 H   0  0  0  0  0  0  0  0  0  0  0  0
    3.2656   26.5722   30.7847 H   0  0  0  0  0  0  0  0  0  0  0  0
    1.4835   26.3472   30.7847 H   0  0  0  0  0  0  0  0  0  0  0  0
    2.9549   15.5541   40.1717 H   0  0  0  0  0  0  0  0  0  0  0  0
    3.8425   16.4877   38.8081 H   0  0  0  0  0  0  0  0  0  0  0  0
    4.4899   23.3567   35.4905 H   0  0  0  0  0  0  0  0  0  0  0  0
    5.2360   22.5803   34.0527 H   0  0  0  0  0  0  0  0  0  0  0  0
    4.9122   24.3472   34.0527 H   0  0  0  0  0  0  0  0  0  0  0  0
    3.3893   18.3297   37.0164 H   0  0  0  0  0  0  0  0  0  0  0  0
    0.3335   23.3520   31.9278 H   0  0  0  0  0  0  0  0  0  0  0  0
    0.2205   22.3900   30.4668 H   0  0  0  0  0  0  0  0  0  0  0  0
  1  5  1  0
  2  9  1  0
  3 17  1  0
  4 14  1  0
  5 13  2  0
  6 24  1  0
  7  4  1  0
  8 22  1  0
  8  9  1  0
  9 11  1  0
 10  7  1  0
 11 10  1  0
 11 25  1  0
 12 16  1  0
 12 13  1  0
 13 20  1  0
 14 26  1  0
 14  1  2  0
 15 20  2  0
 15  3  1  0
 16 15  1  0
 19 18  2  0
 19 23  1  0
 23 21  1  6
 23 27  1  0
 23  8  1  0
 24 16  1  0
 26 12  2  0
 27  2  1  0
  1 28  1  0
  2 29  1  0
  2 30  1  0
  4 31  1  0
  4 32  1  0
  5 33  1  0
  6 34  1  0
  6 35  1  0
  6 36  1  0
  7 37  1  0
  7 38  1  0
  8 39  1  1
  9 40  1  1
 10 41  1  0
 10 42  1  0
 11 43  1  6
 17 44  1  0
 17 45  1  0
 17 46  1  0
 19 47  1  0
 21 48  1  0
 22 49  1  0
 22 50  1  0
 22 51  1  0
 24 52  1  0
 24 53  1  0
 25 54  1  0
 25 55  1  0
 25 56  1  0
 26 57  1  0
 27 58  1  0
 27 59  1  0
M  CHG  1  10   1
M  END
>  <mol_id>  (62) 
2026-09-18-3war-s0-n100-0062

>  <rmsd_to_ref>  (62) 


$$$$

     RDKit          3D

 46 48  0  0  0  0  0  0  0  0999 V2000
    3.3120   23.3100   33.6760 C   0  0  0  0  0  0  0  0  0  0  0  0
    0.2130   19.5470   42.1210 C   0  0  0  0  0  0  0  0  0  0  0  0
    2.0200   21.4070   36.9860 C   0  0  0  0  0  0  0  0  0  0  0  0
    2.5710   15.9760   40.0430 C   0  0  0  0  0  0  0  0  0  0  0  0
   -0.6350   19.8420   43.0300 C   0  0  0  0  0  0  0  0  0  0  0  0
    2.7310   25.6030   30.0520 C   0  0  0  0  0  0  0  0  0  0  0  0
    1.7120   19.7480   40.5010 C   0  0  0  0  0  0  0  0  0  0  0  0
    1.6200   18.2830   40.6490 C   0  0  2  0  0  0  0  0  0  0  0  0
    1.1370   27.1810   31.2530 O   0  0  0  0  0  0  0  0  0  0  0  0
    3.1070   19.0890   37.7630 C   0  0  0  0  0  0  0  0  0  0  0  0
    3.1690   24.0920   32.3790 C   0  0  0  0  0  0  0  0  0  0  0  0
    0.7290   27.0030   32.5790 C   0  0  0  0  0  0  0  0  0  0  0  0
   -1.2800   20.2750   43.6140 O   0  0  0  0  0  0  0  0  0  0  0  0
    2.2840   20.6840   39.4270 C   0  0  0  0  0  0  0  0  0  0  0  0
    2.3540   17.4130   39.5940 C   0  0  1  0  0  0  0  0  0  0  0  0
    3.2880   18.4540   39.0350 O   0  0  0  0  0  0  0  0  0  0  0  0
    3.9210   23.8220   31.1930 C   0  0  0  0  0  0  0  0  0  0  0  0
    0.4860   17.8850   41.8010 S   0  0  0  0  0  0  0  0  0  0  0  0
    2.2620   25.1570   32.3380 C   0  0  0  0  0  0  0  0  0  0  0  0
    2.9470   21.5180   35.6980 C   0  0  0  0  0  0  0  0  0  0  0  0
    3.6750   24.6010   30.0730 C   0  0  0  0  0  0  0  0  0  0  0  0
    2.0310   25.9550   31.2230 C   0  0  0  0  0  0  0  0  0  0  0  0
    2.2630   20.3210   38.0090 C   0  0  1  0  0  0  0  0  0  0  0  0
    2.5720   22.5250   34.5210 C   0  0  0  0  0  0  0  0  0  0  0  0
    0.9230   20.3490   41.4480 N   0  0  0  0  0  0  0  0  0  0  0  0
    4.3390   23.4052   34.0582 H   0  0  0  0  0  0  0  0  0  0  0  0
    1.1985   22.1237   37.1328 H   0  0  0  0  0  0  0  0  0  0  0  0
    2.5776   15.9323   41.1421 H   0  0  0  0  0  0  0  0  0  0  0  0
    1.7581   15.3441   39.6558 H   0  0  0  0  0  0  0  0  0  0  0  0
    3.5342   15.6124   39.6558 H   0  0  0  0  0  0  0  0  0  0  0  0
    2.5212   26.1340   29.1117 H   0  0  0  0  0  0  0  0  0  0  0  0
    2.2426   17.4578   41.0250 H   0  0  0  0  0  0  0  0  0  0  0  0
    2.5915   18.4085   37.0693 H   0  0  0  0  0  0  0  0  0  0  0  0
    4.0744   19.3553   37.3121 H   0  0  0  0  0  0  0  0  0  0  0  0
    1.5232   27.3495   33.2566 H   0  0  0  0  0  0  0  0  0  0  0  0
   -0.1877   27.5830   32.7616 H   0  0  0  0  0  0  0  0  0  0  0  0
    0.5306   25.9366   32.7616 H   0  0  0  0  0  0  0  0  0  0  0  0
    1.7310   21.6310   39.5136 H   0  0  0  0  0  0  0  0  0  0  0  0
    3.3596   20.6801   39.6572 H   0  0  0  0  0  0  0  0  0  0  0  0
    1.9213   16.9547   38.6925 H   0  0  0  0  0  0  0  0  0  0  0  0
    4.6729   23.0194   31.1701 H   0  0  0  0  0  0  0  0  0  0  0  0
    1.6917   25.3784   33.2522 H   0  0  0  0  0  0  0  0  0  0  0  0
    3.8513   20.8967   35.6193 H   0  0  0  0  0  0  0  0  0  0  0  0
    4.2597   24.4102   29.1610 H   0  0  0  0  0  0  0  0  0  0  0  0
    1.2737   19.9544   37.6978 H   0  0  0  0  0  0  0  0  0  0  0  0
    1.4884   22.6075   34.3507 H   0  0  0  0  0  0  0  0  0  0  0  0
  1 24  2  3
  2  5  2  0
  5 13  2  0
  6 21  2  0
  6 22  1  0
  7 25  2  0
  8  7  1  0
  8 18  1  0
  9 12  1  0
 10 23  1  0
 10 16  1  0
 11  1  1  0
 14  7  1  0
 15  4  1  0
 15  8  1  0
 16 15  1  0
 17 11  2  0
 18  2  1  0
 19 11  1  0
 20  3  2  3
 21 17  1  0
 22  9  1  0
 22 19  2  0
 23  3  1  0
 23 14  1  0
 24 20  1  0
 25  2  1  0
  1 26  1  0
  3 27  1  0
  4 28  1  0
  4 29  1  0
  4 30  1  0
  6 31  1  0
  8 32  1  1
 10 33  1  0
 10 34  1  0
 12 35  1  0
 12 36  1  0
 12 37  1  0
 14 38  1  0
 14 39  1  0
 15 40  1  6
 17 41  1  0
 19 42  1  0
 20 43  1  0
 21 44  1  0
 23 45  1  1
 24 46  1  0
M  END
>  <mol_id>  (63) 
2026-09-18-3war-s0-n100-0063

>  <rmsd_to_ref>  (63) 


$$$$

     RDKit          3D

 68 72  0  0  0  0  0  0  0  0999 V2000
    2.8606   21.2683   35.6872 C   0  0  2  0  0  0  0  0  0  0  0  0
    1.8251   20.2904   39.2599 C   0  0  0  0  0  0  0  0  0  0  0  0
    4.2734   21.4711   34.8242 C   0  0  2  0  0  0  0  0  0  0  0  0
    4.4822   23.6324   31.8441 C   0  0  0  0  0  0  0  0  0  0  0  0
    5.1151   21.1502   35.7671 O   0  0  0  0  0  0  0  0  0  0  0  0
    4.2148   24.7908   30.3760 O   0  0  0  0  0  0  0  0  0  0  0  0
    0.0646   20.4988   41.5745 C   0  0  0  0  0  0  0  0  0  0  0  0
    2.6345   20.1288   38.0278 C   0  0  0  0  0  0  0  0  0  0  0  0
    3.0427   23.3646   31.8832 C   0  0  0  0  0  0  0  0  0  0  0  0
    3.1781   17.9369   38.8380 C   0  0  0  0  0  0  0  0  0  0  0  0
   -1.0915   19.3985   43.5325 C   0  0  0  0  0  0  0  0  0  0  0  0
    1.5999   25.3821   29.2860 C   0  0  0  0  0  0  0  0  0  0  0  0
    3.6951   16.5758   38.5002 O   0  0  0  0  0  0  0  0  0  0  0  0
    1.7798   19.3067   40.3160 C   0  0  0  0  0  0  0  0  0  0  0  0
    3.9684   23.9243   29.5689 C   0  0  1  0  0  0  0  0  0  0  0  0
    3.0805   22.2083   34.3060 C   0  0  0  0  0  0  0  0  0  0  0  0
    0.8186   18.3054   42.3155 N   0  0  0  0  0  0  0  0  0  0  0  0
    3.6432   15.3605   39.1138 C   0  0  0  0  0  0  0  0  0  0  0  0
    3.3406   18.8054   37.7181 C   0  0  0  0  0  0  0  0  0  0  0  0
    5.2840   24.7242   32.3836 S   0  0  0  0  0  0  0  0  0  0  0  0
    2.6515   18.1831   40.0156 C   0  0  0  0  0  0  0  0  0  0  0  0
    2.3658   24.0648   29.2049 C   0  0  2  0  0  0  0  0  0  0  0  0
   -0.0796   18.1989   43.3533 C   0  0  0  0  0  0  0  0  0  0  0  0
    1.8836   24.6256   28.0363 C   0  0  2  0  0  0  0  0  0  0  0  0
    3.8997   23.7965   26.0800 C   0  0  0  0  0  0  0  0  0  0  0  0
    3.6588   24.6278   27.4622 C   0  0  2  0  0  0  0  0  0  0  0  0
    2.6581   21.3351   37.2134 C   0  0  0  0  0  0  0  0  0  0  0  0
    0.9420   19.3800   41.3816 C   0  0  0  0  0  0  0  0  0  0  0  0
    4.0302   22.1317   32.2481 C   0  0  0  0  0  0  0  0  0  0  0  0
    5.3474   23.3763   26.2502 O   0  0  0  0  0  0  0  0  0  0  0  0
   -0.8779   20.5150   42.7132 C   0  0  0  0  0  0  0  0  0  0  0  0
    5.7770   23.2494   27.7539 C   0  0  0  0  0  0  0  0  0  0  0  0
    4.8279   24.3282   28.3902 C   0  0  2  0  0  0  0  0  0  0  0  0
    2.0621   20.5861   36.0144 H   0  0  0  0  0  0  0  0  0  0  0  0
    1.2282   21.2071   39.3751 H   0  0  0  0  0  0  0  0  0  0  0  0
    5.0898   21.3686   34.0941 H   0  0  0  0  0  0  0  0  0  0  0  0
    5.2448   24.0191   31.1521 H   0  0  0  0  0  0  0  0  0  0  0  0
    4.6948   21.3024   36.6504 H   0  0  0  0  0  0  0  0  0  0  0  0
    4.0420   24.4499   31.2893 H   0  0  0  0  0  0  0  0  0  0  0  0
    0.0934   21.3462   40.8737 H   0  0  0  0  0  0  0  0  0  0  0  0
    2.4288   23.8192   32.6747 H   0  0  0  0  0  0  0  0  0  0  0  0
    2.2259   23.4946   31.1579 H   0  0  0  0  0  0  0  0  0  0  0  0
   -1.9165   19.3597   44.2588 H   0  0  0  0  0  0  0  0  0  0  0  0
    0.5835   25.4191   29.7049 H   0  0  0  0  0  0  0  0  0  0  0  0
    1.7753   26.3963   29.6740 H   0  0  0  0  0  0  0  0  0  0  0  0
    4.1620   22.8903   29.8903 H   0  0  0  0  0  0  0  0  0  0  0  0
    3.0447   23.3048   34.3857 H   0  0  0  0  0  0  0  0  0  0  0  0
    2.5792   22.2510   33.3279 H   0  0  0  0  0  0  0  0  0  0  0  0
    3.5835   15.5020   40.2030 H   0  0  0  0  0  0  0  0  0  0  0  0
    2.7554   14.8119   38.7661 H   0  0  0  0  0  0  0  0  0  0  0  0
    4.5487   14.7866   38.8676 H   0  0  0  0  0  0  0  0  0  0  0  0
    3.8808   18.5656   36.7904 H   0  0  0  0  0  0  0  0  0  0  0  0
    5.1922   24.7259   33.7506 H   0  0  0  0  0  0  0  0  0  0  0  0
    2.8876   17.4880   40.8349 H   0  0  0  0  0  0  0  0  0  0  0  0
    2.2650   23.0783   29.6810 H   0  0  0  0  0  0  0  0  0  0  0  0
   -0.0920   17.3254   44.0218 H   0  0  0  0  0  0  0  0  0  0  0  0
    1.1945   24.5609   27.1812 H   0  0  0  0  0  0  0  0  0  0  0  0
    3.7649   24.4352   25.1947 H   0  0  0  0  0  0  0  0  0  0  0  0
    3.1991   22.9634   25.9215 H   0  0  0  0  0  0  0  0  0  0  0  0
    3.7142   25.7211   27.3546 H   0  0  0  0  0  0  0  0  0  0  0  0
    3.4720   21.9609   37.6081 H   0  0  0  0  0  0  0  0  0  0  0  0
    1.6245   21.7014   37.3006 H   0  0  0  0  0  0  0  0  0  0  0  0
    4.1686   21.2916   31.5517 H   0  0  0  0  0  0  0  0  0  0  0  0
    4.1842   21.4341   33.0846 H   0  0  0  0  0  0  0  0  0  0  0  0
   -1.4337   21.4403   42.9257 H   0  0  0  0  0  0  0  0  0  0  0  0
    5.5797   22.2435   28.1530 H   0  0  0  0  0  0  0  0  0  0  0  0
    6.8496   23.3985   27.9473 H   0  0  0  0  0  0  0  0  0  0  0  0
    5.5742   25.0998   28.6306 H   0  0  0  0  0  0  0  0  0  0  0  0
  1 27  1  0
  2 14  2  0
  3  5  1  0
  3  1  1  0
  4  9  1  0
  4 29  1  0
  4 20  1  0
  7 31  1  0
  8  2  1  0
  9 29  1  0
 10 21  2  0
 13 10  1  0
 13 18  1  0
 14 28  1  0
 15  6  1  0
 16  3  1  0
 16  1  1  0
 17 23  2  0
 19  8  2  0
 19 10  1  0
 21 14  1  0
 22 12  1  0
 22 15  1  0
 23 11  1  0
 24 22  1  0
 24 12  1  0
 25 30  1  0
 26 25  1  0
 26 24  1  0
 26 33  1  0
 27  8  1  0
 28  7  2  0
 28 17  1  0
 30 32  1  0
 31 11  2  0
 33 32  1  0
 33 15  1  0
  1 34  1  6
  2 35  1  0
  3 36  1  6
  4 37  1  0
  5 38  1  0
  6 39  1  0
  7 40  1  0
  9 41  1  0
  9 42  1  0
 11 43  1  0
 12 44  1  0
 12 45  1  0
 15 46  1  1
 16 47  1  0
 16 48  1  0
 18 49  1  0
 18 50  1  0
 18 51  1  0
 19 52  1  0
 20 53  1  0
 21 54  1  0
 22 55  1  1
 23 56  1  0
 24 57  1  6
 25 58  1  0
 25 59  1  0
 26 60  1  6
 27 61  1  0
 27 62  1  0
 29 63  1  0
 29 64  1  0
 31 65  1  0
 32 66  1  0
 32 67  1  0
 33 68  1  1
M  END
>  <mol_id>  (64) 
2026-09-18-3war-s0-n100-0064

>  <rmsd_to_ref>  (64) 


$$$$

     RDKit          3D

 49 48  0  0  0  0  0  0  0  0999 V2000
    0.7930   26.3050   33.0920 C   0  0  0  0  0  0  0  0  0  0  0  0
    3.2220   19.7900   39.6480 C   0  0  0  0  0  0  0  0  0  0  0  0
    3.9220   23.0200   32.4180 O   0  0  0  0  0  0  0  0  0  0  0  0
    3.1080   22.6630   33.8040 C   0  0  0  0  0  0  0  0  0  0  0  0
    1.4850   15.2830   40.7500 C   0  0  0  0  0  0  0  0  0  0  0  0
    2.6360   21.1730   36.3030 C   0  0  0  0  0  0  0  0  0  0  0  0
    2.7520   23.4900   32.3370 C   0  0  0  0  0  0  0  0  0  0  0  0
    3.5030   21.5650   34.8820 C   0  0  0  0  0  0  0  0  0  0  0  0
    2.6020   17.1510   39.5940 C   0  0  1  0  0  0  0  0  0  0  0  0
    3.7170   25.4240   33.1640 O   0  0  0  0  0  0  0  0  0  0  0  0
    2.3420   15.7420   39.6850 C   0  0  0  0  0  0  0  0  0  0  0  0
    1.7240   26.7800   32.1030 C   0  0  0  0  0  0  0  0  0  0  0  0
    2.9650   18.5220   38.9400 C   0  0  0  0  0  0  0  0  0  0  0  0
    3.0200   18.6220   37.5890 C   0  0  0  0  0  0  0  0  0  0  0  0
    2.2210   14.2310   41.6920 C   0  0  0  0  0  0  0  0  0  0  0  0
    3.1170   19.9660   37.0700 C   0  0  0  0  0  0  0  0  0  0  0  0
    1.9280   17.6390   40.9690 O   0  0  0  0  0  0  0  0  0  0  0  0
    3.3570   24.9360   31.9580 C   0  0  2  0  0  0  0  0  0  0  0  0
    2.2470   25.7340   31.2520 C   0  0  0  0  0  0  0  0  0  0  0  0
    1.1907   26.5079   34.0973 H   0  0  0  0  0  0  0  0  0  0  0  0
   -0.1699   26.8220   32.9674 H   0  0  0  0  0  0  0  0  0  0  0  0
    0.6465   25.2220   32.9674 H   0  0  0  0  0  0  0  0  0  0  0  0
    3.1870   19.6173   40.7338 H   0  0  0  0  0  0  0  0  0  0  0  0
    4.2156   20.1708   39.3691 H   0  0  0  0  0  0  0  0  0  0  0  0
    2.4551   20.5276   39.3691 H   0  0  0  0  0  0  0  0  0  0  0  0
    3.0688   23.6096   34.3630 H   0  0  0  0  0  0  0  0  0  0  0  0
    2.2204   22.1784   33.3711 H   0  0  0  0  0  0  0  0  0  0  0  0
    0.5961   14.8065   40.3110 H   0  0  0  0  0  0  0  0  0  0  0  0
    1.2063   16.1530   41.3627 H   0  0  0  0  0  0  0  0  0  0  0  0
    1.7745   21.7684   36.6395 H   0  0  0  0  0  0  0  0  0  0  0  0
    2.1404   23.0372   31.5427 H   0  0  0  0  0  0  0  0  0  0  0  0
    2.0505   23.3836   33.1776 H   0  0  0  0  0  0  0  0  0  0  0  0
    4.4279   20.9995   34.6955 H   0  0  0  0  0  0  0  0  0  0  0  0
    3.2225   16.8137   38.7507 H   0  0  0  0  0  0  0  0  0  0  0  0
    3.3100   24.8722   33.8781 H   0  0  0  0  0  0  0  0  0  0  0  0
    1.8805   15.4318   38.7359 H   0  0  0  0  0  0  0  0  0  0  0  0
    3.3219   15.2936   39.9058 H   0  0  0  0  0  0  0  0  0  0  0  0
    1.2121   27.5200   31.4702 H   0  0  0  0  0  0  0  0  0  0  0  0
    2.5779   27.2129   32.6447 H   0  0  0  0  0  0  0  0  0  0  0  0
    2.9926   17.7395   36.9330 H   0  0  0  0  0  0  0  0  0  0  0  0
    2.0388   14.4915   42.7451 H   0  0  0  0  0  0  0  0  0  0  0  0
    1.8304   13.2226   41.4908 H   0  0  0  0  0  0  0  0  0  0  0  0
    3.3022   14.2523   41.4908 H   0  0  0  0  0  0  0  0  0  0  0  0
    4.0756   19.8421   36.5448 H   0  0  0  0  0  0  0  0  0  0  0  0
    2.4729   20.2891   37.9011 H   0  0  0  0  0  0  0  0  0  0  0  0
    2.4364   17.2709   41.7346 H   0  0  0  0  0  0  0  0  0  0  0  0
    4.2130   24.9530   31.2674 H   0  0  0  0  0  0  0  0  0  0  0  0
    2.6589   26.1884   30.3388 H   0  0  0  0  0  0  0  0  0  0  0  0
    1.4260   25.0433   31.0093 H   0  0  0  0  0  0  0  0  0  0  0  0
  3  4  1  0
  4  8  1  0
  5 15  1  0
  6 16  1  0
  7  3  1  0
  8  6  2  3
  9 11  1  0
  9 17  1  0
 11  5  1  0
 12  1  1  0
 13  9  1  0
 13  2  1  0
 14 13  2  3
 16 14  1  0
 18  7  1  0
 18 10  1  0
 19 18  1  0
 19 12  1  0
  1 20  1  0
  1 21  1  0
  1 22  1  0
  2 23  1  0
  2 24  1  0
  2 25  1  0
  4 26  1  0
  4 27  1  0
  5 28  1  0
  5 29  1  0
  6 30  1  0
  7 31  1  0
  7 32  1  0
  8 33  1  0
  9 34  1  1
 10 35  1  0
 11 36  1  0
 11 37  1  0
 12 38  1  0
 12 39  1  0
 14 40  1  0
 15 41  1  0
 15 42  1  0
 15 43  1  0
 16 44  1  0
 16 45  1  0
 17 46  1  0
 18 47  1  6
 19 48  1  0
 19 49  1  0
M  END
>  <mol_id>  (65) 
2026-09-18-3war-s0-n100-0065

>  <rmsd_to_ref>  (65) 


$$$$

     RDKit          3D

 75 78  0  0  0  0  0  0  0  0999 V2000
    2.4380   18.2080   39.8160 C   0  0  2  0  0  0  0  0  0  0  0  0
    2.9330   19.5050   39.3340 C   0  0  0  0  0  0  0  0  0  0  0  0
    2.1880   20.7770   39.5300 C   0  0  0  0  0  0  0  0  0  0  0  0
    4.5880   24.4360   30.1100 O   0  0  0  0  0  0  0  0  0  0  0  0
    0.1180   16.6440   43.0540 C   0  0  0  0  0  0  0  0  0  0  0  0
    0.9870   18.5230   41.9430 C   0  0  0  0  0  0  0  0  0  0  0  0
    0.6410   27.3600   31.4780 N   0  0  0  0  0  0  0  0  0  0  0  0
    2.9200   17.3050   38.9230 N   0  0  0  0  0  0  0  0  0  0  0  0
    2.8310   16.0330   39.0680 C   0  0  0  0  0  0  0  0  0  0  0  0
    2.8840   19.3800   37.7150 C   0  0  0  0  0  0  0  0  0  0  0  0
    0.8230   15.8510   42.4370 C   0  0  0  0  0  0  0  0  0  0  0  0
    4.0750   24.0460   31.2790 C   0  0  0  0  0  0  0  0  0  0  0  0
    4.4530   14.9890   37.2120 C   0  0  0  0  0  0  0  0  0  0  0  0
    0.2400   17.9690   42.9880 C   0  0  0  0  0  0  0  0  0  0  0  0
    0.9410   23.4430   34.5590 C   0  0  0  0  0  0  0  0  0  0  0  0
    2.0780   24.2250   32.6520 C   0  0  2  0  0  0  0  0  0  0  0  0
    2.1550   15.5600   40.1520 N   0  0  0  0  0  0  0  0  0  0  0  0
    1.2260   26.1540   31.6900 C   0  0  2  0  0  0  0  0  0  0  0  0
    1.7080   17.6580   41.0560 C   0  0  0  0  0  0  0  0  0  0  0  0
    3.1860   15.2530   37.7610 C   0  0  0  0  0  0  0  0  0  0  0  0
   -0.9040   15.6480   43.9940 N   0  0  0  0  0  0  0  0  0  0  0  0
    4.6820   23.1130   32.2090 C   0  0  0  0  0  0  0  0  0  0  0  0
    1.6180   16.2190   41.3940 C   0  0  0  0  0  0  0  0  0  0  0  0
    2.8430   24.6390   31.6040 C   0  0  0  0  0  0  0  0  0  0  0  0
    1.8510   23.1210   33.4820 C   0  0  1  0  0  0  0  0  0  0  0  0
    3.7900   14.0710   38.0120 C   0  0  0  0  0  0  0  0  0  0  0  0
    2.3190   25.7230   30.8250 C   0  0  0  0  0  0  0  0  0  0  0  0
    0.8820   25.2210   32.8160 C   0  0  0  0  0  0  0  0  0  0  0  0
    1.9730   15.1340   36.8540 N   0  0  0  0  0  0  0  0  0  0  0  0
    4.2520   22.5030   33.3320 C   0  0  0  0  0  0  0  0  0  0  0  0
    2.9970   22.3280   33.8450 C   0  0  0  0  0  0  0  0  0  0  0  0
    4.3440   19.3990   39.7200 C   0  0  0  0  0  0  0  0  0  0  0  0
    3.4064   18.0191   40.3023 H   0  0  0  0  0  0  0  0  0  0  0  0
    2.0734   20.9727   40.6064 H   0  0  0  0  0  0  0  0  0  0  0  0
    2.7448   21.6035   39.0643 H   0  0  0  0  0  0  0  0  0  0  0  0
    1.1948   20.6957   39.0643 H   0  0  0  0  0  0  0  0  0  0  0  0
    5.4540   24.0681   29.8021 H   0  0  0  0  0  0  0  0  0  0  0  0
    1.0208   19.6135   41.8031 H   0  0  0  0  0  0  0  0  0  0  0  0
    0.4268   27.8016   32.3835 H   0  0  0  0  0  0  0  0  0  0  0  0
    1.2828   27.9639   30.9448 H   0  0  0  0  0  0  0  0  0  0  0  0
   -0.2306   27.2298   30.9448 H   0  0  0  0  0  0  0  0  0  0  0  0
    2.4957   18.3895   37.4353 H   0  0  0  0  0  0  0  0  0  0  0  0
    2.2253   20.1607   37.3067 H   0  0  0  0  0  0  0  0  0  0  0  0
    3.8977   19.5051   37.3067 H   0  0  0  0  0  0  0  0  0  0  0  0
    0.8123   14.7938   42.7405 H   0  0  0  0  0  0  0  0  0  0  0  0
    4.5643   14.8076   36.1328 H   0  0  0  0  0  0  0  0  0  0  0  0
    5.4368   15.4810   37.2225 H   0  0  0  0  0  0  0  0  0  0  0  0
   -0.2371   18.6145   43.7402 H   0  0  0  0  0  0  0  0  0  0  0  0
    1.4384   23.2670   35.5242 H   0  0  0  0  0  0  0  0  0  0  0  0
    0.6459   24.5001   34.4860 H   0  0  0  0  0  0  0  0  0  0  0  0
    0.0467   22.8067   34.4860 H   0  0  0  0  0  0  0  0  0  0  0  0
    3.0773   23.8094   32.8485 H   0  0  0  0  0  0  0  0  0  0  0  0
    1.9750   14.5466   40.1139 H   0  0  0  0  0  0  0  0  0  0  0  0
    1.9881   26.6346   32.3211 H   0  0  0  0  0  0  0  0  0  0  0  0
   -1.6063   16.0725   44.6164 H   0  0  0  0  0  0  0  0  0  0  0  0
   -0.8177   14.6231   43.9382 H   0  0  0  0  0  0  0  0  0  0  0  0
    4.9728   22.2711   31.5636 H   0  0  0  0  0  0  0  0  0  0  0  0
    5.2996   23.8631   32.7248 H   0  0  0  0  0  0  0  0  0  0  0  0
    1.3309   22.3921   32.8432 H   0  0  0  0  0  0  0  0  0  0  0  0
    3.3893   13.1487   37.5661 H   0  0  0  0  0  0  0  0  0  0  0  0
    4.0515   13.5226   38.9290 H   0  0  0  0  0  0  0  0  0  0  0  0
    3.0639   26.5195   30.6814 H   0  0  0  0  0  0  0  0  0  0  0  0
    2.0201   25.4545   29.8010 H   0  0  0  0  0  0  0  0  0  0  0  0
   -0.0913   24.7305   32.6673 H   0  0  0  0  0  0  0  0  0  0  0  0
    0.7733   25.6835   33.8081 H   0  0  0  0  0  0  0  0  0  0  0  0
    1.1219   15.0505   37.4281 H   0  0  0  0  0  0  0  0  0  0  0  0
    1.9053   15.9724   36.2595 H   0  0  0  0  0  0  0  0  0  0  0  0
    2.0695   14.2984   36.2595 H   0  0  0  0  0  0  0  0  0  0  0  0
    4.6398   21.4781   33.2367 H   0  0  0  0  0  0  0  0  0  0  0  0
    4.5703   23.2872   34.0347 H   0  0  0  0  0  0  0  0  0  0  0  0
    3.1036   22.4428   34.9338 H   0  0  0  0  0  0  0  0  0  0  0  0
    2.7262   21.3605   33.3971 H   0  0  0  0  0  0  0  0  0  0  0  0
    4.4246   19.3929   40.8170 H   0  0  0  0  0  0  0  0  0  0  0  0
    4.7656   18.4667   39.3162 H   0  0  0  0  0  0  0  0  0  0  0  0
    4.9001   20.2579   39.3162 H   0  0  0  0  0  0  0  0  0  0  0  0
  1  2  1  0
  1 19  1  0
  2  3  1  0
  2 32  1  0
  4 12  1  0
  5 21  1  0
  6 14  2  0
  8  9  2  0
  8  1  1  0
  9 17  1  0
 10  2  1  0
 11  5  2  0
 12 24  2  0
 12 22  1  0
 13 20  1  0
 13 26  1  0
 14  5  1  0
 16 28  1  0
 16 25  1  0
 17 23  1  0
 18  7  1  0
 18 28  1  0
 19 23  2  0
 19  6  1  0
 20 26  1  0
 20  9  1  0
 22 30  1  0
 23 11  1  0
 24 16  1  0
 25 31  1  0
 25 15  1  0
 27 24  1  0
 27 18  1  0
 29 20  1  0
 30 31  1  0
  1 33  1  6
  3 34  1  0
  3 35  1  0
  3 36  1  0
  4 37  1  0
  6 38  1  0
  7 39  1  0
  7 40  1  0
  7 41  1  0
 10 42  1  0
 10 43  1  0
 10 44  1  0
 11 45  1  0
 13 46  1  0
 13 47  1  0
 14 48  1  0
 15 49  1  0
 15 50  1  0
 15 51  1  0
 16 52  1  1
 17 53  1  0
 18 54  1  6
 21 55  1  0
 21 56  1  0
 22 57  1  0
 22 58  1  0
 25 59  1  6
 26 60  1  0
 26 61  1  0
 27 62  1  0
 27 63  1  0
 28 64  1  0
 28 65  1  0
 29 66  1  0
 29 67  1  0
 29 68  1  0
 30 69  1  0
 30 70  1  0
 31 71  1  0
 31 72  1  0
 32 73  1  0
 32 74  1  0
 32 75  1  0
M  CHG  2   7   1  29   1
M  END
>  <mol_id>  (66) 
2026-09-18-3war-s0-n100-0066

>  <rmsd_to_ref>  (66) 


$$$$

     RDKit          3D

 58 59  0  0  0  0  0  0  0  0999 V2000
    2.3331   20.3701   40.5501 C   0  0  0  0  0  0  0  0  0  0  0  0
    4.3894   24.2772   29.0929 C   0  0  0  0  0  0  0  0  0  0  0  0
    0.2733   18.6859   43.8253 O   0  0  0  0  0  0  0  0  0  0  0  0
    1.9168   18.4429   41.9433 C   0  0  0  0  0  0  0  0  0  0  0  0
    3.9867   20.4757   36.9115 N   0  0  0  0  0  0  0  0  0  0  0  0
    1.4926   21.2220   41.2953 C   0  0  0  0  0  0  0  0  0  0  0  0
    4.1663   20.2415   39.2265 C   0  0  0  0  0  0  0  0  0  0  0  0
    5.0368   18.6281   37.6571 O   0  0  0  0  0  0  0  0  0  0  0  0
    2.7072   25.5325   29.4139 C   0  0  0  0  0  0  0  0  0  0  0  0
    3.3291   21.5038   35.9980 C   0  0  0  0  0  0  0  0  0  0  0  0
    3.6729   24.7935   31.3612 C   0  0  0  0  0  0  0  0  0  0  0  0
    4.7186   21.9055   33.8358 N   0  0  0  0  0  0  0  0  0  0  0  0
    2.7630   20.9252   39.2573 N   0  0  0  0  0  0  0  0  0  0  0  0
    0.9075   20.6324   42.3037 C   0  0  0  0  0  0  0  0  0  0  0  0
    3.7950   24.4287   27.8700 C   0  0  0  0  0  0  0  0  0  0  0  0
    4.4075   23.1870   32.8855 C   0  0  0  0  0  0  0  0  0  0  0  0
    2.6502   19.0485   40.9095 C   0  0  0  0  0  0  0  0  0  0  0  0
    5.2039   23.4321   29.0315 C   0  0  0  0  0  0  0  0  0  0  0  0
    4.8675   24.2120   33.2099 C   0  0  0  0  0  0  0  0  0  0  0  0
    3.7299   17.5671   40.6216 C   0  0  0  0  0  0  0  0  0  0  0  0
    2.6306   24.9893   28.1196 C   0  0  0  0  0  0  0  0  0  0  0  0
    3.6686   24.9235   30.0944 C   0  0  1  0  0  0  0  0  0  0  0  0
    1.0161   19.2588   42.6359 C   0  0  0  0  0  0  0  0  0  0  0  0
    4.3534   23.1373   31.5786 C   0  0  0  0  0  0  0  0  0  0  0  0
    3.9331   22.1091   35.0128 C   0  0  0  0  0  0  0  0  0  0  0  0
    4.4141   19.6980   37.8568 C   0  0  0  0  0  0  0  0  0  0  0  0
   -0.3679   19.2494   44.3267 H   0  0  0  0  0  0  0  0  0  0  0  0
    2.0446   17.3799   42.1957 H   0  0  0  0  0  0  0  0  0  0  0  0
    4.5652   20.0510   36.1727 H   0  0  0  0  0  0  0  0  0  0  0  0
    1.3434   22.2840   41.0505 H   0  0  0  0  0  0  0  0  0  0  0  0
    4.9419   20.9806   39.4757 H   0  0  0  0  0  0  0  0  0  0  0  0
    4.1968   19.4236   39.9615 H   0  0  0  0  0  0  0  0  0  0  0  0
    1.7460   25.3884   29.9292 H   0  0  0  0  0  0  0  0  0  0  0  0
    2.9308   26.6074   29.3470 H   0  0  0  0  0  0  0  0  0  0  0  0
    2.4677   20.9903   35.5462 H   0  0  0  0  0  0  0  0  0  0  0  0
    3.1917   22.3408   36.6984 H   0  0  0  0  0  0  0  0  0  0  0  0
    2.6546   24.8624   31.7717 H   0  0  0  0  0  0  0  0  0  0  0  0
    4.2454   25.5756   31.8812 H   0  0  0  0  0  0  0  0  0  0  0  0
    5.7201   21.8667   34.0727 H   0  0  0  0  0  0  0  0  0  0  0  0
    4.4880   21.0166   33.3693 H   0  0  0  0  0  0  0  0  0  0  0  0
    2.2934   21.5562   38.5923 H   0  0  0  0  0  0  0  0  0  0  0  0
    0.2750   21.2568   42.9518 H   0  0  0  0  0  0  0  0  0  0  0  0
    3.6565   23.4513   27.3846 H   0  0  0  0  0  0  0  0  0  0  0  0
    4.4067   25.0375   27.1880 H   0  0  0  0  0  0  0  0  0  0  0  0
    5.6014   23.1213   28.0540 H   0  0  0  0  0  0  0  0  0  0  0  0
    5.5687   22.9519   29.9514 H   0  0  0  0  0  0  0  0  0  0  0  0
    4.6886   25.1118   32.6031 H   0  0  0  0  0  0  0  0  0  0  0  0
    5.4792   24.2763   34.1220 H   0  0  0  0  0  0  0  0  0  0  0  0
    4.0652   17.1642   41.5887 H   0  0  0  0  0  0  0  0  0  0  0  0
    3.1595   16.7970   40.0816 H   0  0  0  0  0  0  0  0  0  0  0  0
    4.6050   17.8618   40.0239 H   0  0  0  0  0  0  0  0  0  0  0  0
    2.4290   25.7847   27.3870 H   0  0  0  0  0  0  0  0  0  0  0  0
    1.8164   24.2529   28.0496 H   0  0  0  0  0  0  0  0  0  0  0  0
    4.3477   25.2784   30.8836 H   0  0  0  0  0  0  0  0  0  0  0  0
    3.6807   22.3488   31.2100 H   0  0  0  0  0  0  0  0  0  0  0  0
    5.2857   22.9017   31.0445 H   0  0  0  0  0  0  0  0  0  0  0  0
    4.5940   22.7857   35.5746 H   0  0  0  0  0  0  0  0  0  0  0  0
    3.0083   22.0976   34.4174 H   0  0  0  0  0  0  0  0  0  0  0  0
  1 17  2  0
  1  6  1  0
  2 22  1  0
  4 23  2  0
  5 26  1  0
  6 14  2  0
  7 13  1  0
  8 26  2  0
  9 22  1  0
 10  5  1  0
 11 24  1  0
 12 25  1  0
 13  1  1  0
 14 23  1  0
 15 21  1  0
 15  2  1  0
 16 19  2  3
 16 12  1  0
 17  4  1  0
 18  2  2  3
 20 17  1  0
 21  9  1  0
 22 11  1  0
 23  3  1  0
 24 16  1  0
 25 10  1  0
 26  7  1  0
  3 27  1  0
  4 28  1  0
  5 29  1  0
  6 30  1  0
  7 31  1  0
  7 32  1  0
  9 33  1  0
  9 34  1  0
 10 35  1  0
 10 36  1  0
 11 37  1  0
 11 38  1  0
 12 39  1  0
 12 40  1  0
 13 41  1  0
 14 42  1  0
 15 43  1  0
 15 44  1  0
 18 45  1  0
 18 46  1  0
 19 47  1  0
 19 48  1  0
 20 49  1  0
 20 50  1  0
 20 51  1  0
 21 52  1  0
 21 53  1  0
 22 54  1  1
 24 55  1  0
 24 56  1  0
 25 57  1  0
 25 58  1  0
M  CHG  1  12   1
M  END
>  <mol_id>  (67) 
2026-09-18-3war-s0-n100-0067

>  <rmsd_to_ref>  (67) 


$$$$

     RDKit          3D

 40 40  0  0  0  0  0  0  0  0999 V2000
    3.9480   22.8060   34.7720 C   0  0  0  0  0  0  0  0  0  0  0  0
    2.4710   17.4180   38.1820 C   0  0  0  0  0  0  0  0  0  0  0  0
    1.7070   17.6980   40.2780 F   0  0  0  0  0  0  0  0  0  0  0  0
    2.9300   19.7620   38.7920 C   0  0  0  0  0  0  0  0  0  0  0  0
    2.9460   16.0090   40.1170 F   0  0  0  0  0  0  0  0  0  0  0  0
    2.3420   24.4480   33.3160 O   0  0  0  0  0  0  0  0  0  0  0  0
    3.3060   19.7700   36.5040 C   0  0  0  0  0  0  0  0  0  0  0  0
    3.7350   24.1130   31.3230 C   0  0  0  0  0  0  0  0  0  0  0  0
    3.9070   20.4140   41.0730 C   0  0  0  0  0  0  0  0  0  0  0  0
    3.9250   17.9430   39.9700 C   0  0  0  0  0  0  0  0  0  0  0  0
    2.7350   18.8770   37.6420 C   0  0  1  0  0  0  0  0  0  0  0  0
    3.6920   19.4650   39.9120 C   0  0  1  0  0  0  0  0  0  0  0  0
    2.7640   17.2190   39.5720 C   0  0  0  0  0  0  0  0  0  0  0  0
    2.7760   21.0240   36.1500 C   0  0  0  0  0  0  0  0  0  0  0  0
    4.0830   22.9470   33.3470 N   0  0  0  0  0  0  0  0  0  0  0  0
    3.2540   21.4440   34.9950 C   0  0  0  0  0  0  0  0  0  0  0  0
    3.3100   23.8410   32.8030 C   0  0  0  0  0  0  0  0  0  0  0  0
    3.3330   23.6211   35.1812 H   0  0  0  0  0  0  0  0  0  0  0  0
    4.9236   22.8515   35.2781 H   0  0  0  0  0  0  0  0  0  0  0  0
    3.0930   16.7220   37.6000 H   0  0  0  0  0  0  0  0  0  0  0  0
    1.3911   17.2415   38.0693 H   0  0  0  0  0  0  0  0  0  0  0  0
    1.9198   19.9713   39.1736 H   0  0  0  0  0  0  0  0  0  0  0  0
    3.5541   20.5430   38.3332 H   0  0  0  0  0  0  0  0  0  0  0  0
    4.3578   19.9541   36.7681 H   0  0  0  0  0  0  0  0  0  0  0  0
    3.0447   19.1735   35.6175 H   0  0  0  0  0  0  0  0  0  0  0  0
    4.6614   24.7059   31.3106 H   0  0  0  0  0  0  0  0  0  0  0  0
    3.9054   23.1557   30.8086 H   0  0  0  0  0  0  0  0  0  0  0  0
    2.9371   24.6687   30.8086 H   0  0  0  0  0  0  0  0  0  0  0  0
    3.7834   19.8685   42.0202 H   0  0  0  0  0  0  0  0  0  0  0  0
    4.9228   20.8329   41.0209 H   0  0  0  0  0  0  0  0  0  0  0  0
    3.1709   21.2298   41.0209 H   0  0  0  0  0  0  0  0  0  0  0  0
    4.7557   17.6832   39.2974 H   0  0  0  0  0  0  0  0  0  0  0  0
    4.1609   17.6704   41.0093 H   0  0  0  0  0  0  0  0  0  0  0  0
    2.0994   18.3921   36.8864 H   0  0  0  0  0  0  0  0  0  0  0  0
    4.6459   20.0126   39.9252 H   0  0  0  0  0  0  0  0  0  0  0  0
    1.6818   20.9408   36.0745 H   0  0  0  0  0  0  0  0  0  0  0  0
    3.0620   21.7499   36.9254 H   0  0  0  0  0  0  0  0  0  0  0  0
    4.7443   22.3807   32.7966 H   0  0  0  0  0  0  0  0  0  0  0  0
    2.4006   21.4312   34.3010 H   0  0  0  0  0  0  0  0  0  0  0  0
    4.1072   20.7610   34.8704 H   0  0  0  0  0  0  0  0  0  0  0  0
  1 16  1  0
  2 13  1  0
  4 12  1  0
  8 17  1  0
 11  7  1  0
 11  2  1  0
 11  4  1  0
 12 10  1  0
 12  9  1  0
 13 10  1  0
 13  5  1  0
 13  3  1  0
 14  7  1  0
 15  1  1  0
 16 14  1  0
 17  6  2  0
 17 15  1  0
  1 18  1  0
  1 19  1  0
  2 20  1  0
  2 21  1  0
  4 22  1  0
  4 23  1  0
  7 24  1  0
  7 25  1  0
  8 26  1  0
  8 27  1  0
  8 28  1  0
  9 29  1  0
  9 30  1  0
  9 31  1  0
 10 32  1  0
 10 33  1  0
 11 34  1  6
 12 35  1  6
 14 36  1  0
 14 37  1  0
 15 38  1  0
 16 39  1  0
 16 40  1  0
M  END
>  <mol_id>  (68) 
2026-09-18-3war-s0-n100-0068

>  <rmsd_to_ref>  (68) 


$$$$

     RDKit          3D

 70 73  0  0  0  0  0  0  0  0999 V2000
    0.8600   19.2360   41.5150 N   0  0  0  0  0  0  0  0  0  0  0  0
    1.7640   18.1310   41.3700 C   0  0  1  0  0  0  0  0  0  0  0  0
    3.5890   24.9880   30.8500 C   0  0  2  0  0  0  0  0  0  0  0  0
   -0.0830   14.5150   41.5660 C   0  0  0  0  0  0  0  0  0  0  0  0
    0.9680   20.3760   40.8840 C   0  0  0  0  0  0  0  0  0  0  0  0
    3.4120   17.7590   37.7800 O   0  0  0  0  0  0  0  0  0  0  0  0
    1.8210   15.7910   42.3750 C   0  0  0  0  0  0  0  0  0  0  0  0
    3.0850   20.8580   35.9280 C   0  0  1  0  0  0  0  0  0  0  0  0
    3.5440   23.4410   33.3730 C   0  0  1  0  0  0  0  0  0  0  0  0
    2.2450   20.1100   38.3590 C   0  0  0  0  0  0  0  0  0  0  0  0
    4.4090   23.2230   32.2070 O   0  0  0  0  0  0  0  0  0  0  0  0
    4.7050   18.9060   39.4010 O   0  0  0  0  0  0  0  0  0  0  0  0
    1.1990   26.0120   29.7520 C   0  0  2  0  0  0  0  0  0  0  0  0
    2.4340   25.0610   31.8130 C   0  0  0  0  0  0  0  0  0  0  0  0
    3.3070   24.6860   29.4770 O   0  0  0  0  0  0  0  0  0  0  0  0
    3.3480   18.6060   38.9230 S   0  0  0  0  0  6  0  0  0  0  0  0
    2.3740   24.3380   32.9880 C   0  0  0  0  0  0  0  0  0  0  0  0
    1.7910   17.2760   42.5450 C   0  0  0  0  0  0  0  0  0  0  0  0
    1.4290   20.4500   39.4810 C   0  0  0  0  0  0  0  0  0  0  0  0
    2.6270   22.0710   35.0750 C   0  0  0  0  0  0  0  0  0  0  0  0
   -0.2270   19.1320   42.3910 O   0  0  0  0  0  0  0  0  0  0  0  0
   -0.1660   26.2850   29.2660 C   0  0  0  0  0  0  0  0  0  0  0  0
    2.5130   20.8100   37.0280 C   0  0  1  0  0  0  0  0  0  0  0  0
    1.9330   24.7290   29.0030 C   0  0  2  0  0  0  0  0  0  0  0  0
    4.8060   24.2400   31.3660 C   0  0  0  0  0  0  0  0  0  0  0  0
    2.0540   14.2720   40.6880 C   0  0  0  0  0  0  0  0  0  0  0  0
    1.1910   15.2140   41.2800 N   0  0  0  0  0  0  0  0  0  0  0  0
    2.1500   24.9210   27.2650 C   0  0  0  0  0  0  0  0  0  0  0  0
    1.2160   25.9150   31.3570 C   0  0  0  0  0  0  0  0  0  0  0  0
    3.1900   19.9650   36.3130 O   0  0  0  0  0  0  0  0  0  0  0  0
    2.4300   17.9170   40.2950 N   0  0  0  0  0  0  0  0  0  0  0  0
    3.7200   21.7700   34.1020 C   0  0  0  0  0  0  0  0  0  0  0  0
    0.7240   21.5900   41.6100 C   0  0  0  0  0  0  0  0  0  0  0  0
    2.5761   18.7397   41.7943 H   0  0  0  0  0  0  0  0  0  0  0  0
    3.8540   26.0550   30.8145 H   0  0  0  0  0  0  0  0  0  0  0  0
   -0.2228   14.4383   42.6544 H   0  0  0  0  0  0  0  0  0  0  0  0
   -0.9182   15.0812   41.1280 H   0  0  0  0  0  0  0  0  0  0  0  0
   -0.0542   13.5064   41.1280 H   0  0  0  0  0  0  0  0  0  0  0  0
    2.8796   15.4961   42.3268 H   0  0  0  0  0  0  0  0  0  0  0  0
    1.2383   15.4217   43.2318 H   0  0  0  0  0  0  0  0  0  0  0  0
    3.8046   21.0467   35.1177 H   0  0  0  0  0  0  0  0  0  0  0  0
    3.6566   24.0848   34.2578 H   0  0  0  0  0  0  0  0  0  0  0  0
    1.8236   26.8710   29.4656 H   0  0  0  0  0  0  0  0  0  0  0  0
    1.4905   24.4089   33.6394 H   0  0  0  0  0  0  0  0  0  0  0  0
    2.6880   17.5503   43.1196 H   0  0  0  0  0  0  0  0  0  0  0  0
    0.8171   17.4616   43.0216 H   0  0  0  0  0  0  0  0  0  0  0  0
    1.6128   21.9753   34.6601 H   0  0  0  0  0  0  0  0  0  0  0  0
    2.5292   23.0711   35.5225 H   0  0  0  0  0  0  0  0  0  0  0  0
    0.0982   19.1631   43.3256 H   0  0  0  0  0  0  0  0  0  0  0  0
   -0.8407   26.4199   30.1243 H   0  0  0  0  0  0  0  0  0  0  0  0
   -0.1617   27.2001   28.6556 H   0  0  0  0  0  0  0  0  0  0  0  0
   -0.5140   25.4387   28.6556 H   0  0  0  0  0  0  0  0  0  0  0  0
    1.6786   20.2587   36.5700 H   0  0  0  0  0  0  0  0  0  0  0  0
    1.2954   23.8582   29.2156 H   0  0  0  0  0  0  0  0  0  0  0  0
    5.3605   23.8152   30.5163 H   0  0  0  0  0  0  0  0  0  0  0  0
    5.4519   24.9371   31.9200 H   0  0  0  0  0  0  0  0  0  0  0  0
    2.5733   13.7052   41.4748 H   0  0  0  0  0  0  0  0  0  0  0  0
    1.4692   13.5807   40.0634 H   0  0  0  0  0  0  0  0  0  0  0  0
    2.7937   14.7942   40.0634 H   0  0  0  0  0  0  0  0  0  0  0  0
    2.9613   25.6388   27.0739 H   0  0  0  0  0  0  0  0  0  0  0  0
    2.4072   23.9494   26.8181 H   0  0  0  0  0  0  0  0  0  0  0  0
    1.2169   25.2947   26.8181 H   0  0  0  0  0  0  0  0  0  0  0  0
    1.2962   26.9254   31.7844 H   0  0  0  0  0  0  0  0  0  0  0  0
    0.2860   25.4419   31.7052 H   0  0  0  0  0  0  0  0  0  0  0  0
    1.7274   17.3774   39.7697 H   0  0  0  0  0  0  0  0  0  0  0  0
    3.4870   20.9508   33.4059 H   0  0  0  0  0  0  0  0  0  0  0  0
    4.7002   21.4220   34.4599 H   0  0  0  0  0  0  0  0  0  0  0  0
    0.7650   21.3859   42.6901 H   0  0  0  0  0  0  0  0  0  0  0  0
    1.4905   22.3342   41.3481 H   0  0  0  0  0  0  0  0  0  0  0  0
   -0.2705   21.9803   41.3481 H   0  0  0  0  0  0  0  0  0  0  0  0
  1 21  1  0
  2  1  1  0
  2 18  1  0
  3 25  1  0
  3 14  1  0
  5  1  1  0
  5 33  1  0
  6 16  2  0
  7 18  1  0
  8 20  1  0
  8 30  1  0
  8 23  1  0
  9 32  1  0
 10 16  1  0
 10 19  2  0
 11  9  1  0
 13 22  1  0
 13 29  1  0
 14 17  2  0
 15  3  1  0
 16 12  2  0
 16 31  1  0
 17  9  1  0
 19  5  2  0
 23 10  1  0
 24 28  1  0
 24 15  1  0
 24 13  1  0
 25 11  1  0
 26 27  1  0
 27  4  1  0
 27  7  1  0
 29 14  1  0
 30 23  1  0
 31  2  1  0
 32 20  1  0
  2 34  1  1
  3 35  1  6
  4 36  1  0
  4 37  1  0
  4 38  1  0
  7 39  1  0
  7 40  1  0
  8 41  1  1
  9 42  1  1
 13 43  1  1
 17 44  1  0
 18 45  1  0
 18 46  1  0
 20 47  1  0
 20 48  1  0
 21 49  1  0
 22 50  1  0
 22 51  1  0
 22 52  1  0
 23 53  1  6
 24 54  1  6
 25 55  1  0
 25 56  1  0
 26 57  1  0
 26 58  1  0
 26 59  1  0
 28 60  1  0
 28 61  1  0
 28 62  1  0
 29 63  1  0
 29 64  1  0
 31 65  1  0
 32 66  1  0
 32 67  1  0
 33 68  1  0
 33 69  1  0
 33 70  1  0
M  END
>  <mol_id>  (69) 
2026-09-18-3war-s0-n100-0069

>  <rmsd_to_ref>  (69) 


$$$$

     RDKit          3D

 60 62  0  0  0  0  0  0  0  0999 V2000
    3.8140   24.6590   30.5580 C   0  0  0  0  0  0  0  0  0  0  0  0
    2.7860   20.0760   38.1720 C   0  0  1  0  0  0  0  0  0  0  0  0
    1.2900   27.0960   32.6810 C   0  0  0  0  0  0  0  0  0  0  0  0
    2.5340   23.5940   35.4410 O   0  0  0  0  0  0  0  0  0  0  0  0
    3.9800   23.7280   32.0080 C   0  0  0  0  0  0  0  0  0  0  0  0
    3.5010   17.0860   38.1020 C   0  0  0  0  0  0  0  0  0  0  0  0
    0.1320   19.3230   42.2270 C   0  0  0  0  0  0  0  0  0  0  0  0
    3.5860   17.9290   39.2790 O   0  0  0  0  0  0  0  0  0  0  0  0
    2.9240   27.0850   30.3680 O   0  0  0  0  0  0  0  0  0  0  0  0
    0.5680   26.2010   31.8010 C   0  0  0  0  0  0  0  0  0  0  0  0
    1.9580   19.3490   40.5600 C   0  0  2  0  0  0  0  0  0  0  0  0
    2.9210   23.4270   33.0980 C   0  0  2  0  0  0  0  0  0  0  0  0
    2.5190   18.9820   39.2270 C   0  0  1  0  0  0  0  0  0  0  0  0
    1.9970   24.6790   33.1610 C   0  0  0  0  0  0  0  0  0  0  0  0
    1.3380   17.8550   41.3960 O   0  0  0  0  0  0  0  0  0  0  0  0
    2.9840   25.9170   30.9720 C   0  0  1  0  0  0  0  0  0  0  0  0
    0.9560   18.5460   41.2640 C   0  0  1  0  0  0  0  0  0  0  0  0
    2.3940   20.3460   36.9010 C   0  0  0  0  0  0  0  0  0  0  0  0
    1.3820   20.6310   40.1040 C   0  0  0  0  0  0  0  0  0  0  0  0
    3.0530   22.7970   34.3490 C   0  0  2  0  0  0  0  0  0  0  0  0
    2.3220   21.0610   38.7920 C   0  0  0  0  0  0  0  0  0  0  0  0
    1.7860   25.4690   32.0250 C   0  0  0  0  0  0  0  0  0  0  0  0
    2.7200   21.5380   34.6940 C   0  0  0  0  0  0  0  0  0  0  0  0
    3.5570   20.8820   35.8750 C   0  0  0  0  0  0  0  0  0  0  0  0
    3.2815   24.0818   29.7878 H   0  0  0  0  0  0  0  0  0  0  0  0
    4.7901   24.9326   30.1309 H   0  0  0  0  0  0  0  0  0  0  0  0
    3.7924   19.7421   37.8793 H   0  0  0  0  0  0  0  0  0  0  0  0
    1.7414   28.0273   32.3082 H   0  0  0  0  0  0  0  0  0  0  0  0
    1.1531   27.5905   33.6540 H   0  0  0  0  0  0  0  0  0  0  0  0
    2.7998   23.1858   36.3029 H   0  0  0  0  0  0  0  0  0  0  0  0
    4.3051   22.7362   31.6608 H   0  0  0  0  0  0  0  0  0  0  0  0
    4.5955   24.4380   32.5799 H   0  0  0  0  0  0  0  0  0  0  0  0
    3.3951   16.0354   38.4103 H   0  0  0  0  0  0  0  0  0  0  0  0
    2.6281   17.3817   37.5015 H   0  0  0  0  0  0  0  0  0  0  0  0
    4.4153   17.2015   37.5015 H   0  0  0  0  0  0  0  0  0  0  0  0
    0.4175   19.0537   43.2546 H   0  0  0  0  0  0  0  0  0  0  0  0
    0.3006   20.3985   42.0695 H   0  0  0  0  0  0  0  0  0  0  0  0
   -0.9318   19.0916   42.0695 H   0  0  0  0  0  0  0  0  0  0  0  0
    2.8870   27.8055   31.0459 H   0  0  0  0  0  0  0  0  0  0  0  0
    0.3889   26.5569   30.7757 H   0  0  0  0  0  0  0  0  0  0  0  0
   -0.4558   25.8262   31.9470 H   0  0  0  0  0  0  0  0  0  0  0  0
    2.7210   19.2689   41.3483 H   0  0  0  0  0  0  0  0  0  0  0  0
    2.5960   22.4549   32.6987 H   0  0  0  0  0  0  0  0  0  0  0  0
    1.6144   18.5319   38.7922 H   0  0  0  0  0  0  0  0  0  0  0  0
    1.0077   24.3234   33.4847 H   0  0  0  0  0  0  0  0  0  0  0  0
    2.5464   25.3558   33.8319 H   0  0  0  0  0  0  0  0  0  0  0  0
    1.4210   17.7048   42.3710 H   0  0  0  0  0  0  0  0  0  0  0  0
    3.8124   26.5722   31.2793 H   0  0  0  0  0  0  0  0  0  0  0  0
    0.0316   18.2296   40.7587 H   0  0  0  0  0  0  0  0  0  0  0  0
    1.9743   19.4218   36.4771 H   0  0  0  0  0  0  0  0  0  0  0  0
    1.6767   21.1755   36.9873 H   0  0  0  0  0  0  0  0  0  0  0  0
    0.3313   20.5019   39.8052 H   0  0  0  0  0  0  0  0  0  0  0  0
    1.3848   21.3977   40.8928 H   0  0  0  0  0  0  0  0  0  0  0  0
    4.1326   22.6988   34.1623 H   0  0  0  0  0  0  0  0  0  0  0  0
    3.1612   21.6755   39.1499 H   0  0  0  0  0  0  0  0  0  0  0  0
    1.6748   21.6112   38.0931 H   0  0  0  0  0  0  0  0  0  0  0  0
    1.6624   21.5429   34.9964 H   0  0  0  0  0  0  0  0  0  0  0  0
    2.9384   20.9254   33.8069 H   0  0  0  0  0  0  0  0  0  0  0  0
    4.1735   20.0488   35.5068 H   0  0  0  0  0  0  0  0  0  0  0  0
    4.2613   21.5826   36.3473 H   0  0  0  0  0  0  0  0  0  0  0  0
  1 16  1  0
  1  5  1  0
  2 18  1  0
  2 21  1  0
  2 13  1  0
  5 12  1  0
  6  8  1  0
 10 22  1  0
 10  3  1  0
 11 17  1  0
 12 14  1  0
 12 20  1  0
 13  8  1  0
 13 11  1  0
 16  9  1  0
 16 22  1  0
 17 15  1  0
 17  7  1  0
 19 11  1  0
 20 23  1  0
 20  4  1  0
 21 19  1  0
 22  3  1  0
 22 14  1  0
 23 24  1  0
 24 18  1  0
  1 25  1  0
  1 26  1  0
  2 27  1  6
  3 28  1  0
  3 29  1  0
  4 30  1  0
  5 31  1  0
  5 32  1  0
  6 33  1  0
  6 34  1  0
  6 35  1  0
  7 36  1  0
  7 37  1  0
  7 38  1  0
  9 39  1  0
 10 40  1  0
 10 41  1  0
 11 42  1  1
 12 43  1  6
 13 44  1  6
 14 45  1  0
 14 46  1  0
 15 47  1  0
 16 48  1  1
 17 49  1  6
 18 50  1  0
 18 51  1  0
 19 52  1  0
 19 53  1  0
 20 54  1  1
 21 55  1  0
 21 56  1  0
 23 57  1  0
 23 58  1  0
 24 59  1  0
 24 60  1  0
M  END
>  <mol_id>  (70) 
2026-09-18-3war-s0-n100-0071

>  <rmsd_to_ref>  (70) 


$$$$

     RDKit          3D

 52 52  0  0  0  0  0  0  0  0999 V2000
    0.4147   17.7302   41.3808 O   0  0  0  0  0  0  0  0  0  0  0  0
    2.3008   18.4694   40.0220 N   0  0  0  0  0  0  0  0  0  0  0  0
    1.5023   27.7671   32.3960 O   0  0  0  0  0  0  0  0  0  0  0  0
    4.5858   25.7137   29.9057 C   0  0  0  0  0  0  0  0  0  0  0  0
    2.1550   21.1862   37.0632 C   0  0  0  0  0  0  0  0  0  0  0  0
    3.6230   22.1661   33.9587 C   0  0  0  0  0  0  0  0  0  0  0  0
    2.0857   25.1094   32.4945 C   0  0  0  0  0  0  0  0  0  0  0  0
    3.1515   22.0438   35.1237 C   0  0  0  0  0  0  0  0  0  0  0  0
    2.3013   19.8569   40.0802 C   0  0  0  0  0  0  0  0  0  0  0  0
    1.3405   26.9598   30.9325 C   0  0  0  0  0  0  0  0  0  0  0  0
    2.9915   15.1221   40.0766 C   0  0  0  0  0  0  0  0  0  0  0  0
    1.6526   20.5623   40.8718 O   0  0  0  0  0  0  0  0  0  0  0  0
    3.1180   20.4725   39.0181 C   0  0  0  0  0  0  0  0  0  0  0  0
    4.8444   25.3341   31.1670 C   0  0  0  0  0  0  0  0  0  0  0  0
    2.2632   24.0814   33.4914 C   0  0  0  0  0  0  0  0  0  0  0  0
    2.5769   21.7397   36.1533 C   0  0  0  0  0  0  0  0  0  0  0  0
    1.9678   16.0638   40.0506 O   0  0  0  0  0  0  0  0  0  0  0  0
    3.5757   23.2645   33.2677 C   0  0  0  0  0  0  0  0  0  0  0  0
    2.6336   17.0900   42.0136 O   0  0  0  0  0  0  0  0  0  0  0  0
    1.8081   17.3173   40.9252 S   0  0  0  0  0  4  0  0  0  0  0  0
    2.1884   21.3543   38.3067 C   0  0  0  0  0  0  0  0  0  0  0  0
    2.2867   25.8300   31.2543 C   0  0  1  0  0  0  0  0  0  0  0  0
    3.4991   25.6714   30.7364 C   0  0  0  0  0  0  0  0  0  0  0  0
    0.3767   17.7276   42.3700 H   0  0  0  0  0  0  0  0  0  0  0  0
    2.7400   18.1203   39.1582 H   0  0  0  0  0  0  0  0  0  0  0  0
    1.3138   27.1421   33.1402 H   0  0  0  0  0  0  0  0  0  0  0  0
    4.6705   24.9747   29.0952 H   0  0  0  0  0  0  0  0  0  0  0  0
    5.0042   26.4996   29.2597 H   0  0  0  0  0  0  0  0  0  0  0  0
    2.5732   20.1756   36.9455 H   0  0  0  0  0  0  0  0  0  0  0  0
    1.1357   21.5828   36.9457 H   0  0  0  0  0  0  0  0  0  0  0  0
    4.6900   21.9112   34.0407 H   0  0  0  0  0  0  0  0  0  0  0  0
    2.9331   21.5289   33.3860 H   0  0  0  0  0  0  0  0  0  0  0  0
    0.9985   24.9830   32.3846 H   0  0  0  0  0  0  0  0  0  0  0  0
    3.0362   25.5408   32.8415 H   0  0  0  0  0  0  0  0  0  0  0  0
    0.3125   26.6122   30.7529 H   0  0  0  0  0  0  0  0  0  0  0  0
    1.5493   27.5381   30.0204 H   0  0  0  0  0  0  0  0  0  0  0  0
    3.2287   14.8670   41.1200 H   0  0  0  0  0  0  0  0  0  0  0  0
    2.6701   14.2163   39.5417 H   0  0  0  0  0  0  0  0  0  0  0  0
    3.8852   15.5383   39.5887 H   0  0  0  0  0  0  0  0  0  0  0  0
    3.9479   21.0503   39.4510 H   0  0  0  0  0  0  0  0  0  0  0  0
    3.5758   19.7239   38.3548 H   0  0  0  0  0  0  0  0  0  0  0  0
    5.1100   24.2898   31.3881 H   0  0  0  0  0  0  0  0  0  0  0  0
    5.5218   25.6695   31.9662 H   0  0  0  0  0  0  0  0  0  0  0  0
    2.3045   24.5537   34.4840 H   0  0  0  0  0  0  0  0  0  0  0  0
    1.4146   23.3857   33.4147 H   0  0  0  0  0  0  0  0  0  0  0  0
    3.6496   23.0086   32.2005 H   0  0  0  0  0  0  0  0  0  0  0  0
    4.4122   23.8954   33.6026 H   0  0  0  0  0  0  0  0  0  0  0  0
    2.1182   17.2127   42.8500 H   0  0  0  0  0  0  0  0  0  0  0  0
    2.4841   22.3953   38.5041 H   0  0  0  0  0  0  0  0  0  0  0  0
    1.1825   21.1125   38.6805 H   0  0  0  0  0  0  0  0  0  0  0  0
    1.7830   25.3773   30.3875 H   0  0  0  0  0  0  0  0  0  0  0  0
    3.3257   24.6219   30.4562 H   0  0  0  0  0  0  0  0  0  0  0  0
  2  9  1  0
  2 20  1  0
  4 23  1  0
  4 14  1  0
  5 21  1  0
  6  8  1  0
  7 15  1  0
  8 16  3  0
  9 12  2  0
 10  3  1  0
 11 17  1  0
 13  9  1  0
 16  5  1  0
 17 20  1  0
 18 15  1  0
 18  6  1  0
 20  1  1  0
 20 19  1  0
 21 13  1  0
 22 10  1  0
 22  7  1  0
 23 14  1  0
 23 22  1  0
  1 24  1  0
  2 25  1  0
  3 26  1  0
  4 27  1  0
  4 28  1  0
  5 29  1  0
  5 30  1  0
  6 31  1  0
  6 32  1  0
  7 33  1  0
  7 34  1  0
 10 35  1  0
 10 36  1  0
 11 37  1  0
 11 38  1  0
 11 39  1  0
 13 40  1  0
 13 41  1  0
 14 42  1  0
 14 43  1  0
 15 44  1  0
 15 45  1  0
 18 46  1  0
 18 47  1  0
 19 48  1  0
 21 49  1  0
 21 50  1  0
 22 51  1  6
 23 52  1  0
M  END
>  <mol_id>  (71) 
2026-09-18-3war-s0-n100-0072

>  <rmsd_to_ref>  (71) 


$$$$

     RDKit          3D

 28 28  0  0  0  0  0  0  0  0999 V2000
    4.4041   21.0769   35.1429 O   0  0  0  0  0  0  0  0  0  0  0  0
    3.4322   19.1049   40.2449 C   0  0  0  0  0  0  0  0  0  0  0  0
    4.2736   22.7377   33.3168 C   0  0  1  0  0  0  0  0  0  0  0  0
    4.3304   22.3011   34.7821 C   0  0  1  0  0  0  0  0  0  0  0  0
    2.3073   20.1955   40.0867 C   0  0  0  0  0  0  0  0  0  0  0  0
    2.7623   20.5636   37.5715 C   0  0  0  0  0  0  0  0  0  0  0  0
    1.4386   20.4791   41.2996 C   0  0  0  0  0  0  0  0  0  0  0  0
    2.0983   20.8018   38.8591 C   0  0  0  0  0  0  0  0  0  0  0  0
    3.0464   19.4986   37.0698 O   0  0  0  0  0  0  0  0  0  0  0  0
    4.5751   23.0255   31.7901 C   0  0  0  0  0  0  0  0  0  0  0  0
    2.9267   22.5405   34.0360 C   0  0  0  0  0  0  0  0  0  0  0  0
    5.4334   23.2330   34.4055 C   0  0  0  0  0  0  0  0  0  0  0  0
    3.0441   21.6478   36.7456 O   0  0  0  0  0  0  0  0  0  0  0  0
    4.4288   21.0251   36.1312 H   0  0  0  0  0  0  0  0  0  0  0  0
    3.5533   18.8548   41.3092 H   0  0  0  0  0  0  0  0  0  0  0  0
    3.1480   18.2012   39.6858 H   0  0  0  0  0  0  0  0  0  0  0  0
    4.3811   19.4969   39.8501 H   0  0  0  0  0  0  0  0  0  0  0  0
    1.9338   20.0943   42.2033 H   0  0  0  0  0  0  0  0  0  0  0  0
    1.2887   21.5645   41.3975 H   0  0  0  0  0  0  0  0  0  0  0  0
    0.4641   19.9840   41.1765 H   0  0  0  0  0  0  0  0  0  0  0  0
    1.3185   21.5775   38.8471 H   0  0  0  0  0  0  0  0  0  0  0  0
    5.6526   23.2015   31.6560 H   0  0  0  0  0  0  0  0  0  0  0  0
    4.2670   22.1594   31.1860 H   0  0  0  0  0  0  0  0  0  0  0  0
    4.0153   23.9156   31.4673 H   0  0  0  0  0  0  0  0  0  0  0  0
    2.3024   23.4090   34.2932 H   0  0  0  0  0  0  0  0  0  0  0  0
    2.0170   21.9482   33.8582 H   0  0  0  0  0  0  0  0  0  0  0  0
    6.4673   22.8667   34.3223 H   0  0  0  0  0  0  0  0  0  0  0  0
    5.8143   24.1977   34.7720 H   0  0  0  0  0  0  0  0  0  0  0  0
  3 10  1  6
  3 11  1  0
  3 12  1  0
  3  4  1  0
  4  1  1  6
  5  2  1  0
  5  7  1  0
  6  8  1  0
  8  5  2  3
  9  6  1  0
 11  4  1  0
 12  4  1  0
 13  6  2  0
  1 14  1  0
  2 15  1  0
  2 16  1  0
  2 17  1  0
  7 18  1  0
  7 19  1  0
  7 20  1  0
  8 21  1  0
 10 22  1  0
 10 23  1  0
 10 24  1  0
 11 25  1  0
 11 26  1  0
 12 27  1  0
 12 28  1  0
M  CHG  1   9  -1
M  END
>  <mol_id>  (72) 
2026-09-18-3war-s0-n100-0073

>  <rmsd_to_ref>  (72) 


$$$$

     RDKit          3D

 49 51  0  0  0  0  0  0  0  0999 V2000
    1.9280   21.8430   35.8380 C   0  0  0  0  0  0  0  0  0  0  0  0
    2.9450   23.6730   32.8590 C   0  0  0  0  0  0  0  0  0  0  0  0
    1.5890   24.8020   29.5030 C   0  0  0  0  0  0  0  0  0  0  0  0
    3.6810   19.7270   38.5140 C   0  0  0  0  0  0  0  0  0  0  0  0
    3.0350   25.6060   28.7440 S   0  0  0  0  0  0  0  0  0  0  0  0
    2.0410   19.2690   40.5420 N   0  0  0  0  0  0  0  0  0  0  0  0
    2.6590   17.1220   39.9200 O   0  0  0  0  0  0  0  0  0  0  0  0
    3.1440   22.1270   35.0370 C   0  0  0  0  0  0  0  0  0  0  0  0
    2.6210   20.1030   39.5740 C   0  0  0  0  0  0  0  0  0  0  0  0
    1.0720   17.0030   41.7320 C   0  0  0  0  0  0  0  0  0  0  0  0
    0.3230   17.4230   42.8040 C   0  0  0  0  0  0  0  0  0  0  0  0
    1.1460   15.6630   41.4320 C   0  0  0  0  0  0  0  0  0  0  0  0
    3.2170   20.1430   37.1150 C   0  0  0  0  0  0  0  0  0  0  0  0
    2.0480   21.0580   37.1690 C   0  0  0  0  0  0  0  0  0  0  0  0
    4.3700   25.2290   31.2350 C   0  0  2  0  0  0  0  0  0  0  0  0
    2.9220   23.0730   33.8760 C   0  0  0  0  0  0  0  0  0  0  0  0
   -0.3930   16.5470   43.6450 C   0  0  0  0  0  0  0  0  0  0  0  0
    4.2690   26.5290   31.0690 C   0  0  0  0  0  0  0  0  0  0  0  0
    4.4340   25.8320   29.9170 C   0  0  2  0  0  0  0  0  0  0  0  0
    1.7260   24.7950   31.0430 C   0  0  0  0  0  0  0  0  0  0  0  0
    1.9290   17.9830   40.8930 C   0  0  0  0  0  0  0  0  0  0  0  0
    3.0490   24.3340   31.5540 C   0  0  2  0  0  0  0  0  0  0  0  0
    0.4790   14.7130   42.2590 C   0  0  0  0  0  0  0  0  0  0  0  0
   -0.2900   15.1410   43.3720 C   0  0  0  0  0  0  0  0  0  0  0  0
    1.2470   21.2706   35.1910 H   0  0  0  0  0  0  0  0  0  0  0  0
    1.5959   22.8411   36.1598 H   0  0  0  0  0  0  0  0  0  0  0  0
    1.5178   23.7660   29.1403 H   0  0  0  0  0  0  0  0  0  0  0  0
    0.6827   25.3609   29.2269 H   0  0  0  0  0  0  0  0  0  0  0  0
    4.6250   20.2404   38.7491 H   0  0  0  0  0  0  0  0  0  0  0  0
    3.8261   18.6367   38.5294 H   0  0  0  0  0  0  0  0  0  0  0  0
    3.8986   22.5710   35.7030 H   0  0  0  0  0  0  0  0  0  0  0  0
    3.4650   21.1683   34.6035 H   0  0  0  0  0  0  0  0  0  0  0  0
    2.2807   21.1490   39.5690 H   0  0  0  0  0  0  0  0  0  0  0  0
    0.2795   18.5011   43.0178 H   0  0  0  0  0  0  0  0  0  0  0  0
    1.7187   15.3251   40.5557 H   0  0  0  0  0  0  0  0  0  0  0  0
    2.9373   19.2414   36.5503 H   0  0  0  0  0  0  0  0  0  0  0  0
    4.0452   20.6762   36.6254 H   0  0  0  0  0  0  0  0  0  0  0  0
    2.1784   21.7671   37.9998 H   0  0  0  0  0  0  0  0  0  0  0  0
    1.1333   20.4668   37.3235 H   0  0  0  0  0  0  0  0  0  0  0  0
    5.0040   24.5874   31.8646 H   0  0  0  0  0  0  0  0  0  0  0  0
   -1.0057   16.9252   44.4766 H   0  0  0  0  0  0  0  0  0  0  0  0
    3.3029   27.0179   31.2628 H   0  0  0  0  0  0  0  0  0  0  0  0
    4.8142   27.3778   31.5075 H   0  0  0  0  0  0  0  0  0  0  0  0
    5.1349   25.8507   29.0694 H   0  0  0  0  0  0  0  0  0  0  0  0
    1.5580   25.8198   31.4056 H   0  0  0  0  0  0  0  0  0  0  0  0
    0.9834   24.0739   31.4153 H   0  0  0  0  0  0  0  0  0  0  0  0
    3.3372   23.5290   30.8619 H   0  0  0  0  0  0  0  0  0  0  0  0
    0.5610   13.6397   42.0327 H   0  0  0  0  0  0  0  0  0  0  0  0
   -0.7989   14.4079   44.0151 H   0  0  0  0  0  0  0  0  0  0  0  0
  1 14  1  0
  2 16  3  0
  3 20  1  0
  4  9  1  0
  5  3  1  0
  5 19  1  0
  6 21  1  0
  7 21  2  0
  8  1  1  0
  9  6  2  3
 10 11  2  0
 11 17  1  0
 12 10  1  0
 12 23  2  0
 13 14  1  0
 13  4  1  0
 15 18  1  0
 15 22  1  0
 16  8  1  0
 19 18  1  0
 19 15  1  0
 20 22  1  0
 21 10  1  0
 22  2  1  0
 23 24  1  0
 24 17  2  0
  1 25  1  0
  1 26  1  0
  3 27  1  0
  3 28  1  0
  4 29  1  0
  4 30  1  0
  8 31  1  0
  8 32  1  0
  9 33  1  0
 11 34  1  0
 12 35  1  0
 13 36  1  0
 13 37  1  0
 14 38  1  0
 14 39  1  0
 15 40  1  1
 17 41  1  0
 18 42  1  0
 18 43  1  0
 19 44  1  6
 20 45  1  0
 20 46  1  0
 22 47  1  6
 23 48  1  0
 24 49  1  0
M  END
>  <mol_id>  (73) 
2026-09-18-3war-s0-n100-0074

>  <rmsd_to_ref>  (73) 


$$$$

     RDKit          3D

 44 45  0  0  0  0  0  0  0  0999 V2000
    2.9754   23.0157   34.9259 C   0  0  0  0  0  0  0  0  0  0  0  0
    2.7669   22.2975   35.7783 C   0  0  0  0  0  0  0  0  0  0  0  0
    1.0287   18.5438   41.6796 C   0  0  0  0  0  0  0  0  0  0  0  0
   -0.8982   20.1133   41.7592 O   0  0  0  0  0  0  0  0  0  0  0  0
    0.6454   16.9952   43.3409 C   0  0  0  0  0  0  0  0  0  0  0  0
    4.5119   23.7565   32.7821 C   0  0  0  0  0  0  0  0  0  0  0  0
   -0.4133   16.9403   43.6965 C   0  0  0  0  0  0  0  0  0  0  0  0
    3.4037   18.5988   38.6009 C   0  0  0  0  0  0  0  0  0  0  0  0
    2.2122   24.5668   33.0217 C   0  0  0  0  0  0  0  0  0  0  0  0
    1.5198   17.4015   42.2850 C   0  0  0  0  0  0  0  0  0  0  0  0
    2.5655   20.6159   37.4450 C   0  0  0  0  0  0  0  0  0  0  0  0
    1.1865   25.3692   31.0501 F   0  0  0  0  0  0  0  0  0  0  0  0
    2.1825   24.7594   31.6406 C   0  0  0  0  0  0  0  0  0  0  0  0
    2.4733   19.6967   38.5122 C   0  0  0  0  0  0  0  0  0  0  0  0
    1.6851   19.1708   40.7267 C   0  0  0  0  0  0  0  0  0  0  0  0
    4.4434   23.9051   31.4054 C   0  0  0  0  0  0  0  0  0  0  0  0
   -0.9418   18.3316   43.2858 C   0  0  0  0  0  0  0  0  0  0  0  0
    3.2739   24.3363   30.7956 C   0  0  0  0  0  0  0  0  0  0  0  0
    3.2423   23.8482   33.6066 C   0  0  0  0  0  0  0  0  0  0  0  0
   -0.3107   19.0278   42.2262 C   0  0  0  0  0  0  0  0  0  0  0  0
    1.5351   19.8733   39.5672 C   0  0  0  0  0  0  0  0  0  0  0  0
    2.5327   21.4122   36.6140 C   0  0  0  0  0  0  0  0  0  0  0  0
    0.9695   25.1862   33.7835 C   0  0  0  0  0  0  0  0  0  0  0  0
   -1.7676   20.4050   42.1322 H   0  0  0  0  0  0  0  0  0  0  0  0
    1.0949   17.5486   44.1785 H   0  0  0  0  0  0  0  0  0  0  0  0
    0.5466   16.0006   42.8814 H   0  0  0  0  0  0  0  0  0  0  0  0
    5.4794   23.5736   33.2725 H   0  0  0  0  0  0  0  0  0  0  0  0
   -0.9665   16.1343   43.1921 H   0  0  0  0  0  0  0  0  0  0  0  0
   -0.5179   16.7166   44.7684 H   0  0  0  0  0  0  0  0  0  0  0  0
    3.4440   18.2353   39.6383 H   0  0  0  0  0  0  0  0  0  0  0  0
    3.0736   17.7841   37.9395 H   0  0  0  0  0  0  0  0  0  0  0  0
    4.4032   18.9393   38.2925 H   0  0  0  0  0  0  0  0  0  0  0  0
    1.5907   16.5955   41.5398 H   0  0  0  0  0  0  0  0  0  0  0  0
    2.5160   17.6123   42.7011 H   0  0  0  0  0  0  0  0  0  0  0  0
    2.2570   19.8957   41.3245 H   0  0  0  0  0  0  0  0  0  0  0  0
    1.8046   18.2325   40.1652 H   0  0  0  0  0  0  0  0  0  0  0  0
    5.3262   23.6787   30.7894 H   0  0  0  0  0  0  0  0  0  0  0  0
   -1.9967   18.2033   43.0021 H   0  0  0  0  0  0  0  0  0  0  0  0
   -0.7380   18.9581   44.1667 H   0  0  0  0  0  0  0  0  0  0  0  0
    3.1811   24.3551   29.6997 H   0  0  0  0  0  0  0  0  0  0  0  0
    0.6940   20.5721   39.4485 H   0  0  0  0  0  0  0  0  0  0  0  0
    1.0775   25.0113   34.8641 H   0  0  0  0  0  0  0  0  0  0  0  0
    0.9229   26.2680   33.5900 H   0  0  0  0  0  0  0  0  0  0  0  0
    0.0451   24.7095   33.4254 H   0  0  0  0  0  0  0  0  0  0  0  0
  1  2  3  0
  2 22  1  0
  3 10  1  0
  3 20  2  0
  4 20  1  0
  5  7  1  0
  6 19  2  0
  8 14  1  0
  9 19  1  0
  9 23  1  0
 10  5  1  0
 11 14  1  0
 12 13  1  0
 13  9  2  0
 14 21  2  3
 15  3  1  0
 16  6  1  0
 17  7  1  0
 18 16  2  0
 18 13  1  0
 19  1  1  0
 20 17  1  0
 21 15  1  0
 22 11  3  0
  4 24  1  0
  5 25  1  0
  5 26  1  0
  6 27  1  0
  7 28  1  0
  7 29  1  0
  8 30  1  0
  8 31  1  0
  8 32  1  0
 10 33  1  0
 10 34  1  0
 15 35  1  0
 15 36  1  0
 16 37  1  0
 17 38  1  0
 17 39  1  0
 18 40  1  0
 21 41  1  0
 23 42  1  0
 23 43  1  0
 23 44  1  0
M  END
>  <mol_id>  (74) 
2026-09-18-3war-s0-n100-0075

>  <rmsd_to_ref>  (74) 


$$$$

     RDKit          3D

 64 68  0  0  0  0  0  0  0  0999 V2000
    3.7824   18.8056   40.0177 C   0  0  0  0  0  0  0  0  0  0  0  0
    2.9377   24.1708   29.0222 C   0  0  0  0  0  0  0  0  0  0  0  0
    0.0856   16.4514   43.1234 N   0  0  0  0  0  0  0  0  0  0  0  0
    1.7083   25.0169   29.3694 C   0  0  0  0  0  0  0  0  0  0  0  0
    0.1991   18.5059   42.5517 C   0  0  0  0  0  0  0  0  0  0  0  0
    4.6266   17.4447   39.5673 S   0  0  0  0  0  0  0  0  0  0  0  0
    4.2387   19.4737   41.1568 O   0  0  0  0  0  0  0  0  0  0  0  0
    4.0130   23.5187   33.6428 C   0  0  2  0  0  0  0  0  0  0  0  0
    1.4359   25.3088   30.7384 C   0  0  0  0  0  0  0  0  0  0  0  0
   -0.2259   17.7436   43.5374 N   0  0  0  0  0  0  0  0  0  0  0  0
    4.0875   21.9346   34.6593 N   0  0  0  0  0  0  0  0  0  0  0  0
    1.3774   15.5652   41.1842 C   0  0  1  0  0  0  0  0  0  0  0  0
    3.8714   23.8338   30.0212 C   0  0  0  0  0  0  0  0  0  0  0  0
    2.4148   19.6929   38.1801 C   0  0  0  0  0  0  0  0  0  0  0  0
    2.3124   21.2048   36.0983 C   0  0  0  0  0  0  0  0  0  0  0  0
    3.6414   19.6759   37.4202 C   0  0  0  0  0  0  0  0  0  0  0  0
    3.2797   24.2049   32.2667 C   0  0  2  0  0  0  0  0  0  0  0  0
    4.6225   23.3330   31.2209 C   0  0  1  0  0  0  0  0  0  0  0  0
    0.2067   26.0368   31.1855 C   0  0  0  0  0  0  0  0  0  0  0  0
    1.0347   25.4325   28.3776 F   0  0  0  0  0  0  0  0  0  0  0  0
    2.6639   18.9967   39.4062 O   0  0  0  0  0  0  0  0  0  0  0  0
    3.5082   16.0162   39.7291 C   0  0  0  0  0  0  0  0  0  0  0  0
    4.6278   20.7441   35.3417 C   0  0  0  0  0  0  0  0  0  0  0  0
    0.8862   14.4805   40.2632 C   0  0  0  0  0  0  0  0  0  0  0  0
    2.8012   15.9062   40.7577 C   0  0  0  0  0  0  0  0  0  0  0  0
    0.8592   17.9541   41.5621 N   0  0  0  0  0  0  0  0  0  0  0  0
    2.2718   24.7603   31.6196 C   0  0  0  0  0  0  0  0  0  0  0  0
    3.6929   20.8228   36.5809 C   0  0  1  0  0  0  0  0  0  0  0  0
    2.5736   21.9096   34.9245 C   0  0  0  0  0  0  0  0  0  0  0  0
    3.7628   22.8284   32.3506 C   0  0  1  0  0  0  0  0  0  0  0  0
    0.6875   16.6671   41.9204 C   0  0  0  0  0  0  0  0  0  0  0  0
    2.5631   23.2237   28.6067 H   0  0  0  0  0  0  0  0  0  0  0  0
    3.5129   24.8277   28.3531 H   0  0  0  0  0  0  0  0  0  0  0  0
    0.0037   19.5884   42.5583 H   0  0  0  0  0  0  0  0  0  0  0  0
    4.4082   24.1568   34.4469 H   0  0  0  0  0  0  0  0  0  0  0  0
    1.0490   15.0228   42.0831 H   0  0  0  0  0  0  0  0  0  0  0  0
    4.5641   23.3628   29.3081 H   0  0  0  0  0  0  0  0  0  0  0  0
    3.2982   24.4752   30.7067 H   0  0  0  0  0  0  0  0  0  0  0  0
    1.6159   19.1887   37.6165 H   0  0  0  0  0  0  0  0  0  0  0  0
    2.0931   20.7261   38.3773 H   0  0  0  0  0  0  0  0  0  0  0  0
    1.7033   20.3114   35.8957 H   0  0  0  0  0  0  0  0  0  0  0  0
    1.7416   21.7880   36.8359 H   0  0  0  0  0  0  0  0  0  0  0  0
    4.4996   19.6858   38.1082 H   0  0  0  0  0  0  0  0  0  0  0  0
    3.6785   18.7664   36.8024 H   0  0  0  0  0  0  0  0  0  0  0  0
    5.6507   23.0694   30.9323 H   0  0  0  0  0  0  0  0  0  0  0  0
    0.1715   26.0563   32.2848 H   0  0  0  0  0  0  0  0  0  0  0  0
    0.2306   27.0671   30.8011 H   0  0  0  0  0  0  0  0  0  0  0  0
   -0.6853   25.5219   30.7991 H   0  0  0  0  0  0  0  0  0  0  0  0
    2.8224   16.0461   38.8696 H   0  0  0  0  0  0  0  0  0  0  0  0
    4.1906   15.1554   39.7878 H   0  0  0  0  0  0  0  0  0  0  0  0
    4.4853   19.8209   34.7608 H   0  0  0  0  0  0  0  0  0  0  0  0
    5.7108   20.7256   35.5328 H   0  0  0  0  0  0  0  0  0  0  0  0
    0.4155   13.6820   40.8554 H   0  0  0  0  0  0  0  0  0  0  0  0
    0.1494   14.9003   39.5625 H   0  0  0  0  0  0  0  0  0  0  0  0
    1.7348   14.0668   39.6986 H   0  0  0  0  0  0  0  0  0  0  0  0
    3.3782   15.1683   41.3344 H   0  0  0  0  0  0  0  0  0  0  0  0
    2.5935   16.9862   40.7806 H   0  0  0  0  0  0  0  0  0  0  0  0
    1.3538   18.3734   40.7618 H   0  0  0  0  0  0  0  0  0  0  0  0
    2.1923   25.6017   32.3238 H   0  0  0  0  0  0  0  0  0  0  0  0
    2.1929   23.8281   31.0410 H   0  0  0  0  0  0  0  0  0  0  0  0
    4.1310   21.5836   37.2435 H   0  0  0  0  0  0  0  0  0  0  0  0
    2.2036   22.9404   35.0273 H   0  0  0  0  0  0  0  0  0  0  0  0
    2.0652   21.4160   34.0832 H   0  0  0  0  0  0  0  0  0  0  0  0
    3.5119   21.7581   32.3124 H   0  0  0  0  0  0  0  0  0  0  0  0
  1  7  2  0
  2  4  1  0
  2 13  1  0
  3 10  1  0
  4  9  2  0
  5 10  2  0
  6 22  1  0
  6  1  1  0
  8 11  1  0
  9 19  1  0
  9 27  1  0
 11 29  1  0
 11 23  1  0
 12 24  1  0
 12 31  1  0
 14 21  1  0
 15 28  1  0
 16 14  1  0
 17 27  1  6
 17  8  1  0
 18 13  1  0
 18 30  1  0
 18 17  1  0
 20  4  1  0
 21  1  1  0
 22 25  1  0
 23 28  1  0
 25 12  1  0
 26 31  1  0
 26  5  1  0
 28 16  1  0
 29 15  1  0
 30 17  1  0
 30  8  1  0
 31  3  2  0
  2 32  1  0
  2 33  1  0
  5 34  1  0
  8 35  1  6
 12 36  1  1
 13 37  1  0
 13 38  1  0
 14 39  1  0
 14 40  1  0
 15 41  1  0
 15 42  1  0
 16 43  1  0
 16 44  1  0
 18 45  1  1
 19 46  1  0
 19 47  1  0
 19 48  1  0
 22 49  1  0
 22 50  1  0
 23 51  1  0
 23 52  1  0
 24 53  1  0
 24 54  1  0
 24 55  1  0
 25 56  1  0
 25 57  1  0
 26 58  1  0
 27 59  1  0
 27 60  1  0
 28 61  1  1
 29 62  1  0
 29 63  1  0
 30 64  1  1
M  END
>  <mol_id>  (75) 
2026-09-18-3war-s0-n100-0076

>  <rmsd_to_ref>  (75) 


$$$$

     RDKit          3D

 65 67  0  0  0  0  0  0  0  0999 V2000
    4.5377   25.2796   34.4169 N   0  0  0  0  0  0  0  0  0  0  0  0
    4.5684   23.9950   35.0693 N   0  0  0  0  0  0  0  0  0  0  0  0
    2.0442   27.2884   31.5406 F   0  0  0  0  0  0  0  0  0  0  0  0
    3.9337   14.7830   35.9578 C   0  0  0  0  0  0  0  0  0  0  0  0
    3.0674   13.4762   35.9084 C   0  0  1  0  0  0  0  0  0  0  0  0
    2.6026   17.8210   39.0451 C   0  0  0  0  0  0  0  0  0  0  0  0
    3.5922   26.1299   34.6089 C   0  0  0  0  0  0  0  0  0  0  0  0
    1.4630   27.6852   33.9187 C   0  0  0  0  0  0  0  0  0  0  0  0
    0.6311   18.8696   41.9544 C   0  0  0  0  0  0  0  0  0  0  0  0
    3.1771   19.1702   37.1179 N   0  0  0  0  0  0  0  0  0  0  0  0
    0.4942   20.3150   41.7095 C   0  0  0  0  0  0  0  0  0  0  0  0
    2.6528   20.3596   37.4644 C   0  0  0  0  0  0  0  0  0  0  0  0
    2.8545   13.2521   37.3760 C   0  0  1  0  0  0  0  0  0  0  0  0
    3.0711   26.4691   37.0975 C   0  0  0  0  0  0  0  0  0  0  0  0
    1.8269   20.0571   39.7281 C   0  0  0  0  0  0  0  0  0  0  0  0
    1.6720   18.2125   41.1484 C   0  0  0  0  0  0  0  0  0  0  0  0
    3.7291   12.1971   37.6576 O   0  0  0  0  0  0  0  0  0  0  0  0
    1.0190   20.8591   40.6061 C   0  0  0  0  0  0  0  0  0  0  0  0
    1.7318   27.4317   35.3228 C   0  0  0  0  0  0  0  0  0  0  0  0
    5.6931   25.9715   34.4502 O   0  0  0  0  0  0  0  0  0  0  0  0
    2.8269   26.6085   35.7064 C   0  0  0  0  0  0  0  0  0  0  0  0
    4.1866   25.1943   31.5102 C   0  0  0  0  0  0  0  0  0  0  0  0
    3.8137   16.8289   37.2001 C   0  0  0  0  0  0  0  0  0  0  0  0
    3.1388   15.4837   37.0243 N   0  0  0  0  0  0  0  0  0  0  0  0
    1.7601   13.5513   35.3204 N   0  0  0  0  0  0  0  0  0  0  0  0
    3.1432   18.0760   37.7935 C   0  0  0  0  0  0  0  0  0  0  0  0
    1.9674   18.7205   39.9129 C   0  0  2  0  0  0  0  0  0  0  0  0
    4.3658   26.0769   32.5086 O   0  0  0  0  0  0  0  0  0  0  0  0
    2.2528   27.1320   32.9567 C   0  0  0  0  0  0  0  0  0  0  0  0
    3.0382   14.5250   38.1157 C   0  0  0  0  0  0  0  0  0  0  0  0
    3.3507   26.4300   33.3378 C   0  0  0  0  0  0  0  0  0  0  0  0
    2.0429   20.7639   38.5356 C   0  0  0  0  0  0  0  0  0  0  0  0
    4.5044   24.1262   36.0890 H   0  0  0  0  0  0  0  0  0  0  0  0
    3.7728   23.4265   34.7457 H   0  0  0  0  0  0  0  0  0  0  0  0
    4.9721   14.5891   36.2647 H   0  0  0  0  0  0  0  0  0  0  0  0
    4.0695   15.3218   35.0084 H   0  0  0  0  0  0  0  0  0  0  0  0
    3.5802   12.7221   35.2933 H   0  0  0  0  0  0  0  0  0  0  0  0
    2.6821   16.7834   39.4014 H   0  0  0  0  0  0  0  0  0  0  0  0
    0.6175   28.3271   33.6305 H   0  0  0  0  0  0  0  0  0  0  0  0
    0.8745   18.7221   43.0169 H   0  0  0  0  0  0  0  0  0  0  0  0
   -0.3259   18.4103   41.6658 H   0  0  0  0  0  0  0  0  0  0  0  0
   -0.0397   20.9474   42.4341 H   0  0  0  0  0  0  0  0  0  0  0  0
    2.7619   21.1365   36.6933 H   0  0  0  0  0  0  0  0  0  0  0  0
    1.8412   12.9642   37.6929 H   0  0  0  0  0  0  0  0  0  0  0  0
    2.1413   26.1729   37.6051 H   0  0  0  0  0  0  0  0  0  0  0  0
    3.8389   25.6982   37.2595 H   0  0  0  0  0  0  0  0  0  0  0  0
    3.4224   27.4281   37.5060 H   0  0  0  0  0  0  0  0  0  0  0  0
    2.6003   18.2358   41.7381 H   0  0  0  0  0  0  0  0  0  0  0  0
    1.2542   17.2177   40.9341 H   0  0  0  0  0  0  0  0  0  0  0  0
    3.7166   12.0086   38.6294 H   0  0  0  0  0  0  0  0  0  0  0  0
    0.8330   21.9174   40.3710 H   0  0  0  0  0  0  0  0  0  0  0  0
    1.0859   27.8780   36.0934 H   0  0  0  0  0  0  0  0  0  0  0  0
    6.0076   26.0438   35.3862 H   0  0  0  0  0  0  0  0  0  0  0  0
    3.9634   24.2034   31.9324 H   0  0  0  0  0  0  0  0  0  0  0  0
    3.3476   25.5211   30.8782 H   0  0  0  0  0  0  0  0  0  0  0  0
    5.1020   25.1365   30.9031 H   0  0  0  0  0  0  0  0  0  0  0  0
    4.6914   16.6368   37.8348 H   0  0  0  0  0  0  0  0  0  0  0  0
    3.9181   17.1388   36.1498 H   0  0  0  0  0  0  0  0  0  0  0  0
    1.0466   13.4305   36.0533 H   0  0  0  0  0  0  0  0  0  0  0  0
    1.6382   14.4698   34.8706 H   0  0  0  0  0  0  0  0  0  0  0  0
    1.6574   12.8074   34.6154 H   0  0  0  0  0  0  0  0  0  0  0  0
    1.2372   18.8715   39.1042 H   0  0  0  0  0  0  0  0  0  0  0  0
    2.1754   14.7418   38.7626 H   0  0  0  0  0  0  0  0  0  0  0  0
    3.9029   14.5275   38.7957 H   0  0  0  0  0  0  0  0  0  0  0  0
    1.6454   21.7891   38.5051 H   0  0  0  0  0  0  0  0  0  0  0  0
  1  7  1  0
  1  2  1  0
  3 29  1  0
  4  5  1  0
  4 24  1  0
  5 25  1  0
  5 13  1  0
  7 21  2  0
  8 19  2  0
 10 12  2  0
 10 26  1  0
 11  9  1  0
 12 32  1  0
 13 17  1  0
 13 30  1  0
 15 27  1  0
 15 18  1  0
 16  9  1  0
 18 11  2  0
 19 21  1  0
 20  1  1  0
 21 14  1  0
 22 28  1  0
 23 24  1  0
 23 26  1  0
 24 30  1  0
 26  6  2  0
 27  6  1  0
 27 16  1  0
 28 31  1  0
 29 31  2  0
 29  8  1  0
 31  7  1  0
 32 15  2  0
  2 33  1  0
  2 34  1  0
  4 35  1  0
  4 36  1  0
  5 37  1  6
  6 38  1  0
  8 39  1  0
  9 40  1  0
  9 41  1  0
 11 42  1  0
 12 43  1  0
 13 44  1  6
 14 45  1  0
 14 46  1  0
 14 47  1  0
 16 48  1  0
 16 49  1  0
 17 50  1  0
 18 51  1  0
 19 52  1  0
 20 53  1  0
 22 54  1  0
 22 55  1  0
 22 56  1  0
 23 57  1  0
 23 58  1  0
 25 59  1  0
 25 60  1  0
 25 61  1  0
 27 62  1  6
 30 63  1  0
 30 64  1  0
 32 65  1  0
M  CHG  1  25   1
M  END
>  <mol_id>  (76) 
2026-09-18-3war-s0-n100-0077

>  <rmsd_to_ref>  (76) 


$$$$

     RDKit          3D

 41 41  0  0  0  0  0  0  0  0999 V2000
    1.3438   21.2636   41.6721 C   0  0  0  0  0  0  0  0  0  0  0  0
    2.0300   20.5495   40.4554 C   0  0  0  0  0  0  0  0  0  0  0  0
    3.4986   22.0367   34.4821 C   0  0  0  0  0  0  0  0  0  0  0  0
    3.1496   23.4842   33.6448 S   0  0  0  0  0  0  0  0  0  0  0  0
    2.5613   19.3093   40.7640 C   0  0  0  0  0  0  0  0  0  0  0  0
    0.7880   25.9881   29.5067 C   0  0  0  0  0  0  0  0  0  0  0  0
    2.1622   21.1361   39.2231 C   0  0  0  0  0  0  0  0  0  0  0  0
    3.3161   19.1249   38.5005 C   0  0  0  0  0  0  0  0  0  0  0  0
    3.0896   25.2437   32.0301 C   0  0  0  0  0  0  0  0  0  0  0  0
    3.0400   20.8666   36.7988 C   0  0  2  0  0  0  0  0  0  0  0  0
    1.8062   25.5847   30.5616 C   0  0  0  0  0  0  0  0  0  0  0  0
    3.1550   18.5902   39.7355 C   0  0  0  0  0  0  0  0  0  0  0  0
    3.1127   19.9171   35.7411 O   0  0  0  0  0  0  0  0  0  0  0  0
    2.8523   20.4386   38.2202 C   0  0  0  0  0  0  0  0  0  0  0  0
    2.7433   21.9562   35.8456 C   0  0  0  0  0  0  0  0  0  0  0  0
    1.5134   25.7294   31.8066 C   0  0  0  0  0  0  0  0  0  0  0  0
    3.0216   25.0832   30.6462 C   0  0  0  0  0  0  0  0  0  0  0  0
    1.9088   21.0469   42.5907 H   0  0  0  0  0  0  0  0  0  0  0  0
    1.3283   22.3497   41.4987 H   0  0  0  0  0  0  0  0  0  0  0  0
    0.3131   20.8948   41.7800 H   0  0  0  0  0  0  0  0  0  0  0  0
    4.5811   21.9877   34.6718 H   0  0  0  0  0  0  0  0  0  0  0  0
    3.1667   21.1937   33.8582 H   0  0  0  0  0  0  0  0  0  0  0  0
    3.1192   24.5285   34.5311 H   0  0  0  0  0  0  0  0  0  0  0  0
    2.5147   18.9079   41.7871 H   0  0  0  0  0  0  0  0  0  0  0  0
   -0.0307   26.5477   29.9825 H   0  0  0  0  0  0  0  0  0  0  0  0
    1.2747   26.6220   28.7508 H   0  0  0  0  0  0  0  0  0  0  0  0
    0.3836   25.0863   29.0237 H   0  0  0  0  0  0  0  0  0  0  0  0
    1.7367   22.1310   39.0253 H   0  0  0  0  0  0  0  0  0  0  0  0
    3.8086   18.5386   37.7108 H   0  0  0  0  0  0  0  0  0  0  0  0
    3.7843   26.0165   32.3909 H   0  0  0  0  0  0  0  0  0  0  0  0
    3.4122   24.4651   32.7371 H   0  0  0  0  0  0  0  0  0  0  0  0
    3.5799   21.2901   37.6585 H   0  0  0  0  0  0  0  0  0  0  0  0
    1.3857   24.5684   30.5789 H   0  0  0  0  0  0  0  0  0  0  0  0
    3.5022   17.5642   39.9271 H   0  0  0  0  0  0  0  0  0  0  0  0
    3.3923   19.0395   36.1040 H   0  0  0  0  0  0  0  0  0  0  0  0
    2.9418   22.9007   36.3734 H   0  0  0  0  0  0  0  0  0  0  0  0
    1.7058   21.7487   35.5445 H   0  0  0  0  0  0  0  0  0  0  0  0
    1.2837   26.7573   32.1240 H   0  0  0  0  0  0  0  0  0  0  0  0
    0.6490   25.2549   32.2939 H   0  0  0  0  0  0  0  0  0  0  0  0
    3.0808   24.0320   30.3274 H   0  0  0  0  0  0  0  0  0  0  0  0
    3.8153   25.5283   30.0283 H   0  0  0  0  0  0  0  0  0  0  0  0
  2  5  1  0
  2  1  1  0
  3 15  1  0
  4  3  1  0
  6 11  1  0
  7  2  2  0
  8 12  1  0
 10 13  1  0
 10 14  1  0
 11 17  1  0
 11 16  1  0
 12  5  2  0
 14  8  2  0
 14  7  1  0
 15 10  1  0
 16  9  1  0
 17  9  1  0
  1 18  1  0
  1 19  1  0
  1 20  1  0
  3 21  1  0
  3 22  1  0
  4 23  1  0
  5 24  1  0
  6 25  1  0
  6 26  1  0
  6 27  1  0
  7 28  1  0
  8 29  1  0
  9 30  1  0
  9 31  1  0
 10 32  1  1
 11 33  1  0
 12 34  1  0
 13 35  1  0
 15 36  1  0
 15 37  1  0
 16 38  1  0
 16 39  1  0
 17 40  1  0
 17 41  1  0
M  END
>  <mol_id>  (77) 
2026-09-18-3war-s0-n100-0078

>  <rmsd_to_ref>  (77) 


$$$$

     RDKit          3D

 79 82  0  0  0  0  0  0  0  0999 V2000
    1.2606   25.5592   29.5344 C   0  0  0  0  0  0  0  0  0  0  0  0
    4.0055   23.4297   32.9542 C   0  0  0  0  0  0  0  0  0  0  0  0
   -0.5078   19.9467   42.2697 C   0  0  0  0  0  0  0  0  0  0  0  0
    5.6588   24.5499   30.2763 C   0  0  0  0  0  0  0  0  0  0  0  0
    1.6409   20.3841   41.0482 C   0  0  2  0  0  0  0  0  0  0  0  0
    0.6463   19.0208   41.9636 C   0  0  1  0  0  0  0  0  0  0  0  0
    2.3998   24.6431   29.2304 C   0  0  2  0  0  0  0  0  0  0  0  0
    3.4172   20.4639   35.6052 C   0  0  0  0  0  0  0  0  0  0  0  0
    3.7348   22.6092   34.1858 C   0  0  2  0  0  0  0  0  0  0  0  0
    1.1312   18.0224   43.0238 C   0  0  2  0  0  0  0  0  0  0  0  0
    1.2598   25.4825   31.1050 C   0  0  0  0  0  0  0  0  0  0  0  0
    2.5420   22.7882   28.0226 F   0  0  0  0  0  0  0  0  0  0  0  0
    2.6564   25.2138   31.3717 C   0  0  0  0  0  0  0  0  0  0  0  0
    3.8989   21.0737   34.2037 C   0  0  0  0  0  0  0  0  0  0  0  0
    4.5582   24.8893   29.3078 C   0  0  2  0  0  0  0  0  0  0  0  0
    3.5343   24.5761   30.3414 C   0  0  2  0  0  0  0  0  0  0  0  0
   -0.3397   18.4758   45.2660 N   0  0  0  0  0  0  0  0  0  0  0  0
    4.2528   24.6633   27.6456 S   0  0  0  0  0  0  0  0  0  0  0  0
    0.8647   17.6639   41.3618 C   0  0  0  0  0  0  0  0  0  0  0  0
    3.5402   19.6803   37.6830 C   0  0  0  0  0  0  0  0  0  0  0  0
    4.7770   22.4158   32.2135 C   0  0  0  0  0  0  0  0  0  0  0  0
   -0.4801   17.0387   45.7557 C   0  0  0  0  0  0  0  0  0  0  0  0
    3.5567   20.5748   36.6775 C   0  0  0  0  0  0  0  0  0  0  0  0
    2.9662   19.9375   38.8138 C   0  0  0  0  0  0  0  0  0  0  0  0
    4.2301   21.8311   30.9502 C   0  0  0  0  0  0  0  0  0  0  0  0
   -0.2496   16.7422   44.4130 C   0  0  0  0  0  0  0  0  0  0  0  0
   -0.1999   17.8921   43.8104 C   0  0  2  0  0  0  0  0  0  0  0  0
    0.5102   21.1960   41.6349 S   0  0  0  0  0  0  0  0  0  0  0  0
    1.5825   21.4895   38.7465 O   0  0  0  0  0  0  0  0  0  0  0  0
    2.5631   24.1377   27.9284 C   0  0  2  0  0  0  0  0  0  0  0  0
    1.9363   20.6036   39.5740 C   0  0  0  0  0  0  0  0  0  0  0  0
    2.6928   23.1443   34.9896 C   0  0  0  0  0  0  0  0  0  0  0  0
    0.3159   25.1914   29.1073 H   0  0  0  0  0  0  0  0  0  0  0  0
    1.3586   26.5735   29.1202 H   0  0  0  0  0  0  0  0  0  0  0  0
    3.0815   23.7174   32.4313 H   0  0  0  0  0  0  0  0  0  0  0  0
    4.5006   24.3990   33.1132 H   0  0  0  0  0  0  0  0  0  0  0  0
   -1.4256   19.7549   41.6945 H   0  0  0  0  0  0  0  0  0  0  0  0
   -0.9779   20.0066   43.2624 H   0  0  0  0  0  0  0  0  0  0  0  0
    5.2869   24.6565   31.3060 H   0  0  0  0  0  0  0  0  0  0  0  0
    5.9865   23.5131   30.1103 H   0  0  0  0  0  0  0  0  0  0  0  0
    6.5075   25.2321   30.1205 H   0  0  0  0  0  0  0  0  0  0  0  0
    2.7352   20.4128   41.1555 H   0  0  0  0  0  0  0  0  0  0  0  0
    2.0704   23.5999   29.3453 H   0  0  0  0  0  0  0  0  0  0  0  0
    3.6756   19.4032   35.4705 H   0  0  0  0  0  0  0  0  0  0  0  0
    2.5270   21.1099   35.6196 H   0  0  0  0  0  0  0  0  0  0  0  0
    4.6934   22.7639   34.7027 H   0  0  0  0  0  0  0  0  0  0  0  0
    1.9463   17.8026   43.7291 H   0  0  0  0  0  0  0  0  0  0  0  0
    0.9387   26.4334   31.5553 H   0  0  0  0  0  0  0  0  0  0  0  0
    0.5678   24.7354   31.5212 H   0  0  0  0  0  0  0  0  0  0  0  0
    3.1181   26.1811   31.6189 H   0  0  0  0  0  0  0  0  0  0  0  0
    2.6064   24.4423   32.1541 H   0  0  0  0  0  0  0  0  0  0  0  0
    3.2950   20.6374   33.3945 H   0  0  0  0  0  0  0  0  0  0  0  0
    4.9627   20.8321   34.0622 H   0  0  0  0  0  0  0  0  0  0  0  0
    4.7751   25.7980   28.7270 H   0  0  0  0  0  0  0  0  0  0  0  0
    4.1180   23.9295   31.0131 H   0  0  0  0  0  0  0  0  0  0  0  0
   -1.1721   19.0638   45.4151 H   0  0  0  0  0  0  0  0  0  0  0  0
    0.3616   19.1176   45.6624 H   0  0  0  0  0  0  0  0  0  0  0  0
    0.0097   17.0445   41.0529 H   0  0  0  0  0  0  0  0  0  0  0  0
    1.4515   17.2438   40.5317 H   0  0  0  0  0  0  0  0  0  0  0  0
    4.5920   19.4558   37.9142 H   0  0  0  0  0  0  0  0  0  0  0  0
    2.9042   18.8812   37.2745 H   0  0  0  0  0  0  0  0  0  0  0  0
    5.7422   22.8769   31.9573 H   0  0  0  0  0  0  0  0  0  0  0  0
    4.7908   21.5581   32.9020 H   0  0  0  0  0  0  0  0  0  0  0  0
    0.2943   16.6973   46.4583 H   0  0  0  0  0  0  0  0  0  0  0  0
   -1.3388   16.6639   46.3321 H   0  0  0  0  0  0  0  0  0  0  0  0
    4.5490   21.0417   36.7625 H   0  0  0  0  0  0  0  0  0  0  0  0
    2.5717   21.0173   36.8871 H   0  0  0  0  0  0  0  0  0  0  0  0
    2.7594   18.9044   39.1300 H   0  0  0  0  0  0  0  0  0  0  0  0
    3.5815   20.8458   38.8939 H   0  0  0  0  0  0  0  0  0  0  0  0
    3.4423   21.1031   31.1941 H   0  0  0  0  0  0  0  0  0  0  0  0
    3.8078   22.6335   30.3274 H   0  0  0  0  0  0  0  0  0  0  0  0
    5.0379   21.3266   30.4000 H   0  0  0  0  0  0  0  0  0  0  0  0
    0.7027   16.2043   44.2955 H   0  0  0  0  0  0  0  0  0  0  0  0
   -1.0351   16.0949   43.9959 H   0  0  0  0  0  0  0  0  0  0  0  0
   -0.8571   18.2792   43.0177 H   0  0  0  0  0  0  0  0  0  0  0  0
    1.8294   24.4496   27.1706 H   0  0  0  0  0  0  0  0  0  0  0  0
    2.9370   22.9976   36.0520 H   0  0  0  0  0  0  0  0  0  0  0  0
    2.5857   24.2195   34.7831 H   0  0  0  0  0  0  0  0  0  0  0  0
    1.7488   22.6303   34.7561 H   0  0  0  0  0  0  0  0  0  0  0  0
  1 11  1  0
  2  9  1  0
  5 31  1  0
  5 28  1  0
  5  6  1  0
  6 19  1  6
  6  3  1  0
  6 10  1  0
  7  1  1  0
  7 16  1  0
  8 23  1  0
  9 32  1  0
 10 19  1  0
 10 27  1  0
 11 13  1  0
 14  9  1  0
 14  8  1  0
 15  4  1  0
 15 16  1  0
 16 13  1  0
 17 22  1  0
 18 30  1  0
 18 15  1  0
 20 24  1  0
 21  2  1  0
 23 20  1  0
 24 31  1  0
 25 21  1  0
 26 22  1  0
 27 26  1  0
 27 17  1  0
 28  3  1  0
 29 31  2  0
 30 12  1  0
 30  7  1  0
  1 33  1  0
  1 34  1  0
  2 35  1  0
  2 36  1  0
  3 37  1  0
  3 38  1  0
  4 39  1  0
  4 40  1  0
  4 41  1  0
  5 42  1  1
  7 43  1  1
  8 44  1  0
  8 45  1  0
  9 46  1  1
 10 47  1  1
 11 48  1  0
 11 49  1  0
 13 50  1  0
 13 51  1  0
 14 52  1  0
 14 53  1  0
 15 54  1  6
 16 55  1  1
 17 56  1  0
 17 57  1  0
 19 58  1  0
 19 59  1  0
 20 60  1  0
 20 61  1  0
 21 62  1  0
 21 63  1  0
 22 64  1  0
 22 65  1  0
 23 66  1  0
 23 67  1  0
 24 68  1  0
 24 69  1  0
 25 70  1  0
 25 71  1  0
 25 72  1  0
 26 73  1  0
 26 74  1  0
 27 75  1  6
 30 76  1  6
 32 77  1  0
 32 78  1  0
 32 79  1  0
M  CHG  1  17   1
M  END
>  <mol_id>  (78) 
2026-09-18-3war-s0-n100-0079

>  <rmsd_to_ref>  (78) 


$$$$

     RDKit          3D

 74 76  0  0  0  0  0  0  0  0999 V2000
    4.0970   23.6590   31.8200 S   0  0  0  0  0  0  0  0  0  0  0  0
    2.9630   18.6020   38.6650 C   0  0  0  0  0  0  0  0  0  0  0  0
    1.6820   24.9160   29.3800 S   0  0  0  0  0  0  0  0  0  0  0  0
    1.9750   15.2080   36.5120 C   0  0  0  0  0  0  0  0  0  0  0  0
    1.0980   27.6850   32.3120 S   0  0  0  0  0  0  0  0  0  0  0  0
    3.0260   14.9180   37.6890 C   0  0  1  0  0  0  0  0  0  0  0  0
    2.7320   25.0620   30.9020 C   0  0  1  0  0  0  0  0  0  0  0  0
    3.2510   12.8520   36.9940 O   0  0  0  0  0  0  0  0  0  0  0  0
    2.7750   27.9910   33.8120 C   0  0  0  0  0  0  0  0  0  0  0  0
    5.2220   13.9420   37.5120 O   0  0  0  0  0  0  0  0  0  0  0  0
    1.5850   21.9270   38.0340 F   0  0  0  0  0  0  0  0  0  0  0  0
    3.9730   13.8330   37.4620 C   0  0  0  0  0  0  0  0  0  0  0  0
    0.6320   26.1730   29.8560 C   0  0  0  0  0  0  0  0  0  0  0  0
   -0.7210   20.6900   41.7670 C   0  0  0  0  0  0  0  0  0  0  0  0
    2.0790   19.5390   40.6890 N   0  0  0  0  0  0  0  0  0  0  0  0
    3.0330   19.9800   36.7830 O   0  0  0  0  0  0  0  0  0  0  0  0
    2.6280   19.8640   38.0410 C   0  0  0  0  0  0  0  0  0  0  0  0
   -1.1350   19.9260   43.1170 C   0  0  0  0  0  0  0  0  0  0  0  0
    3.3210   21.8790   34.8970 O   0  0  0  0  0  0  0  0  0  0  0  0
    3.5140   16.0880   38.2010 N   0  0  0  0  0  0  0  0  0  0  0  0
    1.7880   20.7000   40.1110 C   0  0  0  0  0  0  0  0  0  0  0  0
    2.7730   14.5710   39.9670 C   0  0  0  0  0  0  0  0  0  0  0  0
    1.7920   14.2120   35.5450 O   0  0  0  0  0  0  0  0  0  0  0  0
    2.6050   18.5500   40.0800 C   0  0  0  0  0  0  0  0  0  0  0  0
    0.6150   26.1740   31.3660 C   0  0  1  0  0  0  0  0  0  0  0  0
    3.4970   17.4420   37.9700 C   0  0  0  0  0  0  0  0  0  0  0  0
    1.3620   22.4280   33.9070 O   0  0  0  0  0  0  0  0  0  0  0  0
    0.5380   21.4720   42.0330 C   0  0  0  0  0  0  0  0  0  0  0  0
    2.0350   20.8550   38.6860 C   0  0  0  0  0  0  0  0  0  0  0  0
    1.0480   26.6200   33.5900 C   0  0  1  0  0  0  0  0  0  0  0  0
    2.1090   25.3240   33.5110 C   0  0  1  0  0  0  0  0  0  0  0  0
    2.5680   22.7040   34.1550 C   0  0  0  0  0  0  0  0  0  0  0  0
    1.8410   25.1020   31.7750 C   0  0  2  0  0  0  0  0  0  0  0  0
    1.2050   21.7910   40.8220 O   0  0  0  0  0  0  0  0  0  0  0  0
    3.1540   13.1770   40.5210 C   0  0  0  0  0  0  0  0  0  0  0  0
    1.7320   27.2890   34.7280 C   0  0  0  0  0  0  0  0  0  0  0  0
    3.5120   26.2230   30.7820 C   0  0  0  0  0  0  0  0  0  0  0  0
    3.5250   15.6060   39.3260 O   0  0  0  0  0  0  0  0  0  0  0  0
    3.1690   23.8710   33.4050 C   0  0  1  0  0  0  0  0  0  0  0  0
    0.9979   15.3936   36.9819 H   0  0  0  0  0  0  0  0  0  0  0  0
    2.4025   16.0578   35.9596 H   0  0  0  0  0  0  0  0  0  0  0  0
    2.4645   14.4509   38.5116 H   0  0  0  0  0  0  0  0  0  0  0  0
    3.5275   28.4975   34.4343 H   0  0  0  0  0  0  0  0  0  0  0  0
    3.2690   27.2409   33.1770 H   0  0  0  0  0  0  0  0  0  0  0  0
    2.2660   28.7311   33.1770 H   0  0  0  0  0  0  0  0  0  0  0  0
    1.0014   27.1386   29.4802 H   0  0  0  0  0  0  0  0  0  0  0  0
   -0.3784   26.0210   29.4485 H   0  0  0  0  0  0  0  0  0  0  0  0
   -1.5272   21.3747   41.4649 H   0  0  0  0  0  0  0  0  0  0  0  0
   -0.5525   19.9645   40.9575 H   0  0  0  0  0  0  0  0  0  0  0  0
    2.8468   20.8107   36.2776 H   0  0  0  0  0  0  0  0  0  0  0  0
   -0.8141   20.5182   43.9866 H   0  0  0  0  0  0  0  0  0  0  0  0
   -2.2269   19.7961   43.1447 H   0  0  0  0  0  0  0  0  0  0  0  0
   -0.6476   18.9402   43.1447 H   0  0  0  0  0  0  0  0  0  0  0  0
    1.9804   14.3457   39.2383 H   0  0  0  0  0  0  0  0  0  0  0  0
    2.7065   15.0682   40.9459 H   0  0  0  0  0  0  0  0  0  0  0  0
    1.6324   13.3433   35.9921 H   0  0  0  0  0  0  0  0  0  0  0  0
    2.7962   17.6234   40.6410 H   0  0  0  0  0  0  0  0  0  0  0  0
   -0.4381   25.9860   31.6224 H   0  0  0  0  0  0  0  0  0  0  0  0
    4.5660   17.6852   37.8801 H   0  0  0  0  0  0  0  0  0  0  0  0
    2.6861   17.3983   37.2280 H   0  0  0  0  0  0  0  0  0  0  0  0
    0.2785   22.4038   42.5568 H   0  0  0  0  0  0  0  0  0  0  0  0
    1.2087   20.8562   42.6503 H   0  0  0  0  0  0  0  0  0  0  0  0
   -0.0097   26.3214   33.6367 H   0  0  0  0  0  0  0  0  0  0  0  0
    1.2810   24.6329   33.7272 H   0  0  0  0  0  0  0  0  0  0  0  0
    1.6415   24.0217   31.7198 H   0  0  0  0  0  0  0  0  0  0  0  0
    3.1464   13.2048   41.6206 H   0  0  0  0  0  0  0  0  0  0  0  0
    2.4268   12.4309   40.1681 H   0  0  0  0  0  0  0  0  0  0  0  0
    4.1596   12.9045   40.1681 H   0  0  0  0  0  0  0  0  0  0  0  0
    2.1837   26.5828   35.4402 H   0  0  0  0  0  0  0  0  0  0  0  0
    1.1318   27.9081   35.4110 H   0  0  0  0  0  0  0  0  0  0  0  0
    3.7652   26.5998   31.7840 H   0  0  0  0  0  0  0  0  0  0  0  0
    4.4365   25.9886   30.2340 H   0  0  0  0  0  0  0  0  0  0  0  0
    2.9455   26.9903   30.2340 H   0  0  0  0  0  0  0  0  0  0  0  0
    4.0928   24.0239   33.9822 H   0  0  0  0  0  0  0  0  0  0  0  0
  1 39  1  0
  2 24  1  0
  3 13  1  0
  3  7  1  0
  5 30  1  0
  6  4  1  0
  6 20  1  0
  7 37  1  6
  7 33  1  0
  7  1  1  0
  8 12  2  0
  9 36  1  0
 11 29  1  0
 12 10  1  0
 12  6  1  0
 14 28  1  0
 14 18  1  0
 16 17  1  0
 17  2  2  0
 17 29  1  0
 20 38  1  0
 21 15  1  0
 21 34  1  0
 22 35  1  0
 23  4  1  0
 24 15  2  0
 25 13  1  0
 25 33  1  0
 25  5  1  0
 26 20  1  0
 26  2  1  0
 27 32  2  0
 29 21  2  0
 30 36  1  0
 31 30  1  0
 32 19  1  0
 33 31  1  0
 34 28  1  0
 38 22  1  0
 39 31  1  0
 39 32  1  0
  4 40  1  0
  4 41  1  0
  6 42  1  1
  9 43  1  0
  9 44  1  0
  9 45  1  0
 13 46  1  0
 13 47  1  0
 14 48  1  0
 14 49  1  0
 16 50  1  0
 18 51  1  0
 18 52  1  0
 18 53  1  0
 22 54  1  0
 22 55  1  0
 23 56  1  0
 24 57  1  0
 25 58  1  6
 26 59  1  0
 26 60  1  0
 28 61  1  0
 28 62  1  0
 30 63  1  1
 31 64  1  6
 33 65  1  1
 35 66  1  0
 35 67  1  0
 35 68  1  0
 36 69  1  0
 36 70  1  0
 37 71  1  0
 37 72  1  0
 37 73  1  0
 39 74  1  1
M  CHG  2  10  -1  19  -1
M  END
>  <mol_id>  (79) 
2026-09-18-3war-s0-n100-0080

>  <rmsd_to_ref>  (79) 


$$$$

     RDKit          3D

 53 54  0  0  0  0  0  0  0  0999 V2000
    0.1883   29.5728   32.9998 C   0  0  0  0  0  0  0  0  0  0  0  0
    2.2671   22.5306   34.8990 C   0  0  0  0  0  0  0  0  0  0  0  0
    3.2818   17.4676   39.8337 C   0  0  0  0  0  0  0  0  0  0  0  0
    3.3788   19.6416   36.8880 N   0  0  0  0  0  0  0  0  0  0  0  0
    1.5481   22.8843   37.2279 C   0  0  0  0  0  0  0  0  0  0  0  0
    2.0677   25.7122   33.6325 C   0  0  0  0  0  0  0  0  0  0  0  0
    3.2675   15.2074   39.4397 O   0  0  0  0  0  0  0  0  0  0  0  0
    2.8922   20.8624   36.5012 C   0  0  0  0  0  0  0  0  0  0  0  0
    2.2512   21.1303   38.7671 C   0  0  0  0  0  0  0  0  0  0  0  0
    2.2155   21.5961   37.5062 C   0  0  0  0  0  0  0  0  0  0  0  0
    3.0618   16.1722   40.3642 C   0  0  0  0  0  0  0  0  0  0  0  0
    0.7844   29.2105   34.2770 C   0  0  0  0  0  0  0  0  0  0  0  0
    3.9367   14.1732   37.3141 C   0  0  0  0  0  0  0  0  0  0  0  0
    0.4571   27.3260   32.1175 C   0  0  0  0  0  0  0  0  0  0  0  0
    3.2239   19.0808   38.1026 C   0  0  0  0  0  0  0  0  0  0  0  0
    5.1169   13.7825   37.2193 O   0  0  0  0  0  0  0  0  0  0  0  0
    1.2161   26.8367   33.4381 C   0  0  0  0  0  0  0  0  0  0  0  0
    2.6355   19.9111   39.0779 C   0  0  0  0  0  0  0  0  0  0  0  0
    3.7334   15.4886   38.1210 C   0  0  0  0  0  0  0  0  0  0  0  0
    1.6314   23.3396   35.9363 C   0  0  0  0  0  0  0  0  0  0  0  0
    1.2590   27.8682   34.3813 C   0  0  0  0  0  0  0  0  0  0  0  0
    0.2165   26.3203   30.9373 C   0  0  0  0  0  0  0  0  0  0  0  0
    2.9922   13.7379   36.7237 O   0  0  0  0  0  0  0  0  0  0  0  0
    2.3943   25.8270   35.2005 N   0  0  0  0  0  0  0  0  0  0  0  0
    2.8696   21.3590   35.1875 C   0  0  0  0  0  0  0  0  0  0  0  0
    3.4800   17.7971   38.5143 C   0  0  0  0  0  0  0  0  0  0  0  0
   -0.0099   28.6383   32.0373 C   0  0  0  0  0  0  0  0  0  0  0  0
   -0.1048   30.6165   32.8131 H   0  0  0  0  0  0  0  0  0  0  0  0
    2.2541   22.8856   33.8580 H   0  0  0  0  0  0  0  0  0  0  0  0
    2.4042   18.0539   40.1438 H   0  0  0  0  0  0  0  0  0  0  0  0
    4.2980   17.6453   40.2154 H   0  0  0  0  0  0  0  0  0  0  0  0
    1.0159   23.4454   38.0100 H   0  0  0  0  0  0  0  0  0  0  0  0
    2.9813   25.7900   33.0248 H   0  0  0  0  0  0  0  0  0  0  0  0
    1.6190   24.7526   33.3364 H   0  0  0  0  0  0  0  0  0  0  0  0
    1.9431   21.8034   39.5807 H   0  0  0  0  0  0  0  0  0  0  0  0
    3.7512   16.0109   41.2061 H   0  0  0  0  0  0  0  0  0  0  0  0
    2.0138   16.1117   40.6929 H   0  0  0  0  0  0  0  0  0  0  0  0
    0.8642   29.9255   35.1091 H   0  0  0  0  0  0  0  0  0  0  0  0
    2.4969   19.5380   40.1034 H   0  0  0  0  0  0  0  0  0  0  0  0
    4.6917   16.0248   38.1838 H   0  0  0  0  0  0  0  0  0  0  0  0
    2.9823   16.1054   37.6059 H   0  0  0  0  0  0  0  0  0  0  0  0
    1.2149   24.3247   35.6790 H   0  0  0  0  0  0  0  0  0  0  0  0
    1.7260   27.6076   35.3426 H   0  0  0  0  0  0  0  0  0  0  0  0
    0.2216   25.2911   31.3258 H   0  0  0  0  0  0  0  0  0  0  0  0
   -0.7563   26.5305   30.4688 H   0  0  0  0  0  0  0  0  0  0  0  0
    1.0156   26.4340   30.1899 H   0  0  0  0  0  0  0  0  0  0  0  0
    1.7105   25.2725   35.7352 H   0  0  0  0  0  0  0  0  0  0  0  0
    3.3430   25.4686   35.3807 H   0  0  0  0  0  0  0  0  0  0  0  0
    2.3389   26.8135   35.4913 H   0  0  0  0  0  0  0  0  0  0  0  0
    3.3503   20.7840   34.3824 H   0  0  0  0  0  0  0  0  0  0  0  0
    2.8383   17.1331   37.9166 H   0  0  0  0  0  0  0  0  0  0  0  0
    4.5658   17.6878   38.3757 H   0  0  0  0  0  0  0  0  0  0  0  0
   -0.5729   28.9326   31.1392 H   0  0  0  0  0  0  0  0  0  0  0  0
  1 12  2  0
  2 25  1  0
  2 20  2  0
  3 11  1  0
  4 15  2  0
  5 10  2  0
  6 24  1  0
  7 11  1  0
  8  4  1  0
  8 10  1  0
  9 18  2  0
 10  9  1  0
 12 21  1  0
 13 16  1  0
 13 19  1  0
 14 17  1  0
 15 26  1  0
 15 18  1  0
 17  6  1  0
 17 21  2  0
 19  7  1  0
 20  5  1  0
 22 14  1  0
 23 13  2  0
 25  8  2  0
 26  3  1  0
 27 14  2  0
 27  1  1  0
  1 28  1  0
  2 29  1  0
  3 30  1  0
  3 31  1  0
  5 32  1  0
  6 33  1  0
  6 34  1  0
  9 35  1  0
 11 36  1  0
 11 37  1  0
 12 38  1  0
 18 39  1  0
 19 40  1  0
 19 41  1  0
 20 42  1  0
 21 43  1  0
 22 44  1  0
 22 45  1  0
 22 46  1  0
 24 47  1  0
 24 48  1  0
 24 49  1  0
 25 50  1  0
 26 51  1  0
 26 52  1  0
 27 53  1  0
M  CHG  2  16  -1  24   1
M  END
>  <mol_id>  (80) 
2026-09-18-3war-s0-n100-0082

>  <rmsd_to_ref>  (80) 


$$$$

     RDKit          3D

 73 76  0  0  0  0  0  0  0  0999 V2000
    2.0970   25.0110   28.4400 C   0  0  0  0  0  0  0  0  0  0  0  0
    2.6210   17.3300   39.8300 C   0  0  0  0  0  0  0  0  0  0  0  0
   -1.6460   20.3620   43.1560 C   0  0  0  0  0  0  0  0  0  0  0  0
    1.3830   20.2550   41.6070 C   0  0  0  0  0  0  0  0  0  0  0  0
    2.8420   21.0890   35.9390 C   0  0  0  0  0  0  0  0  0  0  0  0
    3.8890   13.4270   38.1320 O   0  0  0  0  0  0  0  0  0  0  0  0
    4.2700   12.6570   35.1970 O   0  0  0  0  0  0  0  0  0  0  0  0
    2.8430   18.5590   37.7820 C   0  0  0  0  0  0  0  0  0  0  0  0
    1.9110   19.6180   40.4100 C   0  0  0  0  0  0  0  0  0  0  0  0
    4.3350   25.1470   27.5250 C   0  0  0  0  0  0  0  0  0  0  0  0
    4.1840   23.6670   30.8580 C   0  0  2  0  0  0  0  0  0  0  0  0
    0.3790   20.5520   41.8700 N   0  0  0  0  0  0  0  0  0  0  0  0
    2.1720   18.3350   40.5440 C   0  0  0  0  0  0  0  0  0  0  0  0
    3.0790   15.9450   37.7700 C   0  0  0  0  0  0  0  0  0  0  0  0
    2.3380   15.0940   36.8820 C   0  0  0  0  0  0  0  0  0  0  0  0
    2.8890   22.4870   33.7970 C   0  0  0  0  0  0  0  0  0  0  0  0
   -1.9490   21.6950   42.5290 C   0  0  2  0  0  0  0  0  0  0  0  0
    2.5470   24.1870   30.8430 C   0  0  0  0  0  0  0  0  0  0  0  0
    4.5400   23.5080   32.0130 C   0  0  0  0  0  0  0  0  0  0  0  0
   -0.5830   21.1150   42.7710 C   0  0  1  0  0  0  0  0  0  0  0  0
    2.9090   25.3460   27.4290 C   0  0  0  0  0  0  0  0  0  0  0  0
    4.8970   24.6060   28.5490 C   0  0  0  0  0  0  0  0  0  0  0  0
    1.9270   13.3520   35.0150 O   0  0  0  0  0  0  0  0  0  0  0  0
    2.7360   24.6350   29.5550 C   0  0  0  0  0  0  0  0  0  0  0  0
    3.0800   13.8130   37.0930 C   0  0  2  0  0  0  0  0  0  0  0  0
   -2.2140   23.0130   43.3320 C   0  0  0  0  0  0  0  0  0  0  0  0
    2.6510   20.8950   37.0610 C   0  0  0  0  0  0  0  0  0  0  0  0
    3.6870   22.9600   32.9110 C   0  0  0  0  0  0  0  0  0  0  0  0
    2.1040   20.3810   39.3220 C   0  0  0  0  0  0  0  0  0  0  0  0
    3.2810   21.5600   34.8120 C   0  0  0  0  0  0  0  0  0  0  0  0
    2.9990   12.8190   35.9160 C   0  0  0  0  0  0  0  0  0  0  0  0
   -2.2130   21.5560   41.0790 C   0  0  0  0  0  0  0  0  0  0  0  0
   -3.4760   23.7500   43.2860 C   0  0  0  0  0  0  0  0  0  0  0  0
    4.2050   24.2580   29.5460 C   0  0  0  0  0  0  0  0  0  0  0  0
    2.8470   17.3620   38.4460 C   0  0  0  0  0  0  0  0  0  0  0  0
    2.5590   19.8650   38.1250 C   0  0  0  0  0  0  0  0  0  0  0  0
    1.0003   25.0420   28.3612 H   0  0  0  0  0  0  0  0  0  0  0  0
    2.8370   16.3893   40.3577 H   0  0  0  0  0  0  0  0  0  0  0  0
   -1.8423   20.2110   44.2278 H   0  0  0  0  0  0  0  0  0  0  0  0
   -1.9643   19.3316   42.9394 H   0  0  0  0  0  0  0  0  0  0  0  0
    2.1377   20.4714   42.3774 H   0  0  0  0  0  0  0  0  0  0  0  0
    3.4457   13.6385   38.9916 H   0  0  0  0  0  0  0  0  0  0  0  0
    5.0086   12.5629   35.8495 H   0  0  0  0  0  0  0  0  0  0  0  0
    3.1349   18.4554   36.7265 H   0  0  0  0  0  0  0  0  0  0  0  0
    4.9692   25.4716   26.6869 H   0  0  0  0  0  0  0  0  0  0  0  0
    5.0005   22.9307   30.8238 H   0  0  0  0  0  0  0  0  0  0  0  0
    1.2007   17.9469   40.8844 H   0  0  0  0  0  0  0  0  0  0  0  0
    3.1577   18.5270   40.9928 H   0  0  0  0  0  0  0  0  0  0  0  0
    4.0244   16.0913   37.2271 H   0  0  0  0  0  0  0  0  0  0  0  0
    2.8192   15.3743   38.6738 H   0  0  0  0  0  0  0  0  0  0  0  0
    2.3992   15.4368   35.8386 H   0  0  0  0  0  0  0  0  0  0  0  0
    1.2559   15.0457   37.0735 H   0  0  0  0  0  0  0  0  0  0  0  0
    1.8392   22.8147   33.7743 H   0  0  0  0  0  0  0  0  0  0  0  0
    1.8113   23.3748   30.9383 H   0  0  0  0  0  0  0  0  0  0  0  0
    2.1546   24.8534   31.6253 H   0  0  0  0  0  0  0  0  0  0  0  0
    5.5511   23.8087   32.3250 H   0  0  0  0  0  0  0  0  0  0  0  0
    0.3007   21.6015   43.2096 H   0  0  0  0  0  0  0  0  0  0  0  0
    2.4827   25.7791   26.5121 H   0  0  0  0  0  0  0  0  0  0  0  0
    5.9853   24.4462   28.5554 H   0  0  0  0  0  0  0  0  0  0  0  0
    1.1883   13.7193   35.5623 H   0  0  0  0  0  0  0  0  0  0  0  0
    3.9521   14.2319   36.5696 H   0  0  0  0  0  0  0  0  0  0  0  0
   -2.0548   22.7568   44.3898 H   0  0  0  0  0  0  0  0  0  0  0  0
   -1.5392   23.7141   42.8191 H   0  0  0  0  0  0  0  0  0  0  0  0
    2.4594   21.8700   37.5329 H   0  0  0  0  0  0  0  0  0  0  0  0
    1.8915   21.4583   39.3869 H   0  0  0  0  0  0  0  0  0  0  0  0
    4.2517   21.1073   34.5613 H   0  0  0  0  0  0  0  0  0  0  0  0
    2.7697   11.8095   36.2879 H   0  0  0  0  0  0  0  0  0  0  0  0
   -3.1772   21.0483   40.9289 H   0  0  0  0  0  0  0  0  0  0  0  0
   -2.2474   22.5529   40.6153 H   0  0  0  0  0  0  0  0  0  0  0  0
   -1.4105   20.9635   40.6153 H   0  0  0  0  0  0  0  0  0  0  0  0
   -3.8206   23.9513   44.3110 H   0  0  0  0  0  0  0  0  0  0  0  0
   -3.3255   24.7022   42.7562 H   0  0  0  0  0  0  0  0  0  0  0  0
   -4.2313   23.1510   42.7562 H   0  0  0  0  0  0  0  0  0  0  0  0
  1 24  2  0
  2 13  1  0
  4 12  2  3
  5 27  2  0
  7 31  1  0
  8 36  2  0
  8 35  1  0
  9 13  1  0
  9  4  1  0
 10 22  1  0
 11 19  1  0
 14 35  1  0
 15 25  1  0
 15 14  1  0
 16 30  1  0
 17 32  1  6
 17 20  1  0
 17  3  1  0
 17 26  1  0
 18 11  1  0
 19 28  2  0
 20 12  1  0
 20  3  1  0
 21 10  2  0
 21  1  1  0
 22 34  2  0
 23 31  1  0
 24 18  1  0
 25  6  1  0
 27 36  1  0
 28 16  2  0
 29  9  2  0
 30  5  2  0
 31 25  1  0
 33 26  1  0
 34 24  1  0
 34 11  1  0
 35  2  2  0
 36 29  1  0
  1 37  1  0
  2 38  1  0
  3 39  1  0
  3 40  1  0
  4 41  1  0
  6 42  1  0
  7 43  1  0
  8 44  1  0
 10 45  1  0
 11 46  1  6
 13 47  1  0
 13 48  1  0
 14 49  1  0
 14 50  1  0
 15 51  1  0
 15 52  1  0
 16 53  1  0
 18 54  1  0
 18 55  1  0
 19 56  1  0
 20 57  1  1
 21 58  1  0
 22 59  1  0
 23 60  1  0
 25 61  1  1
 26 62  1  0
 26 63  1  0
 27 64  1  0
 29 65  1  0
 30 66  1  0
 31 67  1  0
 32 68  1  0
 32 69  1  0
 32 70  1  0
 33 71  1  0
 33 72  1  0
 33 73  1  0
M  END
>  <mol_id>  (81) 
2026-09-18-3war-s0-n100-0083

>  <rmsd_to_ref>  (81) 


$$$$

     RDKit          3D

 52 56  0  0  0  0  0  0  0  0999 V2000
    1.5522   26.3455   31.8720 C   0  0  2  0  0  0  0  0  0  0  0  0
    3.5904   12.9117   39.5817 N   0  0  0  0  0  0  0  0  0  0  0  0
    2.6169   22.0292   35.8113 S   0  0  0  0  0  0  0  0  0  0  0  0
    3.4482   22.3894   33.2514 C   0  0  1  0  0  0  0  0  0  0  0  0
    2.6413   22.3283   38.4416 N   0  0  0  0  0  0  0  0  0  0  0  0
    2.8597   21.3860   37.4973 C   0  0  0  0  0  0  0  0  0  0  0  0
    2.2899   22.3170   40.7990 O   0  0  0  0  0  0  0  0  0  0  0  0
    2.7723   20.2964   39.6034 C   0  0  0  0  0  0  0  0  0  0  0  0
    0.8210   28.5293   31.4548 F   0  0  0  0  0  0  0  0  0  0  0  0
    3.4231   13.8930   38.7303 C   0  0  0  0  0  0  0  0  0  0  0  0
    3.4843   18.7610   37.9509 C   0  0  0  0  0  0  0  0  0  0  0  0
    2.2447   25.6379   32.8504 C   0  0  0  0  0  0  0  0  0  0  0  0
    2.5226   24.6156   30.2681 C   0  0  2  0  0  0  0  0  0  0  0  0
    3.0547   20.0430   38.2657 C   0  0  0  0  0  0  0  0  0  0  0  0
    2.6888   19.1883   40.5401 C   0  0  0  0  0  0  0  0  0  0  0  0
    3.5550   21.4555   34.3910 C   0  0  0  0  0  0  0  0  0  0  0  0
    3.2569   15.5514   40.4771 C   0  0  0  0  0  0  0  0  0  0  0  0
    2.5475   21.7798   39.7106 C   0  0  0  0  0  0  0  0  0  0  0  0
    3.6902   16.3341   38.3274 C   0  0  0  0  0  0  0  0  0  0  0  0
    2.1950   22.2528   32.6857 F   0  0  0  0  0  0  0  0  0  0  0  0
    3.5128   15.2765   39.1521 C   0  0  0  0  0  0  0  0  0  0  0  0
    0.3787   27.2461   31.9254 C   0  0  0  0  0  0  0  0  0  0  0  0
    3.8782   23.7839   33.5025 C   0  0  0  0  0  0  0  0  0  0  0  0
    3.0500   17.9146   40.0993 C   0  0  0  0  0  0  0  0  0  0  0  0
    1.8925   25.9867   30.5009 C   0  0  1  0  0  0  0  0  0  0  0  0
    3.5503   17.6404   38.7498 C   0  0  0  0  0  0  0  0  0  0  0  0
    3.0660   16.8144   40.9448 C   0  0  0  0  0  0  0  0  0  0  0  0
    1.0751   24.7286   30.2805 C   0  0  0  0  0  0  0  0  0  0  0  0
    3.3319   24.6746   32.4750 C   0  0  0  0  0  0  0  0  0  0  0  0
    3.7595   24.4649   31.1892 N   0  0  0  0  0  0  0  0  0  0  0  0
    1.8172   26.9720   32.7364 H   0  0  0  0  0  0  0  0  0  0  0  0
    3.5226   11.9351   39.2616 H   0  0  0  0  0  0  0  0  0  0  0  0
    4.2066   22.0958   32.5106 H   0  0  0  0  0  0  0  0  0  0  0  0
    3.2107   13.6627   37.6759 H   0  0  0  0  0  0  0  0  0  0  0  0
    3.8206   18.6193   36.9132 H   0  0  0  0  0  0  0  0  0  0  0  0
    1.9919   25.7865   33.9106 H   0  0  0  0  0  0  0  0  0  0  0  0
    3.0359   23.8779   29.6339 H   0  0  0  0  0  0  0  0  0  0  0  0
    2.3483   19.3500   41.5735 H   0  0  0  0  0  0  0  0  0  0  0  0
    3.1699   20.4721   34.0832 H   0  0  0  0  0  0  0  0  0  0  0  0
    4.6135   21.3910   34.6830 H   0  0  0  0  0  0  0  0  0  0  0  0
    3.2046   14.7135   41.1879 H   0  0  0  0  0  0  0  0  0  0  0  0
    3.9570   16.1452   37.2772 H   0  0  0  0  0  0  0  0  0  0  0  0
   -0.4241   26.8614   31.2792 H   0  0  0  0  0  0  0  0  0  0  0  0
   -0.0202   27.3158   32.9482 H   0  0  0  0  0  0  0  0  0  0  0  0
    3.5157   24.1036   34.4907 H   0  0  0  0  0  0  0  0  0  0  0  0
    4.9768   23.8318   33.4720 H   0  0  0  0  0  0  0  0  0  0  0  0
    2.1317   26.9717   30.0735 H   0  0  0  0  0  0  0  0  0  0  0  0
    2.9200   16.9680   42.0242 H   0  0  0  0  0  0  0  0  0  0  0  0
    0.5109   24.6026   29.3448 H   0  0  0  0  0  0  0  0  0  0  0  0
    0.2718   24.2283   30.8412 H   0  0  0  0  0  0  0  0  0  0  0  0
    4.1547   23.5182   31.0981 H   0  0  0  0  0  0  0  0  0  0  0  0
    4.4931   25.1406   30.9318 H   0  0  0  0  0  0  0  0  0  0  0  0
  1 22  1  0
  1 12  1  0
  3  6  1  0
  4 20  1  0
  4 23  1  0
  4 16  1  0
  5 18  1  0
  6 14  1  0
  6  5  2  0
  8 18  1  0
  8 15  2  0
  9 22  1  0
 10 21  1  0
 10  2  2  3
 11 14  2  0
 11 26  1  0
 13 28  1  0
 13 25  1  0
 13 30  1  0
 14  8  1  0
 16  3  1  0
 17 27  1  0
 18  7  2  0
 19 26  2  0
 19 21  1  0
 21 17  2  0
 24 15  1  0
 24 27  2  0
 25 28  1  0
 25  1  1  0
 26 24  1  0
 29 12  2  0
 29 23  1  0
 30 29  1  0
  1 31  1  6
  2 32  1  0
  4 33  1  6
 10 34  1  0
 11 35  1  0
 12 36  1  0
 13 37  1  6
 15 38  1  0
 16 39  1  0
 16 40  1  0
 17 41  1  0
 19 42  1  0
 22 43  1  0
 22 44  1  0
 23 45  1  0
 23 46  1  0
 25 47  1  6
 27 48  1  0
 28 49  1  0
 28 50  1  0
 30 51  1  0
 30 52  1  0
M  CHG  1  30   1
M  END
>  <mol_id>  (82) 
2026-09-18-3war-s0-n100-0084

>  <rmsd_to_ref>  (82) 


$$$$

     RDKit          3D

 40 41  0  0  0  0  0  0  0  0999 V2000
    3.9761   22.9295   33.1579 O   0  0  0  0  0  0  0  0  0  0  0  0
    1.2028   16.9082   41.4042 C   0  0  0  0  0  0  0  0  0  0  0  0
    2.8220   20.7778   36.1115 C   0  0  0  0  0  0  0  0  0  0  0  0
    1.7368   24.8081   30.4557 S   0  0  0  0  0  0  0  0  0  0  0  0
    3.6416   22.7550   34.5157 C   0  0  2  0  0  0  0  0  0  0  0  0
    3.0594   19.5726   38.0803 N   0  0  0  0  0  0  0  0  0  0  0  0
    2.4939   15.3263   39.9916 N   0  0  0  0  0  0  0  0  0  0  0  0
    3.4529   23.8750   32.3121 C   0  0  1  0  0  0  0  0  0  0  0  0
    2.3818   19.6178   40.2696 O   0  0  0  0  0  0  0  0  0  0  0  0
    1.7805   21.3955   36.3764 O   0  0  0  0  0  0  0  0  0  0  0  0
    3.0124   24.2154   29.5329 C   0  0  0  0  0  0  0  0  0  0  0  0
    2.1891   16.5819   40.2636 C   0  0  0  0  0  0  0  0  0  0  0  0
    3.2716   19.7184   36.9096 N   0  0  0  0  0  0  0  0  0  0  0  0
    1.3333   24.7288   32.9384 O   0  0  0  0  0  0  0  0  0  0  0  0
    3.6866   21.3071   35.0123 C   0  0  0  0  0  0  0  0  0  0  0  0
    4.4519   24.1656   31.3344 C   0  0  0  0  0  0  0  0  0  0  0  0
    2.2255   24.4587   32.0396 C   0  0  0  0  0  0  0  0  0  0  0  0
    2.3460   23.3067   34.6043 O   0  0  0  0  0  0  0  0  0  0  0  0
    3.2173   15.2135   38.8738 C   0  0  0  0  0  0  0  0  0  0  0  0
    2.6385   18.9750   39.3586 C   0  0  0  0  0  0  0  0  0  0  0  0
    4.1080   23.6400   30.1670 C   0  0  0  0  0  0  0  0  0  0  0  0
    2.7604   17.5355   39.4565 C   0  0  0  0  0  0  0  0  0  0  0  0
    3.6466   16.6979   38.1986 S   0  0  0  0  0  0  0  0  0  0  0  0
    1.6391   16.5995   42.3657 H   0  0  0  0  0  0  0  0  0  0  0  0
    1.0069   17.9906   41.4211 H   0  0  0  0  0  0  0  0  0  0  0  0
    0.2593   16.3673   41.2391 H   0  0  0  0  0  0  0  0  0  0  0  0
    4.3799   23.2431   35.1689 H   0  0  0  0  0  0  0  0  0  0  0  0
    3.4062   20.4786   38.4263 H   0  0  0  0  0  0  0  0  0  0  0  0
    2.8123   24.0863   33.1810 H   0  0  0  0  0  0  0  0  0  0  0  0
    3.3940   25.0573   28.9366 H   0  0  0  0  0  0  0  0  0  0  0  0
    2.5636   23.3760   28.9814 H   0  0  0  0  0  0  0  0  0  0  0  0
    3.8393   18.9948   36.4459 H   0  0  0  0  0  0  0  0  0  0  0  0
    3.4691   20.6824   34.1334 H   0  0  0  0  0  0  0  0  0  0  0  0
    4.6771   21.2781   35.4899 H   0  0  0  0  0  0  0  0  0  0  0  0
    4.5517   25.2559   31.2281 H   0  0  0  0  0  0  0  0  0  0  0  0
    5.4106   23.7338   31.6573 H   0  0  0  0  0  0  0  0  0  0  0  0
    2.0602   23.3274   35.5519 H   0  0  0  0  0  0  0  0  0  0  0  0
    3.5049   14.2461   38.4365 H   0  0  0  0  0  0  0  0  0  0  0  0
    3.8798   22.5766   30.3320 H   0  0  0  0  0  0  0  0  0  0  0  0
    4.9632   23.8217   29.4993 H   0  0  0  0  0  0  0  0  0  0  0  0
  1  5  1  0
  3 10  2  0
  3 13  1  0
  4 17  1  0
  5 18  1  0
  5 15  1  0
  6 20  1  0
  7 12  1  0
  8  1  1  0
 11 21  1  0
 11  4  1  0
 12  2  1  0
 13  6  1  0
 15  3  1  0
 16  8  1  0
 17  8  1  0
 17 14  2  0
 19  7  2  0
 20 22  1  0
 20  9  2  0
 21 16  1  0
 22 12  2  0
 23 19  1  0
 23 22  1  0
  2 24  1  0
  2 25  1  0
  2 26  1  0
  5 27  1  1
  6 28  1  0
  8 29  1  1
 11 30  1  0
 11 31  1  0
 13 32  1  0
 15 33  1  0
 15 34  1  0
 16 35  1  0
 16 36  1  0
 18 37  1  0
 19 38  1  0
 21 39  1  0
 21 40  1  0
M  END
>  <mol_id>  (83) 
2026-09-18-3war-s0-n100-0085

>  <rmsd_to_ref>  (83) 


$$$$

     RDKit          3D

 65 65  0  0  0  0  0  0  0  0999 V2000
    3.2230   20.4590   36.2070 C   0  0  0  0  0  0  0  0  0  0  0  0
    1.6990   17.5670   40.7620 C   0  0  0  0  0  0  0  0  0  0  0  0
    2.6670   24.5520   34.1770 C   0  0  0  0  0  0  0  0  0  0  0  0
    2.0340   24.9340   31.6680 C   0  0  0  0  0  0  0  0  0  0  0  0
    1.0590   26.9550   30.7920 C   0  0  0  0  0  0  0  0  0  0  0  0
    2.6950   18.6590   37.3200 C   0  0  0  0  0  0  0  0  0  0  0  0
    1.1650   26.8290   31.9300 C   0  0  0  0  0  0  0  0  0  0  0  0
    2.1090   17.6120   42.3000 C   0  0  0  0  0  0  0  0  0  0  0  0
    2.5040   20.1680   37.5150 C   0  0  0  0  0  0  0  0  0  0  0  0
    2.1210   25.0920   30.2500 C   0  0  0  0  0  0  0  0  0  0  0  0
    4.9130   21.9210   34.3450 O   0  0  0  0  0  0  0  0  0  0  0  0
    2.2870   17.8650   38.4310 O   0  0  0  0  0  0  0  0  0  0  0  0
    3.2810   23.5050   33.8180 C   0  0  0  0  0  0  0  0  0  0  0  0
    3.2640   15.4490   37.9190 C   0  0  0  0  0  0  0  0  0  0  0  0
    3.5730   22.2480   34.4390 C   0  0  0  0  0  0  0  0  0  0  0  0
    2.4530   25.4850   32.8000 C   0  0  0  0  0  0  0  0  0  0  0  0
    2.7080   21.5770   35.2000 C   0  0  0  0  0  0  0  0  0  0  0  0
    3.2270   15.8160   39.4280 C   0  0  1  0  0  0  0  0  0  0  0  0
    2.7440   17.4580   39.7230 C   0  0  2  0  0  0  0  0  0  0  0  0
    1.3890   26.3680   33.2760 C   0  0  0  0  0  0  0  0  0  0  0  0
    4.1510   13.1670   39.7100 O   0  0  0  0  0  0  0  0  0  0  0  0
    3.8890   18.4870   39.8230 C   0  0  0  0  0  0  0  0  0  0  0  0
    2.1840   12.5940   40.5530 O   0  0  0  0  0  0  0  0  0  0  0  0
    3.0880   13.5620   40.1670 C   0  0  0  0  0  0  0  0  0  0  0  0
    1.9690   26.2040   29.4330 C   0  0  0  0  0  0  0  0  0  0  0  0
    2.5660   14.9300   40.4270 C   0  0  0  0  0  0  0  0  0  0  0  0
    4.2533   20.7356   36.4754 H   0  0  0  0  0  0  0  0  0  0  0  0
    3.0534   19.5341   35.6362 H   0  0  0  0  0  0  0  0  0  0  0  0
    1.0336   16.7002   40.6357 H   0  0  0  0  0  0  0  0  0  0  0  0
    1.2687   18.5638   40.5851 H   0  0  0  0  0  0  0  0  0  0  0  0
    1.6913   24.2886   34.6113 H   0  0  0  0  0  0  0  0  0  0  0  0
    3.2369   25.1012   34.9410 H   0  0  0  0  0  0  0  0  0  0  0  0
    2.4007   23.9038   31.7875 H   0  0  0  0  0  0  0  0  0  0  0  0
    1.0825   25.4844   31.7086 H   0  0  0  0  0  0  0  0  0  0  0  0
    0.0127   26.6803   30.5925 H   0  0  0  0  0  0  0  0  0  0  0  0
    1.5137   27.9543   30.7235 H   0  0  0  0  0  0  0  0  0  0  0  0
    2.1094   18.3488   36.4420 H   0  0  0  0  0  0  0  0  0  0  0  0
    3.7753   18.4930   37.1957 H   0  0  0  0  0  0  0  0  0  0  0  0
    1.8426   27.6892   32.0348 H   0  0  0  0  0  0  0  0  0  0  0  0
    0.3241   26.1216   31.8803 H   0  0  0  0  0  0  0  0  0  0  0  0
    1.2077   17.5131   42.9228 H   0  0  0  0  0  0  0  0  0  0  0  0
    2.7993   16.7842   42.5198 H   0  0  0  0  0  0  0  0  0  0  0  0
    2.6033   18.5698   42.5198 H   0  0  0  0  0  0  0  0  0  0  0  0
    3.0152   20.5698   38.4022 H   0  0  0  0  0  0  0  0  0  0  0  0
    1.4960   20.5736   37.6865 H   0  0  0  0  0  0  0  0  0  0  0  0
    3.1314   24.7295   30.0099 H   0  0  0  0  0  0  0  0  0  0  0  0
    1.1540   24.6255   30.0107 H   0  0  0  0  0  0  0  0  0  0  0  0
    5.2445   21.0741   34.7362 H   0  0  0  0  0  0  0  0  0  0  0  0
    2.7460   23.2084   32.9038 H   0  0  0  0  0  0  0  0  0  0  0  0
    4.2868   23.9246   33.9672 H   0  0  0  0  0  0  0  0  0  0  0  0
    3.3738   14.3600   37.8091 H   0  0  0  0  0  0  0  0  0  0  0  0
    2.3286   15.7735   37.4397 H   0  0  0  0  0  0  0  0  0  0  0  0
    4.1158   15.9536   37.4397 H   0  0  0  0  0  0  0  0  0  0  0  0
    3.4314   25.8779   32.4865 H   0  0  0  0  0  0  0  0  0  0  0  0
    1.6326   21.7978   35.1310 H   0  0  0  0  0  0  0  0  0  0  0  0
    4.2943   15.6409   39.6284 H   0  0  0  0  0  0  0  0  0  0  0  0
    1.7322   27.1518   33.9673 H   0  0  0  0  0  0  0  0  0  0  0  0
    0.5564   25.9642   33.8708 H   0  0  0  0  0  0  0  0  0  0  0  0
    4.1111   18.6866   40.8817 H   0  0  0  0  0  0  0  0  0  0  0  0
    4.7865   18.0860   39.3293 H   0  0  0  0  0  0  0  0  0  0  0  0
    3.5858   19.4221   39.3293 H   0  0  0  0  0  0  0  0  0  0  0  0
    2.9072   26.7138   29.1687 H   0  0  0  0  0  0  0  0  0  0  0  0
    1.5492   26.1307   28.4189 H   0  0  0  0  0  0  0  0  0  0  0  0
    2.8203   15.2488   41.4486 H   0  0  0  0  0  0  0  0  0  0  0  0
    1.4703   14.9679   40.3379 H   0  0  0  0  0  0  0  0  0  0  0  0
  1  9  1  0
  2  8  1  0
  4 16  1  0
  5  7  1  0
  6  9  1  0
  6 12  1  0
  7 20  1  0
 10  4  1  0
 11 15  1  0
 19 12  1  6
 13  3  1  0
 13 15  1  0
 15 17  2  3
 16 20  1  0
 16  3  1  0
 17  1  1  0
 18 14  1  0
 18 19  1  0
 18 26  1  0
 19 22  1  0
 19  2  1  0
 21 24  2  0
 24 26  1  0
 24 23  1  0
 25 10  1  0
 25  5  1  0
  1 27  1  0
  1 28  1  0
  2 29  1  0
  2 30  1  0
  3 31  1  0
  3 32  1  0
  4 33  1  0
  4 34  1  0
  5 35  1  0
  5 36  1  0
  6 37  1  0
  6 38  1  0
  7 39  1  0
  7 40  1  0
  8 41  1  0
  8 42  1  0
  8 43  1  0
  9 44  1  0
  9 45  1  0
 10 46  1  0
 10 47  1  0
 11 48  1  0
 13 49  1  0
 13 50  1  0
 14 51  1  0
 14 52  1  0
 14 53  1  0
 16 54  1  0
 17 55  1  0
 18 56  1  1
 20 57  1  0
 20 58  1  0
 22 59  1  0
 22 60  1  0
 22 61  1  0
 25 62  1  0
 25 63  1  0
 26 64  1  0
 26 65  1  0
M  CHG  1  23  -1
M  END
>  <mol_id>  (84) 
2026-09-18-3war-s0-n100-0086

>  <rmsd_to_ref>  (84) 


$$$$

     RDKit          3D

 63 64  0  0  0  0  0  0  0  0999 V2000
    2.1720   21.8460   35.5640 C   0  0  0  0  0  0  0  0  0  0  0  0
    1.4290   16.3900   41.0640 C   0  0  0  0  0  0  0  0  0  0  0  0
    2.9390   27.8640   33.9370 O   0  0  0  0  0  0  0  0  0  0  0  0
    3.6170   21.6580   34.8900 C   0  0  0  0  0  0  0  0  0  0  0  0
    1.5500   28.0730   33.1770 C   0  0  0  0  0  0  0  0  0  0  0  0
    1.0650   26.0960   30.0590 C   0  0  0  0  0  0  0  0  0  0  0  0
    3.8840   18.3270   38.4790 S   0  0  0  0  0  0  0  0  0  0  0  0
    1.2840   14.1130   41.4820 O   0  0  0  0  0  0  0  0  0  0  0  0
    2.0070   20.6360   36.5390 C   0  0  0  0  0  0  0  0  0  0  0  0
    2.5220   14.6630   39.8140 O   0  0  0  0  0  0  0  0  0  0  0  0
    3.2490   16.9540   39.3730 C   0  0  0  0  0  0  0  0  0  0  0  0
    0.3850   16.7040   41.8360 C   0  0  0  0  0  0  0  0  0  0  0  0
    2.6950   24.7830   31.7170 C   0  0  0  0  0  0  0  0  0  0  0  0
    1.0310   19.0280   41.6070 C   0  0  0  0  0  0  0  0  0  0  0  0
    2.0640   18.7060   40.7530 N   0  0  0  0  0  0  0  0  0  0  0  0
    3.9190   22.8760   33.9710 C   0  0  0  0  0  0  0  0  0  0  0  0
    0.8160   20.2230   41.9480 O   0  0  0  0  0  0  0  0  0  0  0  0
    3.1030   20.5340   37.6090 C   0  0  0  0  0  0  0  0  0  0  0  0
    2.7600   26.3780   31.7110 C   0  0  0  0  0  0  0  0  0  0  0  0
    2.2260   17.3480   40.4000 C   0  0  1  0  0  0  0  0  0  0  0  0
    0.1130   18.0910   42.1600 C   0  0  0  0  0  0  0  0  0  0  0  0
    0.8120   28.6110   34.0870 O   0  0  0  0  0  0  0  0  0  0  0  0
    1.3570   25.6760   29.0150 O   0  0  0  0  0  0  0  0  0  0  0  0
    0.3020   26.7710   31.1470 C   0  0  0  0  0  0  0  0  0  0  0  0
    1.9660   28.6940   32.0390 C   0  0  0  0  0  0  0  0  0  0  0  0
    1.5260   27.1690   32.0560 C   0  0  1  0  0  0  0  0  0  0  0  0
    1.7650   14.9770   40.7860 C   0  0  0  0  0  0  0  0  0  0  0  0
    2.7410   19.5790   38.6580 C   0  0  2  0  0  0  0  0  0  0  0  0
    2.8590   19.8090   40.2160 C   0  0  0  0  0  0  0  0  0  0  0  0
    1.3845   21.8314   34.7961 H   0  0  0  0  0  0  0  0  0  0  0  0
    2.0884   22.8087   36.0896 H   0  0  0  0  0  0  0  0  0  0  0  0
    2.7868   27.8869   34.9150 H   0  0  0  0  0  0  0  0  0  0  0  0
    4.3833   21.5923   35.6764 H   0  0  0  0  0  0  0  0  0  0  0  0
    3.6271   20.7345   34.2924 H   0  0  0  0  0  0  0  0  0  0  0  0
    1.9793   26.6937   30.1886 H   0  0  0  0  0  0  0  0  0  0  0  0
    0.3312   25.2791   30.1236 H   0  0  0  0  0  0  0  0  0  0  0  0
    1.0366   20.7332   37.0478 H   0  0  0  0  0  0  0  0  0  0  0  0
    2.0787   19.7252   35.9263 H   0  0  0  0  0  0  0  0  0  0  0  0
    2.7817   16.2575   38.6613 H   0  0  0  0  0  0  0  0  0  0  0  0
    4.0911   16.4897   39.9070 H   0  0  0  0  0  0  0  0  0  0  0  0
   -0.2687   15.9100   42.2261 H   0  0  0  0  0  0  0  0  0  0  0  0
    2.6802   24.4205   32.7555 H   0  0  0  0  0  0  0  0  0  0  0  0
    1.7826   24.4513   31.1998 H   0  0  0  0  0  0  0  0  0  0  0  0
    3.5774   24.3781   31.1998 H   0  0  0  0  0  0  0  0  0  0  0  0
    4.1377   23.7579   34.5911 H   0  0  0  0  0  0  0  0  0  0  0  0
    4.7882   22.6496   33.3360 H   0  0  0  0  0  0  0  0  0  0  0  0
    3.0447   23.0819   33.3360 H   0  0  0  0  0  0  0  0  0  0  0  0
    4.0381   20.2044   37.1326 H   0  0  0  0  0  0  0  0  0  0  0  0
    3.2273   21.5243   38.0715 H   0  0  0  0  0  0  0  0  0  0  0  0
    3.5393   26.6697   32.4305 H   0  0  0  0  0  0  0  0  0  0  0  0
    2.9408   26.6265   30.6548 H   0  0  0  0  0  0  0  0  0  0  0  0
    2.9782   17.2313   41.1941 H   0  0  0  0  0  0  0  0  0  0  0  0
   -0.8924   18.3377   41.7881 H   0  0  0  0  0  0  0  0  0  0  0  0
    0.2068   18.1761   43.2527 H   0  0  0  0  0  0  0  0  0  0  0  0
    1.1555   28.3606   34.9811 H   0  0  0  0  0  0  0  0  0  0  0  0
    1.9183   24.8686   29.1293 H   0  0  0  0  0  0  0  0  0  0  0  0
   -0.2516   27.6498   30.7848 H   0  0  0  0  0  0  0  0  0  0  0  0
   -0.4841   26.1719   31.6298 H   0  0  0  0  0  0  0  0  0  0  0  0
    3.0239   28.9658   31.9091 H   0  0  0  0  0  0  0  0  0  0  0  0
    1.6743   29.5943   31.4783 H   0  0  0  0  0  0  0  0  0  0  0  0
    1.6580   19.5097   38.4779 H   0  0  0  0  0  0  0  0  0  0  0  0
    3.9051   19.7461   40.5502 H   0  0  0  0  0  0  0  0  0  0  0  0
    2.5144   20.8012   40.5428 H   0  0  0  0  0  0  0  0  0  0  0  0
  1  9  1  0
  2 12  2  0
  4  1  1  0
  5  3  1  0
  5 22  1  0
  6 24  1  0
  7 28  1  0
  7 11  1  0
  9 18  1  0
 10 27  2  0
 12 21  1  0
 14 17  2  0
 14 21  1  0
 15 14  1  0
 16  4  1  0
 19 13  1  0
 26 19  1  1
 20 11  1  0
 20 15  1  0
 20  2  1  0
 23  6  1  0
 25 26  1  0
 25  5  1  0
 26 24  1  0
 26  5  1  0
 27  2  1  0
 27  8  1  0
 28 18  1  0
 28 29  1  0
 29 15  1  0
  1 30  1  0
  1 31  1  0
  3 32  1  0
  4 33  1  0
  4 34  1  0
  6 35  1  0
  6 36  1  0
  9 37  1  0
  9 38  1  0
 11 39  1  0
 11 40  1  0
 12 41  1  0
 13 42  1  0
 13 43  1  0
 13 44  1  0
 16 45  1  0
 16 46  1  0
 16 47  1  0
 18 48  1  0
 18 49  1  0
 19 50  1  0
 19 51  1  0
 20 52  1  1
 21 53  1  0
 21 54  1  0
 22 55  1  0
 23 56  1  0
 24 57  1  0
 24 58  1  0
 25 59  1  0
 25 60  1  0
 28 61  1  1
 29 62  1  0
 29 63  1  0
M  CHG  1   8  -1
M  END
>  <mol_id>  (85) 
2026-09-18-3war-s0-n100-0087

>  <rmsd_to_ref>  (85) 


$$$$

     RDKit          3D

 46 46  0  0  0  0  0  0  0  0999 V2000
    3.8950   20.7860   36.2930 C   0  0  0  0  0  0  0  0  0  0  0  0
    2.8570   17.0670   38.7330 C   0  0  0  0  0  0  0  0  0  0  0  0
    2.5220   18.6520   40.4780 C   0  0  0  0  0  0  0  0  0  0  0  0
    2.4750   23.2810   34.0800 C   0  0  0  0  0  0  0  0  0  0  0  0
    2.3870   19.6870   39.6530 C   0  0  0  0  0  0  0  0  0  0  0  0
    2.7010   17.3870   40.0640 C   0  0  0  0  0  0  0  0  0  0  0  0
    1.1220   26.6490   30.9470 C   0  0  0  0  0  0  0  0  0  0  0  0
    3.4820   21.5350   35.2050 C   0  0  0  0  0  0  0  0  0  0  0  0
    1.9780   26.0260   32.0170 C   0  0  0  0  0  0  0  0  0  0  0  0
    2.7110   19.4870   38.2900 C   0  0  0  0  0  0  0  0  0  0  0  0
    2.7710   20.6520   37.4280 C   0  0  0  0  0  0  0  0  0  0  0  0
    3.0940   22.0510   34.1180 C   0  0  0  0  0  0  0  0  0  0  0  0
    4.2660   24.8260   35.0130 C   0  0  0  0  0  0  0  0  0  0  0  0
    2.9770   24.5490   34.6070 C   0  0  0  0  0  0  0  0  0  0  0  0
    1.2010   25.9000   33.3670 C   0  0  0  0  0  0  0  0  0  0  0  0
    2.8830   18.1310   37.8290 C   0  0  0  0  0  0  0  0  0  0  0  0
    2.0600   25.7430   34.7070 C   0  0  0  0  0  0  0  0  0  0  0  0
    3.2930   25.4040   31.4090 C   0  0  0  0  0  0  0  0  0  0  0  0
    4.7810   21.2670   36.7330 H   0  0  0  0  0  0  0  0  0  0  0  0
    4.1150   19.7718   35.9282 H   0  0  0  0  0  0  0  0  0  0  0  0
    2.9563   16.0238   38.3986 H   0  0  0  0  0  0  0  0  0  0  0  0
    2.4849   18.8432   41.5606 H   0  0  0  0  0  0  0  0  0  0  0  0
    1.4874   23.3129   33.5966 H   0  0  0  0  0  0  0  0  0  0  0  0
    2.0359   20.6637   40.0175 H   0  0  0  0  0  0  0  0  0  0  0  0
    2.7238   16.5804   40.8116 H   0  0  0  0  0  0  0  0  0  0  0  0
    0.3174   27.2346   31.4158 H   0  0  0  0  0  0  0  0  0  0  0  0
    1.7400   27.3100   30.3216 H   0  0  0  0  0  0  0  0  0  0  0  0
    0.6830   25.8577   30.3216 H   0  0  0  0  0  0  0  0  0  0  0  0
    2.6630   21.9993   35.7740 H   0  0  0  0  0  0  0  0  0  0  0  0
    4.3818   21.1896   34.6749 H   0  0  0  0  0  0  0  0  0  0  0  0
    2.7414   26.2277   32.7829 H   0  0  0  0  0  0  0  0  0  0  0  0
    2.8892   21.5234   38.0888 H   0  0  0  0  0  0  0  0  0  0  0  0
    1.8452   20.5644   36.8405 H   0  0  0  0  0  0  0  0  0  0  0  0
    2.3880   21.3357   33.6709 H   0  0  0  0  0  0  0  0  0  0  0  0
    4.0445   22.2516   33.6020 H   0  0  0  0  0  0  0  0  0  0  0  0
    4.3102   24.8355   36.1121 H   0  0  0  0  0  0  0  0  0  0  0  0
    4.9465   24.0536   34.6253 H   0  0  0  0  0  0  0  0  0  0  0  0
    4.5691   25.8098   34.6253 H   0  0  0  0  0  0  0  0  0  0  0  0
    0.5837   26.8039   33.4764 H   0  0  0  0  0  0  0  0  0  0  0  0
    0.6449   24.9548   33.2807 H   0  0  0  0  0  0  0  0  0  0  0  0
    3.0357   17.9337   36.7577 H   0  0  0  0  0  0  0  0  0  0  0  0
    1.3791   25.6067   35.5601 H   0  0  0  0  0  0  0  0  0  0  0  0
    2.6677   26.6487   34.8495 H   0  0  0  0  0  0  0  0  0  0  0  0
    3.9603   25.0883   32.2245 H   0  0  0  0  0  0  0  0  0  0  0  0
    3.0340   24.5329   30.7892 H   0  0  0  0  0  0  0  0  0  0  0  0
    3.8021   26.1567   30.7892 H   0  0  0  0  0  0  0  0  0  0  0  0
  1 11  1  0
  2  6  2  0
  4 12  1  0
  4 14  2  3
  5  3  2  0
  6  3  1  0
  7  9  1  0
  8  1  1  0
  9 15  1  0
 10  5  1  0
 11 10  1  0
 12  8  1  0
 14 17  1  0
 14 13  1  0
 15 17  1  0
 16 10  2  0
 16  2  1  0
 18  9  1  0
  1 19  1  0
  1 20  1  0
  2 21  1  0
  3 22  1  0
  4 23  1  0
  5 24  1  0
  6 25  1  0
  7 26  1  0
  7 27  1  0
  7 28  1  0
  8 29  1  0
  8 30  1  0
  9 31  1  0
 11 32  1  0
 11 33  1  0
 12 34  1  0
 12 35  1  0
 13 36  1  0
 13 37  1  0
 13 38  1  0
 15 39  1  0
 15 40  1  0
 16 41  1  0
 17 42  1  0
 17 43  1  0
 18 44  1  0
 18 45  1  0
 18 46  1  0
M  END
>  <mol_id>  (86) 
2026-09-18-3war-s0-n100-0088

>  <rmsd_to_ref>  (86) 


$$$$

     RDKit          3D

 78 80  0  0  0  0  0  0  0  0999 V2000
   -0.0250   15.0162   42.0512 C   0  0  2  0  0  0  0  0  0  0  0  0
    3.5783   25.8190   29.7604 C   0  0  0  0  0  0  0  0  0  0  0  0
    0.7496   19.8106   42.7697 C   0  0  0  0  0  0  0  0  0  0  0  0
    3.3833   22.6606   34.5029 C   0  0  0  0  0  0  0  0  0  0  0  0
    1.1078   17.4590   42.3030 C   0  0  0  0  0  0  0  0  0  0  0  0
    2.9203   19.5704   39.6977 C   0  0  0  0  0  0  0  0  0  0  0  0
    3.6719   25.9273   32.8835 C   0  0  0  0  0  0  0  0  0  0  0  0
    3.6001   17.3220   39.2440 O   0  0  0  0  0  0  0  0  0  0  0  0
    2.0793   19.1551   40.8212 C   0  0  0  0  0  0  0  0  0  0  0  0
    4.2000   23.6209   33.9298 C   0  0  0  0  0  0  0  0  0  0  0  0
    1.8432   17.8428   41.1507 C   0  0  0  0  0  0  0  0  0  0  0  0
    3.1375   16.3599   36.9937 C   0  0  0  0  0  0  0  0  0  0  0  0
    3.2067   18.7339   37.4150 C   0  0  0  0  0  0  0  0  0  0  0  0
    1.4977   20.1693   41.6927 C   0  0  0  0  0  0  0  0  0  0  0  0
    3.2526   18.5398   38.7178 C   0  0  2  0  0  0  0  0  0  0  0  0
    2.9947   16.2629   38.5429 C   0  0  0  0  0  0  0  0  0  0  0  0
    4.0929   26.6443   30.6730 C   0  0  0  0  0  0  0  0  0  0  0  0
    4.0224   23.7870   27.9677 C   0  0  0  0  0  0  0  0  0  0  0  0
    0.2657   20.6705   43.5399 O   0  0  0  0  0  0  0  0  0  0  0  0
   -1.6861   13.9097   41.7465 N   0  0  0  0  0  0  0  0  0  0  0  0
    0.9648   16.0475   42.6139 C   0  0  0  0  0  0  0  0  0  0  0  0
    3.5451   23.9702   31.4630 C   0  0  0  0  0  0  0  0  0  0  0  0
    2.9168   24.9672   27.9028 C   0  0  2  0  0  0  0  0  0  0  0  0
    3.6952   24.3330   30.2495 C   0  0  0  0  0  0  0  0  0  0  0  0
   -0.4406   14.3529   40.9947 N   0  0  0  0  0  0  0  0  0  0  0  0
    4.9100   23.6046   29.1810 S   0  0  0  0  0  0  0  0  0  0  0  0
    2.8857   25.8115   26.4387 C   0  0  0  0  0  0  0  0  0  0  0  0
    3.5128   23.1472   31.4044 C   0  0  0  0  0  0  0  0  0  0  0  0
    2.8465   26.0905   28.7998 C   0  0  0  0  0  0  0  0  0  0  0  0
    0.5392   18.4617   43.0855 C   0  0  0  0  0  0  0  0  0  0  0  0
    3.5864   26.8830   31.8154 C   0  0  0  0  0  0  0  0  0  0  0  0
    3.3330   20.0369   36.9351 O   0  0  0  0  0  0  0  0  0  0  0  0
    5.6461   23.0844   33.9132 C   0  0  0  0  0  0  0  0  0  0  0  0
    3.6916   24.5667   32.9047 C   0  0  0  0  0  0  0  0  0  0  0  0
   -1.2360   14.5926   42.8881 C   0  0  0  0  0  0  0  0  0  0  0  0
    3.1553   17.6348   36.5067 C   0  0  0  0  0  0  0  0  0  0  0  0
    1.0181   15.2635   41.8049 H   0  0  0  0  0  0  0  0  0  0  0  0
    3.5537   22.6355   35.5893 H   0  0  0  0  0  0  0  0  0  0  0  0
    2.3303   22.9078   34.3025 H   0  0  0  0  0  0  0  0  0  0  0  0
    3.6172   21.6758   34.0722 H   0  0  0  0  0  0  0  0  0  0  0  0
    2.3952   20.3787   39.1678 H   0  0  0  0  0  0  0  0  0  0  0  0
    3.8802   19.8668   40.1460 H   0  0  0  0  0  0  0  0  0  0  0  0
    3.7336   26.3852   33.8817 H   0  0  0  0  0  0  0  0  0  0  0  0
    4.1883   24.5174   34.5671 H   0  0  0  0  0  0  0  0  0  0  0  0
    2.2409   17.0553   40.4936 H   0  0  0  0  0  0  0  0  0  0  0  0
    4.0777   15.8679   36.7037 H   0  0  0  0  0  0  0  0  0  0  0  0
    2.2485   15.8734   36.5659 H   0  0  0  0  0  0  0  0  0  0  0  0
    1.6657   21.2347   41.4766 H   0  0  0  0  0  0  0  0  0  0  0  0
    2.1959   18.2347   38.7097 H   0  0  0  0  0  0  0  0  0  0  0  0
    1.9230   16.2527   38.7909 H   0  0  0  0  0  0  0  0  0  0  0  0
    3.5115   15.3423   38.8517 H   0  0  0  0  0  0  0  0  0  0  0  0
    5.1040   26.2616   30.8760 H   0  0  0  0  0  0  0  0  0  0  0  0
    3.9248   27.6123   30.1783 H   0  0  0  0  0  0  0  0  0  0  0  0
    4.1314   23.1034   27.1129 H   0  0  0  0  0  0  0  0  0  0  0  0
   -1.7632   12.8899   41.8692 H   0  0  0  0  0  0  0  0  0  0  0  0
    0.7895   16.0261   43.6996 H   0  0  0  0  0  0  0  0  0  0  0  0
    1.8656   15.6884   42.0945 H   0  0  0  0  0  0  0  0  0  0  0  0
    2.1205   24.2550   28.1650 H   0  0  0  0  0  0  0  0  0  0  0  0
    3.9199   23.5583   29.5017 H   0  0  0  0  0  0  0  0  0  0  0  0
    0.1785   13.5782   40.7166 H   0  0  0  0  0  0  0  0  0  0  0  0
    3.0706   26.8793   26.6272 H   0  0  0  0  0  0  0  0  0  0  0  0
    3.6656   25.4166   25.7710 H   0  0  0  0  0  0  0  0  0  0  0  0
    1.9006   25.6881   25.9650 H   0  0  0  0  0  0  0  0  0  0  0  0
    3.5983   22.7045   32.4077 H   0  0  0  0  0  0  0  0  0  0  0  0
    2.5552   22.8491   30.9526 H   0  0  0  0  0  0  0  0  0  0  0  0
    4.3417   22.7915   30.7749 H   0  0  0  0  0  0  0  0  0  0  0  0
    3.2024   27.0016   28.2965 H   0  0  0  0  0  0  0  0  0  0  0  0
    1.8125   26.2746   29.1267 H   0  0  0  0  0  0  0  0  0  0  0  0
    0.9143   18.3146   44.1090 H   0  0  0  0  0  0  0  0  0  0  0  0
   -0.5393   18.3308   42.9133 H   0  0  0  0  0  0  0  0  0  0  0  0
    3.0728   27.8403   31.9882 H   0  0  0  0  0  0  0  0  0  0  0  0
    3.3021   20.2107   35.9609 H   0  0  0  0  0  0  0  0  0  0  0  0
    5.9833   22.9075   34.9452 H   0  0  0  0  0  0  0  0  0  0  0  0
    5.6806   22.1407   33.3493 H   0  0  0  0  0  0  0  0  0  0  0  0
    6.3055   23.8226   33.4335 H   0  0  0  0  0  0  0  0  0  0  0  0
   -1.0002   13.9487   43.7482 H   0  0  0  0  0  0  0  0  0  0  0  0
   -1.8647   15.3231   43.4183 H   0  0  0  0  0  0  0  0  0  0  0  0
    3.1301   17.8136   35.4216 H   0  0  0  0  0  0  0  0  0  0  0  0
  1 21  1  0
  1 35  1  0
  2 24  2  0
  2 17  1  0
  3 30  1  0
  3 19  2  0
  5 21  1  0
  5 30  1  0
  6  9  1  0
  7 34  1  0
  9 11  1  0
  9 14  2  0
 10 33  1  0
 10  4  1  0
 11  5  2  0
 12 16  1  0
 13 15  1  0
 14  3  1  0
 15  8  1  0
 15  6  1  0
 16  8  1  0
 17 31  1  0
 18 26  2  0
 20 35  1  0
 22 28  1  0
 22 34  2  0
 23 27  1  0
 23 18  1  0
 23 29  1  0
 24 22  1  0
 25 20  1  0
 25  1  1  0
 29  2  1  0
 31  7  2  0
 32 13  1  0
 34 10  1  0
 36 12  1  0
 36 13  2  0
  1 37  1  1
  4 38  1  0
  4 39  1  0
  4 40  1  0
  6 41  1  0
  6 42  1  0
  7 43  1  0
 10 44  1  0
 11 45  1  0
 12 46  1  0
 12 47  1  0
 14 48  1  0
 15 49  1  6
 16 50  1  0
 16 51  1  0
 17 52  1  0
 17 53  1  0
 18 54  1  0
 20 55  1  0
 21 56  1  0
 21 57  1  0
 23 58  1  6
 24 59  1  0
 25 60  1  0
 27 61  1  0
 27 62  1  0
 27 63  1  0
 28 64  1  0
 28 65  1  0
 28 66  1  0
 29 67  1  0
 29 68  1  0
 30 69  1  0
 30 70  1  0
 31 71  1  0
 32 72  1  0
 33 73  1  0
 33 74  1  0
 33 75  1  0
 35 76  1  0
 35 77  1  0
 36 78  1  0
M  END
>  <mol_id>  (87) 
2026-09-18-3war-s0-n100-0089

>  <rmsd_to_ref>  (87) 


$$$$

     RDKit          3D

 86 88  0  0  0  0  0  0  0  0999 V2000
    3.4109   26.9057   27.0187 C   0  0  0  0  0  0  0  0  0  0  0  0
    3.0461   12.4825   35.0772 C   0  0  0  0  0  0  0  0  0  0  0  0
    4.4502   11.8095   34.4996 C   0  0  0  0  0  0  0  0  0  0  0  0
    1.7551   15.7364   41.9899 C   0  0  0  0  0  0  0  0  0  0  0  0
    1.9289   16.7536   40.8507 C   0  0  0  0  0  0  0  0  0  0  0  0
    1.4205   18.1033   41.0850 C   0  0  0  0  0  0  0  0  0  0  0  0
    3.2077   11.3154   32.4170 C   0  0  0  0  0  0  0  0  0  0  0  0
    2.4599   25.2155   35.0398 S   0  0  0  0  0  0  0  0  0  0  0  0
    0.5967   18.4492   42.3038 C   0  0  0  0  0  0  0  0  0  0  0  0
    3.3875   14.8888   37.9784 C   0  0  0  0  0  0  0  0  0  0  0  0
    1.7108   25.7515   32.6572 N   0  0  0  0  0  0  0  0  0  0  0  0
    3.1557   13.3763   37.4914 C   0  0  0  0  0  0  0  0  0  0  0  0
    1.9582   20.8859   38.8353 C   0  0  0  0  0  0  0  0  0  0  0  0
    4.6894   26.3072   27.1041 C   0  0  0  0  0  0  0  0  0  0  0  0
    3.0895   20.6121   35.9064 O   0  0  0  0  0  0  0  0  0  0  0  0
    2.3559   21.7575   35.8273 C   0  0  0  0  0  0  0  0  0  0  0  0
    2.5580   23.9271   34.0108 C   0  0  1  0  0  0  0  0  0  0  0  0
    2.5028   16.4193   39.6203 C   0  0  0  0  0  0  0  0  0  0  0  0
    3.5620   10.5859   33.6909 C   0  0  0  0  0  0  0  0  0  0  0  0
    1.6355   26.3525   33.8712 C   0  0  0  0  0  0  0  0  0  0  0  0
    4.6712   25.4893   28.3895 C   0  0  0  0  0  0  0  0  0  0  0  0
    2.3499   24.4113   32.5478 C   0  0  0  0  0  0  0  0  0  0  0  0
    1.4337   26.1959   30.1561 C   0  0  0  0  0  0  0  0  0  0  0  0
    2.5181   18.6711   38.9083 C   0  0  0  0  0  0  0  0  0  0  0  0
    2.7537   22.4923   34.5189 C   0  0  0  0  0  0  0  0  0  0  0  0
    0.6371   27.6252   31.9150 F   0  0  0  0  0  0  0  0  0  0  0  0
    1.8024   19.0173   40.0983 C   0  0  0  0  0  0  0  0  0  0  0  0
    3.5803   19.8994   37.0389 C   0  0  0  0  0  0  0  0  0  0  0  0
    2.7823   19.7708   38.1333 C   0  0  2  0  0  0  0  0  0  0  0  0
    1.2999   26.4588   31.5533 C   0  0  1  0  0  0  0  0  0  0  0  0
    2.4673   25.5648   29.1523 C   0  0  0  0  0  0  0  0  0  0  0  0
    3.4751   13.0844   36.1631 N   0  0  0  0  0  0  0  0  0  0  0  0
    2.8156   17.3386   38.6732 N   0  0  0  0  0  0  0  0  0  0  0  0
    2.5886   25.7357   27.3262 C   0  0  0  0  0  0  0  0  0  0  0  0
    2.9297   14.9589   39.3739 C   0  0  0  0  0  0  0  0  0  0  0  0
    1.5478   20.3828   40.0755 N   0  0  0  0  0  0  0  0  0  0  0  0
    3.2806   27.7076   27.7602 H   0  0  0  0  0  0  0  0  0  0  0  0
    3.1852   27.4046   26.0647 H   0  0  0  0  0  0  0  0  0  0  0  0
    2.2978   11.7116   35.3133 H   0  0  0  0  0  0  0  0  0  0  0  0
    2.5400   13.1492   34.3635 H   0  0  0  0  0  0  0  0  0  0  0  0
    5.0160   12.4691   33.8252 H   0  0  0  0  0  0  0  0  0  0  0  0
    5.2544   11.5336   35.1976 H   0  0  0  0  0  0  0  0  0  0  0  0
    1.8220   16.2548   42.9577 H   0  0  0  0  0  0  0  0  0  0  0  0
    0.7720   15.2510   41.9011 H   0  0  0  0  0  0  0  0  0  0  0  0
    2.5468   14.9754   41.9260 H   0  0  0  0  0  0  0  0  0  0  0  0
    2.7868   12.3013   32.6640 H   0  0  0  0  0  0  0  0  0  0  0  0
    4.1127   11.4459   31.8054 H   0  0  0  0  0  0  0  0  0  0  0  0
    2.4656   10.7306   31.8538 H   0  0  0  0  0  0  0  0  0  0  0  0
    1.2098   18.3236   43.2084 H   0  0  0  0  0  0  0  0  0  0  0  0
    0.2575   19.4933   42.2329 H   0  0  0  0  0  0  0  0  0  0  0  0
   -0.2767   17.7827   42.3573 H   0  0  0  0  0  0  0  0  0  0  0  0
    2.8051   15.5817   37.3532 H   0  0  0  0  0  0  0  0  0  0  0  0
    4.4468   15.1732   37.8951 H   0  0  0  0  0  0  0  0  0  0  0  0
    3.7675   12.7237   38.1315 H   0  0  0  0  0  0  0  0  0  0  0  0
    2.0706   13.2133   37.5681 H   0  0  0  0  0  0  0  0  0  0  0  0
    1.0804   21.1456   38.2253 H   0  0  0  0  0  0  0  0  0  0  0  0
    2.5644   21.7946   38.9652 H   0  0  0  0  0  0  0  0  0  0  0  0
    4.8674   25.6553   26.2361 H   0  0  0  0  0  0  0  0  0  0  0  0
    5.4923   27.0591   27.1102 H   0  0  0  0  0  0  0  0  0  0  0  0
    1.2835   21.5134   35.8071 H   0  0  0  0  0  0  0  0  0  0  0  0
    2.5516   22.3978   36.7000 H   0  0  0  0  0  0  0  0  0  0  0  0
    1.4670   23.7984   34.0679 H   0  0  0  0  0  0  0  0  0  0  0  0
    2.6650   10.2920   34.2556 H   0  0  0  0  0  0  0  0  0  0  0  0
    4.1037    9.6394   33.5468 H   0  0  0  0  0  0  0  0  0  0  0  0
    2.1529   27.3230   33.8512 H   0  0  0  0  0  0  0  0  0  0  0  0
    0.5929   26.5479   34.1628 H   0  0  0  0  0  0  0  0  0  0  0  0
    4.6790   26.1673   29.2556 H   0  0  0  0  0  0  0  0  0  0  0  0
    3.7626   24.8697   28.4171 H   0  0  0  0  0  0  0  0  0  0  0  0
    5.5587   24.8404   28.4239 H   0  0  0  0  0  0  0  0  0  0  0  0
    1.6941   23.7164   32.0028 H   0  0  0  0  0  0  0  0  0  0  0  0
    3.2999   24.4570   31.9950 H   0  0  0  0  0  0  0  0  0  0  0  0
    0.5394   26.5404   29.6161 H   0  0  0  0  0  0  0  0  0  0  0  0
    2.2807   21.8824   33.7352 H   0  0  0  0  0  0  0  0  0  0  0  0
    3.8152   22.6135   34.7806 H   0  0  0  0  0  0  0  0  0  0  0  0
    3.8267   18.8829   36.6983 H   0  0  0  0  0  0  0  0  0  0  0  0
    4.4195   20.5151   37.3950 H   0  0  0  0  0  0  0  0  0  0  0  0
    1.9319   19.5171   37.4833 H   0  0  0  0  0  0  0  0  0  0  0  0
    2.2547   27.0049   31.5419 H   0  0  0  0  0  0  0  0  0  0  0  0
    3.2336   24.9240   29.6130 H   0  0  0  0  0  0  0  0  0  0  0  0
    4.3812   12.6114   36.2906 H   0  0  0  0  0  0  0  0  0  0  0  0
    3.0665   13.9768   35.8506 H   0  0  0  0  0  0  0  0  0  0  0  0
    1.5835   25.8669   26.8990 H   0  0  0  0  0  0  0  0  0  0  0  0
    3.0450   24.8327   26.8946 H   0  0  0  0  0  0  0  0  0  0  0  0
    2.0764   14.2821   39.5285 H   0  0  0  0  0  0  0  0  0  0  0  0
    3.7250   14.6536   40.0698 H   0  0  0  0  0  0  0  0  0  0  0  0
    1.1288   20.9311   40.8401 H   0  0  0  0  0  0  0  0  0  0  0  0
  1 14  1  0
  1 34  1  0
  2 32  1  0
  3  2  1  0
  5  6  2  0
  5  4  1  0
  6  9  1  0
  7 19  1  0
 10 35  1  0
 11 20  1  0
 12 10  1  0
 13 36  1  0
 14 21  1  0
 15 16  1  0
 15 28  1  0
 17 25  1  0
 17  8  1  0
 18  5  1  0
 19  3  1  0
 20  8  1  0
 22 11  1  0
 22 17  1  0
 23 30  1  0
 24 27  2  0
 25 16  1  0
 27 36  1  0
 27  6  1  0
 29 28  1  0
 29 24  1  0
 29 13  1  0
 30 26  1  0
 30 11  1  0
 31 23  2  3
 32 12  1  0
 33 24  1  0
 33 18  2  0
 34 31  1  0
 35 18  1  0
  1 37  1  0
  1 38  1  0
  2 39  1  0
  2 40  1  0
  3 41  1  0
  3 42  1  0
  4 43  1  0
  4 44  1  0
  4 45  1  0
  7 46  1  0
  7 47  1  0
  7 48  1  0
  9 49  1  0
  9 50  1  0
  9 51  1  0
 10 52  1  0
 10 53  1  0
 12 54  1  0
 12 55  1  0
 13 56  1  0
 13 57  1  0
 14 58  1  0
 14 59  1  0
 16 60  1  0
 16 61  1  0
 17 62  1  6
 19 63  1  0
 19 64  1  0
 20 65  1  0
 20 66  1  0
 21 67  1  0
 21 68  1  0
 21 69  1  0
 22 70  1  0
 22 71  1  0
 23 72  1  0
 25 73  1  0
 25 74  1  0
 28 75  1  0
 28 76  1  0
 29 77  1  6
 30 78  1  6
 31 79  1  0
 32 80  1  0
 32 81  1  0
 34 82  1  0
 34 83  1  0
 35 84  1  0
 35 85  1  0
 36 86  1  0
M  CHG  1  32   1
M  END
>  <mol_id>  (88) 
2026-09-18-3war-s0-n100-0090

>  <rmsd_to_ref>  (88) 


$$$$

     RDKit          3D

 92 92  0  0  0  0  0  0  0  0999 V2000
    2.1722   20.2146   37.6906 C   0  0  0  0  0  0  0  0  0  0  0  0
    1.1167   20.1771   39.9419 C   0  0  0  0  0  0  0  0  0  0  0  0
    3.6396   27.2278   33.6962 O   0  0  0  0  0  0  0  0  0  0  0  0
    3.7705   22.4316   34.8302 C   0  0  0  0  0  0  0  0  0  0  0  0
   -0.2491   12.6345   42.0389 O   0  0  0  0  0  0  0  0  0  0  0  0
   -1.5077   13.9413   43.2392 C   0  0  0  0  0  0  0  0  0  0  0  0
    3.4856   26.0827   31.4318 C   0  0  2  0  0  0  0  0  0  0  0  0
    0.8989   19.8329   29.7542 C   0  0  0  0  0  0  0  0  0  0  0  0
    2.1374   26.1144   31.2599 O   0  0  0  0  0  0  0  0  0  0  0  0
    2.4478   26.7521   33.6189 C   0  0  0  0  0  0  0  0  0  0  0  0
    3.8018   20.3526   36.0902 O   0  0  0  0  0  0  0  0  0  0  0  0
    5.4469   24.9815   29.6877 O   0  0  0  0  0  0  0  0  0  0  0  0
   -1.6498   12.5018   42.7224 C   0  0  1  0  0  0  0  0  0  0  0  0
    2.3907   24.4752   34.4883 C   0  0  0  0  0  0  0  0  0  0  0  0
    2.4901   20.9538   33.7162 C   0  0  0  0  0  0  0  0  0  0  0  0
    2.1753   25.3736   33.6936 C   0  0  0  0  0  0  0  0  0  0  0  0
    0.5879   19.3912   40.8791 C   0  0  1  0  0  0  0  0  0  0  0  0
    5.8834   26.2442   31.8895 O   0  0  0  0  0  0  0  0  0  0  0  0
   -0.3500   16.2543   42.9246 C   0  0  0  0  0  0  0  0  0  0  0  0
    3.2131   20.9777   35.0931 C   0  0  2  0  0  0  0  0  0  0  0  0
    4.0368   24.5678   33.0530 O   0  0  0  0  0  0  0  0  0  0  0  0
    3.4555   23.4186   30.1167 C   0  0  0  0  0  0  0  0  0  0  0  0
    1.9963   18.0352   39.0764 C   0  0  0  0  0  0  0  0  0  0  0  0
    0.8465   18.0210   41.1562 C   0  0  0  0  0  0  0  0  0  0  0  0
   -0.3879   14.7827   42.8636 C   0  0  2  0  0  0  0  0  0  0  0  0
    1.4106   17.2863   40.2202 C   0  0  0  0  0  0  0  0  0  0  0  0
   -0.1488   14.0887   41.7327 C   0  0  2  0  0  0  0  0  0  0  0  0
   -2.8380   12.6712   41.8250 O   0  0  0  0  0  0  0  0  0  0  0  0
    2.2880   21.0162   36.0904 C   0  0  1  0  0  0  0  0  0  0  0  0
    3.3482   23.6783   33.6904 C   0  0  1  0  0  0  0  0  0  0  0  0
    0.5830   17.2602   42.5203 C   0  0  0  0  0  0  0  0  0  0  0  0
    4.2153   26.9504   34.8889 O   0  0  0  0  0  0  0  0  0  0  0  0
    7.2685   27.6883   30.1737 C   0  0  0  0  0  0  0  0  0  0  0  0
   -0.9168   14.6433   40.6847 O   0  0  0  0  0  0  0  0  0  0  0  0
    4.6137   25.2536   31.0852 C   0  0  0  0  0  0  0  0  0  0  0  0
   -0.4187   20.1573   41.8799 C   0  0  0  0  0  0  0  0  0  0  0  0
    3.7688   24.8189   31.7063 N   0  0  0  0  0  0  0  0  0  0  0  0
   -1.5923   10.8386   43.0947 C   0  0  0  0  0  0  0  0  0  0  0  0
    1.8105   19.3159   38.8908 C   0  0  0  0  0  0  0  0  0  0  0  0
    1.9771   21.1515   38.2331 H   0  0  0  0  0  0  0  0  0  0  0  0
    2.6056   19.3212   37.2175 H   0  0  0  0  0  0  0  0  0  0  0  0
    0.3200   20.7671   39.4652 H   0  0  0  0  0  0  0  0  0  0  0  0
    1.8492   20.8562   40.4024 H   0  0  0  0  0  0  0  0  0  0  0  0
    3.6509   22.9284   35.8043 H   0  0  0  0  0  0  0  0  0  0  0  0
    4.6867   22.1104   34.3132 H   0  0  0  0  0  0  0  0  0  0  0  0
   -2.4151   14.4748   42.9199 H   0  0  0  0  0  0  0  0  0  0  0  0
   -1.3314   13.7861   44.3138 H   0  0  0  0  0  0  0  0  0  0  0  0
    3.4825   27.1766   31.5475 H   0  0  0  0  0  0  0  0  0  0  0  0
    0.8572   19.8169   30.8533 H   0  0  0  0  0  0  0  0  0  0  0  0
    0.9933   20.8721   29.4059 H   0  0  0  0  0  0  0  0  0  0  0  0
    1.7673   19.2512   29.4117 H   0  0  0  0  0  0  0  0  0  0  0  0
   -0.0222   19.3916   29.3458 H   0  0  0  0  0  0  0  0  0  0  0  0
    1.6919   26.1104   32.1440 H   0  0  0  0  0  0  0  0  0  0  0  0
    1.8792   27.2200   34.4360 H   0  0  0  0  0  0  0  0  0  0  0  0
    2.1838   26.9768   32.5750 H   0  0  0  0  0  0  0  0  0  0  0  0
    6.3496   24.6369   29.9034 H   0  0  0  0  0  0  0  0  0  0  0  0
    2.8415   24.8487   35.4195 H   0  0  0  0  0  0  0  0  0  0  0  0
    1.5005   23.9311   34.8370 H   0  0  0  0  0  0  0  0  0  0  0  0
    1.4032   20.8901   33.8737 H   0  0  0  0  0  0  0  0  0  0  0  0
    2.7269   21.8738   33.1616 H   0  0  0  0  0  0  0  0  0  0  0  0
    2.8286   20.0805   33.1393 H   0  0  0  0  0  0  0  0  0  0  0  0
    1.0803   25.3432   33.5933 H   0  0  0  0  0  0  0  0  0  0  0  0
    3.0001   25.0901   33.0233 H   0  0  0  0  0  0  0  0  0  0  0  0
   -0.2123   19.0995   40.1831 H   0  0  0  0  0  0  0  0  0  0  0  0
    5.7800   26.1788   32.8719 H   0  0  0  0  0  0  0  0  0  0  0  0
   -1.2660   16.5433   42.3886 H   0  0  0  0  0  0  0  0  0  0  0  0
   -0.0791   16.2974   43.9898 H   0  0  0  0  0  0  0  0  0  0  0  0
    3.4137   23.4026   31.2158 H   0  0  0  0  0  0  0  0  0  0  0  0
    3.5499   24.4577   29.7685 H   0  0  0  0  0  0  0  0  0  0  0  0
    4.3239   22.8368   29.7742 H   0  0  0  0  0  0  0  0  0  0  0  0
    2.5344   22.9773   29.7083 H   0  0  0  0  0  0  0  0  0  0  0  0
    2.6152   17.4853   38.3521 H   0  0  0  0  0  0  0  0  0  0  0  0
    0.4052   14.9166   43.6141 H   0  0  0  0  0  0  0  0  0  0  0  0
    1.4463   16.1885   40.2804 H   0  0  0  0  0  0  0  0  0  0  0  0
    0.8748   14.1782   41.3398 H   0  0  0  0  0  0  0  0  0  0  0  0
   -3.6560   12.7652   42.3748 H   0  0  0  0  0  0  0  0  0  0  0  0
    2.7066   21.9708   36.4418 H   0  0  0  0  0  0  0  0  0  0  0  0
    3.1879   23.0375   32.8109 H   0  0  0  0  0  0  0  0  0  0  0  0
    1.5576   16.8014   42.7432 H   0  0  0  0  0  0  0  0  0  0  0  0
    0.0611   18.0952   43.0106 H   0  0  0  0  0  0  0  0  0  0  0  0
    3.5917   27.1893   35.6199 H   0  0  0  0  0  0  0  0  0  0  0  0
    7.2267   27.6723   31.2728 H   0  0  0  0  0  0  0  0  0  0  0  0
    7.3629   28.7274   29.8254 H   0  0  0  0  0  0  0  0  0  0  0  0
    8.1369   27.1065   29.8312 H   0  0  0  0  0  0  0  0  0  0  0  0
    6.3474   27.2470   29.7653 H   0  0  0  0  0  0  0  0  0  0  0  0
   -1.6839   15.1403   41.0651 H   0  0  0  0  0  0  0  0  0  0  0  0
   -0.1641   19.9051   42.9200 H   0  0  0  0  0  0  0  0  0  0  0  0
   -0.3259   21.2434   41.7327 H   0  0  0  0  0  0  0  0  0  0  0  0
   -1.4525   19.8457   41.6696 H   0  0  0  0  0  0  0  0  0  0  0  0
   -1.6287   10.7056   44.1860 H   0  0  0  0  0  0  0  0  0  0  0  0
   -2.4522   10.3299   42.6345 H   0  0  0  0  0  0  0  0  0  0  0  0
   -0.6588   10.4074   42.7037 H   0  0  0  0  0  0  0  0  0  0  0  0
  1 39  1  0
  2 17  1  0
  3 32  1  0
 20  4  1  6
  5 13  1  0
  7  9  1  0
  7 37  1  0
 10  3  1  0
 10 16  1  0
 11 29  1  0
 12 35  1  0
 13 38  1  0
 13  6  1  0
 16 14  1  0
 17 24  1  0
 17 36  1  0
 20 15  1  0
 20 11  1  0
 20 29  1  0
 21 30  1  0
 23 26  1  0
 24 31  1  0
 25 19  1  0
 25  6  1  0
 26 24  2  0
 27 34  1  0
 27  5  1  0
 27 25  1  0
 13 28  1  6
 29  1  1  0
 30 14  1  0
 30  4  1  0
 31 19  1  0
 35  7  1  0
 35 37  1  0
 35 18  1  0
 37 21  1  0
 39 23  2  0
 39  2  1  0
  1 40  1  0
  1 41  1  0
  2 42  1  0
  2 43  1  0
  4 44  1  0
  4 45  1  0
  6 46  1  0
  6 47  1  0
  7 48  1  1
  8 49  1  0
  8 50  1  0
  8 51  1  0
  8 52  1  0
  9 53  1  0
 10 54  1  0
 10 55  1  0
 12 56  1  0
 14 57  1  0
 14 58  1  0
 15 59  1  0
 15 60  1  0
 15 61  1  0
 16 62  1  0
 16 63  1  0
 17 64  1  6
 18 65  1  0
 19 66  1  0
 19 67  1  0
 22 68  1  0
 22 69  1  0
 22 70  1  0
 22 71  1  0
 23 72  1  0
 25 73  1  1
 26 74  1  0
 27 75  1  6
 28 76  1  0
 29 77  1  1
 30 78  1  6
 31 79  1  0
 31 80  1  0
 32 81  1  0
 33 82  1  0
 33 83  1  0
 33 84  1  0
 33 85  1  0
 34 86  1  0
 36 87  1  0
 36 88  1  0
 36 89  1  0
 38 90  1  0
 38 91  1  0
 38 92  1  0
M  END
>  <mol_id>  (89) 
2026-09-18-3war-s0-n100-0091

>  <rmsd_to_ref>  (89) 


$$$$

     RDKit          3D

 47 50  0  0  0  0  0  0  0  0999 V2000
    6.5357   22.5469   29.3645 C   0  0  0  0  0  0  0  0  0  0  0  0
    1.8950   17.4067   38.8999 N   0  0  0  0  0  0  0  0  0  0  0  0
    5.9359   23.8664   28.9354 C   0  0  0  0  0  0  0  0  0  0  0  0
    0.9952   18.9411   43.6273 O   0  0  0  0  0  0  0  0  0  0  0  0
    3.8963   21.8869   33.7042 C   0  0  2  0  0  0  0  0  0  0  0  0
    2.8866   20.9621   37.4008 C   0  0  0  0  0  0  0  0  0  0  0  0
    1.0002   15.6059   40.3842 C   0  0  0  0  0  0  0  0  0  0  0  0
    1.4707   18.0305   41.3062 C   0  0  0  0  0  0  0  0  0  0  0  0
    1.2498   16.1435   39.0110 C   0  0  0  0  0  0  0  0  0  0  0  0
    3.4545   21.0732   35.9547 C   0  0  0  0  0  0  0  0  0  0  0  0
    1.4452   19.1681   42.3606 C   0  0  0  0  0  0  0  0  0  0  0  0
    4.8644   21.4924   31.4246 C   0  0  0  0  0  0  0  0  0  0  0  0
    4.4526   22.7051   30.6839 C   0  0  0  0  0  0  0  0  0  0  0  0
    3.0674   23.0592   32.9723 S   0  0  0  0  0  0  0  0  0  0  0  0
    2.7072   19.6259   39.5867 C   0  0  2  0  0  0  0  0  0  0  0  0
    3.5820   23.6661   31.3152 C   0  0  0  0  0  0  0  0  0  0  0  0
    2.3485   20.7402   40.5025 C   0  0  0  0  0  0  0  0  0  0  0  0
    3.1821   24.9028   30.7862 C   0  0  0  0  0  0  0  0  0  0  0  0
    3.7936   21.3688   34.9935 C   0  0  0  0  0  0  0  0  0  0  0  0
    0.5781   15.4223   37.9111 O   0  0  0  0  0  0  0  0  0  0  0  0
    3.1006   19.8982   38.1897 C   0  0  0  0  0  0  0  0  0  0  0  0
    4.7204   21.3602   32.8956 N   0  0  0  0  0  0  0  0  0  0  0  0
    1.1352   16.6069   41.4611 C   0  0  0  0  0  0  0  0  0  0  0  0
    0.9416   16.2875   42.6519 O   0  0  0  0  0  0  0  0  0  0  0  0
    1.9793   18.3206   39.9326 C   0  0  0  0  0  0  0  0  0  0  0  0
    5.0335   22.8376   29.3932 C   0  0  0  0  0  0  0  0  0  0  0  0
    2.0208   20.6073   41.9996 C   0  0  0  0  0  0  0  0  0  0  0  0
    6.9573   21.8559   28.6198 H   0  0  0  0  0  0  0  0  0  0  0  0
    7.2970   22.2145   30.0854 H   0  0  0  0  0  0  0  0  0  0  0  0
    5.9452   24.1472   27.8718 H   0  0  0  0  0  0  0  0  0  0  0  0
    6.1092   24.9138   29.2231 H   0  0  0  0  0  0  0  0  0  0  0  0
    0.9852   19.6778   44.2885 H   0  0  0  0  0  0  0  0  0  0  0  0
    3.1642   21.1471   33.3486 H   0  0  0  0  0  0  0  0  0  0  0  0
    2.2828   21.7936   37.7931 H   0  0  0  0  0  0  0  0  0  0  0  0
    1.7205   14.7965   40.5737 H   0  0  0  0  0  0  0  0  0  0  0  0
   -0.0442   15.2611   40.4030 H   0  0  0  0  0  0  0  0  0  0  0  0
    5.2958   20.6524   30.8606 H   0  0  0  0  0  0  0  0  0  0  0  0
    3.7616   19.4308   39.8319 H   0  0  0  0  0  0  0  0  0  0  0  0
    3.1967   21.4389   40.4533 H   0  0  0  0  0  0  0  0  0  0  0  0
    1.3509   20.9910   40.1127 H   0  0  0  0  0  0  0  0  0  0  0  0
    3.0536   25.6271   31.6040 H   0  0  0  0  0  0  0  0  0  0  0  0
    3.9503   25.2692   30.0893 H   0  0  0  0  0  0  0  0  0  0  0  0
    2.2290   24.7815   30.2506 H   0  0  0  0  0  0  0  0  0  0  0  0
    3.6688   19.0863   37.7121 H   0  0  0  0  0  0  0  0  0  0  0  0
    4.0891   22.4988   28.9424 H   0  0  0  0  0  0  0  0  0  0  0  0
    2.9394   20.7779   42.5803 H   0  0  0  0  0  0  0  0  0  0  0  0
    1.2495   21.3520   42.2450 H   0  0  0  0  0  0  0  0  0  0  0  0
  2  9  1  0
  2 25  2  0
  3 26  1  0
  3  1  1  0
  5 19  1  0
  6 21  2  3
  7 23  1  0
  8 23  1  0
  8 11  2  0
  9  7  1  0
 10  6  1  0
 11  4  1  0
 12 22  2  0
 13 16  2  0
 13 12  1  0
 14  5  1  0
 15 21  1  0
 15 25  1  0
 15 17  1  0
 16 14  1  0
 17 27  1  0
 18 16  1  0
 19 10  3  0
 20  9  2  0
 22  5  1  0
 23 24  2  0
 25  8  1  0
 26  1  1  0
 26 13  1  0
 27 11  1  0
  1 28  1  0
  1 29  1  0
  3 30  1  0
  3 31  1  0
  4 32  1  0
  5 33  1  1
  6 34  1  0
  7 35  1  0
  7 36  1  0
 12 37  1  0
 15 38  1  1
 17 39  1  0
 17 40  1  0
 18 41  1  0
 18 42  1  0
 18 43  1  0
 21 44  1  0
 26 45  1  0
 27 46  1  0
 27 47  1  0
M  END
>  <mol_id>  (90) 
2026-09-18-3war-s0-n100-0092

>  <rmsd_to_ref>  (90) 


$$$$

     RDKit          3D

 47 51  0  0  0  0  0  0  0  0999 V2000
    3.1789   17.0844   39.7933 C   0  0  0  0  0  0  0  0  0  0  0  0
    2.8716   24.1475   31.9224 C   0  0  0  0  0  0  0  0  0  0  0  0
    0.6767   22.0121   40.0543 C   0  0  0  0  0  0  0  0  0  0  0  0
    1.4668   21.6423   38.8017 N   0  0  0  0  0  0  0  0  0  0  0  0
   -0.3164   25.9357   30.3333 C   0  0  0  0  0  0  0  0  0  0  0  0
    0.7563   25.3647   31.3405 C   0  0  2  0  0  0  0  0  0  0  0  0
    2.3623   22.8266   34.0753 N   0  0  0  0  0  0  0  0  0  0  0  0
    2.0942   24.9637   31.0274 C   0  0  0  0  0  0  0  0  0  0  0  0
    4.6875   17.6824   38.1162 N   0  0  0  0  0  0  0  0  0  0  0  0
    4.4930   15.4029   38.7158 C   0  0  0  0  0  0  0  0  0  0  0  0
    1.0666   24.4282   35.1563 C   0  0  0  0  0  0  0  0  0  0  0  0
    2.1369   18.0766   40.8473 S   0  0  0  0  0  0  0  0  0  0  0  0
    1.1525   24.6495   33.6929 C   0  0  0  0  0  0  0  0  0  0  0  0
    0.3652   25.3573   32.7124 C   0  0  0  0  0  0  0  0  0  0  0  0
    3.5994   15.9182   39.6016 N   0  0  0  0  0  0  0  0  0  0  0  0
    5.0958   16.4528   37.9380 C   0  0  0  0  0  0  0  0  0  0  0  0
    1.0814   22.5161   37.5573 C   0  0  0  0  0  0  0  0  0  0  0  0
    3.1158   19.2198   38.8475 C   0  0  0  0  0  0  0  0  0  0  0  0
    3.6435   17.9810   38.8270 C   0  0  0  0  0  0  0  0  0  0  0  0
    2.2026   23.8254   33.1796 C   0  0  2  0  0  0  0  0  0  0  0  0
    1.7342   23.2010   35.2889 C   0  0  0  0  0  0  0  0  0  0  0  0
    2.3054   19.5871   39.9502 C   0  0  0  0  0  0  0  0  0  0  0  0
    1.8395   22.3086   36.3868 C   0  0  0  0  0  0  0  0  0  0  0  0
    1.7446   20.9269   40.1607 C   0  0  2  0  0  0  0  0  0  0  0  0
    3.1106   23.2048   31.4085 H   0  0  0  0  0  0  0  0  0  0  0  0
    3.7659   24.7323   32.1837 H   0  0  0  0  0  0  0  0  0  0  0  0
    0.8406   22.9880   40.5347 H   0  0  0  0  0  0  0  0  0  0  0  0
   -0.3941   22.0639   40.3006 H   0  0  0  0  0  0  0  0  0  0  0  0
   -1.0965   26.4719   30.8935 H   0  0  0  0  0  0  0  0  0  0  0  0
    0.1718   26.6275   29.6310 H   0  0  0  0  0  0  0  0  0  0  0  0
   -0.7720   25.1058   29.7733 H   0  0  0  0  0  0  0  0  0  0  0  0
    1.1759   26.3738   31.4656 H   0  0  0  0  0  0  0  0  0  0  0  0
    3.3663   22.6657   34.2397 H   0  0  0  0  0  0  0  0  0  0  0  0
    1.9395   21.9597   33.7138 H   0  0  0  0  0  0  0  0  0  0  0  0
    2.0367   24.4116   30.0777 H   0  0  0  0  0  0  0  0  0  0  0  0
    2.6364   25.9204   31.0549 H   0  0  0  0  0  0  0  0  0  0  0  0
    4.7231   14.3326   38.6086 H   0  0  0  0  0  0  0  0  0  0  0  0
    1.5771   25.2265   35.7149 H   0  0  0  0  0  0  0  0  0  0  0  0
    0.0403   24.4276   35.5522 H   0  0  0  0  0  0  0  0  0  0  0  0
   -0.5425   25.8946   33.0248 H   0  0  0  0  0  0  0  0  0  0  0  0
    5.8855   16.2253   37.2070 H   0  0  0  0  0  0  0  0  0  0  0  0
    0.0286   22.3082   37.3154 H   0  0  0  0  0  0  0  0  0  0  0  0
    1.2836   23.5552   37.8560 H   0  0  0  0  0  0  0  0  0  0  0  0
    3.3090   19.9287   38.0287 H   0  0  0  0  0  0  0  0  0  0  0  0
    2.9427   24.4270   33.7276 H   0  0  0  0  0  0  0  0  0  0  0  0
    2.5194   21.4463   36.3242 H   0  0  0  0  0  0  0  0  0  0  0  0
    2.1917   20.6954   41.1386 H   0  0  0  0  0  0  0  0  0  0  0  0
  1 12  1  0
  4 24  1  0
  4  3  1  0
  6  5  1  0
  6 14  1  0
  7 21  1  0
  8  6  1  0
  8  2  1  0
  9 19  1  0
 10 15  2  0
 13 11  1  0
 14 13  2  0
 15  1  1  0
 16  9  2  0
 16 10  1  0
 17  4  1  0
 18 22  2  0
 19 18  1  0
 19  1  2  0
 20  2  1  0
 20 13  1  0
 20  7  1  0
 21 11  1  0
 21 23  2  3
 22 12  1  0
 23 17  1  0
 24 22  1  0
 24  3  1  0
  2 25  1  0
  2 26  1  0
  3 27  1  0
  3 28  1  0
  5 29  1  0
  5 30  1  0
  5 31  1  0
  6 32  1  6
  7 33  1  0
  7 34  1  0
  8 35  1  0
  8 36  1  0
 10 37  1  0
 11 38  1  0
 11 39  1  0
 14 40  1  0
 16 41  1  0
 17 42  1  0
 17 43  1  0
 18 44  1  0
 20 45  1  1
 23 46  1  0
 24 47  1  1
M  CHG  1   7   1
M  END
>  <mol_id>  (91) 
2026-09-18-3war-s0-n100-0093

>  <rmsd_to_ref>  (91) 


$$$$

     RDKit          3D

 67 68  0  0  0  0  0  0  0  0999 V2000
    2.8698   22.7632   34.3014 C   0  0  0  0  0  0  0  0  0  0  0  0
    3.2988   19.5599   36.4295 S   0  0  0  0  0  0  0  0  0  0  0  0
    3.6305   24.4368   32.1282 C   0  0  0  0  0  0  0  0  0  0  0  0
    1.5902   19.3396   39.9808 C   0  0  2  0  0  0  0  0  0  0  0  0
    2.4647   21.9016   35.4991 C   0  0  0  0  0  0  0  0  0  0  0  0
    1.7065   20.8218   37.6331 N   0  0  0  0  0  0  0  0  0  0  0  0
    1.9143   19.7033   38.4512 C   0  0  0  0  0  0  0  0  0  0  0  0
    4.5438   17.1364   37.6617 C   0  0  0  0  0  0  0  0  0  0  0  0
    2.4413   20.7992   36.3687 C   0  0  0  0  0  0  0  0  0  0  0  0
    0.8435   17.7758   40.1738 S   0  0  0  0  0  0  0  0  0  0  0  0
   -0.1845   27.4112   32.7017 C   0  0  0  0  0  0  0  0  0  0  0  0
    0.8452   25.7276   34.3449 C   0  0  0  0  0  0  0  0  0  0  0  0
    0.5239   27.0363   31.6299 C   0  0  0  0  0  0  0  0  0  0  0  0
    4.2231   14.1733   37.5800 C   0  0  0  0  0  0  0  0  0  0  0  0
    0.2801   27.0772   34.1388 C   0  0  0  0  0  0  0  0  0  0  0  0
    4.2349   16.3034   36.4138 C   0  0  0  0  0  0  0  0  0  0  0  0
    2.8907   18.8005   37.8233 C   0  0  0  0  0  0  0  0  0  0  0  0
    2.2234   25.8748   30.9101 C   0  0  0  0  0  0  0  0  0  0  0  0
    3.6023   15.0408   36.4368 C   0  0  0  0  0  0  0  0  0  0  0  0
    3.4628   17.6698   38.3398 N   0  0  0  0  0  0  0  0  0  0  0  0
    1.1666   26.5413   30.5131 C   0  0  0  0  0  0  0  0  0  0  0  0
    1.5091   23.5233   33.7943 C   0  0  0  0  0  0  0  0  0  0  0  0
    1.6712   24.8894   33.7306 C   0  0  1  0  0  0  0  0  0  0  0  0
    3.2879   14.0663   38.6901 O   0  0  0  0  0  0  0  0  0  0  0  0
   -0.4490   20.0487   41.2212 C   0  0  0  0  0  0  0  0  0  0  0  0
    2.3507   25.3375   32.4089 C   0  0  1  0  0  0  0  0  0  0  0  0
    0.6684   20.4337   40.4730 C   0  0  0  0  0  0  0  0  0  0  0  0
    3.6275   23.5014   34.6031 H   0  0  0  0  0  0  0  0  0  0  0  0
    3.3057   22.1498   33.4990 H   0  0  0  0  0  0  0  0  0  0  0  0
    3.9676   23.9757   33.0683 H   0  0  0  0  0  0  0  0  0  0  0  0
    3.3729   23.6489   31.4050 H   0  0  0  0  0  0  0  0  0  0  0  0
    4.4363   25.0627   31.7171 H   0  0  0  0  0  0  0  0  0  0  0  0
    2.5244   19.2805   40.5586 H   0  0  0  0  0  0  0  0  0  0  0  0
    2.6951   22.6535   36.2683 H   0  0  0  0  0  0  0  0  0  0  0  0
    1.8672   21.2988   34.7994 H   0  0  0  0  0  0  0  0  0  0  0  0
    5.1878   17.9727   37.3523 H   0  0  0  0  0  0  0  0  0  0  0  0
    5.0083   16.4334   38.3688 H   0  0  0  0  0  0  0  0  0  0  0  0
    0.6533   17.5219   41.5065 H   0  0  0  0  0  0  0  0  0  0  0  0
   -1.1818   26.9616   32.5864 H   0  0  0  0  0  0  0  0  0  0  0  0
   -0.0912   28.5068   32.6734 H   0  0  0  0  0  0  0  0  0  0  0  0
    1.3237   25.8326   35.3298 H   0  0  0  0  0  0  0  0  0  0  0  0
   -0.0524   25.2254   33.9549 H   0  0  0  0  0  0  0  0  0  0  0  0
    0.3857   28.0187   31.1547 H   0  0  0  0  0  0  0  0  0  0  0  0
    1.1816   26.4351   32.2749 H   0  0  0  0  0  0  0  0  0  0  0  0
    5.1524   14.6455   37.9313 H   0  0  0  0  0  0  0  0  0  0  0  0
    4.4384   13.1667   37.1920 H   0  0  0  0  0  0  0  0  0  0  0  0
    1.0501   27.8102   34.4213 H   0  0  0  0  0  0  0  0  0  0  0  0
   -0.6285   27.1134   34.7577 H   0  0  0  0  0  0  0  0  0  0  0  0
    5.2034   16.1411   35.9180 H   0  0  0  0  0  0  0  0  0  0  0  0
    3.4523   16.9176   35.9444 H   0  0  0  0  0  0  0  0  0  0  0  0
    3.0883   26.5331   30.7410 H   0  0  0  0  0  0  0  0  0  0  0  0
    2.1512   24.9441   30.3282 H   0  0  0  0  0  0  0  0  0  0  0  0
    2.5254   15.1725   36.6188 H   0  0  0  0  0  0  0  0  0  0  0  0
    3.7493   14.5369   35.4701 H   0  0  0  0  0  0  0  0  0  0  0  0
    3.1023   17.2329   39.2001 H   0  0  0  0  0  0  0  0  0  0  0  0
    1.4738   27.3724   29.8612 H   0  0  0  0  0  0  0  0  0  0  0  0
    0.4919   25.8817   29.9476 H   0  0  0  0  0  0  0  0  0  0  0  0
    1.2467   23.1503   32.7933 H   0  0  0  0  0  0  0  0  0  0  0  0
    0.7116   23.3107   34.5215 H   0  0  0  0  0  0  0  0  0  0  0  0
    2.3903   25.0604   34.5453 H   0  0  0  0  0  0  0  0  0  0  0  0
    3.7895   13.9233   39.5315 H   0  0  0  0  0  0  0  0  0  0  0  0
   -0.1820   20.0142   42.2878 H   0  0  0  0  0  0  0  0  0  0  0  0
   -1.2602   20.7762   41.0696 H   0  0  0  0  0  0  0  0  0  0  0  0
   -0.7837   19.0531   40.8946 H   0  0  0  0  0  0  0  0  0  0  0  0
    1.8634   26.2169   32.8553 H   0  0  0  0  0  0  0  0  0  0  0  0
    1.2668   21.1116   41.0995 H   0  0  0  0  0  0  0  0  0  0  0  0
    0.2525   20.8821   39.5587 H   0  0  0  0  0  0  0  0  0  0  0  0
  1  5  1  0
  2 17  1  0
  4 27  1  0
  4 10  1  0
  5  9  1  0
  6  7  1  0
  7  4  1  0
  8 20  1  0
  9  2  1  0
  9  6  2  0
 11 15  1  0
 13 11  1  0
 14 24  1  0
 15 12  1  0
 16 19  1  0
 16  8  1  0
 17 20  1  0
 17  7  2  0
 18 26  1  0
 19 14  1  0
 21 18  1  0
 21 13  1  0
 22  1  1  0
 23 22  1  0
 23 12  1  0
 26  3  1  0
 26 23  1  0
 27 25  1  0
  1 28  1  0
  1 29  1  0
  3 30  1  0
  3 31  1  0
  3 32  1  0
  4 33  1  1
  5 34  1  0
  5 35  1  0
  8 36  1  0
  8 37  1  0
 10 38  1  0
 11 39  1  0
 11 40  1  0
 12 41  1  0
 12 42  1  0
 13 43  1  0
 13 44  1  0
 14 45  1  0
 14 46  1  0
 15 47  1  0
 15 48  1  0
 16 49  1  0
 16 50  1  0
 18 51  1  0
 18 52  1  0
 19 53  1  0
 19 54  1  0
 20 55  1  0
 21 56  1  0
 21 57  1  0
 22 58  1  0
 22 59  1  0
 23 60  1  1
 24 61  1  0
 25 62  1  0
 25 63  1  0
 25 64  1  0
 26 65  1  1
 27 66  1  0
 27 67  1  0
M  END
>  <mol_id>  (92) 
2026-09-18-3war-s0-n100-0094

>  <rmsd_to_ref>  (92) 


$$$$

     RDKit          3D

 44 45  0  0  0  0  0  0  0  0999 V2000
    2.0723   17.1557   40.0276 O   0  0  0  0  0  0  0  0  0  0  0  0
    3.6983   22.1084   33.9641 N   0  0  0  0  0  0  0  0  0  0  0  0
    2.6792   24.5031   30.9082 C   0  0  0  0  0  0  0  0  0  0  0  0
    2.5243   19.4178   39.6174 C   0  0  1  0  0  0  0  0  0  0  0  0
    1.8469   22.0354   35.2684 O   0  0  0  0  0  0  0  0  0  0  0  0
    1.1141   26.3796   32.2346 C   0  0  0  0  0  0  0  0  0  0  0  0
    1.1588   20.5139   41.5804 C   0  0  0  0  0  0  0  0  0  0  0  0
    2.1678   18.3160   40.7509 C   0  0  1  0  0  0  0  0  0  0  0  0
    2.4686   20.1235   37.2267 C   0  0  0  0  0  0  0  0  0  0  0  0
    3.7985   22.7992   32.7053 C   0  0  0  0  0  0  0  0  0  0  0  0
    3.0738   21.5934   35.0311 C   0  0  0  0  0  0  0  0  0  0  0  0
    1.8989   17.0689   42.4166 O   0  0  0  0  0  0  0  0  0  0  0  0
    3.0945   19.2363   38.2407 C   0  0  0  0  0  0  0  0  0  0  0  0
    3.6907   20.4031   36.0435 S   0  0  0  0  0  0  0  0  0  0  0  0
    1.5929   24.9203   31.9405 C   0  0  2  0  0  0  0  0  0  0  0  0
    2.8634   24.1897   32.6836 C   0  0  2  0  0  0  0  0  0  0  0  0
    1.8672   20.8804   40.1186 S   0  0  0  0  0  0  0  0  0  0  0  0
    0.7472   26.6052   33.6831 C   0  0  0  0  0  0  0  0  0  0  0  0
    1.0295   18.1674   42.7633 N   0  0  0  0  0  0  0  0  0  0  0  0
    0.9668   18.9161   41.4819 C   0  0  1  0  0  0  0  0  0  0  0  0
    2.1025   16.3802   40.6423 H   0  0  0  0  0  0  0  0  0  0  0  0
    4.6820   21.8718   34.1572 H   0  0  0  0  0  0  0  0  0  0  0  0
    2.4950   23.6709   30.2129 H   0  0  0  0  0  0  0  0  0  0  0  0
    3.2673   25.0119   30.1301 H   0  0  0  0  0  0  0  0  0  0  0  0
    3.5233   19.1163   39.2691 H   0  0  0  0  0  0  0  0  0  0  0  0
    0.2308   26.5896   31.6135 H   0  0  0  0  0  0  0  0  0  0  0  0
    1.9527   27.0520   32.0013 H   0  0  0  0  0  0  0  0  0  0  0  0
    1.8160   20.7846   42.4199 H   0  0  0  0  0  0  0  0  0  0  0  0
    0.2207   21.0587   41.7627 H   0  0  0  0  0  0  0  0  0  0  0  0
    2.8611   18.0694   41.5684 H   0  0  0  0  0  0  0  0  0  0  0  0
    1.5971   19.6313   36.7704 H   0  0  0  0  0  0  0  0  0  0  0  0
    2.1089   21.0628   37.6721 H   0  0  0  0  0  0  0  0  0  0  0  0
    4.8495   23.0739   32.5323 H   0  0  0  0  0  0  0  0  0  0  0  0
    3.4310   22.1271   31.9157 H   0  0  0  0  0  0  0  0  0  0  0  0
    2.2889   16.6838   43.2411 H   0  0  0  0  0  0  0  0  0  0  0  0
    4.1723   19.4530   38.2772 H   0  0  0  0  0  0  0  0  0  0  0  0
    2.8918   18.1987   37.9370 H   0  0  0  0  0  0  0  0  0  0  0  0
    0.5123   24.7160   31.9620 H   0  0  0  0  0  0  0  0  0  0  0  0
    3.1006   24.3485   33.7459 H   0  0  0  0  0  0  0  0  0  0  0  0
    1.5723   26.2671   34.3272 H   0  0  0  0  0  0  0  0  0  0  0  0
    0.5651   27.6766   33.8526 H   0  0  0  0  0  0  0  0  0  0  0  0
   -0.1628   26.0360   33.9238 H   0  0  0  0  0  0  0  0  0  0  0  0
    0.0980   17.8334   43.0492 H   0  0  0  0  0  0  0  0  0  0  0  0
   -0.0246   18.8172   41.0156 H   0  0  0  0  0  0  0  0  0  0  0  0
  2 11  1  0
  3 15  1  0
  3 16  1  0
  4 13  1  0
  4 17  1  0
  4  8  1  0
  6 18  1  0
  8  1  1  0
  8 20  1  0
  9 13  1  0
 10  2  1  0
 11  5  2  0
 11 14  1  0
 12 19  1  0
 14  9  1  0
 15  6  1  0
 15 16  1  0
 16 10  1  0
 17  7  1  0
 20  7  1  0
 20 19  1  0
  1 21  1  0
  2 22  1  0
  3 23  1  0
  3 24  1  0
  4 25  1  1
  6 26  1  0
  6 27  1  0
  7 28  1  0
  7 29  1  0
  8 30  1  1
  9 31  1  0
  9 32  1  0
 10 33  1  0
 10 34  1  0
 12 35  1  0
 13 36  1  0
 13 37  1  0
 15 38  1  6
 16 39  1  1
 18 40  1  0
 18 41  1  0
 18 42  1  0
 19 43  1  0
 20 44  1  6
M  END
>  <mol_id>  (93) 
2026-09-18-3war-s0-n100-0095

>  <rmsd_to_ref>  (93) 


$$$$

     RDKit          3D

 47 49  0  0  0  0  0  0  0  0999 V2000
    5.9703   23.4615   27.3524 C   0  0  0  0  0  0  0  0  0  0  0  0
    4.1291   24.2781   29.0594 N   0  0  0  0  0  0  0  0  0  0  0  0
    4.8170   24.3972   27.7413 C   0  0  0  0  0  0  0  0  0  0  0  0
    2.1027   20.3456   38.6404 C   0  0  0  0  0  0  0  0  0  0  0  0
    3.2525   23.5978   33.5467 C   0  0  0  0  0  0  0  0  0  0  0  0
    2.1384   16.8985   39.9894 C   0  0  0  0  0  0  0  0  0  0  0  0
    3.6734   25.8483   31.7801 C   0  0  0  0  0  0  0  0  0  0  0  0
    3.0515   22.2330   34.4829 C   0  0  0  0  0  0  0  0  0  0  0  0
    2.2074   21.0523   37.4389 C   0  0  0  0  0  0  0  0  0  0  0  0
    2.8361   24.8487   33.9318 C   0  0  0  0  0  0  0  0  0  0  0  0
    4.1345   24.5794   31.3844 C   0  0  0  0  0  0  0  0  0  0  0  0
    2.6893   19.0079   38.6944 C   0  0  0  0  0  0  0  0  0  0  0  0
    3.1037   21.3779   35.0167 C   0  0  0  0  0  0  0  0  0  0  0  0
    4.3928   17.6115   37.9332 O   0  0  0  0  0  0  0  0  0  0  0  0
    4.7536   24.3132   30.1456 N   0  0  0  0  0  0  0  0  0  0  0  0
    3.6209   18.7040   37.6775 C   0  0  0  0  0  0  0  0  0  0  0  0
    1.5277   20.5249   39.8417 N   0  0  0  0  0  0  0  0  0  0  0  0
    2.1442   18.3819   39.8185 C   0  0  1  0  0  0  0  0  0  0  0  0
    3.9177   23.4102   32.3112 C   0  0  0  0  0  0  0  0  0  0  0  0
    2.9743   20.5791   36.3538 C   0  0  0  0  0  0  0  0  0  0  0  0
    1.5270   16.6049   41.4423 C   0  0  0  0  0  0  0  0  0  0  0  0
    3.7016   19.4626   36.5101 C   0  0  0  0  0  0  0  0  0  0  0  0
    3.1388   25.9551   33.1160 C   0  0  0  0  0  0  0  0  0  0  0  0
    1.4429   19.3289   40.5616 C   0  0  0  0  0  0  0  0  0  0  0  0
    6.4462   23.0679   28.2628 H   0  0  0  0  0  0  0  0  0  0  0  0
    5.5787   22.6263   26.7531 H   0  0  0  0  0  0  0  0  0  0  0  0
    6.7125   24.0196   26.7628 H   0  0  0  0  0  0  0  0  0  0  0  0
    5.2170   25.4207   27.6911 H   0  0  0  0  0  0  0  0  0  0  0  0
    4.0264   24.1057   27.0341 H   0  0  0  0  0  0  0  0  0  0  0  0
    3.1635   16.5051   39.9228 H   0  0  0  0  0  0  0  0  0  0  0  0
    1.5423   16.4118   39.2034 H   0  0  0  0  0  0  0  0  0  0  0  0
    3.7181   26.7155   31.1049 H   0  0  0  0  0  0  0  0  0  0  0  0
    1.6740   22.0088   37.3362 H   0  0  0  0  0  0  0  0  0  0  0  0
    2.2727   24.9844   34.8668 H   0  0  0  0  0  0  0  0  0  0  0  0
    3.4072   20.6198   34.2797 H   0  0  0  0  0  0  0  0  0  0  0  0
    5.0746   17.3224   37.2761 H   0  0  0  0  0  0  0  0  0  0  0  0
    1.1902   21.4335   40.1902 H   0  0  0  0  0  0  0  0  0  0  0  0
    2.6876   17.7592   40.5443 H   0  0  0  0  0  0  0  0  0  0  0  0
    3.3381   22.6632   31.7491 H   0  0  0  0  0  0  0  0  0  0  0  0
    4.9390   23.1363   32.6142 H   0  0  0  0  0  0  0  0  0  0  0  0
    2.2834   16.8258   42.2099 H   0  0  0  0  0  0  0  0  0  0  0  0
    0.6440   17.2407   41.6038 H   0  0  0  0  0  0  0  0  0  0  0  0
    1.2343   15.5468   41.5099 H   0  0  0  0  0  0  0  0  0  0  0  0
    4.3744   19.1395   35.7021 H   0  0  0  0  0  0  0  0  0  0  0  0
    2.9569   26.9615   33.5212 H   0  0  0  0  0  0  0  0  0  0  0  0
    1.8984   19.4482   41.5557 H   0  0  0  0  0  0  0  0  0  0  0  0
    0.3970   19.0253   40.7160 H   0  0  0  0  0  0  0  0  0  0  0  0
  1  3  1  0
  2 15  2  3
  3  2  1  0
  4 12  2  0
  4 17  1  0
  5 10  1  0
  5  8  2  0
  6 21  1  0
  7 23  1  0
  8 13  2  0
  9  4  1  0
 11  7  2  0
 11 19  1  0
 12 18  1  0
 13 20  1  0
 15 11  1  0
 16 14  1  0
 16 12  1  0
 17 24  1  0
 18  6  1  0
 18 24  1  0
 19  5  1  0
 20 22  1  0
 20  9  2  0
 22 16  2  0
 23 10  2  0
  1 25  1  0
  1 26  1  0
  1 27  1  0
  3 28  1  0
  3 29  1  0
  6 30  1  0
  6 31  1  0
  7 32  1  0
  9 33  1  0
 10 34  1  0
 13 35  1  0
 14 36  1  0
 17 37  1  0
 18 38  1  1
 19 39  1  0
 19 40  1  0
 21 41  1  0
 21 42  1  0
 21 43  1  0
 22 44  1  0
 23 45  1  0
 24 46  1  0
 24 47  1  0
M  END
>  <mol_id>  (94) 
2026-09-18-3war-s0-n100-0096

>  <rmsd_to_ref>  (94) 


$$$$

     RDKit          3D

 70 73  0  0  0  0  0  0  0  0999 V2000
    2.1517   15.0803   36.5407 C   0  0  0  0  0  0  0  0  0  0  0  0
   -0.8517   20.1001   42.8421 O   0  0  0  0  0  0  0  0  0  0  0  0
    0.0620   20.1328   41.9062 C   0  0  0  0  0  0  0  0  0  0  0  0
    2.8499   15.1963   39.0010 C   0  0  0  0  0  0  0  0  0  0  0  0
    3.1771   24.7147   32.4348 C   0  0  1  0  0  0  0  0  0  0  0  0
    2.3364   25.6247   31.5032 C   0  0  0  0  0  0  0  0  0  0  0  0
    2.5782   23.6930   33.4986 C   0  0  0  0  0  0  0  0  0  0  0  0
    0.6589   21.3904   41.5070 C   0  0  0  0  0  0  0  0  0  0  0  0
    2.1521   25.9952   28.8690 C   0  0  0  0  0  0  0  0  0  0  0  0
    2.9998   18.8266   38.5176 C   0  0  0  0  0  0  0  0  0  0  0  0
    3.0062   13.8099   36.3724 C   0  0  0  0  0  0  0  0  0  0  0  0
    4.6559   24.3793   32.1349 C   0  0  0  0  0  0  0  0  0  0  0  0
    1.5208   21.3744   40.4364 C   0  0  0  0  0  0  0  0  0  0  0  0
    2.5569   21.5292   35.7516 C   0  0  0  0  0  0  0  0  0  0  0  0
    1.7997   20.2600   39.7396 C   0  0  0  0  0  0  0  0  0  0  0  0
    1.4421   19.0210   40.2205 C   0  0  0  0  0  0  0  0  0  0  0  0
    2.6291   15.9089   37.6696 C   0  0  0  0  0  0  0  0  0  0  0  0
    2.5448   13.0254   39.9859 O   0  0  0  0  0  0  0  0  0  0  0  0
    1.6176   22.7624   35.9081 C   0  0  0  0  0  0  0  0  0  0  0  0
    2.5315   20.1133   38.4208 N   0  0  0  0  0  0  0  0  0  0  0  0
    2.5357   13.7817   38.8245 C   0  0  0  0  0  0  0  0  0  0  0  0
    3.4462   13.2356   37.7367 C   0  0  0  0  0  0  0  0  0  0  0  0
    3.7851   18.4327   37.7525 O   0  0  0  0  0  0  0  0  0  0  0  0
    4.0004   24.6515   29.8015 C   0  0  0  0  0  0  0  0  0  0  0  0
    2.3681   24.1558   35.0174 C   0  0  0  0  0  0  0  0  0  0  0  0
    2.3107   18.2033   39.4692 O   0  0  0  0  0  0  0  0  0  0  0  0
    1.4197   26.7311   31.7621 C   0  0  0  0  0  0  0  0  0  0  0  0
    2.8476   25.4593   30.0561 C   0  0  0  0  0  0  0  0  0  0  0  0
    1.0679   27.0418   29.0550 C   0  0  0  0  0  0  0  0  0  0  0  0
    2.7755   20.9189   37.1220 C   0  0  0  0  0  0  0  0  0  0  0  0
    0.7423   27.2545   30.5899 C   0  0  0  0  0  0  0  0  0  0  0  0
    5.0137   24.1493   30.6913 C   0  0  0  0  0  0  0  0  0  0  0  0
    0.4565   18.9807   41.2702 C   0  0  0  0  0  0  0  0  0  0  0  0
    0.6049   28.0350   27.7240 Cl  0  0  0  0  0  0  0  0  0  0  0  0
    1.1084   14.7871   36.7287 H   0  0  0  0  0  0  0  0  0  0  0  0
    2.2313   15.6746   35.6184 H   0  0  0  0  0  0  0  0  0  0  0  0
   -1.2554   19.2367   43.1098 H   0  0  0  0  0  0  0  0  0  0  0  0
    3.8990   15.3078   39.3124 H   0  0  0  0  0  0  0  0  0  0  0  0
    2.2024   15.6334   39.7755 H   0  0  0  0  0  0  0  0  0  0  0  0
    3.0384   25.7036   32.8961 H   0  0  0  0  0  0  0  0  0  0  0  0
    1.5928   23.3820   33.1215 H   0  0  0  0  0  0  0  0  0  0  0  0
    3.3558   22.9186   33.5737 H   0  0  0  0  0  0  0  0  0  0  0  0
    0.4308   22.3246   42.0411 H   0  0  0  0  0  0  0  0  0  0  0  0
    2.4163   25.6405   27.8618 H   0  0  0  0  0  0  0  0  0  0  0  0
    2.4155   13.0505   35.8393 H   0  0  0  0  0  0  0  0  0  0  0  0
    3.9095   14.0757   35.8037 H   0  0  0  0  0  0  0  0  0  0  0  0
    5.2692   25.2155   32.5019 H   0  0  0  0  0  0  0  0  0  0  0  0
    4.8440   23.4191   32.6376 H   0  0  0  0  0  0  0  0  0  0  0  0
    2.0038   22.3161   40.1367 H   0  0  0  0  0  0  0  0  0  0  0  0
    2.0904   20.7889   35.0851 H   0  0  0  0  0  0  0  0  0  0  0  0
    3.5189   21.8389   35.3175 H   0  0  0  0  0  0  0  0  0  0  0  0
    3.5870   16.3591   37.3702 H   0  0  0  0  0  0  0  0  0  0  0  0
    1.8203   16.6298   37.8596 H   0  0  0  0  0  0  0  0  0  0  0  0
    2.5875   13.6269   40.7711 H   0  0  0  0  0  0  0  0  0  0  0  0
    0.6294   22.5356   35.4817 H   0  0  0  0  0  0  0  0  0  0  0  0
    1.4897   23.0129   36.9716 H   0  0  0  0  0  0  0  0  0  0  0  0
    1.4840   13.6995   38.5128 H   0  0  0  0  0  0  0  0  0  0  0  0
    3.3757   12.1382   37.7142 H   0  0  0  0  0  0  0  0  0  0  0  0
    4.4863   13.5282   37.9433 H   0  0  0  0  0  0  0  0  0  0  0  0
    3.5895   23.7459   29.3314 H   0  0  0  0  0  0  0  0  0  0  0  0
    4.6118   25.4332   29.3271 H   0  0  0  0  0  0  0  0  0  0  0  0
    3.3371   24.4135   35.4698 H   0  0  0  0  0  0  0  0  0  0  0  0
    1.7211   25.0440   35.0678 H   0  0  0  0  0  0  0  0  0  0  0  0
    1.2546   27.1379   32.7708 H   0  0  0  0  0  0  0  0  0  0  0  0
    3.7211   20.4192   36.8646 H   0  0  0  0  0  0  0  0  0  0  0  0
    2.0562   21.6567   37.5072 H   0  0  0  0  0  0  0  0  0  0  0  0
   -0.1274   27.8947   30.7991 H   0  0  0  0  0  0  0  0  0  0  0  0
    5.1321   23.0689   30.5219 H   0  0  0  0  0  0  0  0  0  0  0  0
    5.9495   24.6881   30.4816 H   0  0  0  0  0  0  0  0  0  0  0  0
    0.0151   18.0174   41.5656 H   0  0  0  0  0  0  0  0  0  0  0  0
  1 17  1  0
  3  2  1  0
  5  7  1  0
  6 27  1  0
  6  5  1  0
  7 25  1  0
  8  3  2  0
  9 29  2  0
  9 28  1  0
 10 26  1  0
 11  1  1  0
 11 22  1  0
 12  5  1  0
 13  8  1  0
 14 19  1  0
 14 30  1  0
 15 16  1  0
 15 13  2  0
 16 33  2  0
 17  4  1  0
 20 10  1  0
 20 15  1  0
 21  4  1  0
 21 18  1  0
 22 21  1  0
 23 10  2  0
 24 28  1  0
 24 32  1  0
 25 19  1  0
 26 16  1  0
 28  6  2  0
 29 31  1  0
 30 20  1  0
 31 27  2  0
 32 12  1  0
 33  3  1  0
 34 29  1  0
  1 35  1  0
  1 36  1  0
  2 37  1  0
  4 38  1  0
  4 39  1  0
  5 40  1  1
  7 41  1  0
  7 42  1  0
  8 43  1  0
  9 44  1  0
 11 45  1  0
 11 46  1  0
 12 47  1  0
 12 48  1  0
 13 49  1  0
 14 50  1  0
 14 51  1  0
 17 52  1  0
 17 53  1  0
 18 54  1  0
 19 55  1  0
 19 56  1  0
 21 57  1  0
 22 58  1  0
 22 59  1  0
 24 60  1  0
 24 61  1  0
 25 62  1  0
 25 63  1  0
 27 64  1  0
 30 65  1  0
 30 66  1  0
 31 67  1  0
 32 68  1  0
 32 69  1  0
 33 70  1  0
M  END
>  <mol_id>  (95) 
2026-09-18-3war-s0-n100-0097

>  <rmsd_to_ref>  (95) 


$$$$

     RDKit          3D

 44 44  0  0  0  0  0  0  0  0999 V2000
    1.1150   21.1390   40.9120 C   0  0  0  0  0  0  0  0  0  0  0  0
    1.7220   18.4730   41.9080 C   0  0  0  0  0  0  0  0  0  0  0  0
    3.0190   18.4900   37.5060 C   0  0  0  0  0  0  0  0  0  0  0  0
    2.1290   19.2010   39.6240 C   0  0  0  0  0  0  0  0  0  0  0  0
    2.3910   21.4620   36.2610 C   0  0  0  0  0  0  0  0  0  0  0  0
    2.2320   20.7950   37.3830 C   0  0  0  0  0  0  0  0  0  0  0  0
    3.1740   21.7330   35.0280 C   0  0  0  0  0  0  0  0  0  0  0  0
    1.4680   19.7560   40.8920 C   0  0  0  0  0  0  0  0  0  0  0  0
    3.3900   17.5010   38.6030 C   0  0  0  0  0  0  0  0  0  0  0  0
    2.4280   19.6370   38.2480 C   0  0  0  0  0  0  0  0  0  0  0  0
    3.0770   23.9480   30.1920 C   0  0  0  0  0  0  0  0  0  0  0  0
    3.9940   24.0160   31.3710 C   0  0  0  0  0  0  0  0  0  0  0  0
    3.5780   23.1750   35.0070 C   0  0  0  0  0  0  0  0  0  0  0  0
    4.3620   23.6640   33.6410 C   0  0  0  0  0  0  0  0  0  0  0  0
    2.6440   18.0600   39.6920 O   0  0  0  0  0  0  0  0  0  0  0  0
    3.4630   24.3940   32.7480 C   0  0  0  0  0  0  0  0  0  0  0  0
    1.0279   21.4802   41.9541 H   0  0  0  0  0  0  0  0  0  0  0  0
    1.8928   21.7234   40.3986 H   0  0  0  0  0  0  0  0  0  0  0  0
    0.1523   21.2792   40.3986 H   0  0  0  0  0  0  0  0  0  0  0  0
    1.6547   18.8131   42.9519 H   0  0  0  0  0  0  0  0  0  0  0  0
    0.9590   17.7025   41.7234 H   0  0  0  0  0  0  0  0  0  0  0  0
    2.7211   18.0513   41.7234 H   0  0  0  0  0  0  0  0  0  0  0  0
    2.2852   18.0509   36.8141 H   0  0  0  0  0  0  0  0  0  0  0  0
    3.8802   18.7818   36.8869 H   0  0  0  0  0  0  0  0  0  0  0  0
    1.4214   21.2340   35.7943 H   0  0  0  0  0  0  0  0  0  0  0  0
    3.0298   22.1772   36.7999 H   0  0  0  0  0  0  0  0  0  0  0  0
    2.6322   21.5586   38.0662 H   0  0  0  0  0  0  0  0  0  0  0  0
    1.4059   20.2512   36.9015 H   0  0  0  0  0  0  0  0  0  0  0  0
    4.0729   21.0991   35.0164 H   0  0  0  0  0  0  0  0  0  0  0  0
    2.5594   21.5089   34.1437 H   0  0  0  0  0  0  0  0  0  0  0  0
    0.5975   20.1891   41.4065 H   0  0  0  0  0  0  0  0  0  0  0  0
    3.0606   16.4794   38.3623 H   0  0  0  0  0  0  0  0  0  0  0  0
    4.4690   17.3887   38.7851 H   0  0  0  0  0  0  0  0  0  0  0  0
    2.0366   23.8708   30.5407 H   0  0  0  0  0  0  0  0  0  0  0  0
    3.1935   24.8572   29.5840 H   0  0  0  0  0  0  0  0  0  0  0  0
    3.3263   23.0659   29.5840 H   0  0  0  0  0  0  0  0  0  0  0  0
    4.4498   23.0200   31.4725 H   0  0  0  0  0  0  0  0  0  0  0  0
    4.6524   24.8611   31.1214 H   0  0  0  0  0  0  0  0  0  0  0  0
    2.6689   23.7848   35.1145 H   0  0  0  0  0  0  0  0  0  0  0  0
    4.2934   23.3039   35.8326 H   0  0  0  0  0  0  0  0  0  0  0  0
    5.1986   24.3203   33.9229 H   0  0  0  0  0  0  0  0  0  0  0  0
    4.7298   22.7723   33.1123 H   0  0  0  0  0  0  0  0  0  0  0  0
    3.5292   25.4790   32.9162 H   0  0  0  0  0  0  0  0  0  0  0  0
    2.4013   24.1460   32.8935 H   0  0  0  0  0  0  0  0  0  0  0  0
  3 10  1  0
  3  9  1  0
  4 15  1  0
  4  8  1  0
  5  6  1  0
  6 10  1  0
  7  5  1  0
  8  1  1  0
  8  2  1  0
  9 15  1  0
 10  4  2  0
 11 12  1  0
 12 16  1  0
 13  7  1  0
 14 13  1  0
 16 14  1  0
  1 17  1  0
  1 18  1  0
  1 19  1  0
  2 20  1  0
  2 21  1  0
  2 22  1  0
  3 23  1  0
  3 24  1  0
  5 25  1  0
  5 26  1  0
  6 27  1  0
  6 28  1  0
  7 29  1  0
  7 30  1  0
  8 31  1  0
  9 32  1  0
  9 33  1  0
 11 34  1  0
 11 35  1  0
 11 36  1  0
 12 37  1  0
 12 38  1  0
 13 39  1  0
 13 40  1  0
 14 41  1  0
 14 42  1  0
 16 43  1  0
 16 44  1  0
M  END
>  <mol_id>  (96) 
2026-09-18-3war-s0-n100-0098

>  <rmsd_to_ref>  (96) 


$$$$

     RDKit          3D

 35 35  0  0  0  0  0  0  0  0999 V2000
    2.8760   21.1842   36.5512 C   0  0  0  0  0  0  0  0  0  0  0  0
    1.8818   21.0596   38.9752 C   0  0  0  0  0  0  0  0  0  0  0  0
    1.5960   18.2681   41.2702 O   0  0  0  0  0  0  0  0  0  0  0  0
    2.6546   20.5094   37.9495 C   0  0  0  0  0  0  0  0  0  0  0  0
    4.2837   24.9142   31.0262 O   0  0  0  0  0  0  0  0  0  0  0  0
    4.3708   23.5664   31.1249 C   0  0  0  0  0  0  0  0  0  0  0  0
    4.7216   22.5967   34.9979 C   0  0  0  0  0  0  0  0  0  0  0  0
    3.1681   25.6841   30.7645 C   0  0  0  0  0  0  0  0  0  0  0  0
    2.1087   19.0035   40.2860 C   0  0  0  0  0  0  0  0  0  0  0  0
    6.2515   24.3228   32.7490 C   0  0  0  0  0  0  0  0  0  0  0  0
    1.6411   20.3213   40.1590 C   0  0  0  0  0  0  0  0  0  0  0  0
    4.0931   21.5562   34.3071 O   0  0  0  0  0  0  0  0  0  0  0  0
    2.9428   18.4668   39.2608 C   0  0  0  0  0  0  0  0  0  0  0  0
    4.1847   21.3404   35.7386 C   0  0  2  0  0  0  0  0  0  0  0  0
    1.9555   21.7945   36.1434 O   0  0  0  0  0  0  0  0  0  0  0  0
    5.1525   24.0850   31.8003 C   0  0  0  0  0  0  0  0  0  0  0  0
    3.1681   19.2206   38.1333 C   0  0  0  0  0  0  0  0  0  0  0  0
    1.4594   22.0690   38.8627 H   0  0  0  0  0  0  0  0  0  0  0  0
    1.8962   17.3333   41.3977 H   0  0  0  0  0  0  0  0  0  0  0  0
    3.5438   23.0218   31.6040 H   0  0  0  0  0  0  0  0  0  0  0  0
    4.4850   22.7921   30.3522 H   0  0  0  0  0  0  0  0  0  0  0  0
    4.2173   23.5672   35.1161 H   0  0  0  0  0  0  0  0  0  0  0  0
    5.6897   23.1145   34.9283 H   0  0  0  0  0  0  0  0  0  0  0  0
    2.6883   25.9686   31.7125 H   0  0  0  0  0  0  0  0  0  0  0  0
    3.4682   26.5908   30.2187 H   0  0  0  0  0  0  0  0  0  0  0  0
    2.4589   25.1062   30.1535 H   0  0  0  0  0  0  0  0  0  0  0  0
    5.8802   24.2040   33.7775 H   0  0  0  0  0  0  0  0  0  0  0  0
    7.0585   23.5984   32.5645 H   0  0  0  0  0  0  0  0  0  0  0  0
    6.6376   25.3440   32.6142 H   0  0  0  0  0  0  0  0  0  0  0  0
    1.0829   20.7840   40.9863 H   0  0  0  0  0  0  0  0  0  0  0  0
    3.3963   17.4706   39.3701 H   0  0  0  0  0  0  0  0  0  0  0  0
    4.6303   20.6627   36.4816 H   0  0  0  0  0  0  0  0  0  0  0  0
    5.5905   24.6900   30.9927 H   0  0  0  0  0  0  0  0  0  0  0  0
    4.5542   23.7491   32.6600 H   0  0  0  0  0  0  0  0  0  0  0  0
    3.7854   18.7873   37.3325 H   0  0  0  0  0  0  0  0  0  0  0  0
  1  4  1  0
  2 11  2  0
  4 17  2  0
  4  2  1  0
  5  6  1  0
  6 16  1  0
  7 14  1  0
  8  5  1  0
  9  3  1  0
 11  9  1  0
 12  7  1  0
 12 14  1  0
 13  9  2  0
 14  1  1  0
 15  1  2  0
 16 10  1  0
 17 13  1  0
  2 18  1  0
  3 19  1  0
  6 20  1  0
  6 21  1  0
  7 22  1  0
  7 23  1  0
  8 24  1  0
  8 25  1  0
  8 26  1  0
 10 27  1  0
 10 28  1  0
 10 29  1  0
 11 30  1  0
 13 31  1  0
 14 32  1  6
 16 33  1  0
 16 34  1  0
 17 35  1  0
M  END
>  <mol_id>  (97) 
2026-09-18-3war-s0-n100-0099

>  <rmsd_to_ref>  (97) 


$$$$

     RDKit          3D

 34 35  0  0  0  0  0  0  0  0999 V2000
    3.8910   22.5300   34.1720 C   0  0  0  0  0  0  0  0  0  0  0  0
    1.8940   24.3280   33.7330 S   0  0  0  0  0  0  0  0  0  0  0  0
    1.8750   19.0310   40.4850 C   0  0  0  0  0  0  0  0  0  0  0  0
    3.2330   24.4280   32.6100 C   0  0  0  0  0  0  0  0  0  0  0  0
    2.6280   18.0340   39.5670 S   0  0  0  0  0  0  0  0  0  0  0  0
    2.5930   20.1320   38.6900 C   0  0  1  0  0  0  0  0  0  0  0  0
    4.3540   23.6350   33.2810 C   0  0  0  0  0  0  0  0  0  0  0  0
    2.9480   19.0790   38.0660 C   0  0  0  0  0  0  0  0  0  0  0  0
    2.1570   21.2120   37.6380 C   0  0  0  0  0  0  0  0  0  0  0  0
    1.2710   21.3200   40.3690 N   0  0  0  0  0  0  0  0  0  0  0  0
    1.9520   22.2160   35.5430 N   0  0  0  0  0  0  0  0  0  0  0  0
    1.8960   20.1260   39.8500 C   0  0  1  0  0  0  0  0  0  0  0  0
    2.3930   22.6070   34.1690 C   0  0  2  0  0  0  0  0  0  0  0  0
    2.3220   21.2060   36.2150 C   0  0  0  0  0  0  0  0  0  0  0  0
    4.2258   21.5573   33.7824 H   0  0  0  0  0  0  0  0  0  0  0  0
    4.3006   22.6290   35.1881 H   0  0  0  0  0  0  0  0  0  0  0  0
    0.8398   18.6989   40.6529 H   0  0  0  0  0  0  0  0  0  0  0  0
    2.3385   19.1155   41.4790 H   0  0  0  0  0  0  0  0  0  0  0  0
    3.5348   25.4746   32.4568 H   0  0  0  0  0  0  0  0  0  0  0  0
    2.9766   24.0317   31.6164 H   0  0  0  0  0  0  0  0  0  0  0  0
    3.5150   20.3875   39.2328 H   0  0  0  0  0  0  0  0  0  0  0  0
    4.9837   23.1978   32.4922 H   0  0  0  0  0  0  0  0  0  0  0  0
    4.8950   24.3454   33.9234 H   0  0  0  0  0  0  0  0  0  0  0  0
    2.3051   18.8329   37.2080 H   0  0  0  0  0  0  0  0  0  0  0  0
    3.9311   19.0413   37.5741 H   0  0  0  0  0  0  0  0  0  0  0  0
    1.6538   22.0984   38.0516 H   0  0  0  0  0  0  0  0  0  0  0  0
    1.2843   21.2947   41.3986 H   0  0  0  0  0  0  0  0  0  0  0  0
    1.7866   22.1485   40.0393 H   0  0  0  0  0  0  0  0  0  0  0  0
    0.2964   21.3684   40.0393 H   0  0  0  0  0  0  0  0  0  0  0  0
    0.9282   22.1257   35.4748 H   0  0  0  0  0  0  0  0  0  0  0  0
    2.4329   22.9511   36.0808 H   0  0  0  0  0  0  0  0  0  0  0  0
    2.8155   20.3666   40.4037 H   0  0  0  0  0  0  0  0  0  0  0  0
    1.9261   21.9382   33.4310 H   0  0  0  0  0  0  0  0  0  0  0  0
    2.7649   20.3346   35.7105 H   0  0  0  0  0  0  0  0  0  0  0  0
  2 13  1  0
  4  7  1  0
  4  2  1  0
  5  3  1  0
  6  9  1  0
  6 12  1  0
  7  1  1  0
  8  6  1  0
  8  5  1  0
 11 14  1  0
 12 10  1  0
 12  3  1  0
 13  1  1  0
 13 11  1  0
 14  9  2  3
  1 15  1  0
  1 16  1  0
  3 17  1  0
  3 18  1  0
  4 19  1  0
  4 20  1  0
  6 21  1  1
  7 22  1  0
  7 23  1  0
  8 24  1  0
  8 25  1  0
  9 26  1  0
 10 27  1  0
 10 28  1  0
 10 29  1  0
 11 30  1  0
 11 31  1  0
 12 32  1  6
 13 33  1  6
 14 34  1  0
M  CHG  2  10   1  11   1
M  END
>  <mol_id>  (98) 
2026-09-18-3war-s0-n100-0100

>  <rmsd_to_ref>  (98) 


$$$$
