
     RDKit          3D

 20 19  0  0  0  0  0  0  0  0999 V2000
    1.8536   20.4067   38.6533 C   0  0  0  0  0  0  0  0  0  0  0  0
    2.0374   19.2562   39.7482 C   0  0  2  0  0  0  0  0  0  0  0  0
    2.5540   19.8908   37.4481 C   0  0  0  0  0  0  0  0  0  0  0  0
    1.2881   19.6871   41.0851 C   0  0  1  0  0  0  0  0  0  0  0  0
    1.1838   18.7557   42.4266 C   0  0  0  0  0  0  0  0  0  0  0  0
    3.8230   19.4214   37.7051 O   0  0  0  0  0  0  0  0  0  0  0  0
    2.8741   18.4491   40.6384 O   0  0  0  0  0  0  0  0  0  0  0  0
    1.6515   20.8846   41.4771 O   0  0  0  0  0  0  0  0  0  0  0  0
    0.7874   20.5744   38.4412 H   0  0  0  0  0  0  0  0  0  0  0  0
    2.2584   21.3724   38.9903 H   0  0  0  0  0  0  0  0  0  0  0  0
    2.0552   18.7077   38.7949 H   0  0  0  0  0  0  0  0  0  0  0  0
    2.6272   20.7060   36.7132 H   0  0  0  0  0  0  0  0  0  0  0  0
    1.9658   19.0402   37.0732 H   0  0  0  0  0  0  0  0  0  0  0  0
    0.2745   19.5783   40.6718 H   0  0  0  0  0  0  0  0  0  0  0  0
    1.4219   19.3618   43.3131 H   0  0  0  0  0  0  0  0  0  0  0  0
    0.1625   18.3576   42.5181 H   0  0  0  0  0  0  0  0  0  0  0  0
    1.8969   17.9217   42.3503 H   0  0  0  0  0  0  0  0  0  0  0  0
    3.9998   19.4639   38.6783 H   0  0  0  0  0  0  0  0  0  0  0  0
    2.7672   18.7670   41.5699 H   0  0  0  0  0  0  0  0  0  0  0  0
    1.7480   20.8941   42.4623 H   0  0  0  0  0  0  0  0  0  0  0  0
  1  2  1  0
  2  7  1  0
  2  4  1  0
  3  6  1  0
  3  1  1  0
  4  8  1  0
  4  5  1  0
  1  9  1  0
  1 10  1  0
  2 11  1  6
  3 12  1  0
  3 13  1  0
  4 14  1  6
  5 15  1  0
  5 16  1  0
  5 17  1  0
  6 18  1  0
  7 19  1  0
  8 20  1  0
M  END
>  <mol_id>  (1) 
2026-09-18-3war-s0-n100-refligand-0001

>  <rmsd_to_ref>  (1) 


$$$$

     RDKit          3D

 17 18  0  0  0  0  0  0  0  0999 V2000
    1.0920   20.9800   40.5020 C   0  0  0  0  0  0  0  0  0  0  0  0
    3.3800   18.6160   37.9500 C   0  0  0  0  0  0  0  0  0  0  0  0
    2.9860   18.2390   39.2670 C   0  0  0  0  0  0  0  0  0  0  0  0
    1.5490   18.9310   41.2460 N   0  0  0  0  0  0  0  0  0  0  0  0
    3.3390   20.2490   36.2640 O   0  0  0  0  0  0  0  0  0  0  0  0
    0.9370   20.0750   41.5420 C   0  0  0  0  0  0  0  0  0  0  0  0
    1.8410   20.3150   39.5140 C   0  0  0  0  0  0  0  0  0  0  0  0
    2.9670   19.8540   37.4510 C   0  0  0  0  0  0  0  0  0  0  0  0
    2.1890   20.6930   38.2380 C   0  0  0  0  0  0  0  0  0  0  0  0
    2.1720   19.0600   39.9720 C   0  0  0  0  0  0  0  0  0  0  0  0
    0.7071   22.0095   40.4586 H   0  0  0  0  0  0  0  0  0  0  0  0
    3.9985   17.9439   37.3371 H   0  0  0  0  0  0  0  0  0  0  0  0
    3.3386   17.2935   39.7049 H   0  0  0  0  0  0  0  0  0  0  0  0
    3.0413   21.1279   35.9189 H   0  0  0  0  0  0  0  0  0  0  0  0
    1.3752   20.4957   42.4591 H   0  0  0  0  0  0  0  0  0  0  0  0
   -0.1350   19.8815   41.6949 H   0  0  0  0  0  0  0  0  0  0  0  0
    1.8506   21.6612   37.8404 H   0  0  0  0  0  0  0  0  0  0  0  0
  1  6  1  0
  2  3  2  0
  3 10  1  0
  4  6  1  0
  5  8  1  0
  7 10  1  0
  7  1  2  0
  8  2  1  0
  8  9  2  0
  9  7  1  0
 10  4  2  0
  1 11  1  0
  2 12  1  0
  3 13  1  0
  5 14  1  0
  6 15  1  0
  6 16  1  0
  9 17  1  0
M  END
>  <mol_id>  (2) 
2026-09-18-3war-s0-n100-refligand-0002

>  <rmsd_to_ref>  (2) 


$$$$

     RDKit          3D

 28 31  0  0  0  0  0  0  0  0999 V2000
    0.3732   20.4896   41.4710 C   0  0  0  0  0  0  0  0  0  0  0  0
    2.9285   18.9046   38.2683 C   0  0  0  0  0  0  0  0  0  0  0  0
    1.5765   18.3824   41.2139 C   0  0  0  0  0  0  0  0  0  0  0  0
    3.3348   16.6379   38.5565 O   0  0  0  0  0  0  0  0  0  0  0  0
    3.5665   19.0992   37.1398 N   0  0  0  0  0  0  0  0  0  0  0  0
    0.1162   18.7639   43.1109 C   0  0  0  0  0  0  0  0  0  0  0  0
   -0.2331   19.9845   42.6148 C   0  0  0  0  0  0  0  0  0  0  0  0
    2.2911   20.0877   38.4763 C   0  0  0  0  0  0  0  0  0  0  0  0
    1.8347   15.6876   42.1957 C   0  0  0  0  0  0  0  0  0  0  0  0
    1.3159   19.6603   40.7456 C   0  0  0  0  0  0  0  0  0  0  0  0
    2.8987   17.7171   39.1781 C   0  0  0  0  0  0  0  0  0  0  0  0
    1.1462   16.5660   42.9493 C   0  0  0  0  0  0  0  0  0  0  0  0
    3.3217   20.2019   36.5628 N   0  0  0  0  0  0  0  0  0  0  0  0
    2.3142   17.4054   40.5217 C   0  0  0  0  0  0  0  0  0  0  0  0
    1.7793   20.3972   39.7264 C   0  0  0  0  0  0  0  0  0  0  0  0
    0.9403   17.8842   42.4078 C   0  0  0  0  0  0  0  0  0  0  0  0
    2.4494   16.0822   41.0556 C   0  0  0  0  0  0  0  0  0  0  0  0
    2.5238   20.8783   37.3317 C   0  0  0  0  0  0  0  0  0  0  0  0
    0.1409   21.5059   41.1202 H   0  0  0  0  0  0  0  0  0  0  0  0
    3.3721   15.7721   39.0351 H   0  0  0  0  0  0  0  0  0  0  0  0
   -0.2641   18.4623   44.0981 H   0  0  0  0  0  0  0  0  0  0  0  0
   -1.0052   20.5776   43.1268 H   0  0  0  0  0  0  0  0  0  0  0  0
    1.8986   14.6356   42.5105 H   0  0  0  0  0  0  0  0  0  0  0  0
    0.7564   16.2875   43.9395 H   0  0  0  0  0  0  0  0  0  0  0  0
    1.7462   21.4787   39.9245 H   0  0  0  0  0  0  0  0  0  0  0  0
    2.0987   15.3988   40.2683 H   0  0  0  0  0  0  0  0  0  0  0  0
    3.5074   16.0694   41.3561 H   0  0  0  0  0  0  0  0  0  0  0  0
    2.1088   21.8767   37.1293 H   0  0  0  0  0  0  0  0  0  0  0  0
  1  7  2  0
  2  8  1  0
  2 11  2  0
  3 16  1  0
  4 11  1  0
  5  2  1  0
  7  6  1  0
  8 15  1  0
  9 12  2  0
 10  3  1  0
 10  1  1  0
 11 14  1  0
 13  5  2  0
 13 18  1  0
 14 17  1  0
 14  3  2  0
 15 10  2  0
 16 12  1  0
 16  6  2  0
 17  9  1  0
 18  8  2  0
  1 19  1  0
  4 20  1  0
  6 21  1  0
  7 22  1  0
  9 23  1  0
 12 24  1  0
 15 25  1  0
 17 26  1  0
 17 27  1  0
 18 28  1  0
M  END
>  <mol_id>  (3) 
2026-09-18-3war-s0-n100-refligand-0003

>  <rmsd_to_ref>  (3) 


$$$$

     RDKit          3D

 25 27  0  0  0  0  0  0  0  0999 V2000
    1.2497   19.1222   42.0695 C   0  0  1  0  0  0  0  0  0  0  0  0
    1.6737   20.4835   39.9329 C   0  0  0  0  0  0  0  0  0  0  0  0
    2.6278   18.7157   38.8954 C   0  0  0  0  0  0  0  0  0  0  0  0
    0.8887   17.6355   41.9704 C   0  0  0  0  0  0  0  0  0  0  0  0
    1.9833   16.7294   40.9311 S   0  0  0  0  0  0  0  0  0  0  0  0
    2.3011   18.2386   40.0838 C   0  0  2  0  0  0  0  0  0  0  0  0
    1.1018   21.5883   40.1232 O   0  0  0  0  0  0  0  0  0  0  0  0
    1.8365   19.4862   40.7549 N   0  0  0  0  0  0  0  0  0  0  0  0
    3.2433   19.3330   36.8058 O   0  0  0  0  0  0  0  0  0  0  0  0
    3.3916   18.3489   37.6713 C   0  0  0  0  0  0  0  0  0  0  0  0
    0.3671   20.2365   42.4318 C   0  0  0  0  0  0  0  0  0  0  0  0
    2.2153   19.9829   38.7003 C   0  0  0  0  0  0  0  0  0  0  0  0
    2.5595   20.3920   37.3797 C   0  0  0  0  0  0  0  0  0  0  0  0
    2.2270   21.6422   36.7298 C   0  0  0  0  0  0  0  0  0  0  0  0
    1.8348   19.0758   42.9998 H   0  0  0  0  0  0  0  0  0  0  0  0
    0.9215   17.1989   42.9795 H   0  0  0  0  0  0  0  0  0  0  0  0
   -0.1159   17.5698   41.5270 H   0  0  0  0  0  0  0  0  0  0  0  0
    2.9420   17.3487   39.9990 H   0  0  0  0  0  0  0  0  0  0  0  0
    3.9723   17.4275   37.5172 H   0  0  0  0  0  0  0  0  0  0  0  0
    0.3638   20.3613   43.5247 H   0  0  0  0  0  0  0  0  0  0  0  0
    0.7301   21.1607   41.9584 H   0  0  0  0  0  0  0  0  0  0  0  0
   -0.6544   20.0232   42.0841 H   0  0  0  0  0  0  0  0  0  0  0  0
    2.1015   22.4281   37.4892 H   0  0  0  0  0  0  0  0  0  0  0  0
    3.0369   21.9241   36.0408 H   0  0  0  0  0  0  0  0  0  0  0  0
    1.2901   21.5245   36.1657 H   0  0  0  0  0  0  0  0  0  0  0  0
  1 11  1  0
  2  7  2  0
  2  8  1  0
  4  1  1  0
  5  4  1  0
  6  3  1  0
  6  8  1  0
  6  5  1  0
  8  1  1  0
  9 13  1  0
  9 10  1  0
 10  3  2  0
 12  3  1  0
 12  2  1  0
 13 12  2  0
 14 13  1  0
  1 15  1  1
  4 16  1  0
  4 17  1  0
  6 18  1  1
 10 19  1  0
 11 20  1  0
 11 21  1  0
 11 22  1  0
 14 23  1  0
 14 24  1  0
 14 25  1  0
M  END
>  <mol_id>  (4) 
2026-09-18-3war-s0-n100-refligand-0004

>  <rmsd_to_ref>  (4) 


$$$$

     RDKit          3D

 29 31  0  0  0  0  0  0  0  0999 V2000
    3.6186   18.1402   38.1686 C   0  0  2  0  0  0  0  0  0  0  0  0
    0.2055   20.5177   42.2144 N   0  0  0  0  0  0  0  0  0  0  0  0
    3.1691   20.9404   36.3860 O   0  0  0  0  0  0  0  0  0  0  0  0
    3.1360   15.9831   38.0028 O   0  0  0  0  0  0  0  0  0  0  0  0
    2.3537   21.6256   35.4752 C   0  0  0  0  0  0  0  0  0  0  0  0
    0.3933   19.2831   42.5987 C   0  0  0  0  0  0  0  0  0  0  0  0
    1.0555   18.6755   41.6949 N   0  0  0  0  0  0  0  0  0  0  0  0
    2.7864   20.0977   37.2088 C   0  0  2  0  0  0  0  0  0  0  0  0
    0.7377   20.6325   41.0086 C   0  0  0  0  0  0  0  0  0  0  0  0
    2.5503   18.0402   39.2041 O   0  0  0  0  0  0  0  0  0  0  0  0
    3.1059   18.8230   36.9931 O   0  0  0  0  0  0  0  0  0  0  0  0
    1.4306   21.5160   38.8882 C   0  0  0  0  0  0  0  0  0  0  0  0
    4.0449   16.9018   37.5230 C   0  0  0  0  0  0  0  0  0  0  0  0
    2.0459   20.3443   38.5596 C   0  0  0  0  0  0  0  0  0  0  0  0
    1.3192   19.4268   40.5970 C   0  0  0  0  0  0  0  0  0  0  0  0
    2.0068   19.3373   39.3947 C   0  0  0  0  0  0  0  0  0  0  0  0
    0.8377   21.6418   40.1339 C   0  0  0  0  0  0  0  0  0  0  0  0
    4.4294   18.6046   38.7492 H   0  0  0  0  0  0  0  0  0  0  0  0
    3.1381   16.0026   38.9926 H   0  0  0  0  0  0  0  0  0  0  0  0
    1.6841   22.3057   36.0222 H   0  0  0  0  0  0  0  0  0  0  0  0
    2.9828   22.2070   34.7852 H   0  0  0  0  0  0  0  0  0  0  0  0
    1.7542   20.9020   34.9034 H   0  0  0  0  0  0  0  0  0  0  0  0
    0.9563   19.2700   43.5436 H   0  0  0  0  0  0  0  0  0  0  0  0
   -0.5750   18.7854   42.7561 H   0  0  0  0  0  0  0  0  0  0  0  0
    3.7543   20.1645   37.7272 H   0  0  0  0  0  0  0  0  0  0  0  0
    1.4051   22.3511   38.1727 H   0  0  0  0  0  0  0  0  0  0  0  0
    3.9854   16.9843   36.4277 H   0  0  0  0  0  0  0  0  0  0  0  0
    5.0905   16.6349   37.7368 H   0  0  0  0  0  0  0  0  0  0  0  0
    0.4278   22.6217   40.4196 H   0  0  0  0  0  0  0  0  0  0  0  0
  1 13  1  0
  1 10  1  0
  2  6  1  0
  5  3  1  0
  7  6  1  0
  8  3  1  0
  8 14  1  0
  9  2  2  0
 10 16  1  0
 11  8  1  0
 11  1  1  0
 12 17  2  0
 13  4  1  0
 14 12  1  0
 14 16  2  0
 15  9  1  0
 15  7  2  0
 16 15  1  0
 17  9  1  0
  1 18  1  1
  4 19  1  0
  5 20  1  0
  5 21  1  0
  5 22  1  0
  6 23  1  0
  6 24  1  0
  8 25  1  6
 12 26  1  0
 13 27  1  0
 13 28  1  0
 17 29  1  0
M  END
>  <mol_id>  (5) 
2026-09-18-3war-s0-n100-refligand-0005

>  <rmsd_to_ref>  (5) 


$$$$

     RDKit          3D

 48 50  0  0  0  0  0  0  0  0999 V2000
    1.2992   21.6445   37.6860 C   0  0  0  0  0  0  0  0  0  0  0  0
    2.2500   19.6392   39.9051 C   0  0  2  0  0  0  0  0  0  0  0  0
    0.4203   21.3500   42.4259 O   0  0  0  0  0  0  0  0  0  0  0  0
    3.1534   20.9587   35.3579 O   0  0  0  0  0  0  0  0  0  0  0  0
    0.2580   18.6080   43.2616 N   0  0  0  0  0  0  0  0  0  0  0  0
    2.7122   14.3088   41.8807 C   0  0  0  0  0  0  0  0  0  0  0  0
    0.9472   19.1888   42.3741 C   0  0  0  0  0  0  0  0  0  0  0  0
    3.6515   18.3392   37.6259 C   0  0  0  0  0  0  0  0  0  0  0  0
    3.0719   19.9963   36.1807 C   0  0  0  0  0  0  0  0  0  0  0  0
    2.2954   20.3312   37.4918 C   0  0  0  0  0  0  0  0  0  0  0  0
    2.6670   19.6193   38.6097 C   0  0  0  0  0  0  0  0  0  0  0  0
    1.6409   20.7666   40.6990 C   0  0  0  0  0  0  0  0  0  0  0  0
    4.9716   14.1787   37.8519 C   0  0  0  0  0  0  0  0  0  0  0  0
    2.7463   18.5624   40.8394 C   0  0  0  0  0  0  0  0  0  0  0  0
    3.5065   14.6095   39.8705 C   0  0  0  0  0  0  0  0  0  0  0  0
    3.2714   18.8109   38.5583 O   0  0  0  0  0  0  0  0  0  0  0  0
    4.4766   17.0158   37.7616 C   0  0  0  0  0  0  0  0  0  0  0  0
    2.8107   15.2573   40.8383 N   0  0  0  0  0  0  0  0  0  0  0  0
    1.6986   21.2279   37.0566 C   0  0  0  0  0  0  0  0  0  0  0  0
    3.3316   13.1135   41.5049 N   0  0  0  0  0  0  0  0  0  0  0  0
    4.0923   15.0634   38.5603 C   0  0  1  0  0  0  0  0  0  0  0  0
    3.8748   13.4362   40.2206 N   0  0  0  0  0  0  0  0  0  0  0  0
    1.7676   17.3192   42.5961 C   0  0  0  0  0  0  0  0  0  0  0  0
    3.7003   18.9537   36.4450 N   0  0  0  0  0  0  0  0  0  0  0  0
    1.9561   18.3487   41.9689 C   0  0  0  0  0  0  0  0  0  0  0  0
    3.8915   16.4123   38.7074 O   0  0  0  0  0  0  0  0  0  0  0  0
    0.9903   20.5103   41.8243 C   0  0  0  0  0  0  0  0  0  0  0  0
    1.7717   21.3959   38.6478 H   0  0  0  0  0  0  0  0  0  0  0  0
    1.3708   22.7281   37.5115 H   0  0  0  0  0  0  0  0  0  0  0  0
    0.2407   21.3460   37.7094 H   0  0  0  0  0  0  0  0  0  0  0  0
    1.4087   19.5666   39.2000 H   0  0  0  0  0  0  0  0  0  0  0  0
   -0.5477   19.0899   43.6851 H   0  0  0  0  0  0  0  0  0  0  0  0
    2.2193   14.4854   42.8481 H   0  0  0  0  0  0  0  0  0  0  0  0
    2.4614   21.4528   40.9562 H   0  0  0  0  0  0  0  0  0  0  0  0
    0.8525   21.1468   40.0330 H   0  0  0  0  0  0  0  0  0  0  0  0
    5.6479   13.6851   38.5653 H   0  0  0  0  0  0  0  0  0  0  0  0
    4.3784   13.4183   37.3227 H   0  0  0  0  0  0  0  0  0  0  0  0
    5.5627   14.7542   37.1243 H   0  0  0  0  0  0  0  0  0  0  0  0
    2.7973   17.6191   40.2757 H   0  0  0  0  0  0  0  0  0  0  0  0
    3.7238   18.9048   41.2096 H   0  0  0  0  0  0  0  0  0  0  0  0
    4.4369   16.4279   36.8328 H   0  0  0  0  0  0  0  0  0  0  0  0
    5.5459   17.1889   37.9532 H   0  0  0  0  0  0  0  0  0  0  0  0
    2.3912   21.9140   36.5471 H   0  0  0  0  0  0  0  0  0  0  0  0
    0.9525   20.8528   36.3405 H   0  0  0  0  0  0  0  0  0  0  0  0
    3.9202   14.9185   37.4836 H   0  0  0  0  0  0  0  0  0  0  0  0
    4.4747   12.8142   39.6603 H   0  0  0  0  0  0  0  0  0  0  0  0
    1.1059   17.3238   43.4749 H   0  0  0  0  0  0  0  0  0  0  0  0
    2.2593   16.3864   42.2829 H   0  0  0  0  0  0  0  0  0  0  0  0
  2 11  1  0
  2 12  1  0
  2 14  1  0
  4  9  2  0
  7  5  2  3
  8 17  1  0
  8 16  1  0
  9 24  1  0
  9 10  1  0
 10 11  2  0
 12 27  1  0
 14 25  1  0
 15 22  1  0
 15 18  2  0
 16 11  1  0
 17 26  1  0
 18  6  1  0
 19 10  1  0
 19  1  1  0
 20  6  2  0
 21 13  1  0
 21 26  1  0
 21 15  1  0
 22 20  1  0
 24  8  2  0
 25  7  1  0
 25 23  2  3
 27  7  1  0
 27  3  2  0
  1 28  1  0
  1 29  1  0
  1 30  1  0
  2 31  1  6
  5 32  1  0
  6 33  1  0
 12 34  1  0
 12 35  1  0
 13 36  1  0
 13 37  1  0
 13 38  1  0
 14 39  1  0
 14 40  1  0
 17 41  1  0
 17 42  1  0
 19 43  1  0
 19 44  1  0
 21 45  1  6
 22 46  1  0
 23 47  1  0
 23 48  1  0
M  END
>  <mol_id>  (6) 
2026-09-18-3war-s0-n100-refligand-0006

>  <rmsd_to_ref>  (6) 


$$$$

     RDKit          3D

 29 34  0  0  0  0  0  0  0  0999 V2000
    1.0043   20.5942   39.8867 C   0  0  0  0  0  0  0  0  0  0  0  0
   -0.1464   16.6020   42.9909 C   0  0  0  0  0  0  0  0  0  0  0  0
    2.7112   18.6052   38.7050 C   0  0  2  0  0  0  0  0  0  0  0  0
    0.7319   16.9084   41.9407 C   0  0  0  0  0  0  0  0  0  0  0  0
    2.5347   16.1462   40.3300 C   0  0  0  0  0  0  0  0  0  0  0  0
    0.2547   20.5194   40.9878 C   0  0  0  0  0  0  0  0  0  0  0  0
    2.6333   17.4917   39.6061 C   0  0  2  0  0  0  0  0  0  0  0  0
    4.3889   17.0874   37.9501 C   0  0  0  0  0  0  0  0  0  0  0  0
    1.5938   18.4204   40.1961 C   0  0  2  0  0  0  0  0  0  0  0  0
    0.8722   18.2079   41.3026 C   0  0  0  0  0  0  0  0  0  0  0  0
    4.3998   18.1239   37.0959 N   0  0  0  0  0  0  0  0  0  0  0  0
    3.3287   18.7397   37.4872 C   0  0  0  0  0  0  0  0  0  0  0  0
    0.1298   19.3555   41.7328 C   0  0  0  0  0  0  0  0  0  0  0  0
   -0.5198   19.4081   42.7072 O   0  0  0  0  0  0  0  0  0  0  0  0
    1.4292   14.7222   42.1295 O   0  0  0  0  0  0  0  0  0  0  0  0
    1.5826   15.8554   41.4318 C   0  0  1  0  0  0  0  0  0  0  0  0
    3.6352   16.8230   38.8843 C   0  0  0  0  0  0  0  0  0  0  0  0
    2.8195   19.6360   36.6745 O   0  0  0  0  0  0  0  0  0  0  0  0
    1.7265   19.5007   39.4147 N   0  0  0  0  0  0  0  0  0  0  0  0
    1.0533   21.5455   39.3365 H   0  0  0  0  0  0  0  0  0  0  0  0
    0.0345   17.2874   43.8320 H   0  0  0  0  0  0  0  0  0  0  0  0
   -1.1847   16.7125   42.6445 H   0  0  0  0  0  0  0  0  0  0  0  0
    0.0222   15.5658   43.3194 H   0  0  0  0  0  0  0  0  0  0  0  0
   -0.2868   21.4178   41.3189 H   0  0  0  0  0  0  0  0  0  0  0  0
    5.3852   17.1181   38.4153 H   0  0  0  0  0  0  0  0  0  0  0  0
    4.0023   16.3355   37.2464 H   0  0  0  0  0  0  0  0  0  0  0  0
    5.0661   18.3608   36.3470 H   0  0  0  0  0  0  0  0  0  0  0  0
    1.1887   14.9404   43.0647 H   0  0  0  0  0  0  0  0  0  0  0  0
    0.8415   15.5044   40.6987 H   0  0  0  0  0  0  0  0  0  0  0  0
  1  6  2  0
  3 12  1  0
  3  7  1  0
  3 19  1  6
  3  9  1  0
  4  2  1  0
  5 16  1  0
  6 13  1  0
  7 17  1  1
  7  5  1  0
  7  9  1  0
  8 17  1  0
  9 10  1  0
 10  4  2  0
 10 13  1  0
 11  8  1  0
 11 12  1  0
 13 14  2  0
 16 15  1  0
 16  4  1  0
 17  5  2  0
 18 12  2  0
  9 19  1  1
 19  1  1  0
  1 20  1  0
  2 21  1  0
  2 22  1  0
  2 23  1  0
  6 24  1  0
  8 25  1  0
  8 26  1  0
 11 27  1  0
 15 28  1  0
 16 29  1  6
M  END
>  <mol_id>  (7) 
2026-09-18-3war-s0-n100-refligand-0007

>  <rmsd_to_ref>  (7) 


$$$$

     RDKit          3D

 38 41  0  0  0  0  0  0  0  0999 V2000
    3.3953   20.8127   36.5219 O   0  0  0  0  0  0  0  0  0  0  0  0
    0.2984   21.1118   41.8230 C   0  0  0  0  0  0  0  0  0  0  0  0
    4.2239   20.3196   37.2467 C   0  0  2  0  0  0  0  0  0  0  0  0
    2.2676   18.0704   40.2274 C   0  0  2  0  0  0  0  0  0  0  0  0
    4.2357   18.9450   37.2796 C   0  0  0  0  0  0  0  0  0  0  0  0
    3.8336   18.2967   38.4945 C   0  0  2  0  0  0  0  0  0  0  0  0
    0.9354   17.1104   41.9672 C   0  0  0  0  0  0  0  0  0  0  0  0
    2.6309   20.3925   39.0142 C   0  0  0  0  0  0  0  0  0  0  0  0
   -0.9422   20.6953   43.8369 O   0  0  0  0  0  0  0  0  0  0  0  0
    1.0419   20.3895   40.7191 C   0  0  0  0  0  0  0  0  0  0  0  0
    2.9317   19.0822   39.3228 C   0  0  0  0  0  0  0  0  0  0  0  0
    1.3951   18.0850   41.1331 C   0  0  0  0  0  0  0  0  0  0  0  0
    2.6393   16.8228   39.8585 O   0  0  0  0  0  0  0  0  0  0  0  0
    3.1130   21.2001   37.8752 C   0  0  2  0  0  0  0  0  0  0  0  0
   -0.0371   20.1862   42.8337 C   0  0  0  0  0  0  0  0  0  0  0  0
    1.5829   20.9991   39.7258 N   0  0  0  0  0  0  0  0  0  0  0  0
    5.1475   18.1150   39.3612 C   0  0  0  0  0  0  0  0  0  0  0  0
    0.0623   19.1718   42.8627 C   0  0  0  0  0  0  0  0  0  0  0  0
    0.1291   17.7925   42.9387 C   0  0  0  0  0  0  0  0  0  0  0  0
    1.0722   19.3212   41.0872 C   0  0  0  0  0  0  0  0  0  0  0  0
   -0.6190   21.5622   41.4162 H   0  0  0  0  0  0  0  0  0  0  0  0
    0.9350   21.9049   42.2422 H   0  0  0  0  0  0  0  0  0  0  0  0
    5.3155   20.3376   37.3811 H   0  0  0  0  0  0  0  0  0  0  0  0
    1.4754   18.0601   39.4644 H   0  0  0  0  0  0  0  0  0  0  0  0
    3.5635   18.5930   36.4831 H   0  0  0  0  0  0  0  0  0  0  0  0
    5.2961   18.6766   37.1630 H   0  0  0  0  0  0  0  0  0  0  0  0
    3.3158   17.3690   38.2094 H   0  0  0  0  0  0  0  0  0  0  0  0
    1.7747   16.5948   42.4567 H   0  0  0  0  0  0  0  0  0  0  0  0
    0.3629   16.3433   41.4251 H   0  0  0  0  0  0  0  0  0  0  0  0
   -1.2311   20.1134   44.5840 H   0  0  0  0  0  0  0  0  0  0  0  0
    2.6394   16.2304   40.6516 H   0  0  0  0  0  0  0  0  0  0  0  0
    2.7122   22.1457   38.2692 H   0  0  0  0  0  0  0  0  0  0  0  0
    1.9473   21.8918   40.0879 H   0  0  0  0  0  0  0  0  0  0  0  0
    0.8218   21.0434   39.0331 H   0  0  0  0  0  0  0  0  0  0  0  0
    4.8772   18.0347   40.4244 H   0  0  0  0  0  0  0  0  0  0  0  0
    5.6711   17.2005   39.0460 H   0  0  0  0  0  0  0  0  0  0  0  0
    5.8063   18.9836   39.2149 H   0  0  0  0  0  0  0  0  0  0  0  0
   -0.4165   17.2380   43.7163 H   0  0  0  0  0  0  0  0  0  0  0  0
  1  3  1  0
  2 15  1  0
  3  5  1  0
  3 14  1  0
  4 13  1  0
  4 12  1  0
  5  6  1  0
  6 17  1  0
  6 11  1  0
  7 19  1  0
  8 11  2  0
  8 16  1  0
 10 20  2  0
 10  2  1  0
 11  4  1  0
 12  7  1  0
 14  1  1  0
 14  8  1  0
 15 18  2  0
 15  9  1  0
 16 10  1  0
 18 19  2  0
 20 12  2  0
  2 21  1  0
  2 22  1  0
  3 23  1  6
  4 24  1  1
  5 25  1  0
  5 26  1  0
  6 27  1  6
  7 28  1  0
  7 29  1  0
  9 30  1  0
 13 31  1  0
 14 32  1  6
 16 33  1  0
 16 34  1  0
 17 35  1  0
 17 36  1  0
 17 37  1  0
 19 38  1  0
M  CHG  1  16   1
M  END
>  <mol_id>  (8) 
2026-09-18-3war-s0-n100-refligand-0008

>  <rmsd_to_ref>  (8) 


$$$$

     RDKit          3D

 39 40  0  0  0  0  0  0  0  0999 V2000
    2.2150   17.2760   40.4500 C   0  0  1  0  0  0  0  0  0  0  0  0
    1.0830   21.2240   40.2810 C   0  0  0  0  0  0  0  0  0  0  0  0
    1.7760   21.7700   37.7200 F   0  0  0  0  0  0  0  0  0  0  0  0
    1.0460   16.4970   42.4110 N   0  0  0  0  0  0  0  0  0  0  0  0
    2.1600   20.5830   38.1700 C   0  0  0  0  0  0  0  0  0  0  0  0
    1.8790   18.9580   39.8720 N   0  0  0  0  0  0  0  0  0  0  0  0
    1.8220   20.1120   39.4870 C   0  0  2  0  0  0  0  0  0  0  0  0
    2.2090   15.9110   40.2770 C   0  0  0  0  0  0  0  0  0  0  0  0
    2.9920   19.7570   37.3430 C   0  0  0  0  0  0  0  0  0  0  0  0
    3.1550   18.4920   37.8670 C   0  0  0  0  0  0  0  0  0  0  0  0
    3.4110   20.2150   36.1250 O   0  0  0  0  0  0  0  0  0  0  0  0
    1.6640   16.8180   41.1670 C   0  0  0  0  0  0  0  0  0  0  0  0
    2.6840   18.1490   39.1380 C   0  0  0  0  0  0  0  0  0  0  0  0
    0.6190   17.7150   43.0220 C   0  0  0  0  0  0  0  0  0  0  0  0
    1.4150   18.2260   41.0050 C   0  0  0  0  0  0  0  0  0  0  0  0
    0.8170   18.7280   42.2650 C   0  0  0  0  0  0  0  0  0  0  0  0
    3.7760   17.4150   37.1320 C   0  0  0  0  0  0  0  0  0  0  0  0
    1.2020   21.0450   41.3598 H   0  0  0  0  0  0  0  0  0  0  0  0
    1.5099   22.2043   40.0227 H   0  0  0  0  0  0  0  0  0  0  0  0
    0.0138   21.2101   40.0227 H   0  0  0  0  0  0  0  0  0  0  0  0
    1.7217   16.0176   43.0230 H   0  0  0  0  0  0  0  0  0  0  0  0
    0.2409   15.8729   42.2588 H   0  0  0  0  0  0  0  0  0  0  0  0
    2.7360   19.6617   39.9015 H   0  0  0  0  0  0  0  0  0  0  0  0
    2.2068   15.4169   41.2598 H   0  0  0  0  0  0  0  0  0  0  0  0
    1.3096   15.6164   39.7165 H   0  0  0  0  0  0  0  0  0  0  0  0
    3.1058   15.6085   39.7165 H   0  0  0  0  0  0  0  0  0  0  0  0
    3.2327   21.1522   35.8605 H   0  0  0  0  0  0  0  0  0  0  0  0
    0.7234   16.8459   40.5973 H   0  0  0  0  0  0  0  0  0  0  0  0
    2.6147   16.4964   41.6172 H   0  0  0  0  0  0  0  0  0  0  0  0
   -0.4559   17.6427   43.2441 H   0  0  0  0  0  0  0  0  0  0  0  0
    1.2072   17.8580   43.9404 H   0  0  0  0  0  0  0  0  0  0  0  0
    0.3388   17.9992   41.0259 H   0  0  0  0  0  0  0  0  0  0  0  0
    1.4723   18.5710   42.0479 H   0  0  0  0  0  0  0  0  0  0  0  0
    0.9914   19.6201   42.8844 H   0  0  0  0  0  0  0  0  0  0  0  0
    1.6964   18.5449   41.6300 H   0  0  0  0  0  0  0  0  0  0  0  0
   -0.0666   18.8895   41.6300 H   0  0  0  0  0  0  0  0  0  0  0  0
    4.1973   16.6843   37.8381 H   0  0  0  0  0  0  0  0  0  0  0  0
    3.0238   16.9215   36.4990 H   0  0  0  0  0  0  0  0  0  0  0  0
    4.5799   17.8188   36.4990 H   0  0  0  0  0  0  0  0  0  0  0  0
  1  8  1  6
  1 15  1  0
  1 12  1  0
  3  5  1  0
  4 14  1  0
  5  7  1  0
  6 15  1  0
  7  6  1  0
  7  2  1  0
  9 10  1  0
  9  5  2  0
 10 13  2  0
 11  9  1  0
 12  4  1  0
 13  6  1  0
 13  1  1  0
 16 14  1  0
 17 10  1  0
  2 18  1  0
  2 19  1  0
  2 20  1  0
  4 21  1  0
  4 22  1  0
  7 23  1  1
  8 24  1  0
  8 25  1  0
  8 26  1  0
 11 27  1  0
 12 28  1  0
 12 29  1  0
 14 30  1  0
 14 31  1  0
 15 32  1  0
 15 33  1  0
 16 34  1  0
 16 35  1  0
 16 36  1  0
 17 37  1  0
 17 38  1  0
 17 39  1  0
M  CHG  1   4   1
M  END
>  <mol_id>  (9) 
2026-09-18-3war-s0-n100-refligand-0009

>  <rmsd_to_ref>  (9) 


$$$$

     RDKit          3D

 20 20  0  0  0  0  0  0  0  0999 V2000
   -0.0612   20.0676   41.5191 O   0  0  0  0  0  0  0  0  0  0  0  0
    2.4273   17.3408   39.6690 O   0  0  0  0  0  0  0  0  0  0  0  0
    3.2603   20.5024   35.8563 O   0  0  0  0  0  0  0  0  0  0  0  0
    2.7012   18.8224   39.3866 C   0  0  1  0  0  0  0  0  0  0  0  0
    2.9472   20.0924   37.1797 C   0  0  0  0  0  0  0  0  0  0  0  0
    0.9663   20.6062   39.5589 C   0  0  0  0  0  0  0  0  0  0  0  0
    4.0093   18.9429   39.9894 C   0  0  0  0  0  0  0  0  0  0  0  0
    1.8616   20.6073   37.5638 O   0  0  0  0  0  0  0  0  0  0  0  0
    0.9250   20.5261   40.6416 C   0  0  2  0  0  0  0  0  0  0  0  0
    3.5136   18.5543   37.6450 S   0  0  0  0  0  0  0  0  0  0  0  0
    1.4143   19.4932   39.6841 C   0  0  2  0  0  0  0  0  0  0  0  0
    0.1222   20.4101   42.4297 H   0  0  0  0  0  0  0  0  0  0  0  0
    2.2018   17.2234   40.6258 H   0  0  0  0  0  0  0  0  0  0  0  0
   -0.0021   20.6820   39.0427 H   0  0  0  0  0  0  0  0  0  0  0  0
    1.4485   21.4237   39.0027 H   0  0  0  0  0  0  0  0  0  0  0  0
    3.9021   19.0582   41.0780 H   0  0  0  0  0  0  0  0  0  0  0  0
    4.5976   18.0391   39.7725 H   0  0  0  0  0  0  0  0  0  0  0  0
    4.5237   19.8231   39.5763 H   0  0  0  0  0  0  0  0  0  0  0  0
    1.1868   21.2566   41.4212 H   0  0  0  0  0  0  0  0  0  0  0  0
    1.2620   18.4470   39.3804 H   0  0  0  0  0  0  0  0  0  0  0  0
  3  5  2  0
  4  2  1  1
  4  7  1  0
  5 10  1  0
  5  8  1  0
  6  9  1  0
  9  1  1  0
 10  4  1  0
 11  4  1  0
 11  6  1  0
 11  9  1  0
  1 12  1  0
  2 13  1  0
  6 14  1  0
  6 15  1  0
  7 16  1  0
  7 17  1  0
  7 18  1  0
  9 19  1  1
 11 20  1  6
M  CHG  1   8  -1
M  END
>  <mol_id>  (10) 
2026-09-18-3war-s0-n100-refligand-0010

>  <rmsd_to_ref>  (10) 


$$$$

     RDKit          3D

 31 33  0  0  0  0  0  0  0  0999 V2000
    1.8942   21.0070   39.6865 C   0  0  0  0  0  0  0  0  0  0  0  0
    1.2476   20.8670   40.9611 C   0  0  0  0  0  0  0  0  0  0  0  0
    4.9808   15.7787   37.7986 S   0  0  0  0  0  0  0  0  0  0  0  0
    1.2704   17.3055   42.1406 N   0  0  0  0  0  0  0  0  0  0  0  0
    0.7745   16.4054   43.0526 C   0  0  0  0  0  0  0  0  0  0  0  0
    3.6280   17.8481   38.9883 N   0  0  0  0  0  0  0  0  0  0  0  0
    0.2592   19.1780   43.2250 C   0  0  0  0  0  0  0  0  0  0  0  0
    3.4567   19.2768   37.3802 C   0  0  0  0  0  0  0  0  0  0  0  0
    1.4693   19.5601   41.2299 C   0  0  1  0  0  0  0  0  0  0  0  0
   -0.0412   16.9552   44.0772 C   0  0  0  0  0  0  0  0  0  0  0  0
    2.3069   19.7533   39.4413 C   0  0  1  0  0  0  0  0  0  0  0  0
   -0.2360   18.2923   44.1326 C   0  0  0  0  0  0  0  0  0  0  0  0
    3.1173   19.0015   38.7254 C   0  0  0  0  0  0  0  0  0  0  0  0
    3.1366   20.2702   36.6577 O   0  0  0  0  0  0  0  0  0  0  0  0
    1.0221   18.6026   42.2187 C   0  0  0  0  0  0  0  0  0  0  0  0
    2.3496   19.0459   40.3586 N   0  0  0  0  0  0  0  0  0  0  0  0
    4.2377   17.4969   37.8986 C   0  0  0  0  0  0  0  0  0  0  0  0
    4.2297   18.3114   36.9446 N   0  0  0  0  0  0  0  0  0  0  0  0
    1.1887   21.3529   38.9168 H   0  0  0  0  0  0  0  0  0  0  0  0
    2.7062   21.7491   39.6813 H   0  0  0  0  0  0  0  0  0  0  0  0
    1.7077   21.5176   41.7194 H   0  0  0  0  0  0  0  0  0  0  0  0
    0.1853   21.1524   40.9604 H   0  0  0  0  0  0  0  0  0  0  0  0
    0.9948   15.3293   42.9932 H   0  0  0  0  0  0  0  0  0  0  0  0
    0.0701   20.2600   43.2843 H   0  0  0  0  0  0  0  0  0  0  0  0
    2.3129   19.8368   41.8793 H   0  0  0  0  0  0  0  0  0  0  0  0
   -0.5123   16.2967   44.8218 H   0  0  0  0  0  0  0  0  0  0  0  0
    1.6793   20.2031   38.6578 H   0  0  0  0  0  0  0  0  0  0  0  0
   -0.8338   18.6904   44.9658 H   0  0  0  0  0  0  0  0  0  0  0  0
    2.0787   18.0888   40.0915 H   0  0  0  0  0  0  0  0  0  0  0  0
    3.2976   18.9821   40.7562 H   0  0  0  0  0  0  0  0  0  0  0  0
    4.7134   18.2393   36.0382 H   0  0  0  0  0  0  0  0  0  0  0  0
  1  2  1  0
  3 17  2  0
  4 15  1  0
  4  5  2  0
  5 10  1  0
  6 13  2  0
  7 12  1  0
  8 13  1  0
  9  2  1  0
  9 15  1  0
 10 12  2  0
 11 13  1  0
 11  1  1  0
 11 16  1  0
 14  8  2  0
 15  7  2  0
 16  9  1  0
 17  6  1  0
 18  8  1  0
 18 17  1  0
  1 19  1  0
  1 20  1  0
  2 21  1  0
  2 22  1  0
  5 23  1  0
  7 24  1  0
  9 25  1  1
 10 26  1  0
 11 27  1  6
 12 28  1  0
 16 29  1  0
 16 30  1  0
 18 31  1  0
M  CHG  1  16   1
M  END
>  <mol_id>  (11) 
2026-09-18-3war-s0-n100-refligand-0011

>  <rmsd_to_ref>  (11) 


$$$$

     RDKit          3D

 52 55  0  0  0  0  0  0  0  0999 V2000
    2.4449   16.2411   40.4062 C   0  0  2  0  0  0  0  0  0  0  0  0
   -0.0479   20.7042   42.8399 C   0  0  0  0  0  0  0  0  0  0  0  0
    0.2962   21.5537   41.7374 C   0  0  0  0  0  0  0  0  0  0  0  0
    3.6203   17.6086   38.6146 C   0  0  0  0  0  0  0  0  0  0  0  0
    1.2241   19.6964   40.6475 C   0  0  2  0  0  0  0  0  0  0  0  0
    2.4095   20.5522   38.4093 C   0  0  0  0  0  0  0  0  0  0  0  0
    3.1585   17.3021   39.8637 C   0  0  0  0  0  0  0  0  0  0  0  0
    3.7477   18.2368   37.7242 C   0  0  0  0  0  0  0  0  0  0  0  0
    1.3755   21.0480   41.0102 C   0  0  0  0  0  0  0  0  0  0  0  0
    3.3881   20.3176   36.9059 C   0  0  0  0  0  0  0  0  0  0  0  0
    0.9864   18.8105   41.6917 C   0  0  0  0  0  0  0  0  0  0  0  0
    2.5156   20.4783   37.9401 C   0  0  1  0  0  0  0  0  0  0  0  0
   -0.7288   21.0761   43.7513 O   0  0  0  0  0  0  0  0  0  0  0  0
    3.1208   15.0545   39.9091 C   0  0  0  0  0  0  0  0  0  0  0  0
    3.9551   19.0852   36.7303 C   0  0  0  0  0  0  0  0  0  0  0  0
    2.2871   19.9904   38.1681 C   0  0  1  0  0  0  0  0  0  0  0  0
    0.3152   19.3698   42.6662 C   0  0  0  0  0  0  0  0  0  0  0  0
    3.8851   16.6607   37.9667 O   0  0  0  0  0  0  0  0  0  0  0  0
    3.5024   21.1289   35.9746 O   0  0  0  0  0  0  0  0  0  0  0  0
    1.7865   13.9985   41.3210 O   0  0  0  0  0  0  0  0  0  0  0  0
    0.6565   17.4127   43.2090 C   0  0  0  0  0  0  0  0  0  0  0  0
    1.0616   17.4558   41.8508 C   0  0  2  0  0  0  0  0  0  0  0  0
    2.6384   14.1959   40.5727 C   0  0  0  0  0  0  0  0  0  0  0  0
    2.2098   19.4597   39.5257 O   0  0  0  0  0  0  0  0  0  0  0  0
    0.0389   18.4433   43.6173 N   0  0  0  0  0  0  0  0  0  0  0  0
    1.3542   16.3965   40.9952 C   0  0  0  0  0  0  0  0  0  0  0  0
    2.0442   15.9698   41.3941 H   0  0  0  0  0  0  0  0  0  0  0  0
   -0.5737   21.6403   41.0697 H   0  0  0  0  0  0  0  0  0  0  0  0
    0.5852   22.5359   42.1398 H   0  0  0  0  0  0  0  0  0  0  0  0
    0.2541   19.4221   40.2072 H   0  0  0  0  0  0  0  0  0  0  0  0
    3.2242   20.6647   39.1398 H   0  0  0  0  0  0  0  0  0  0  0  0
    1.8101   21.2998   38.9495 H   0  0  0  0  0  0  0  0  0  0  0  0
    4.0732   17.3202   40.4745 H   0  0  0  0  0  0  0  0  0  0  0  0
    2.2993   17.9878   39.8221 H   0  0  0  0  0  0  0  0  0  0  0  0
    4.3019   17.4419   37.2036 H   0  0  0  0  0  0  0  0  0  0  0  0
    2.7536   18.6766   37.8921 H   0  0  0  0  0  0  0  0  0  0  0  0
    2.2840   21.1444   41.6230 H   0  0  0  0  0  0  0  0  0  0  0  0
    1.4377   21.6283   40.0778 H   0  0  0  0  0  0  0  0  0  0  0  0
    2.4802   21.3607   37.2843 H   0  0  0  0  0  0  0  0  0  0  0  0
    2.9149   14.8961   38.8403 H   0  0  0  0  0  0  0  0  0  0  0  0
    4.2172   15.1067   39.9826 H   0  0  0  0  0  0  0  0  0  0  0  0
    3.5409   18.6448   35.8112 H   0  0  0  0  0  0  0  0  0  0  0  0
    5.0420   19.2465   36.6797 H   0  0  0  0  0  0  0  0  0  0  0  0
    1.9496   19.1231   37.5817 H   0  0  0  0  0  0  0  0  0  0  0  0
    1.5558   17.2856   43.8295 H   0  0  0  0  0  0  0  0  0  0  0  0
   -0.0530   16.5762   43.2917 H   0  0  0  0  0  0  0  0  0  0  0  0
   -0.0048   17.3666   41.5964 H   0  0  0  0  0  0  0  0  0  0  0  0
    3.2025   13.2643   40.4183 H   0  0  0  0  0  0  0  0  0  0  0  0
    0.3902   18.7434   44.5379 H   0  0  0  0  0  0  0  0  0  0  0  0
   -0.9709   18.2843   43.7439 H   0  0  0  0  0  0  0  0  0  0  0  0
    0.5936   16.4391   40.2017 H   0  0  0  0  0  0  0  0  0  0  0  0
    1.3895   15.5617   41.7106 H   0  0  0  0  0  0  0  0  0  0  0  0
  1 14  1  0
  1 26  1  0
  2 13  2  0
  3  2  1  0
  4  7  1  0
  5  9  1  0
  5 11  1  0
  7  1  1  0
  8  4  1  0
  9  3  1  0
 10 12  1  0
 11 22  1  0
 11 17  2  0
 12 16  1  0
 12  6  1  0
 14 23  1  0
 15 10  1  0
 15  8  1  0
 16  6  1  0
 16 24  1  0
 17  2  1  0
 17 25  1  0
 18  4  2  0
 19 10  2  0
 21 25  1  0
 22 26  1  0
 22 21  1  0
 23 20  2  0
 24  5  1  0
  1 27  1  1
  3 28  1  0
  3 29  1  0
  5 30  1  6
  6 31  1  0
  6 32  1  0
  7 33  1  0
  7 34  1  0
  8 35  1  0
  8 36  1  0
  9 37  1  0
  9 38  1  0
 12 39  1  6
 14 40  1  0
 14 41  1  0
 15 42  1  0
 15 43  1  0
 16 44  1  6
 21 45  1  0
 21 46  1  0
 22 47  1  1
 23 48  1  0
 25 49  1  0
 25 50  1  0
 26 51  1  0
 26 52  1  0
M  CHG  1  25   1
M  END
>  <mol_id>  (12) 
2026-09-18-3war-s0-n100-refligand-0012

>  <rmsd_to_ref>  (12) 


$$$$

     RDKit          3D

 23 24  0  0  0  0  0  0  0  0999 V2000
    3.6612   18.5534   37.1693 C   0  0  0  0  0  0  0  0  0  0  0  0
    2.3772   19.9074   39.0575 C   0  0  0  0  0  0  0  0  0  0  0  0
    2.7783   18.4783   39.3091 C   0  0  0  0  0  0  0  0  0  0  0  0
    3.5698   17.6918   38.3287 C   0  0  0  0  0  0  0  0  0  0  0  0
    1.6742   18.5261   41.4742 C   0  0  0  0  0  0  0  0  0  0  0  0
    2.3675   17.7973   40.4150 C   0  0  0  0  0  0  0  0  0  0  0  0
    1.7588   20.5663   40.2121 C   0  0  0  0  0  0  0  0  0  0  0  0
    2.3412   20.9535   38.0934 C   0  0  0  0  0  0  0  0  0  0  0  0
    1.4038   19.8456   41.3486 C   0  0  0  0  0  0  0  0  0  0  0  0
    2.8280   20.9177   36.8208 C   0  0  0  0  0  0  0  0  0  0  0  0
    3.3511   19.6856   36.6327 C   0  0  0  0  0  0  0  0  0  0  0  0
    4.2513   18.0052   36.4201 H   0  0  0  0  0  0  0  0  0  0  0  0
    3.0555   16.7526   38.0766 H   0  0  0  0  0  0  0  0  0  0  0  0
    4.5578   17.4060   38.7189 H   0  0  0  0  0  0  0  0  0  0  0  0
    1.3676   17.9943   42.3870 H   0  0  0  0  0  0  0  0  0  0  0  0
    2.5546   16.7173   40.5087 H   0  0  0  0  0  0  0  0  0  0  0  0
    1.5721   21.6498   40.1796 H   0  0  0  0  0  0  0  0  0  0  0  0
    1.2746   21.1977   37.9810 H   0  0  0  0  0  0  0  0  0  0  0  0
    3.0801   21.6322   38.5442 H   0  0  0  0  0  0  0  0  0  0  0  0
    0.8877   20.3648   42.1697 H   0  0  0  0  0  0  0  0  0  0  0  0
    2.0163   21.0975   36.1005 H   0  0  0  0  0  0  0  0  0  0  0  0
    3.5912   21.6954   36.6701 H   0  0  0  0  0  0  0  0  0  0  0  0
    3.6317   19.6198   35.5711 H   0  0  0  0  0  0  0  0  0  0  0  0
  1  4  1  0
  2  3  1  0
  2  7  2  0
  3  6  2  0
  4  3  1  0
  6  5  1  0
  7  9  1  0
  8  2  1  0
  9  5  2  0
 10  8  1  0
 11 10  1  0
 11  1  2  0
  1 12  1  0
  4 13  1  0
  4 14  1  0
  5 15  1  0
  6 16  1  0
  7 17  1  0
  8 18  1  0
  8 19  1  0
  9 20  1  0
 10 21  1  0
 10 22  1  0
 11 23  1  0
M  END
>  <mol_id>  (13) 
2026-09-18-3war-s0-n100-refligand-0013

>  <rmsd_to_ref>  (13) 


$$$$

     RDKit          3D

 33 34  0  0  0  0  0  0  0  0999 V2000
    3.2731   19.2622   36.7791 N   0  0  0  0  0  0  0  0  0  0  0  0
    3.0264   18.0456   38.7941 C   0  0  0  0  0  0  0  0  0  0  0  0
    1.6901   21.7287   36.5695 O   0  0  0  0  0  0  0  0  0  0  0  0
    2.3735   17.0435   40.8220 O   0  0  0  0  0  0  0  0  0  0  0  0
    1.3136   21.1912   38.8502 N   0  0  0  0  0  0  0  0  0  0  0  0
    1.1891   18.7326   42.9553 C   0  0  0  0  0  0  0  0  0  0  0  0
    1.8585   21.0438   37.6055 C   0  0  0  0  0  0  0  0  0  0  0  0
    0.7086   19.1688   41.6285 C   0  0  0  0  0  0  0  0  0  0  0  0
    0.8395   21.6812   41.3377 C   0  0  0  0  0  0  0  0  0  0  0  0
    3.5202   18.0927   37.4767 C   0  0  0  0  0  0  0  0  0  0  0  0
    2.3590   19.2199   38.8929 N   0  0  0  0  0  0  0  0  0  0  0  0
    1.6965   20.1517   39.5997 C   0  0  0  0  0  0  0  0  0  0  0  0
    4.3473   17.1673   37.0055 N   0  0  0  0  0  0  0  0  0  0  0  0
   -0.6163   21.4014   41.6098 C   0  0  0  0  0  0  0  0  0  0  0  0
    3.1311   16.9041   39.6722 C   0  0  0  0  0  0  0  0  0  0  0  0
    2.5787   19.8591   37.6973 C   0  0  0  0  0  0  0  0  0  0  0  0
    1.4872   20.3398   41.0621 C   0  0  0  0  0  0  0  0  0  0  0  0
    2.9725   17.0815   41.6093 H   0  0  0  0  0  0  0  0  0  0  0  0
    0.7422   19.3679   43.7342 H   0  0  0  0  0  0  0  0  0  0  0  0
    0.8981   17.6854   43.1246 H   0  0  0  0  0  0  0  0  0  0  0  0
    2.2850   18.8196   42.9952 H   0  0  0  0  0  0  0  0  0  0  0  0
    0.7945   18.3227   40.9309 H   0  0  0  0  0  0  0  0  0  0  0  0
   -0.3328   19.5005   41.7529 H   0  0  0  0  0  0  0  0  0  0  0  0
    0.9435   22.3409   40.4636 H   0  0  0  0  0  0  0  0  0  0  0  0
    1.3153   22.1866   42.1911 H   0  0  0  0  0  0  0  0  0  0  0  0
    4.5152   16.3049   37.5431 H   0  0  0  0  0  0  0  0  0  0  0  0
    4.8210   17.3118   36.1024 H   0  0  0  0  0  0  0  0  0  0  0  0
   -0.8030   21.4509   42.6927 H   0  0  0  0  0  0  0  0  0  0  0  0
   -1.2360   22.1512   41.0963 H   0  0  0  0  0  0  0  0  0  0  0  0
   -0.8724   20.3979   41.2391 H   0  0  0  0  0  0  0  0  0  0  0  0
    2.7872   16.0106   39.1304 H   0  0  0  0  0  0  0  0  0  0  0  0
    4.1842   16.8148   39.9770 H   0  0  0  0  0  0  0  0  0  0  0  0
    2.4580   20.3558   41.5791 H   0  0  0  0  0  0  0  0  0  0  0  0
  1 10  1  0
  1 16  2  0
  2 11  1  0
  2 15  1  0
  3  7  2  0
  5 12  2  0
  7 16  1  0
  7  5  1  0
  8  6  1  0
  9 14  1  0
 10  2  2  0
 11 12  1  0
 12 17  1  0
 13 10  1  0
 15  4  1  0
 16 11  1  0
 17  9  1  0
 17  8  1  0
  4 18  1  0
  6 19  1  0
  6 20  1  0
  6 21  1  0
  8 22  1  0
  8 23  1  0
  9 24  1  0
  9 25  1  0
 13 26  1  0
 13 27  1  0
 14 28  1  0
 14 29  1  0
 14 30  1  0
 15 31  1  0
 15 32  1  0
 17 33  1  0
M  END
>  <mol_id>  (14) 
2026-09-18-3war-s0-n100-refligand-0014

>  <rmsd_to_ref>  (14) 


$$$$

     RDKit          3D

 41 44  0  0  0  0  0  0  0  0999 V2000
   -0.1933   21.5310   42.4349 O   0  0  0  0  0  0  0  0  0  0  0  0
    3.5717   17.7563   37.4791 C   0  0  0  0  0  0  0  0  0  0  0  0
    0.1298   20.4276   41.9269 C   0  0  0  0  0  0  0  0  0  0  0  0
   -0.7680   18.5524   44.8545 C   0  0  0  0  0  0  0  0  0  0  0  0
    2.5827   19.6156   38.6887 C   0  0  0  0  0  0  0  0  0  0  0  0
    3.1747   16.8290   38.4397 C   0  0  0  0  0  0  0  0  0  0  0  0
    1.9384   18.6377   39.6189 C   0  0  1  0  0  0  0  0  0  0  0  0
    0.6502   18.2902   41.6477 C   0  0  0  0  0  0  0  0  0  0  0  0
    3.2508   19.1928   37.5464 C   0  0  0  0  0  0  0  0  0  0  0  0
    2.3677   17.2508   39.5374 C   0  0  0  0  0  0  0  0  0  0  0  0
    1.7907   16.3517   40.4862 N   0  0  0  0  0  0  0  0  0  0  0  0
    1.2261   19.0489   40.7010 C   0  0  0  0  0  0  0  0  0  0  0  0
    3.4051   14.3862   37.7308 C   0  0  0  0  0  0  0  0  0  0  0  0
    3.4586   15.5242   38.6014 O   0  0  0  0  0  0  0  0  0  0  0  0
    2.1597   21.0149   38.8994 C   0  0  0  0  0  0  0  0  0  0  0  0
    3.4401   19.9695   36.4933 C   0  0  0  0  0  0  0  0  0  0  0  0
    0.8953   20.4119   40.8442 C   0  0  0  0  0  0  0  0  0  0  0  0
    0.8939   16.7829   41.5858 C   0  0  0  0  0  0  0  0  0  0  0  0
    1.3001   21.3709   39.9254 C   0  0  0  0  0  0  0  0  0  0  0  0
    0.2012   15.9268   42.6916 C   0  0  0  0  0  0  0  0  0  0  0  0
   -0.2429   19.2230   42.4525 N   0  0  0  0  0  0  0  0  0  0  0  0
    3.4956   20.6190   35.5638 N   0  0  0  0  0  0  0  0  0  0  0  0
   -0.5494   14.7652   42.1164 C   0  0  0  0  0  0  0  0  0  0  0  0
   -1.3000   19.1296   43.5285 C   0  0  0  0  0  0  0  0  0  0  0  0
    4.1584   17.3955   36.6213 H   0  0  0  0  0  0  0  0  0  0  0  0
   -1.2544   19.0638   45.6983 H   0  0  0  0  0  0  0  0  0  0  0  0
   -0.9898   17.4760   44.9010 H   0  0  0  0  0  0  0  0  0  0  0  0
    0.3198   18.7054   44.9107 H   0  0  0  0  0  0  0  0  0  0  0  0
    0.9889   18.6252   39.0636 H   0  0  0  0  0  0  0  0  0  0  0  0
    3.2743   13.4725   38.3293 H   0  0  0  0  0  0  0  0  0  0  0  0
    2.5582   14.4947   37.0372 H   0  0  0  0  0  0  0  0  0  0  0  0
    4.3417   14.3184   37.1580 H   0  0  0  0  0  0  0  0  0  0  0  0
    2.5378   21.7957   38.2230 H   0  0  0  0  0  0  0  0  0  0  0  0
    0.9404   22.4068   40.0117 H   0  0  0  0  0  0  0  0  0  0  0  0
    0.9705   15.5465   43.3798 H   0  0  0  0  0  0  0  0  0  0  0  0
   -0.5203   16.5703   43.2163 H   0  0  0  0  0  0  0  0  0  0  0  0
   -1.0274   14.1988   42.9292 H   0  0  0  0  0  0  0  0  0  0  0  0
   -1.3202   15.1336   41.4236 H   0  0  0  0  0  0  0  0  0  0  0  0
    0.1483   14.1101   41.5741 H   0  0  0  0  0  0  0  0  0  0  0  0
   -1.6941   20.1387   43.7197 H   0  0  0  0  0  0  0  0  0  0  0  0
   -2.0785   18.4439   43.1628 H   0  0  0  0  0  0  0  0  0  0  0  0
  2  9  2  0
  2  6  1  0
  3 21  1  0
  3  1  2  0
  5 15  2  0
  6 14  1  0
  6 10  2  0
  7  5  1  0
  7 12  1  0
  8 21  1  0
  9  5  1  0
 10  7  1  0
 10 11  1  0
 11 18  2  0
 12 17  1  0
 12  8  2  0
 13 14  1  0
 15 19  1  0
 16  9  1  0
 17  3  1  0
 18  8  1  0
 18 20  1  0
 19 17  2  0
 21 24  1  0
 22 16  3  0
 23 20  1  0
 24  4  1  0
  2 25  1  0
  4 26  1  0
  4 27  1  0
  4 28  1  0
  7 29  1  6
 13 30  1  0
 13 31  1  0
 13 32  1  0
 15 33  1  0
 19 34  1  0
 20 35  1  0
 20 36  1  0
 23 37  1  0
 23 38  1  0
 23 39  1  0
 24 40  1  0
 24 41  1  0
M  END
>  <mol_id>  (15) 
2026-09-18-3war-s0-n100-refligand-0015

>  <rmsd_to_ref>  (15) 


$$$$

     RDKit          3D

 47 49  0  0  0  0  0  0  0  0999 V2000
   -0.2171   19.2154   43.4429 C   0  0  0  0  0  0  0  0  0  0  0  0
    2.5662   20.9401   37.9370 C   0  0  0  0  0  0  0  0  0  0  0  0
   -0.8150   18.7031   45.7883 N   0  0  0  0  0  0  0  0  0  0  0  0
    0.3744   18.3261   42.6880 N   0  0  0  0  0  0  0  0  0  0  0  0
    3.2408   18.7951   37.3160 C   0  0  0  0  0  0  0  0  0  0  0  0
    2.7087   20.1028   36.9511 C   0  0  0  0  0  0  0  0  0  0  0  0
    2.9390   16.7335   38.7263 C   0  0  0  0  0  0  0  0  0  0  0  0
    2.3383   18.9509   39.5671 C   0  0  0  0  0  0  0  0  0  0  0  0
    2.8368   18.1512   38.6040 C   0  0  0  0  0  0  0  0  0  0  0  0
    2.1873   21.9766   35.8713 C   0  0  0  0  0  0  0  0  0  0  0  0
    0.6997   21.8545   40.9107 Cl  0  0  0  0  0  0  0  0  0  0  0  0
    0.4651   20.3961   41.7759 C   0  0  0  0  0  0  0  0  0  0  0  0
   -0.9201   21.6060   43.2132 O   0  0  0  0  0  0  0  0  0  0  0  0
    1.5591   16.0345   41.9611 C   0  0  0  0  0  0  0  0  0  0  0  0
    1.9300   18.4700   40.7151 C   0  0  0  0  0  0  0  0  0  0  0  0
   -0.5204   18.7354   44.7866 C   0  0  0  0  0  0  0  0  0  0  0  0
    3.2457   14.5476   37.8407 N   0  0  0  0  0  0  0  0  0  0  0  0
   -0.3151   20.4737   42.8752 C   0  0  0  0  0  0  0  0  0  0  0  0
    3.9690   17.8778   36.4520 N   0  0  0  0  0  0  0  0  0  0  0  0
    2.2305   20.4804   39.2105 C   0  0  0  0  0  0  0  0  0  0  0  0
    4.0100   16.4982   36.6528 C   0  0  0  0  0  0  0  0  0  0  0  0
    3.2998   15.8857   37.6873 C   0  0  2  0  0  0  0  0  0  0  0  0
    2.6556   21.3511   35.8137 O   0  0  0  0  0  0  0  0  0  0  0  0
    2.0558   16.9228   40.9272 C   0  0  0  0  0  0  0  0  0  0  0  0
    2.6189   16.1905   39.9582 C   0  0  0  0  0  0  0  0  0  0  0  0
    2.6364   21.9815   34.7529 C   0  0  0  0  0  0  0  0  0  0  0  0
    1.0225   18.9984   41.5948 C   0  0  0  0  0  0  0  0  0  0  0  0
    2.7114   22.0169   37.7651 H   0  0  0  0  0  0  0  0  0  0  0  0
    0.3758   17.3090   42.8505 H   0  0  0  0  0  0  0  0  0  0  0  0
    2.4461   20.3632   35.9151 H   0  0  0  0  0  0  0  0  0  0  0  0
    1.1083   21.7965   35.9865 H   0  0  0  0  0  0  0  0  0  0  0  0
    2.1963   22.7796   36.6231 H   0  0  0  0  0  0  0  0  0  0  0  0
   -1.4879   21.6411   44.0234 H   0  0  0  0  0  0  0  0  0  0  0  0
    1.8224   16.4389   42.9496 H   0  0  0  0  0  0  0  0  0  0  0  0
    0.4653   15.9510   41.8785 H   0  0  0  0  0  0  0  0  0  0  0  0
    2.0129   15.0399   41.8391 H   0  0  0  0  0  0  0  0  0  0  0  0
    3.2677   14.3159   38.8441 H   0  0  0  0  0  0  0  0  0  0  0  0
    2.3742   14.1893   37.4247 H   0  0  0  0  0  0  0  0  0  0  0  0
    4.0537   14.1152   37.3706 H   0  0  0  0  0  0  0  0  0  0  0  0
    1.8867   21.1942   39.9736 H   0  0  0  0  0  0  0  0  0  0  0  0
    4.6174   15.8765   35.9787 H   0  0  0  0  0  0  0  0  0  0  0  0
    2.3737   15.6347   37.1495 H   0  0  0  0  0  0  0  0  0  0  0  0
    2.9191   21.0516   36.7197 H   0  0  0  0  0  0  0  0  0  0  0  0
    2.8331   15.1282   40.1465 H   0  0  0  0  0  0  0  0  0  0  0  0
    3.7346   22.0243   34.7989 H   0  0  0  0  0  0  0  0  0  0  0  0
    2.3267   21.0649   34.2294 H   0  0  0  0  0  0  0  0  0  0  0  0
    2.2576   22.8597   34.2095 H   0  0  0  0  0  0  0  0  0  0  0  0
  1 16  1  0
  2 20  1  0
  4  1  1  0
  5  9  2  0
  6  5  1  0
  6  2  2  0
  7 25  2  0
  8 15  1  0
  9  7  1  0
  9  8  1  0
 11 12  1  0
 12 18  1  0
 15 24  2  0
 15 27  1  0
 16  3  3  0
 18 13  1  0
 18  1  2  0
 19 21  2  0
 19  5  1  0
 20  8  2  0
 21 22  1  0
 22 17  1  0
 22  7  1  0
 23 10  1  0
 24 14  1  0
 25 24  1  0
 26 10  1  0
 27 12  2  0
 27  4  1  0
  2 28  1  0
  4 29  1  0
  6 30  1  0
 10 31  1  0
 10 32  1  0
 13 33  1  0
 14 34  1  0
 14 35  1  0
 14 36  1  0
 17 37  1  0
 17 38  1  0
 17 39  1  0
 20 40  1  0
 21 41  1  0
 22 42  1  6
 23 43  1  0
 25 44  1  0
 26 45  1  0
 26 46  1  0
 26 47  1  0
M  CHG  1  17   1
M  END
>  <mol_id>  (16) 
2026-09-18-3war-s0-n100-refligand-0016

>  <rmsd_to_ref>  (16) 


$$$$

     RDKit          3D

 16 15  0  0  0  0  0  0  0  0999 V2000
    1.9682   19.3239   39.0689 C   0  0  0  0  0  0  0  0  0  0  0  0
    3.5301   20.7349   35.9614 O   0  0  0  0  0  0  0  0  0  0  0  0
    2.2757   20.3131   38.0579 C   0  0  0  0  0  0  0  0  0  0  0  0
    2.2767   21.2385   40.3139 O   0  0  0  0  0  0  0  0  0  0  0  0
    2.6324   20.0636   36.8199 C   0  0  0  0  0  0  0  0  0  0  0  0
    2.2585   19.7048   40.5085 C   0  0  0  0  0  0  0  0  0  0  0  0
    2.5523   18.4205   38.8393 H   0  0  0  0  0  0  0  0  0  0  0  0
    0.8772   19.1918   39.0203 H   0  0  0  0  0  0  0  0  0  0  0  0
    4.4004   20.8502   36.4189 H   0  0  0  0  0  0  0  0  0  0  0  0
    1.3718   20.9350   37.9780 H   0  0  0  0  0  0  0  0  0  0  0  0
    3.2270   20.6977   38.4540 H   0  0  0  0  0  0  0  0  0  0  0  0
    2.2915   21.6832   41.1982 H   0  0  0  0  0  0  0  0  0  0  0  0
    1.6824   20.0709   36.2655 H   0  0  0  0  0  0  0  0  0  0  0  0
    3.2758   19.1982   37.0372 H   0  0  0  0  0  0  0  0  0  0  0  0
    1.4636   19.3796   41.1958 H   0  0  0  0  0  0  0  0  0  0  0  0
    3.1589   19.2603   40.9576 H   0  0  0  0  0  0  0  0  0  0  0  0
  1  6  1  0
  2  5  1  0
  3  1  1  0
  4  6  1  0
  5  3  1  0
  1  7  1  0
  1  8  1  0
  2  9  1  0
  3 10  1  0
  3 11  1  0
  4 12  1  0
  5 13  1  0
  5 14  1  0
  6 15  1  0
  6 16  1  0
M  END
>  <mol_id>  (17) 
2026-09-18-3war-s0-n100-refligand-0017

>  <rmsd_to_ref>  (17) 


$$$$

     RDKit          3D

 25 27  0  0  0  0  0  0  0  0999 V2000
    0.6000   20.3480   41.6880 C   0  0  0  0  0  0  0  0  0  0  0  0
    1.9510   18.5060   40.1370 C   0  0  0  0  0  0  0  0  0  0  0  0
    2.3560   20.4600   38.0600 C   0  0  0  0  0  0  0  0  0  0  0  0
   -0.1340   18.5820   43.2340 C   0  0  0  0  0  0  0  0  0  0  0  0
    0.6080   17.8000   42.4310 C   0  0  0  0  0  0  0  0  0  0  0  0
    2.7510   19.0340   37.8420 C   0  0  0  0  0  0  0  0  0  0  0  0
    1.8800   16.6380   41.1320 O   0  0  0  0  0  0  0  0  0  0  0  0
    3.0880   16.9230   38.4230 N   0  0  0  0  0  0  0  0  0  0  0  0
    2.5940   18.1000   38.9460 C   0  0  0  0  0  0  0  0  0  0  0  0
    1.4600   17.8620   41.2560 C   0  0  0  0  0  0  0  0  0  0  0  0
    0.0170   19.8550   42.8430 N   0  0  0  0  0  0  0  0  0  0  0  0
    2.5150   21.2120   36.9200 O   0  0  0  0  0  0  0  0  0  0  0  0
    3.3150   18.3800   36.7920 N   0  0  0  0  0  0  0  0  0  0  0  0
    1.7510   20.8870   39.2830 C   0  0  0  0  0  0  0  0  0  0  0  0
    3.5160   17.1060   37.1920 C   0  0  0  0  0  0  0  0  0  0  0  0
    1.4790   19.8830   40.4630 C   0  0  1  0  0  0  0  0  0  0  0  0
    0.3758   21.4207   41.5927 H   0  0  0  0  0  0  0  0  0  0  0  0
   -1.1928   18.2934   43.1584 H   0  0  0  0  0  0  0  0  0  0  0  0
    0.1908   18.4667   44.2786 H   0  0  0  0  0  0  0  0  0  0  0  0
    0.5505   16.7595   42.7833 H   0  0  0  0  0  0  0  0  0  0  0  0
    1.6549   15.9651   41.8224 H   0  0  0  0  0  0  0  0  0  0  0  0
    2.9502   20.8172   36.1233 H   0  0  0  0  0  0  0  0  0  0  0  0
    1.4688   21.9435   39.4017 H   0  0  0  0  0  0  0  0  0  0  0  0
    3.9769   16.3240   36.5706 H   0  0  0  0  0  0  0  0  0  0  0  0
    1.8442   19.8298   41.4992 H   0  0  0  0  0  0  0  0  0  0  0  0
  1 11  2  0
  2 16  1  0
  2 10  1  0
  3 14  2  0
  5  4  1  0
  6  3  1  0
  6  9  1  0
  7 10  1  0
  8  9  1  0
  9  2  2  0
 10  5  2  0
 11  4  1  0
 12  3  1  0
 13 15  1  0
 13  6  2  0
 15  8  2  0
 16 14  1  0
 16  1  1  0
  1 17  1  0
  4 18  1  0
  4 19  1  0
  5 20  1  0
  7 21  1  0
 12 22  1  0
 14 23  1  0
 15 24  1  0
 16 25  1  1
M  END
>  <mol_id>  (18) 
2026-09-18-3war-s0-n100-refligand-0018

>  <rmsd_to_ref>  (18) 


$$$$

     RDKit          3D

 42 45  0  0  0  0  0  0  0  0999 V2000
    1.1871   18.9007   41.1017 C   0  0  2  0  0  0  0  0  0  0  0  0
    0.5097   20.0395   41.4710 C   0  0  0  0  0  0  0  0  0  0  0  0
   -0.0566   18.2458   42.4702 C   0  0  0  0  0  0  0  0  0  0  0  0
    2.9791   20.2116   36.5464 C   0  0  0  0  0  0  0  0  0  0  0  0
    3.6061   18.6606   38.0726 C   0  0  0  0  0  0  0  0  0  0  0  0
    3.0592   16.1322   39.4763 C   0  0  0  0  0  0  0  0  0  0  0  0
   -1.2408   18.6164   44.5924 C   0  0  0  0  0  0  0  0  0  0  0  0
    0.8427   17.8092   41.6382 N   0  0  0  0  0  0  0  0  0  0  0  0
    1.9722   20.2844   38.7506 C   0  0  0  0  0  0  0  0  0  0  0  0
    3.6723   19.2033   36.9151 N   0  0  0  0  0  0  0  0  0  0  0  0
    2.1526   20.8641   37.4575 C   0  0  0  0  0  0  0  0  0  0  0  0
    2.4573   17.1449   40.2423 C   0  0  1  0  0  0  0  0  0  0  0  0
    1.7387   15.3028   40.9488 C   0  0  0  0  0  0  0  0  0  0  0  0
    2.6818   19.1459   39.0652 C   0  0  0  0  0  0  0  0  0  0  0  0
   -0.5299   19.4627   42.3995 C   0  0  0  0  0  0  0  0  0  0  0  0
   -1.2291   19.6392   43.6627 C   0  0  0  0  0  0  0  0  0  0  0  0
    2.3099   18.5183   40.3371 N   0  0  0  0  0  0  0  0  0  0  0  0
    2.5857   14.9536   39.9939 N   0  0  0  0  0  0  0  0  0  0  0  0
    3.1342   20.7659   35.3482 O   0  0  0  0  0  0  0  0  0  0  0  0
   -0.7651   18.5684   44.5414 C   0  0  0  0  0  0  0  0  0  0  0  0
    1.1059   14.2830   41.8280 C   0  0  0  0  0  0  0  0  0  0  0  0
    1.5389   16.8611   41.1525 C   0  0  0  0  0  0  0  0  0  0  0  0
    0.4616   18.7316   40.2923 H   0  0  0  0  0  0  0  0  0  0  0  0
    1.1676   20.7507   41.9919 H   0  0  0  0  0  0  0  0  0  0  0  0
    0.0984   20.6172   40.6301 H   0  0  0  0  0  0  0  0  0  0  0  0
   -0.4297   17.5721   43.2557 H   0  0  0  0  0  0  0  0  0  0  0  0
    4.2639   17.8122   38.3125 H   0  0  0  0  0  0  0  0  0  0  0  0
    3.7614   16.2581   38.6390 H   0  0  0  0  0  0  0  0  0  0  0  0
   -1.5568   18.9267   45.5993 H   0  0  0  0  0  0  0  0  0  0  0  0
   -1.9077   17.7510   44.4639 H   0  0  0  0  0  0  0  0  0  0  0  0
    1.2825   20.7366   39.4785 H   0  0  0  0  0  0  0  0  0  0  0  0
    2.5672   21.8717   37.6084 H   0  0  0  0  0  0  0  0  0  0  0  0
    1.1541   20.8147   36.9986 H   0  0  0  0  0  0  0  0  0  0  0  0
    3.4058   16.9999   39.7044 H   0  0  0  0  0  0  0  0  0  0  0  0
   -0.7782   20.5126   44.1565 H   0  0  0  0  0  0  0  0  0  0  0  0
   -2.2836   19.7195   43.3602 H   0  0  0  0  0  0  0  0  0  0  0  0
   -0.2798   18.6617   45.5242 H   0  0  0  0  0  0  0  0  0  0  0  0
   -0.5401   17.5802   44.1138 H   0  0  0  0  0  0  0  0  0  0  0  0
   -0.3871   19.3532   43.8699 H   0  0  0  0  0  0  0  0  0  0  0  0
    1.0147   14.6842   42.8482 H   0  0  0  0  0  0  0  0  0  0  0  0
    0.1067   14.0345   41.4410 H   0  0  0  0  0  0  0  0  0  0  0  0
    1.7286   13.3763   41.8448 H   0  0  0  0  0  0  0  0  0  0  0  0
  1  8  1  0
  1  2  1  0
  2 15  1  0
  3 15  2  0
  4 10  1  0
  4 11  1  0
  5 14  1  0
  6 18  2  0
  8  3  1  0
  9 14  2  0
 10  5  2  0
 11  9  1  0
 12  6  1  0
 12 17  1  0
 12 22  1  0
 13 22  2  0
 13 21  1  0
 14 17  1  0
 15 16  1  0
 16  7  1  0
 17  1  1  0
 18 13  1  0
 19  4  2  0
 20  7  1  0
 22  8  1  0
  1 23  1  6
  2 24  1  0
  2 25  1  0
  3 26  1  0
  5 27  1  0
  6 28  1  0
  7 29  1  0
  7 30  1  0
  9 31  1  0
 11 32  1  0
 11 33  1  0
 12 34  1  1
 16 35  1  0
 16 36  1  0
 20 37  1  0
 20 38  1  0
 20 39  1  0
 21 40  1  0
 21 41  1  0
 21 42  1  0
M  END
>  <mol_id>  (19) 
2026-09-18-3war-s0-n100-refligand-0019

>  <rmsd_to_ref>  (19) 


$$$$

     RDKit          3D

 40 42  0  0  0  0  0  0  0  0999 V2000
    2.4861   19.7040   39.0347 C   0  0  1  0  0  0  0  0  0  0  0  0
    2.0375   16.2412   41.6769 C   0  0  0  0  0  0  0  0  0  0  0  0
   -0.1587   21.0941   43.7679 N   0  0  0  0  0  0  0  0  0  0  0  0
    1.6497   20.3118   40.2740 C   0  0  0  0  0  0  0  0  0  0  0  0
    0.0109   19.5800   43.8265 C   0  0  1  0  0  0  0  0  0  0  0  0
    0.2444   21.4906   42.4081 C   0  0  0  0  0  0  0  0  0  0  0  0
    1.2519   19.4809   43.0826 C   0  0  0  0  0  0  0  0  0  0  0  0
   -0.0177   19.0906   45.2648 C   0  0  0  0  0  0  0  0  0  0  0  0
    1.8074   21.9445   38.4033 C   0  0  0  0  0  0  0  0  0  0  0  0
    2.1839   18.0260   40.3704 O   0  0  0  0  0  0  0  0  0  0  0  0
    1.0963   20.3515   41.8083 C   0  0  1  0  0  0  0  0  0  0  0  0
    1.5308   21.4268   39.5463 C   0  0  0  0  0  0  0  0  0  0  0  0
    3.7103   15.0832   39.5656 O   0  0  0  0  0  0  0  0  0  0  0  0
    2.4296   21.3813   37.4312 N   0  0  0  0  0  0  0  0  0  0  0  0
    3.4432   16.4229   39.4297 C   0  0  0  0  0  0  0  0  0  0  0  0
    2.6967   20.2355   37.7193 C   0  0  0  0  0  0  0  0  0  0  0  0
    3.3424   19.3036   36.8278 O   0  0  0  0  0  0  0  0  0  0  0  0
    3.0134   18.4928   39.2281 C   0  0  1  0  0  0  0  0  0  0  0  0
    2.6068   16.9485   40.5289 C   0  0  0  0  0  0  0  0  0  0  0  0
    3.6749   17.5836   38.6182 C   0  0  0  0  0  0  0  0  0  0  0  0
    1.5856   15.8018   42.6181 C   0  0  0  0  0  0  0  0  0  0  0  0
    1.5469   19.2413   38.6973 H   0  0  0  0  0  0  0  0  0  0  0  0
   -1.1409   21.3520   43.9404 H   0  0  0  0  0  0  0  0  0  0  0  0
    0.4095   21.5673   44.4849 H   0  0  0  0  0  0  0  0  0  0  0  0
   -0.7696   18.9319   43.4015 H   0  0  0  0  0  0  0  0  0  0  0  0
   -0.6488   21.6545   41.7875 H   0  0  0  0  0  0  0  0  0  0  0  0
    0.8253   22.4241   42.4402 H   0  0  0  0  0  0  0  0  0  0  0  0
    2.0877   19.8532   43.6932 H   0  0  0  0  0  0  0  0  0  0  0  0
    1.4639   18.4348   42.8163 H   0  0  0  0  0  0  0  0  0  0  0  0
    0.5621   19.7785   45.8978 H   0  0  0  0  0  0  0  0  0  0  0  0
   -1.0584   19.0552   45.6194 H   0  0  0  0  0  0  0  0  0  0  0  0
    0.4225   18.0839   45.3183 H   0  0  0  0  0  0  0  0  0  0  0  0
    1.4759   22.9806   38.2400 H   0  0  0  0  0  0  0  0  0  0  0  0
    2.0131   20.8701   42.1255 H   0  0  0  0  0  0  0  0  0  0  0  0
    1.0001   22.1790   40.1485 H   0  0  0  0  0  0  0  0  0  0  0  0
    4.2628   14.6175   38.8888 H   0  0  0  0  0  0  0  0  0  0  0  0
    4.0234   18.7653   38.8883 H   0  0  0  0  0  0  0  0  0  0  0  0
    3.2950   17.4351   37.5967 H   0  0  0  0  0  0  0  0  0  0  0  0
    4.7412   17.8263   38.5000 H   0  0  0  0  0  0  0  0  0  0  0  0
    1.1468   15.3752   43.5321 H   0  0  0  0  0  0  0  0  0  0  0  0
  1 16  1  0
  1 18  1  0
  1  4  1  0
  2 21  3  0
  3  5  1  0
  5  8  1  0
  6  3  1  0
  7  5  1  0
  9 12  1  0
 10 19  1  0
 11  4  1  0
 11  6  1  0
 11  7  1  0
 12  4  2  0
 14 16  1  0
 14  9  2  0
 15 13  1  0
 15 19  2  0
 17 16  2  0
 18 20  1  0
 18 10  1  0
 19  2  1  0
 20 15  1  0
  1 22  1  1
  3 23  1  0
  3 24  1  0
  5 25  1  6
  6 26  1  0
  6 27  1  0
  7 28  1  0
  7 29  1  0
  8 30  1  0
  8 31  1  0
  8 32  1  0
  9 33  1  0
 11 34  1  6
 12 35  1  0
 13 36  1  0
 18 37  1  1
 20 38  1  0
 20 39  1  0
 21 40  1  0
M  CHG  1   3   1
M  END
>  <mol_id>  (20) 
2026-09-18-3war-s0-n100-refligand-0020

>  <rmsd_to_ref>  (20) 


$$$$

     RDKit          3D

 22 24  0  0  0  0  0  0  0  0999 V2000
    1.2611   19.4361   41.3889 C   0  0  0  0  0  0  0  0  0  0  0  0
    1.0452   21.5624   39.7885 C   0  0  0  0  0  0  0  0  0  0  0  0
    3.2383   16.3949   38.2440 C   0  0  0  0  0  0  0  0  0  0  0  0
    2.9780   18.6950   37.1212 C   0  0  0  0  0  0  0  0  0  0  0  0
    1.6559   19.2978   40.0812 C   0  0  0  0  0  0  0  0  0  0  0  0
    2.8926   19.5483   36.1773 N   0  0  0  0  0  0  0  0  0  0  0  0
    0.8403   20.5804   41.8901 N   0  0  0  0  0  0  0  0  0  0  0  0
    2.8395   17.7520   38.3875 C   0  0  0  0  0  0  0  0  0  0  0  0
    2.1851   18.0608   39.6042 C   0  0  0  0  0  0  0  0  0  0  0  0
    2.2316   15.7651   40.3491 C   0  0  0  0  0  0  0  0  0  0  0  0
    3.1961   18.5350   36.2110 O   0  0  0  0  0  0  0  0  0  0  0  0
    1.9257   17.0751   40.5584 N   0  0  0  0  0  0  0  0  0  0  0  0
    0.7187   21.6298   41.1275 C   0  0  0  0  0  0  0  0  0  0  0  0
    2.9487   15.3765   39.2419 C   0  0  0  0  0  0  0  0  0  0  0  0
    1.4454   20.3215   39.1535 C   0  0  0  0  0  0  0  0  0  0  0  0
    1.2974   18.5548   42.0462 H   0  0  0  0  0  0  0  0  0  0  0  0
    1.0005   22.4797   39.1831 H   0  0  0  0  0  0  0  0  0  0  0  0
    3.7901   16.1020   37.3385 H   0  0  0  0  0  0  0  0  0  0  0  0
    1.9008   15.0077   41.0750 H   0  0  0  0  0  0  0  0  0  0  0  0
    0.3533   22.5756   41.5538 H   0  0  0  0  0  0  0  0  0  0  0  0
    3.2894   14.3382   39.1159 H   0  0  0  0  0  0  0  0  0  0  0  0
    1.5690   20.2001   38.0673 H   0  0  0  0  0  0  0  0  0  0  0  0
  1  7  1  0
  2 13  1  0
  3  8  1  0
  3 14  2  0
  4  8  1  0
  5  1  2  0
  6  4  2  0
  8  9  2  0
  9  5  1  0
  9 12  1  0
 10 12  2  0
 11  6  1  0
 11  4  1  0
 13  7  2  0
 14 10  1  0
 15  5  1  0
 15  2  2  0
  1 16  1  0
  2 17  1  0
  3 18  1  0
 10 19  1  0
 13 20  1  0
 14 21  1  0
 15 22  1  0
M  END
>  <mol_id>  (21) 
2026-09-18-3war-s0-n100-refligand-0021

>  <rmsd_to_ref>  (21) 


$$$$

     RDKit          3D

 18 19  0  0  0  0  0  0  0  0999 V2000
    2.2668   18.9943   38.6859 C   0  0  0  0  0  0  0  0  0  0  0  0
    2.9305   17.6174   39.1129 S   0  0  0  0  0  0  0  0  0  0  0  0
    1.1432   18.5480   40.6841 N   0  0  0  0  0  0  0  0  0  0  0  0
    1.1199   21.5126   38.5184 C   0  0  0  0  0  0  0  0  0  0  0  0
    3.3556   19.3274   36.6515 O   0  0  0  0  0  0  0  0  0  0  0  0
    1.3868   19.4294   39.7037 C   0  0  0  0  0  0  0  0  0  0  0  0
    2.5661   19.7891   37.5602 C   0  0  0  0  0  0  0  0  0  0  0  0
    1.9645   21.0512   37.4673 C   0  0  0  0  0  0  0  0  0  0  0  0
    0.8920   20.6771   39.6120 C   0  0  0  0  0  0  0  0  0  0  0  0
    1.9627   17.5170   40.4545 C   0  0  0  0  0  0  0  0  0  0  0  0
   -0.0492   21.0257   40.8379 C   0  0  0  0  0  0  0  0  0  0  0  0
    0.6565   22.5089   38.4683 H   0  0  0  0  0  0  0  0  0  0  0  0
    3.5719   19.8777   35.8574 H   0  0  0  0  0  0  0  0  0  0  0  0
    2.1436   21.6841   36.5856 H   0  0  0  0  0  0  0  0  0  0  0  0
    1.9932   16.6444   41.1235 H   0  0  0  0  0  0  0  0  0  0  0  0
    0.3582   20.5723   41.7536 H   0  0  0  0  0  0  0  0  0  0  0  0
   -0.1014   22.1175   40.9613 H   0  0  0  0  0  0  0  0  0  0  0  0
   -1.0580   20.6294   40.6500 H   0  0  0  0  0  0  0  0  0  0  0  0
  1  2  1  0
  1  6  1  0
  2 10  1  0
  4  9  1  0
  5  7  1  0
  6  3  1  0
  7  1  2  0
  8  7  1  0
  8  4  2  0
  9  6  2  0
  9 11  1  0
 10  3  2  0
  4 12  1  0
  5 13  1  0
  8 14  1  0
 10 15  1  0
 11 16  1  0
 11 17  1  0
 11 18  1  0
M  END
>  <mol_id>  (22) 
2026-09-18-3war-s0-n100-refligand-0022

>  <rmsd_to_ref>  (22) 


$$$$

     RDKit          3D

 18 19  0  0  0  0  0  0  0  0999 V2000
    2.5610   20.5650   37.4060 O   0  0  0  0  0  0  0  0  0  0  0  0
    2.9170   19.2740   37.5290 C   0  0  0  0  0  0  0  0  0  0  0  0
    3.5130   18.7030   36.5810 O   0  0  0  0  0  0  0  0  0  0  0  0
    2.9390   15.2260   38.4930 N   0  0  0  0  0  0  0  0  0  0  0  0
    2.5380   18.7800   38.7860 C   0  0  1  0  0  0  0  0  0  0  0  0
    2.2110   16.6520   40.0390 N   0  0  0  0  0  0  0  0  0  0  0  0
    2.9200   16.4800   38.0950 C   0  0  0  0  0  0  0  0  0  0  0  0
    2.0050   19.9050   39.4610 C   0  0  0  0  0  0  0  0  0  0  0  0
    2.4880   17.4230   38.9790 C   0  0  0  0  0  0  0  0  0  0  0  0
    1.9200   21.0330   38.4800 C   0  0  0  0  0  0  0  0  0  0  0  0
    1.5610   20.5620   40.6760 C   0  0  0  0  0  0  0  0  0  0  0  0
    1.0540   21.3550   41.5680 C   0  0  0  0  0  0  0  0  0  0  0  0
    2.6490   15.4390   39.5280 N   0  0  0  0  0  0  0  0  0  0  0  0
    2.9859   18.2864   39.6611 H   0  0  0  0  0  0  0  0  0  0  0  0
    3.2426   16.7584   37.0809 H   0  0  0  0  0  0  0  0  0  0  0  0
    1.4425   22.0150   38.6126 H   0  0  0  0  0  0  0  0  0  0  0  0
    0.6239   22.0277   42.3247 H   0  0  0  0  0  0  0  0  0  0  0  0
    2.7079   14.6544   40.1927 H   0  0  0  0  0  0  0  0  0  0  0  0
  1  2  1  0
  1 10  1  0
  2  5  1  0
  3  2  2  0
  4 13  1  0
  5  9  1  0
  5  8  1  0
  7  4  2  0
  7  9  1  0
  8 11  1  0
  9  6  2  0
 10  8  2  0
 11 12  3  0
 13  6  1  0
  5 14  1  1
  7 15  1  0
 10 16  1  0
 12 17  1  0
 13 18  1  0
M  END
>  <mol_id>  (23) 
2026-09-18-3war-s0-n100-refligand-0023

>  <rmsd_to_ref>  (23) 


$$$$

     RDKit          3D

 19 21  0  0  0  0  0  0  0  0999 V2000
    2.1187   19.0190   40.4770 C   0  0  0  0  0  0  0  0  0  0  0  0
    3.0981   19.4820   38.5010 N   0  0  0  0  0  0  0  0  0  0  0  0
    0.5773   20.5345   41.5539 C   0  0  0  0  0  0  0  0  0  0  0  0
    3.1804   17.7548   40.1680 S   0  0  0  0  0  0  0  0  0  0  0  0
    3.5416   20.4039   36.3963 O   0  0  0  0  0  0  0  0  0  0  0  0
    3.5505   18.0973   38.5699 C   0  0  1  0  0  0  0  0  0  0  0  0
    1.2493   19.2765   41.5295 C   0  0  0  0  0  0  0  0  0  0  0  0
    3.5189   19.5488   37.3013 C   0  0  0  0  0  0  0  0  0  0  0  0
    0.7653   21.4440   40.5203 C   0  0  0  0  0  0  0  0  0  0  0  0
    1.6496   21.1569   39.4471 C   0  0  0  0  0  0  0  0  0  0  0  0
    2.2744   19.9038   39.4841 C   0  0  0  0  0  0  0  0  0  0  0  0
    4.0646   18.1889   37.2441 C   0  0  0  0  0  0  0  0  0  0  0  0
   -0.0903   20.7848   42.3915 H   0  0  0  0  0  0  0  0  0  0  0  0
    4.5189   18.4335   38.9687 H   0  0  0  0  0  0  0  0  0  0  0  0
    1.0838   18.5315   42.3217 H   0  0  0  0  0  0  0  0  0  0  0  0
    0.2213   22.3999   40.5337 H   0  0  0  0  0  0  0  0  0  0  0  0
    1.8331   21.8758   38.6349 H   0  0  0  0  0  0  0  0  0  0  0  0
    5.1589   18.1213   37.1551 H   0  0  0  0  0  0  0  0  0  0  0  0
    3.8295   17.4691   36.4463 H   0  0  0  0  0  0  0  0  0  0  0  0
  1  7  2  0
  2 11  1  0
  4  1  1  0
  5  8  2  0
  6 12  1  0
  6  2  1  0
  6  4  1  0
  7  3  1  0
  8  2  1  0
  9  3  2  0
 10  9  1  0
 11 10  2  0
 11  1  1  0
 12  8  1  0
  3 13  1  0
  6 14  1  6
  7 15  1  0
  9 16  1  0
 10 17  1  0
 12 18  1  0
 12 19  1  0
M  END
>  <mol_id>  (24) 
2026-09-18-3war-s0-n100-refligand-0024

>  <rmsd_to_ref>  (24) 


$$$$

     RDKit          3D

 30 31  0  0  0  0  0  0  0  0999 V2000
    0.6574   18.7592   42.6365 C   0  0  0  0  0  0  0  0  0  0  0  0
    4.8499   16.8502   37.1659 N   0  0  0  0  0  0  0  0  0  0  0  0
    3.1527   18.1170   38.5564 C   0  0  0  0  0  0  0  0  0  0  0  0
    2.6354   20.2889   37.4676 C   0  0  0  0  0  0  0  0  0  0  0  0
    1.5201   18.8202   41.5817 C   0  0  0  0  0  0  0  0  0  0  0  0
   -0.1893   20.8464   42.1690 C   0  0  0  0  0  0  0  0  0  0  0  0
    2.4383   19.4445   38.4735 C   0  0  0  0  0  0  0  0  0  0  0  0
    3.9156   18.7721   36.5951 N   0  0  0  0  0  0  0  0  0  0  0  0
    3.4419   19.9256   36.5452 N   0  0  0  0  0  0  0  0  0  0  0  0
    0.6117   20.9735   41.0839 C   0  0  0  0  0  0  0  0  0  0  0  0
    1.3592   19.8537   40.6874 C   0  0  0  0  0  0  0  0  0  0  0  0
   -0.1982   19.7654   42.9640 C   0  0  0  0  0  0  0  0  0  0  0  0
    1.7772   19.9109   39.5267 O   0  0  0  0  0  0  0  0  0  0  0  0
    4.5430   15.9365   38.1459 C   0  0  0  0  0  0  0  0  0  0  0  0
    2.5629   17.7632   41.4635 C   0  0  0  0  0  0  0  0  0  0  0  0
    0.6346   22.0793   40.3102 O   0  0  0  0  0  0  0  0  0  0  0  0
    3.7725   17.7284   37.4399 C   0  0  0  0  0  0  0  0  0  0  0  0
    0.6533   17.8493   43.2547 H   0  0  0  0  0  0  0  0  0  0  0  0
    5.6070   16.8847   36.4685 H   0  0  0  0  0  0  0  0  0  0  0  0
    3.1617   17.5112   39.4745 H   0  0  0  0  0  0  0  0  0  0  0  0
    2.1248   21.2625   37.4298 H   0  0  0  0  0  0  0  0  0  0  0  0
   -0.8703   21.6753   42.4119 H   0  0  0  0  0  0  0  0  0  0  0  0
   -0.8640   19.6960   43.8369 H   0  0  0  0  0  0  0  0  0  0  0  0
    4.5897   16.4250   39.1304 H   0  0  0  0  0  0  0  0  0  0  0  0
    3.5285   15.5457   37.9782 H   0  0  0  0  0  0  0  0  0  0  0  0
    5.2652   15.1073   38.1134 H   0  0  0  0  0  0  0  0  0  0  0  0
    2.9305   17.4971   42.4655 H   0  0  0  0  0  0  0  0  0  0  0  0
    2.1301   16.8732   40.9834 H   0  0  0  0  0  0  0  0  0  0  0  0
    3.3983   18.1388   40.8542 H   0  0  0  0  0  0  0  0  0  0  0  0
    1.2386   22.1230   39.5271 H   0  0  0  0  0  0  0  0  0  0  0  0
  1 12  1  0
  2 17  1  0
  2 14  1  0
  3  7  1  0
  4  7  2  0
  5  1  2  0
  6 12  2  0
  7 13  1  0
  8  9  2  0
  8 17  1  0
  9  4  1  0
 10  6  1  0
 11 10  2  0
 11  5  1  0
 13 11  1  0
 15  5  1  0
 16 10  1  0
 17  3  2  0
  1 18  1  0
  2 19  1  0
  3 20  1  0
  4 21  1  0
  6 22  1  0
 12 23  1  0
 14 24  1  0
 14 25  1  0
 14 26  1  0
 15 27  1  0
 15 28  1  0
 15 29  1  0
 16 30  1  0
M  END
>  <mol_id>  (25) 
2026-09-18-3war-s0-n100-refligand-0025

>  <rmsd_to_ref>  (25) 


$$$$

     RDKit          3D

 30 32  0  0  0  0  0  0  0  0999 V2000
    1.9890   16.4810   40.8560 N   0  0  0  0  0  0  0  0  0  0  0  0
   -0.1140   18.8150   43.3280 C   0  0  0  0  0  0  0  0  0  0  0  0
    2.3350   17.1910   39.9320 C   0  0  0  0  0  0  0  0  0  0  0  0
    1.8080   20.6320   38.8640 C   0  0  0  0  0  0  0  0  0  0  0  0
    2.0970   18.5570   40.2760 C   0  0  1  0  0  0  0  0  0  0  0  0
    2.2690   19.3340   38.9420 C   0  0  0  0  0  0  0  0  0  0  0  0
   -0.1230   20.9640   42.1730 C   0  0  0  0  0  0  0  0  0  0  0  0
    2.0630   21.3280   37.6810 C   0  0  0  0  0  0  0  0  0  0  0  0
    1.1580   19.0960   41.2690 C   0  0  0  0  0  0  0  0  0  0  0  0
    3.4420   17.5280   37.8010 N   0  0  0  0  0  0  0  0  0  0  0  0
    2.9990   18.7230   37.8060 C   0  0  0  0  0  0  0  0  0  0  0  0
   -0.5380   20.1230   43.2410 C   0  0  0  0  0  0  0  0  0  0  0  0
    3.2090   19.5470   36.7070 N   0  0  0  0  0  0  0  0  0  0  0  0
    3.0900   16.7780   38.7980 C   0  0  0  0  0  0  0  0  0  0  0  0
    0.7410   20.4180   41.2230 C   0  0  0  0  0  0  0  0  0  0  0  0
    2.7460   20.7660   36.5890 C   0  0  0  0  0  0  0  0  0  0  0  0
    0.7120   18.2760   42.3130 C   0  0  0  0  0  0  0  0  0  0  0  0
    2.0879   15.4582   40.7846 H   0  0  0  0  0  0  0  0  0  0  0  0
   -0.4162   18.1922   44.1828 H   0  0  0  0  0  0  0  0  0  0  0  0
    1.2630   21.0984   39.6980 H   0  0  0  0  0  0  0  0  0  0  0  0
    2.8024   18.7307   41.1020 H   0  0  0  0  0  0  0  0  0  0  0  0
   -0.4696   22.0053   42.0982 H   0  0  0  0  0  0  0  0  0  0  0  0
    1.0806   21.6383   37.2955 H   0  0  0  0  0  0  0  0  0  0  0  0
    2.7855   22.0832   38.0242 H   0  0  0  0  0  0  0  0  0  0  0  0
   -1.2108   20.5243   44.0132 H   0  0  0  0  0  0  0  0  0  0  0  0
    2.5112   15.9567   38.3502 H   0  0  0  0  0  0  0  0  0  0  0  0
    4.0707   16.6255   39.2722 H   0  0  0  0  0  0  0  0  0  0  0  0
    1.1049   21.0600   40.4073 H   0  0  0  0  0  0  0  0  0  0  0  0
    2.8880   21.3357   35.6588 H   0  0  0  0  0  0  0  0  0  0  0  0
    1.0030   17.2156   42.3441 H   0  0  0  0  0  0  0  0  0  0  0  0
  3  5  1  0
  3  1  2  3
  4  6  2  0
  5  9  1  0
  6  5  1  0
  7 12  1  0
  8  4  1  0
  9 17  2  0
 10 11  2  0
 10 14  1  0
 11  6  1  0
 12  2  2  0
 13 11  1  0
 14  3  1  0
 15  9  1  0
 15  7  2  0
 16 13  2  0
 16  8  1  0
 17  2  1  0
  1 18  1  0
  2 19  1  0
  4 20  1  0
  5 21  1  1
  7 22  1  0
  8 23  1  0
  8 24  1  0
 12 25  1  0
 14 26  1  0
 14 27  1  0
 15 28  1  0
 16 29  1  0
 17 30  1  0
M  END
>  <mol_id>  (26) 
2026-09-18-3war-s0-n100-refligand-0026

>  <rmsd_to_ref>  (26) 


$$$$

     RDKit          3D

 35 36  0  0  0  0  0  0  0  0999 V2000
    2.3440   19.4500   38.7380 C   0  0  0  0  0  0  0  0  0  0  0  0
    3.3720   21.5000   35.2190 C   0  0  0  0  0  0  0  0  0  0  0  0
    1.5860   16.2730   40.1130 N   0  0  0  0  0  0  0  0  0  0  0  0
    1.6260   15.1010   42.0080 C   0  0  0  0  0  0  0  0  0  0  0  0
    1.2510   18.7460   40.9770 C   0  0  0  0  0  0  0  0  0  0  0  0
    3.5020   19.5600   36.6720 N   0  0  0  0  0  0  0  0  0  0  0  0
    1.3200   20.2160   41.5570 C   0  0  0  0  0  0  0  0  0  0  0  0
    2.0530   18.5560   39.7150 C   0  0  1  0  0  0  0  0  0  0  0  0
    2.1510   17.3560   39.4980 C   0  0  2  0  0  0  0  0  0  0  0  0
    2.2130   21.3190   37.7170 S   0  0  0  0  0  0  0  0  0  0  0  0
    2.3180   15.2960   40.7770 C   0  0  0  0  0  0  0  0  0  0  0  0
    0.8050   21.4200   40.8600 C   0  0  0  0  0  0  0  0  0  0  0  0
    3.1440   17.3800   38.1490 S   0  0  0  0  0  0  0  0  0  0  0  0
    3.0690   20.9140   36.4210 C   0  0  0  0  0  0  0  0  0  0  0  0
    0.5200   14.2130   41.6110 O   0  0  0  0  0  0  0  0  0  0  0  0
    3.0600   18.9300   37.7480 C   0  0  0  0  0  0  0  0  0  0  0  0
    3.8706   22.4643   35.3965 H   0  0  0  0  0  0  0  0  0  0  0  0
    4.0420   20.8404   34.6481 H   0  0  0  0  0  0  0  0  0  0  0  0
    2.4464   21.6654   34.6481 H   0  0  0  0  0  0  0  0  0  0  0  0
    1.0571   15.7784   39.3805 H   0  0  0  0  0  0  0  0  0  0  0  0
    1.0955   16.7233   40.8988 H   0  0  0  0  0  0  0  0  0  0  0  0
    2.2731   14.6206   42.7567 H   0  0  0  0  0  0  0  0  0  0  0  0
    1.2911   16.0377   42.4774 H   0  0  0  0  0  0  0  0  0  0  0  0
    1.6345   18.0529   41.7402 H   0  0  0  0  0  0  0  0  0  0  0  0
    0.1990   18.5489   40.7229 H   0  0  0  0  0  0  0  0  0  0  0  0
    0.7862   20.1799   42.5181 H   0  0  0  0  0  0  0  0  0  0  0  0
    2.4032   20.4021   41.5110 H   0  0  0  0  0  0  0  0  0  0  0  0
    2.8860   19.2421   39.9279 H   0  0  0  0  0  0  0  0  0  0  0  0
    3.0064   17.3012   40.1874 H   0  0  0  0  0  0  0  0  0  0  0  0
    2.3410   14.3642   40.1929 H   0  0  0  0  0  0  0  0  0  0  0  0
    3.3660   15.5929   40.9306 H   0  0  0  0  0  0  0  0  0  0  0  0
    0.4861   22.1656   41.6032 H   0  0  0  0  0  0  0  0  0  0  0  0
    1.5993   21.8468   40.2300 H   0  0  0  0  0  0  0  0  0  0  0  0
   -0.0523   21.1404   40.2300 H   0  0  0  0  0  0  0  0  0  0  0  0
    0.0760   13.8565   42.4209 H   0  0  0  0  0  0  0  0  0  0  0  0
  1  8  1  0
  2 14  1  0
  3 11  1  0
  5  7  1  0
  6 16  1  0
  8  5  1  0
  9  8  1  0
  9  3  1  0
 10  1  1  0
 11  4  1  0
 12  7  1  0
 13  9  1  0
 14  6  2  0
 14 10  1  0
 15  4  1  0
 16 13  1  0
 16  1  2  0
  2 17  1  0
  2 18  1  0
  2 19  1  0
  3 20  1  0
  3 21  1  0
  4 22  1  0
  4 23  1  0
  5 24  1  0
  5 25  1  0
  7 26  1  0
  7 27  1  0
  8 28  1  1
  9 29  1  1
 11 30  1  0
 11 31  1  0
 12 32  1  0
 12 33  1  0
 12 34  1  0
 15 35  1  0
M  CHG  1   3   1
M  END
>  <mol_id>  (27) 
2026-09-18-3war-s0-n100-refligand-0027

>  <rmsd_to_ref>  (27) 


$$$$

     RDKit          3D

 55 59  0  0  0  0  0  0  0  0999 V2000
   -1.2277   20.4026   44.4239 N   0  0  0  0  0  0  0  0  0  0  0  0
    3.5915   20.2562   34.8915 S   0  0  0  0  0  0  0  0  0  0  0  0
   -0.0055   19.8994   42.6412 C   0  0  0  0  0  0  0  0  0  0  0  0
    1.5075   21.3783   39.8048 C   0  0  0  0  0  0  0  0  0  0  0  0
    3.0815   17.7152   37.8490 O   0  0  0  0  0  0  0  0  0  0  0  0
    3.0770   21.6779   35.6405 C   0  0  0  0  0  0  0  0  0  0  0  0
    2.3268   20.4159   39.4677 C   0  0  0  0  0  0  0  0  0  0  0  0
    0.8003   21.2182   40.8847 C   0  0  0  0  0  0  0  0  0  0  0  0
    1.8888   19.0613   41.1990 C   0  0  0  0  0  0  0  0  0  0  0  0
   -1.1923   17.6233   46.8390 C   0  0  0  0  0  0  0  0  0  0  0  0
   -0.1270   18.8124   43.4753 C   0  0  1  0  0  0  0  0  0  0  0  0
   -0.8550   19.1956   44.6978 C   0  0  0  0  0  0  0  0  0  0  0  0
    2.5797   20.7486   37.8055 C   0  0  2  0  0  0  0  0  0  0  0  0
    0.0509   17.3743   43.4368 C   0  0  0  0  0  0  0  0  0  0  0  0
    3.4590   18.3382   36.7204 N   0  0  0  0  0  0  0  0  0  0  0  0
    3.3051   20.6440   36.6062 C   0  0  2  0  0  0  0  0  0  0  0  0
    2.5969   19.3508   40.1546 C   0  0  0  0  0  0  0  0  0  0  0  0
    4.0518   20.3692   37.7271 O   0  0  0  0  0  0  0  0  0  0  0  0
    4.2079   16.1635   37.0392 C   0  0  0  0  0  0  0  0  0  0  0  0
    4.2430   17.3455   36.2566 C   0  0  0  0  0  0  0  0  0  0  0  0
   -0.9138   17.5373   48.2580 C   0  0  0  0  0  0  0  0  0  0  0  0
    2.0978   21.1641   36.5696 C   0  0  1  0  0  0  0  0  0  0  0  0
    3.5729   19.5999   35.9451 C   0  0  0  0  0  0  0  0  0  0  0  0
    1.6215   22.0290   35.8136 S   0  0  0  0  0  0  0  0  0  0  0  0
   -0.4963   18.7039   46.0901 N   0  0  0  0  0  0  0  0  0  0  0  0
    3.3882   16.3881   37.9923 C   0  0  0  0  0  0  0  0  0  0  0  0
    4.5271   22.0856   35.5297 F   0  0  0  0  0  0  0  0  0  0  0  0
    0.9436   20.0164   41.5288 C   0  0  0  0  0  0  0  0  0  0  0  0
   -1.1054   22.1611   42.8145 N   0  0  0  0  0  0  0  0  0  0  0  0
   -0.7719   20.8758   43.0456 C   0  0  0  0  0  0  0  0  0  0  0  0
    1.8870   21.9954   37.5661 C   0  0  0  0  0  0  0  0  0  0  0  0
    0.3932   17.0297   42.9627 N   0  0  0  0  0  0  0  0  0  0  0  0
    1.4197   22.2907   39.1967 H   0  0  0  0  0  0  0  0  0  0  0  0
    3.1725   20.9725   36.4792 H   0  0  0  0  0  0  0  0  0  0  0  0
    2.9680   21.8636   34.5618 H   0  0  0  0  0  0  0  0  0  0  0  0
    2.8398   20.5217   38.5004 H   0  0  0  0  0  0  0  0  0  0  0  0
    0.1258   22.0021   41.2597 H   0  0  0  0  0  0  0  0  0  0  0  0
    2.0270   18.1347   41.7754 H   0  0  0  0  0  0  0  0  0  0  0  0
   -1.8824   16.9261   46.3412 H   0  0  0  0  0  0  0  0  0  0  0  0
    0.7635   18.6292   42.8562 H   0  0  0  0  0  0  0  0  0  0  0  0
   -0.4092   16.7902   44.2475 H   0  0  0  0  0  0  0  0  0  0  0  0
    3.4258   18.6944   39.8511 H   0  0  0  0  0  0  0  0  0  0  0  0
    4.7741   15.2375   36.8609 H   0  0  0  0  0  0  0  0  0  0  0  0
    3.9147   17.0943   35.2373 H   0  0  0  0  0  0  0  0  0  0  0  0
    5.2777   17.7173   36.2916 H   0  0  0  0  0  0  0  0  0  0  0  0
   -1.8140   17.8149   48.8258 H   0  0  0  0  0  0  0  0  0  0  0  0
   -0.6227   16.5076   48.5128 H   0  0  0  0  0  0  0  0  0  0  0  0
   -0.0932   18.2240   48.5129 H   0  0  0  0  0  0  0  0  0  0  0  0
    3.0161   15.6822   38.7496 H   0  0  0  0  0  0  0  0  0  0  0  0
   -1.2207   22.6526   43.7123 H   0  0  0  0  0  0  0  0  0  0  0  0
   -0.3607   22.6159   42.2673 H   0  0  0  0  0  0  0  0  0  0  0  0
   -1.9895   22.1969   42.2874 H   0  0  0  0  0  0  0  0  0  0  0  0
    0.8679   22.1409   37.9538 H   0  0  0  0  0  0  0  0  0  0  0  0
    2.1106   23.0560   37.7529 H   0  0  0  0  0  0  0  0  0  0  0  0
    0.4640   16.0038   43.0223 H   0  0  0  0  0  0  0  0  0  0  0  0
  1 12  2  0
  2 23  2  0
  3 30  2  0
  3 11  1  0
  4  8  1  0
  5 26  1  0
  6 24  1  0
  7  4  2  0
  7 17  1  0
  8 28  2  0
  9 28  1  0
 10 21  1  0
 11 14  1  0
 11 12  1  0
 12 25  1  0
 13 31  1  0
 15  5  1  0
 16 23  1  6
 16 18  1  0
 16 13  1  0
 17  9  2  0
 13 18  1  1
 19 26  2  0
 20 15  1  0
 20 19  1  0
 22 24  1  6
 22 16  1  0
 22 31  1  0
 22 13  1  0
 23 15  1  0
 25 10  2  3
 27  6  1  0
 28  3  1  0
 29 30  1  0
 30  1  1  0
 32 14  2  3
  4 33  1  0
  6 34  1  0
  6 35  1  0
  7 36  1  0
  8 37  1  0
  9 38  1  0
 10 39  1  0
 11 40  1  1
 14 41  1  0
 17 42  1  0
 19 43  1  0
 20 44  1  0
 20 45  1  0
 21 46  1  0
 21 47  1  0
 21 48  1  0
 26 49  1  0
 29 50  1  0
 29 51  1  0
 29 52  1  0
 31 53  1  0
 31 54  1  0
 32 55  1  0
M  CHG  1  29   1
M  END
>  <mol_id>  (28) 
2026-09-18-3war-s0-n100-refligand-0028

>  <rmsd_to_ref>  (28) 


$$$$

     RDKit          3D

 38 42  0  0  0  0  0  0  0  0999 V2000
    2.0049   17.9461   42.1603 S   0  0  0  0  0  0  0  0  0  0  0  0
    2.7013   21.1007   36.4127 C   0  0  0  0  0  0  0  0  0  0  0  0
    4.9703   15.2676   37.5734 N   0  0  0  0  0  0  0  0  0  0  0  0
    1.9948   20.1948   40.3036 C   0  0  0  0  0  0  0  0  0  0  0  0
    2.7804   16.6433   40.1315 C   0  0  0  0  0  0  0  0  0  0  0  0
    3.1561   18.9438   38.3512 C   0  0  0  0  0  0  0  0  0  0  0  0
    4.5570   21.5313   35.1909 O   0  0  0  0  0  0  0  0  0  0  0  0
    1.0212   22.1567   40.7844 O   0  0  0  0  0  0  0  0  0  0  0  0
    5.0794   16.2611   36.6408 N   0  0  0  0  0  0  0  0  0  0  0  0
    3.5945   16.5918   38.9959 C   0  0  0  0  0  0  0  0  0  0  0  0
    3.7366   17.6601   38.1096 C   0  0  0  0  0  0  0  0  0  0  0  0
    1.6535   21.5818   36.7144 O   0  0  0  0  0  0  0  0  0  0  0  0
    1.3047   20.1240   41.5123 C   0  0  0  0  0  0  0  0  0  0  0  0
    4.1340   14.3461   39.4426 O   0  0  0  0  0  0  0  0  0  0  0  0
    4.2629   15.3578   38.6665 C   0  0  0  0  0  0  0  0  0  0  0  0
    0.0368   21.4707   42.9379 N   0  0  0  0  0  0  0  0  0  0  0  0
    4.4410   17.4356   36.9184 C   0  0  0  0  0  0  0  0  0  0  0  0
    2.5725   19.0461   39.7075 C   0  0  0  0  0  0  0  0  0  0  0  0
    3.3357   21.6096   35.1687 C   0  0  0  0  0  0  0  0  0  0  0  0
   -0.1409   20.4357   43.7916 C   0  0  0  0  0  0  0  0  0  0  0  0
    1.9887   15.4467   40.5923 C   0  0  0  0  0  0  0  0  0  0  0  0
    3.3076   19.9885   37.1701 C   0  0  0  0  0  0  0  0  0  0  0  0
    1.2625   19.1192   42.4392 C   0  0  0  0  0  0  0  0  0  0  0  0
    1.8396   21.5384   39.8051 C   0  0  0  0  0  0  0  0  0  0  0  0
    0.4731   19.1985   43.5915 C   0  0  0  0  0  0  0  0  0  0  0  0
    2.4403   17.8779   40.5954 C   0  0  0  0  0  0  0  0  0  0  0  0
    2.6664   22.1142   34.3819 O   0  0  0  0  0  0  0  0  0  0  0  0
    0.7503   21.2821   41.8084 C   0  0  0  0  0  0  0  0  0  0  0  0
    5.4803   14.3893   37.4020 H   0  0  0  0  0  0  0  0  0  0  0  0
    4.4813   18.2433   36.1728 H   0  0  0  0  0  0  0  0  0  0  0  0
   -0.7889   20.5738   44.6697 H   0  0  0  0  0  0  0  0  0  0  0  0
    2.0487   15.3670   41.6878 H   0  0  0  0  0  0  0  0  0  0  0  0
    0.9374   15.5642   40.2903 H   0  0  0  0  0  0  0  0  0  0  0  0
    2.4019   14.5356   40.1352 H   0  0  0  0  0  0  0  0  0  0  0  0
    3.5067   19.2940   36.3406 H   0  0  0  0  0  0  0  0  0  0  0  0
    3.7462   20.7123   37.8728 H   0  0  0  0  0  0  0  0  0  0  0  0
    2.2558   21.9781   38.8866 H   0  0  0  0  0  0  0  0  0  0  0  0
    0.3466   18.3535   44.2843 H   0  0  0  0  0  0  0  0  0  0  0  0
  1 23  1  0
  2 12  2  0
  2 22  1  0
  3 15  1  0
  4 13  1  0
  5 21  1  0
  5 26  1  0
  6 18  1  0
  8 28  1  0
  9 17  2  0
  9  3  1  0
 10  5  2  0
 11  6  2  0
 11 10  1  0
 13 28  2  0
 13 23  1  0
 15 10  1  0
 15 14  2  0
 16 20  2  0
 17 11  1  0
 18  4  1  0
 18 26  2  0
 19  7  1  0
 19  2  1  0
 22  6  1  0
 23 25  2  0
 24  4  2  0
 24  8  1  0
 25 20  1  0
 26  1  1  0
 27 19  2  0
 28 16  1  0
  3 29  1  0
 17 30  1  0
 20 31  1  0
 21 32  1  0
 21 33  1  0
 21 34  1  0
 22 35  1  0
 22 36  1  0
 24 37  1  0
 25 38  1  0
M  CHG  1   7  -1
M  END
>  <mol_id>  (29) 
2026-09-18-3war-s0-n100-refligand-0029

>  <rmsd_to_ref>  (29) 


$$$$

     RDKit          3D

 67 72  0  0  0  0  0  0  0  0999 V2000
    2.4679   19.9455   40.9249 O   0  0  0  0  0  0  0  0  0  0  0  0
    1.4227   21.6173   38.2499 C   0  0  2  0  0  0  0  0  0  0  0  0
   -0.4774   20.9364   43.8762 C   0  0  0  0  0  0  0  0  0  0  0  0
    3.1090   18.3220   38.3084 C   0  0  0  0  0  0  0  0  0  0  0  0
    2.1792   16.1205   39.2959 C   0  0  0  0  0  0  0  0  0  0  0  0
    3.4881   20.0521   35.4793 C   0  0  0  0  0  0  0  0  0  0  0  0
    1.5001   21.8987   37.3957 C   0  0  0  0  0  0  0  0  0  0  0  0
    2.7780   13.2152   39.2045 O   0  0  0  0  0  0  0  0  0  0  0  0
    4.0018   13.5701   37.3271 C   0  0  0  0  0  0  0  0  0  0  0  0
    2.0614   20.8282   39.0311 C   0  0  2  0  0  0  0  0  0  0  0  0
    1.9986   19.8756   37.1741 N   0  0  0  0  0  0  0  0  0  0  0  0
   -0.0968   16.6938   42.9579 N   0  0  0  0  0  0  0  0  0  0  0  0
   -0.2384   18.7158   43.6391 C   0  0  0  0  0  0  0  0  0  0  0  0
    3.0832   14.0984   38.1888 C   0  0  0  0  0  0  0  0  0  0  0  0
    2.1770   17.7138   39.2566 C   0  0  2  0  0  0  0  0  0  0  0  0
    0.1049   21.0846   42.5584 C   0  0  0  0  0  0  0  0  0  0  0  0
    0.5031   21.3200   39.2772 C   0  0  0  0  0  0  0  0  0  0  0  0
   -0.4193   17.3989   43.9932 C   0  0  0  0  0  0  0  0  0  0  0  0
    2.9873   11.8567   38.8465 C   0  0  0  0  0  0  0  0  0  0  0  0
    1.5193   15.5638   40.1275 O   0  0  0  0  0  0  0  0  0  0  0  0
    1.1112   18.7223   39.4239 C   0  0  0  0  0  0  0  0  0  0  0  0
    0.7188   17.5073   42.0255 C   0  0  0  0  0  0  0  0  0  0  0  0
   -0.6511   19.6789   44.4256 C   0  0  0  0  0  0  0  0  0  0  0  0
    2.0294   21.7425   34.9966 O   0  0  0  0  0  0  0  0  0  0  0  0
    1.3232   19.7194   40.3376 C   0  0  1  0  0  0  0  0  0  0  0  0
    2.2111   21.0303   36.1586 C   0  0  2  0  0  0  0  0  0  0  0  0
    0.4687   18.9878   42.3855 C   0  0  0  0  0  0  0  0  0  0  0  0
   -0.9219   17.1334   45.1740 C   0  0  0  0  0  0  0  0  0  0  0  0
    2.9445   15.4525   38.3956 N   0  0  0  0  0  0  0  0  0  0  0  0
   -1.1212   19.4465   45.6796 N   0  0  0  0  0  0  0  0  0  0  0  0
   -1.2367   18.1532   45.9620 C   0  0  0  0  0  0  0  0  0  0  0  0
   -0.5525   15.3398   42.5645 C   0  0  0  0  0  0  0  0  0  0  0  0
    0.5909   20.0112   41.7466 C   0  0  0  0  0  0  0  0  0  0  0  0
    2.6194   19.8532   38.3624 C   0  0  2  0  0  0  0  0  0  0  0  0
    2.3696   19.8136   41.9012 H   0  0  0  0  0  0  0  0  0  0  0  0
    1.5370   22.4878   37.5872 H   0  0  0  0  0  0  0  0  0  0  0  0
   -0.7829   21.8283   44.4430 H   0  0  0  0  0  0  0  0  0  0  0  0
    4.1526   18.2169   38.6397 H   0  0  0  0  0  0  0  0  0  0  0  0
    3.1018   17.8725   37.3045 H   0  0  0  0  0  0  0  0  0  0  0  0
    4.0559   19.5747   36.2917 H   0  0  0  0  0  0  0  0  0  0  0  0
    3.0516   19.2769   34.8324 H   0  0  0  0  0  0  0  0  0  0  0  0
    4.1614   20.6884   34.8861 H   0  0  0  0  0  0  0  0  0  0  0  0
    0.4723   22.0994   37.0593 H   0  0  0  0  0  0  0  0  0  0  0  0
    2.2383   22.7047   37.5201 H   0  0  0  0  0  0  0  0  0  0  0  0
    4.0718   12.4799   37.1982 H   0  0  0  0  0  0  0  0  0  0  0  0
    4.6716   14.2349   36.7618 H   0  0  0  0  0  0  0  0  0  0  0  0
    2.2734   19.0098   36.6884 H   0  0  0  0  0  0  0  0  0  0  0  0
    1.0135   20.0044   37.4462 H   0  0  0  0  0  0  0  0  0  0  0  0
    2.3500   17.5067   40.3230 H   0  0  0  0  0  0  0  0  0  0  0  0
    0.1793   22.1029   42.1491 H   0  0  0  0  0  0  0  0  0  0  0  0
    0.2441   22.0558   40.0528 H   0  0  0  0  0  0  0  0  0  0  0  0
   -0.5013   20.8900   39.4044 H   0  0  0  0  0  0  0  0  0  0  0  0
    3.1366   11.2567   39.7562 H   0  0  0  0  0  0  0  0  0  0  0  0
    2.1091   11.4820   38.3001 H   0  0  0  0  0  0  0  0  0  0  0  0
    3.8781   11.7794   38.2059 H   0  0  0  0  0  0  0  0  0  0  0  0
    0.9528   19.1999   38.4457 H   0  0  0  0  0  0  0  0  0  0  0  0
    0.2516   18.1596   39.8170 H   0  0  0  0  0  0  0  0  0  0  0  0
    0.4123   17.3135   40.9870 H   0  0  0  0  0  0  0  0  0  0  0  0
    1.7860   17.2555   42.1136 H   0  0  0  0  0  0  0  0  0  0  0  0
    1.8805   22.6967   35.2142 H   0  0  0  0  0  0  0  0  0  0  0  0
   -1.0782   16.0953   45.5022 H   0  0  0  0  0  0  0  0  0  0  0  0
    3.5069   16.0493   37.7724 H   0  0  0  0  0  0  0  0  0  0  0  0
   -1.6359   17.9011   46.9555 H   0  0  0  0  0  0  0  0  0  0  0  0
   -0.6584   14.7133   43.4625 H   0  0  0  0  0  0  0  0  0  0  0  0
   -1.5233   15.4140   42.0526 H   0  0  0  0  0  0  0  0  0  0  0  0
    0.1859   14.8870   41.8865 H   0  0  0  0  0  0  0  0  0  0  0  0
    3.4916   20.1354   38.9705 H   0  0  0  0  0  0  0  0  0  0  0  0
  2  7  1  0
  2 10  1  0
  2 17  1  0
  3 23  2  0
  4 15  1  0
  5 20  2  0
  9 14  2  3
 10 17  1  1
 10 25  1  0
 11 34  1  0
 12 18  1  0
 13 18  1  0
 13 23  1  0
 14 29  1  0
 14  8  1  0
 15 21  1  0
 15  5  1  0
 16  3  1  0
 18 28  2  0
 19  8  1  0
 21 25  1  0
 22 27  1  0
 22 12  1  0
 23 30  1  0
 26 24  1  6
 25  1  1  1
 25 33  1  0
 26  6  1  0
 26 11  1  0
 26  7  1  0
 27 13  2  0
 28 31  1  0
 29  5  1  0
 30 31  2  0
 32 12  1  0
 33 16  2  0
 33 27  1  0
 34  4  1  0
 34 10  1  0
  1 35  1  0
  2 36  1  1
  3 37  1  0
  4 38  1  0
  4 39  1  0
  6 40  1  0
  6 41  1  0
  6 42  1  0
  7 43  1  0
  7 44  1  0
  9 45  1  0
  9 46  1  0
 11 47  1  0
 11 48  1  0
 15 49  1  1
 16 50  1  0
 17 51  1  0
 17 52  1  0
 19 53  1  0
 19 54  1  0
 19 55  1  0
 21 56  1  0
 21 57  1  0
 22 58  1  0
 22 59  1  0
 24 60  1  0
 28 61  1  0
 29 62  1  0
 31 63  1  0
 32 64  1  0
 32 65  1  0
 32 66  1  0
 34 67  1  6
M  CHG  1  11   1
M  END
>  <mol_id>  (30) 
2026-09-18-3war-s0-n100-refligand-0030

>  <rmsd_to_ref>  (30) 


$$$$

     RDKit          3D

 22 23  0  0  0  0  0  0  0  0999 V2000
    1.6734   20.9095   37.7012 O   0  0  0  0  0  0  0  0  0  0  0  0
    2.2655   19.4297   39.1528 C   0  0  0  0  0  0  0  0  0  0  0  0
    1.6021   19.4218   40.2651 C   0  0  2  0  0  0  0  0  0  0  0  0
    2.3572   18.5715   36.7973 O   0  0  0  0  0  0  0  0  0  0  0  0
    0.7809   20.3623   40.7313 C   0  0  0  0  0  0  0  0  0  0  0  0
    2.8064   17.4997   40.2032 C   0  0  0  0  0  0  0  0  0  0  0  0
    0.2599   20.0421   42.0808 C   0  0  0  0  0  0  0  0  0  0  0  0
    1.4746   17.9145   42.2807 C   0  0  0  0  0  0  0  0  0  0  0  0
    3.1958   18.1813   39.1380 N   0  0  0  0  0  0  0  0  0  0  0  0
    2.6206   19.9230   37.4664 S   0  0  0  0  0  4  0  0  0  0  0  0
    0.5474   18.9110   42.7982 C   0  0  0  0  0  0  0  0  0  0  0  0
    3.8797   20.4457   37.2657 O   0  0  0  0  0  0  0  0  0  0  0  0
    1.9030   18.1848   41.0104 C   0  0  0  0  0  0  0  0  0  0  0  0
    1.6484   21.1195   38.6684 H   0  0  0  0  0  0  0  0  0  0  0  0
    0.7652   18.9152   39.7623 H   0  0  0  0  0  0  0  0  0  0  0  0
    2.1527   17.8945   37.4901 H   0  0  0  0  0  0  0  0  0  0  0  0
    0.5190   21.2749   40.1759 H   0  0  0  0  0  0  0  0  0  0  0  0
    3.1641   16.4845   40.4301 H   0  0  0  0  0  0  0  0  0  0  0  0
   -0.4152   20.7752   42.5464 H   0  0  0  0  0  0  0  0  0  0  0  0
    1.7979   17.0330   42.8539 H   0  0  0  0  0  0  0  0  0  0  0  0
    0.0717   18.7535   43.7775 H   0  0  0  0  0  0  0  0  0  0  0  0
    4.2322   20.7953   38.1222 H   0  0  0  0  0  0  0  0  0  0  0  0
  2  3  1  0
  3 13  1  0
  3  5  1  0
  4 10  1  0
  5  7  2  0
  6 13  2  0
  7 11  1  0
  8 11  2  0
  9  2  2  0
  9  6  1  0
 10  1  1  0
 10  2  1  0
 12 10  1  0
 13  8  1  0
  1 14  1  0
  3 15  1  6
  4 16  1  0
  5 17  1  0
  6 18  1  0
  7 19  1  0
  8 20  1  0
 11 21  1  0
 12 22  1  0
M  END
>  <mol_id>  (31) 
2026-09-18-3war-s0-n100-refligand-0031

>  <rmsd_to_ref>  (31) 


$$$$

     RDKit          3D

 27 29  0  0  0  0  0  0  0  0999 V2000
    0.2758   21.1826   42.0439 C   0  0  0  0  0  0  0  0  0  0  0  0
    3.3924   19.5980   37.2032 C   0  0  0  0  0  0  0  0  0  0  0  0
    2.0001   21.3575   38.4605 S   0  0  0  0  0  0  0  0  0  0  0  0
    3.5075   20.5063   36.3649 O   0  0  0  0  0  0  0  0  0  0  0  0
    0.7742   21.7592   40.9492 C   0  0  0  0  0  0  0  0  0  0  0  0
    3.9701   18.3394   37.1310 N   0  0  0  0  0  0  0  0  0  0  0  0
    3.8643   17.4116   38.2415 C   0  0  0  0  0  0  0  0  0  0  0  0
    2.6639   19.1318   39.4842 N   0  0  0  0  0  0  0  0  0  0  0  0
    1.1812   19.1143   41.4758 C   0  0  0  0  0  0  0  0  0  0  0  0
    2.7208   16.7647   40.3810 C   0  0  0  0  0  0  0  0  0  0  0  0
    3.4744   17.9068   39.6024 C   0  0  1  0  0  0  0  0  0  0  0  0
    0.4393   19.8672   42.3369 C   0  0  0  0  0  0  0  0  0  0  0  0
    2.7625   19.9467   38.4020 C   0  0  1  0  0  0  0  0  0  0  0  0
    1.4340   20.9634   40.1096 C   0  0  0  0  0  0  0  0  0  0  0  0
    1.7983   19.6741   40.3756 C   0  0  0  0  0  0  0  0  0  0  0  0
   -0.2975   21.8057   42.7461 H   0  0  0  0  0  0  0  0  0  0  0  0
    0.6470   22.8337   40.7507 H   0  0  0  0  0  0  0  0  0  0  0  0
    4.4794   18.0604   36.2804 H   0  0  0  0  0  0  0  0  0  0  0  0
    3.1182   16.6565   37.9533 H   0  0  0  0  0  0  0  0  0  0  0  0
    4.9009   17.0726   38.3850 H   0  0  0  0  0  0  0  0  0  0  0  0
    1.2904   18.0358   41.6623 H   0  0  0  0  0  0  0  0  0  0  0  0
    2.7939   16.9488   41.4630 H   0  0  0  0  0  0  0  0  0  0  0  0
    1.6624   16.7536   40.0816 H   0  0  0  0  0  0  0  0  0  0  0  0
    3.1796   15.7938   40.1423 H   0  0  0  0  0  0  0  0  0  0  0  0
    4.3735   18.1691   40.1792 H   0  0  0  0  0  0  0  0  0  0  0  0
   -0.0112   19.4242   43.2374 H   0  0  0  0  0  0  0  0  0  0  0  0
    3.6874   20.4323   38.7468 H   0  0  0  0  0  0  0  0  0  0  0  0
  1 12  2  0
  3 14  1  0
  4  2  2  0
  5  1  1  0
  6  2  1  0
  6  7  1  0
  7 11  1  0
  8 11  1  0
  8 15  1  0
  9 12  1  0
 11 10  1  0
 13  2  1  0
 13  3  1  0
 13  8  1  0
 14 15  1  0
 14  5  2  0
 15  9  2  0
  1 16  1  0
  5 17  1  0
  6 18  1  0
  7 19  1  0
  7 20  1  0
  9 21  1  0
 10 22  1  0
 10 23  1  0
 10 24  1  0
 11 25  1  1
 12 26  1  0
 13 27  1  1
M  END
>  <mol_id>  (32) 
2026-09-18-3war-s0-n100-refligand-0032

>  <rmsd_to_ref>  (32) 


$$$$

     RDKit          3D

 28 29  0  0  0  0  0  0  0  0999 V2000
    0.5510   18.6010   42.6090 C   0  0  0  0  0  0  0  0  0  0  0  0
    2.3640   19.0900   38.4280 C   0  0  1  0  0  0  0  0  0  0  0  0
    3.5790   18.3270   38.6190 C   0  0  0  0  0  0  0  0  0  0  0  0
    1.7770   18.0400   40.6210 C   0  0  0  0  0  0  0  0  0  0  0  0
    1.0790   16.3370   42.0390 O   0  0  0  0  0  0  0  0  0  0  0  0
    0.8580   20.8580   41.3640 C   0  0  0  0  0  0  0  0  0  0  0  0
    2.0210   21.2990   38.0950 O   0  0  0  0  0  0  0  0  0  0  0  0
    1.0480   17.6280   41.7490 C   0  0  0  0  0  0  0  0  0  0  0  0
    1.7890   19.1520   39.8560 C   0  0  0  0  0  0  0  0  0  0  0  0
    3.3300   16.9760   39.0750 C   0  0  0  0  0  0  0  0  0  0  0  0
    2.4570   20.2760   37.5940 C   0  0  0  0  0  0  0  0  0  0  0  0
    1.4080   20.3840   40.1800 C   0  0  0  0  0  0  0  0  0  0  0  0
    0.4440   19.9380   42.3410 C   0  0  0  0  0  0  0  0  0  0  0  0
    2.1680   16.8370   39.8520 C   0  0  0  0  0  0  0  0  0  0  0  0
    3.0900   20.2580   36.5310 O   0  0  0  0  0  0  0  0  0  0  0  0
    0.2115   18.2633   43.5993 H   0  0  0  0  0  0  0  0  0  0  0  0
    1.6260   18.6316   37.7533 H   0  0  0  0  0  0  0  0  0  0  0  0
    4.1184   18.2804   37.6614 H   0  0  0  0  0  0  0  0  0  0  0  0
    4.1686   18.8345   39.3967 H   0  0  0  0  0  0  0  0  0  0  0  0
    0.5823   15.9939   42.8236 H   0  0  0  0  0  0  0  0  0  0  0  0
    0.7482   21.9392   41.5342 H   0  0  0  0  0  0  0  0  0  0  0  0
    3.2353   16.3258   38.1928 H   0  0  0  0  0  0  0  0  0  0  0  0
    4.1771   16.6980   39.7194 H   0  0  0  0  0  0  0  0  0  0  0  0
    1.5494   21.1400   39.3936 H   0  0  0  0  0  0  0  0  0  0  0  0
    0.8603   20.3829   43.2568 H   0  0  0  0  0  0  0  0  0  0  0  0
   -0.5568   19.8287   41.8977 H   0  0  0  0  0  0  0  0  0  0  0  0
    1.3373   16.5784   39.1789 H   0  0  0  0  0  0  0  0  0  0  0  0
    2.3893   16.0575   40.5959 H   0  0  0  0  0  0  0  0  0  0  0  0
  2 11  1  0
  2  3  1  0
  2  9  1  0
  3 10  1  0
  4  8  1  0
  6 13  1  0
  8  5  1  0
  8  1  2  0
  9 12  1  0
  9  4  2  0
 10 14  1  0
 11  7  1  0
 12  6  2  0
 13  1  1  0
 14  4  1  0
 15 11  2  0
  1 16  1  0
  2 17  1  6
  3 18  1  0
  3 19  1  0
  5 20  1  0
  6 21  1  0
 10 22  1  0
 10 23  1  0
 12 24  1  0
 13 25  1  0
 13 26  1  0
 14 27  1  0
 14 28  1  0
M  CHG  1   7  -1
M  END
>  <mol_id>  (33) 
2026-09-18-3war-s0-n100-refligand-0033

>  <rmsd_to_ref>  (33) 


$$$$

     RDKit          3D

 26 28  0  0  0  0  0  0  0  0999 V2000
    1.9993   19.6185   39.3434 C   0  0  0  0  0  0  0  0  0  0  0  0
    3.0123   18.7939   37.3770 C   0  0  0  0  0  0  0  0  0  0  0  0
    3.4849   17.7318   36.6141 C   0  0  0  0  0  0  0  0  0  0  0  0
    2.6812   16.3290   38.4261 C   0  0  0  0  0  0  0  0  0  0  0  0
    1.0708   21.0896   40.8104 C   0  0  0  0  0  0  0  0  0  0  0  0
    1.7767   17.6378   40.2281 C   0  0  0  0  0  0  0  0  0  0  0  0
    3.1602   19.9647   36.8153 O   0  0  0  0  0  0  0  0  0  0  0  0
    0.9566   19.6095   41.3722 C   0  0  0  0  0  0  0  0  0  0  0  0
    1.5415   18.9302   40.3501 C   0  0  0  0  0  0  0  0  0  0  0  0
    2.4741   15.1411   39.0241 N   0  0  0  0  0  0  0  0  0  0  0  0
    1.7592   21.0264   39.4697 C   0  0  0  0  0  0  0  0  0  0  0  0
    2.5096   18.7146   38.5669 C   0  0  0  0  0  0  0  0  0  0  0  0
    1.4496   16.5955   41.1082 C   0  0  0  0  0  0  0  0  0  0  0  0
    3.3476   16.3850   37.1683 C   0  0  0  0  0  0  0  0  0  0  0  0
    2.3672   17.4695   39.0608 C   0  0  0  0  0  0  0  0  0  0  0  0
    3.9456   17.8983   35.6292 H   0  0  0  0  0  0  0  0  0  0  0  0
    0.7114   22.0009   41.3107 H   0  0  0  0  0  0  0  0  0  0  0  0
    3.5442   20.0322   35.9052 H   0  0  0  0  0  0  0  0  0  0  0  0
    0.5281   19.2403   42.3156 H   0  0  0  0  0  0  0  0  0  0  0  0
    2.7164   14.2684   38.5335 H   0  0  0  0  0  0  0  0  0  0  0  0
    2.0733   15.1048   39.9722 H   0  0  0  0  0  0  0  0  0  0  0  0
    2.0098   21.8418   38.7752 H   0  0  0  0  0  0  0  0  0  0  0  0
    1.6102   16.9268   42.1447 H   0  0  0  0  0  0  0  0  0  0  0  0
    0.3940   16.3177   40.9714 H   0  0  0  0  0  0  0  0  0  0  0  0
    2.0881   15.7246   40.8985 H   0  0  0  0  0  0  0  0  0  0  0  0
    3.7276   15.4889   36.6558 H   0  0  0  0  0  0  0  0  0  0  0  0
  1 11  1  0
  1  9  1  0
  2 12  1  0
  3 14  1  0
  3  2  2  0
  4 15  1  0
  4 10  1  0
  5  8  1  0
  6  9  1  0
  6 13  1  0
  7  2  1  0
  9  8  2  0
 11  5  2  0
 12 15  1  0
 12  1  2  0
 14  4  2  0
 15  6  2  0
  3 16  1  0
  5 17  1  0
  7 18  1  0
  8 19  1  0
 10 20  1  0
 10 21  1  0
 11 22  1  0
 13 23  1  0
 13 24  1  0
 13 25  1  0
 14 26  1  0
M  END
>  <mol_id>  (34) 
2026-09-18-3war-s0-n100-refligand-0034

>  <rmsd_to_ref>  (34) 


$$$$

     RDKit          3D

 47 50  0  0  0  0  0  0  0  0999 V2000
    2.8048   15.3379   39.3648 C   0  0  0  0  0  0  0  0  0  0  0  0
    3.9429   18.4588   38.4921 C   0  0  0  0  0  0  0  0  0  0  0  0
    2.9138   14.0118   39.9741 C   0  0  0  0  0  0  0  0  0  0  0  0
    1.5801   17.2554   41.0255 C   0  0  0  0  0  0  0  0  0  0  0  0
    3.7489   19.2734   37.3154 C   0  0  0  0  0  0  0  0  0  0  0  0
    0.1384   21.0074   42.1113 C   0  0  0  0  0  0  0  0  0  0  0  0
    3.5680   12.9041   39.2072 C   0  0  0  0  0  0  0  0  0  0  0  0
    2.1607   20.9071   38.0790 C   0  0  0  0  0  0  0  0  0  0  0  0
    2.0089   12.5547   41.8177 O   0  0  0  0  0  0  0  0  0  0  0  0
    3.0061   20.4324   37.1547 C   0  0  0  0  0  0  0  0  0  0  0  0
   -0.5043   18.7552   42.3724 C   0  0  0  0  0  0  0  0  0  0  0  0
    2.6447   11.3440   41.2478 C   0  0  0  0  0  0  0  0  0  0  0  0
    2.3871   19.6010   40.0016 C   0  0  0  0  0  0  0  0  0  0  0  0
    2.2467   21.9542   35.6303 O   0  0  0  0  0  0  0  0  0  0  0  0
    3.4627   20.2376   35.0542 O   0  0  0  0  0  0  0  0  0  0  0  0
    3.8387   18.9004   39.9270 C   0  0  0  0  0  0  0  0  0  0  0  0
    1.2614   16.2772   42.0620 C   0  0  0  0  0  0  0  0  0  0  0  0
    2.1546   13.7755   41.2469 C   0  0  0  0  0  0  0  0  0  0  0  0
    2.8433   20.9055   35.8378 C   0  0  0  0  0  0  0  0  0  0  0  0
    1.2034   21.9018   40.1159 C   0  0  0  0  0  0  0  0  0  0  0  0
   -0.4199   21.4315   43.2590 O   0  0  0  0  0  0  0  0  0  0  0  0
    0.4807   22.0628   41.2242 C   0  0  0  0  0  0  0  0  0  0  0  0
    1.6047   14.9255   42.0554 C   0  0  0  0  0  0  0  0  0  0  0  0
    0.3385   19.5195   41.9139 C   0  0  0  0  0  0  0  0  0  0  0  0
    1.5090   18.7477   41.1911 C   0  0  0  0  0  0  0  0  0  0  0  0
    2.1237   16.3679   39.7311 C   0  0  0  0  0  0  0  0  0  0  0  0
    3.4820   11.4732   39.9086 C   0  0  0  0  0  0  0  0  0  0  0  0
    1.9015   20.7212   39.4701 C   0  0  0  0  0  0  0  0  0  0  0  0
    3.3983   15.4770   38.4492 H   0  0  0  0  0  0  0  0  0  0  0  0
    4.9616   18.0560   38.3930 H   0  0  0  0  0  0  0  0  0  0  0  0
    3.0346   17.8413   38.4311 H   0  0  0  0  0  0  0  0  0  0  0  0
    4.2682   18.9214   36.4118 H   0  0  0  0  0  0  0  0  0  0  0  0
    4.0669   13.0638   38.2399 H   0  0  0  0  0  0  0  0  0  0  0  0
    1.1818   20.6797   37.6318 H   0  0  0  0  0  0  0  0  0  0  0  0
    2.7454   21.8246   38.2409 H   0  0  0  0  0  0  0  0  0  0  0  0
   -0.3883   17.6686   42.2461 H   0  0  0  0  0  0  0  0  0  0  0  0
   -1.3762   19.1564   42.9100 H   0  0  0  0  0  0  0  0  0  0  0  0
    2.5372   10.3696   41.7469 H   0  0  0  0  0  0  0  0  0  0  0  0
    3.8948   18.0388   40.6085 H   0  0  0  0  0  0  0  0  0  0  0  0
    4.6550   19.5734   40.2283 H   0  0  0  0  0  0  0  0  0  0  0  0
    0.6958   16.6419   42.9322 H   0  0  0  0  0  0  0  0  0  0  0  0
    1.3190   22.8330   39.5419 H   0  0  0  0  0  0  0  0  0  0  0  0
   -0.6959   20.7754   43.9471 H   0  0  0  0  0  0  0  0  0  0  0  0
    0.1274   23.0758   41.4670 H   0  0  0  0  0  0  0  0  0  0  0  0
    1.3814   14.5335   43.0587 H   0  0  0  0  0  0  0  0  0  0  0  0
    1.7521   16.8571   38.8187 H   0  0  0  0  0  0  0  0  0  0  0  0
    3.9904   10.5998   39.4740 H   0  0  0  0  0  0  0  0  0  0  0  0
  1 26  2  0
  1  3  1  0
  2 16  1  0
  3 18  1  0
  4 25  1  0
  4 17  2  0
  5  2  1  0
  6 21  1  0
  7 27  1  0
  7  3  2  0
  8 28  1  0
 10  5  2  0
 10  8  1  0
 12  9  1  0
 13 25  2  0
 14 19  1  0
 15 19  2  0
 16 13  1  0
 18  9  1  0
 18 23  2  0
 19 10  1  0
 20 22  1  0
 22  6  2  0
 23 17  1  0
 24  6  1  0
 24 11  2  3
 25 24  1  0
 26  4  1  0
 27 12  2  0
 28 13  1  0
 28 20  2  0
  1 29  1  0
  2 30  1  0
  2 31  1  0
  5 32  1  0
  7 33  1  0
  8 34  1  0
  8 35  1  0
 11 36  1  0
 11 37  1  0
 12 38  1  0
 16 39  1  0
 16 40  1  0
 17 41  1  0
 20 42  1  0
 21 43  1  0
 22 44  1  0
 23 45  1  0
 26 46  1  0
 27 47  1  0
M  CHG  1  14  -1
M  END
>  <mol_id>  (35) 
2026-09-18-3war-s0-n100-refligand-0035

>  <rmsd_to_ref>  (35) 


$$$$

     RDKit          3D

 41 43  0  0  0  0  0  0  0  0999 V2000
    3.7935   18.3340   37.2417 C   0  0  0  0  0  0  0  0  0  0  0  0
    3.6846   14.8275   38.5103 O   0  0  0  0  0  0  0  0  0  0  0  0
    0.0802   21.0547   41.7087 C   0  0  0  0  0  0  0  0  0  0  0  0
    3.5979   17.2284   37.9576 C   0  0  0  0  0  0  0  0  0  0  0  0
    0.3015   19.7293   41.8577 C   0  0  0  0  0  0  0  0  0  0  0  0
    3.8074   20.5663   35.9369 O   0  0  0  0  0  0  0  0  0  0  0  0
    0.1778   17.2040   42.4204 C   0  0  0  0  0  0  0  0  0  0  0  0
    1.3349   16.0286   40.9427 C   0  0  0  0  0  0  0  0  0  0  0  0
    0.0617   15.7743   42.7697 C   0  0  0  0  0  0  0  0  0  0  0  0
    1.7968   19.6418   39.9240 C   0  0  1  0  0  0  0  0  0  0  0  0
    3.9989   15.7903   37.6436 C   0  0  0  0  0  0  0  0  0  0  0  0
   -0.6932   21.7356   42.4067 O   0  0  0  0  0  0  0  0  0  0  0  0
    0.7305   15.1546   41.8155 C   0  0  0  0  0  0  0  0  0  0  0  0
    1.6281   21.0278   39.8339 C   0  0  0  0  0  0  0  0  0  0  0  0
    2.5693   18.9667   38.8967 C   0  0  0  0  0  0  0  0  0  0  0  0
    0.8203   21.7570   40.6749 C   0  0  0  0  0  0  0  0  0  0  0  0
    1.0693   17.4278   41.1982 C   0  0  0  0  0  0  0  0  0  0  0  0
    2.1072   21.5491   36.8039 N   0  0  0  0  0  0  0  0  0  0  0  0
    3.0971   19.3734   37.7641 C   0  0  0  0  0  0  0  0  0  0  0  0
    1.1622   18.9621   41.0179 C   0  0  0  0  0  0  0  0  0  0  0  0
    1.9150   15.2736   39.8781 N   0  0  0  0  0  0  0  0  0  0  0  0
    4.7860   15.6071   36.6858 O   0  0  0  0  0  0  0  0  0  0  0  0
    2.9976   20.6192   36.7842 C   0  0  0  0  0  0  0  0  0  0  0  0
    1.9400   22.5029   35.6173 C   0  0  0  0  0  0  0  0  0  0  0  0
    2.7286   17.5328   39.0092 O   0  0  0  0  0  0  0  0  0  0  0  0
    4.4327   18.3955   36.3486 H   0  0  0  0  0  0  0  0  0  0  0  0
   -0.2148   19.2097   42.6783 H   0  0  0  0  0  0  0  0  0  0  0  0
   -0.3192   18.0139   42.9746 H   0  0  0  0  0  0  0  0  0  0  0  0
    0.5108   15.5750   43.7539 H   0  0  0  0  0  0  0  0  0  0  0  0
   -0.9840   15.4399   42.8379 H   0  0  0  0  0  0  0  0  0  0  0  0
    0.8859   19.5194   39.3195 H   0  0  0  0  0  0  0  0  0  0  0  0
    0.7971   14.0601   41.7281 H   0  0  0  0  0  0  0  0  0  0  0  0
    2.1733   21.5657   39.0443 H   0  0  0  0  0  0  0  0  0  0  0  0
    0.7365   22.8485   40.5670 H   0  0  0  0  0  0  0  0  0  0  0  0
    1.4992   21.6529   37.6288 H   0  0  0  0  0  0  0  0  0  0  0  0
    2.4370   14.4758   40.2678 H   0  0  0  0  0  0  0  0  0  0  0  0
    1.1697   14.9262   39.2578 H   0  0  0  0  0  0  0  0  0  0  0  0
    2.5565   15.8743   39.3410 H   0  0  0  0  0  0  0  0  0  0  0  0
    1.6857   23.5072   35.9871 H   0  0  0  0  0  0  0  0  0  0  0  0
    2.8804   22.5488   35.0485 H   0  0  0  0  0  0  0  0  0  0  0  0
    1.1338   22.1377   34.9641 H   0  0  0  0  0  0  0  0  0  0  0  0
  1 19  1  0
  1  4  2  0
  3  5  1  0
  3 12  2  0
  4 25  1  0
  6 23  2  0
  7  9  1  0
  8 17  1  0
  8 13  2  0
 10 15  1  0
 10 20  1  0
 11  4  1  0
 11  2  1  0
 13  9  1  0
 14 10  1  0
 14 16  2  0
 15 25  1  0
 16  3  1  0
 17  7  2  0
 19 15  2  0
 20 17  1  0
 20  5  2  0
 21  8  1  0
 22 11  2  0
 23 18  1  0
 23 19  1  0
 24 18  1  0
  1 26  1  0
  5 27  1  0
  7 28  1  0
  9 29  1  0
  9 30  1  0
 10 31  1  6
 13 32  1  0
 14 33  1  0
 16 34  1  0
 18 35  1  0
 21 36  1  0
 21 37  1  0
 21 38  1  0
 24 39  1  0
 24 40  1  0
 24 41  1  0
M  CHG  2   2  -1  21   1
M  END
>  <mol_id>  (36) 
2026-09-18-3war-s0-n100-refligand-0036

>  <rmsd_to_ref>  (36) 


$$$$

     RDKit          3D

 20 22  0  0  0  0  0  0  0  0999 V2000
    2.9500   18.1810   40.4710 C   0  0  0  0  0  0  0  0  0  0  0  0
    2.5580   17.0510   39.6430 N   0  0  0  0  0  0  0  0  0  0  0  0
    0.6700   20.8520   41.4530 C   0  0  0  0  0  0  0  0  0  0  0  0
    2.9380   19.1000   37.1210 C   0  0  1  0  0  0  0  0  0  0  0  0
    2.4650   20.8770   37.1780 N   0  0  0  0  0  0  0  0  0  0  0  0
    1.9400   20.1000   39.4600 C   0  0  0  0  0  0  0  0  0  0  0  0
    3.5010   20.2140   36.4790 O   0  0  0  0  0  0  0  0  0  0  0  0
    1.1730   19.6170   41.6170 C   0  0  0  0  0  0  0  0  0  0  0  0
    1.1480   21.4640   39.9600 S   0  0  0  0  0  0  0  0  0  0  0  0
    2.4450   19.8660   38.1810 C   0  0  1  0  0  0  0  0  0  0  0  0
    1.8600   19.1850   40.5320 C   0  0  0  0  0  0  0  0  0  0  0  0
    3.8489   18.6486   40.0428 H   0  0  0  0  0  0  0  0  0  0  0  0
    3.1578   17.8201   41.4891 H   0  0  0  0  0  0  0  0  0  0  0  0
    2.2843   16.2621   40.2460 H   0  0  0  0  0  0  0  0  0  0  0  0
    1.7615   17.3210   39.0484 H   0  0  0  0  0  0  0  0  0  0  0  0
    3.3506   16.7698   39.0484 H   0  0  0  0  0  0  0  0  0  0  0  0
    0.0414   21.3824   42.1835 H   0  0  0  0  0  0  0  0  0  0  0  0
    3.0361   18.0155   36.9650 H   0  0  0  0  0  0  0  0  0  0  0  0
    1.0414   19.0215   42.5324 H   0  0  0  0  0  0  0  0  0  0  0  0
    3.4734   20.1305   38.4681 H   0  0  0  0  0  0  0  0  0  0  0  0
  1 11  1  0
  2  1  1  0
  3  8  2  0
  4  7  1  0
  4  5  1  0
  4 10  1  0
  5  7  1  0
  5 10  1  0
  6  9  1  0
  6 11  2  0
  9  3  1  0
 10  6  1  0
 11  8  1  0
  1 12  1  0
  1 13  1  0
  2 14  1  0
  2 15  1  0
  2 16  1  0
  3 17  1  0
  4 18  1  6
  8 19  1  0
 10 20  1  1
M  CHG  1   2   1
M  END
>  <mol_id>  (37) 
2026-09-18-3war-s0-n100-refligand-0037

>  <rmsd_to_ref>  (37) 


$$$$

     RDKit          3D

 32 35  0  0  0  0  0  0  0  0999 V2000
    0.9459   21.9742   40.4045 O   0  0  0  0  0  0  0  0  0  0  0  0
    0.3038   18.7140   41.7512 C   0  0  0  0  0  0  0  0  0  0  0  0
   -0.1828   21.3202   42.3532 C   0  0  0  0  0  0  0  0  0  0  0  0
    2.3779   18.3461   39.2669 C   0  0  0  0  0  0  0  0  0  0  0  0
    2.3256   14.6413   40.5922 C   0  0  0  0  0  0  0  0  0  0  0  0
    2.9627   16.2406   38.4052 C   0  0  0  0  0  0  0  0  0  0  0  0
    3.4418   17.2716   37.6074 O   0  0  0  0  0  0  0  0  0  0  0  0
    3.1330   14.8830   38.3318 C   0  0  0  0  0  0  0  0  0  0  0  0
    3.2002   19.7034   37.3591 C   0  0  0  0  0  0  0  0  0  0  0  0
    2.8285   14.0207   39.4459 C   0  0  0  0  0  0  0  0  0  0  0  0
    1.8667   19.4933   39.8427 C   0  0  1  0  0  0  0  0  0  0  0  0
    0.9053   19.6329   40.8982 C   0  0  0  0  0  0  0  0  0  0  0  0
    0.5778   20.9910   41.2137 C   0  0  0  0  0  0  0  0  0  0  0  0
    3.0257   18.4697   38.0236 C   0  0  0  0  0  0  0  0  0  0  0  0
    2.3424   20.7208   39.2993 O   0  0  0  0  0  0  0  0  0  0  0  0
   -0.6991   20.3648   43.1309 N   0  0  0  0  0  0  0  0  0  0  0  0
   -0.4177   19.0665   42.8078 C   0  0  0  0  0  0  0  0  0  0  0  0
    2.1284   16.0704   40.6838 C   0  0  0  0  0  0  0  0  0  0  0  0
    2.4242   16.8657   39.5694 C   0  0  0  0  0  0  0  0  0  0  0  0
    3.7531   19.9230   36.2432 O   0  0  0  0  0  0  0  0  0  0  0  0
    2.5906   20.8599   37.9484 C   0  0  0  0  0  0  0  0  0  0  0  0
    0.7167   22.9111   40.6277 H   0  0  0  0  0  0  0  0  0  0  0  0
    0.4323   17.6421   41.5397 H   0  0  0  0  0  0  0  0  0  0  0  0
   -0.3535   22.3772   42.6055 H   0  0  0  0  0  0  0  0  0  0  0  0
    2.0692   14.0167   41.4606 H   0  0  0  0  0  0  0  0  0  0  0  0
    3.5117   14.4399   37.3990 H   0  0  0  0  0  0  0  0  0  0  0  0
    2.9836   12.9329   39.3963 H   0  0  0  0  0  0  0  0  0  0  0  0
    1.0542   19.5034   39.1013 H   0  0  0  0  0  0  0  0  0  0  0  0
   -0.8104   18.2714   43.4587 H   0  0  0  0  0  0  0  0  0  0  0  0
    1.7527   16.5253   41.6122 H   0  0  0  0  0  0  0  0  0  0  0  0
    3.2616   21.7195   37.8039 H   0  0  0  0  0  0  0  0  0  0  0  0
    1.6190   21.0028   37.4528 H   0  0  0  0  0  0  0  0  0  0  0  0
  1 13  1  0
  2 17  1  0
  3 16  1  0
  4 19  1  0
  4 11  1  0
  6  8  2  0
  6 19  1  0
  7 14  1  0
  7  6  1  0
  8 10  1  0
  9 21  1  0
  9 14  1  0
 10  5  2  0
 11 12  1  0
 12 13  1  0
 12  2  2  0
 13  3  2  0
 14  4  2  0
 15 11  1  0
 17 16  2  0
 18  5  1  0
 19 18  2  0
 20  9  2  0
 21 15  1  0
  1 22  1  0
  2 23  1  0
  3 24  1  0
  5 25  1  0
  8 26  1  0
 10 27  1  0
 11 28  1  6
 17 29  1  0
 18 30  1  0
 21 31  1  0
 21 32  1  0
M  END
>  <mol_id>  (38) 
2026-09-18-3war-s0-n100-refligand-0039

>  <rmsd_to_ref>  (38) 


$$$$

     RDKit          3D

 46 55  0  0  0  0  0  0  0  0999 V2000
    1.9130   14.6210   40.8440 C   0  0  0  0  0  0  0  0  0  0  0  0
    1.5210   16.1270   40.9180 C   0  0  2  0  0  0  0  0  0  0  0  0
    2.8130   19.5490   38.7410 C   0  0  0  0  0  0  0  0  0  0  0  0
    3.7310   15.8240   37.8210 C   0  0  0  0  0  0  0  0  0  0  0  0
    3.0280   15.6240   38.9960 C   0  0  1  0  0  0  0  0  0  0  0  0
    0.9040   16.4460   42.0220 C   0  0  0  0  0  0  0  0  0  0  0  0
    2.5960   16.8390   39.1860 O   0  0  0  0  0  0  0  0  0  0  0  0
    0.6200   19.5330   41.2100 C   0  0  1  0  0  0  0  0  0  0  0  0
    1.2260   21.7860   40.4460 N   0  0  0  0  0  0  0  0  0  0  0  0
    2.5160   21.0160   36.4320 C   0  0  0  0  0  0  0  0  0  0  0  0
    3.4920   19.2770   37.5950 C   0  0  0  0  0  0  0  0  0  0  0  0
   -0.0720   18.6510   43.0090 C   0  0  0  0  0  0  0  0  0  0  0  0
    2.8100   18.5710   40.0440 S   0  0  1  0  0  4  0  0  0  0  0  0
    1.6340   18.4170   40.9670 C   0  0  2  0  0  0  0  0  0  0  0  0
    1.1580   20.6400   40.9240 C   0  0  2  0  0  0  0  0  0  0  0  0
    1.8360   21.4650   37.5130 C   0  0  0  0  0  0  0  0  0  0  0  0
    2.8240   14.4490   39.8220 C   0  0  0  0  0  0  0  0  0  0  0  0
    2.0040   20.8260   38.6740 C   0  0  0  0  0  0  0  0  0  0  0  0
    1.4650   20.9810   39.8570 N   0  0  0  0  0  0  0  0  0  0  0  0
    2.3620   17.1030   40.2560 C   0  0  2  0  0  0  0  0  0  0  0  0
    0.1570   20.9850   41.8440 N   0  0  0  0  0  0  0  0  0  0  0  0
    3.4140   13.4160   39.8560 O   0  0  0  0  0  0  0  0  0  0  0  0
    1.4690   17.3800   41.1840 C   0  0  2  0  0  0  0  0  0  0  0  0
   -0.9220   19.6200   43.3930 N   0  0  0  0  0  0  0  0  0  0  0  0
    3.3580   20.1000   36.5060 C   0  0  0  0  0  0  0  0  0  0  0  0
   -0.7890   20.7600   42.7380 C   0  0  0  0  0  0  0  0  0  0  0  0
    0.7840   18.5760   41.9680 C   0  0  0  0  0  0  0  0  0  0  0  0
    2.3637   14.3089   41.7976 H   0  0  0  0  0  0  0  0  0  0  0  0
    1.0180   14.0104   40.6539 H   0  0  0  0  0  0  0  0  0  0  0  0
    4.7643   16.1180   38.0574 H   0  0  0  0  0  0  0  0  0  0  0  0
    3.7395   14.8926   37.2358 H   0  0  0  0  0  0  0  0  0  0  0  0
    3.2480   16.6204   37.2358 H   0  0  0  0  0  0  0  0  0  0  0  0
    3.9331   15.8550   39.5769 H   0  0  0  0  0  0  0  0  0  0  0  0
   -0.1895   16.3527   42.0970 H   0  0  0  0  0  0  0  0  0  0  0  0
    0.9887   16.1782   43.0855 H   0  0  0  0  0  0  0  0  0  0  0  0
    0.3631   22.3178   40.2629 H   0  0  0  0  0  0  0  0  0  0  0  0
    2.3183   21.4763   35.4527 H   0  0  0  0  0  0  0  0  0  0  0  0
    4.1491   18.3965   37.5411 H   0  0  0  0  0  0  0  0  0  0  0  0
   -0.0749   17.7627   43.6578 H   0  0  0  0  0  0  0  0  0  0  0  0
    4.0719   19.1014   40.1016 H   0  0  0  0  0  0  0  0  0  0  0  0
    1.1636   22.3322   37.4374 H   0  0  0  0  0  0  0  0  0  0  0  0
   -1.8834   19.2786   43.2516 H   0  0  0  0  0  0  0  0  0  0  0  0
   -0.7064   19.8233   44.3794 H   0  0  0  0  0  0  0  0  0  0  0  0
    4.0311   19.9429   35.6503 H   0  0  0  0  0  0  0  0  0  0  0  0
   -0.6641   21.5354   43.5082 H   0  0  0  0  0  0  0  0  0  0  0  0
   -1.6850   20.7445   42.1001 H   0  0  0  0  0  0  0  0  0  0  0  0
  2  1  1  1
  2 23  1  0
  2  6  1  0
  5  4  1  0
  5  7  1  0
  5 17  1  0
  8 21  1  1
  8 27  1  0
 10 25  2  0
 10 16  1  0
 11  3  2  0
 12 24  1  0
 13  3  1  0
 13 20  1  0
 13 14  1  0
 14 23  1  0
 14  8  1  0
 14 27  1  1
 15  9  1  6
 15  8  1  0
 15 21  1  0
 16 18  2  0
 17 22  2  0
 17  1  1  0
 18  3  1  0
 18 19  1  0
 19  9  1  0
 19 15  1  0
 20  7  1  1
 20  2  1  0
 20 23  1  0
 21 26  1  0
 23  6  1  1
 25 11  1  0
 26 24  1  0
 27 12  2  0
  1 28  1  0
  1 29  1  0
  4 30  1  0
  4 31  1  0
  4 32  1  0
  5 33  1  1
  6 34  1  0
  6 35  1  0
  9 36  1  0
 10 37  1  0
 11 38  1  0
 12 39  1  0
 13 40  1  1
 16 41  1  0
 24 42  1  0
 24 43  1  0
 25 44  1  0
 26 45  1  0
 26 46  1  0
M  CHG  1  24   1
M  END
>  <mol_id>  (39) 
2026-09-18-3war-s0-n100-refligand-0040

>  <rmsd_to_ref>  (39) 


$$$$

     RDKit          3D

 40 43  0  0  0  0  0  0  0  0999 V2000
    0.7917   21.9853   41.4570 C   0  0  0  0  0  0  0  0  0  0  0  0
    0.4716   20.6239   43.4082 C   0  0  0  0  0  0  0  0  0  0  0  0
    3.6984   15.6040   39.4203 C   0  0  0  0  0  0  0  0  0  0  0  0
    2.6814   19.0851   40.4846 N   0  0  0  0  0  0  0  0  0  0  0  0
    3.2783   16.9423   39.3517 C   0  0  0  0  0  0  0  0  0  0  0  0
    2.2060   20.9439   39.6116 C   0  0  0  0  0  0  0  0  0  0  0  0
    5.0668   16.0519   37.5429 C   0  0  0  0  0  0  0  0  0  0  0  0
    2.7309   20.8132   36.7214 N   0  0  0  0  0  0  0  0  0  0  0  0
    1.7867   19.7767   41.4911 C   0  0  0  0  0  0  0  0  0  0  0  0
    2.4161   19.9367   37.3270 C   0  0  1  0  0  0  0  0  0  0  0  0
    3.4215   20.4951   35.9201 C   0  0  0  0  0  0  0  0  0  0  0  0
    1.3947   20.8910   40.8223 C   0  0  0  0  0  0  0  0  0  0  0  0
    1.0935   18.3216   44.8247 C   0  0  0  0  0  0  0  0  0  0  0  0
    4.6574   17.4086   37.5673 C   0  0  0  0  0  0  0  0  0  0  0  0
    1.3600   18.4010   43.4016 O   0  0  0  0  0  0  0  0  0  0  0  0
    3.9286   19.9261   36.4227 O   0  0  0  0  0  0  0  0  0  0  0  0
    4.6116   15.1719   38.4925 C   0  0  0  0  0  0  0  0  0  0  0  0
    3.6934   17.8403   38.4553 C   0  0  0  0  0  0  0  0  0  0  0  0
    2.1780   22.1584   39.0388 O   0  0  0  0  0  0  0  0  0  0  0  0
    2.7206   19.7550   39.5403 N   0  0  0  0  0  0  0  0  0  0  0  0
    0.3026   21.8450   42.7483 C   0  0  0  0  0  0  0  0  0  0  0  0
    1.1966   19.5733   42.8450 C   0  0  0  0  0  0  0  0  0  0  0  0
    5.9138   15.6521   36.6219 F   0  0  0  0  0  0  0  0  0  0  0  0
    3.2976   20.7441   34.8992 N   0  0  0  0  0  0  0  0  0  0  0  0
    3.2075   19.1921   38.2996 C   0  0  2  0  0  0  0  0  0  0  0  0
    0.7065   22.9497   40.9348 H   0  0  0  0  0  0  0  0  0  0  0  0
    0.0193   20.4874   44.4015 H   0  0  0  0  0  0  0  0  0  0  0  0
    3.3080   14.9248   40.1925 H   0  0  0  0  0  0  0  0  0  0  0  0
    3.1657   18.1855   40.6152 H   0  0  0  0  0  0  0  0  0  0  0  0
    2.5455   17.2791   40.0998 H   0  0  0  0  0  0  0  0  0  0  0  0
    1.3577   19.7654   37.5728 H   0  0  0  0  0  0  0  0  0  0  0  0
    1.6712   19.0965   45.3497 H   0  0  0  0  0  0  0  0  0  0  0  0
    0.0200   18.4786   45.0060 H   0  0  0  0  0  0  0  0  0  0  0  0
    1.3871   17.3293   45.1978 H   0  0  0  0  0  0  0  0  0  0  0  0
    5.1136   18.1263   36.8696 H   0  0  0  0  0  0  0  0  0  0  0  0
    4.9744   14.1336   38.5094 H   0  0  0  0  0  0  0  0  0  0  0  0
   -0.2103   22.6818   43.2450 H   0  0  0  0  0  0  0  0  0  0  0  0
    2.6131   21.4628   34.6238 H   0  0  0  0  0  0  0  0  0  0  0  0
    3.8614   20.2678   34.1808 H   0  0  0  0  0  0  0  0  0  0  0  0
    4.1699   19.2559   37.7706 H   0  0  0  0  0  0  0  0  0  0  0  0
  1 21  1  0
  3  5  1  0
  4  9  1  0
  6 12  1  0
  7 14  2  0
  7 17  1  0
  8 10  1  0
  9 22  2  0
 10 25  1  0
 11 16  1  0
 11  8  2  0
 12  9  1  0
 12  1  2  0
 14 18  1  0
 15 13  1  0
 16 10  1  0
 17  3  2  0
 18  5  2  0
 19  6  2  0
 20  6  1  0
 20  4  1  0
 21  2  2  0
 22 15  1  0
 22  2  1  0
 23  7  1  0
 24 11  1  0
 25 18  1  0
 25 20  1  0
  1 26  1  0
  2 27  1  0
  3 28  1  0
  4 29  1  0
  5 30  1  0
 10 31  1  6
 13 32  1  0
 13 33  1  0
 13 34  1  0
 14 35  1  0
 17 36  1  0
 21 37  1  0
 24 38  1  0
 24 39  1  0
 25 40  1  6
M  END
>  <mol_id>  (40) 
2026-09-18-3war-s0-n100-refligand-0041

>  <rmsd_to_ref>  (40) 


$$$$

     RDKit          3D

 36 40  0  0  0  0  0  0  0  0999 V2000
    2.4162   21.0591   39.0897 C   0  0  0  0  0  0  0  0  0  0  0  0
    1.9277   22.0492   39.9007 O   0  0  0  0  0  0  0  0  0  0  0  0
    2.3761   14.1602   40.6452 N   0  0  0  0  0  0  0  0  0  0  0  0
    4.0446   17.4130   39.3217 S   0  0  0  0  0  0  0  0  0  0  0  0
    1.5253   16.1551   42.4364 C   0  0  0  0  0  0  0  0  0  0  0  0
    2.6168   21.4561   37.8075 C   0  0  0  0  0  0  0  0  0  0  0  0
    2.0944   19.4593   40.9043 C   0  0  0  0  0  0  0  0  0  0  0  0
    1.7967   18.3613   41.7164 C   0  0  0  0  0  0  0  0  0  0  0  0
    1.0365   20.1333   42.7601 N   0  0  0  0  0  0  0  0  0  0  0  0
    1.6150   20.5178   41.5836 C   0  0  0  0  0  0  0  0  0  0  0  0
    1.5843   21.7810   41.1771 C   0  0  0  0  0  0  0  0  0  0  0  0
    3.4229   18.8986   38.8259 C   0  0  0  0  0  0  0  0  0  0  0  0
    1.1522   18.8469   42.8247 C   0  0  0  0  0  0  0  0  0  0  0  0
    2.0060   17.0629   41.4353 C   0  0  0  0  0  0  0  0  0  0  0  0
    3.2841   21.1374   35.7031 O   0  0  0  0  0  0  0  0  0  0  0  0
    0.6682   17.9217   43.7871 C   0  0  0  0  0  0  0  0  0  0  0  0
    3.8022   19.3354   37.3557 C   0  0  0  0  0  0  0  0  0  0  0  0
    0.8469   16.6099   43.5847 C   0  0  0  0  0  0  0  0  0  0  0  0
    2.6594   16.6915   40.2369 C   0  0  2  0  0  0  0  0  0  0  0  0
    3.9950   14.9642   39.4071 O   0  0  0  0  0  0  0  0  0  0  0  0
    3.2778   20.6998   36.7979 C   0  0  0  0  0  0  0  0  0  0  0  0
    2.9883   15.2858   40.1166 C   0  0  0  0  0  0  0  0  0  0  0  0
    2.6331   19.7708   39.6082 C   0  0  0  0  0  0  0  0  0  0  0  0
    3.0242   12.8892   40.4480 C   0  0  0  0  0  0  0  0  0  0  0  0
    1.4877   14.2303   41.1617 H   0  0  0  0  0  0  0  0  0  0  0  0
    1.6905   15.0757   42.3043 H   0  0  0  0  0  0  0  0  0  0  0  0
    1.6129   21.6598   37.4066 H   0  0  0  0  0  0  0  0  0  0  0  0
    3.3598   22.2513   37.9677 H   0  0  0  0  0  0  0  0  0  0  0  0
    1.2866   22.5878   41.8631 H   0  0  0  0  0  0  0  0  0  0  0  0
    0.1516   18.2789   44.6902 H   0  0  0  0  0  0  0  0  0  0  0  0
    4.4302   18.6852   36.7290 H   0  0  0  0  0  0  0  0  0  0  0  0
    0.4627   15.8850   44.3174 H   0  0  0  0  0  0  0  0  0  0  0  0
    1.7836   17.2022   39.8100 H   0  0  0  0  0  0  0  0  0  0  0  0
    3.3185   12.4726   41.4226 H   0  0  0  0  0  0  0  0  0  0  0  0
    2.3303   12.1975   39.9479 H   0  0  0  0  0  0  0  0  0  0  0  0
    3.9188   13.0269   39.8228 H   0  0  0  0  0  0  0  0  0  0  0  0
  1 23  2  0
  1  2  1  0
  2 11  1  0
  4 19  1  0
  5 18  1  0
  6  1  1  0
  7 10  1  0
  7  8  2  0
  8 13  1  0
  9 13  2  0
 10  9  1  0
 11 10  2  0
 12  4  1  0
 12 23  1  0
 13 16  1  0
 14  8  1  0
 14  5  2  0
 15 21  2  0
 17 12  2  0
 18 16  2  0
 19 22  1  0
 19 14  1  0
 20 22  2  0
 21 17  1  0
 21  6  1  0
 22  3  1  0
 23  7  1  0
 24  3  1  0
  3 25  1  0
  5 26  1  0
  6 27  1  0
  6 28  1  0
 11 29  1  0
 16 30  1  0
 17 31  1  0
 18 32  1  0
 19 33  1  6
 24 34  1  0
 24 35  1  0
 24 36  1  0
M  END
>  <mol_id>  (41) 
2026-09-18-3war-s0-n100-refligand-0042

>  <rmsd_to_ref>  (41) 


$$$$

     RDKit          3D

 49 54  0  0  0  0  0  0  0  0999 V2000
    3.3782   14.6491   39.8219 C   0  0  0  0  0  0  0  0  0  0  0  0
    2.1587   21.7104   36.5552 C   0  0  0  0  0  0  0  0  0  0  0  0
    1.3684   16.1812   42.8206 C   0  0  0  0  0  0  0  0  0  0  0  0
    2.3915   17.5164   40.8985 C   0  0  1  0  0  0  0  0  0  0  0  0
    1.2015   14.9821   43.4951 C   0  0  0  0  0  0  0  0  0  0  0  0
    1.4154   20.5676   38.4851 C   0  0  0  0  0  0  0  0  0  0  0  0
    3.0535   17.2275   39.5213 C   0  0  0  0  0  0  0  0  0  0  0  0
    1.2320   21.5515   37.5659 C   0  0  0  0  0  0  0  0  0  0  0  0
    4.7236   14.9075   37.2029 C   0  0  0  0  0  0  0  0  0  0  0  0
    1.5556   19.7295   41.7210 C   0  0  0  0  0  0  0  0  0  0  0  0
    0.6152   20.7086   39.4508 O   0  0  0  0  0  0  0  0  0  0  0  0
    2.0830   22.6063   35.7320 O   0  0  0  0  0  0  0  0  0  0  0  0
    3.0531   20.7847   36.2801 N   0  0  0  0  0  0  0  0  0  0  0  0
    4.1373   16.1835   37.9735 C   0  0  0  0  0  0  0  0  0  0  0  0
   -1.0016   19.3731   44.4332 C   0  0  0  0  0  0  0  0  0  0  0  0
    0.5198   14.8766   44.7159 C   0  0  0  0  0  0  0  0  0  0  0  0
    3.5820   16.0545   39.1728 C   0  0  0  0  0  0  0  0  0  0  0  0
    0.6922   18.8808   42.6952 C   0  0  0  0  0  0  0  0  0  0  0  0
    5.8842   14.6871   37.4473 O   0  0  0  0  0  0  0  0  0  0  0  0
    2.2746   13.6974   41.4744 O   0  0  0  0  0  0  0  0  0  0  0  0
   -0.0940   15.9867   45.1548 C   0  0  0  0  0  0  0  0  0  0  0  0
   -0.8761   15.8927   46.3821 N   0  0  0  0  0  0  0  0  0  0  0  0
    3.2439   18.1675   38.4867 C   0  0  0  0  0  0  0  0  0  0  0  0
    3.3335   19.8480   37.1432 C   0  0  0  0  0  0  0  0  0  0  0  0
   -0.9668   18.1301   44.8519 N   0  0  0  0  0  0  0  0  0  0  0  0
    3.9437   14.2392   36.3798 O   0  0  0  0  0  0  0  0  0  0  0  0
    3.9650   17.5431   37.5869 N   0  0  0  0  0  0  0  0  0  0  0  0
    0.6909   17.4157   43.2879 C   0  0  0  0  0  0  0  0  0  0  0  0
   -0.2121   19.7418   43.3941 C   0  0  0  0  0  0  0  0  0  0  0  0
   -0.1221   17.1920   44.4246 C   0  0  0  0  0  0  0  0  0  0  0  0
    2.5408   19.4599   38.2307 C   0  0  0  0  0  0  0  0  0  0  0  0
    2.1366   18.9731   40.7075 O   0  0  0  0  0  0  0  0  0  0  0  0
    2.1336   16.1455   41.5551 C   0  0  1  0  0  0  0  0  0  0  0  0
    2.5509   14.7678   40.9754 C   0  0  0  0  0  0  0  0  0  0  0  0
    3.8084   13.7093   39.4454 H   0  0  0  0  0  0  0  0  0  0  0  0
    2.2319   17.6954   41.9721 H   0  0  0  0  0  0  0  0  0  0  0  0
    1.6242   14.0687   43.0513 H   0  0  0  0  0  0  0  0  0  0  0  0
    1.1912   22.5025   38.1170 H   0  0  0  0  0  0  0  0  0  0  0  0
    0.3171   21.2473   37.0363 H   0  0  0  0  0  0  0  0  0  0  0  0
    0.9143   20.4964   41.2619 H   0  0  0  0  0  0  0  0  0  0  0  0
    2.3724   20.1741   42.3084 H   0  0  0  0  0  0  0  0  0  0  0  0
    3.5377   20.8002   35.3713 H   0  0  0  0  0  0  0  0  0  0  0  0
   -1.6624   20.1063   44.9187 H   0  0  0  0  0  0  0  0  0  0  0  0
    0.4898   13.9348   45.2835 H   0  0  0  0  0  0  0  0  0  0  0  0
   -1.3610   16.7242   46.7487 H   0  0  0  0  0  0  0  0  0  0  0  0
   -0.9436   14.9948   46.8822 H   0  0  0  0  0  0  0  0  0  0  0  0
    4.2836   19.3114   37.0038 H   0  0  0  0  0  0  0  0  0  0  0  0
   -0.2719   20.7886   43.0611 H   0  0  0  0  0  0  0  0  0  0  0  0
    1.1700   16.0749   41.0293 H   0  0  0  0  0  0  0  0  0  0  0  0
  1 34  1  0
  2  8  1  0
  3 28  2  0
  3  5  1  0
  4  7  1  0
  4 33  1  0
  5 16  2  0
  6 11  2  0
  8  6  1  0
  9 19  1  0
  9 14  1  0
 10 18  1  0
 12  2  2  0
 13  2  1  0
 13 24  1  0
 14 17  1  0
 15 25  2  0
 16 21  1  0
 17  7  1  0
 17  1  2  0
 18 29  2  0
 18 28  1  0
 21 22  1  0
 23  7  2  0
 24 31  2  0
 26  9  2  0
 27 14  2  0
 27 23  1  0
 28 30  1  0
 29 15  1  0
 30 25  1  0
 30 21  2  0
 31  6  1  0
 31 23  1  0
 32  4  1  0
 32 10  1  0
 33 34  1  0
 33  3  1  0
 34 20  2  0
  1 35  1  0
  4 36  1  1
  5 37  1  0
  8 38  1  0
  8 39  1  0
 10 40  1  0
 10 41  1  0
 13 42  1  0
 15 43  1  0
 16 44  1  0
 22 45  1  0
 22 46  1  0
 24 47  1  0
 29 48  1  0
 33 49  1  1
M  CHG  1  19  -1
M  END
>  <mol_id>  (42) 
2026-09-18-3war-s0-n100-refligand-0043

>  <rmsd_to_ref>  (42) 


$$$$

     RDKit          3D

 14 14  0  0  0  0  0  0  0  0999 V2000
    3.2340   20.3570   36.6710 O   0  0  0  0  0  0  0  0  0  0  0  0
    1.8310   20.5120   39.1780 C   0  0  0  0  0  0  0  0  0  0  0  0
    2.6160   19.4280   38.6680 C   0  0  0  0  0  0  0  0  0  0  0  0
    1.3200   20.3530   40.5760 C   0  0  0  0  0  0  0  0  0  0  0  0
    3.1930   19.2900   37.4040 C   0  0  0  0  0  0  0  0  0  0  0  0
    2.8810   18.3320   39.4890 C   0  0  0  0  0  0  0  0  0  0  0  0
    1.0610   18.9340   40.8940 O   0  0  0  0  0  0  0  0  0  0  0  0
    2.0870   17.9960   40.5690 C   0  0  0  0  0  0  0  0  0  0  0  0
    3.5890   18.1380   36.8940 O   0  0  0  0  0  0  0  0  0  0  0  0
    1.6163   21.4085   38.5778 H   0  0  0  0  0  0  0  0  0  0  0  0
    2.0693   20.7468   41.2785 H   0  0  0  0  0  0  0  0  0  0  0  0
    0.3741   20.9073   40.6653 H   0  0  0  0  0  0  0  0  0  0  0  0
    3.7596   17.7084   39.2673 H   0  0  0  0  0  0  0  0  0  0  0  0
    2.2356   17.0677   41.1402 H   0  0  0  0  0  0  0  0  0  0  0  0
  1  5  2  0
  2  4  1  0
  3  2  2  0
  3  6  1  0
  4  7  1  0
  5  3  1  0
  6  8  2  0
  8  7  1  0
  9  5  1  0
  2 10  1  0
  4 11  1  0
  4 12  1  0
  6 13  1  0
  8 14  1  0
M  CHG  1   9  -1
M  END
>  <mol_id>  (43) 
2026-09-18-3war-s0-n100-refligand-0044

>  <rmsd_to_ref>  (43) 


$$$$

     RDKit          3D

 52 55  0  0  0  0  0  0  0  0999 V2000
    0.3253   19.6762   41.2118 C   0  0  0  0  0  0  0  0  0  0  0  0
    3.5886   22.1348   35.3704 C   0  0  0  0  0  0  0  0  0  0  0  0
    2.5142   16.0040   39.0575 C   0  0  0  0  0  0  0  0  0  0  0  0
    2.3644   17.9763   37.1338 C   0  0  0  0  0  0  0  0  0  0  0  0
   -1.0977   20.3235   44.4992 N   0  0  0  0  0  0  0  0  0  0  0  0
    2.3966   22.6981   35.2326 C   0  0  0  0  0  0  0  0  0  0  0  0
   -0.0560   18.3163   43.5214 C   0  0  0  0  0  0  0  0  0  0  0  0
   -0.3386   20.2436   42.2049 C   0  0  0  0  0  0  0  0  0  0  0  0
   -0.4719   19.6394   43.4303 C   0  0  0  0  0  0  0  0  0  0  0  0
    3.8790   16.1551   37.1278 C   0  0  0  0  0  0  0  0  0  0  0  0
   -0.7616   21.5301   42.1148 O   0  0  0  0  0  0  0  0  0  0  0  0
    3.7861   20.9999   36.1411 C   0  0  0  0  0  0  0  0  0  0  0  0
    3.7405   14.2117   38.1394 C   0  0  0  0  0  0  0  0  0  0  0  0
    2.4491   13.8284   39.9765 O   0  0  0  0  0  0  0  0  0  0  0  0
   -1.4404   18.3992   46.0884 N   0  0  0  0  0  0  0  0  0  0  0  0
    1.5546   21.0499   36.6109 C   0  0  0  0  0  0  0  0  0  0  0  0
    2.6630   20.3903   36.7259 C   0  0  0  0  0  0  0  0  0  0  0  0
    0.5161   17.7042   42.5066 C   0  0  0  0  0  0  0  0  0  0  0  0
   -0.9657   19.7585   45.8900 C   0  0  0  0  0  0  0  0  0  0  0  0
    1.3909   15.6878   40.9022 O   0  0  0  0  0  0  0  0  0  0  0  0
    1.8222   16.5144   40.2059 C   0  0  0  0  0  0  0  0  0  0  0  0
    1.5039   17.7934   40.3436 C   0  0  2  0  0  0  0  0  0  0  0  0
    1.3525   22.1418   35.8325 C   0  0  0  0  0  0  0  0  0  0  0  0
    1.9790   18.4902   39.4330 O   0  0  0  0  0  0  0  0  0  0  0  0
    2.8582   14.6991   39.1085 C   0  0  0  0  0  0  0  0  0  0  0  0
    0.8021   18.2832   41.3499 C   0  0  0  0  0  0  0  0  0  0  0  0
    2.8879   19.1974   37.4247 N   0  0  0  0  0  0  0  0  0  0  0  0
    2.5650   19.4655   38.7678 N   0  0  0  0  0  0  0  0  0  0  0  0
    4.2483   14.9609   37.1629 N   0  0  0  0  0  0  0  0  0  0  0  0
    2.9217   16.8355   37.9683 C   0  0  0  0  0  0  0  0  0  0  0  0
    0.5221   20.2381   40.2869 H   0  0  0  0  0  0  0  0  0  0  0  0
    4.4507   22.5836   34.8553 H   0  0  0  0  0  0  0  0  0  0  0  0
    1.2774   18.0213   37.2962 H   0  0  0  0  0  0  0  0  0  0  0  0
    2.6355   17.7609   36.0897 H   0  0  0  0  0  0  0  0  0  0  0  0
   -1.6314   21.1881   44.3306 H   0  0  0  0  0  0  0  0  0  0  0  0
    2.2754   23.6111   34.6310 H   0  0  0  0  0  0  0  0  0  0  0  0
   -0.2086   17.7685   44.4630 H   0  0  0  0  0  0  0  0  0  0  0  0
    4.3486   16.7734   36.3486 H   0  0  0  0  0  0  0  0  0  0  0  0
   -1.2576   21.9419   42.8661 H   0  0  0  0  0  0  0  0  0  0  0  0
    4.7948   20.5875   36.2911 H   0  0  0  0  0  0  0  0  0  0  0  0
    4.0308   13.1518   38.1863 H   0  0  0  0  0  0  0  0  0  0  0  0
    1.8224   14.1005   40.6931 H   0  0  0  0  0  0  0  0  0  0  0  0
   -1.5261   18.2092   47.0970 H   0  0  0  0  0  0  0  0  0  0  0  0
   -2.3603   18.2876   45.6386 H   0  0  0  0  0  0  0  0  0  0  0  0
   -0.7713   17.7373   45.6700 H   0  0  0  0  0  0  0  0  0  0  0  0
    0.6973   20.6912   37.1994 H   0  0  0  0  0  0  0  0  0  0  0  0
    0.7738   16.6416   42.6268 H   0  0  0  0  0  0  0  0  0  0  0  0
    0.1004   19.7824   46.1600 H   0  0  0  0  0  0  0  0  0  0  0  0
   -1.6125   20.3863   46.5205 H   0  0  0  0  0  0  0  0  0  0  0  0
    0.5754   17.6231   39.7789 H   0  0  0  0  0  0  0  0  0  0  0  0
    0.3428   22.5580   35.7012 H   0  0  0  0  0  0  0  0  0  0  0  0
    3.4389   19.7001   39.2599 H   0  0  0  0  0  0  0  0  0  0  0  0
  1 26  2  0
  1  8  1  0
  2 12  1  0
  3 21  1  0
  4 27  1  0
  4 30  1  0
  5 19  1  0
  6  2  2  0
  6 23  1  0
  8  9  2  0
  9  7  1  0
  9  5  1  0
 10 30  2  0
 11  8  1  0
 12 17  2  0
 13 25  1  0
 16 17  1  0
 17 27  1  0
 18  7  2  0
 19 15  1  0
 21 22  1  0
 21 20  2  0
 22 26  1  0
 23 16  2  0
 24 22  1  0
 25  3  2  0
 25 14  1  0
 26 18  1  0
 27 28  1  0
 28 24  1  0
 29 10  1  0
 29 13  2  0
 30  3  1  0
  1 31  1  0
  2 32  1  0
  4 33  1  0
  4 34  1  0
  5 35  1  0
  6 36  1  0
  7 37  1  0
 10 38  1  0
 11 39  1  0
 12 40  1  0
 13 41  1  0
 14 42  1  0
 15 43  1  0
 15 44  1  0
 15 45  1  0
 16 46  1  0
 18 47  1  0
 19 48  1  0
 19 49  1  0
 22 50  1  6
 23 51  1  0
 28 52  1  0
M  CHG  1  15   1
M  END
>  <mol_id>  (44) 
2026-09-18-3war-s0-n100-refligand-0045

>  <rmsd_to_ref>  (44) 


$$$$

     RDKit          3D

 27 28  0  0  0  0  0  0  0  0999 V2000
    0.2844   19.4293   41.3792 C   0  0  0  0  0  0  0  0  0  0  0  0
    0.8341   18.3550   41.8339 C   0  0  0  0  0  0  0  0  0  0  0  0
    5.0786   17.0441   37.7012 C   0  0  0  0  0  0  0  0  0  0  0  0
    1.6560   17.4141   41.3503 C   0  0  0  0  0  0  0  0  0  0  0  0
    3.7559   17.5301   37.9393 O   0  0  0  0  0  0  0  0  0  0  0  0
    1.4699   20.8934   38.1076 C   0  0  0  0  0  0  0  0  0  0  0  0
    2.1539   18.8202   39.1738 C   0  0  0  0  0  0  0  0  0  0  0  0
    3.0318   19.4941   36.9845 N   0  0  0  0  0  0  0  0  0  0  0  0
    2.3057   20.6252   37.0274 C   0  0  0  0  0  0  0  0  0  0  0  0
    1.3501   19.9637   39.1617 C   0  0  0  0  0  0  0  0  0  0  0  0
    3.0225   18.6765   37.9868 C   0  0  0  0  0  0  0  0  0  0  0  0
    2.2009   17.7950   40.1539 C   0  0  0  0  0  0  0  0  0  0  0  0
   -0.2732   21.3383   40.2151 N   0  0  0  0  0  0  0  0  0  0  0  0
    0.4686   20.2253   40.2997 C   0  0  0  0  0  0  0  0  0  0  0  0
   -0.5320   19.7852   42.0249 H   0  0  0  0  0  0  0  0  0  0  0  0
    0.5593   18.1631   42.8816 H   0  0  0  0  0  0  0  0  0  0  0  0
    5.5850   16.8728   38.6626 H   0  0  0  0  0  0  0  0  0  0  0  0
    5.0267   16.0991   37.1407 H   0  0  0  0  0  0  0  0  0  0  0  0
    5.6422   17.7865   37.1170 H   0  0  0  0  0  0  0  0  0  0  0  0
    2.4664   17.2403   42.0736 H   0  0  0  0  0  0  0  0  0  0  0  0
    1.0737   16.4950   41.1888 H   0  0  0  0  0  0  0  0  0  0  0  0
    0.9005   21.8340   38.1395 H   0  0  0  0  0  0  0  0  0  0  0  0
    2.3730   21.3465   36.1996 H   0  0  0  0  0  0  0  0  0  0  0  0
    2.9356   17.0383   39.8414 H   0  0  0  0  0  0  0  0  0  0  0  0
   -0.5772   21.6208   41.1578 H   0  0  0  0  0  0  0  0  0  0  0  0
    0.2872   22.0933   39.7945 H   0  0  0  0  0  0  0  0  0  0  0  0
   -1.0996   21.1563   39.6280 H   0  0  0  0  0  0  0  0  0  0  0  0
  1  2  2  0
  3  5  1  0
  4  2  1  0
  5 11  1  0
  6 10  1  0
  7 10  1  0
  7 12  2  0
  8  9  1  0
  8 11  2  0
  9  6  2  0
 10 14  2  0
 11  7  1  0
 12  4  1  0
 14 13  1  0
 14  1  1  0
  1 15  1  0
  2 16  1  0
  3 17  1  0
  3 18  1  0
  3 19  1  0
  4 20  1  0
  4 21  1  0
  6 22  1  0
  9 23  1  0
 12 24  1  0
 13 25  1  0
 13 26  1  0
 13 27  1  0
M  CHG  1  13   1
M  END
>  <mol_id>  (45) 
2026-09-18-3war-s0-n100-refligand-0046

>  <rmsd_to_ref>  (45) 


$$$$

     RDKit          3D

 15 15  0  0  0  0  0  0  0  0999 V2000
    2.1380   18.6460   39.7590 C   0  0  0  0  0  0  0  0  0  0  0  0
    2.3430   19.6230   38.7790 C   0  0  0  0  0  0  0  0  0  0  0  0
    1.0070   20.2280   41.2020 C   0  0  0  0  0  0  0  0  0  0  0  0
    1.1360   21.2340   40.2000 C   0  0  0  0  0  0  0  0  0  0  0  0
    1.4990   18.9650   40.9230 C   0  0  0  0  0  0  0  0  0  0  0  0
    1.8160   20.9560   39.0160 C   0  0  0  0  0  0  0  0  0  0  0  0
    1.3530   17.9640   41.8680 O   0  0  0  0  0  0  0  0  0  0  0  0
    3.3930   20.1230   36.6460 O   0  0  0  0  0  0  0  0  0  0  0  0
    2.9550   18.0440   37.1880 O   0  0  0  0  0  0  0  0  0  0  0  0
    2.9150   19.2960   37.3930 C   0  0  0  0  0  0  0  0  0  0  0  0
    2.4924   17.6182   39.5916 H   0  0  0  0  0  0  0  0  0  0  0  0
    0.5304   20.4492   42.1684 H   0  0  0  0  0  0  0  0  0  0  0  0
    0.6985   22.2302   40.3617 H   0  0  0  0  0  0  0  0  0  0  0  0
    1.9536   21.7448   38.2617 H   0  0  0  0  0  0  0  0  0  0  0  0
    0.8955   18.1551   42.7249 H   0  0  0  0  0  0  0  0  0  0  0  0
  1  5  2  0
  2  6  2  0
  2  1  1  0
  4  3  2  0
  5  3  1  0
  5  7  1  0
  6  4  1  0
  8 10  2  0
  9 10  1  0
 10  2  1  0
  1 11  1  0
  3 12  1  0
  4 13  1  0
  6 14  1  0
  7 15  1  0
M  CHG  1   9  -1
M  END
>  <mol_id>  (46) 
2026-09-18-3war-s0-n100-refligand-0047

>  <rmsd_to_ref>  (46) 


$$$$

     RDKit          3D

 25 27  0  0  0  0  0  0  0  0999 V2000
    0.2711   19.1962   43.0542 C   0  0  0  0  0  0  0  0  0  0  0  0
    2.9368   19.7675   37.4034 C   0  0  0  0  0  0  0  0  0  0  0  0
    1.6081   18.3058   40.7472 N   0  0  0  0  0  0  0  0  0  0  0  0
    0.6513   20.3823   41.4066 C   0  0  0  0  0  0  0  0  0  0  0  0
    3.2806   18.4678   37.7906 C   0  0  0  0  0  0  0  0  0  0  0  0
    0.7778   18.8139   41.6277 C   0  0  0  0  0  0  0  0  0  0  0  0
    0.6455   20.6534   39.9215 C   0  0  0  0  0  0  0  0  0  0  0  0
    2.8690   17.9462   38.9167 C   0  0  0  0  0  0  0  0  0  0  0  0
    1.5464   20.0053   39.3864 C   0  0  0  0  0  0  0  0  0  0  0  0
    2.0624   20.5052   38.1778 C   0  0  0  0  0  0  0  0  0  0  0  0
    2.0991   18.8046   39.6989 C   0  0  0  0  0  0  0  0  0  0  0  0
    0.9928   18.3262   42.6035 C   0  0  0  0  0  0  0  0  0  0  0  0
    0.6688   20.0608   43.6058 H   0  0  0  0  0  0  0  0  0  0  0  0
   -0.6610   19.3228   43.6246 H   0  0  0  0  0  0  0  0  0  0  0  0
    3.3614   20.2006   36.4857 H   0  0  0  0  0  0  0  0  0  0  0  0
    1.9079   17.3406   40.9456 H   0  0  0  0  0  0  0  0  0  0  0  0
   -0.2848   20.7467   41.8548 H   0  0  0  0  0  0  0  0  0  0  0  0
    1.4962   20.9012   41.8829 H   0  0  0  0  0  0  0  0  0  0  0  0
    3.9175   17.8654   37.1263 H   0  0  0  0  0  0  0  0  0  0  0  0
   -0.3244   20.3546   39.4970 H   0  0  0  0  0  0  0  0  0  0  0  0
    0.8063   21.7266   39.7418 H   0  0  0  0  0  0  0  0  0  0  0  0
    3.1100   16.9168   39.2207 H   0  0  0  0  0  0  0  0  0  0  0  0
    1.7623   21.5082   37.8406 H   0  0  0  0  0  0  0  0  0  0  0  0
    0.6158   17.2983   42.7103 H   0  0  0  0  0  0  0  0  0  0  0  0
    2.0099   18.1289   42.9729 H   0  0  0  0  0  0  0  0  0  0  0  0
  2  5  2  0
  2 10  1  0
  3  6  1  0
  5  8  1  0
  6  4  1  0
  6 12  1  0
  6  1  1  0
  7  4  1  0
  8 11  2  0
  9 11  1  0
  9  7  1  0
 10  9  2  0
 11  3  1  0
 12  1  1  0
  1 13  1  0
  1 14  1  0
  2 15  1  0
  3 16  1  0
  4 17  1  0
  4 18  1  0
  5 19  1  0
  7 20  1  0
  7 21  1  0
  8 22  1  0
 10 23  1  0
 12 24  1  0
 12 25  1  0
M  END
>  <mol_id>  (47) 
2026-09-18-3war-s0-n100-refligand-0048

>  <rmsd_to_ref>  (47) 


$$$$

     RDKit          3D

 36 38  0  0  0  0  0  0  0  0999 V2000
    3.2216   20.2279   36.4480 N   0  0  0  0  0  0  0  0  0  0  0  0
    2.8558   19.9932   38.9253 C   0  0  0  0  0  0  0  0  0  0  0  0
    4.0684   16.3203   38.8511 C   0  0  0  0  0  0  0  0  0  0  0  0
    2.0946   16.3519   40.5309 C   0  0  1  0  0  0  0  0  0  0  0  0
    3.5752   19.6941   35.2293 O   0  0  0  0  0  0  0  0  0  0  0  0
    3.6544   15.1381   39.3636 C   0  0  0  0  0  0  0  0  0  0  0  0
    3.0996   19.4171   37.5548 C   0  0  0  0  0  0  0  0  0  0  0  0
    0.4018   18.6604   42.8353 C   0  0  0  0  0  0  0  0  0  0  0  0
    3.0229   21.3387   36.5877 O   0  0  0  0  0  0  0  0  0  0  0  0
    1.0201   15.3797   42.9233 O   0  0  0  0  0  0  0  0  0  0  0  0
    3.5338   17.5983   39.1545 C   0  0  0  0  0  0  0  0  0  0  0  0
    0.5095   19.9089   42.1137 C   0  0  0  0  0  0  0  0  0  0  0  0
    0.2153   16.2302   42.5638 C   0  0  0  0  0  0  0  0  0  0  0  0
    1.2974   19.9943   40.9749 C   0  0  0  0  0  0  0  0  0  0  0  0
    2.4700   17.6078   40.1102 C   0  0  2  0  0  0  0  0  0  0  0  0
    0.8277   17.5026   42.0995 C   0  0  0  0  0  0  0  0  0  0  0  0
   -1.1651   16.0130   42.4940 O   0  0  0  0  0  0  0  0  0  0  0  0
    2.6569   15.1111   40.3138 C   0  0  0  0  0  0  0  0  0  0  0  0
    1.5659   17.3183   41.1017 C   0  0  0  0  0  0  0  0  0  0  0  0
    2.0888   19.3497   40.0399 C   0  0  0  0  0  0  0  0  0  0  0  0
    2.3481   20.9524   38.7457 H   0  0  0  0  0  0  0  0  0  0  0  0
    3.8729   19.9179   39.3375 H   0  0  0  0  0  0  0  0  0  0  0  0
    4.8989   16.2867   38.1306 H   0  0  0  0  0  0  0  0  0  0  0  0
    1.7585   15.3045   40.5347 H   0  0  0  0  0  0  0  0  0  0  0  0
    4.1141   14.1991   39.0216 H   0  0  0  0  0  0  0  0  0  0  0  0
    2.2609   18.7355   37.3502 H   0  0  0  0  0  0  0  0  0  0  0  0
    4.1098   18.9925   37.6513 H   0  0  0  0  0  0  0  0  0  0  0  0
    1.0183   18.7352   43.7432 H   0  0  0  0  0  0  0  0  0  0  0  0
   -0.6677   18.5164   43.0489 H   0  0  0  0  0  0  0  0  0  0  0  0
    4.3495   18.2223   39.5486 H   0  0  0  0  0  0  0  0  0  0  0  0
    3.1014   17.9760   38.2163 H   0  0  0  0  0  0  0  0  0  0  0  0
   -0.5109   20.1894   41.8136 H   0  0  0  0  0  0  0  0  0  0  0  0
    1.0304   20.5647   42.8268 H   0  0  0  0  0  0  0  0  0  0  0  0
    1.2898   21.0548   40.6827 H   0  0  0  0  0  0  0  0  0  0  0  0
    3.0825   14.7470   41.2606 H   0  0  0  0  0  0  0  0  0  0  0  0
    1.8625   14.4467   39.9428 H   0  0  0  0  0  0  0  0  0  0  0  0
  1  9  1  0
  1  7  1  0
  2 20  1  0
  3  6  2  0
  3 11  1  0
  4 18  1  0
  4 19  1  0
  5  1  2  0
  6 18  1  0
  7  2  1  0
 10 13  2  0
 12  8  1  0
 13 17  1  0
 14 12  1  0
 15 11  1  1
 15  4  1  0
 15 20  1  0
 15 19  1  0
 16 13  1  0
 16  8  1  0
 19 16  2  0
 20 14  2  0
  2 21  1  0
  2 22  1  0
  3 23  1  0
  4 24  1  6
  6 25  1  0
  7 26  1  0
  7 27  1  0
  8 28  1  0
  8 29  1  0
 11 30  1  0
 11 31  1  0
 12 32  1  0
 12 33  1  0
 14 34  1  0
 18 35  1  0
 18 36  1  0
M  CHG  3   1   1   9  -1  17  -1
M  END
>  <mol_id>  (48) 
2026-09-18-3war-s0-n100-refligand-0049

>  <rmsd_to_ref>  (48) 


$$$$

     RDKit          3D

 16 17  0  0  0  0  0  0  0  0999 V2000
    2.6765   20.7280   36.8313 C   0  0  0  0  0  0  0  0  0  0  0  0
    1.2451   19.0435   42.1662 C   0  0  0  0  0  0  0  0  0  0  0  0
    1.7216   19.2194   40.8082 C   0  0  0  0  0  0  0  0  0  0  0  0
    1.4624   20.3107   40.1647 N   0  0  0  0  0  0  0  0  0  0  0  0
    3.5637   18.6700   37.8857 C   0  0  0  0  0  0  0  0  0  0  0  0
    2.0194   20.1088   39.0072 C   0  0  0  0  0  0  0  0  0  0  0  0
    3.4669   19.5863   36.7672 C   0  0  0  0  0  0  0  0  0  0  0  0
    2.8374   18.9399   38.9589 C   0  0  0  0  0  0  0  0  0  0  0  0
    2.5589   18.3462   40.1470 N   0  0  0  0  0  0  0  0  0  0  0  0
    1.9471   21.0156   37.9744 C   0  0  0  0  0  0  0  0  0  0  0  0
    0.8535   18.8112   43.1893 N   0  0  0  0  0  0  0  0  0  0  0  0
    2.6297   21.4085   35.9683 H   0  0  0  0  0  0  0  0  0  0  0  0
    4.2153   17.7848   37.8445 H   0  0  0  0  0  0  0  0  0  0  0  0
    4.0313   19.3736   35.8473 H   0  0  0  0  0  0  0  0  0  0  0  0
    2.9010   17.4350   40.4838 H   0  0  0  0  0  0  0  0  0  0  0  0
    1.3376   21.9280   38.0527 H   0  0  0  0  0  0  0  0  0  0  0  0
  1  7  2  0
  1 10  1  0
  2 11  3  0
  3  2  1  0
  4  3  2  0
  5  8  2  0
  6  8  1  0
  6  4  1  0
  7  5  1  0
  8  9  1  0
  9  3  1  0
 10  6  2  0
  1 12  1  0
  5 13  1  0
  7 14  1  0
  9 15  1  0
 10 16  1  0
M  END
>  <mol_id>  (49) 
2026-09-18-3war-s0-n100-refligand-0050

>  <rmsd_to_ref>  (49) 


$$$$

     RDKit          3D

 14 14  0  0  0  0  0  0  0  0999 V2000
    2.1406   19.1133   40.5898 N   0  0  0  0  0  0  0  0  0  0  0  0
    2.6579   17.9401   40.2998 C   0  0  0  0  0  0  0  0  0  0  0  0
    2.2075   20.0961   39.7165 C   0  0  0  0  0  0  0  0  0  0  0  0
    3.1730   17.5755   39.1733 C   0  0  0  0  0  0  0  0  0  0  0  0
    3.2516   18.5550   38.1577 C   0  0  0  0  0  0  0  0  0  0  0  0
    2.3419   21.9498   37.5642 O   0  0  0  0  0  0  0  0  0  0  0  0
    1.4759   21.6277   40.2344 S   0  0  0  0  0  0  0  0  0  0  0  0
    2.8442   20.7547   37.4100 C   0  0  0  0  0  0  0  0  0  0  0  0
    2.7433   19.8550   38.4099 C   0  0  0  0  0  0  0  0  0  0  0  0
    3.2761   20.4671   36.2721 O   0  0  0  0  0  0  0  0  0  0  0  0
    1.6829   19.2635   41.5002 H   0  0  0  0  0  0  0  0  0  0  0  0
    2.6513   17.1885   41.1029 H   0  0  0  0  0  0  0  0  0  0  0  0
    3.5340   16.5491   39.0115 H   0  0  0  0  0  0  0  0  0  0  0  0
    3.7016   18.3124   37.1838 H   0  0  0  0  0  0  0  0  0  0  0  0
  2  1  1  0
  3  1  1  0
  3  7  2  0
  4  2  2  0
  5  4  1  0
  5  9  2  0
  8  6  1  0
  8  9  1  0
  9  3  1  0
 10  8  2  0
  1 11  1  0
  2 12  1  0
  4 13  1  0
  5 14  1  0
M  CHG  1   6  -1
M  END
>  <mol_id>  (50) 
2026-09-18-3war-s0-n100-refligand-0051

>  <rmsd_to_ref>  (50) 


$$$$

     RDKit          3D

 13 13  0  0  0  0  0  0  0  0999 V2000
    0.9610   21.5840   40.8530 Cl  0  0  0  0  0  0  0  0  0  0  0  0
    2.3690   19.4390   40.6250 C   0  0  0  0  0  0  0  0  0  0  0  0
    2.4150   17.9470   39.7970 S   0  0  0  0  0  0  0  0  0  0  0  0
    3.1580   20.0780   36.5460 O   0  0  0  0  0  0  0  0  0  0  0  0
    1.8210   20.5600   39.9940 C   0  0  0  0  0  0  0  0  0  0  0  0
    2.0900   20.8120   38.5390 C   0  0  0  0  0  0  0  0  0  0  0  0
    2.9360   18.3710   38.2070 C   0  0  0  0  0  0  0  0  0  0  0  0
    2.7010   19.8050   37.7010 C   0  0  0  0  0  0  0  0  0  0  0  0
    1.7907   19.2759   41.5464 H   0  0  0  0  0  0  0  0  0  0  0  0
    3.4306   19.7020   40.7427 H   0  0  0  0  0  0  0  0  0  0  0  0
    1.8165   21.7833   38.1012 H   0  0  0  0  0  0  0  0  0  0  0  0
    4.0198   18.1878   38.1637 H   0  0  0  0  0  0  0  0  0  0  0  0
    2.3056   17.7536   37.5502 H   0  0  0  0  0  0  0  0  0  0  0  0
  3  2  1  0
  4  8  2  0
  5  2  1  0
  5  1  1  0
  6  5  2  0
  7  3  1  0
  8  7  1  0
  8  6  1  0
  2  9  1  0
  2 10  1  0
  6 11  1  0
  7 12  1  0
  7 13  1  0
M  END
>  <mol_id>  (51) 
2026-09-18-3war-s0-n100-refligand-0052

>  <rmsd_to_ref>  (51) 


$$$$

     RDKit          3D

 37 40  0  0  0  0  0  0  0  0999 V2000
    3.1728   16.5786   39.2058 C   0  0  0  0  0  0  0  0  0  0  0  0
   -0.2266   17.4458   42.6739 O   0  0  0  0  0  0  0  0  0  0  0  0
    3.5117   20.8640   35.7224 O   0  0  0  0  0  0  0  0  0  0  0  0
    0.2632   15.1899   41.4789 F   0  0  0  0  0  0  0  0  0  0  0  0
    1.1404   15.6896   40.6835 C   0  0  0  0  0  0  0  0  0  0  0  0
    1.9270   20.1435   39.9116 C   0  0  0  0  0  0  0  0  0  0  0  0
    2.5260   21.6741   35.9148 C   0  0  0  0  0  0  0  0  0  0  0  0
    2.0145   14.8261   39.8171 C   0  0  0  0  0  0  0  0  0  0  0  0
    2.0673   21.0225   38.8458 C   0  0  0  0  0  0  0  0  0  0  0  0
    3.1287   19.2832   38.2730 N   0  0  0  0  0  0  0  0  0  0  0  0
   -0.3365   19.5575   43.2081 N   0  0  0  0  0  0  0  0  0  0  0  0
    0.8267   18.7816   41.3893 C   0  0  0  0  0  0  0  0  0  0  0  0
   -0.0136   20.8768   42.9767 C   0  0  0  0  0  0  0  0  0  0  0  0
    1.1878   19.9836   41.0478 C   0  0  0  0  0  0  0  0  0  0  0  0
    2.4109   18.9007   39.4832 C   0  0  0  0  0  0  0  0  0  0  0  0
   -0.0043   18.6331   42.4331 C   0  0  0  0  0  0  0  0  0  0  0  0
    2.0119   22.3701   36.2446 O   0  0  0  0  0  0  0  0  0  0  0  0
    2.3751   17.5061   39.8292 C   0  0  0  0  0  0  0  0  0  0  0  0
    3.3193   20.5988   36.5135 C   0  0  0  0  0  0  0  0  0  0  0  0
    1.4166   17.2439   40.7676 C   0  0  0  0  0  0  0  0  0  0  0  0
    2.8635   20.3519   37.8913 C   0  0  2  0  0  0  0  0  0  0  0  0
    3.0680   15.2198   39.2831 N   0  0  0  0  0  0  0  0  0  0  0  0
    0.7451   20.9914   41.8730 C   0  0  0  0  0  0  0  0  0  0  0  0
    3.9838   16.9731   38.5761 H   0  0  0  0  0  0  0  0  0  0  0  0
    2.4285   21.9675   34.8591 H   0  0  0  0  0  0  0  0  0  0  0  0
    2.3719   21.1725   36.8815 H   0  0  0  0  0  0  0  0  0  0  0  0
    1.7049   13.7848   39.6449 H   0  0  0  0  0  0  0  0  0  0  0  0
    1.0832   21.2665   38.4193 H   0  0  0  0  0  0  0  0  0  0  0  0
    2.5290   21.9695   39.1623 H   0  0  0  0  0  0  0  0  0  0  0  0
    3.8058   18.6674   37.8005 H   0  0  0  0  0  0  0  0  0  0  0  0
   -0.8739   19.3223   44.0548 H   0  0  0  0  0  0  0  0  0  0  0  0
   -0.3324   21.7195   43.6078 H   0  0  0  0  0  0  0  0  0  0  0  0
    1.9995   22.3313   37.2338 H   0  0  0  0  0  0  0  0  0  0  0  0
    2.9116   19.6436   36.1511 H   0  0  0  0  0  0  0  0  0  0  0  0
    3.8674   21.4728   36.8954 H   0  0  0  0  0  0  0  0  0  0  0  0
    1.9038   19.9764   37.5065 H   0  0  0  0  0  0  0  0  0  0  0  0
    1.0480   22.0122   41.5969 H   0  0  0  0  0  0  0  0  0  0  0  0
  1 22  1  0
  1 18  2  0
  3  7  1  0
  3 19  1  0
  5 20  2  0
  5  4  1  0
  6 14  1  0
  7 17  1  0
  8  5  1  0
  9  6  1  0
 10 15  1  0
 12 16  1  0
 13 11  1  0
 14 12  2  0
 14 23  1  0
 15 18  1  0
 15  6  2  0
 16  2  2  0
 16 11  1  0
 18 20  1  0
 20 12  1  0
 21 19  1  0
 21 10  1  0
 21  9  1  0
 22  8  2  0
 23 13  2  0
  1 24  1  0
  7 25  1  0
  7 26  1  0
  8 27  1  0
  9 28  1  0
  9 29  1  0
 10 30  1  0
 11 31  1  0
 13 32  1  0
 17 33  1  0
 19 34  1  0
 19 35  1  0
 21 36  1  1
 23 37  1  0
M  END
>  <mol_id>  (52) 
2026-09-18-3war-s0-n100-refligand-0053

>  <rmsd_to_ref>  (52) 


$$$$

     RDKit          3D

 17 17  0  0  0  0  0  0  0  0999 V2000
    3.2999   17.2217   37.9444 C   0  0  0  0  0  0  0  0  0  0  0  0
    1.5968   21.0982   40.2883 O   0  0  0  0  0  0  0  0  0  0  0  0
    3.1666   21.6913   35.9943 O   0  0  0  0  0  0  0  0  0  0  0  0
    3.2812   19.5361   36.9866 C   0  0  0  0  0  0  0  0  0  0  0  0
    3.8564   16.8386   36.9457 O   0  0  0  0  0  0  0  0  0  0  0  0
    3.0426   18.6939   38.0869 C   0  0  0  0  0  0  0  0  0  0  0  0
    3.0151   16.4001   38.7911 O   0  0  0  0  0  0  0  0  0  0  0  0
    2.6052   18.6316   40.3821 O   0  0  0  0  0  0  0  0  0  0  0  0
    2.2546   21.4131   38.1056 C   0  0  0  0  0  0  0  0  0  0  0  0
    2.6384   19.3050   39.2451 C   0  0  0  0  0  0  0  0  0  0  0  0
    2.9490   20.8392   37.0527 C   0  0  0  0  0  0  0  0  0  0  0  0
    2.1044   20.5759   39.1866 C   0  0  0  0  0  0  0  0  0  0  0  0
    1.4705   20.5333   41.0914 H   0  0  0  0  0  0  0  0  0  0  0  0
    2.9137   22.6457   36.0670 H   0  0  0  0  0  0  0  0  0  0  0  0
    3.7390   19.1306   36.0723 H   0  0  0  0  0  0  0  0  0  0  0  0
    2.3120   19.0800   41.2146 H   0  0  0  0  0  0  0  0  0  0  0  0
    1.8612   22.4399   38.0795 H   0  0  0  0  0  0  0  0  0  0  0  0
  1  7  1  0
  3 11  1  0
  4  6  2  0
  5  1  2  0
  6  1  1  0
  6 10  1  0
  9 12  1  0
 10  8  1  0
 11  4  1  0
 11  9  2  0
 12 10  2  0
 12  2  1  0
  2 13  1  0
  3 14  1  0
  4 15  1  0
  8 16  1  0
  9 17  1  0
M  CHG  1   7  -1
M  END
>  <mol_id>  (53) 
2026-09-18-3war-s0-n100-refligand-0054

>  <rmsd_to_ref>  (53) 


$$$$

     RDKit          3D

 22 22  0  0  0  0  0  0  0  0999 V2000
    1.5182   18.1952   40.9009 C   0  0  0  0  0  0  0  0  0  0  0  0
    1.6958   20.7087   39.9087 C   0  0  0  0  0  0  0  0  0  0  0  0
    0.5109   18.6055   42.8817 C   0  0  0  0  0  0  0  0  0  0  0  0
    1.0804   20.5962   41.0491 C   0  0  0  0  0  0  0  0  0  0  0  0
    3.4369   20.1550   38.4595 O   0  0  0  0  0  0  0  0  0  0  0  0
    1.2751   19.0287   41.6751 C   0  0  2  0  0  0  0  0  0  0  0  0
    2.5668   19.7288   39.4388 C   0  0  0  0  0  0  0  0  0  0  0  0
    2.1375   20.8803   36.8652 O   0  0  0  0  0  0  0  0  0  0  0  0
    2.9847   19.9399   37.2307 C   0  0  0  0  0  0  0  0  0  0  0  0
    3.3954   18.8961   36.8003 O   0  0  0  0  0  0  0  0  0  0  0  0
    2.4059   18.5382   40.0360 C   0  0  0  0  0  0  0  0  0  0  0  0
    1.8854   17.3122   41.4445 H   0  0  0  0  0  0  0  0  0  0  0  0
    0.5906   17.9899   40.3465 H   0  0  0  0  0  0  0  0  0  0  0  0
    0.9113   20.8148   39.1451 H   0  0  0  0  0  0  0  0  0  0  0  0
    2.3774   21.5513   40.0971 H   0  0  0  0  0  0  0  0  0  0  0  0
    0.9842   19.0257   43.7814 H   0  0  0  0  0  0  0  0  0  0  0  0
   -0.5239   18.9710   42.8072 H   0  0  0  0  0  0  0  0  0  0  0  0
    0.5081   17.5075   42.9476 H   0  0  0  0  0  0  0  0  0  0  0  0
    1.4980   21.3247   41.7597 H   0  0  0  0  0  0  0  0  0  0  0  0
    0.0083   20.7890   40.8965 H   0  0  0  0  0  0  0  0  0  0  0  0
    2.2322   19.2069   42.1871 H   0  0  0  0  0  0  0  0  0  0  0  0
    3.1246   17.7563   39.7496 H   0  0  0  0  0  0  0  0  0  0  0  0
  1  6  1  0
  2  4  1  0
  4  6  1  0
  5  7  1  0
  6  3  1  0
  7 11  2  0
  7  2  1  0
  8  9  1  0
  9  5  1  0
 10  9  2  0
 11  1  1  0
  1 12  1  0
  1 13  1  0
  2 14  1  0
  2 15  1  0
  3 16  1  0
  3 17  1  0
  3 18  1  0
  4 19  1  0
  4 20  1  0
  6 21  1  1
 11 22  1  0
M  CHG  1   8  -1
M  END
>  <mol_id>  (54) 
2026-09-18-3war-s0-n100-refligand-0055

>  <rmsd_to_ref>  (54) 


$$$$

     RDKit          3D

 17 17  0  0  0  0  0  0  0  0999 V2000
    1.7180   20.6940   39.9000 C   0  0  0  0  0  0  0  0  0  0  0  0
    2.2730   20.5330   38.6340 C   0  0  1  0  0  0  0  0  0  0  0  0
    2.6590   19.2070   38.0540 C   0  0  0  0  0  0  0  0  0  0  0  0
    1.9240   19.6650   40.7570 C   0  0  0  0  0  0  0  0  0  0  0  0
    2.4550   18.4150   40.3600 C   0  0  0  0  0  0  0  0  0  0  0  0
    3.0130   19.0450   36.8630 O   0  0  0  0  0  0  0  0  0  0  0  0
    2.8130   18.2690   39.1950 C   0  0  2  0  0  0  0  0  0  0  0  0
    1.9790   21.4310   37.6290 O   0  0  0  0  0  0  0  0  0  0  0  0
    3.6880   17.4290   38.6560 O   0  0  0  0  0  0  0  0  0  0  0  0
    0.6324   20.8252   39.7811 H   0  0  0  0  0  0  0  0  0  0  0  0
    2.2209   21.5656   40.3443 H   0  0  0  0  0  0  0  0  0  0  0  0
    3.1864   20.8387   39.1653 H   0  0  0  0  0  0  0  0  0  0  0  0
    1.6650   19.8088   41.8164 H   0  0  0  0  0  0  0  0  0  0  0  0
    2.5453   17.5897   41.0817 H   0  0  0  0  0  0  0  0  0  0  0  0
    2.0208   17.9156   39.8714 H   0  0  0  0  0  0  0  0  0  0  0  0
    1.6971   22.2921   38.0279 H   0  0  0  0  0  0  0  0  0  0  0  0
    4.1790   16.9577   39.3750 H   0  0  0  0  0  0  0  0  0  0  0  0
  1  4  1  0
  2  8  1  0
  2  1  1  0
  3  2  1  0
  3  7  1  0
  5  4  2  0
  6  3  2  0
  7  9  1  0
  7  5  1  0
  1 10  1  0
  1 11  1  0
  2 12  1  1
  4 13  1  0
  5 14  1  0
  7 15  1  6
  8 16  1  0
  9 17  1  0
M  END
>  <mol_id>  (55) 
2026-09-18-3war-s0-n100-refligand-0056

>  <rmsd_to_ref>  (55) 


$$$$

     RDKit          3D

 40 42  0  0  0  0  0  0  0  0999 V2000
    3.2324   18.7068   37.5185 N   0  0  0  0  0  0  0  0  0  0  0  0
    3.7614   14.0155   36.7796 C   0  0  0  0  0  0  0  0  0  0  0  0
    3.9837   16.4753   37.0774 N   0  0  0  0  0  0  0  0  0  0  0  0
    3.8058   15.2858   37.4623 N   0  0  0  0  0  0  0  0  0  0  0  0
    3.1990   19.1446   36.5064 C   0  0  0  0  0  0  0  0  0  0  0  0
    1.2770   20.5484   40.5207 C   0  0  0  0  0  0  0  0  0  0  0  0
    0.4276   19.0746   43.3473 C   0  0  0  0  0  0  0  0  0  0  0  0
    3.0142   20.4035   36.3330 O   0  0  0  0  0  0  0  0  0  0  0  0
    0.2144   20.3581   42.8071 C   0  0  0  0  0  0  0  0  0  0  0  0
   -0.1086   18.6513   44.6664 C   0  0  0  0  0  0  0  0  0  0  0  0
    1.7845   19.3311   40.4028 C   0  0  0  0  0  0  0  0  0  0  0  0
    1.6916   18.2681   41.3561 C   0  0  0  0  0  0  0  0  0  0  0  0
   -0.5158   21.1621   43.5686 O   0  0  0  0  0  0  0  0  0  0  0  0
    1.0784   18.0298   42.6730 C   0  0  0  0  0  0  0  0  0  0  0  0
    2.3579   20.3494   38.5078 C   0  0  0  0  0  0  0  0  0  0  0  0
    3.5172   17.4578   37.8662 C   0  0  0  0  0  0  0  0  0  0  0  0
    2.6468   20.9501   37.3824 C   0  0  0  0  0  0  0  0  0  0  0  0
    3.2388   16.7299   38.9930 C   0  0  0  0  0  0  0  0  0  0  0  0
    3.5241   15.5667   38.6453 C   0  0  0  0  0  0  0  0  0  0  0  0
    1.6762   21.1559   39.4085 C   0  0  0  0  0  0  0  0  0  0  0  0
    2.4250   19.2606   39.2078 N   0  0  0  0  0  0  0  0  0  0  0  0
    0.6512   21.0214   41.6621 C   0  0  0  0  0  0  0  0  0  0  0  0
    3.8130   13.2009   37.5170 H   0  0  0  0  0  0  0  0  0  0  0  0
    2.8227   13.9370   36.2116 H   0  0  0  0  0  0  0  0  0  0  0  0
    4.6149   13.9401   36.0896 H   0  0  0  0  0  0  0  0  0  0  0  0
    3.3263   18.4913   35.6306 H   0  0  0  0  0  0  0  0  0  0  0  0
    0.4797   19.1202   45.4689 H   0  0  0  0  0  0  0  0  0  0  0  0
   -1.1599   18.9635   44.7520 H   0  0  0  0  0  0  0  0  0  0  0  0
   -0.0428   17.5568   44.7549 H   0  0  0  0  0  0  0  0  0  0  0  0
    2.2313   17.3761   41.0055 H   0  0  0  0  0  0  0  0  0  0  0  0
   -0.7154   22.0835   43.2665 H   0  0  0  0  0  0  0  0  0  0  0  0
    1.1303   17.0304   43.1296 H   0  0  0  0  0  0  0  0  0  0  0  0
    3.4499   21.6587   37.6333 H   0  0  0  0  0  0  0  0  0  0  0  0
    1.6389   21.2707   37.0803 H   0  0  0  0  0  0  0  0  0  0  0  0
    3.8617   17.0550   39.8394 H   0  0  0  0  0  0  0  0  0  0  0  0
    2.2002   16.8399   39.3383 H   0  0  0  0  0  0  0  0  0  0  0  0
    2.6589   14.9426   38.9137 H   0  0  0  0  0  0  0  0  0  0  0  0
    4.4811   15.3966   39.1604 H   0  0  0  0  0  0  0  0  0  0  0  0
    1.4804   22.2210   39.2155 H   0  0  0  0  0  0  0  0  0  0  0  0
    0.4676   22.1060   41.6653 H   0  0  0  0  0  0  0  0  0  0  0  0
  1 16  1  0
  2  4  1  0
  3  4  1  0
  3 16  2  0
  4 19  1  0
  5  1  2  3
  6 22  2  0
  7 10  1  0
  8  5  1  0
  8 17  1  0
  9  7  2  0
  9 13  1  0
 11  6  1  0
 11 12  1  0
 12 14  2  0
 14  7  1  0
 15 21  1  0
 15 20  2  0
 16 18  1  0
 17 15  1  0
 19 18  1  0
 20  6  1  0
 21 11  2  0
 22  9  1  0
  2 23  1  0
  2 24  1  0
  2 25  1  0
  5 26  1  0
 10 27  1  0
 10 28  1  0
 10 29  1  0
 12 30  1  0
 13 31  1  0
 14 32  1  0
 17 33  1  0
 17 34  1  0
 18 35  1  0
 18 36  1  0
 19 37  1  0
 19 38  1  0
 20 39  1  0
 22 40  1  0
M  END
>  <mol_id>  (56) 
2026-09-18-3war-s0-n100-refligand-0057

>  <rmsd_to_ref>  (56) 


$$$$

     RDKit          3D

 43 47  0  0  0  0  0  0  0  0999 V2000
    1.6640   17.3030   40.9260 C   0  0  0  0  0  0  0  0  0  0  0  0
    1.8590   21.3170   36.8930 C   0  0  0  0  0  0  0  0  0  0  0  0
    1.7360   19.5330   40.1590 C   0  0  0  0  0  0  0  0  0  0  0  0
    3.9170   20.9020   35.0740 C   0  0  0  0  0  0  0  0  0  0  0  0
    2.6630   14.9890   39.7750 C   0  0  0  0  0  0  0  0  0  0  0  0
    1.5110   20.8170   40.0600 N   0  0  0  0  0  0  0  0  0  0  0  0
    3.4730   16.3300   37.9000 C   0  0  0  0  0  0  0  0  0  0  0  0
    3.4400   13.9390   37.8570 N   0  0  0  0  0  0  0  0  0  0  0  0
    2.4440   18.7730   39.1920 N   0  0  0  0  0  0  0  0  0  0  0  0
    0.3330   20.7040   42.0820 C   0  0  0  0  0  0  0  0  0  0  0  0
    2.1260   14.9880   41.0390 N   0  0  0  0  0  0  0  0  0  0  0  0
   -0.3240   21.4240   43.0690 N   0  0  0  0  0  0  0  0  0  0  0  0
    1.1810   18.7900   41.1690 C   0  0  0  0  0  0  0  0  0  0  0  0
    0.8160   21.3690   40.9570 C   0  0  0  0  0  0  0  0  0  0  0  0
    3.0510   13.9150   39.1260 N   0  0  0  0  0  0  0  0  0  0  0  0
    1.8470   21.9880   35.6570 C   0  0  0  0  0  0  0  0  0  0  0  0
    2.3570   17.4580   39.7090 C   0  0  0  0  0  0  0  0  0  0  0  0
    1.6200   16.1060   41.5660 C   0  0  0  0  0  0  0  0  0  0  0  0
    3.0320   19.8360   38.5350 C   0  0  0  0  0  0  0  0  0  0  0  0
    3.6490   15.1320   37.2250 C   0  0  0  0  0  0  0  0  0  0  0  0
    2.9160   21.8320   34.7950 C   0  0  0  0  0  0  0  0  0  0  0  0
    0.4820   19.3440   42.1470 C   0  0  0  0  0  0  0  0  0  0  0  0
    2.8060   16.1820   39.1400 C   0  0  1  0  0  0  0  0  0  0  0  0
    3.8700   20.2240   36.3420 C   0  0  0  0  0  0  0  0  0  0  0  0
    2.8880   20.3950   37.1700 C   0  0  0  0  0  0  0  0  0  0  0  0
    1.0721   21.5102   37.6369 H   0  0  0  0  0  0  0  0  0  0  0  0
    4.7167   20.6936   34.3480 H   0  0  0  0  0  0  0  0  0  0  0  0
    4.4619   16.7741   38.0865 H   0  0  0  0  0  0  0  0  0  0  0  0
    2.8431   16.9714   37.2660 H   0  0  0  0  0  0  0  0  0  0  0  0
   -0.4164   22.4464   42.9854 H   0  0  0  0  0  0  0  0  0  0  0  0
   -0.7195   20.9362   43.8854 H   0  0  0  0  0  0  0  0  0  0  0  0
    0.5777   22.4369   40.8442 H   0  0  0  0  0  0  0  0  0  0  0  0
    3.0536   13.0135   39.6242 H   0  0  0  0  0  0  0  0  0  0  0  0
    0.9972   22.6291   35.3798 H   0  0  0  0  0  0  0  0  0  0  0  0
    2.1397   16.2535   42.5242 H   0  0  0  0  0  0  0  0  0  0  0  0
    0.5418   15.8883   41.5596 H   0  0  0  0  0  0  0  0  0  0  0  0
    2.7973   20.6930   39.1835 H   0  0  0  0  0  0  0  0  0  0  0  0
    3.9916   19.3322   38.3471 H   0  0  0  0  0  0  0  0  0  0  0  0
    3.9601   15.1421   36.1699 H   0  0  0  0  0  0  0  0  0  0  0  0
    2.9776   22.4449   33.8837 H   0  0  0  0  0  0  0  0  0  0  0  0
    0.0470   18.7481   42.9628 H   0  0  0  0  0  0  0  0  0  0  0  0
    3.7654   16.2840   39.6683 H   0  0  0  0  0  0  0  0  0  0  0  0
    4.6890   19.5427   36.6158 H   0  0  0  0  0  0  0  0  0  0  0  0
  1 13  1  0
  1 18  1  0
  2 25  1  0
  3 13  2  0
  4 24  1  0
  5 11  2  0
  6  3  1  0
  6 14  2  0
  8 15  1  0
  9 17  1  0
  9  3  1  0
 10 22  2  0
 10 12  1  0
 11 18  1  0
 13 22  1  0
 14 10  1  0
 15  5  1  0
 16  2  2  0
 17  1  2  0
 19  9  1  0
 20  8  2  0
 20  7  1  0
 21  4  2  0
 21 16  1  0
 23  7  1  0
 23 17  1  0
 23  5  1  0
 24 25  2  0
 25 19  1  0
  2 26  1  0
  4 27  1  0
  7 28  1  0
  7 29  1  0
 12 30  1  0
 12 31  1  0
 14 32  1  0
 15 33  1  0
 16 34  1  0
 18 35  1  0
 18 36  1  0
 19 37  1  0
 19 38  1  0
 20 39  1  0
 21 40  1  0
 22 41  1  0
 23 42  1  6
 24 43  1  0
M  END
>  <mol_id>  (57) 
2026-09-18-3war-s0-n100-refligand-0058

>  <rmsd_to_ref>  (57) 


$$$$

     RDKit          3D

 32 33  0  0  0  0  0  0  0  0999 V2000
    1.0920   18.6910   41.3600 C   0  0  0  0  0  0  0  0  0  0  0  0
    3.1740   21.0410   36.1670 O   0  0  0  0  0  0  0  0  0  0  0  0
    0.4430   20.9500   41.8990 C   0  0  0  0  0  0  0  0  0  0  0  0
    2.8600   20.2470   37.1050 C   0  0  0  0  0  0  0  0  0  0  0  0
    0.1100   21.8250   42.4940 N   0  0  0  0  0  0  0  0  0  0  0  0
    3.0250   16.5460   38.8080 C   0  0  0  0  0  0  0  0  0  0  0  0
    3.6100   17.8100   36.8920 N   0  0  0  0  0  0  0  0  0  0  0  0
    2.2900   20.2570   38.2860 O   0  0  0  0  0  0  0  0  0  0  0  0
    1.2920   19.5540   40.2800 C   0  0  2  0  0  0  0  0  0  0  0  0
    3.5230   16.7070   37.6260 C   0  0  0  0  0  0  0  0  0  0  0  0
    3.2260   19.0230   37.3140 C   0  0  0  0  0  0  0  0  0  0  0  0
    2.5800   17.8850   39.1640 C   0  0  0  0  0  0  0  0  0  0  0  0
    2.2500   19.1410   39.1610 C   0  0  0  0  0  0  0  0  0  0  0  0
    1.4380   15.1620   39.6210 O   0  0  0  0  0  0  0  0  0  0  0  0
    3.2380   13.7760   40.0370 C   0  0  0  0  0  0  0  0  0  0  0  0
    2.8420   15.2560   39.6390 C   0  0  1  0  0  0  0  0  0  0  0  0
    0.2310   19.5700   42.2140 C   0  0  0  0  0  0  0  0  0  0  0  0
    1.1760   21.0260   40.4330 S   0  0  0  0  0  0  0  0  0  0  0  0
    2.0370   18.4307   41.8591 H   0  0  0  0  0  0  0  0  0  0  0  0
    0.6596   17.7119   41.1063 H   0  0  0  0  0  0  0  0  0  0  0  0
    0.3200   22.7793   42.1683 H   0  0  0  0  0  0  0  0  0  0  0  0
    0.2852   19.2958   39.9199 H   0  0  0  0  0  0  0  0  0  0  0  0
    3.9342   15.7988   37.1610 H   0  0  0  0  0  0  0  0  0  0  0  0
    4.0797   19.2308   37.9758 H   0  0  0  0  0  0  0  0  0  0  0  0
    2.1831   18.7161   37.1463 H   0  0  0  0  0  0  0  0  0  0  0  0
    1.0969   15.1392   40.5501 H   0  0  0  0  0  0  0  0  0  0  0  0
    3.2623   13.6851   41.1330 H   0  0  0  0  0  0  0  0  0  0  0  0
    2.4958   13.0751   39.6273 H   0  0  0  0  0  0  0  0  0  0  0  0
    4.2311   13.5394   39.6273 H   0  0  0  0  0  0  0  0  0  0  0  0
    3.8081   15.5125   40.0983 H   0  0  0  0  0  0  0  0  0  0  0  0
   -0.8256   19.3186   42.0399 H   0  0  0  0  0  0  0  0  0  0  0  0
    0.4952   19.4046   43.2689 H   0  0  0  0  0  0  0  0  0  0  0  0
  1 17  1  0
  2  4  2  0
  3 17  1  0
  3  5  2  3
  4 11  1  0
  4  8  1  0
  6 12  2  0
  6 16  1  0
  7 11  1  0
  7 10  2  0
  8 13  1  0
  9 13  1  0
  9 18  1  0
  9  1  1  0
 10  6  1  0
 13 12  2  0
 14 16  1  0
 16 15  1  0
 18  3  1  0
  1 19  1  0
  1 20  1  0
  5 21  1  0
  9 22  1  6
 10 23  1  0
 11 24  1  0
 11 25  1  0
 14 26  1  0
 15 27  1  0
 15 28  1  0
 15 29  1  0
 16 30  1  1
 17 31  1  0
 17 32  1  0
M  END
>  <mol_id>  (58) 
2026-09-18-3war-s0-n100-refligand-0059

>  <rmsd_to_ref>  (58) 


$$$$

     RDKit          3D

 47 49  0  0  0  0  0  0  0  0999 V2000
    0.7420   15.6732   40.9116 C   0  0  0  0  0  0  0  0  0  0  0  0
    1.5890   16.4081   40.2445 C   0  0  1  0  0  0  0  0  0  0  0  0
    2.2035   16.2557   38.6968 S   0  0  0  0  0  0  0  0  0  0  0  0
    3.1352   17.5440   38.5174 C   0  0  0  0  0  0  0  0  0  0  0  0
    3.9951   20.7208   35.2072 C   0  0  0  0  0  0  0  0  0  0  0  0
    0.1724   19.2057   43.3195 C   0  0  0  0  0  0  0  0  0  0  0  0
    3.6032   17.7525   37.4722 O   0  0  0  0  0  0  0  0  0  0  0  0
    3.6832   22.8036   33.8797 O   0  0  0  0  0  0  0  0  0  0  0  0
    0.3171   16.3260   42.0455 O   0  0  0  0  0  0  0  0  0  0  0  0
    2.5312   22.5997   35.9708 C   0  0  0  0  0  0  0  0  0  0  0  0
    2.9917   20.0249   38.7775 C   0  0  2  0  0  0  0  0  0  0  0  0
    0.3522   14.4804   40.9847 O   0  0  0  0  0  0  0  0  0  0  0  0
    3.8126   20.0099   36.3748 C   0  0  0  0  0  0  0  0  0  0  0  0
    1.9957   20.4548   39.5139 C   0  0  0  0  0  0  0  0  0  0  0  0
    0.7636   20.7643   41.3299 C   0  0  0  0  0  0  0  0  0  0  0  0
    4.0563   20.1482   39.5966 C   0  0  0  0  0  0  0  0  0  0  0  0
    3.4095   22.0377   34.9959 C   0  0  0  0  0  0  0  0  0  0  0  0
    3.0809   20.6632   37.5130 C   0  0  0  0  0  0  0  0  0  0  0  0
    2.9941   17.5779   39.8120 C   0  0  0  0  0  0  0  0  0  0  0  0
    2.4099   21.9605   37.2368 C   0  0  0  0  0  0  0  0  0  0  0  0
    1.4499   21.6589   39.4512 C   0  0  0  0  0  0  0  0  0  0  0  0
    0.5366   21.6007   43.4628 O   0  0  0  0  0  0  0  0  0  0  0  0
    0.6541   22.0355   40.5814 C   0  0  0  0  0  0  0  0  0  0  0  0
    1.3538   19.8667   40.8617 N   0  0  0  0  0  0  0  0  0  0  0  0
    1.5891   22.6151   38.2880 O   0  0  0  0  0  0  0  0  0  0  0  0
    0.0203   20.5791   42.6609 C   0  0  2  0  0  0  0  0  0  0  0  0
    2.2288   17.4466   40.5869 N   0  0  0  0  0  0  0  0  0  0  0  0
    2.4172   15.7795   40.6035 H   0  0  0  0  0  0  0  0  0  0  0  0
    4.6050   20.2773   34.4065 H   0  0  0  0  0  0  0  0  0  0  0  0
    0.2136   19.3256   44.4121 H   0  0  0  0  0  0  0  0  0  0  0  0
   -0.6874   18.5737   43.0522 H   0  0  0  0  0  0  0  0  0  0  0  0
    1.1000   18.7309   42.9674 H   0  0  0  0  0  0  0  0  0  0  0  0
    3.2634   23.6942   33.7753 H   0  0  0  0  0  0  0  0  0  0  0  0
    1.9577   23.5115   35.7474 H   0  0  0  0  0  0  0  0  0  0  0  0
    2.8809   18.9825   38.4440 H   0  0  0  0  0  0  0  0  0  0  0  0
    4.1956   18.9833   36.4710 H   0  0  0  0  0  0  0  0  0  0  0  0
    3.7193   20.1165   40.6432 H   0  0  0  0  0  0  0  0  0  0  0  0
    4.7584   19.3217   39.4123 H   0  0  0  0  0  0  0  0  0  0  0  0
    4.5594   21.1068   39.4022 H   0  0  0  0  0  0  0  0  0  0  0  0
    3.7462   16.8399   40.1280 H   0  0  0  0  0  0  0  0  0  0  0  0
    2.8677   18.6706   39.8124 H   0  0  0  0  0  0  0  0  0  0  0  0
    0.4552   21.3452   44.4158 H   0  0  0  0  0  0  0  0  0  0  0  0
    0.1285   22.9725   40.8176 H   0  0  0  0  0  0  0  0  0  0  0  0
    1.4413   18.9102   41.2337 H   0  0  0  0  0  0  0  0  0  0  0  0
   -1.0673   20.6314   42.5042 H   0  0  0  0  0  0  0  0  0  0  0  0
    1.6022   18.2635   40.6188 H   0  0  0  0  0  0  0  0  0  0  0  0
    2.6416   17.3541   41.5261 H   0  0  0  0  0  0  0  0  0  0  0  0
  1 12  2  0
  1  9  1  0
  2 27  1  0
  2  1  1  0
  3  2  1  0
  4  3  1  0
  4 19  1  0
  5 13  2  0
  7  4  2  0
  8 17  1  0
 10 20  1  0
 11 14  1  0
 11 16  1  0
 13 18  1  0
 14 24  1  0
 15 26  1  0
 17  5  1  0
 17 10  2  0
 18 11  1  0
 19 27  1  0
 20 18  2  0
 20 25  1  0
 21 14  2  0
 21 23  1  0
 23 15  2  0
 24 15  1  0
 25 21  1  0
 26  6  1  0
 26 22  1  0
  2 28  1  1
  5 29  1  0
  6 30  1  0
  6 31  1  0
  6 32  1  0
  8 33  1  0
 10 34  1  0
 11 35  1  6
 13 36  1  0
 16 37  1  0
 16 38  1  0
 16 39  1  0
 19 40  1  0
 19 41  1  0
 22 42  1  0
 23 43  1  0
 24 44  1  0
 26 45  1  6
 27 46  1  0
 27 47  1  0
M  CHG  2   9  -1  27   1
M  END
>  <mol_id>  (59) 
2026-09-18-3war-s0-n100-refligand-0060

>  <rmsd_to_ref>  (59) 


$$$$

     RDKit          3D

 29 30  0  0  0  0  0  0  0  0999 V2000
    0.2982   19.3723   42.1461 C   0  0  0  0  0  0  0  0  0  0  0  0
    3.8445   17.6825   38.3289 C   0  0  0  0  0  0  0  0  0  0  0  0
   -0.2852   18.4029   42.8377 N   0  0  0  0  0  0  0  0  0  0  0  0
    1.0925   17.5373   40.7161 C   0  0  0  0  0  0  0  0  0  0  0  0
    1.6369   21.2322   40.5272 C   0  0  0  0  0  0  0  0  0  0  0  0
    2.4635   20.7419   37.2526 N   0  0  0  0  0  0  0  0  0  0  0  0
    1.0202   18.9285   41.0030 C   0  0  0  0  0  0  0  0  0  0  0  0
    2.5504   19.2491   39.4664 N   0  0  0  0  0  0  0  0  0  0  0  0
    1.7070   19.8030   40.2885 C   0  0  0  0  0  0  0  0  0  0  0  0
    2.6022   16.9532   38.2470 C   0  0  0  0  0  0  0  0  0  0  0  0
    3.6056   19.1395   38.7387 C   0  0  2  0  0  0  0  0  0  0  0  0
    3.5691   19.9453   37.4906 O   0  0  0  0  0  0  0  0  0  0  0  0
    2.3966   21.6102   36.2652 N   0  0  0  0  0  0  0  0  0  0  0  0
    1.7265   17.0081   39.4534 C   0  0  0  0  0  0  0  0  0  0  0  0
    0.2695   20.6934   42.4019 N   0  0  0  0  0  0  0  0  0  0  0  0
    0.8667   21.6030   41.5881 C   0  0  0  0  0  0  0  0  0  0  0  0
    4.3378   17.6626   37.3459 H   0  0  0  0  0  0  0  0  0  0  0  0
    4.4787   17.2058   39.0908 H   0  0  0  0  0  0  0  0  0  0  0  0
   -0.1864   17.4233   42.5355 H   0  0  0  0  0  0  0  0  0  0  0  0
   -0.8371   18.6296   43.6773 H   0  0  0  0  0  0  0  0  0  0  0  0
    0.6721   16.8230   41.4393 H   0  0  0  0  0  0  0  0  0  0  0  0
    2.1665   21.9626   39.8980 H   0  0  0  0  0  0  0  0  0  0  0  0
    1.6742   20.0950   37.1136 H   0  0  0  0  0  0  0  0  0  0  0  0
    2.0922   18.3435   39.2907 H   0  0  0  0  0  0  0  0  0  0  0  0
    2.3172   16.3891   37.3467 H   0  0  0  0  0  0  0  0  0  0  0  0
    4.4168   19.5204   39.3767 H   0  0  0  0  0  0  0  0  0  0  0  0
    2.2746   22.5581   36.6492 H   0  0  0  0  0  0  0  0  0  0  0  0
    3.2665   21.5720   35.7150 H   0  0  0  0  0  0  0  0  0  0  0  0
    0.7237   22.6743   41.7926 H   0  0  0  0  0  0  0  0  0  0  0  0
  1 15  1  0
  1  3  1  0
  2 11  1  0
  4  7  1  0
  5 16  1  0
  6 12  1  0
  7  1  2  0
  8  9  1  0
  9  5  2  0
  9  7  1  0
 10  2  1  0
 10 14  2  0
 11 12  1  0
 11  8  1  0
 13  6  1  0
 14  4  2  0
 16 15  2  0
  2 17  1  0
  2 18  1  0
  3 19  1  0
  3 20  1  0
  4 21  1  0
  5 22  1  0
  6 23  1  0
  8 24  1  0
 10 25  1  0
 11 26  1  1
 13 27  1  0
 13 28  1  0
 16 29  1  0
M  END
>  <mol_id>  (60) 
2026-09-18-3war-s0-n100-refligand-0061

>  <rmsd_to_ref>  (60) 


$$$$

     RDKit          3D

 39 42  0  0  0  0  0  0  0  0999 V2000
    3.3953   19.1503   38.0111 C   0  0  0  0  0  0  0  0  0  0  0  0
   -0.1424   19.7617   42.3038 C   0  0  0  0  0  0  0  0  0  0  0  0
    4.0579   16.9561   38.6951 C   0  0  0  0  0  0  0  0  0  0  0  0
    3.9618   18.0078   37.7554 C   0  0  0  0  0  0  0  0  0  0  0  0
    1.3064   15.3625   42.4531 C   0  0  0  0  0  0  0  0  0  0  0  0
    1.6253   18.6380   41.0255 C   0  0  0  0  0  0  0  0  0  0  0  0
    2.8188   19.3146   39.2555 N   0  0  0  0  0  0  0  0  0  0  0  0
   -1.1101   20.7729   42.5193 N   0  0  0  0  0  0  0  0  0  0  0  0
    2.5291   18.3870   40.0811 C   0  0  0  0  0  0  0  0  0  0  0  0
    1.5284   21.8519   37.7526 C   0  0  0  0  0  0  0  0  0  0  0  0
   -0.2567   18.6762   43.0694 N   0  0  0  0  0  0  0  0  0  0  0  0
    3.2240   20.2489   37.2089 C   0  0  0  0  0  0  0  0  0  0  0  0
    2.8660   21.8153   35.7286 C   0  0  2  0  0  0  0  0  0  0  0  0
    0.8992   19.7992   41.3478 C   0  0  0  0  0  0  0  0  0  0  0  0
    0.4335   17.6387   42.7876 C   0  0  0  0  0  0  0  0  0  0  0  0
    1.2294   21.1216   40.7475 C   0  0  0  0  0  0  0  0  0  0  0  0
    4.2839   14.7204   38.2644 O   0  0  0  0  0  0  0  0  0  0  0  0
    1.7684   22.3318   36.4546 C   0  0  0  0  0  0  0  0  0  0  0  0
    4.7561   15.8366   38.2059 C   0  0  0  0  0  0  0  0  0  0  0  0
    0.1946   16.0396   43.5299 S   0  0  0  0  0  0  0  0  0  0  0  0
    3.1907   17.1351   39.7977 C   0  0  0  0  0  0  0  0  0  0  0  0
    3.6342   20.7989   36.0830 N   0  0  0  0  0  0  0  0  0  0  0  0
    3.1571   22.4731   34.6065 F   0  0  0  0  0  0  0  0  0  0  0  0
    1.8667   16.2510   41.6990 O   0  0  0  0  0  0  0  0  0  0  0  0
    2.2922   21.0213   37.8414 O   0  0  0  0  0  0  0  0  0  0  0  0
    1.3132   17.4592   41.8224 C   0  0  0  0  0  0  0  0  0  0  0  0
    5.7733   16.1520   37.4298 O   0  0  0  0  0  0  0  0  0  0  0  0
    4.3891   17.8515   36.7539 H   0  0  0  0  0  0  0  0  0  0  0  0
    2.0875   14.8459   43.0303 H   0  0  0  0  0  0  0  0  0  0  0  0
    0.7596   14.6658   41.8008 H   0  0  0  0  0  0  0  0  0  0  0  0
   -1.0822   21.6393   41.9630 H   0  0  0  0  0  0  0  0  0  0  0  0
   -1.8418   20.6420   43.2323 H   0  0  0  0  0  0  0  0  0  0  0  0
    0.7894   22.1945   38.4918 H   0  0  0  0  0  0  0  0  0  0  0  0
    2.2212   21.1296   35.1594 H   0  0  0  0  0  0  0  0  0  0  0  0
    1.2831   21.8815   41.5411 H   0  0  0  0  0  0  0  0  0  0  0  0
    2.1999   21.0589   40.2336 H   0  0  0  0  0  0  0  0  0  0  0  0
    0.4490   21.4013   40.0245 H   0  0  0  0  0  0  0  0  0  0  0  0
    1.1137   23.0962   36.0107 H   0  0  0  0  0  0  0  0  0  0  0  0
    3.0122   16.2825   40.4695 H   0  0  0  0  0  0  0  0  0  0  0  0
  1  7  2  0
  2  8  1  0
  2 11  1  0
  3 21  1  0
  4  1  1  0
  4  3  2  0
  5 20  1  0
  6 14  1  0
  6 26  2  0
  7  9  1  0
  9  6  1  0
 12 25  1  0
 12  1  1  0
 13 23  1  0
 13 22  1  0
 13 18  1  0
 14  2  2  0
 15 11  2  0
 15 20  1  0
 16 14  1  0
 18 10  2  0
 19 17  1  0
 19  3  1  0
 21  9  2  0
 22 12  2  0
 24 26  1  0
 24  5  1  0
 25 10  1  0
 26 15  1  0
 27 19  2  0
  4 28  1  0
  5 29  1  0
  5 30  1  0
  8 31  1  0
  8 32  1  0
 10 33  1  0
 13 34  1  6
 16 35  1  0
 16 36  1  0
 16 37  1  0
 18 38  1  0
 21 39  1  0
M  CHG  1  17  -1
M  END
>  <mol_id>  (61) 
2026-09-18-3war-s0-n100-refligand-0062

>  <rmsd_to_ref>  (61) 


$$$$

     RDKit          3D

 48 50  0  0  0  0  0  0  0  0999 V2000
    4.1170   12.9290   37.1660 N   0  0  0  0  0  0  0  0  0  0  0  0
   -0.3740   18.9940   43.5590 C   0  0  0  0  0  0  0  0  0  0  0  0
    3.7620   14.1880   37.6500 C   0  0  0  0  0  0  0  0  0  0  0  0
    3.0110   14.3350   38.7650 C   0  0  0  0  0  0  0  0  0  0  0  0
    3.8670   20.8050   36.0660 N   0  0  0  0  0  0  0  0  0  0  0  0
    0.8170   19.6780   41.3830 C   0  0  1  0  0  0  0  0  0  0  0  0
   -0.4670   21.0050   42.9110 N   0  0  0  0  0  0  0  0  0  0  0  0
    2.8230   21.4410   36.4310 C   0  0  0  0  0  0  0  0  0  0  0  0
    3.0690   16.6650   38.5020 C   0  0  0  0  0  0  0  0  0  0  0  0
    2.7790   18.1240   38.8040 N   0  0  0  0  0  0  0  0  0  0  0  0
   -1.1150   20.8370   44.2100 N   0  0  0  0  0  0  0  0  0  0  0  0
    1.2950   18.4540   41.2580 N   0  0  0  0  0  0  0  0  0  0  0  0
    2.1800   20.3270   38.6130 C   0  0  2  0  0  0  0  0  0  0  0  0
    3.9290   12.8190   35.8710 O   0  0  0  0  0  0  0  0  0  0  0  0
   -0.2960   17.8010   43.5400 N   0  0  0  0  0  0  0  0  0  0  0  0
    1.9220   18.6830   40.2050 C   0  0  0  0  0  0  0  0  0  0  0  0
    2.3520   19.1040   39.1260 C   0  0  2  0  0  0  0  0  0  0  0  0
   -0.9640   19.6120   44.5230 N   0  0  0  0  0  0  0  0  0  0  0  0
    0.9350   20.7020   40.5410 C   0  0  0  0  0  0  0  0  0  0  0  0
    1.5000   21.0870   39.4650 C   0  0  0  0  0  0  0  0  0  0  0  0
    4.2200   15.2590   36.9310 C   0  0  0  0  0  0  0  0  0  0  0  0
    3.8260   16.4960   37.3360 C   0  0  0  0  0  0  0  0  0  0  0  0
    2.7450   15.6060   39.2150 C   0  0  0  0  0  0  0  0  0  0  0  0
    2.3390   22.3440   35.7680 O   0  0  0  0  0  0  0  0  0  0  0  0
    2.0880   20.7270   37.3650 O   0  0  0  0  0  0  0  0  0  0  0  0
    3.9340   17.5780   36.5140 O   0  0  0  0  0  0  0  0  0  0  0  0
    0.0820   19.8760   42.5790 C   0  0  0  0  0  0  0  0  0  0  0  0
    4.4853   12.1707   37.7578 H   0  0  0  0  0  0  0  0  0  0  0  0
    2.6215   13.4564   39.3001 H   0  0  0  0  0  0  0  0  0  0  0  0
    4.5068   21.2197   35.3735 H   0  0  0  0  0  0  0  0  0  0  0  0
    4.0700   19.8769   36.4638 H   0  0  0  0  0  0  0  0  0  0  0  0
    1.7388   19.9853   41.8986 H   0  0  0  0  0  0  0  0  0  0  0  0
    3.6469   18.5022   38.3984 H   0  0  0  0  0  0  0  0  0  0  0  0
    1.9090   18.1819   42.0389 H   0  0  0  0  0  0  0  0  0  0  0  0
    0.6189   17.6770   41.2504 H   0  0  0  0  0  0  0  0  0  0  0  0
    3.2616   20.4180   38.4345 H   0  0  0  0  0  0  0  0  0  0  0  0
    3.0873   12.3265   35.7004 H   0  0  0  0  0  0  0  0  0  0  0  0
    0.1806   17.3284   42.7587 H   0  0  0  0  0  0  0  0  0  0  0  0
   -0.7054   17.2459   44.3049 H   0  0  0  0  0  0  0  0  0  0  0  0
    2.8817   18.8247   40.7236 H   0  0  0  0  0  0  0  0  0  0  0  0
    1.0354   18.3298   39.6580 H   0  0  0  0  0  0  0  0  0  0  0  0
    1.3679   18.8028   38.7378 H   0  0  0  0  0  0  0  0  0  0  0  0
   -1.2665   19.1823   45.4089 H   0  0  0  0  0  0  0  0  0  0  0  0
    0.3096   21.5265   40.9139 H   0  0  0  0  0  0  0  0  0  0  0  0
    1.4162   22.1554   39.2170 H   0  0  0  0  0  0  0  0  0  0  0  0
    4.8798   15.1246   36.0612 H   0  0  0  0  0  0  0  0  0  0  0  0
    2.2522   15.7415   40.1891 H   0  0  0  0  0  0  0  0  0  0  0  0
    3.6412   18.4698   36.8286 H   0  0  0  0  0  0  0  0  0  0  0  0
  1  3  1  0
  2 18  1  0
  3  4  1  0
  4 23  2  0
  5  8  1  0
  6 27  1  0
  7 11  2  0
  8 25  1  0
  9 10  1  0
  9 23  1  0
 11 18  1  0
 12  6  1  0
 13 25  1  0
 13 17  1  0
 13 20  1  0
 14  1  1  0
 15  2  1  0
 16 12  1  0
 17 10  1  0
 17 16  1  0
 19  6  1  0
 20 19  2  0
 21 22  1  0
 21  3  2  0
 22  9  2  0
 24  8  2  0
 26 22  1  0
 27  7  1  0
 27  2  2  0
  1 28  1  0
  4 29  1  0
  5 30  1  0
  5 31  1  0
  6 32  1  1
 10 33  1  0
 12 34  1  0
 12 35  1  0
 13 36  1  1
 14 37  1  0
 15 38  1  0
 15 39  1  0
 16 40  1  0
 16 41  1  0
 17 42  1  1
 18 43  1  0
 19 44  1  0
 20 45  1  0
 21 46  1  0
 23 47  1  0
 26 48  1  0
M  CHG  1  12   1
M  END
>  <mol_id>  (62) 
2026-09-18-3war-s0-n100-refligand-0063

>  <rmsd_to_ref>  (62) 


$$$$

     RDKit          3D

 55 59  0  0  0  0  0  0  0  0999 V2000
    4.4055   15.6617   37.9821 C   0  0  0  0  0  0  0  0  0  0  0  0
    2.8008   20.1170   40.0617 O   0  0  0  0  0  0  0  0  0  0  0  0
   -0.6755   19.6622   42.7524 C   0  0  0  0  0  0  0  0  0  0  0  0
    4.8056   14.9719   36.9077 C   0  0  0  0  0  0  0  0  0  0  0  0
    1.5546   20.4431   40.0878 C   0  0  0  0  0  0  0  0  0  0  0  0
    1.7934   21.6805   38.0169 C   0  0  1  0  0  0  0  0  0  0  0  0
    3.1819   17.0692   40.1735 N   0  0  0  0  0  0  0  0  0  0  0  0
    3.6649   17.8020   39.1895 C   0  0  2  0  0  0  0  0  0  0  0  0
    4.7812   17.7349   37.0963 F   0  0  0  0  0  0  0  0  0  0  0  0
    3.0962   19.1439   39.3189 C   0  0  2  0  0  0  0  0  0  0  0  0
    1.6908   15.9273   41.6425 C   0  0  0  0  0  0  0  0  0  0  0  0
    0.0871   17.4046   42.6160 C   0  0  0  0  0  0  0  0  0  0  0  0
    1.0712   17.3437   41.6139 C   0  0  0  0  0  0  0  0  0  0  0  0
    3.3321   19.8530   37.0484 C   0  0  0  0  0  0  0  0  0  0  0  0
    0.1220   16.0826   43.2483 N   0  0  0  0  0  0  0  0  0  0  0  0
    4.2138   17.1756   38.1128 C   0  0  0  0  0  0  0  0  0  0  0  0
    1.1903   21.1573   39.0846 C   0  0  0  0  0  0  0  0  0  0  0  0
    2.4370   20.9797   37.1767 C   0  0  1  0  0  0  0  0  0  0  0  0
    1.1317   15.2117   42.6681 C   0  0  0  0  0  0  0  0  0  0  0  0
   -1.6617   18.0504   44.1197 N   0  0  0  0  0  0  0  0  0  0  0  0
    3.1961   15.8238   40.1572 C   0  0  0  0  0  0  0  0  0  0  0  0
    2.5600   15.2705   41.1932 N   0  0  0  0  0  0  0  0  0  0  0  0
   -0.4040   15.8548   44.2885 O   0  0  0  0  0  0  0  0  0  0  0  0
    4.2967   20.3194   36.1594 F   0  0  0  0  0  0  0  0  0  0  0  0
    3.7906   19.8540   38.4457 C   0  0  0  0  0  0  0  0  0  0  0  0
   -0.6389   18.3486   43.2014 C   0  0  0  0  0  0  0  0  0  0  0  0
    1.9810   21.4185   35.9589 O   0  0  0  0  0  0  0  0  0  0  0  0
    2.3813   18.7215   36.9555 F   0  0  0  0  0  0  0  0  0  0  0  0
    1.8419   22.9724   37.6767 F   0  0  0  0  0  0  0  0  0  0  0  0
    0.0822   20.3909   41.8605 C   0  0  0  0  0  0  0  0  0  0  0  0
    3.9046   15.1748   39.1772 C   0  0  0  0  0  0  0  0  0  0  0  0
    0.9424   19.8180   41.0364 N   0  0  0  0  0  0  0  0  0  0  0  0
    1.2663   18.5928   41.1037 C   0  0  0  0  0  0  0  0  0  0  0  0
   -1.4863   20.2497   43.2078 H   0  0  0  0  0  0  0  0  0  0  0  0
    5.1176   13.9628   37.2151 H   0  0  0  0  0  0  0  0  0  0  0  0
    3.9752   14.8963   36.1904 H   0  0  0  0  0  0  0  0  0  0  0  0
    5.6530   15.4895   36.4344 H   0  0  0  0  0  0  0  0  0  0  0  0
    2.7198   21.7988   38.5982 H   0  0  0  0  0  0  0  0  0  0  0  0
    4.7164   18.0974   39.0586 H   0  0  0  0  0  0  0  0  0  0  0  0
    2.1628   18.6045   39.5373 H   0  0  0  0  0  0  0  0  0  0  0  0
    0.1169   21.3960   39.1132 H   0  0  0  0  0  0  0  0  0  0  0  0
    3.2924   21.6675   37.1042 H   0  0  0  0  0  0  0  0  0  0  0  0
    1.3921   14.1915   42.9863 H   0  0  0  0  0  0  0  0  0  0  0  0
   -1.2686   18.0119   45.0710 H   0  0  0  0  0  0  0  0  0  0  0  0
   -2.3856   18.7818   44.0768 H   0  0  0  0  0  0  0  0  0  0  0  0
   -2.0799   17.1391   43.8840 H   0  0  0  0  0  0  0  0  0  0  0  0
    2.8091   14.3444   41.5691 H   0  0  0  0  0  0  0  0  0  0  0  0
   -0.3551   14.9466   44.6794 H   0  0  0  0  0  0  0  0  0  0  0  0
    3.7861   20.8979   38.7927 H   0  0  0  0  0  0  0  0  0  0  0  0
    4.7784   19.3709   38.4157 H   0  0  0  0  0  0  0  0  0  0  0  0
    1.0852   21.8251   36.0690 H   0  0  0  0  0  0  0  0  0  0  0  0
   -0.0327   21.4845   41.8337 H   0  0  0  0  0  0  0  0  0  0  0  0
    3.2514   14.3420   38.8775 H   0  0  0  0  0  0  0  0  0  0  0  0
    4.8599   15.0886   39.7156 H   0  0  0  0  0  0  0  0  0  0  0  0
    2.1186   18.4875   40.4163 H   0  0  0  0  0  0  0  0  0  0  0  0
  1 31  1  0
  2  5  1  0
  3 26  1  0
  4  1  1  0
  5 32  1  0
  6 29  1  0
  6 17  1  0
  7 21  2  0
  8 16  1  0
  8 10  1  0
  8  7  1  0
  9 16  1  0
 10 25  1  0
 10  2  1  0
 11 19  2  0
 12 26  2  0
 12 15  1  0
 13 11  1  0
 13 12  1  0
 14 18  1  0
 14 28  1  0
 14 25  1  0
 15 23  1  0
 16  1  2  0
 17  5  2  0
 18 27  1  0
 18  6  1  0
 19 15  1  0
 21 22  1  0
 22 11  1  0
 24 14  1  0
 26 20  1  0
 30  3  2  0
 31 21  1  0
 32 33  1  0
 32 30  1  0
 33 13  2  0
  3 34  1  0
  4 35  1  0
  4 36  1  0
  4 37  1  0
  6 38  1  1
  8 39  1  1
 10 40  1  6
 17 41  1  0
 18 42  1  6
 19 43  1  0
 20 44  1  0
 20 45  1  0
 20 46  1  0
 22 47  1  0
 23 48  1  0
 25 49  1  0
 25 50  1  0
 27 51  1  0
 30 52  1  0
 31 53  1  0
 31 54  1  0
 33 55  1  0
M  CHG  1  20   1
M  END
>  <mol_id>  (63) 
2026-09-18-3war-s0-n100-refligand-0064

>  <rmsd_to_ref>  (63) 


$$$$

     RDKit          3D

 34 35  0  0  0  0  0  0  0  0999 V2000
    1.4440   19.4090   40.6630 C   0  0  0  0  0  0  0  0  0  0  0  0
    2.7350   18.0060   39.0610 C   0  0  2  0  0  0  0  0  0  0  0  0
    1.7750   15.4190   41.2250 C   0  0  0  0  0  0  0  0  0  0  0  0
   -0.3960   20.0250   43.2890 C   0  0  0  0  0  0  0  0  0  0  0  0
    3.5160   19.8070   36.6770 N   0  0  0  0  0  0  0  0  0  0  0  0
    0.4720   17.9670   42.5100 C   0  0  0  0  0  0  0  0  0  0  0  0
    0.8300   21.6180   40.2930 O   0  0  0  0  0  0  0  0  0  0  0  0
    3.5410   17.4700   37.8690 C   0  0  0  0  0  0  0  0  0  0  0  0
    2.4100   19.3230   39.0790 C   0  0  1  0  0  0  0  0  0  0  0  0
   -1.0720   20.5400   44.1620 O   0  0  0  0  0  0  0  0  0  0  0  0
    1.5460   16.7530   40.5670 C   0  0  2  0  0  0  0  0  0  0  0  0
    0.8150   20.6060   41.0640 C   0  0  0  0  0  0  0  0  0  0  0  0
   -0.2260   18.7290   43.4220 C   0  0  0  0  0  0  0  0  0  0  0  0
    2.7580   17.2450   40.1140 O   0  0  0  0  0  0  0  0  0  0  0  0
    2.7240   20.0610   37.6780 C   0  0  0  0  0  0  0  0  0  0  0  0
    1.1300   18.2860   41.3880 C   0  0  0  0  0  0  0  0  0  0  0  0
    2.0780   21.0970   37.7940 O   0  0  0  0  0  0  0  0  0  0  0  0
    3.5890   20.7790   35.7510 O   0  0  0  0  0  0  0  0  0  0  0  0
    0.0550   20.8260   42.3140 C   0  0  0  0  0  0  0  0  0  0  0  0
    1.6556   17.8775   38.8924 H   0  0  0  0  0  0  0  0  0  0  0  0
    1.7541   15.5409   42.3180 H   0  0  0  0  0  0  0  0  0  0  0  0
    0.9840   14.7186   40.9190 H   0  0  0  0  0  0  0  0  0  0  0  0
    2.7543   15.0225   40.9190 H   0  0  0  0  0  0  0  0  0  0  0  0
    4.0468   18.9277   36.6000 H   0  0  0  0  0  0  0  0  0  0  0  0
    0.4925   16.8935   42.7489 H   0  0  0  0  0  0  0  0  0  0  0  0
    4.4038   16.8962   38.2381 H   0  0  0  0  0  0  0  0  0  0  0  0
    2.9009   16.8170   37.2575 H   0  0  0  0  0  0  0  0  0  0  0  0
    3.8956   18.3128   37.2575 H   0  0  0  0  0  0  0  0  0  0  0  0
    2.6088   20.4029   39.1443 H   0  0  0  0  0  0  0  0  0  0  0  0
    0.6976   16.4047   39.9597 H   0  0  0  0  0  0  0  0  0  0  0  0
   -0.6603   18.2297   44.3007 H   0  0  0  0  0  0  0  0  0  0  0  0
    3.6551   21.6586   36.2004 H   0  0  0  0  0  0  0  0  0  0  0  0
    0.6801   21.5491   42.8585 H   0  0  0  0  0  0  0  0  0  0  0  0
   -0.9207   20.9427   41.8197 H   0  0  0  0  0  0  0  0  0  0  0  0
  1 12  1  0
  1 16  2  0
  2  8  1  0
  2  9  1  0
  2 14  1  0
  4 13  1  0
  4 10  2  0
  5 15  1  0
  6 13  2  0
  7 12  2  0
  9 15  1  0
  9  1  1  0
 11  3  1  0
 11 16  1  0
 12 19  1  0
 14 11  1  0
 15 17  2  0
 16  6  1  0
 18  5  1  0
 19  4  1  0
  2 20  1  6
  3 21  1  0
  3 22  1  0
  3 23  1  0
  5 24  1  0
  6 25  1  0
  8 26  1  0
  8 27  1  0
  8 28  1  0
  9 29  1  1
 11 30  1  6
 13 31  1  0
 18 32  1  0
 19 33  1  0
 19 34  1  0
M  END
>  <mol_id>  (64) 
2026-09-18-3war-s0-n100-refligand-0065

>  <rmsd_to_ref>  (64) 


$$$$

     RDKit          3D

 23 25  0  0  0  0  0  0  0  0999 V2000
    2.8330   20.6250   36.8795 C   0  0  0  0  0  0  0  0  0  0  0  0
    3.3949   18.2067   36.9849 C   0  0  0  0  0  0  0  0  0  0  0  0
    0.3682   21.2269   41.2130 C   0  0  0  0  0  0  0  0  0  0  0  0
    1.7694   18.7759   41.3315 C   0  0  0  0  0  0  0  0  0  0  0  0
    2.2319   20.5844   38.1457 C   0  0  0  0  0  0  0  0  0  0  0  0
    3.3627   19.4622   36.2469 C   0  0  0  0  0  0  0  0  0  0  0  0
    2.7860   18.1307   38.2474 C   0  0  0  0  0  0  0  0  0  0  0  0
    0.8521   19.0262   42.3708 C   0  0  0  0  0  0  0  0  0  0  0  0
    2.3137   19.3325   38.8406 C   0  0  0  0  0  0  0  0  0  0  0  0
    1.8082   19.5293   40.1351 C   0  0  0  0  0  0  0  0  0  0  0  0
    1.1625   20.8940   40.1694 C   0  0  0  0  0  0  0  0  0  0  0  0
    0.1513   20.4109   42.2852 C   0  0  0  0  0  0  0  0  0  0  0  0
    1.4982   21.5940   38.9588 C   0  0  0  0  0  0  0  0  0  0  0  0
    2.8983   21.5896   36.3548 H   0  0  0  0  0  0  0  0  0  0  0  0
    3.8928   17.3246   36.5560 H   0  0  0  0  0  0  0  0  0  0  0  0
   -0.1293   22.2078   41.1963 H   0  0  0  0  0  0  0  0  0  0  0  0
    2.4905   17.9548   41.4564 H   0  0  0  0  0  0  0  0  0  0  0  0
    3.7419   19.5124   35.2155 H   0  0  0  0  0  0  0  0  0  0  0  0
    2.6772   17.1658   38.7642 H   0  0  0  0  0  0  0  0  0  0  0  0
    0.6490   18.3032   43.1745 H   0  0  0  0  0  0  0  0  0  0  0  0
    0.4560   20.9753   43.1788 H   0  0  0  0  0  0  0  0  0  0  0  0
   -0.9120   20.1471   42.1870 H   0  0  0  0  0  0  0  0  0  0  0  0
    1.2663   22.6362   38.6941 H   0  0  0  0  0  0  0  0  0  0  0  0
  1  5  1  0
  2  7  2  0
  3 12  1  0
  4  8  2  0
  5  9  1  0
  5 13  2  0
  6  2  1  0
  6  1  2  0
  7  9  1  0
  8 12  1  0
  9 10  2  0
 10 11  1  0
 10  4  1  0
 11  3  2  0
 13 11  1  0
  1 14  1  0
  2 15  1  0
  3 16  1  0
  4 17  1  0
  6 18  1  0
  7 19  1  0
  8 20  1  0
 12 21  1  0
 12 22  1  0
 13 23  1  0
M  END
>  <mol_id>  (65) 
2026-09-18-3war-s0-n100-refligand-0066

>  <rmsd_to_ref>  (65) 


$$$$

     RDKit          3D

 42 45  0  0  0  0  0  0  0  0999 V2000
    1.7005   20.6054   39.3784 C   0  0  0  0  0  0  0  0  0  0  0  0
   -0.4057   18.7772   44.0162 C   0  0  0  0  0  0  0  0  0  0  0  0
    1.9423   22.1414   35.5206 O   0  0  0  0  0  0  0  0  0  0  0  0
    0.7252   20.0044   41.7815 C   0  0  0  0  0  0  0  0  0  0  0  0
    2.6053   21.0942   35.9118 C   0  0  0  0  0  0  0  0  0  0  0  0
    2.8360   15.9614   38.8849 C   0  0  0  0  0  0  0  0  0  0  0  0
    0.4375   16.6348   43.1382 N   0  0  0  0  0  0  0  0  0  0  0  0
    1.7564   21.4226   38.2714 C   0  0  0  0  0  0  0  0  0  0  0  0
    1.0370   15.8307   42.1644 C   0  0  0  0  0  0  0  0  0  0  0  0
    3.3703   15.0891   37.9598 N   0  0  0  0  0  0  0  0  0  0  0  0
   -0.0246   15.8298   44.2450 C   0  0  0  0  0  0  0  0  0  0  0  0
    0.9008   18.6559   41.8969 C   0  0  0  0  0  0  0  0  0  0  0  0
    1.5397   16.2774   41.0079 C   0  0  0  0  0  0  0  0  0  0  0  0
    2.3246   18.1407   39.6015 C   0  0  0  0  0  0  0  0  0  0  0  0
    3.4340   20.4863   35.1668 O   0  0  0  0  0  0  0  0  0  0  0  0
   -0.4634   20.1561   43.9153 C   0  0  0  0  0  0  0  0  0  0  0  0
    4.2870   15.5397   36.8781 C   0  0  0  0  0  0  0  0  0  0  0  0
    1.9557   14.0188   39.9100 O   0  0  0  0  0  0  0  0  0  0  0  0
    2.1386   15.2965   39.9042 C   0  0  0  0  0  0  0  0  0  0  0  0
    0.3334   17.9547   43.0773 C   0  0  0  0  0  0  0  0  0  0  0  0
    1.5855   17.7308   40.8333 C   0  0  0  0  0  0  0  0  0  0  0  0
    2.9601   17.2789   38.7785 O   0  0  0  0  0  0  0  0  0  0  0  0
    2.7911   19.4545   37.7246 N   0  0  0  0  0  0  0  0  0  0  0  0
    2.2614   19.4256   38.9595 N   0  0  0  0  0  0  0  0  0  0  0  0
    2.4142   20.6680   37.2617 C   0  0  0  0  0  0  0  0  0  0  0  0
    0.1100   20.7619   42.7206 C   0  0  0  0  0  0  0  0  0  0  0  0
    1.2973   20.8445   40.3735 H   0  0  0  0  0  0  0  0  0  0  0  0
   -0.9415   18.2852   44.8412 H   0  0  0  0  0  0  0  0  0  0  0  0
    1.1038   20.5029   40.8770 H   0  0  0  0  0  0  0  0  0  0  0  0
    1.3710   22.4493   38.1857 H   0  0  0  0  0  0  0  0  0  0  0  0
    1.0999   14.7507   42.3638 H   0  0  0  0  0  0  0  0  0  0  0  0
    3.8892   14.3815   38.4992 H   0  0  0  0  0  0  0  0  0  0  0  0
    2.5354   14.8061   37.4271 H   0  0  0  0  0  0  0  0  0  0  0  0
    0.3434   16.2585   45.1889 H   0  0  0  0  0  0  0  0  0  0  0  0
   -1.1244   15.8147   44.2534 H   0  0  0  0  0  0  0  0  0  0  0  0
    0.3555   14.8034   44.1358 H   0  0  0  0  0  0  0  0  0  0  0  0
   -0.9231   20.7694   44.7043 H   0  0  0  0  0  0  0  0  0  0  0  0
    5.2097   15.9408   37.3228 H   0  0  0  0  0  0  0  0  0  0  0  0
    4.5338   14.6875   36.2278 H   0  0  0  0  0  0  0  0  0  0  0  0
    3.7953   16.3240   36.2838 H   0  0  0  0  0  0  0  0  0  0  0  0
    1.4565   13.5936   40.6517 H   0  0  0  0  0  0  0  0  0  0  0  0
    0.0422   21.8507   42.5793 H   0  0  0  0  0  0  0  0  0  0  0  0
  3  5  1  0
  4 12  2  0
  4 26  1  0
  5 25  1  0
  6 19  2  0
  7 11  1  0
  8  1  2  0
  9  7  1  0
 10  6  1  0
 12 20  1  0
 13  9  2  0
 14 21  2  0
 15  5  2  0
 16  2  1  0
 17 10  1  0
 18 19  1  0
 19 13  1  0
 20  7  1  0
 20  2  2  0
 21 13  1  0
 21 12  1  0
 22  6  1  0
 22 14  1  0
 23 24  1  0
 24  1  1  0
 24 14  1  0
 25 23  2  0
 25  8  1  0
 26 16  2  0
  1 27  1  0
  2 28  1  0
  4 29  1  0
  8 30  1  0
  9 31  1  0
 10 32  1  0
 10 33  1  0
 11 34  1  0
 11 35  1  0
 11 36  1  0
 16 37  1  0
 17 38  1  0
 17 39  1  0
 17 40  1  0
 18 41  1  0
 26 42  1  0
M  CHG  2   3  -1  10   1
M  END
>  <mol_id>  (66) 
2026-09-18-3war-s0-n100-refligand-0067

>  <rmsd_to_ref>  (66) 


$$$$

     RDKit          3D

 22 23  0  0  0  0  0  0  0  0999 V2000
    1.5519   18.2105   40.5042 N   0  0  0  0  0  0  0  0  0  0  0  0
    1.5419   16.8884   40.5746 C   0  0  0  0  0  0  0  0  0  0  0  0
    2.5820   22.1899   36.8174 F   0  0  0  0  0  0  0  0  0  0  0  0
    2.3046   16.1695   38.2350 C   0  0  0  0  0  0  0  0  0  0  0  0
    2.5275   19.8917   37.2539 C   0  0  0  0  0  0  0  0  0  0  0  0
    2.2601   18.7730   38.1197 C   0  0  2  0  0  0  0  0  0  0  0  0
    1.7457   19.1339   39.4779 C   0  0  0  0  0  0  0  0  0  0  0  0
    1.4263   14.6727   39.8042 O   0  0  0  0  0  0  0  0  0  0  0  0
    3.0551   19.7117   36.1323 O   0  0  0  0  0  0  0  0  0  0  0  0
    1.4000   20.5020   39.7633 C   0  0  1  0  0  0  0  0  0  0  0  0
    0.8165   20.8103   41.0012 C   0  0  0  0  0  0  0  0  0  0  0  0
    0.3682   20.9481   42.0168 N   0  0  0  0  0  0  0  0  0  0  0  0
    1.7276   15.8896   39.5632 C   0  0  0  0  0  0  0  0  0  0  0  0
    2.2097   21.2806   37.6510 C   0  0  0  0  0  0  0  0  0  0  0  0
    1.1419   16.4201   41.8037 O   0  0  0  0  0  0  0  0  0  0  0  0
    1.6811   21.5598   38.8614 C   0  0  0  0  0  0  0  0  0  0  0  0
    2.4821   17.3785   37.7269 C   0  0  0  0  0  0  0  0  0  0  0  0
    2.6100   15.3094   37.6212 H   0  0  0  0  0  0  0  0  0  0  0  0
    1.2322   18.7186   37.7320 H   0  0  0  0  0  0  0  0  0  0  0  0
    0.4009   20.3394   39.3328 H   0  0  0  0  0  0  0  0  0  0  0  0
    1.4699   22.6011   39.1464 H   0  0  0  0  0  0  0  0  0  0  0  0
    2.9229   17.3200   36.7208 H   0  0  0  0  0  0  0  0  0  0  0  0
  1  2  1  0
  2 15  2  0
  3 14  1  0
  4 13  1  0
  5  6  1  0
  6 17  1  0
  6  7  1  0
  7  1  2  0
  9  5  2  0
 10  7  1  0
 10 11  1  0
 11 12  3  0
 13  8  2  0
 13  2  1  0
 14  5  1  0
 14 16  2  0
 16 10  1  0
 17  4  2  0
  4 18  1  0
  6 19  1  6
 10 20  1  6
 16 21  1  0
 17 22  1  0
M  END
>  <mol_id>  (67) 
2026-09-18-3war-s0-n100-refligand-0068

>  <rmsd_to_ref>  (67) 


$$$$

     RDKit          3D

 30 33  0  0  0  0  0  0  0  0999 V2000
    3.1405   19.3881   37.5959 C   0  0  0  0  0  0  0  0  0  0  0  0
    2.8957   18.1414   39.3842 N   0  0  0  0  0  0  0  0  0  0  0  0
    2.5253   16.9244   41.5141 C   0  0  0  0  0  0  0  0  0  0  0  0
    1.0979   21.3396   40.4983 C   0  0  0  0  0  0  0  0  0  0  0  0
    1.8163   19.2838   40.9783 C   0  0  0  0  0  0  0  0  0  0  0  0
    0.5693   21.5398   41.7610 C   0  0  0  0  0  0  0  0  0  0  0  0
    2.6706   21.6286   36.4147 C   0  0  0  0  0  0  0  0  0  0  0  0
    1.2345   18.2600   42.8884 N   0  0  0  0  0  0  0  0  0  0  0  0
    1.1609   19.3310   42.1764 C   0  0  0  0  0  0  0  0  0  0  0  0
    1.6626   21.8978   38.3811 O   0  0  0  0  0  0  0  0  0  0  0  0
    3.7688   18.1949   37.5434 N   0  0  0  0  0  0  0  0  0  0  0  0
    0.5147   20.4252   42.5904 N   0  0  0  0  0  0  0  0  0  0  0  0
    1.6709   22.0942   37.2905 C   0  0  0  0  0  0  0  0  0  0  0  0
    3.5699   17.5919   38.5558 N   0  0  0  0  0  0  0  0  0  0  0  0
    2.6482   19.3716   38.8723 C   0  0  0  0  0  0  0  0  0  0  0  0
    1.7745   20.2002   39.9150 C   0  0  0  0  0  0  0  0  0  0  0  0
    3.1177   20.3142   36.5873 C   0  0  0  0  0  0  0  0  0  0  0  0
    2.5832   17.9989   40.6841 C   0  0  0  0  0  0  0  0  0  0  0  0
    1.8525   17.0034   42.7375 C   0  0  0  0  0  0  0  0  0  0  0  0
    3.0125   15.9828   41.2205 H   0  0  0  0  0  0  0  0  0  0  0  0
    0.9842   22.1966   39.8181 H   0  0  0  0  0  0  0  0  0  0  0  0
    0.2118   22.5264   42.0906 H   0  0  0  0  0  0  0  0  0  0  0  0
    3.5418   22.2908   36.5268 H   0  0  0  0  0  0  0  0  0  0  0  0
    2.1993   21.6367   35.4208 H   0  0  0  0  0  0  0  0  0  0  0  0
    0.0000   20.4421   43.4825 H   0  0  0  0  0  0  0  0  0  0  0  0
    0.8484   22.6890   36.8664 H   0  0  0  0  0  0  0  0  0  0  0  0
    3.9566   16.6498   38.7101 H   0  0  0  0  0  0  0  0  0  0  0  0
    2.5788   19.7788   35.7918 H   0  0  0  0  0  0  0  0  0  0  0  0
    4.1670   20.6102   36.7332 H   0  0  0  0  0  0  0  0  0  0  0  0
    1.8116   16.1939   43.4812 H   0  0  0  0  0  0  0  0  0  0  0  0
  1 11  2  0
  1 15  1  0
  2 18  1  0
  3 19  1  0
  4  6  2  0
  5 18  1  0
  5  9  2  0
  6 12  1  0
  7 17  1  0
  7 13  1  0
  8 19  2  0
  9 12  1  0
  9  8  1  0
 11 14  1  0
 13 10  2  0
 14  2  1  0
 15  2  1  0
 15 16  2  0
 16  4  1  0
 16  5  1  0
 17  1  1  0
 18  3  2  0
  3 20  1  0
  4 21  1  0
  6 22  1  0
  7 23  1  0
  7 24  1  0
 12 25  1  0
 13 26  1  0
 14 27  1  0
 17 28  1  0
 17 29  1  0
 19 30  1  0
M  END
>  <mol_id>  (68) 
2026-09-18-3war-s0-n100-refligand-0069

>  <rmsd_to_ref>  (68) 


$$$$

     RDKit          3D

 21 23  0  0  0  0  0  0  0  0999 V2000
    3.0419   17.3754   39.1683 C   0  0  0  0  0  0  0  0  0  0  0  0
    1.5995   20.3090   39.7255 C   0  0  0  0  0  0  0  0  0  0  0  0
    4.0836   16.2678   37.2828 C   0  0  0  0  0  0  0  0  0  0  0  0
    2.1288   19.7178   38.4753 C   0  0  0  0  0  0  0  0  0  0  0  0
    3.7347   16.2455   38.5675 C   0  0  0  0  0  0  0  0  0  0  0  0
    2.7330   18.4584   38.3818 C   0  0  0  0  0  0  0  0  0  0  0  0
    3.0872   18.3574   36.9625 C   0  0  0  0  0  0  0  0  0  0  0  0
    2.7812   19.5299   36.3678 N   0  0  0  0  0  0  0  0  0  0  0  0
    0.8295   20.3922   41.7203 N   0  0  0  0  0  0  0  0  0  0  0  0
    1.1597   21.5876   39.9073 N   0  0  0  0  0  0  0  0  0  0  0  0
    1.3296   19.6727   40.6176 N   0  0  0  0  0  0  0  0  0  0  0  0
    2.0362   20.4115   37.2200 C   0  0  0  0  0  0  0  0  0  0  0  0
    3.7929   17.3053   36.4594 N   0  0  0  0  0  0  0  0  0  0  0  0
    0.7818   21.5259   41.1955 C   0  0  0  0  0  0  0  0  0  0  0  0
    2.7703   17.3624   40.2341 H   0  0  0  0  0  0  0  0  0  0  0  0
    4.6315   15.4073   36.8714 H   0  0  0  0  0  0  0  0  0  0  0  0
    3.9727   15.3640   39.1810 H   0  0  0  0  0  0  0  0  0  0  0  0
    1.4401   18.6487   40.6249 H   0  0  0  0  0  0  0  0  0  0  0  0
    2.4983   21.4083   37.2738 H   0  0  0  0  0  0  0  0  0  0  0  0
    1.0074   20.6073   36.8836 H   0  0  0  0  0  0  0  0  0  0  0  0
    0.4518   22.4154   41.7522 H   0  0  0  0  0  0  0  0  0  0  0  0
  2 10  2  0
  2 11  1  0
  3  5  1  0
  4  2  1  0
  5  1  2  0
  6  4  2  0
  6  1  1  0
  7  6  1  0
  8  7  2  0
  8 12  1  0
 10 14  1  0
 11  9  1  0
 12  4  1  0
 13  7  1  0
 13  3  2  0
 14  9  2  0
  1 15  1  0
  3 16  1  0
  5 17  1  0
 11 18  1  0
 12 19  1  0
 12 20  1  0
 14 21  1  0
M  END
>  <mol_id>  (69) 
2026-09-18-3war-s0-n100-refligand-0071

>  <rmsd_to_ref>  (69) 


$$$$

     RDKit          3D

 41 43  0  0  0  0  0  0  0  0999 V2000
   -0.2242   18.1828   42.6489 O   0  0  0  0  0  0  0  0  0  0  0  0
   -1.4972   20.4473   41.5164 F   0  0  0  0  0  0  0  0  0  0  0  0
    0.9964   21.0022   39.7506 C   0  0  0  0  0  0  0  0  0  0  0  0
    2.8033   19.5983   37.3018 C   0  0  2  0  0  0  0  0  0  0  0  0
    3.5067   19.2262   38.5729 C   0  0  0  0  0  0  0  0  0  0  0  0
    0.0227   21.9493   41.9544 F   0  0  0  0  0  0  0  0  0  0  0  0
    2.1197   15.1338   40.4212 C   0  0  0  0  0  0  0  0  0  0  0  0
    1.4154   17.4997   41.1411 N   0  0  0  0  0  0  0  0  0  0  0  0
    3.3923   20.0218   35.9491 O   0  0  0  0  0  0  0  0  0  0  0  0
   -0.3176   20.6391   41.9850 C   0  0  0  0  0  0  0  0  0  0  0  0
    0.6333   20.0271   40.9011 C   0  0  0  0  0  0  0  0  0  0  0  0
    1.2684   18.7010   40.5055 C   0  0  0  0  0  0  0  0  0  0  0  0
   -0.2621   20.3426   43.1865 F   0  0  0  0  0  0  0  0  0  0  0  0
    3.4533   14.9930   38.4378 C   0  0  0  0  0  0  0  0  0  0  0  0
    2.1749   21.0044   37.5541 C   0  0  0  0  0  0  0  0  0  0  0  0
    3.3018   16.4131   38.2279 C   0  0  0  0  0  0  0  0  0  0  0  0
    3.0293   14.4052   39.6524 C   0  0  0  0  0  0  0  0  0  0  0  0
    2.1075   16.5161   40.2633 C   0  0  0  0  0  0  0  0  0  0  0  0
    0.5206   17.1841   41.9821 N   0  0  0  0  0  0  0  0  0  0  0  0
    2.6160   17.1459   39.3517 C   0  0  0  0  0  0  0  0  0  0  0  0
    2.5116   18.6881   39.4903 C   0  0  0  0  0  0  0  0  0  0  0  0
    1.4808   20.8800   38.8666 C   0  0  0  0  0  0  0  0  0  0  0  0
   -0.1830   18.0282   43.6259 H   0  0  0  0  0  0  0  0  0  0  0  0
    0.6614   22.0347   39.9284 H   0  0  0  0  0  0  0  0  0  0  0  0
    2.3270   18.6160   37.1666 H   0  0  0  0  0  0  0  0  0  0  0  0
    4.2753   18.4667   38.3668 H   0  0  0  0  0  0  0  0  0  0  0  0
    3.9987   20.1065   39.0121 H   0  0  0  0  0  0  0  0  0  0  0  0
    1.1125   14.7655   40.1769 H   0  0  0  0  0  0  0  0  0  0  0  0
    2.4401   14.9734   41.4611 H   0  0  0  0  0  0  0  0  0  0  0  0
    4.1645   20.6229   36.0991 H   0  0  0  0  0  0  0  0  0  0  0  0
    4.5256   14.7703   38.3354 H   0  0  0  0  0  0  0  0  0  0  0  0
    2.7704   14.5550   37.6950 H   0  0  0  0  0  0  0  0  0  0  0  0
    2.9575   21.7759   37.6010 H   0  0  0  0  0  0  0  0  0  0  0  0
    1.4891   21.3039   36.7479 H   0  0  0  0  0  0  0  0  0  0  0  0
    4.3031   16.8487   38.0954 H   0  0  0  0  0  0  0  0  0  0  0  0
    2.6588   16.5295   37.3430 H   0  0  0  0  0  0  0  0  0  0  0  0
    2.5611   13.4400   39.4092 H   0  0  0  0  0  0  0  0  0  0  0  0
    3.9367   14.3350   40.2702 H   0  0  0  0  0  0  0  0  0  0  0  0
    0.3350   16.1907   42.1811 H   0  0  0  0  0  0  0  0  0  0  0  0
    0.7261   20.1820   38.4751 H   0  0  0  0  0  0  0  0  0  0  0  0
    2.3352   21.4078   39.3154 H   0  0  0  0  0  0  0  0  0  0  0  0
  2 10  1  0
  3 11  2  0
  4  9  1  0
  4 15  1  0
  4  5  1  0
  5 21  1  0
  6 10  1  0
  8 19  1  0
 10 13  1  0
 11 10  1  0
 12 11  1  0
 12  8  1  0
 14 17  1  0
 15 22  1  0
 16 14  1  0
 16 20  1  0
 17  7  1  0
 18  7  1  0
 18  8  1  0
 19  1  1  0
 20 21  1  0
 20 18  2  0
 21 12  2  0
 22  3  1  0
  1 23  1  0
  3 24  1  0
  4 25  1  6
  5 26  1  0
  5 27  1  0
  7 28  1  0
  7 29  1  0
  9 30  1  0
 14 31  1  0
 14 32  1  0
 15 33  1  0
 15 34  1  0
 16 35  1  0
 16 36  1  0
 17 37  1  0
 17 38  1  0
 19 39  1  0
 22 40  1  0
 22 41  1  0
M  END
>  <mol_id>  (70) 
2026-09-18-3war-s0-n100-refligand-0072

>  <rmsd_to_ref>  (70) 


$$$$

     RDKit          3D

 21 21  0  0  0  0  0  0  0  0999 V2000
    2.3854   17.7272   39.8807 C   0  0  0  0  0  0  0  0  0  0  0  0
    1.8572   18.3767   41.8997 C   0  0  0  0  0  0  0  0  0  0  0  0
    3.0824   19.3756   36.7189 N   0  0  0  0  0  0  0  0  0  0  0  0
    0.9467   21.0878   40.9180 C   0  0  0  0  0  0  0  0  0  0  0  0
    2.3952   16.5584   40.2068 F   0  0  0  0  0  0  0  0  0  0  0  0
    2.1079   20.3104   38.8065 C   0  0  0  0  0  0  0  0  0  0  0  0
    2.0519   18.8131   40.6745 C   0  0  0  0  0  0  0  0  0  0  0  0
    1.4725   18.7639   42.9933 C   0  0  0  0  0  0  0  0  0  0  0  0
    2.7929   18.0704   38.6087 C   0  0  0  0  0  0  0  0  0  0  0  0
    3.1716   20.4600   36.0936 O   0  0  0  0  0  0  0  0  0  0  0  0
    2.6735   19.3143   38.0912 C   0  0  0  0  0  0  0  0  0  0  0  0
    3.3848   18.2715   36.2595 O   0  0  0  0  0  0  0  0  0  0  0  0
    1.7434   20.0816   40.1328 C   0  0  0  0  0  0  0  0  0  0  0  0
    2.1305   17.3129   41.9602 H   0  0  0  0  0  0  0  0  0  0  0  0
    1.1708   20.9774   41.9892 H   0  0  0  0  0  0  0  0  0  0  0  0
    1.2137   22.1033   40.5902 H   0  0  0  0  0  0  0  0  0  0  0  0
   -0.1268   20.9182   40.7486 H   0  0  0  0  0  0  0  0  0  0  0  0
    1.9362   21.2947   38.3463 H   0  0  0  0  0  0  0  0  0  0  0  0
    1.4440   18.0677   43.8445 H   0  0  0  0  0  0  0  0  0  0  0  0
    1.1549   19.8086   43.1264 H   0  0  0  0  0  0  0  0  0  0  0  0
    3.2407   17.2877   37.9788 H   0  0  0  0  0  0  0  0  0  0  0  0
  1  5  1  0
  1  7  1  0
  2  8  2  3
  3 11  1  0
  6 13  1  0
  7  2  1  0
  9  1  2  0
 10  3  1  0
 11  9  1  0
 11  6  2  0
 12  3  2  0
 13  7  2  0
 13  4  1  0
  2 14  1  0
  4 15  1  0
  4 16  1  0
  4 17  1  0
  6 18  1  0
  8 19  1  0
  8 20  1  0
  9 21  1  0
M  CHG  2   3   1  10  -1
M  END
>  <mol_id>  (71) 
2026-09-18-3war-s0-n100-refligand-0073

>  <rmsd_to_ref>  (71) 


$$$$

     RDKit          3D

 50 53  0  0  0  0  0  0  0  0999 V2000
    2.4310   14.7972   40.6144 O   0  0  0  0  0  0  0  0  0  0  0  0
    2.7359   20.8444   35.6963 O   0  0  0  0  0  0  0  0  0  0  0  0
    1.5535   19.2442   40.4504 C   0  0  2  0  0  0  0  0  0  0  0  0
    1.6140   17.9018   40.6816 N   0  0  0  0  0  0  0  0  0  0  0  0
    2.1775   15.7686   39.5677 C   0  0  1  0  0  0  0  0  0  0  0  0
    4.5582   14.1097   37.5141 O   0  0  0  0  0  0  0  0  0  0  0  0
    2.0934   19.7303   39.3335 C   0  0  0  0  0  0  0  0  0  0  0  0
    2.6715   13.9634   37.1882 O   0  0  0  0  0  0  0  0  0  0  0  0
    0.3083   19.8747   43.3440 C   0  0  0  0  0  0  0  0  0  0  0  0
    0.8991   19.4260   42.7225 C   0  0  1  0  0  0  0  0  0  0  0  0
    2.2539   22.0376   35.1173 C   0  0  0  0  0  0  0  0  0  0  0  0
    3.0120   20.3693   37.5942 N   0  0  0  0  0  0  0  0  0  0  0  0
    0.0895   21.8409   42.2499 C   0  0  0  0  0  0  0  0  0  0  0  0
   -0.2177   21.1294   43.4717 N   0  0  0  0  0  0  0  0  0  0  0  0
    1.2173   18.3261   43.3602 F   0  0  0  0  0  0  0  0  0  0  0  0
    3.3502   19.2496   39.3022 C   0  0  2  0  0  0  0  0  0  0  0  0
    0.8347   19.9773   41.2716 C   0  0  1  0  0  0  0  0  0  0  0  0
    3.7584   16.9088   37.9662 O   0  0  0  0  0  0  0  0  0  0  0  0
    4.3443   18.6158   39.5062 C   0  0  0  0  0  0  0  0  0  0  0  0
    1.3835   22.0102   37.2521 O   0  0  0  0  0  0  0  0  0  0  0  0
    0.6531   21.1979   41.3370 C   0  0  0  0  0  0  0  0  0  0  0  0
    2.6733   17.1863   40.1438 C   0  0  1  0  0  0  0  0  0  0  0  0
    3.6448   19.6042   37.7005 O   0  0  0  0  0  0  0  0  0  0  0  0
    3.4511   17.7343   39.1256 C   0  0  1  0  0  0  0  0  0  0  0  0
    2.2890   21.1187   36.9730 C   0  0  0  0  0  0  0  0  0  0  0  0
    3.2083   15.7542   38.4867 C   0  0  2  0  0  0  0  0  0  0  0  0
    3.5309   14.7114   37.6954 C   0  0  0  0  0  0  0  0  0  0  0  0
    2.4434   15.2540   41.4926 H   0  0  0  0  0  0  0  0  0  0  0  0
    0.5943   19.1111   39.9287 H   0  0  0  0  0  0  0  0  0  0  0  0
    1.6448   17.7699   41.7027 H   0  0  0  0  0  0  0  0  0  0  0  0
    0.7845   17.5248   40.2014 H   0  0  0  0  0  0  0  0  0  0  0  0
    1.1389   15.5899   39.2524 H   0  0  0  0  0  0  0  0  0  0  0  0
    1.5292   19.3884   38.4533 H   0  0  0  0  0  0  0  0  0  0  0  0
    2.0769   20.8300   39.3176 H   0  0  0  0  0  0  0  0  0  0  0  0
    0.8245   19.7349   44.3052 H   0  0  0  0  0  0  0  0  0  0  0  0
   -0.6080   19.4429   42.9154 H   0  0  0  0  0  0  0  0  0  0  0  0
    1.8912   19.4761   42.2500 H   0  0  0  0  0  0  0  0  0  0  0  0
    2.0739   22.7818   35.9071 H   0  0  0  0  0  0  0  0  0  0  0  0
    2.9988   22.4283   34.4084 H   0  0  0  0  0  0  0  0  0  0  0  0
    1.3132   21.8331   34.5850 H   0  0  0  0  0  0  0  0  0  0  0  0
    2.9231   20.7212   38.5581 H   0  0  0  0  0  0  0  0  0  0  0  0
   -0.1626   22.9047   42.1287 H   0  0  0  0  0  0  0  0  0  0  0  0
   -1.2379   21.0741   43.6023 H   0  0  0  0  0  0  0  0  0  0  0  0
    0.1789   21.6137   44.2897 H   0  0  0  0  0  0  0  0  0  0  0  0
   -0.0082   19.8336   40.5796 H   0  0  0  0  0  0  0  0  0  0  0  0
    5.1989   18.7890   38.8357 H   0  0  0  0  0  0  0  0  0  0  0  0
    4.9670   18.6029   40.4130 H   0  0  0  0  0  0  0  0  0  0  0  0
    1.0324   21.7899   40.4909 H   0  0  0  0  0  0  0  0  0  0  0  0
    3.3233   17.1512   41.0305 H   0  0  0  0  0  0  0  0  0  0  0  0
    3.4334   15.4434   39.5176 H   0  0  0  0  0  0  0  0  0  0  0  0
  2 25  1  0
  3  7  1  0
  3  4  1  0
  3 17  1  0
  5 22  1  0
  5  1  1  0
  6 27  1  0
  7 16  1  0
  8 27  2  0
  9 14  1  0
 10  9  1  0
 10 15  1  0
 11  2  1  0
 12 23  1  0
 13 14  1  0
 16 23  1  1
 16 19  1  0
 17 21  1  0
 17 10  1  0
 18 26  1  0
 24 18  1  6
 21 13  2  0
 22  4  1  0
 24 16  1  0
 24 19  1  0
 24 22  1  0
 25 20  2  0
 25 12  1  0
 26 27  1  0
 26  5  1  0
  1 28  1  0
  3 29  1  1
  4 30  1  0
  4 31  1  0
  5 32  1  6
  7 33  1  0
  7 34  1  0
  9 35  1  0
  9 36  1  0
 10 37  1  1
 11 38  1  0
 11 39  1  0
 11 40  1  0
 12 41  1  0
 13 42  1  0
 14 43  1  0
 14 44  1  0
 17 45  1  6
 19 46  1  0
 19 47  1  0
 21 48  1  0
 22 49  1  1
 26 50  1  1
M  CHG  3   4   1   6  -1  14   1
M  END
>  <mol_id>  (72) 
2026-09-18-3war-s0-n100-refligand-0074

>  <rmsd_to_ref>  (72) 


$$$$

     RDKit          3D

 14 14  0  0  0  0  0  0  0  0999 V2000
    2.6448   19.6941   38.1031 C   0  0  0  0  0  0  0  0  0  0  0  0
    1.4619   21.4643   37.2325 O   0  0  0  0  0  0  0  0  0  0  0  0
    3.3701   20.7215   36.0929 O   0  0  0  0  0  0  0  0  0  0  0  0
    1.6886   19.5400   39.1013 C   0  0  0  0  0  0  0  0  0  0  0  0
    3.0659   17.9429   40.0874 C   0  0  0  0  0  0  0  0  0  0  0  0
    3.7612   18.7705   38.1150 C   0  0  0  0  0  0  0  0  0  0  0  0
    3.8761   17.9001   39.0484 C   0  0  0  0  0  0  0  0  0  0  0  0
    1.9100   18.6301   39.9726 C   0  0  0  0  0  0  0  0  0  0  0  0
    2.5858   20.7385   37.0406 C   0  0  0  0  0  0  0  0  0  0  0  0
    0.7872   20.1692   39.1396 H   0  0  0  0  0  0  0  0  0  0  0  0
    3.3257   17.4307   41.0255 H   0  0  0  0  0  0  0  0  0  0  0  0
    4.5161   18.8169   37.3163 H   0  0  0  0  0  0  0  0  0  0  0  0
    4.6485   17.1197   38.9828 H   0  0  0  0  0  0  0  0  0  0  0  0
    1.1009   18.3906   40.6783 H   0  0  0  0  0  0  0  0  0  0  0  0
  1  4  1  0
  3  9  2  0
  4  8  2  0
  5  8  1  0
  6  7  1  0
  6  1  2  0
  7  5  2  0
  9  1  1  0
  9  2  1  0
  4 10  1  0
  5 11  1  0
  6 12  1  0
  7 13  1  0
  8 14  1  0
M  CHG  1   2  -1
M  END
>  <mol_id>  (73) 
2026-09-18-3war-s0-n100-refligand-0076

>  <rmsd_to_ref>  (73) 


$$$$

     RDKit          3D

 15 15  0  0  0  0  0  0  0  0999 V2000
    1.9010   18.5930   39.7000 N   0  0  0  0  0  0  0  0  0  0  0  0
    3.5030   20.3750   36.3380 O   0  0  0  0  0  0  0  0  0  0  0  0
    3.1500   19.7580   37.3560 C   0  0  0  0  0  0  0  0  0  0  0  0
    1.4100   20.7100   40.4480 C   0  0  0  0  0  0  0  0  0  0  0  0
    1.4800   18.5650   41.0120 C   0  0  0  0  0  0  0  0  0  0  0  0
    1.8120   19.9080   39.4180 C   0  0  0  0  0  0  0  0  0  0  0  0
    3.4920   18.6670   37.7900 O   0  0  0  0  0  0  0  0  0  0  0  0
    2.1040   20.5670   38.0680 C   0  0  0  0  0  0  0  0  0  0  0  0
    1.2680   19.8090   41.5190 C   0  0  0  0  0  0  0  0  0  0  0  0
    1.2388   21.7966   40.4416 H   0  0  0  0  0  0  0  0  0  0  0  0
    0.5400   17.9964   41.0685 H   0  0  0  0  0  0  0  0  0  0  0  0
    2.2754   18.0932   41.6076 H   0  0  0  0  0  0  0  0  0  0  0  0
    2.4726   21.5911   38.2276 H   0  0  0  0  0  0  0  0  0  0  0  0
    1.1857   20.6089   37.4639 H   0  0  0  0  0  0  0  0  0  0  0  0
    1.0315   20.0615   42.5632 H   0  0  0  0  0  0  0  0  0  0  0  0
  1  5  1  0
  2  3  2  0
  3  7  1  0
  3  8  1  0
  4  9  2  0
  5  9  1  0
  6  1  2  0
  6  4  1  0
  8  6  1  0
  4 10  1  0
  5 11  1  0
  5 12  1  0
  8 13  1  0
  8 14  1  0
  9 15  1  0
M  CHG  1   7  -1
M  END
>  <mol_id>  (74) 
2026-09-18-3war-s0-n100-refligand-0077

>  <rmsd_to_ref>  (74) 


$$$$

     RDKit          3D

 27 28  0  0  0  0  0  0  0  0999 V2000
    0.0583   21.3650   41.9414 C   0  0  0  0  0  0  0  0  0  0  0  0
    0.5510   22.1375   40.9247 C   0  0  0  0  0  0  0  0  0  0  0  0
    2.9852   19.6153   38.2952 C   0  0  1  0  0  0  0  0  0  0  0  0
    0.5854   20.1193   42.2349 C   0  0  0  0  0  0  0  0  0  0  0  0
    1.1183   18.0814   42.9416 C   0  0  0  0  0  0  0  0  0  0  0  0
    2.1986   21.0710   36.4917 C   0  0  0  0  0  0  0  0  0  0  0  0
    1.5708   19.5643   41.3592 C   0  0  0  0  0  0  0  0  0  0  0  0
    4.9940   18.5112   37.8987 O   0  0  0  0  0  0  0  0  0  0  0  0
    1.5515   21.6427   40.0826 C   0  0  0  0  0  0  0  0  0  0  0  0
    2.1170   20.3852   40.4082 C   0  0  0  0  0  0  0  0  0  0  0  0
    3.1232   19.8448   39.6490 O   0  0  0  0  0  0  0  0  0  0  0  0
    3.1300   17.5813   37.4529 O   0  0  0  0  0  0  0  0  0  0  0  0
    1.8903   18.2924   41.8677 C   0  0  0  0  0  0  0  0  0  0  0  0
    3.3320   20.8173   37.3917 C   0  0  0  0  0  0  0  0  0  0  0  0
    3.7469   18.4355   37.9051 N   0  0  0  0  0  0  0  0  0  0  0  0
    0.3956   19.2185   43.2201 N   0  0  0  0  0  0  0  0  0  0  0  0
    1.4988   22.0084   36.4970 O   0  0  0  0  0  0  0  0  0  0  0  0
   -0.7808   21.7451   42.5426 H   0  0  0  0  0  0  0  0  0  0  0  0
    0.1579   23.1530   40.7693 H   0  0  0  0  0  0  0  0  0  0  0  0
    1.9109   19.4431   38.1330 H   0  0  0  0  0  0  0  0  0  0  0  0
    1.0694   17.1429   43.5133 H   0  0  0  0  0  0  0  0  0  0  0  0
    1.9864   20.3007   35.7357 H   0  0  0  0  0  0  0  0  0  0  0  0
    1.8869   22.2083   39.2009 H   0  0  0  0  0  0  0  0  0  0  0  0
    2.6380   17.5975   41.4580 H   0  0  0  0  0  0  0  0  0  0  0  0
    3.5180   21.7059   38.0128 H   0  0  0  0  0  0  0  0  0  0  0  0
    4.2356   20.5969   36.8044 H   0  0  0  0  0  0  0  0  0  0  0  0
   -0.1972   19.3594   44.0505 H   0  0  0  0  0  0  0  0  0  0  0  0
  1  4  2  0
  2  1  1  0
  3 14  1  0
  3 11  1  0
  4 16  1  0
  5 16  1  0
  6 17  2  0
  6 14  1  0
  7 13  1  0
  7  4  1  0
  9 10  1  0
  9  2  2  0
 10  7  2  0
 11 10  1  0
 12 15  1  0
 13  5  2  0
 15  8  2  0
 15  3  1  0
  1 18  1  0
  2 19  1  0
  3 20  1  1
  5 21  1  0
  6 22  1  0
  9 23  1  0
 13 24  1  0
 14 25  1  0
 14 26  1  0
 16 27  1  0
M  CHG  2  12  -1  15   1
M  END
>  <mol_id>  (75) 
2026-09-18-3war-s0-n100-refligand-0078

>  <rmsd_to_ref>  (75) 


$$$$

     RDKit          3D

 31 32  0  0  0  0  0  0  0  0999 V2000
    0.3698   21.4717   40.1554 S   0  0  0  0  0  0  0  0  0  0  0  0
    1.8848   18.3753   39.6120 C   0  0  0  0  0  0  0  0  0  0  0  0
    2.3414   15.7213   39.8207 C   0  0  0  0  0  0  0  0  0  0  0  0
    3.8334   16.2280   37.5485 O   0  0  0  0  0  0  0  0  0  0  0  0
    2.2220   22.5782   35.6973 O   0  0  0  0  0  0  0  0  0  0  0  0
    3.0195   20.5376   36.6853 C   0  0  0  0  0  0  0  0  0  0  0  0
    0.8592   18.5604   42.7522 C   0  0  0  0  0  0  0  0  0  0  0  0
    1.2734   20.9881   38.7910 C   0  0  0  0  0  0  0  0  0  0  0  0
    3.3171   15.0623   40.1030 O   0  0  0  0  0  0  0  0  0  0  0  0
    1.3458   21.8916   37.8004 C   0  0  0  0  0  0  0  0  0  0  0  0
    2.4854   17.1405   39.2571 C   0  0  0  0  0  0  0  0  0  0  0  0
    3.2018   22.4263   34.7391 C   0  0  0  0  0  0  0  0  0  0  0  0
    3.6159   18.4344   37.5324 O   0  0  0  0  0  0  0  0  0  0  0  0
    3.2985   17.1452   38.1215 C   0  0  0  0  0  0  0  0  0  0  0  0
    1.2300   15.2036   39.9868 O   0  0  0  0  0  0  0  0  0  0  0  0
    2.8434   19.5851   37.6837 C   0  0  0  0  0  0  0  0  0  0  0  0
    0.3922   17.8606   41.4604 C   0  0  0  0  0  0  0  0  0  0  0  0
    2.2374   21.7139   36.7446 C   0  0  0  0  0  0  0  0  0  0  0  0
    1.9807   19.6953   38.7190 C   0  0  0  0  0  0  0  0  0  0  0  0
    1.1159   18.6778   40.5944 O   0  0  0  0  0  0  0  0  0  0  0  0
    2.8019   20.0483   35.7244 H   0  0  0  0  0  0  0  0  0  0  0  0
    4.0535   20.8881   36.8193 H   0  0  0  0  0  0  0  0  0  0  0  0
    0.3839   18.0815   43.6210 H   0  0  0  0  0  0  0  0  0  0  0  0
    1.9524   18.4767   42.8399 H   0  0  0  0  0  0  0  0  0  0  0  0
    0.5744   19.6223   42.7175 H   0  0  0  0  0  0  0  0  0  0  0  0
    0.6960   22.7790   37.8226 H   0  0  0  0  0  0  0  0  0  0  0  0
    4.1636   22.2138   35.2287 H   0  0  0  0  0  0  0  0  0  0  0  0
    2.9371   21.5918   34.0731 H   0  0  0  0  0  0  0  0  0  0  0  0
    3.2864   23.3521   34.1511 H   0  0  0  0  0  0  0  0  0  0  0  0
    0.7016   16.8062   41.4105 H   0  0  0  0  0  0  0  0  0  0  0  0
   -0.6919   17.7802   41.2923 H   0  0  0  0  0  0  0  0  0  0  0  0
  2 20  1  0
  3  9  2  0
  3 15  1  0
  4 14  2  0
  5 18  1  0
  6 18  1  0
  6 16  1  0
  8  1  2  0
 10  8  1  0
 11  2  2  0
 11  3  1  0
 12  5  1  0
 13 16  1  0
 13 14  1  0
 14 11  1  0
 16 19  2  0
 17  7  1  0
 18 10  2  0
 19  8  1  0
 19  2  1  0
 20 17  1  0
  6 21  1  0
  6 22  1  0
  7 23  1  0
  7 24  1  0
  7 25  1  0
 10 26  1  0
 12 27  1  0
 12 28  1  0
 12 29  1  0
 17 30  1  0
 17 31  1  0
M  CHG  1  15  -1
M  END
>  <mol_id>  (76) 
2026-09-18-3war-s0-n100-refligand-0079

>  <rmsd_to_ref>  (76) 


$$$$

     RDKit          3D

 20 21  0  0  0  0  0  0  0  0999 V2000
    0.9731   19.7895   41.2361 C   0  0  0  0  0  0  0  0  0  0  0  0
    3.4207   17.6452   39.1014 C   0  0  0  0  0  0  0  0  0  0  0  0
   -0.5729   19.5164   42.9138 C   0  0  0  0  0  0  0  0  0  0  0  0
    2.1672   20.1072   39.2090 N   0  0  0  0  0  0  0  0  0  0  0  0
    3.5051   18.4748   38.0794 C   0  0  0  0  0  0  0  0  0  0  0  0
    1.8413   21.4775   36.8638 O   0  0  0  0  0  0  0  0  0  0  0  0
    3.8695   20.7864   36.2408 O   0  0  0  0  0  0  0  0  0  0  0  0
    2.0250   19.2959   40.2583 C   0  0  0  0  0  0  0  0  0  0  0  0
    2.6225   18.0589   40.2416 C   0  0  0  0  0  0  0  0  0  0  0  0
    2.8356   20.7233   37.0216 C   0  0  0  0  0  0  0  0  0  0  0  0
    0.4271   21.0158   41.1301 C   0  0  0  0  0  0  0  0  0  0  0  0
    2.8812   19.7361   38.1257 C   0  0  0  0  0  0  0  0  0  0  0  0
    0.4191   18.8878   42.2150 C   0  0  0  0  0  0  0  0  0  0  0  0
   -0.8237   21.1378   42.2552 S   0  0  0  0  0  0  0  0  0  0  0  0
    3.9369   16.6739   39.0902 H   0  0  0  0  0  0  0  0  0  0  0  0
   -1.1297   19.0807   43.7565 H   0  0  0  0  0  0  0  0  0  0  0  0
    4.0684   18.1784   37.1823 H   0  0  0  0  0  0  0  0  0  0  0  0
    2.4956   17.3783   41.0964 H   0  0  0  0  0  0  0  0  0  0  0  0
    0.7426   21.8032   40.4298 H   0  0  0  0  0  0  0  0  0  0  0  0
    0.7458   17.8497   42.3753 H   0  0  0  0  0  0  0  0  0  0  0  0
  1 11  2  0
  1 13  1  0
  2  9  1  0
  4  8  1  0
  5 12  1  0
  5  2  2  0
  6 10  1  0
  7 10  2  0
  8  1  1  0
  9  8  2  0
 10 12  1  0
 11 14  1  0
 12  4  2  0
 13  3  2  0
 14  3  1  0
  2 15  1  0
  3 16  1  0
  5 17  1  0
  9 18  1  0
 11 19  1  0
 13 20  1  0
M  CHG  1   6  -1
M  END
>  <mol_id>  (77) 
2026-09-18-3war-s0-n100-refligand-0080

>  <rmsd_to_ref>  (77) 


$$$$

     RDKit          3D

 15 15  0  0  0  0  0  0  0  0999 V2000
    1.3380   20.0050   40.7750 C   0  0  0  0  0  0  0  0  0  0  0  0
    2.7370   18.2660   39.7500 C   0  0  0  0  0  0  0  0  0  0  0  0
    2.3260   20.9890   37.3100 C   0  0  0  0  0  0  0  0  0  0  0  0
    1.5210   20.7910   39.6060 C   0  0  0  0  0  0  0  0  0  0  0  0
    2.3040   20.3840   38.5050 C   0  0  0  0  0  0  0  0  0  0  0  0
    3.6720   18.6780   37.6560 O   0  0  0  0  0  0  0  0  0  0  0  0
    2.7290   20.9780   36.2800 O   0  0  0  0  0  0  0  0  0  0  0  0
    2.9120   19.0400   38.5950 C   0  0  0  0  0  0  0  0  0  0  0  0
    1.8690   18.7090   40.7330 C   0  0  0  0  0  0  0  0  0  0  0  0
    1.8109   20.5354   41.6147 H   0  0  0  0  0  0  0  0  0  0  0  0
    0.2505   19.8767   40.8789 H   0  0  0  0  0  0  0  0  0  0  0  0
    3.2823   17.3187   39.8738 H   0  0  0  0  0  0  0  0  0  0  0  0
    1.6654   21.8654   37.3843 H   0  0  0  0  0  0  0  0  0  0  0  0
    1.0247   21.7714   39.5563 H   0  0  0  0  0  0  0  0  0  0  0  0
    1.5797   18.0038   41.5261 H   0  0  0  0  0  0  0  0  0  0  0  0
  2  9  2  0
  3  5  1  0
  4  1  1  0
  5  8  1  0
  5  4  2  0
  6  8  2  0
  7  3  2  0
  8  2  1  0
  9  1  1  0
  1 10  1  0
  1 11  1  0
  2 12  1  0
  3 13  1  0
  4 14  1  0
  9 15  1  0
M  END
>  <mol_id>  (78) 
2026-09-18-3war-s0-n100-refligand-0081

>  <rmsd_to_ref>  (78) 


$$$$

     RDKit          3D

 48 49  0  0  0  0  0  0  0  0999 V2000
    0.0418   20.8528   42.5763 C   0  0  0  0  0  0  0  0  0  0  0  0
    3.1380   17.5278   36.8106 C   0  0  0  0  0  0  0  0  0  0  0  0
    0.5657   19.7470   42.1098 C   0  0  0  0  0  0  0  0  0  0  0  0
   -0.3184   17.0993   48.0809 C   0  0  0  0  0  0  0  0  0  0  0  0
    2.9209   21.0801   35.7544 C   0  0  0  0  0  0  0  0  0  0  0  0
    1.9404   21.8357   35.6751 O   0  0  0  0  0  0  0  0  0  0  0  0
    1.3225   19.7545   40.7817 C   0  0  0  0  0  0  0  0  0  0  0  0
   -0.9242   19.9747   44.5961 C   0  0  0  0  0  0  0  0  0  0  0  0
    4.0446   21.2652   35.1814 O   0  0  0  0  0  0  0  0  0  0  0  0
    0.5065   18.6005   42.7631 C   0  0  0  0  0  0  0  0  0  0  0  0
    0.0209   18.0306   43.8730 C   0  0  0  0  0  0  0  0  0  0  0  0
    2.3671   19.9051   37.8404 C   0  0  0  0  0  0  0  0  0  0  0  0
    2.4153   14.9318   37.9515 C   0  0  0  0  0  0  0  0  0  0  0  0
    2.2849   18.7526   38.5919 C   0  0  0  0  0  0  0  0  0  0  0  0
   -0.6256   18.6111   44.8303 C   0  0  0  0  0  0  0  0  0  0  0  0
    3.4286   18.6981   36.0679 C   0  0  0  0  0  0  0  0  0  0  0  0
    1.8084   18.2742   40.4401 N   0  0  0  0  0  0  0  0  0  0  0  0
    2.8755   13.9698   38.5710 O   0  0  0  0  0  0  0  0  0  0  0  0
    1.9732   16.2150   38.6010 C   0  0  0  0  0  0  0  0  0  0  0  0
    2.0918   18.5259   39.7313 C   0  0  0  0  0  0  0  0  0  0  0  0
    2.8445   19.8602   36.6061 C   0  0  0  0  0  0  0  0  0  0  0  0
   -0.1023   17.1479   46.5990 C   0  0  0  0  0  0  0  0  0  0  0  0
    2.5181   17.4863   38.0158 C   0  0  0  0  0  0  0  0  0  0  0  0
    1.4988   20.9093   40.1970 O   0  0  0  0  0  0  0  0  0  0  0  0
    2.3987   14.8853   36.6267 O   0  0  0  0  0  0  0  0  0  0  0  0
   -0.9746   18.0376   46.0338 N   0  0  0  0  0  0  0  0  0  0  0  0
   -0.6367   20.8326   43.7258 N   0  0  0  0  0  0  0  0  0  0  0  0
    0.1606   21.7958   42.0225 H   0  0  0  0  0  0  0  0  0  0  0  0
    3.4424   16.5667   36.3705 H   0  0  0  0  0  0  0  0  0  0  0  0
    0.6542   17.1230   48.5942 H   0  0  0  0  0  0  0  0  0  0  0  0
   -0.9187   17.9667   48.3926 H   0  0  0  0  0  0  0  0  0  0  0  0
   -0.8493   16.1725   48.3438 H   0  0  0  0  0  0  0  0  0  0  0  0
   -1.5765   20.3899   45.3785 H   0  0  0  0  0  0  0  0  0  0  0  0
    1.0538   17.8394   42.1876 H   0  0  0  0  0  0  0  0  0  0  0  0
    0.1906   16.9492   43.9824 H   0  0  0  0  0  0  0  0  0  0  0  0
    2.0358   20.8635   38.2667 H   0  0  0  0  0  0  0  0  0  0  0  0
    4.0496   18.6989   35.1599 H   0  0  0  0  0  0  0  0  0  0  0  0
    1.7733   17.3676   40.9277 H   0  0  0  0  0  0  0  0  0  0  0  0
    0.8761   16.2611   38.5367 H   0  0  0  0  0  0  0  0  0  0  0  0
    2.3703   16.1735   39.6259 H   0  0  0  0  0  0  0  0  0  0  0  0
    3.0940   18.1031   39.8957 H   0  0  0  0  0  0  0  0  0  0  0  0
    1.1925   19.1544   39.6519 H   0  0  0  0  0  0  0  0  0  0  0  0
    0.9300   17.4655   46.3904 H   0  0  0  0  0  0  0  0  0  0  0  0
   -0.2751   16.1486   46.1731 H   0  0  0  0  0  0  0  0  0  0  0  0
   -1.1118   18.8030   46.7093 H   0  0  0  0  0  0  0  0  0  0  0  0
   -1.8106   17.4760   45.8181 H   0  0  0  0  0  0  0  0  0  0  0  0
   -0.1560   21.5563   44.2790 H   0  0  0  0  0  0  0  0  0  0  0  0
   -1.5590   20.7902   43.2692 H   0  0  0  0  0  0  0  0  0  0  0  0
  1 27  1  0
  2 23  1  0
  3  1  2  0
  3 10  1  0
  5 21  1  0
  6  5  1  0
  7  3  1  0
  8 15  2  0
  9  5  2  0
 10 11  2  0
 11 15  1  0
 12 14  1  0
 13 19  1  0
 13 18  1  0
 14 20  1  0
 15 26  1  0
 16 21  1  0
 16  2  2  0
 17  7  1  0
 20 17  1  0
 21 12  2  0
 22  4  1  0
 23 14  2  0
 23 19  1  0
 24  7  2  0
 25 13  2  0
 26 22  1  0
 27  8  1  0
  1 28  1  0
  2 29  1  0
  4 30  1  0
  4 31  1  0
  4 32  1  0
  8 33  1  0
 10 34  1  0
 11 35  1  0
 12 36  1  0
 16 37  1  0
 17 38  1  0
 19 39  1  0
 19 40  1  0
 20 41  1  0
 20 42  1  0
 22 43  1  0
 22 44  1  0
 26 45  1  0
 26 46  1  0
 27 47  1  0
 27 48  1  0
M  CHG  4   6  -1  18  -1  26   1  27   1
M  END
>  <mol_id>  (79) 
2026-09-18-3war-s0-n100-refligand-0082

>  <rmsd_to_ref>  (79) 


$$$$

     RDKit          3D

 67 72  0  0  0  0  0  0  0  0999 V2000
    3.1453   15.6385   40.9037 C   0  0  0  0  0  0  0  0  0  0  0  0
    0.5439   19.7870   41.7822 C   0  0  0  0  0  0  0  0  0  0  0  0
   -1.2395   20.5183   45.1695 F   0  0  0  0  0  0  0  0  0  0  0  0
    3.3896   13.1175   39.9100 C   0  0  0  0  0  0  0  0  0  0  0  0
   -1.5900   21.9802   43.2594 C   0  0  0  0  0  0  0  0  0  0  0  0
    0.5587   21.6571   44.2472 F   0  0  0  0  0  0  0  0  0  0  0  0
    3.1992   17.1771   37.4390 C   0  0  0  0  0  0  0  0  0  0  0  0
    2.8228   18.3690   37.0561 C   0  0  0  0  0  0  0  0  0  0  0  0
    6.6397   12.7315   37.2936 O   0  0  0  0  0  0  0  0  0  0  0  0
    2.2503   22.1914   36.8334 C   0  0  0  0  0  0  0  0  0  0  0  0
    5.2373   13.0589   36.9311 S   0  0  0  0  0  6  0  0  0  0  0  0
    4.6317   15.2648   36.9416 C   0  0  1  0  0  0  0  0  0  0  0  0
    4.2892   13.8301   38.0280 C   0  0  2  0  0  0  0  0  0  0  0  0
    1.7055   21.7488   37.1094 C   0  0  0  0  0  0  0  0  0  0  0  0
    3.5791   14.2792   38.8399 C   0  0  2  0  0  0  0  0  0  0  0  0
    1.9356   20.4070   36.4157 C   0  0  1  0  0  0  0  0  0  0  0  0
    5.5164   14.4215   36.0243 C   0  0  0  0  0  0  0  0  0  0  0  0
    4.5006   12.0401   36.2003 O   0  0  0  0  0  0  0  0  0  0  0  0
    2.2818   18.2713   39.7886 C   0  0  0  0  0  0  0  0  0  0  0  0
    3.3054   15.5727   39.6027 C   0  0  0  0  0  0  0  0  0  0  0  0
    0.8383   18.4193   44.9676 C   0  0  0  0  0  0  0  0  0  0  0  0
   -1.4910   20.4846   42.9768 C   0  0  2  0  0  0  0  0  0  0  0  0
    2.2724   17.9876   41.0562 C   0  0  0  0  0  0  0  0  0  0  0  0
    1.6372   19.4313   38.7881 C   0  0  0  0  0  0  0  0  0  0  0  0
    3.2524   18.7099   35.7658 N   0  0  0  0  0  0  0  0  0  0  0  0
    2.9724   20.1686   35.5162 O   0  0  0  0  0  0  0  0  0  0  0  0
    2.4715   16.6703   41.5455 C   0  0  0  0  0  0  0  0  0  0  0  0
    3.3931   16.0380   36.6419 C   0  0  0  0  0  0  0  0  0  0  0  0
   -0.2643   19.2360   40.7978 F   0  0  0  0  0  0  0  0  0  0  0  0
    2.8885   16.8328   39.0440 C   0  0  0  0  0  0  0  0  0  0  0  0
    2.0558   19.4363   37.3848 C   0  0  0  0  0  0  0  0  0  0  0  0
   -0.6189   20.9706   43.8720 C   0  0  0  0  0  0  0  0  0  0  0  0
    1.0777   20.9681   41.3640 F   0  0  0  0  0  0  0  0  0  0  0  0
   -0.2819   18.5237   43.8387 C   0  0  0  0  0  0  0  0  0  0  0  0
   -0.2128   19.7306   42.9987 C   0  0  1  0  0  0  0  0  0  0  0  0
    1.7858   18.9224   41.8260 C   0  0  0  0  0  0  0  0  0  0  0  0
    3.5681   14.8317   41.5205 H   0  0  0  0  0  0  0  0  0  0  0  0
    3.5111   13.5287   40.9231 H   0  0  0  0  0  0  0  0  0  0  0  0
    2.3831   12.6855   39.8080 H   0  0  0  0  0  0  0  0  0  0  0  0
    4.1436   12.3350   39.7392 H   0  0  0  0  0  0  0  0  0  0  0  0
   -2.4239   22.3966   43.8435 H   0  0  0  0  0  0  0  0  0  0  0  0
   -1.5464   22.9263   42.7001 H   0  0  0  0  0  0  0  0  0  0  0  0
    2.8486   22.5968   37.6625 H   0  0  0  0  0  0  0  0  0  0  0  0
    2.8982   21.6031   36.1670 H   0  0  0  0  0  0  0  0  0  0  0  0
    1.7984   23.0198   36.2680 H   0  0  0  0  0  0  0  0  0  0  0  0
    5.1401   16.2100   37.1827 H   0  0  0  0  0  0  0  0  0  0  0  0
    3.3991   13.5886   37.4285 H   0  0  0  0  0  0  0  0  0  0  0  0
    1.7997   21.6464   38.2006 H   0  0  0  0  0  0  0  0  0  0  0  0
    0.6984   22.1526   36.9288 H   0  0  0  0  0  0  0  0  0  0  0  0
    3.0379   14.7469   38.0043 H   0  0  0  0  0  0  0  0  0  0  0  0
    1.0565   20.4044   35.7545 H   0  0  0  0  0  0  0  0  0  0  0  0
    5.1433   14.3506   34.9920 H   0  0  0  0  0  0  0  0  0  0  0  0
    6.5509   14.7390   35.8263 H   0  0  0  0  0  0  0  0  0  0  0  0
    0.3598   18.3946   45.9577 H   0  0  0  0  0  0  0  0  0  0  0  0
    1.4231   17.4995   44.8198 H   0  0  0  0  0  0  0  0  0  0  0  0
    1.5051   19.2918   44.9042 H   0  0  0  0  0  0  0  0  0  0  0  0
   -2.3365   19.9967   42.4696 H   0  0  0  0  0  0  0  0  0  0  0  0
    0.9186   20.1723   39.1682 H   0  0  0  0  0  0  0  0  0  0  0  0
    3.6909   18.0640   35.0939 H   0  0  0  0  0  0  0  0  0  0  0  0
    2.0487   16.4427   42.5351 H   0  0  0  0  0  0  0  0  0  0  0  0
    3.4374   16.3599   35.5910 H   0  0  0  0  0  0  0  0  0  0  0  0
    2.5502   15.3647   36.8564 H   0  0  0  0  0  0  0  0  0  0  0  0
   -0.1868   17.6461   43.1825 H   0  0  0  0  0  0  0  0  0  0  0  0
   -1.2452   18.5738   44.3676 H   0  0  0  0  0  0  0  0  0  0  0  0
    0.5453   20.2737   43.5820 H   0  0  0  0  0  0  0  0  0  0  0  0
    2.5998   19.6613   41.8616 H   0  0  0  0  0  0  0  0  0  0  0  0
    1.4030   18.2333   42.5932 H   0  0  0  0  0  0  0  0  0  0  0  0
  1 27  2  0
  2 36  1  0
  2 35  1  0
  5 32  1  0
  7 30  1  0
  8 31  1  0
  8  7  2  0
 10 14  1  0
 11  9  2  0
 12 17  1  0
 12 13  1  0
 13 11  1  0
 13 15  1  0
 15 20  1  0
 15  4  1  0
 16 14  1  0
 16 31  1  0
 17 11  1  0
 18 11  2  0
 19 23  2  0
 20  1  1  0
 22 35  1  0
 22  5  1  0
 22 32  1  0
 23 27  1  0
 23 36  1  0
 24 19  1  0
 25  8  1  0
 26 25  1  0
 26 16  1  0
 28 12  1  0
 28  7  1  0
 29  2  1  0
 30 20  2  0
 30 19  1  0
 31 24  2  0
 32  6  1  0
 32  3  1  0
 33  2  1  0
 34 21  1  0
 35 34  1  0
  1 37  1  0
  4 38  1  0
  4 39  1  0
  4 40  1  0
  5 41  1  0
  5 42  1  0
 10 43  1  0
 10 44  1  0
 10 45  1  0
 12 46  1  1
 13 47  1  6
 14 48  1  0
 14 49  1  0
 15 50  1  6
 16 51  1  6
 17 52  1  0
 17 53  1  0
 21 54  1  0
 21 55  1  0
 21 56  1  0
 22 57  1  1
 24 58  1  0
 25 59  1  0
 27 60  1  0
 28 61  1  0
 28 62  1  0
 34 63  1  0
 34 64  1  0
 35 65  1  1
 36 66  1  0
 36 67  1  0
M  END
>  <mol_id>  (80) 
2026-09-18-3war-s0-n100-refligand-0083

>  <rmsd_to_ref>  (80) 


$$$$

     RDKit          3D

 52 57  0  0  0  0  0  0  0  0999 V2000
    1.0856   20.8030   38.1076 C   0  0  0  0  0  0  0  0  0  0  0  0
    1.5874   21.4240   39.4515 C   0  0  2  0  0  0  0  0  0  0  0  0
    3.2708   18.3365   41.3919 F   0  0  0  0  0  0  0  0  0  0  0  0
    1.6695   17.0781   40.0169 C   0  0  0  0  0  0  0  0  0  0  0  0
    1.6709   13.7846   40.0783 O   0  0  0  0  0  0  0  0  0  0  0  0
   -0.3914   21.4219   43.3731 C   0  0  2  0  0  0  0  0  0  0  0  0
    2.5658   13.4079   39.5781 C   0  0  0  0  0  0  0  0  0  0  0  0
    3.0506   21.6934   37.5697 F   0  0  0  0  0  0  0  0  0  0  0  0
    3.3575   19.2511   36.6806 O   0  0  0  0  0  0  0  0  0  0  0  0
    1.3627   15.7879   40.5575 C   0  0  0  0  0  0  0  0  0  0  0  0
    0.9022   21.1336   42.8694 C   0  0  0  0  0  0  0  0  0  0  0  0
    2.4563   18.9392   38.9251 C   0  0  2  0  0  0  0  0  0  0  0  0
    2.8093   19.2368   40.3828 C   0  0  1  0  0  0  0  0  0  0  0  0
   -1.1822   20.5826   44.3446 C   0  0  1  0  0  0  0  0  0  0  0  0
    1.0726   22.6219   40.1019 F   0  0  0  0  0  0  0  0  0  0  0  0
    0.8428   19.5941   43.0327 O   0  0  0  0  0  0  0  0  0  0  0  0
    1.4539   22.7542   37.5269 F   0  0  0  0  0  0  0  0  0  0  0  0
    0.8516   20.1748   41.7478 C   0  0  1  0  0  0  0  0  0  0  0  0
    2.3852   14.8524   39.6827 C   0  0  2  0  0  0  0  0  0  0  0  0
    1.8424   21.6085   38.0135 C   0  0  0  0  0  0  0  0  0  0  0  0
   -1.2182   20.4237   43.0583 C   0  0  2  0  0  0  0  0  0  0  0  0
   -0.2223   18.9195   43.0371 O   0  0  0  0  0  0  0  0  0  0  0  0
    2.9507   16.6967   38.3106 C   0  0  0  0  0  0  0  0  0  0  0  0
    1.0458   20.6918   40.5848 C   0  0  2  0  0  0  0  0  0  0  0  0
   -1.1508   19.0644   45.1665 O   0  0  0  0  0  0  0  0  0  0  0  0
    1.3516   19.1360   40.8687 C   0  0  1  0  0  0  0  0  0  0  0  0
    2.3623   17.4572   39.0172 C   0  0  0  0  0  0  0  0  0  0  0  0
    0.8058   17.9377   40.7757 O   0  0  0  0  0  0  0  0  0  0  0  0
    3.0174   19.3643   37.6687 C   0  0  0  0  0  0  0  0  0  0  0  0
    2.9231   15.4760   38.5937 C   0  0  0  0  0  0  0  0  0  0  0  0
    1.0860   20.4181   39.1381 H   0  0  0  0  0  0  0  0  0  0  0  0
    0.0905   21.2050   37.8666 H   0  0  0  0  0  0  0  0  0  0  0  0
    1.3300   19.9871   37.4114 H   0  0  0  0  0  0  0  0  0  0  0  0
    2.3966   20.7740   39.0871 H   0  0  0  0  0  0  0  0  0  0  0  0
   -0.2243   22.5084   43.3348 H   0  0  0  0  0  0  0  0  0  0  0  0
    3.3520   12.9124   40.1666 H   0  0  0  0  0  0  0  0  0  0  0  0
    2.7449   12.7145   38.7431 H   0  0  0  0  0  0  0  0  0  0  0  0
    4.0661   18.5602   36.6527 H   0  0  0  0  0  0  0  0  0  0  0  0
    0.6431   15.5044   41.3397 H   0  0  0  0  0  0  0  0  0  0  0  0
    1.3643   22.0681   42.5186 H   0  0  0  0  0  0  0  0  0  0  0  0
    1.4924   20.6814   43.6800 H   0  0  0  0  0  0  0  0  0  0  0  0
    1.6563   19.6659   38.7201 H   0  0  0  0  0  0  0  0  0  0  0  0
    3.5698   20.0292   40.3218 H   0  0  0  0  0  0  0  0  0  0  0  0
   -1.6032   20.9467   45.2934 H   0  0  0  0  0  0  0  0  0  0  0  0
   -1.9904   20.3997   42.2754 H   0  0  0  0  0  0  0  0  0  0  0  0
    3.5042   17.0585   37.4316 H   0  0  0  0  0  0  0  0  0  0  0  0
    0.5945   21.6394   40.2557 H   0  0  0  0  0  0  0  0  0  0  0  0
   -1.0674   19.2183   46.1409 H   0  0  0  0  0  0  0  0  0  0  0  0
    3.9426   19.7965   38.0775 H   0  0  0  0  0  0  0  0  0  0  0  0
    1.9934   19.3776   37.2671 H   0  0  0  0  0  0  0  0  0  0  0  0
    3.9811   15.1752   38.6032 H   0  0  0  0  0  0  0  0  0  0  0  0
    2.1711   15.1651   37.8535 H   0  0  0  0  0  0  0  0  0  0  0  0
  2 15  1  0
  4 28  1  0
  4 10  2  0
  6 11  1  0
  6 14  1  0
  7  5  1  0
  8 20  1  0
  9 29  1  0
 12 29  1  0
 12 27  1  0
 12 13  1  0
 13 26  1  0
 13  3  1  0
 14 25  1  0
 16 22  1  0
 17 20  1  0
 18 11  1  0
 18 16  1  1
 19 30  1  0
 19  7  1  0
 19 10  1  0
 19  5  1  1
 20  1  1  0
 20  2  1  0
 21  6  1  0
 21 22  1  0
 21 14  1  0
 23 27  2  0
 23 30  1  0
 24  2  1  0
 24 26  1  0
 24 18  1  0
 26 28  1  6
 26 18  1  0
 27  4  1  0
  1 31  1  0
  1 32  1  0
  1 33  1  0
  2 34  1  1
  6 35  1  6
  7 36  1  0
  7 37  1  0
  9 38  1  0
 10 39  1  0
 11 40  1  0
 11 41  1  0
 12 42  1  6
 13 43  1  6
 14 44  1  1
 21 45  1  6
 23 46  1  0
 24 47  1  6
 25 48  1  0
 29 49  1  0
 29 50  1  0
 30 51  1  0
 30 52  1  0
M  END
>  <mol_id>  (81) 
2026-09-18-3war-s0-n100-refligand-0084

>  <rmsd_to_ref>  (81) 


$$$$

     RDKit          3D

 18 17  0  0  0  0  0  0  0  0999 V2000
    1.4180   20.9709   40.7176 C   0  0  0  0  0  0  0  0  0  0  0  0
    3.1580   19.8211   39.1078 C   0  0  0  0  0  0  0  0  0  0  0  0
    4.2012   18.0694   37.8002 C   0  0  0  0  0  0  0  0  0  0  0  0
    3.1681   19.2291   37.6514 C   0  0  0  0  0  0  0  0  0  0  0  0
    4.0256   16.9901   36.8739 O   0  0  0  0  0  0  0  0  0  0  0  0
    2.0250   20.9204   39.1106 C   0  0  0  0  0  0  0  0  0  0  0  0
    2.2391   20.7857   41.4256 H   0  0  0  0  0  0  0  0  0  0  0  0
    0.9813   21.9613   40.9136 H   0  0  0  0  0  0  0  0  0  0  0  0
    0.6451   20.1982   40.8421 H   0  0  0  0  0  0  0  0  0  0  0  0
    4.1323   20.2731   39.3454 H   0  0  0  0  0  0  0  0  0  0  0  0
    2.9721   19.0428   39.8625 H   0  0  0  0  0  0  0  0  0  0  0  0
    5.2084   18.4866   37.6536 H   0  0  0  0  0  0  0  0  0  0  0  0
    4.0508   17.6456   38.8041 H   0  0  0  0  0  0  0  0  0  0  0  0
    3.5033   19.9750   36.9157 H   0  0  0  0  0  0  0  0  0  0  0  0
    2.1804   18.9088   37.2884 H   0  0  0  0  0  0  0  0  0  0  0  0
    3.8096   16.1612   37.3703 H   0  0  0  0  0  0  0  0  0  0  0  0
    2.4410   21.8988   38.8282 H   0  0  0  0  0  0  0  0  0  0  0  0
    1.2310   20.6826   38.3873 H   0  0  0  0  0  0  0  0  0  0  0  0
  2  6  1  0
  4  3  1  0
  4  2  1  0
  5  3  1  0
  6  1  1  0
  1  7  1  0
  1  8  1  0
  1  9  1  0
  2 10  1  0
  2 11  1  0
  3 12  1  0
  3 13  1  0
  4 14  1  0
  4 15  1  0
  5 16  1  0
  6 17  1  0
  6 18  1  0
M  END
>  <mol_id>  (82) 
2026-09-18-3war-s0-n100-refligand-0085

>  <rmsd_to_ref>  (82) 


$$$$

     RDKit          3D

 46 50  0  0  0  0  0  0  0  0999 V2000
    2.9229   14.7056   39.0515 C   0  0  0  0  0  0  0  0  0  0  0  0
   -0.8143   20.4329   42.9003 N   0  0  0  0  0  0  0  0  0  0  0  0
    2.7682   19.1674   38.4099 O   0  0  0  0  0  0  0  0  0  0  0  0
    1.5481   17.2010   41.1187 C   0  0  0  0  0  0  0  0  0  0  0  0
    3.6021   14.4050   37.9462 C   0  0  0  0  0  0  0  0  0  0  0  0
    2.2049   21.1031   37.3589 O   0  0  0  0  0  0  0  0  0  0  0  0
    3.7620   12.9119   37.8864 O   0  0  0  0  0  0  0  0  0  0  0  0
    3.6555   16.8075   37.6104 C   0  0  0  0  0  0  0  0  0  0  0  0
    0.7098   21.1452   39.9060 C   0  0  0  0  0  0  0  0  0  0  0  0
    0.8516   18.1391   41.7680 C   0  0  0  0  0  0  0  0  0  0  0  0
    2.4361   15.8271   39.4553 C   0  0  0  0  0  0  0  0  0  0  0  0
   -0.6173   19.5750   43.9966 N   0  0  0  0  0  0  0  0  0  0  0  0
    4.0995   12.2250   36.7631 C   0  0  0  0  0  0  0  0  0  0  0  0
    2.7237   20.0478   37.3432 C   0  0  0  0  0  0  0  0  0  0  0  0
    3.4139   19.3037   36.1508 C   0  0  0  0  0  0  0  0  0  0  0  0
   -0.0360   21.4264   40.8655 N   0  0  0  0  0  0  0  0  0  0  0  0
    3.9715   17.9608   36.6485 N   0  0  0  0  0  0  0  0  0  0  0  0
   -0.1103   20.4033   41.7218 C   0  0  0  0  0  0  0  0  0  0  0  0
    4.0091   15.5781   37.2197 C   0  0  0  0  0  0  0  0  0  0  0  0
    2.9301   16.9449   38.8730 C   0  0  0  0  0  0  0  0  0  0  0  0
    2.0707   17.5928   39.8006 C   0  0  2  0  0  0  0  0  0  0  0  0
    5.5221   11.7647   36.9228 C   0  0  0  0  0  0  0  0  0  0  0  0
    1.9882   18.8728   39.5217 C   0  0  2  0  0  0  0  0  0  0  0  0
    0.5762   19.3526   41.2481 C   0  0  1  0  0  0  0  0  0  0  0  0
    1.3983   15.8965   41.7567 C   0  0  0  0  0  0  0  0  0  0  0  0
    1.1039   19.7884   40.0860 C   0  0  0  0  0  0  0  0  0  0  0  0
    2.7495   13.8575   39.7301 H   0  0  0  0  0  0  0  0  0  0  0  0
   -1.5518   21.1464   42.9890 H   0  0  0  0  0  0  0  0  0  0  0  0
    1.0048   21.8131   39.0833 H   0  0  0  0  0  0  0  0  0  0  0  0
    0.4840   17.9094   42.7790 H   0  0  0  0  0  0  0  0  0  0  0  0
   -0.8483   20.0730   44.8681 H   0  0  0  0  0  0  0  0  0  0  0  0
   -1.2265   18.7499   43.9008 H   0  0  0  0  0  0  0  0  0  0  0  0
    3.4356   11.3565   36.6407 H   0  0  0  0  0  0  0  0  0  0  0  0
    3.9976   12.8642   35.8738 H   0  0  0  0  0  0  0  0  0  0  0  0
    4.2357   19.9206   35.7583 H   0  0  0  0  0  0  0  0  0  0  0  0
    2.6796   19.1256   35.3514 H   0  0  0  0  0  0  0  0  0  0  0  0
    4.8647   17.7688   36.1728 H   0  0  0  0  0  0  0  0  0  0  0  0
    4.6283   15.4608   36.3181 H   0  0  0  0  0  0  0  0  0  0  0  0
    5.7829   11.7438   37.9913 H   0  0  0  0  0  0  0  0  0  0  0  0
    5.6307   10.7554   36.4991 H   0  0  0  0  0  0  0  0  0  0  0  0
    6.1933   12.4581   36.3950 H   0  0  0  0  0  0  0  0  0  0  0  0
    2.0457   19.4234   40.4722 H   0  0  0  0  0  0  0  0  0  0  0  0
   -0.3456   18.9519   40.8011 H   0  0  0  0  0  0  0  0  0  0  0  0
    1.2814   16.0304   42.8422 H   0  0  0  0  0  0  0  0  0  0  0  0
    0.5095   15.3903   41.3518 H   0  0  0  0  0  0  0  0  0  0  0  0
    2.2910   15.2857   41.5566 H   0  0  0  0  0  0  0  0  0  0  0  0
  1 11  2  0
  2 12  1  0
  4 25  1  0
  4 10  2  0
  5  1  1  0
  7  5  1  0
  8 20  2  0
  9 26  2  0
  9 16  1  0
 11 21  1  0
 13  7  1  0
 14  6  2  0
 14  3  1  0
 15 17  1  0
 15 14  1  0
 16 18  2  0
 17  8  1  0
 18  2  1  0
 19  8  1  0
 19  5  2  0
 20 11  1  0
 21 20  1  0
 21  4  1  1
 22 13  1  0
 23  3  1  0
 23 21  1  0
 23 26  1  0
 24 10  1  0
 24 18  1  0
 26 24  1  0
  1 27  1  0
  2 28  1  0
  9 29  1  0
 10 30  1  0
 12 31  1  0
 12 32  1  0
 13 33  1  0
 13 34  1  0
 15 35  1  0
 15 36  1  0
 17 37  1  0
 19 38  1  0
 22 39  1  0
 22 40  1  0
 22 41  1  0
 23 42  1  1
 24 43  1  6
 25 44  1  0
 25 45  1  0
 25 46  1  0
M  END
>  <mol_id>  (83) 
2026-09-18-3war-s0-n100-refligand-0086

>  <rmsd_to_ref>  (83) 


$$$$

     RDKit          3D

 49 54  0  0  0  0  0  0  0  0999 V2000
    1.6934   16.8818   42.4032 C   0  0  0  0  0  0  0  0  0  0  0  0
    1.2558   20.7917   41.6134 C   0  0  0  0  0  0  0  0  0  0  0  0
    3.5866   19.0569   36.1346 C   0  0  0  0  0  0  0  0  0  0  0  0
    0.8721   20.3363   42.8562 C   0  0  0  0  0  0  0  0  0  0  0  0
    2.4513   17.6086   39.7609 C   0  0  0  0  0  0  0  0  0  0  0  0
    3.9197   13.2218   38.7624 C   0  0  0  0  0  0  0  0  0  0  0  0
   -0.2372   20.4081   45.2525 O   0  0  0  0  0  0  0  0  0  0  0  0
    4.0709   15.2064   37.2260 C   0  0  0  0  0  0  0  0  0  0  0  0
    3.5244   16.0374   38.2395 C   0  0  2  0  0  0  0  0  0  0  0  0
    3.1426   21.3717   37.0203 C   0  0  0  0  0  0  0  0  0  0  0  0
    1.9909   18.5918   40.8215 C   0  0  0  0  0  0  0  0  0  0  0  0
    1.6525   18.2100   41.9955 C   0  0  0  0  0  0  0  0  0  0  0  0
    2.6165   16.2792   40.2823 C   0  0  0  0  0  0  0  0  0  0  0  0
    4.7986   12.9981   36.4074 O   0  0  0  0  0  0  0  0  0  0  0  0
    4.3234   13.8275   37.4834 C   0  0  0  0  0  0  0  0  0  0  0  0
   -0.3862   22.0154   44.2062 N   0  0  0  0  0  0  0  0  0  0  0  0
    2.7677   20.1981   39.3158 C   0  0  2  0  0  0  0  0  0  0  0  0
    3.3245   14.0853   39.7664 C   0  0  0  0  0  0  0  0  0  0  0  0
    2.6643   19.4424   38.3603 C   0  0  2  0  0  0  0  0  0  0  0  0
    1.2301   18.9082   42.9254 O   0  0  0  0  0  0  0  0  0  0  0  0
    3.0916   15.3515   39.3976 C   0  0  0  0  0  0  0  0  0  0  0  0
    2.1723   15.9346   41.6071 C   0  0  0  0  0  0  0  0  0  0  0  0
    1.8729   20.8874   40.5580 C   0  0  0  0  0  0  0  0  0  0  0  0
   -0.0107   20.6685   43.9885 C   0  0  0  0  0  0  0  0  0  0  0  0
    3.4435   21.0186   34.9745 F   0  0  0  0  0  0  0  0  0  0  0  0
    3.4481   20.4784   36.0272 C   0  0  2  0  0  0  0  0  0  0  0  0
    3.1986   18.3500   37.2427 C   0  0  2  0  0  0  0  0  0  0  0  0
    3.0668   17.5624   38.3351 C   0  0  0  0  0  0  0  0  0  0  0  0
    2.6111   20.4563   38.0261 C   0  0  2  0  0  0  0  0  0  0  0  0
    1.3223   16.6113   43.4028 H   0  0  0  0  0  0  0  0  0  0  0  0
    4.6578   18.8460   36.0007 H   0  0  0  0  0  0  0  0  0  0  0  0
    2.8598   18.7082   35.3862 H   0  0  0  0  0  0  0  0  0  0  0  0
    4.0645   12.1479   38.9519 H   0  0  0  0  0  0  0  0  0  0  0  0
    4.3006   15.6292   36.2368 H   0  0  0  0  0  0  0  0  0  0  0  0
    4.3159   16.4718   37.6112 H   0  0  0  0  0  0  0  0  0  0  0  0
    2.3887   22.1033   36.6943 H   0  0  0  0  0  0  0  0  0  0  0  0
    3.9831   21.9958   37.3581 H   0  0  0  0  0  0  0  0  0  0  0  0
    1.9467   19.6627   40.5742 H   0  0  0  0  0  0  0  0  0  0  0  0
    4.9800   12.0378   36.5655 H   0  0  0  0  0  0  0  0  0  0  0  0
   -1.0028   22.2570   44.9951 H   0  0  0  0  0  0  0  0  0  0  0  0
   -0.0428   22.7541   43.5759 H   0  0  0  0  0  0  0  0  0  0  0  0
    3.4132   20.2092   40.2064 H   0  0  0  0  0  0  0  0  0  0  0  0
    3.0786   13.7197   40.7743 H   0  0  0  0  0  0  0  0  0  0  0  0
    2.2685   18.4422   38.5900 H   0  0  0  0  0  0  0  0  0  0  0  0
    2.2293   14.8934   41.9572 H   0  0  0  0  0  0  0  0  0  0  0  0
    1.8078   21.9533   40.2944 H   0  0  0  0  0  0  0  0  0  0  0  0
    4.1775   19.8276   36.5315 H   0  0  0  0  0  0  0  0  0  0  0  0
    3.3649   17.6310   36.4269 H   0  0  0  0  0  0  0  0  0  0  0  0
    1.9965   21.0530   37.3359 H   0  0  0  0  0  0  0  0  0  0  0  0
  2  4  2  0
  3 27  1  0
  4 20  1  0
  4 24  1  0
  5 13  1  0
  5 11  1  0
  6 18  2  0
  8 15  2  0
  9  8  1  0
  9 28  1  0
  9 21  1  0
 10 29  1  0
 11 12  2  0
 12  1  1  0
 12 20  1  0
 13 22  1  0
 14 15  1  0
 15  6  1  0
 17 23  1  0
 19 17  1  0
 21 18  1  0
 21 13  2  0
 22  1  2  0
 23  2  2  0
 24 16  1  0
 24  7  2  0
 25 26  1  0
 26  3  1  0
 26 10  1  0
 27 19  1  0
 27 28  1  0
 28  5  2  0
 29 19  1  0
 29 17  1  0
  1 30  1  0
  3 31  1  0
  3 32  1  0
  6 33  1  0
  8 34  1  0
  9 35  1  1
 10 36  1  0
 10 37  1  0
 11 38  1  0
 14 39  1  0
 16 40  1  0
 16 41  1  0
 17 42  1  1
 18 43  1  0
 19 44  1  1
 22 45  1  0
 23 46  1  0
 26 47  1  1
 27 48  1  6
 29 49  1  1
M  END
>  <mol_id>  (84) 
2026-09-18-3war-s0-n100-refligand-0087

>  <rmsd_to_ref>  (84) 


$$$$

     RDKit          3D

 28 30  0  0  0  0  0  0  0  0999 V2000
    3.3730   17.6704   37.9997 C   0  0  0  0  0  0  0  0  0  0  0  0
    3.9160   16.1333   38.1138 S   0  0  0  0  0  0  0  0  0  0  0  0
    3.1432   15.9805   39.6153 C   0  0  0  0  0  0  0  0  0  0  0  0
   -0.1384   21.7482   41.8573 C   0  0  0  0  0  0  0  0  0  0  0  0
    0.7897   21.3592   40.8929 C   0  0  0  0  0  0  0  0  0  0  0  0
    2.5424   19.3779   39.2138 C   0  0  0  0  0  0  0  0  0  0  0  0
    2.6174   20.3464   38.2250 C   0  0  0  0  0  0  0  0  0  0  0  0
    2.7195   18.0825   39.0686 C   0  0  0  0  0  0  0  0  0  0  0  0
    2.5380   17.0222   39.9713 N   0  0  0  0  0  0  0  0  0  0  0  0
    1.3416   20.0676   41.0057 C   0  0  0  0  0  0  0  0  0  0  0  0
    3.6404   18.6144   37.0598 C   0  0  0  0  0  0  0  0  0  0  0  0
    3.2346   19.8067   37.1030 C   0  0  0  0  0  0  0  0  0  0  0  0
    0.0009   19.5834   42.8407 C   0  0  0  0  0  0  0  0  0  0  0  0
   -0.5593   20.8420   42.8219 C   0  0  0  0  0  0  0  0  0  0  0  0
    2.2208   19.6097   40.4221 O   0  0  0  0  0  0  0  0  0  0  0  0
    3.2357   14.8664   40.3693 N   0  0  0  0  0  0  0  0  0  0  0  0
    3.2717   20.5873   36.0562 O   0  0  0  0  0  0  0  0  0  0  0  0
    0.8866   19.1786   41.9261 C   0  0  0  0  0  0  0  0  0  0  0  0
   -0.5376   22.7732   41.8544 H   0  0  0  0  0  0  0  0  0  0  0  0
    1.0803   22.0348   40.0749 H   0  0  0  0  0  0  0  0  0  0  0  0
    2.2471   21.3783   38.3143 H   0  0  0  0  0  0  0  0  0  0  0  0
    4.2559   18.3162   36.1983 H   0  0  0  0  0  0  0  0  0  0  0  0
   -0.2922   18.8854   43.6389 H   0  0  0  0  0  0  0  0  0  0  0  0
   -1.3265   21.1242   43.5580 H   0  0  0  0  0  0  0  0  0  0  0  0
    2.7496   14.8162   41.2760 H   0  0  0  0  0  0  0  0  0  0  0  0
    3.7925   14.0655   40.0385 H   0  0  0  0  0  0  0  0  0  0  0  0
    2.9454   21.5196   36.1220 H   0  0  0  0  0  0  0  0  0  0  0  0
    1.2430   18.1379   41.9186 H   0  0  0  0  0  0  0  0  0  0  0  0
  1  8  1  0
  2  1  1  0
  2  3  1  0
  3  9  2  0
  3 16  1  0
  4 14  2  0
  5  4  1  0
  6 15  1  0
  7  6  1  0
  8  6  2  0
  8  9  1  0
 10  5  2  0
 10 18  1  0
 11 12  1  0
 11  1  2  0
 12  7  2  0
 13 14  1  0
 15 10  1  0
 17 12  1  0
 18 13  2  0
  4 19  1  0
  5 20  1  0
  7 21  1  0
 11 22  1  0
 13 23  1  0
 14 24  1  0
 16 25  1  0
 16 26  1  0
 17 27  1  0
 18 28  1  0
M  END
>  <mol_id>  (85) 
2026-09-18-3war-s0-n100-refligand-0088

>  <rmsd_to_ref>  (85) 


$$$$

     RDKit          3D

 21 21  0  0  0  0  0  0  0  0999 V2000
    2.9740   16.4730   39.3630 O   0  0  0  0  0  0  0  0  0  0  0  0
    2.2810   20.4160   38.5970 C   0  0  0  0  0  0  0  0  0  0  0  0
    3.2490   18.3210   37.9340 C   0  0  0  0  0  0  0  0  0  0  0  0
    1.9230   18.4500   40.0320 C   0  0  0  0  0  0  0  0  0  0  0  0
    2.8080   17.6850   39.1520 C   0  0  0  0  0  0  0  0  0  0  0  0
    1.7150   19.8060   39.7810 C   0  0  0  0  0  0  0  0  0  0  0  0
    1.1540   17.7900   41.2160 C   0  0  0  0  0  0  0  0  0  0  0  0
    3.0020   19.7010   37.7180 C   0  0  0  0  0  0  0  0  0  0  0  0
    1.6790   18.2620   42.4330 O   0  0  0  0  0  0  0  0  0  0  0  0
    0.8780   20.7140   40.6560 C   0  0  0  0  0  0  0  0  0  0  0  0
    3.2790   20.2740   36.5700 O   0  0  0  0  0  0  0  0  0  0  0  0
    2.1172   21.4881   38.4131 H   0  0  0  0  0  0  0  0  0  0  0  0
    4.3390   18.1829   37.8819 H   0  0  0  0  0  0  0  0  0  0  0  0
    2.6361   17.8335   37.1615 H   0  0  0  0  0  0  0  0  0  0  0  0
    0.0870   18.0494   41.1511 H   0  0  0  0  0  0  0  0  0  0  0  0
    1.2676   16.6971   41.1652 H   0  0  0  0  0  0  0  0  0  0  0  0
    1.2017   17.8329   43.1868 H   0  0  0  0  0  0  0  0  0  0  0  0
    1.0816   20.4931   41.7142 H   0  0  0  0  0  0  0  0  0  0  0  0
    1.1324   21.7631   40.4449 H   0  0  0  0  0  0  0  0  0  0  0  0
   -0.1883   20.5457   40.4449 H   0  0  0  0  0  0  0  0  0  0  0  0
    3.0981   21.2389   36.4420 H   0  0  0  0  0  0  0  0  0  0  0  0
  2  6  1  0
  3  5  1  0
  4  7  1  0
  5  1  2  0
  5  4  1  0
  6  4  2  0
  6 10  1  0
  7  9  1  0
  8  3  1  0
  8  2  2  0
 11  8  1  0
  2 12  1  0
  3 13  1  0
  3 14  1  0
  7 15  1  0
  7 16  1  0
  9 17  1  0
 10 18  1  0
 10 19  1  0
 10 20  1  0
 11 21  1  0
M  END
>  <mol_id>  (86) 
2026-09-18-3war-s0-n100-refligand-0089

>  <rmsd_to_ref>  (86) 


$$$$

     RDKit          3D

 11 10  0  0  0  0  0  0  0  0999 V2000
    2.6740   20.0540   37.7050 C   0  0  0  0  0  0  0  0  0  0  0  0
    2.5630   18.6390   39.8060 C   0  0  0  0  0  0  0  0  0  0  0  0
    1.2260   20.9680   41.1130 O   0  0  0  0  0  0  0  0  0  0  0  0
    1.5700   20.9390   39.7750 C   0  0  0  0  0  0  0  0  0  0  0  0
    3.5360   19.2590   37.2350 O   0  0  0  0  0  0  0  0  0  0  0  0
    2.1330   20.9720   37.0610 O   0  0  0  0  0  0  0  0  0  0  0  0
    3.0800   17.6580   39.2460 O   0  0  0  0  0  0  0  0  0  0  0  0
    2.2290   19.9460   39.1280 C   0  0  0  0  0  0  0  0  0  0  0  0
    2.2000   18.5540   40.9760 O   0  0  0  0  0  0  0  0  0  0  0  0
    0.7422   21.7485   41.4829 H   0  0  0  0  0  0  0  0  0  0  0  0
    1.2791   21.8119   39.1722 H   0  0  0  0  0  0  0  0  0  0  0  0
  1  8  1  0
  2  9  1  0
  4  3  1  0
  5  1  1  0
  6  1  2  0
  7  2  2  0
  8  4  2  3
  8  2  1  0
  3 10  1  0
  4 11  1  0
M  CHG  2   5  -1   9  -1
M  END
>  <mol_id>  (87) 
2026-09-18-3war-s0-n100-refligand-0090

>  <rmsd_to_ref>  (87) 


$$$$

     RDKit          3D

 29 32  0  0  0  0  0  0  0  0999 V2000
    1.3500   19.2170   41.0550 C   0  0  0  0  0  0  0  0  0  0  0  0
    2.0890   14.6660   40.7830 C   0  0  0  0  0  0  0  0  0  0  0  0
    3.2490   14.5950   38.6650 C   0  0  0  0  0  0  0  0  0  0  0  0
    2.4360   16.7080   39.6310 C   0  0  0  0  0  0  0  0  0  0  0  0
    3.1440   19.2090   37.1460 N   0  0  0  0  0  0  0  0  0  0  0  0
    1.8800   19.1290   39.7660 C   0  0  0  0  0  0  0  0  0  0  0  0
    3.0230   15.9520   38.5250 C   0  0  0  0  0  0  0  0  0  0  0  0
    1.4370   21.5100   39.4910 C   0  0  0  0  0  0  0  0  0  0  0  0
    2.0050   20.3480   38.9580 C   0  0  0  0  0  0  0  0  0  0  0  0
    3.3720   16.7870   37.5410 N   0  0  0  0  0  0  0  0  0  0  0  0
    0.8770   20.3710   41.5140 C   0  0  0  0  0  0  0  0  0  0  0  0
    1.8430   16.0310   40.7540 C   0  0  0  0  0  0  0  0  0  0  0  0
    3.0100   18.0490   37.8570 C   0  0  0  0  0  0  0  0  0  0  0  0
    0.8910   21.5270   40.7210 C   0  0  0  0  0  0  0  0  0  0  0  0
    2.3670   17.9700   39.2110 C   0  0  1  0  0  0  0  0  0  0  0  0
    2.6960   13.9870   39.8250 C   0  0  0  0  0  0  0  0  0  0  0  0
    2.6380   20.2770   37.6590 C   0  0  0  0  0  0  0  0  0  0  0  0
    1.3238   18.3234   41.6960 H   0  0  0  0  0  0  0  0  0  0  0  0
    1.7540   14.1071   41.6692 H   0  0  0  0  0  0  0  0  0  0  0  0
    3.8225   14.0202   37.9230 H   0  0  0  0  0  0  0  0  0  0  0  0
    1.4366   22.4317   38.8906 H   0  0  0  0  0  0  0  0  0  0  0  0
    3.8469   16.5088   36.6704 H   0  0  0  0  0  0  0  0  0  0  0  0
    0.4674   20.4200   42.5337 H   0  0  0  0  0  0  0  0  0  0  0  0
    1.2481   16.5493   41.5205 H   0  0  0  0  0  0  0  0  0  0  0  0
    0.4510   22.4579   41.1082 H   0  0  0  0  0  0  0  0  0  0  0  0
    1.3965   17.7595   38.7379 H   0  0  0  0  0  0  0  0  0  0  0  0
    2.7775   12.8951   39.9308 H   0  0  0  0  0  0  0  0  0  0  0  0
    3.4609   21.0062   37.6922 H   0  0  0  0  0  0  0  0  0  0  0  0
    1.7671   20.4219   37.0029 H   0  0  0  0  0  0  0  0  0  0  0  0
  1 11  1  0
  3 16  1  0
  4 12  2  0
  5 17  1  0
  5 13  2  0
  6  1  2  0
  7  3  2  0
  7  4  1  0
  8 14  1  0
  9  8  2  0
  9  6  1  0
 10 13  1  0
 10  7  1  0
 12  2  1  0
 14 11  2  0
 15 13  1  0
 15  4  1  0
 15  6  1  0
 16  2  2  0
 17  9  1  0
  1 18  1  0
  2 19  1  0
  3 20  1  0
  8 21  1  0
 10 22  1  0
 11 23  1  0
 12 24  1  0
 14 25  1  0
 15 26  1  6
 16 27  1  0
 17 28  1  0
 17 29  1  0
M  END
>  <mol_id>  (88) 
2026-09-18-3war-s0-n100-refligand-0091

>  <rmsd_to_ref>  (88) 


$$$$

     RDKit          3D

 43 45  0  0  0  0  0  0  0  0999 V2000
    2.3926   15.6542   38.7930 C   0  0  0  0  0  0  0  0  0  0  0  0
    0.6669   21.6877   41.9495 N   0  0  0  0  0  0  0  0  0  0  0  0
    1.7477   15.0838   41.6151 C   0  0  0  0  0  0  0  0  0  0  0  0
    1.5294   16.4104   41.2364 O   0  0  0  0  0  0  0  0  0  0  0  0
    3.7438   12.2927   41.1278 O   0  0  0  0  0  0  0  0  0  0  0  0
    0.9664   18.0842   42.4451 C   0  0  0  0  0  0  0  0  0  0  0  0
    1.5763   11.9313   41.6376 O   0  0  0  0  0  0  0  0  0  0  0  0
    2.5779   12.8022   41.2188 C   0  0  0  0  0  0  0  0  0  0  0  0
    3.1542   21.2005   35.3219 N   0  0  0  0  0  0  0  0  0  0  0  0
    1.2547   14.9067   42.8201 O   0  0  0  0  0  0  0  0  0  0  0  0
    2.6451   14.3852   39.3115 C   0  0  0  0  0  0  0  0  0  0  0  0
    1.4995   20.4107   40.3432 C   0  0  1  0  0  0  0  0  0  0  0  0
    0.1742   17.9156   43.5605 C   0  0  0  0  0  0  0  0  0  0  0  0
   -0.1650   20.3000   43.6339 N   0  0  0  0  0  0  0  0  0  0  0  0
    2.7898   18.2972   37.5687 C   0  0  2  0  0  0  0  0  0  0  0  0
    2.8530   20.2467   36.3108 C   0  0  1  0  0  0  0  0  0  0  0  0
    2.3937   19.4399   38.2675 C   0  0  2  0  0  0  0  0  0  0  0  0
   -0.3337   19.0371   44.1488 C   0  0  0  0  0  0  0  0  0  0  0  0
    2.5520   16.7331   38.0521 C   0  0  0  0  0  0  0  0  0  0  0  0
    2.2924   20.4967   37.4540 N   0  0  0  0  0  0  0  0  0  0  0  0
    2.1540   19.4610   39.6068 C   0  0  0  0  0  0  0  0  0  0  0  0
    1.1285   19.3855   41.7400 C   0  0  2  0  0  0  0  0  0  0  0  0
    2.2943   14.1144   40.7148 C   0  0  0  0  0  0  0  0  0  0  0  0
    2.1623   18.5926   40.2060 O   0  0  0  0  0  0  0  0  0  0  0  0
    0.5697   20.4433   42.5009 C   0  0  0  0  0  0  0  0  0  0  0  0
    1.2086   21.6238   40.7145 C   0  0  0  0  0  0  0  0  0  0  0  0
    3.4018   18.6646   36.1446 S   0  0  0  0  0  0  0  0  0  0  0  0
    1.5079   17.2100   42.0546 H   0  0  0  0  0  0  0  0  0  0  0  0
    3.5284   22.0506   35.7673 H   0  0  0  0  0  0  0  0  0  0  0  0
    3.8565   20.8143   34.6750 H   0  0  0  0  0  0  0  0  0  0  0  0
    2.2982   21.4352   34.7992 H   0  0  0  0  0  0  0  0  0  0  0  0
    3.0971   13.6023   38.6847 H   0  0  0  0  0  0  0  0  0  0  0  0
    1.4208   20.9995   39.4173 H   0  0  0  0  0  0  0  0  0  0  0  0
   -0.0404   16.9141   43.9616 H   0  0  0  0  0  0  0  0  0  0  0  0
    1.8227   18.2823   37.0448 H   0  0  0  0  0  0  0  0  0  0  0  0
    3.8438   20.4024   36.7627 H   0  0  0  0  0  0  0  0  0  0  0  0
    1.3391   19.1873   38.0828 H   0  0  0  0  0  0  0  0  0  0  0  0
   -0.9064   18.9248   45.0812 H   0  0  0  0  0  0  0  0  0  0  0  0
    2.7579   21.3055   37.8900 H   0  0  0  0  0  0  0  0  0  0  0  0
    1.2953   20.7020   37.2978 H   0  0  0  0  0  0  0  0  0  0  0  0
    0.0723   19.3518   41.4348 H   0  0  0  0  0  0  0  0  0  0  0  0
    2.1315   22.2224   40.7065 H   0  0  0  0  0  0  0  0  0  0  0  0
    0.4586   22.0102   40.0087 H   0  0  0  0  0  0  0  0  0  0  0  0
  1 11  1  0
  2 25  2  0
  3 10  1  0
  4  3  2  0
  6 13  2  0
  8  5  2  0
  8  7  1  0
 11 23  2  3
 12 21  1  0
 12 26  1  0
 12 22  1  0
 13 18  1  0
 14 18  2  0
 15 19  1  0
 15 17  1  0
 16  9  1  0
 16 20  1  0
 17 21  1  0
 19  1  3  0
 20 17  1  0
 21 24  2  0
 22  6  1  0
 22 25  1  0
 23  8  1  0
 23  3  1  0
 25 14  1  0
 26  2  1  0
 27 16  1  0
 27 15  1  0
  6 28  1  0
  9 29  1  0
  9 30  1  0
  9 31  1  0
 11 32  1  0
 12 33  1  6
 13 34  1  0
 15 35  1  1
 16 36  1  6
 17 37  1  6
 18 38  1  0
 20 39  1  0
 20 40  1  0
 22 41  1  1
 26 42  1  0
 26 43  1  0
M  CHG  4   7  -1   9   1  10  -1  20   1
M  END
>  <mol_id>  (89) 
2026-09-18-3war-s0-n100-refligand-0092

>  <rmsd_to_ref>  (89) 


$$$$

     RDKit          3D

 24 25  0  0  0  0  0  0  0  0999 V2000
    2.8603   18.8608   39.4281 C   0  0  1  0  0  0  0  0  0  0  0  0
    1.7522   21.2612   40.0934 C   0  0  0  0  0  0  0  0  0  0  0  0
    2.7042   19.1169   40.6426 C   0  0  1  0  0  0  0  0  0  0  0  0
    3.1455   19.2360   36.8934 O   0  0  0  0  0  0  0  0  0  0  0  0
    1.9115   20.7951   38.8212 C   0  0  1  0  0  0  0  0  0  0  0  0
    2.0984   20.4577   41.2558 C   0  0  0  0  0  0  0  0  0  0  0  0
    2.6516   21.3107   36.6243 O   0  0  0  0  0  0  0  0  0  0  0  0
    2.3095   18.4027   40.0056 C   0  0  0  0  0  0  0  0  0  0  0  0
    2.0465   21.6510   37.6885 N   0  0  0  0  0  0  0  0  0  0  0  0
    2.6214   19.4969   38.1094 C   0  0  2  0  0  0  0  0  0  0  0  0
    3.2472   17.4836   38.9973 C   0  0  0  0  0  0  0  0  0  0  0  0
    1.3503   22.2740   40.2447 H   0  0  0  0  0  0  0  0  0  0  0  0
    3.2189   19.1600   41.6138 H   0  0  0  0  0  0  0  0  0  0  0  0
    4.0450   18.8367   37.0006 H   0  0  0  0  0  0  0  0  0  0  0  0
    1.0560   20.4799   39.4368 H   0  0  0  0  0  0  0  0  0  0  0  0
    1.9709   20.7168   42.3173 H   0  0  0  0  0  0  0  0  0  0  0  0
    3.5051   20.8665   36.8576 H   0  0  0  0  0  0  0  0  0  0  0  0
    1.2296   18.4682   39.8068 H   0  0  0  0  0  0  0  0  0  0  0  0
    2.3111   17.3156   40.1739 H   0  0  0  0  0  0  0  0  0  0  0  0
    1.0874   21.8939   37.4023 H   0  0  0  0  0  0  0  0  0  0  0  0
    2.3465   19.1012   37.1205 H   0  0  0  0  0  0  0  0  0  0  0  0
    3.4142   16.8552   39.8846 H   0  0  0  0  0  0  0  0  0  0  0  0
    2.4409   17.0501   38.3874 H   0  0  0  0  0  0  0  0  0  0  0  0
    4.1715   17.5315   38.4028 H   0  0  0  0  0  0  0  0  0  0  0  0
  1 11  1  1
  1  8  1  0
  1  3  1  0
  2  6  2  0
  3  8  1  0
  3  6  1  0
  5  9  1  0
  5  2  1  0
  7  9  1  0
 10  4  1  0
 10  5  1  0
 10  1  1  0
  2 12  1  0
  3 13  1  1
  4 14  1  0
  5 15  1  6
  6 16  1  0
  7 17  1  0
  8 18  1  0
  8 19  1  0
  9 20  1  0
 10 21  1  6
 11 22  1  0
 11 23  1  0
 11 24  1  0
M  END
>  <mol_id>  (90) 
2026-09-18-3war-s0-n100-refligand-0093

>  <rmsd_to_ref>  (90) 


$$$$

     RDKit          3D

 18 18  0  0  0  0  0  0  0  0999 V2000
    2.1563   20.2488   39.1334 C   0  0  1  0  0  0  0  0  0  0  0  0
    1.2239   21.1810   39.5281 C   0  0  0  0  0  0  0  0  0  0  0  0
    2.0121   20.9435   36.7835 O   0  0  0  0  0  0  0  0  0  0  0  0
    2.4563   19.1832   40.0392 C   0  0  0  0  0  0  0  0  0  0  0  0
    1.0593   21.2183   40.9123 C   0  0  0  0  0  0  0  0  0  0  0  0
    2.6495   20.4384   37.6609 C   0  0  0  0  0  0  0  0  0  0  0  0
    3.7791   19.9108   37.4178 O   0  0  0  0  0  0  0  0  0  0  0  0
    1.8959   19.2292   41.3777 C   0  0  0  0  0  0  0  0  0  0  0  0
    1.1326   20.2926   41.7875 C   0  0  0  0  0  0  0  0  0  0  0  0
    2.9637   20.9061   39.4885 H   0  0  0  0  0  0  0  0  0  0  0  0
    1.5502   22.1737   39.1847 H   0  0  0  0  0  0  0  0  0  0  0  0
    0.2584   20.8968   39.0842 H   0  0  0  0  0  0  0  0  0  0  0  0
    3.0984   18.3459   39.7281 H   0  0  0  0  0  0  0  0  0  0  0  0
    1.8027   21.9570   41.2466 H   0  0  0  0  0  0  0  0  0  0  0  0
   -0.0357   21.3222   40.9160 H   0  0  0  0  0  0  0  0  0  0  0  0
    2.0863   18.3989   42.0736 H   0  0  0  0  0  0  0  0  0  0  0  0
    1.5757   20.7103   42.7036 H   0  0  0  0  0  0  0  0  0  0  0  0
    0.1121   19.9195   41.9592 H   0  0  0  0  0  0  0  0  0  0  0  0
  1  6  1  0
  1  2  1  0
  1  4  1  0
  2  5  1  0
  3  6  2  0
  4  8  2  0
  5  9  1  0
  7  6  1  0
  8  9  1  0
  1 10  1  1
  2 11  1  0
  2 12  1  0
  4 13  1  0
  5 14  1  0
  5 15  1  0
  8 16  1  0
  9 17  1  0
  9 18  1  0
M  CHG  1   7  -1
M  END
>  <mol_id>  (91) 
2026-09-18-3war-s0-n100-refligand-0094

>  <rmsd_to_ref>  (91) 


$$$$

     RDKit          3D

 34 36  0  0  0  0  0  0  0  0999 V2000
    1.2900   15.1370   42.4340 O   0  0  0  0  0  0  0  0  0  0  0  0
    0.1070   18.1770   43.2250 C   0  0  0  0  0  0  0  0  0  0  0  0
    2.8010   20.0170   37.5090 C   0  0  0  0  0  0  0  0  0  0  0  0
   -0.4960   19.4800   43.6520 C   0  0  0  0  0  0  0  0  0  0  0  0
    2.9020   18.2450   39.1860 C   0  0  0  0  0  0  0  0  0  0  0  0
    1.6230   15.5820   41.3660 C   0  0  0  0  0  0  0  0  0  0  0  0
    1.8430   18.6780   39.8730 C   0  0  0  0  0  0  0  0  0  0  0  0
    3.2860   18.8700   37.9740 C   0  0  0  0  0  0  0  0  0  0  0  0
    3.0520   20.4760   36.2790 O   0  0  0  0  0  0  0  0  0  0  0  0
    0.9180   20.8690   40.6910 C   0  0  0  0  0  0  0  0  0  0  0  0
    1.5850   20.1710   39.6480 C   0  0  0  0  0  0  0  0  0  0  0  0
    1.9820   20.7240   38.4140 C   0  0  0  0  0  0  0  0  0  0  0  0
    2.4900   15.1220   40.6270 O   0  0  0  0  0  0  0  0  0  0  0  0
    0.8880   16.6600   40.8460 N   0  0  0  0  0  0  0  0  0  0  0  0
    0.0690   20.5680   42.9520 O   0  0  0  0  0  0  0  0  0  0  0  0
    0.6060   20.0690   41.7780 C   0  0  0  0  0  0  0  0  0  0  0  0
    3.9860   17.9640   37.1340 O   0  0  0  0  0  0  0  0  0  0  0  0
    1.0980   17.9910   40.8750 C   0  0  1  0  0  0  0  0  0  0  0  0
    0.6050   18.6870   41.9680 C   0  0  0  0  0  0  0  0  0  0  0  0
    3.9140   16.6110   37.6640 C   0  0  0  0  0  0  0  0  0  0  0  0
    0.9065   17.8316   43.8969 H   0  0  0  0  0  0  0  0  0  0  0  0
   -0.5449   17.2913   43.1997 H   0  0  0  0  0  0  0  0  0  0  0  0
   -1.5783   19.4534   43.4572 H   0  0  0  0  0  0  0  0  0  0  0  0
   -0.2933   19.6181   44.7243 H   0  0  0  0  0  0  0  0  0  0  0  0
    3.4840   17.3922   39.5655 H   0  0  0  0  0  0  0  0  0  0  0  0
    2.6646   21.3378   35.9836 H   0  0  0  0  0  0  0  0  0  0  0  0
   -0.0155   21.2888   40.2879 H   0  0  0  0  0  0  0  0  0  0  0  0
    1.6050   21.6497   41.0496 H   0  0  0  0  0  0  0  0  0  0  0  0
    1.6433   21.7364   38.1489 H   0  0  0  0  0  0  0  0  0  0  0  0
    0.0290   16.3817   40.3505 H   0  0  0  0  0  0  0  0  0  0  0  0
    0.1753   18.1492   40.2974 H   0  0  0  0  0  0  0  0  0  0  0  0
    3.9159   16.6473   38.7634 H   0  0  0  0  0  0  0  0  0  0  0  0
    2.9889   16.1291   37.3147 H   0  0  0  0  0  0  0  0  0  0  0  0
    4.7827   16.0336   37.3147 H   0  0  0  0  0  0  0  0  0  0  0  0
  2  4  1  0
  3  8  1  0
  3 12  2  0
  5  7  1  0
  6  1  1  0
  7 18  1  0
  8  5  2  0
  9  3  1  0
 10 16  1  0
 11  7  2  0
 11 10  1  0
 12 11  1  0
 13  6  2  0
 14  6  1  0
 15  4  1  0
 16 19  2  0
 16 15  1  0
 17 20  1  0
 17  8  1  0
 18 14  1  0
 18 19  1  0
 19  2  1  0
  2 21  1  0
  2 22  1  0
  4 23  1  0
  4 24  1  0
  5 25  1  0
  9 26  1  0
 10 27  1  0
 10 28  1  0
 12 29  1  0
 14 30  1  0
 18 31  1  6
 20 32  1  0
 20 33  1  0
 20 34  1  0
M  CHG  1   1  -1
M  END
>  <mol_id>  (92) 
2026-09-18-3war-s0-n100-refligand-0095

>  <rmsd_to_ref>  (92) 


$$$$

     RDKit          3D

 30 34  0  0  0  0  0  0  0  0999 V2000
    1.9890   20.2620   39.2310 C   0  0  0  0  0  0  0  0  0  0  0  0
    0.3470   18.7230   42.8420 C   0  0  0  0  0  0  0  0  0  0  0  0
    0.9450   15.1880   41.2460 N   0  0  0  0  0  0  0  0  0  0  0  0
    1.8340   15.0250   40.1900 N   0  0  0  0  0  0  0  0  0  0  0  0
    0.3510   17.3050   42.8800 C   0  0  0  0  0  0  0  0  0  0  0  0
    3.1670   19.5560   37.0520 C   0  0  0  0  0  0  0  0  0  0  0  0
    0.9540   19.3400   41.7670 C   0  0  0  0  0  0  0  0  0  0  0  0
    1.6750   18.5760   40.8680 C   0  0  0  0  0  0  0  0  0  0  0  0
    2.4710   20.4350   37.8300 C   0  0  2  0  0  0  0  0  0  0  0  0
    2.4520   19.1360   39.9060 N   0  0  0  0  0  0  0  0  0  0  0  0
    2.2680   21.5070   37.0040 N   0  0  0  0  0  0  0  0  0  0  0  0
    0.8500   20.8010   41.3810 C   0  0  0  0  0  0  0  0  0  0  0  0
    2.3520   16.2880   40.0820 C   0  0  0  0  0  0  0  0  0  0  0  0
    1.3810   21.1850   40.1070 C   0  0  0  0  0  0  0  0  0  0  0  0
    3.5950   18.5350   39.7640 C   0  0  0  0  0  0  0  0  0  0  0  0
    3.3840   20.1200   35.8060 N   0  0  0  0  0  0  0  0  0  0  0  0
    0.8740   16.4660   41.8540 C   0  0  0  0  0  0  0  0  0  0  0  0
    1.6890   17.1940   40.9610 C   0  0  0  0  0  0  0  0  0  0  0  0
    2.8860   21.2700   35.7920 N   0  0  0  0  0  0  0  0  0  0  0  0
    3.4450   17.0470   39.2150 C   0  0  0  0  0  0  0  0  0  0  0  0
   -0.1244   19.3115   43.6430 H   0  0  0  0  0  0  0  0  0  0  0  0
   -0.0812   16.8175   43.7663 H   0  0  0  0  0  0  0  0  0  0  0  0
    3.5029   18.5565   37.3654 H   0  0  0  0  0  0  0  0  0  0  0  0
    1.5248   20.0194   37.4532 H   0  0  0  0  0  0  0  0  0  0  0  0
    0.3851   21.5380   42.0523 H   0  0  0  0  0  0  0  0  0  0  0  0
    1.3119   22.2392   39.8006 H   0  0  0  0  0  0  0  0  0  0  0  0
    4.2094   19.1107   39.0561 H   0  0  0  0  0  0  0  0  0  0  0  0
    4.0644   18.4763   40.7571 H   0  0  0  0  0  0  0  0  0  0  0  0
    3.1291   17.0719   38.1616 H   0  0  0  0  0  0  0  0  0  0  0  0
    4.4094   16.5231   39.2884 H   0  0  0  0  0  0  0  0  0  0  0  0
  1 10  1  0
  1 14  2  0
  2  5  2  0
  3 17  2  0
  4  3  1  0
  6  9  1  0
  7  2  1  0
  8 18  2  0
  8  7  1  0
  9  1  1  0
 10  8  1  0
 11  9  1  0
 12  7  2  0
 13  4  2  0
 13 18  1  0
 14 12  1  0
 15 10  1  0
 16  6  2  0
 17  5  1  0
 18 17  1  0
 19 16  1  0
 19 11  2  0
 20 15  1  0
 20 13  1  0
  2 21  1  0
  5 22  1  0
  6 23  1  0
  9 24  1  6
 12 25  1  0
 14 26  1  0
 15 27  1  0
 15 28  1  0
 20 29  1  0
 20 30  1  0
M  END
>  <mol_id>  (93) 
2026-09-18-3war-s0-n100-refligand-0096

>  <rmsd_to_ref>  (93) 


$$$$

     RDKit          3D

 40 41  0  0  0  0  0  0  0  0999 V2000
    1.0896   21.0400   40.0796 C   0  0  0  0  0  0  0  0  0  0  0  0
    2.4244   18.1910   40.5696 O   0  0  0  0  0  0  0  0  0  0  0  0
   -0.0598   18.2911   44.1100 C   0  0  0  0  0  0  0  0  0  0  0  0
    0.8586   17.0422   42.3109 C   0  0  0  0  0  0  0  0  0  0  0  0
   -0.7983   19.5159   44.0254 O   0  0  0  0  0  0  0  0  0  0  0  0
    1.7882   20.5888   38.8100 C   0  0  0  0  0  0  0  0  0  0  0  0
    4.0398   17.8968   37.5936 O   0  0  0  0  0  0  0  0  0  0  0  0
    1.9033   17.1826   41.3590 C   0  0  1  0  0  0  0  0  0  0  0  0
    0.5628   18.3556   42.7871 C   0  0  0  0  0  0  0  0  0  0  0  0
    3.9356   16.5576   37.6651 C   0  0  0  0  0  0  0  0  0  0  0  0
    1.7670   21.2623   37.6720 C   0  0  0  0  0  0  0  0  0  0  0  0
    2.3944   20.9503   36.3912 C   0  0  0  0  0  0  0  0  0  0  0  0
    3.1051   18.6570   38.1603 C   0  0  1  0  0  0  0  0  0  0  0  0
    3.1797   16.3185   38.7971 N   0  0  0  0  0  0  0  0  0  0  0  0
    1.8529   16.1042   40.5535 N   0  0  0  0  0  0  0  0  0  0  0  0
    2.7906   19.4233   38.5872 C   0  0  0  0  0  0  0  0  0  0  0  0
    2.4000   21.7738   35.3456 O   0  0  0  0  0  0  0  0  0  0  0  0
    3.1618   19.8194   36.6054 C   0  0  0  0  0  0  0  0  0  0  0  0
    2.9132   17.6119   39.2693 C   0  0  0  0  0  0  0  0  0  0  0  0
    1.6545   20.6861   40.9546 H   0  0  0  0  0  0  0  0  0  0  0  0
    1.0356   22.1385   40.0977 H   0  0  0  0  0  0  0  0  0  0  0  0
    0.0724   20.6224   40.1065 H   0  0  0  0  0  0  0  0  0  0  0  0
    0.6810   18.3034   44.9231 H   0  0  0  0  0  0  0  0  0  0  0  0
   -0.6411   17.3842   44.3330 H   0  0  0  0  0  0  0  0  0  0  0  0
    1.1865   16.4016   43.1428 H   0  0  0  0  0  0  0  0  0  0  0  0
   -0.0288   16.5738   41.8603 H   0  0  0  0  0  0  0  0  0  0  0  0
   -0.9927   19.8478   44.9376 H   0  0  0  0  0  0  0  0  0  0  0  0
    2.5643   17.4664   42.1912 H   0  0  0  0  0  0  0  0  0  0  0  0
    1.4951   18.9355   42.8533 H   0  0  0  0  0  0  0  0  0  0  0  0
   -0.1348   18.8397   42.0879 H   0  0  0  0  0  0  0  0  0  0  0  0
    3.4308   16.1605   36.7720 H   0  0  0  0  0  0  0  0  0  0  0  0
    4.9195   16.0682   37.7138 H   0  0  0  0  0  0  0  0  0  0  0  0
    1.1896   22.1984   37.6938 H   0  0  0  0  0  0  0  0  0  0  0  0
    1.8181   15.2490   41.1265 H   0  0  0  0  0  0  0  0  0  0  0  0
    1.0110   16.1561   39.9625 H   0  0  0  0  0  0  0  0  0  0  0  0
    2.6913   16.0828   39.9556 H   0  0  0  0  0  0  0  0  0  0  0  0
    2.7622   19.0150   39.6082 H   0  0  0  0  0  0  0  0  0  0  0  0
    3.2343   20.0127   37.7714 H   0  0  0  0  0  0  0  0  0  0  0  0
    1.7898   22.5532   35.3262 H   0  0  0  0  0  0  0  0  0  0  0  0
    3.8773   19.5512   35.8142 H   0  0  0  0  0  0  0  0  0  0  0  0
  2  8  1  0
  4  9  1  0
  5  3  1  0
  6  1  1  0
  7 10  1  0
 13  7  1  1
  8 15  1  0
  8  4  1  0
  9  3  1  0
 10 14  1  0
 11  6  2  0
 12 18  2  0
 12 11  1  0
 13 18  1  0
 13 16  1  0
 13 19  1  0
 14 19  2  0
 16  6  1  0
 17 12  1  0
 19  2  1  0
  1 20  1  0
  1 21  1  0
  1 22  1  0
  3 23  1  0
  3 24  1  0
  4 25  1  0
  4 26  1  0
  5 27  1  0
  8 28  1  1
  9 29  1  0
  9 30  1  0
 10 31  1  0
 10 32  1  0
 11 33  1  0
 15 34  1  0
 15 35  1  0
 15 36  1  0
 16 37  1  0
 16 38  1  0
 17 39  1  0
 18 40  1  0
M  CHG  1  15   1
M  END
>  <mol_id>  (94) 
2026-09-18-3war-s0-n100-refligand-0097

>  <rmsd_to_ref>  (94) 


$$$$

     RDKit          3D

 26 28  0  0  0  0  0  0  0  0999 V2000
    0.4945   18.1182   43.7821 C   0  0  0  0  0  0  0  0  0  0  0  0
    3.0723   17.2977   39.2891 C   0  0  0  0  0  0  0  0  0  0  0  0
    2.5796   20.6216   38.0887 C   0  0  0  0  0  0  0  0  0  0  0  0
    3.4334   16.5954   38.4075 C   0  0  0  0  0  0  0  0  0  0  0  0
    2.7273   18.5855   39.2557 C   0  0  0  0  0  0  0  0  0  0  0  0
    2.6802   21.3599   36.9830 O   0  0  0  0  0  0  0  0  0  0  0  0
    0.6574   20.3515   42.5683 C   0  0  0  0  0  0  0  0  0  0  0  0
    3.5026   18.6176   37.0519 N   0  0  0  0  0  0  0  0  0  0  0  0
    2.0094   19.0818   40.3539 C   0  0  0  0  0  0  0  0  0  0  0  0
    1.6370   18.3185   41.5133 C   0  0  0  0  0  0  0  0  0  0  0  0
    1.0880   21.1311   41.4356 C   0  0  0  0  0  0  0  0  0  0  0  0
    2.9493   19.2863   38.1472 C   0  0  0  0  0  0  0  0  0  0  0  0
    0.9448   18.9502   42.6170 C   0  0  0  0  0  0  0  0  0  0  0  0
    1.7294   20.4891   40.3703 C   0  0  0  0  0  0  0  0  0  0  0  0
    3.8601   17.3430   37.0329 C   0  0  0  0  0  0  0  0  0  0  0  0
    2.0180   21.2103   39.1585 N   0  0  0  0  0  0  0  0  0  0  0  0
    0.9068   18.5362   44.7123 H   0  0  0  0  0  0  0  0  0  0  0  0
   -0.6043   18.1231   43.8333 H   0  0  0  0  0  0  0  0  0  0  0  0
    0.8509   17.0853   43.6547 H   0  0  0  0  0  0  0  0  0  0  0  0
    3.0127   16.8196   40.2780 H   0  0  0  0  0  0  0  0  0  0  0  0
    3.4770   15.5015   38.5141 H   0  0  0  0  0  0  0  0  0  0  0  0
    0.1096   20.8315   43.3927 H   0  0  0  0  0  0  0  0  0  0  0  0
    1.8795   17.2467   41.5624 H   0  0  0  0  0  0  0  0  0  0  0  0
    0.9149   22.2171   41.4086 H   0  0  0  0  0  0  0  0  0  0  0  0
    4.3787   16.8548   36.1945 H   0  0  0  0  0  0  0  0  0  0  0  0
    1.7860   22.2127   39.1094 H   0  0  0  0  0  0  0  0  0  0  0  0
  3 12  1  0
  3 16  1  0
  4  2  2  0
  5  2  1  0
  5  9  1  0
  6  3  2  0
  7 13  2  0
  8 15  2  0
  8 12  1  0
  9 10  2  0
 10 13  1  0
 11  7  1  0
 12  5  2  0
 13  1  1  0
 14  9  1  0
 14 11  2  0
 15  4  1  0
 16 14  1  0
  1 17  1  0
  1 18  1  0
  1 19  1  0
  2 20  1  0
  4 21  1  0
  7 22  1  0
 10 23  1  0
 11 24  1  0
 15 25  1  0
 16 26  1  0
M  END
>  <mol_id>  (95) 
2026-09-18-3war-s0-n100-refligand-0098

>  <rmsd_to_ref>  (95) 


$$$$

     RDKit          3D

 41 41  0  0  0  0  0  0  0  0999 V2000
    2.1385   21.3559   37.4970 C   0  0  0  0  0  0  0  0  0  0  0  0
    3.5250   18.8128   37.9671 C   0  0  0  0  0  0  0  0  0  0  0  0
    0.5034   20.1910   42.2268 C   0  0  0  0  0  0  0  0  0  0  0  0
    2.9877   20.0709   37.3287 C   0  0  1  0  0  0  0  0  0  0  0  0
    3.0665   17.6120   37.1648 N   0  0  0  0  0  0  0  0  0  0  0  0
    3.4993   20.1043   35.9860 O   0  0  0  0  0  0  0  0  0  0  0  0
    1.3294   19.2351   41.7437 C   0  0  1  0  0  0  0  0  0  0  0  0
    3.9303   14.2948   36.6231 C   0  0  0  0  0  0  0  0  0  0  0  0
    0.9816   21.6022   40.4752 C   0  0  0  0  0  0  0  0  0  0  0  0
    1.5886   17.7475   42.5424 S   0  0  0  0  0  0  0  0  0  0  0  0
    0.2181   18.2490   43.4281 C   0  0  0  0  0  0  0  0  0  0  0  0
    0.2690   21.3170   41.6629 C   0  0  0  0  0  0  0  0  0  0  0  0
    3.6047   15.4640   37.5428 C   0  0  0  0  0  0  0  0  0  0  0  0
    2.4949   21.0881   38.6988 N   0  0  0  0  0  0  0  0  0  0  0  0
    1.7973   20.6704   39.8821 C   0  0  0  0  0  0  0  0  0  0  0  0
    4.2401   16.7547   37.1139 C   0  0  0  0  0  0  0  0  0  0  0  0
    1.9714   19.4829   40.5642 N   0  0  0  0  0  0  0  0  0  0  0  0
    1.0657   21.2760   37.2674 H   0  0  0  0  0  0  0  0  0  0  0  0
    2.2667   22.3098   36.9644 H   0  0  0  0  0  0  0  0  0  0  0  0
    4.6243   18.8479   37.9811 H   0  0  0  0  0  0  0  0  0  0  0  0
    3.1508   18.7329   38.9985 H   0  0  0  0  0  0  0  0  0  0  0  0
   -0.0072   19.9853   43.1791 H   0  0  0  0  0  0  0  0  0  0  0  0
    3.8777   20.6129   37.6813 H   0  0  0  0  0  0  0  0  0  0  0  0
    2.7771   17.8934   36.2172 H   0  0  0  0  0  0  0  0  0  0  0  0
    2.2507   17.1431   37.5838 H   0  0  0  0  0  0  0  0  0  0  0  0
    4.4889   20.0930   36.0095 H   0  0  0  0  0  0  0  0  0  0  0  0
    2.1685   19.6795   42.2991 H   0  0  0  0  0  0  0  0  0  0  0  0
    4.2049   13.4179   37.2279 H   0  0  0  0  0  0  0  0  0  0  0  0
    3.0498   14.0553   36.0087 H   0  0  0  0  0  0  0  0  0  0  0  0
    4.7714   14.5665   35.9683 H   0  0  0  0  0  0  0  0  0  0  0  0
    0.2293   21.8791   39.7219 H   0  0  0  0  0  0  0  0  0  0  0  0
    1.7010   22.3638   40.8107 H   0  0  0  0  0  0  0  0  0  0  0  0
    0.4221   18.1535   44.5047 H   0  0  0  0  0  0  0  0  0  0  0  0
   -0.0087   19.2987   43.1896 H   0  0  0  0  0  0  0  0  0  0  0  0
   -0.6424   17.6180   43.1605 H   0  0  0  0  0  0  0  0  0  0  0  0
   -0.4547   22.0305   42.0838 H   0  0  0  0  0  0  0  0  0  0  0  0
    2.5134   15.6011   37.5594 H   0  0  0  0  0  0  0  0  0  0  0  0
    4.0079   15.2179   38.5361 H   0  0  0  0  0  0  0  0  0  0  0  0
    3.5080   21.1969   38.8491 H   0  0  0  0  0  0  0  0  0  0  0  0
    4.6607   16.6906   36.0995 H   0  0  0  0  0  0  0  0  0  0  0  0
    5.0956   17.0862   37.7207 H   0  0  0  0  0  0  0  0  0  0  0  0
  1 14  1  0
  4  6  1  0
  4  1  1  0
  4  2  1  0
  5 16  1  0
  5  2  1  0
  7  3  1  0
  7 10  1  0
  8 13  1  0
  9 12  1  0
 10 11  1  0
 12  3  2  0
 14 15  1  0
 15  9  1  0
 15 17  2  0
 16 13  1  0
 17  7  1  0
  1 18  1  0
  1 19  1  0
  2 20  1  0
  2 21  1  0
  3 22  1  0
  4 23  1  1
  5 24  1  0
  5 25  1  0
  6 26  1  0
  7 27  1  1
  8 28  1  0
  8 29  1  0
  8 30  1  0
  9 31  1  0
  9 32  1  0
 11 33  1  0
 11 34  1  0
 11 35  1  0
 12 36  1  0
 13 37  1  0
 13 38  1  0
 14 39  1  0
 16 40  1  0
 16 41  1  0
M  CHG  1   5   1
M  END
>  <mol_id>  (96) 
2026-09-18-3war-s0-n100-refligand-0099

>  <rmsd_to_ref>  (96) 


$$$$

     RDKit          3D

 20 22  0  0  0  0  0  0  0  0999 V2000
    3.5248   19.1580   37.1145 C   0  0  0  0  0  0  0  0  0  0  0  0
    1.0514   21.0547   40.7783 C   0  0  0  0  0  0  0  0  0  0  0  0
    3.0339   19.1360   38.4659 C   0  0  0  0  0  0  0  0  0  0  0  0
    1.7997   20.0588   40.2498 C   0  0  0  0  0  0  0  0  0  0  0  0
    2.3268   20.2753   39.0034 O   0  0  0  0  0  0  0  0  0  0  0  0
    3.5249   20.0484   36.2871 O   0  0  0  0  0  0  0  0  0  0  0  0
    4.1172   17.1120   38.3062 C   0  0  0  0  0  0  0  0  0  0  0  0
    1.2793   18.5933   42.1130 C   0  0  0  0  0  0  0  0  0  0  0  0
    2.7456   17.7448   40.3527 O   0  0  0  0  0  0  0  0  0  0  0  0
    3.2379   18.0050   39.0971 C   0  0  0  0  0  0  0  0  0  0  0  0
    1.9499   18.8231   40.8919 C   0  0  0  0  0  0  0  0  0  0  0  0
    4.2046   17.8022   36.9686 C   0  0  0  0  0  0  0  0  0  0  0  0
    0.4592   20.8651   42.0116 C   0  0  0  0  0  0  0  0  0  0  0  0
    0.5400   19.6132   42.6373 C   0  0  0  0  0  0  0  0  0  0  0  0
    0.9168   22.0010   40.2339 H   0  0  0  0  0  0  0  0  0  0  0  0
    4.5924   16.1709   38.6200 H   0  0  0  0  0  0  0  0  0  0  0  0
    1.3506   17.6225   42.6256 H   0  0  0  0  0  0  0  0  0  0  0  0
    4.6721   17.4016   36.0570 H   0  0  0  0  0  0  0  0  0  0  0  0
   -0.0739   21.6934   42.5011 H   0  0  0  0  0  0  0  0  0  0  0  0
   -0.0077   19.4486   43.5769 H   0  0  0  0  0  0  0  0  0  0  0  0
  1  3  1  0
  2 13  1  0
  3 10  2  0
  3  5  1  0
  4 11  1  0
  4  2  2  0
  5  4  1  0
  6  1  2  0
  7 10  1  0
  8 14  1  0
  9 11  1  0
 10  9  1  0
 11  8  2  0
 12  1  1  0
 12  7  2  0
 13 14  2  0
  2 15  1  0
  7 16  1  0
  8 17  1  0
 12 18  1  0
 13 19  1  0
 14 20  1  0
M  END
>  <mol_id>  (97) 
2026-09-18-3war-s0-n100-refligand-0100

>  <rmsd_to_ref>  (97) 


$$$$
