3war.A
     RDKit          3D

 13 13  0  0  0  0  0  0  0  0999 V2000
    2.0001   18.6245   40.6926 N   0  0  0  0  0  0  0  0  0  0  0  0
    2.5782   18.5757   39.4013 C   0  0  0  0  0  0  0  0  0  0  0  0
    2.4967   19.7718   38.6000 C   0  0  0  0  0  0  0  0  0  0  0  0
    1.8538   20.9004   39.0765 C   0  0  0  0  0  0  0  0  0  0  0  0
    1.3289   20.9112   40.3502 C   0  0  0  0  0  0  0  0  0  0  0  0
    1.3818   19.7712   41.1205 C   0  0  0  0  0  0  0  0  0  0  0  0
    3.0116   19.7599   37.1684 C   0  0  0  0  0  0  0  0  0  0  0  0
    3.7306   18.7870   36.7954 O   0  0  0  0  0  0  0  0  0  0  0  0
    2.6655   20.7081   36.4973 O   0  0  0  0  0  0  0  0  0  0  0  0
    3.0681   17.6653   39.0256 H   0  0  0  0  0  0  0  0  0  0  0  0
    1.7616   21.7908   38.4372 H   0  0  0  0  0  0  0  0  0  0  0  0
    0.8693   21.8270   40.7502 H   0  0  0  0  0  0  0  0  0  0  0  0
    0.9112   19.7806   42.1147 H   0  0  0  0  0  0  0  0  0  0  0  0
  1  2  1  0
  1  6  2  0
  2  3  2  0
  3  4  1  0
  3  7  1  0
  4  5  2  0
  5  6  1  0
  7  8  1  0
  7  9  2  0
  2 10  1  0
  4 11  1  0
  5 12  1  0
  6 13  1  0
M  CHG  1   8  -1
M  END
>  <mol_id>  (1) 
2026-09-16-3war-s0-n100-0001

>  <rmsd_to_ref>  (1) 
0.0

>  <pose_kind>  (1) 
native

$$$$
3war.A
     RDKit          3D

 13 13  0  0  0  0  0  0  0  0999 V2000
    2.4277   18.8612   40.9130 N   0  0  0  0  0  0  0  0  0  0  0  0
    2.6427   18.7375   39.6096 C   0  0  0  0  0  0  0  0  0  0  0  0
    2.2952   19.8002   38.7934 C   0  0  0  0  0  0  0  0  0  0  0  0
    1.7458   20.9360   39.3455 C   0  0  0  0  0  0  0  0  0  0  0  0
    1.5425   21.0127   40.7138 C   0  0  0  0  0  0  0  0  0  0  0  0
    1.8958   19.9414   41.5135 C   0  0  0  0  0  0  0  0  0  0  0  0
    2.5015   19.7330   37.3688 C   0  0  0  0  0  0  0  0  0  0  0  0
    3.0383   18.6593   36.7065 O   0  0  0  0  0  0  0  0  0  0  0  0
    2.1629   20.7390   36.6724 O   0  0  0  0  0  0  0  0  0  0  0  0
    3.0798   17.8306   39.1817 H   0  0  0  0  0  0  0  0  0  0  0  0
    1.4708   21.7740   38.7091 H   0  0  0  0  0  0  0  0  0  0  0  0
    1.1186   21.8784   41.1768 H   0  0  0  0  0  0  0  0  0  0  0  0
    1.7665   19.9304   42.5866 H   0  0  0  0  0  0  0  0  0  0  0  0
  1  2  1  0
  1  6  2  0
  2  3  2  0
  3  4  1  0
  3  7  1  0
  4  5  2  0
  5  6  1  0
  7  8  1  0
  7  9  2  0
  2 10  1  0
  4 11  1  0
  5 12  1  0
  6 13  1  0
M  CHG  1   8  -1
M  END
>  <mol_id>  (2) 
2026-09-16-3war-s0-n100-0002

>  <rmsd_to_ref>  (2) 
0.5000000000005038

>  <pose_kind>  (2) 
conformer

$$$$
3war.A
     RDKit          3D

 13 13  0  0  0  0  0  0  0  0999 V2000
    2.0553   18.2419   40.2944 N   0  0  0  0  0  0  0  0  0  0  0  0
    2.6051   18.4060   39.0003 C   0  0  0  0  0  0  0  0  0  0  0  0
    2.5194   19.7199   38.4125 C   0  0  0  0  0  0  0  0  0  0  0  0
    1.8990   20.7573   39.0856 C   0  0  0  0  0  0  0  0  0  0  0  0
    1.4015   20.5582   40.3549 C   0  0  0  0  0  0  0  0  0  0  0  0
    1.4586   19.3050   40.9222 C   0  0  0  0  0  0  0  0  0  0  0  0
    3.0034   19.9444   36.9877 C   0  0  0  0  0  0  0  0  0  0  0  0
    3.7039   19.0427   36.4409 O   0  0  0  0  0  0  0  0  0  0  0  0
    2.6532   20.9940   36.4927 O   0  0  0  0  0  0  0  0  0  0  0  0
    3.0771   17.5679   38.4666 H   0  0  0  0  0  0  0  0  0  0  0  0
    1.8027   21.7427   38.6065 H   0  0  0  0  0  0  0  0  0  0  0  0
    0.9604   21.3973   40.9128 H   0  0  0  0  0  0  0  0  0  0  0  0
    1.0096   19.1511   41.9144 H   0  0  0  0  0  0  0  0  0  0  0  0
  1  2  1  0
  1  6  2  0
  2  3  2  0
  3  4  1  0
  3  7  1  0
  4  5  2  0
  5  6  1  0
  7  8  1  0
  7  9  2  0
  2 10  1  0
  4 11  1  0
  5 12  1  0
  6 13  1  0
M  CHG  1   8  -1
M  END
>  <mol_id>  (3) 
2026-09-16-3war-s0-n100-0003

>  <rmsd_to_ref>  (3) 
0.5459183673475069

>  <pose_kind>  (3) 
rigid

$$$$
3war.A
     RDKit          3D

 13 13  0  0  0  0  0  0  0  0999 V2000
    1.9689   18.8285   40.5639 N   0  0  0  0  0  0  0  0  0  0  0  0
    2.7221   18.5402   39.5104 C   0  0  0  0  0  0  0  0  0  0  0  0
    2.8300   19.4935   38.5125 C   0  0  0  0  0  0  0  0  0  0  0  0
    2.1653   20.6931   38.6375 C   0  0  0  0  0  0  0  0  0  0  0  0
    1.3916   20.9430   39.7594 C   0  0  0  0  0  0  0  0  0  0  0  0
    1.2955   19.9790   40.7460 C   0  0  0  0  0  0  0  0  0  0  0  0
    3.6315   19.2458   37.3408 C   0  0  0  0  0  0  0  0  0  0  0  0
    4.3367   18.0940   37.1054 O   0  0  0  0  0  0  0  0  0  0  0  0
    3.6918   20.1581   36.4600 O   0  0  0  0  0  0  0  0  0  0  0  0
    3.2457   17.5839   39.4214 H   0  0  0  0  0  0  0  0  0  0  0  0
    2.2464   21.4459   37.8566 H   0  0  0  0  0  0  0  0  0  0  0  0
    0.8619   21.8628   39.8899 H   0  0  0  0  0  0  0  0  0  0  0  0
    0.7114   20.1043   41.6467 H   0  0  0  0  0  0  0  0  0  0  0  0
  1  2  1  0
  1  6  2  0
  2  3  2  0
  3  4  1  0
  3  7  1  0
  4  5  2  0
  5  6  1  0
  7  8  1  0
  7  9  2  0
  2 10  1  0
  4 11  1  0
  5 12  1  0
  6 13  1  0
M  CHG  1   8  -1
M  END
>  <mol_id>  (4) 
2026-09-16-3war-s0-n100-0004

>  <rmsd_to_ref>  (4) 
0.5918367346971042

>  <pose_kind>  (4) 
conformer

$$$$
3war.A
     RDKit          3D

 13 13  0  0  0  0  0  0  0  0999 V2000
    2.1256   18.3332   40.6643 N   0  0  0  0  0  0  0  0  0  0  0  0
    2.6959   18.6813   39.4162 C   0  0  0  0  0  0  0  0  0  0  0  0
    2.3137   19.9518   38.8514 C   0  0  0  0  0  0  0  0  0  0  0  0
    1.4067   20.7706   39.5002 C   0  0  0  0  0  0  0  0  0  0  0  0
    0.8974   20.4031   40.7264 C   0  0  0  0  0  0  0  0  0  0  0  0
    1.2378   19.1848   41.2700 C   0  0  0  0  0  0  0  0  0  0  0  0
    2.8134   20.3465   37.4696 C   0  0  0  0  0  0  0  0  0  0  0  0
    3.7547   19.6742   36.9553 O   0  0  0  0  0  0  0  0  0  0  0  0
    2.2380   21.2907   36.9730 O   0  0  0  0  0  0  0  0  0  0  0  0
    3.3998   18.0119   38.9000 H   0  0  0  0  0  0  0  0  0  0  0  0
    1.0916   21.7169   39.0362 H   0  0  0  0  0  0  0  0  0  0  0  0
    0.2215   21.0804   41.2690 H   0  0  0  0  0  0  0  0  0  0  0  0
    0.7811   18.8838   42.2244 H   0  0  0  0  0  0  0  0  0  0  0  0
  1  2  1  0
  1  6  2  0
  2  3  2  0
  3  4  1  0
  3  7  1  0
  4  5  2  0
  5  6  1  0
  7  8  1  0
  7  9  2  0
  2 10  1  0
  4 11  1  0
  5 12  1  0
  6 13  1  0
M  CHG  1   8  -1
M  END
>  <mol_id>  (5) 
2026-09-16-3war-s0-n100-0005

>  <rmsd_to_ref>  (5) 
0.6377551020422293

>  <pose_kind>  (5) 
rigid

$$$$
3war.A
     RDKit          3D

 13 13  0  0  0  0  0  0  0  0999 V2000
    1.5927   18.8171   40.5994 N   0  0  0  0  0  0  0  0  0  0  0  0
    2.3447   18.4678   39.5636 C   0  0  0  0  0  0  0  0  0  0  0  0
    2.5604   19.4114   38.5740 C   0  0  0  0  0  0  0  0  0  0  0  0
    1.9994   20.6638   38.6886 C   0  0  0  0  0  0  0  0  0  0  0  0
    1.2218   20.9764   39.7919 C   0  0  0  0  0  0  0  0  0  0  0  0
    1.0172   20.0212   40.7705 C   0  0  0  0  0  0  0  0  0  0  0  0
    3.3671   19.0988   37.4215 C   0  0  0  0  0  0  0  0  0  0  0  0
    3.9755   17.8907   37.1976 O   0  0  0  0  0  0  0  0  0  0  0  0
    3.5289   20.0051   36.5474 O   0  0  0  0  0  0  0  0  0  0  0  0
    2.7855   17.4699   39.4827 H   0  0  0  0  0  0  0  0  0  0  0  0
    2.1654   21.4092   37.9141 H   0  0  0  0  0  0  0  0  0  0  0  0
    0.7707   21.9382   39.9140 H   0  0  0  0  0  0  0  0  0  0  0  0
    0.4233   20.1939   41.6570 H   0  0  0  0  0  0  0  0  0  0  0  0
  1  2  1  0
  1  6  2  0
  2  3  2  0
  3  4  1  0
  3  7  1  0
  4  5  2  0
  5  6  1  0
  7  8  1  0
  7  9  2  0
  2 10  1  0
  4 11  1  0
  5 12  1  0
  6 13  1  0
M  CHG  1   8  -1
M  END
>  <mol_id>  (6) 
2026-09-16-3war-s0-n100-0006

>  <rmsd_to_ref>  (6) 
0.6836734693904697

>  <pose_kind>  (6) 
conformer

$$$$
3war.A
     RDKit          3D

 13 13  0  0  0  0  0  0  0  0999 V2000
    2.9735   18.5081   40.7141 N   0  0  0  0  0  0  0  0  0  0  0  0
    3.0934   18.3690   39.3104 C   0  0  0  0  0  0  0  0  0  0  0  0
    2.5723   19.4402   38.4977 C   0  0  0  0  0  0  0  0  0  0  0  0
    1.9600   20.5361   39.0792 C   0  0  0  0  0  0  0  0  0  0  0  0
    1.8896   20.6418   40.4510 C   0  0  0  0  0  0  0  0  0  0  0  0
    2.3654   19.6188   41.2402 C   0  0  0  0  0  0  0  0  0  0  0  0
    2.5814   19.3129   36.9817 C   0  0  0  0  0  0  0  0  0  0  0  0
    3.2752   18.3920   36.4591 O   0  0  0  0  0  0  0  0  0  0  0  0
    1.8942   20.1249   36.4006 O   0  0  0  0  0  0  0  0  0  0  0  0
    3.5634   17.4826   38.8594 H   0  0  0  0  0  0  0  0  0  0  0  0
    1.5286   21.3246   38.4450 H   0  0  0  0  0  0  0  0  0  0  0  0
    1.4551   21.5400   40.9140 H   0  0  0  0  0  0  0  0  0  0  0  0
    2.2536   19.6952   42.3319 H   0  0  0  0  0  0  0  0  0  0  0  0
  1  2  1  0
  1  6  2  0
  2  3  2  0
  3  4  1  0
  3  7  1  0
  4  5  2  0
  5  6  1  0
  7  8  1  0
  7  9  2  0
  2 10  1  0
  4 11  1  0
  5 12  1  0
  6 13  1  0
M  CHG  1   8  -1
M  END
>  <mol_id>  (7) 
2026-09-16-3war-s0-n100-0007

>  <rmsd_to_ref>  (7) 
0.7295918367361827

>  <pose_kind>  (7) 
rigid

$$$$
3war.A
     RDKit          3D

 13 13  0  0  0  0  0  0  0  0999 V2000
    2.5112   19.3108   40.9526 N   0  0  0  0  0  0  0  0  0  0  0  0
    2.8921   19.0266   39.7139 C   0  0  0  0  0  0  0  0  0  0  0  0
    2.8321   20.0382   38.7709 C   0  0  0  0  0  0  0  0  0  0  0  0
    2.3869   21.2891   39.1367 C   0  0  0  0  0  0  0  0  0  0  0  0
    2.0008   21.5320   40.4448 C   0  0  0  0  0  0  0  0  0  0  0  0
    2.0676   20.5094   41.3731 C   0  0  0  0  0  0  0  0  0  0  0  0
    3.2308   19.7984   37.4070 C   0  0  0  0  0  0  0  0  0  0  0  0
    3.6892   18.5993   36.9259 O   0  0  0  0  0  0  0  0  0  0  0  0
    3.1535   20.7652   36.5879 O   0  0  0  0  0  0  0  0  0  0  0  0
    3.2442   18.0293   39.4343 H   0  0  0  0  0  0  0  0  0  0  0  0
    2.3376   22.0878   38.3999 H   0  0  0  0  0  0  0  0  0  0  0  0
    1.6503   22.4904   40.7643 H   0  0  0  0  0  0  0  0  0  0  0  0
    1.7834   20.6257   42.4095 H   0  0  0  0  0  0  0  0  0  0  0  0
  1  2  1  0
  1  6  2  0
  2  3  2  0
  3  4  1  0
  3  7  1  0
  4  5  2  0
  5  6  1  0
  7  8  1  0
  7  9  2  0
  2 10  1  0
  4 11  1  0
  5 12  1  0
  6 13  1  0
M  CHG  1   8  -1
M  END
>  <mol_id>  (8) 
2026-09-16-3war-s0-n100-0008

>  <rmsd_to_ref>  (8) 
0.7755102040824801

>  <pose_kind>  (8) 
conformer

$$$$
3war.A
     RDKit          3D

 13 13  0  0  0  0  0  0  0  0999 V2000
    2.7486   18.6959   40.7812 N   0  0  0  0  0  0  0  0  0  0  0  0
    3.3819   19.0620   39.5692 C   0  0  0  0  0  0  0  0  0  0  0  0
    2.8099   20.1647   38.8367 C   0  0  0  0  0  0  0  0  0  0  0  0
    1.6753   20.8080   39.2979 C   0  0  0  0  0  0  0  0  0  0  0  0
    1.1080   20.4350   40.4967 C   0  0  0  0  0  0  0  0  0  0  0  0
    1.6308   19.3719   41.1983 C   0  0  0  0  0  0  0  0  0  0  0  0
    3.3815   20.5494   37.4802 C   0  0  0  0  0  0  0  0  0  0  0  0
    4.5014   20.0669   37.1401 O   0  0  0  0  0  0  0  0  0  0  0  0
    2.6837   21.2973   36.8298 O   0  0  0  0  0  0  0  0  0  0  0  0
    4.2713   18.5288   39.2023 H   0  0  0  0  0  0  0  0  0  0  0  0
    1.2252   21.6189   38.7064 H   0  0  0  0  0  0  0  0  0  0  0  0
    0.2407   20.9843   40.8918 H   0  0  0  0  0  0  0  0  0  0  0  0
    1.1341   19.0535   42.1267 H   0  0  0  0  0  0  0  0  0  0  0  0
  1  2  1  0
  1  6  2  0
  2  3  2  0
  3  4  1  0
  3  7  1  0
  4  5  2  0
  5  6  1  0
  7  8  1  0
  7  9  2  0
  2 10  1  0
  4 11  1  0
  5 12  1  0
  6 13  1  0
M  CHG  1   8  -1
M  END
>  <mol_id>  (9) 
2026-09-16-3war-s0-n100-0009

>  <rmsd_to_ref>  (9) 
0.8214285714303413

>  <pose_kind>  (9) 
rigid

$$$$
3war.A
     RDKit          3D

 13 13  0  0  0  0  0  0  0  0999 V2000
    1.8692   20.0952   41.1290 N   0  0  0  0  0  0  0  0  0  0  0  0
    2.4735   19.5898   40.0615 C   0  0  0  0  0  0  0  0  0  0  0  0
    2.1005   20.0720   38.8186 C   0  0  0  0  0  0  0  0  0  0  0  0
    1.1304   21.0451   38.7251 C   0  0  0  0  0  0  0  0  0  0  0  0
    0.5310   21.5384   39.8727 C   0  0  0  0  0  0  0  0  0  0  0  0
    0.9163   21.0449   41.1055 C   0  0  0  0  0  0  0  0  0  0  0  0
    2.7163   19.5672   37.6176 C   0  0  0  0  0  0  0  0  0  0  0  0
    3.6897   18.6023   37.5843 O   0  0  0  0  0  0  0  0  0  0  0  0
    2.3326   20.0482   36.5071 O   0  0  0  0  0  0  0  0  0  0  0  0
    3.2429   18.8170   40.1474 H   0  0  0  0  0  0  0  0  0  0  0  0
    0.8334   21.4277   37.7514 H   0  0  0  0  0  0  0  0  0  0  0  0
   -0.2253   22.2936   39.8380 H   0  0  0  0  0  0  0  0  0  0  0  0
    0.4931   21.3819   42.0413 H   0  0  0  0  0  0  0  0  0  0  0  0
  1  2  1  0
  1  6  2  0
  2  3  2  0
  3  4  1  0
  3  7  1  0
  4  5  2  0
  5  6  1  0
  7  8  1  0
  7  9  2  0
  2 10  1  0
  4 11  1  0
  5 12  1  0
  6 13  1  0
M  CHG  1   8  -1
M  END
>  <mol_id>  (10) 
2026-09-16-3war-s0-n100-0010

>  <rmsd_to_ref>  (10) 
0.867346938778937

>  <pose_kind>  (10) 
conformer

$$$$
3war.A
     RDKit          3D

 13 13  0  0  0  0  0  0  0  0999 V2000
    1.9847   18.1521   41.2135 N   0  0  0  0  0  0  0  0  0  0  0  0
    2.6553   18.1409   39.9668 C   0  0  0  0  0  0  0  0  0  0  0  0
    2.5726   19.3374   39.1661 C   0  0  0  0  0  0  0  0  0  0  0  0
    1.8425   20.4297   39.5994 C   0  0  0  0  0  0  0  0  0  0  0  0
    1.2279   20.4058   40.8322 C   0  0  0  0  0  0  0  0  0  0  0  0
    1.2817   19.2642   41.6000 C   0  0  0  0  0  0  0  0  0  0  0  0
    3.1884   19.3609   37.7751 C   0  0  0  0  0  0  0  0  0  0  0  0
    3.9793   18.4270   37.4512 O   0  0  0  0  0  0  0  0  0  0  0  0
    2.8450   20.2959   37.0844 O   0  0  0  0  0  0  0  0  0  0  0  0
    3.2150   17.2582   39.6239 H   0  0  0  0  0  0  0  0  0  0  0  0
    1.7525   21.3192   38.9584 H   0  0  0  0  0  0  0  0  0  0  0  0
    0.6964   21.2951   41.2016 H   0  0  0  0  0  0  0  0  0  0  0  0
    0.7413   19.2434   42.5580 H   0  0  0  0  0  0  0  0  0  0  0  0
  1  2  1  0
  1  6  2  0
  2  3  2  0
  3  4  1  0
  3  7  1  0
  4  5  2  0
  5  6  1  0
  7  8  1  0
  7  9  2  0
  2 10  1  0
  4 11  1  0
  5 12  1  0
  6 13  1  0
M  CHG  1   8  -1
M  END
>  <mol_id>  (11) 
2026-09-16-3war-s0-n100-0011

>  <rmsd_to_ref>  (11) 
0.9132653061230979

>  <pose_kind>  (11) 
rigid

$$$$
3war.A
     RDKit          3D

 13 13  0  0  0  0  0  0  0  0999 V2000
    2.6737   19.6898   41.0397 N   0  0  0  0  0  0  0  0  0  0  0  0
    2.8527   19.1220   39.8540 C   0  0  0  0  0  0  0  0  0  0  0  0
    2.6985   19.9132   38.7286 C   0  0  0  0  0  0  0  0  0  0  0  0
    2.3696   21.2434   38.8670 C   0  0  0  0  0  0  0  0  0  0  0  0
    2.1941   21.7859   40.1297 C   0  0  0  0  0  0  0  0  0  0  0  0
    2.3522   20.9805   41.2424 C   0  0  0  0  0  0  0  0  0  0  0  0
    2.8783   19.3610   37.4097 C   0  0  0  0  0  0  0  0  0  0  0  0
    3.2054   18.0558   37.1467 O   0  0  0  0  0  0  0  0  0  0  0  0
    2.7235   20.1359   36.4161 O   0  0  0  0  0  0  0  0  0  0  0  0
    3.1138   18.0643   39.7556 H   0  0  0  0  0  0  0  0  0  0  0  0
    2.2472   21.8698   37.9863 H   0  0  0  0  0  0  0  0  0  0  0  0
    1.9386   22.8141   40.2749 H   0  0  0  0  0  0  0  0  0  0  0  0
    2.2312   21.3345   42.2565 H   0  0  0  0  0  0  0  0  0  0  0  0
  1  2  1  0
  1  6  2  0
  2  3  2  0
  3  4  1  0
  3  7  1  0
  4  5  2  0
  5  6  1  0
  7  8  1  0
  7  9  2  0
  2 10  1  0
  4 11  1  0
  5 12  1  0
  6 13  1  0
M  CHG  1   8  -1
M  END
>  <mol_id>  (12) 
2026-09-16-3war-s0-n100-0012

>  <rmsd_to_ref>  (12) 
0.9591836734730502

>  <pose_kind>  (12) 
conformer

$$$$
3war.A
     RDKit          3D

 13 13  0  0  0  0  0  0  0  0999 V2000
    2.3639   19.4840   41.4553 N   0  0  0  0  0  0  0  0  0  0  0  0
    2.9786   18.8972   40.3231 C   0  0  0  0  0  0  0  0  0  0  0  0
    2.7362   19.5226   39.0466 C   0  0  0  0  0  0  0  0  0  0  0  0
    1.9138   20.6306   38.9462 C   0  0  0  0  0  0  0  0  0  0  0  0
    1.3579   21.1840   40.0788 C   0  0  0  0  0  0  0  0  0  0  0  0
    1.5643   20.5875   41.3024 C   0  0  0  0  0  0  0  0  0  0  0  0
    3.2868   18.8897   37.7774 C   0  0  0  0  0  0  0  0  0  0  0  0
    4.1574   17.9774   37.8884 O   0  0  0  0  0  0  0  0  0  0  0  0
    2.8176   19.3263   36.7485 O   0  0  0  0  0  0  0  0  0  0  0  0
    3.6134   18.0034   40.4132 H   0  0  0  0  0  0  0  0  0  0  0  0
    1.7034   21.0706   37.9602 H   0  0  0  0  0  0  0  0  0  0  0  0
    0.7516   22.0988   40.0058 H   0  0  0  0  0  0  0  0  0  0  0  0
    1.0702   21.0113   42.1891 H   0  0  0  0  0  0  0  0  0  0  0  0
  1  2  1  0
  1  6  2  0
  2  3  2  0
  3  4  1  0
  3  7  1  0
  4  5  2  0
  5  6  1  0
  7  8  1  0
  7  9  2  0
  2 10  1  0
  4 11  1  0
  5 12  1  0
  6 13  1  0
M  CHG  1   8  -1
M  END
>  <mol_id>  (13) 
2026-09-16-3war-s0-n100-0013

>  <rmsd_to_ref>  (13) 
1.0051020408203215

>  <pose_kind>  (13) 
rigid

$$$$
3war.A
     RDKit          3D

 13 13  0  0  0  0  0  0  0  0999 V2000
    3.3827   19.3582   40.6585 N   0  0  0  0  0  0  0  0  0  0  0  0
    3.3551   18.8959   39.4152 C   0  0  0  0  0  0  0  0  0  0  0  0
    2.8237   19.7140   38.4330 C   0  0  0  0  0  0  0  0  0  0  0  0
    2.3468   20.9622   38.7662 C   0  0  0  0  0  0  0  0  0  0  0  0
    2.3997   21.3959   40.0810 C   0  0  0  0  0  0  0  0  0  0  0  0
    2.9339   20.5651   41.0486 C   0  0  0  0  0  0  0  0  0  0  0  0
    2.7629   19.2747   37.0619 C   0  0  0  0  0  0  0  0  0  0  0  0
    3.2048   18.0578   36.6106 O   0  0  0  0  0  0  0  0  0  0  0  0
    2.2647   20.0691   36.2061 O   0  0  0  0  0  0  0  0  0  0  0  0
    3.7367   17.9026   39.1616 H   0  0  0  0  0  0  0  0  0  0  0  0
    1.9281   21.6092   37.9987 H   0  0  0  0  0  0  0  0  0  0  0  0
    2.0389   22.3583   40.3759 H   0  0  0  0  0  0  0  0  0  0  0  0
    3.0075   20.8362   42.0924 H   0  0  0  0  0  0  0  0  0  0  0  0
  1  2  1  0
  1  6  2  0
  2  3  2  0
  3  4  1  0
  3  7  1  0
  4  5  2  0
  5  6  1  0
  7  8  1  0
  7  9  2  0
  2 10  1  0
  4 11  1  0
  5 12  1  0
  6 13  1  0
M  CHG  1   8  -1
M  END
>  <mol_id>  (14) 
2026-09-16-3war-s0-n100-0014

>  <rmsd_to_ref>  (14) 
1.0510204081670007

>  <pose_kind>  (14) 
conformer

$$$$
3war.A
     RDKit          3D

 13 13  0  0  0  0  0  0  0  0999 V2000
    1.5455   18.7966   41.0653 N   0  0  0  0  0  0  0  0  0  0  0  0
    2.5099   18.6708   40.0366 C   0  0  0  0  0  0  0  0  0  0  0  0
    2.5472   19.7131   39.0408 C   0  0  0  0  0  0  0  0  0  0  0  0
    1.6542   20.7688   39.0874 C   0  0  0  0  0  0  0  0  0  0  0  0
    0.7499   20.8642   40.1224 C   0  0  0  0  0  0  0  0  0  0  0  0
    0.6889   19.8675   41.0703 C   0  0  0  0  0  0  0  0  0  0  0  0
    3.4929   19.5930   37.8551 C   0  0  0  0  0  0  0  0  0  0  0  0
    4.4054   18.7166   37.8992 O   0  0  0  0  0  0  0  0  0  0  0  0
    3.2697   20.3659   36.9483 O   0  0  0  0  0  0  0  0  0  0  0  0
    3.2005   17.8155   39.9986 H   0  0  0  0  0  0  0  0  0  0  0  0
    1.6661   21.5332   38.2967 H   0  0  0  0  0  0  0  0  0  0  0  0
    0.0793   21.7334   40.1913 H   0  0  0  0  0  0  0  0  0  0  0  0
   -0.0741   19.9326   41.8599 H   0  0  0  0  0  0  0  0  0  0  0  0
  1  2  1  0
  1  6  2  0
  2  3  2  0
  3  4  1  0
  3  7  1  0
  4  5  2  0
  5  6  1  0
  7  8  1  0
  7  9  2  0
  2 10  1  0
  4 11  1  0
  5 12  1  0
  6 13  1  0
M  CHG  1   8  -1
M  END
>  <mol_id>  (15) 
2026-09-16-3war-s0-n100-0015

>  <rmsd_to_ref>  (15) 
1.0969387755140037

>  <pose_kind>  (15) 
rigid

$$$$
3war.A
     RDKit          3D

 13 13  0  0  0  0  0  0  0  0999 V2000
    3.4439   18.8234   40.4389 N   0  0  0  0  0  0  0  0  0  0  0  0
    3.3284   18.5834   39.1392 C   0  0  0  0  0  0  0  0  0  0  0  0
    2.7189   19.5481   38.3554 C   0  0  0  0  0  0  0  0  0  0  0  0
    2.2574   20.7091   38.9346 C   0  0  0  0  0  0  0  0  0  0  0  0
    2.4036   20.9090   40.2977 C   0  0  0  0  0  0  0  0  0  0  0  0
    3.0150   19.9345   41.0649 C   0  0  0  0  0  0  0  0  0  0  0  0
    2.5607   19.3522   36.9365 C   0  0  0  0  0  0  0  0  0  0  0  0
    2.9784   18.2418   36.2493 O   0  0  0  0  0  0  0  0  0  0  0  0
    1.9939   20.2723   36.2704 O   0  0  0  0  0  0  0  0  0  0  0  0
    3.6988   17.6575   38.6894 H   0  0  0  0  0  0  0  0  0  0  0  0
    1.7776   21.4705   38.3237 H   0  0  0  0  0  0  0  0  0  0  0  0
    2.0575   21.7978   40.7812 H   0  0  0  0  0  0  0  0  0  0  0  0
    3.1633   20.0218   42.1320 H   0  0  0  0  0  0  0  0  0  0  0  0
  1  2  1  0
  1  6  2  0
  2  3  2  0
  3  4  1  0
  3  7  1  0
  4  5  2  0
  5  6  1  0
  7  8  1  0
  7  9  2  0
  2 10  1  0
  4 11  1  0
  5 12  1  0
  6 13  1  0
M  CHG  1   8  -1
M  END
>  <mol_id>  (16) 
2026-09-16-3war-s0-n100-0016

>  <rmsd_to_ref>  (16) 
1.1428571428578715

>  <pose_kind>  (16) 
conformer

$$$$
3war.A
     RDKit          3D

 13 13  0  0  0  0  0  0  0  0999 V2000
    3.1523   18.4655   39.9775 N   0  0  0  0  0  0  0  0  0  0  0  0
    3.0971   18.5215   38.5639 C   0  0  0  0  0  0  0  0  0  0  0  0
    2.6142   19.7454   37.9739 C   0  0  0  0  0  0  0  0  0  0  0  0
    2.2005   20.7993   38.7691 C   0  0  0  0  0  0  0  0  0  0  0  0
    2.2971   20.7102   40.1405 C   0  0  0  0  0  0  0  0  0  0  0  0
    2.7383   19.5415   40.7196 C   0  0  0  0  0  0  0  0  0  0  0  0
    2.4383   19.8403   36.4657 C   0  0  0  0  0  0  0  0  0  0  0  0
    2.9591   18.9421   35.7413 O   0  0  0  0  0  0  0  0  0  0  0  0
    1.7878   20.7915   36.0900 O   0  0  0  0  0  0  0  0  0  0  0  0
    3.4090   17.6688   37.9429 H   0  0  0  0  0  0  0  0  0  0  0  0
    1.7937   21.7101   38.3055 H   0  0  0  0  0  0  0  0  0  0  0  0
    2.0230   21.5693   40.7704 H   0  0  0  0  0  0  0  0  0  0  0  0
    2.7592   19.4685   41.8171 H   0  0  0  0  0  0  0  0  0  0  0  0
  1  2  1  0
  1  6  2  0
  2  3  2  0
  3  4  1  0
  3  7  1  0
  4  5  2  0
  5  6  1  0
  7  8  1  0
  7  9  2  0
  2 10  1  0
  4 11  1  0
  5 12  1  0
  6 13  1  0
M  CHG  1   8  -1
M  END
>  <mol_id>  (17) 
2026-09-16-3war-s0-n100-0017

>  <rmsd_to_ref>  (17) 
1.1887755102092874

>  <pose_kind>  (17) 
rigid

$$$$
3war.A
     RDKit          3D

 13 13  0  0  0  0  0  0  0  0999 V2000
    2.3354   18.6473   40.3639 N   0  0  0  0  0  0  0  0  0  0  0  0
    2.6000   18.7164   39.0657 C   0  0  0  0  0  0  0  0  0  0  0  0
    2.6098   19.9676   38.4736 C   0  0  0  0  0  0  0  0  0  0  0  0
    2.3495   21.0863   39.2334 C   0  0  0  0  0  0  0  0  0  0  0  0
    2.0790   20.9575   40.5860 C   0  0  0  0  0  0  0  0  0  0  0  0
    2.0736   19.6997   41.1604 C   0  0  0  0  0  0  0  0  0  0  0  0
    2.8897   20.1150   37.0677 C   0  0  0  0  0  0  0  0  0  0  0  0
    3.1624   19.0790   36.2121 O   0  0  0  0  0  0  0  0  0  0  0  0
    2.8845   21.2877   36.5817 O   0  0  0  0  0  0  0  0  0  0  0  0
    2.8054   17.8211   38.4715 H   0  0  0  0  0  0  0  0  0  0  0  0
    2.3558   22.0719   38.7735 H   0  0  0  0  0  0  0  0  0  0  0  0
    1.8725   21.8036   41.2064 H   0  0  0  0  0  0  0  0  0  0  0  0
    1.8711   19.5233   42.2074 H   0  0  0  0  0  0  0  0  0  0  0  0
  1  2  1  0
  1  6  2  0
  2  3  2  0
  3  4  1  0
  3  7  1  0
  4  5  2  0
  5  6  1  0
  7  8  1  0
  7  9  2  0
  2 10  1  0
  4 11  1  0
  5 12  1  0
  6 13  1  0
M  CHG  1   8  -1
M  END
>  <mol_id>  (18) 
2026-09-16-3war-s0-n100-0018

>  <rmsd_to_ref>  (18) 
1.2346938775512135

>  <pose_kind>  (18) 
conformer

$$$$
3war.A
     RDKit          3D

 13 13  0  0  0  0  0  0  0  0999 V2000
    1.5560   18.8683   41.3221 N   0  0  0  0  0  0  0  0  0  0  0  0
    2.3155   18.5488   40.1711 C   0  0  0  0  0  0  0  0  0  0  0  0
    2.4748   19.5850   39.1810 C   0  0  0  0  0  0  0  0  0  0  0  0
    1.8813   20.8232   39.3509 C   0  0  0  0  0  0  0  0  0  0  0  0
    1.1730   21.0986   40.5000 C   0  0  0  0  0  0  0  0  0  0  0  0
    0.9959   20.1139   41.4458 C   0  0  0  0  0  0  0  0  0  0  0  0
    3.1970   19.2809   37.8770 C   0  0  0  0  0  0  0  0  0  0  0  0
    3.8650   18.2088   37.7947 O   0  0  0  0  0  0  0  0  0  0  0  0
    3.0518   20.1160   37.0104 O   0  0  0  0  0  0  0  0  0  0  0  0
    2.7647   17.5535   40.0377 H   0  0  0  0  0  0  0  0  0  0  0  0
    1.9753   21.5891   38.5670 H   0  0  0  0  0  0  0  0  0  0  0  0
    0.7504   22.1014   40.6611 H   0  0  0  0  0  0  0  0  0  0  0  0
    0.3832   20.3342   42.3325 H   0  0  0  0  0  0  0  0  0  0  0  0
  1  2  1  0
  1  6  2  0
  2  3  2  0
  3  4  1  0
  3  7  1  0
  4  5  2  0
  5  6  1  0
  7  8  1  0
  7  9  2  0
  2 10  1  0
  4 11  1  0
  5 12  1  0
  6 13  1  0
M  CHG  1   8  -1
M  END
>  <mol_id>  (19) 
2026-09-16-3war-s0-n100-0019

>  <rmsd_to_ref>  (19) 
1.2806122449011814

>  <pose_kind>  (19) 
rigid

$$$$
3war.A
     RDKit          3D

 13 13  0  0  0  0  0  0  0  0999 V2000
    3.8217   19.1918   40.7981 N   0  0  0  0  0  0  0  0  0  0  0  0
    3.8314   19.1566   39.4718 C   0  0  0  0  0  0  0  0  0  0  0  0
    3.1502   20.1528   38.7938 C   0  0  0  0  0  0  0  0  0  0  0  0
    2.4931   21.1353   39.5004 C   0  0  0  0  0  0  0  0  0  0  0  0
    2.5149   21.1248   40.8857 C   0  0  0  0  0  0  0  0  0  0  0  0
    3.2005   20.1218   41.5460 C   0  0  0  0  0  0  0  0  0  0  0  0
    3.1198   20.1749   37.3532 C   0  0  0  0  0  0  0  0  0  0  0  0
    3.7341   19.2542   36.5442 O   0  0  0  0  0  0  0  0  0  0  0  0
    2.4787   21.1136   36.7879 O   0  0  0  0  0  0  0  0  0  0  0  0
    4.3567   18.3713   38.9205 H   0  0  0  0  0  0  0  0  0  0  0  0
    1.9562   21.9206   38.9730 H   0  0  0  0  0  0  0  0  0  0  0  0
    2.0161   21.8713   41.4667 H   0  0  0  0  0  0  0  0  0  0  0  0
    3.2604   20.0502   42.6228 H   0  0  0  0  0  0  0  0  0  0  0  0
  1  2  1  0
  1  6  2  0
  2  3  2  0
  3  4  1  0
  3  7  1  0
  4  5  2  0
  5  6  1  0
  7  8  1  0
  7  9  2  0
  2 10  1  0
  4 11  1  0
  5 12  1  0
  6 13  1  0
M  CHG  1   8  -1
M  END
>  <mol_id>  (20) 
2026-09-16-3war-s0-n100-0020

>  <rmsd_to_ref>  (20) 
1.326530612247875

>  <pose_kind>  (20) 
conformer

$$$$
3war.A
     RDKit          3D

 13 13  0  0  0  0  0  0  0  0999 V2000
    3.4817   18.5736   40.1292 N   0  0  0  0  0  0  0  0  0  0  0  0
    3.4046   19.0670   38.8046 C   0  0  0  0  0  0  0  0  0  0  0  0
    2.3658   20.0260   38.5209 C   0  0  0  0  0  0  0  0  0  0  0  0
    1.4741   20.4154   39.5045 C   0  0  0  0  0  0  0  0  0  0  0  0
    1.6037   19.9291   40.7869 C   0  0  0  0  0  0  0  0  0  0  0  0
    2.5784   18.9984   41.0693 C   0  0  0  0  0  0  0  0  0  0  0  0
    2.1650   20.5251   37.0977 C   0  0  0  0  0  0  0  0  0  0  0  0
    3.0698   20.2896   36.2440 O   0  0  0  0  0  0  0  0  0  0  0  0
    1.1207   21.1106   36.9083 O   0  0  0  0  0  0  0  0  0  0  0  0
    4.1064   18.7337   38.0259 H   0  0  0  0  0  0  0  0  0  0  0  0
    0.6602   21.1145   39.2621 H   0  0  0  0  0  0  0  0  0  0  0  0
    0.9311   20.2828   41.5822 H   0  0  0  0  0  0  0  0  0  0  0  0
    2.6345   18.5809   42.0854 H   0  0  0  0  0  0  0  0  0  0  0  0
  1  2  1  0
  1  6  2  0
  2  3  2  0
  3  4  1  0
  3  7  1  0
  4  5  2  0
  5  6  1  0
  7  8  1  0
  7  9  2  0
  2 10  1  0
  4 11  1  0
  5 12  1  0
  6 13  1  0
M  CHG  1   8  -1
M  END
>  <mol_id>  (21) 
2026-09-16-3war-s0-n100-0021

>  <rmsd_to_ref>  (21) 
1.3724489795974857

>  <pose_kind>  (21) 
rigid

$$$$
3war.A
     RDKit          3D

 13 13  0  0  0  0  0  0  0  0999 V2000
    2.0104   19.5068   40.9719 N   0  0  0  0  0  0  0  0  0  0  0  0
    2.5428   18.8511   39.9487 C   0  0  0  0  0  0  0  0  0  0  0  0
    2.4039   19.4008   38.6859 C   0  0  0  0  0  0  0  0  0  0  0  0
    1.7297   20.5913   38.5282 C   0  0  0  0  0  0  0  0  0  0  0  0
    1.1928   21.2349   39.6314 C   0  0  0  0  0  0  0  0  0  0  0  0
    1.3414   20.6709   40.8851 C   0  0  0  0  0  0  0  0  0  0  0  0
    2.9577   18.7414   37.5304 C   0  0  0  0  0  0  0  0  0  0  0  0
    3.6468   17.5566   37.5620 O   0  0  0  0  0  0  0  0  0  0  0  0
    2.7981   19.2941   36.3987 O   0  0  0  0  0  0  0  0  0  0  0  0
    3.0763   17.9060   40.0853 H   0  0  0  0  0  0  0  0  0  0  0  0
    1.6175   21.0280   37.5384 H   0  0  0  0  0  0  0  0  0  0  0  0
    0.6633   22.1601   39.5465 H   0  0  0  0  0  0  0  0  0  0  0  0
    0.9498   21.1158   41.7889 H   0  0  0  0  0  0  0  0  0  0  0  0
  1  2  1  0
  1  6  2  0
  2  3  2  0
  3  4  1  0
  3  7  1  0
  4  5  2  0
  5  6  1  0
  7  8  1  0
  7  9  2  0
  2 10  1  0
  4 11  1  0
  5 12  1  0
  6 13  1  0
M  CHG  1   8  -1
M  END
>  <mol_id>  (22) 
2026-09-16-3war-s0-n100-0022

>  <rmsd_to_ref>  (22) 
1.4183673469417586

>  <pose_kind>  (22) 
conformer

$$$$
3war.A
     RDKit          3D

 13 13  0  0  0  0  0  0  0  0999 V2000
    3.3190   18.8790   40.5725 N   0  0  0  0  0  0  0  0  0  0  0  0
    3.3034   19.0333   39.1653 C   0  0  0  0  0  0  0  0  0  0  0  0
    2.7192   20.2443   38.6441 C   0  0  0  0  0  0  0  0  0  0  0  0
    2.1771   21.1914   39.4946 C   0  0  0  0  0  0  0  0  0  0  0  0
    2.2387   21.0114   40.8591 C   0  0  0  0  0  0  0  0  0  0  0  0
    2.7760   19.8520   41.3716 C   0  0  0  0  0  0  0  0  0  0  0  0
    2.5828   20.4323   37.1406 C   0  0  0  0  0  0  0  0  0  0  0  0
    3.2135   19.6450   36.3758 O   0  0  0  0  0  0  0  0  0  0  0  0
    1.8524   21.3405   36.8075 O   0  0  0  0  0  0  0  0  0  0  0  0
    3.7186   18.2632   38.4986 H   0  0  0  0  0  0  0  0  0  0  0  0
    1.6961   22.0898   39.0805 H   0  0  0  0  0  0  0  0  0  0  0  0
    1.8600   21.7910   41.5365 H   0  0  0  0  0  0  0  0  0  0  0  0
    2.7693   19.7008   42.4612 H   0  0  0  0  0  0  0  0  0  0  0  0
  1  2  1  0
  1  6  2  0
  2  3  2  0
  3  4  1  0
  3  7  1  0
  4  5  2  0
  5  6  1  0
  7  8  1  0
  7  9  2  0
  2 10  1  0
  4 11  1  0
  5 12  1  0
  6 13  1  0
M  CHG  1   8  -1
M  END
>  <mol_id>  (23) 
2026-09-16-3war-s0-n100-0023

>  <rmsd_to_ref>  (23) 
1.4642857142883767

>  <pose_kind>  (23) 
rigid

$$$$
3war.A
     RDKit          3D

 13 13  0  0  0  0  0  0  0  0999 V2000
    3.5869   20.2106   41.1311 N   0  0  0  0  0  0  0  0  0  0  0  0
    3.7007   19.4765   40.0318 C   0  0  0  0  0  0  0  0  0  0  0  0
    2.9358   19.8329   38.9345 C   0  0  0  0  0  0  0  0  0  0  0  0
    2.0930   20.9193   39.0116 C   0  0  0  0  0  0  0  0  0  0  0  0
    2.0124   21.6519   40.1847 C   0  0  0  0  0  0  0  0  0  0  0  0
    2.7840   21.2812   41.2707 C   0  0  0  0  0  0  0  0  0  0  0  0
    3.0103   19.0792   37.7086 C   0  0  0  0  0  0  0  0  0  0  0  0
    3.8096   17.9826   37.5125 O   0  0  0  0  0  0  0  0  0  0  0  0
    2.2848   19.4542   36.7367 O   0  0  0  0  0  0  0  0  0  0  0  0
    4.3734   18.6154   39.9816 H   0  0  0  0  0  0  0  0  0  0  0  0
    1.4896   21.2040   38.1526 H   0  0  0  0  0  0  0  0  0  0  0  0
    1.3693   22.5009   40.2805 H   0  0  0  0  0  0  0  0  0  0  0  0
    2.7730   21.8048   42.2161 H   0  0  0  0  0  0  0  0  0  0  0  0
  1  2  1  0
  1  6  2  0
  2  3  2  0
  3  4  1  0
  3  7  1  0
  4  5  2  0
  5  6  1  0
  7  8  1  0
  7  9  2  0
  2 10  1  0
  4 11  1  0
  5 12  1  0
  6 13  1  0
M  CHG  1   8  -1
M  END
>  <mol_id>  (24) 
2026-09-16-3war-s0-n100-0024

>  <rmsd_to_ref>  (24) 
1.5102040816335676

>  <pose_kind>  (24) 
conformer

$$$$
3war.A
     RDKit          3D

 13 13  0  0  0  0  0  0  0  0999 V2000
    0.7838   20.9619   40.8112 N   0  0  0  0  0  0  0  0  0  0  0  0
    1.0293   20.4577   39.5114 C   0  0  0  0  0  0  0  0  0  0  0  0
    2.3178   19.8559   39.2732 C   0  0  0  0  0  0  0  0  0  0  0  0
    3.2716   19.8062   40.2742 C   0  0  0  0  0  0  0  0  0  0  0  0
    2.9791   20.2854   41.5322 C   0  0  0  0  0  0  0  0  0  0  0  0
    1.7604   20.8801   41.7703 C   0  0  0  0  0  0  0  0  0  0  0  0
    2.6840   19.3804   37.8751 C   0  0  0  0  0  0  0  0  0  0  0  0
    1.7635   19.2857   37.0112 O   0  0  0  0  0  0  0  0  0  0  0  0
    3.8609   19.1391   37.7137 O   0  0  0  0  0  0  0  0  0  0  0  0
    0.2703   20.5223   38.7177 H   0  0  0  0  0  0  0  0  0  0  0  0
    4.2653   19.3833   40.0651 H   0  0  0  0  0  0  0  0  0  0  0  0
    3.7164   20.1932   42.3434 H   0  0  0  0  0  0  0  0  0  0  0  0
    1.5629   21.3049   42.7657 H   0  0  0  0  0  0  0  0  0  0  0  0
  1  2  1  0
  1  6  2  0
  2  3  2  0
  3  4  1  0
  3  7  1  0
  4  5  2  0
  5  6  1  0
  7  8  1  0
  7  9  2  0
  2 10  1  0
  4 11  1  0
  5 12  1  0
  6 13  1  0
M  CHG  1   8  -1
M  END
>  <mol_id>  (25) 
2026-09-16-3war-s0-n100-0025

>  <rmsd_to_ref>  (25) 
1.5561224489822343

>  <pose_kind>  (25) 
rigid

$$$$
3war.A
     RDKit          3D

 13 13  0  0  0  0  0  0  0  0999 V2000
    1.7223   19.0454   40.7109 N   0  0  0  0  0  0  0  0  0  0  0  0
    2.5595   18.5931   39.7863 C   0  0  0  0  0  0  0  0  0  0  0  0
    2.7016   19.3333   38.6253 C   0  0  0  0  0  0  0  0  0  0  0  0
    1.9839   20.4975   38.4638 C   0  0  0  0  0  0  0  0  0  0  0  0
    1.1227   20.9247   39.4616 C   0  0  0  0  0  0  0  0  0  0  0  0
    0.9937   20.1723   40.6146 C   0  0  0  0  0  0  0  0  0  0  0  0
    3.5939   18.8999   37.5800 C   0  0  0  0  0  0  0  0  0  0  0  0
    4.3581   17.7626   37.6263 O   0  0  0  0  0  0  0  0  0  0  0  0
    3.6818   19.6206   36.5387 O   0  0  0  0  0  0  0  0  0  0  0  0
    3.1248   17.6668   39.9251 H   0  0  0  0  0  0  0  0  0  0  0  0
    2.0915   21.0832   37.5536 H   0  0  0  0  0  0  0  0  0  0  0  0
    0.5500   21.8231   39.3705 H   0  0  0  0  0  0  0  0  0  0  0  0
    0.3422   20.4435   41.4334 H   0  0  0  0  0  0  0  0  0  0  0  0
  1  2  1  0
  1  6  2  0
  2  3  2  0
  3  4  1  0
  3  7  1  0
  4  5  2  0
  5  6  1  0
  7  8  1  0
  7  9  2  0
  2 10  1  0
  4 11  1  0
  5 12  1  0
  6 13  1  0
M  CHG  1   8  -1
M  END
>  <mol_id>  (26) 
2026-09-16-3war-s0-n100-0026

>  <rmsd_to_ref>  (26) 
1.6020408163309565

>  <pose_kind>  (26) 
conformer

$$$$
3war.A
     RDKit          3D

 13 13  0  0  0  0  0  0  0  0999 V2000
    1.1877   19.9933   37.8056 N   0  0  0  0  0  0  0  0  0  0  0  0
    2.0803   19.0572   37.2303 C   0  0  0  0  0  0  0  0  0  0  0  0
    3.4223   19.0204   37.7566 C   0  0  0  0  0  0  0  0  0  0  0  0
    3.8124   19.8881   38.7612 C   0  0  0  0  0  0  0  0  0  0  0  0
    2.9021   20.7647   39.3099 C   0  0  0  0  0  0  0  0  0  0  0  0
    1.6224   20.8251   38.8054 C   0  0  0  0  0  0  0  0  0  0  0  0
    4.4595   18.1067   37.1212 C   0  0  0  0  0  0  0  0  0  0  0  0
    4.0625   17.2134   36.3167 O   0  0  0  0  0  0  0  0  0  0  0  0
    5.6042   18.3342   37.4485 O   0  0  0  0  0  0  0  0  0  0  0  0
    1.7640   18.3871   36.4173 H   0  0  0  0  0  0  0  0  0  0  0  0
    4.8513   19.8781   39.1224 H   0  0  0  0  0  0  0  0  0  0  0  0
    3.1965   21.4137   40.1479 H   0  0  0  0  0  0  0  0  0  0  0  0
    0.9238   21.5671   39.2192 H   0  0  0  0  0  0  0  0  0  0  0  0
  1  2  1  0
  1  6  2  0
  2  3  2  0
  3  4  1  0
  3  7  1  0
  4  5  2  0
  5  6  1  0
  7  8  1  0
  7  9  2  0
  2 10  1  0
  4 11  1  0
  5 12  1  0
  6 13  1  0
M  CHG  1   8  -1
M  END
>  <mol_id>  (27) 
2026-09-16-3war-s0-n100-0027

>  <rmsd_to_ref>  (27) 
1.6479591836758303

>  <pose_kind>  (27) 
rigid

$$$$
3war.A
     RDKit          3D

 13 13  0  0  0  0  0  0  0  0999 V2000
    3.6562   19.0954   40.5209 N   0  0  0  0  0  0  0  0  0  0  0  0
    3.4368   18.7849   39.2498 C   0  0  0  0  0  0  0  0  0  0  0  0
    2.5063   19.5359   38.5522 C   0  0  0  0  0  0  0  0  0  0  0  0
    1.8456   20.5658   39.1842 C   0  0  0  0  0  0  0  0  0  0  0  0
    2.1129   20.8477   40.5141 C   0  0  0  0  0  0  0  0  0  0  0  0
    3.0456   20.0870   41.1949 C   0  0  0  0  0  0  0  0  0  0  0  0
    2.2192   19.2527   37.1687 C   0  0  0  0  0  0  0  0  0  0  0  0
    2.8109   18.2567   36.4355 O   0  0  0  0  0  0  0  0  0  0  0  0
    1.3561   19.9758   36.5821 O   0  0  0  0  0  0  0  0  0  0  0  0
    3.9673   17.9646   38.7576 H   0  0  0  0  0  0  0  0  0  0  0  0
    1.1135   21.1591   38.6411 H   0  0  0  0  0  0  0  0  0  0  0  0
    1.6192   21.6394   41.0366 H   0  0  0  0  0  0  0  0  0  0  0  0
    3.3046   20.2491   42.2317 H   0  0  0  0  0  0  0  0  0  0  0  0
  1  2  1  0
  1  6  2  0
  2  3  2  0
  3  4  1  0
  3  7  1  0
  4  5  2  0
  5  6  1  0
  7  8  1  0
  7  9  2  0
  2 10  1  0
  4 11  1  0
  5 12  1  0
  6 13  1  0
M  CHG  1   8  -1
M  END
>  <mol_id>  (28) 
2026-09-16-3war-s0-n100-0028

>  <rmsd_to_ref>  (28) 
1.6938775510212667

>  <pose_kind>  (28) 
conformer

$$$$
3war.A
     RDKit          3D

 13 13  0  0  0  0  0  0  0  0999 V2000
    3.5379   17.9869   39.5480 N   0  0  0  0  0  0  0  0  0  0  0  0
    3.5404   18.8323   38.4125 C   0  0  0  0  0  0  0  0  0  0  0  0
    3.0928   20.1897   38.6038 C   0  0  0  0  0  0  0  0  0  0  0  0
    2.6569   20.6231   39.8432 C   0  0  0  0  0  0  0  0  0  0  0  0
    2.6972   19.7730   40.9264 C   0  0  0  0  0  0  0  0  0  0  0  0
    3.1039   18.4685   40.7563 C   0  0  0  0  0  0  0  0  0  0  0  0
    2.9789   21.1243   37.4085 C   0  0  0  0  0  0  0  0  0  0  0  0
    3.5204   20.7761   36.3185 O   0  0  0  0  0  0  0  0  0  0  0  0
    2.3526   22.1407   37.6177 O   0  0  0  0  0  0  0  0  0  0  0  0
    3.8694   18.4697   37.4274 H   0  0  0  0  0  0  0  0  0  0  0  0
    2.2773   21.6485   39.9639 H   0  0  0  0  0  0  0  0  0  0  0  0
    2.4056   20.1348   41.9235 H   0  0  0  0  0  0  0  0  0  0  0  0
    3.0800   17.7885   41.6205 H   0  0  0  0  0  0  0  0  0  0  0  0
  1  2  1  0
  1  6  2  0
  2  3  2  0
  3  4  1  0
  3  7  1  0
  4  5  2  0
  5  6  1  0
  7  8  1  0
  7  9  2  0
  2 10  1  0
  4 11  1  0
  5 12  1  0
  6 13  1  0
M  CHG  1   8  -1
M  END
>  <mol_id>  (29) 
2026-09-16-3war-s0-n100-0029

>  <rmsd_to_ref>  (29) 
1.7397959183709022

>  <pose_kind>  (29) 
rigid

$$$$
3war.A
     RDKit          3D

 13 13  0  0  0  0  0  0  0  0999 V2000
    2.5684   19.2301   40.2489 N   0  0  0  0  0  0  0  0  0  0  0  0
    2.8169   18.7086   39.0545 C   0  0  0  0  0  0  0  0  0  0  0  0
    2.6262   19.5142   37.9451 C   0  0  0  0  0  0  0  0  0  0  0  0
    2.1919   20.8109   38.1074 C   0  0  0  0  0  0  0  0  0  0  0  0
    1.9470   21.3056   39.3781 C   0  0  0  0  0  0  0  0  0  0  0  0
    2.1430   20.4865   40.4747 C   0  0  0  0  0  0  0  0  0  0  0  0
    2.8772   19.0115   36.6180 C   0  0  0  0  0  0  0  0  0  0  0  0
    3.3106   17.7428   36.3316 O   0  0  0  0  0  0  0  0  0  0  0  0
    2.6844   19.7975   35.6399 O   0  0  0  0  0  0  0  0  0  0  0  0
    3.1616   17.6771   38.9370 H   0  0  0  0  0  0  0  0  0  0  0  0
    2.0403   21.4484   37.2393 H   0  0  0  0  0  0  0  0  0  0  0  0
    1.6091   22.3069   39.5419 H   0  0  0  0  0  0  0  0  0  0  0  0
    1.9726   20.8038   41.4938 H   0  0  0  0  0  0  0  0  0  0  0  0
  1  2  1  0
  1  6  2  0
  2  3  2  0
  3  4  1  0
  3  7  1  0
  4  5  2  0
  5  6  1  0
  7  8  1  0
  7  9  2  0
  2 10  1  0
  4 11  1  0
  5 12  1  0
  6 13  1  0
M  CHG  1   8  -1
M  END
>  <mol_id>  (30) 
2026-09-16-3war-s0-n100-0030

>  <rmsd_to_ref>  (30) 
1.785714285715669

>  <pose_kind>  (30) 
conformer

$$$$
3war.A
     RDKit          3D

 13 13  0  0  0  0  0  0  0  0999 V2000
    1.9187   18.3516   41.0961 N   0  0  0  0  0  0  0  0  0  0  0  0
    2.7023   18.6029   39.9442 C   0  0  0  0  0  0  0  0  0  0  0  0
    2.4230   19.8129   39.2113 C   0  0  0  0  0  0  0  0  0  0  0  0
    1.4113   20.6665   39.6138 C   0  0  0  0  0  0  0  0  0  0  0  0
    0.6917   20.3952   40.7569 C   0  0  0  0  0  0  0  0  0  0  0  0
    0.9335   19.2345   41.4569 C   0  0  0  0  0  0  0  0  0  0  0  0
    3.1610   20.0976   37.9117 C   0  0  0  0  0  0  0  0  0  0  0  0
    4.1818   19.4021   37.6343 O   0  0  0  0  0  0  0  0  0  0  0  0
    2.6805   20.9847   37.2398 O   0  0  0  0  0  0  0  0  0  0  0  0
    3.4899   17.9055   39.6224 H   0  0  0  0  0  0  0  0  0  0  0  0
    1.1810   21.5633   39.0200 H   0  0  0  0  0  0  0  0  0  0  0  0
   -0.0731   21.1032   41.1089 H   0  0  0  0  0  0  0  0  0  0  0  0
    0.3142   19.0073   42.3372 H   0  0  0  0  0  0  0  0  0  0  0  0
  1  2  1  0
  1  6  2  0
  2  3  2  0
  3  4  1  0
  3  7  1  0
  4  5  2  0
  5  6  1  0
  7  8  1  0
  7  9  2  0
  2 10  1  0
  4 11  1  0
  5 12  1  0
  6 13  1  0
M  CHG  1   8  -1
M  END
>  <mol_id>  (31) 
2026-09-16-3war-s0-n100-0031

>  <rmsd_to_ref>  (31) 
1.831632653065115

>  <pose_kind>  (31) 
rigid

$$$$
3war.A
     RDKit          3D

 13 13  0  0  0  0  0  0  0  0999 V2000
    0.3610   20.4648   40.0056 N   0  0  0  0  0  0  0  0  0  0  0  0
    0.8510   20.1327   38.8181 C   0  0  0  0  0  0  0  0  0  0  0  0
    2.0563   20.6959   38.4356 C   0  0  0  0  0  0  0  0  0  0  0  0
    2.7025   21.5696   39.2817 C   0  0  0  0  0  0  0  0  0  0  0  0
    2.1463   21.8822   40.5115 C   0  0  0  0  0  0  0  0  0  0  0  0
    0.9416   21.3101   40.8767 C   0  0  0  0  0  0  0  0  0  0  0  0
    2.6454   20.3788   37.1593 C   0  0  0  0  0  0  0  0  0  0  0  0
    2.0978   19.5263   36.2359 O   0  0  0  0  0  0  0  0  0  0  0  0
    3.7520   20.9266   36.8643 O   0  0  0  0  0  0  0  0  0  0  0  0
    0.3292   19.4376   38.1539 H   0  0  0  0  0  0  0  0  0  0  0  0
    3.6498   22.0150   38.9864 H   0  0  0  0  0  0  0  0  0  0  0  0
    2.6198   22.5562   41.1935 H   0  0  0  0  0  0  0  0  0  0  0  0
    0.4494   21.5073   41.8186 H   0  0  0  0  0  0  0  0  0  0  0  0
  1  2  1  0
  1  6  2  0
  2  3  2  0
  3  4  1  0
  3  7  1  0
  4  5  2  0
  5  6  1  0
  7  8  1  0
  7  9  2  0
  2 10  1  0
  4 11  1  0
  5 12  1  0
  6 13  1  0
M  CHG  1   8  -1
M  END
>  <mol_id>  (32) 
2026-09-16-3war-s0-n100-0032

>  <rmsd_to_ref>  (32) 
1.877551020408251

>  <pose_kind>  (32) 
conformer

$$$$
3war.A
     RDKit          3D

 13 13  0  0  0  0  0  0  0  0999 V2000
    1.8081   18.3744   40.8617 N   0  0  0  0  0  0  0  0  0  0  0  0
    2.1115   18.1205   39.5025 C   0  0  0  0  0  0  0  0  0  0  0  0
    2.2489   19.2649   38.6359 C   0  0  0  0  0  0  0  0  0  0  0  0
    2.0619   20.5468   39.1214 C   0  0  0  0  0  0  0  0  0  0  0  0
    1.7941   20.7478   40.4578 C   0  0  0  0  0  0  0  0  0  0  0  0
    1.6409   19.6648   41.2942 C   0  0  0  0  0  0  0  0  0  0  0  0
    2.4795   19.0621   37.1458 C   0  0  0  0  0  0  0  0  0  0  0  0
    2.8021   17.9078   36.7382 O   0  0  0  0  0  0  0  0  0  0  0  0
    2.3178   20.0541   36.4682 O   0  0  0  0  0  0  0  0  0  0  0  0
    2.2369   17.0953   39.1240 H   0  0  0  0  0  0  0  0  0  0  0  0
    2.1272   21.4073   38.4392 H   0  0  0  0  0  0  0  0  0  0  0  0
    1.7030   21.7695   40.8551 H   0  0  0  0  0  0  0  0  0  0  0  0
    1.3752   19.8411   42.3468 H   0  0  0  0  0  0  0  0  0  0  0  0
  1  2  1  0
  1  6  2  0
  2  3  2  0
  3  4  1  0
  3  7  1  0
  4  5  2  0
  5  6  1  0
  7  8  1  0
  7  9  2  0
  2 10  1  0
  4 11  1  0
  5 12  1  0
  6 13  1  0
M  CHG  1   8  -1
M  END
>  <mol_id>  (33) 
2026-09-16-3war-s0-n100-0033

>  <rmsd_to_ref>  (33) 
1.92346938775521

>  <pose_kind>  (33) 
rigid

$$$$
3war.A
     RDKit          3D

 13 13  0  0  0  0  0  0  0  0999 V2000
    1.6146   19.6225   40.6386 N   0  0  0  0  0  0  0  0  0  0  0  0
    2.6415   19.2651   39.8784 C   0  0  0  0  0  0  0  0  0  0  0  0
    2.6354   19.6663   38.5535 C   0  0  0  0  0  0  0  0  0  0  0  0
    1.5836   20.4116   38.0690 C   0  0  0  0  0  0  0  0  0  0  0  0
    0.5358   20.7576   38.9067 C   0  0  0  0  0  0  0  0  0  0  0  0
    0.5589   20.3480   40.2272 C   0  0  0  0  0  0  0  0  0  0  0  0
    3.7193   19.3129   37.6720 C   0  0  0  0  0  0  0  0  0  0  0  0
    4.8166   18.5773   38.0382 O   0  0  0  0  0  0  0  0  0  0  0  0
    3.6576   19.7097   36.4676 O   0  0  0  0  0  0  0  0  0  0  0  0
    3.4720   18.6729   40.2737 H   0  0  0  0  0  0  0  0  0  0  0  0
    1.5735   20.7296   37.0289 H   0  0  0  0  0  0  0  0  0  0  0  0
   -0.2969   21.3350   38.5649 H   0  0  0  0  0  0  0  0  0  0  0  0
   -0.2224   20.5804   40.9370 H   0  0  0  0  0  0  0  0  0  0  0  0
  1  2  1  0
  1  6  2  0
  2  3  2  0
  3  4  1  0
  3  7  1  0
  4  5  2  0
  5  6  1  0
  7  8  1  0
  7  9  2  0
  2 10  1  0
  4 11  1  0
  5 12  1  0
  6 13  1  0
M  CHG  1   8  -1
M  END
>  <mol_id>  (34) 
2026-09-16-3war-s0-n100-0034

>  <rmsd_to_ref>  (34) 
1.9693877551026358

>  <pose_kind>  (34) 
conformer

$$$$
3war.A
     RDKit          3D

 13 13  0  0  0  0  0  0  0  0999 V2000
    1.8503   20.1039   40.8179 N   0  0  0  0  0  0  0  0  0  0  0  0
    2.7019   19.5550   39.8291 C   0  0  0  0  0  0  0  0  0  0  0  0
    2.7768   20.2501   38.5679 C   0  0  0  0  0  0  0  0  0  0  0  0
    2.0219   21.3871   38.3405 C   0  0  0  0  0  0  0  0  0  0  0  0
    1.2269   21.9007   39.3416 C   0  0  0  0  0  0  0  0  0  0  0  0
    1.1298   21.2381   40.5446 C   0  0  0  0  0  0  0  0  0  0  0  0
    3.5971   19.6640   37.4286 C   0  0  0  0  0  0  0  0  0  0  0  0
    4.4002   18.7205   37.6884 O   0  0  0  0  0  0  0  0  0  0  0  0
    3.3902   20.1655   36.3446 O   0  0  0  0  0  0  0  0  0  0  0  0
    3.2810   18.6383   40.0147 H   0  0  0  0  0  0  0  0  0  0  0  0
    2.0564   21.8816   37.3587 H   0  0  0  0  0  0  0  0  0  0  0  0
    0.6718   22.8367   39.1804 H   0  0  0  0  0  0  0  0  0  0  0  0
    0.4500   21.6327   41.3141 H   0  0  0  0  0  0  0  0  0  0  0  0
  1  2  1  0
  1  6  2  0
  2  3  2  0
  3  4  1  0
  3  7  1  0
  4  5  2  0
  5  6  1  0
  7  8  1  0
  7  9  2  0
  2 10  1  0
  4 11  1  0
  5 12  1  0
  6 13  1  0
M  CHG  1   8  -1
M  END
>  <mol_id>  (35) 
2026-09-16-3war-s0-n100-0035

>  <rmsd_to_ref>  (35) 
2.015306122450609

>  <pose_kind>  (35) 
rigid

$$$$
3war.A
     RDKit          3D

 13 13  0  0  0  0  0  0  0  0999 V2000
    3.7601   18.0683   38.7570 N   0  0  0  0  0  0  0  0  0  0  0  0
    3.6973   18.9254   37.7460 C   0  0  0  0  0  0  0  0  0  0  0  0
    2.6379   19.8160   37.7185 C   0  0  0  0  0  0  0  0  0  0  0  0
    1.6953   19.7894   38.7221 C   0  0  0  0  0  0  0  0  0  0  0  0
    1.8087   18.8733   39.7552 C   0  0  0  0  0  0  0  0  0  0  0  0
    2.8736   17.9913   39.7662 C   0  0  0  0  0  0  0  0  0  0  0  0
    2.5085   20.7738   36.6496 C   0  0  0  0  0  0  0  0  0  0  0  0
    3.3811   20.8954   35.5991 O   0  0  0  0  0  0  0  0  0  0  0  0
    1.5158   21.5646   36.6788 O   0  0  0  0  0  0  0  0  0  0  0  0
    4.4517   18.9377   36.9540 H   0  0  0  0  0  0  0  0  0  0  0  0
    0.8608   20.4869   38.7056 H   0  0  0  0  0  0  0  0  0  0  0  0
    1.0958   18.8240   40.5508 H   0  0  0  0  0  0  0  0  0  0  0  0
    3.0262   17.2506   40.5385 H   0  0  0  0  0  0  0  0  0  0  0  0
  1  2  1  0
  1  6  2  0
  2  3  2  0
  3  4  1  0
  3  7  1  0
  4  5  2  0
  5  6  1  0
  7  8  1  0
  7  9  2  0
  2 10  1  0
  4 11  1  0
  5 12  1  0
  6 13  1  0
M  CHG  1   8  -1
M  END
>  <mol_id>  (36) 
2026-09-16-3war-s0-n100-0036

>  <rmsd_to_ref>  (36) 
2.061224489797364

>  <pose_kind>  (36) 
conformer

$$$$
3war.A
     RDKit          3D

 13 13  0  0  0  0  0  0  0  0999 V2000
   -0.0953   19.5672   39.1632 N   0  0  0  0  0  0  0  0  0  0  0  0
    0.5202   20.1553   38.0321 C   0  0  0  0  0  0  0  0  0  0  0  0
    1.9559   20.0558   37.9401 C   0  0  0  0  0  0  0  0  0  0  0  0
    2.6875   19.4338   38.9361 C   0  0  0  0  0  0  0  0  0  0  0  0
    2.0436   18.8519   40.0060 C   0  0  0  0  0  0  0  0  0  0  0  0
    0.6751   18.9548   40.1181 C   0  0  0  0  0  0  0  0  0  0  0  0
    2.6907   20.7475   36.8015 C   0  0  0  0  0  0  0  0  0  0  0  0
    2.0144   21.1759   35.8209 O   0  0  0  0  0  0  0  0  0  0  0  0
    3.8905   20.8338   36.9509 O   0  0  0  0  0  0  0  0  0  0  0  0
   -0.0707   20.6657   37.2573 H   0  0  0  0  0  0  0  0  0  0  0  0
    3.7853   19.4039   38.8736 H   0  0  0  0  0  0  0  0  0  0  0  0
    2.6205   18.3072   40.7679 H   0  0  0  0  0  0  0  0  0  0  0  0
    0.1823   18.5307   41.0053 H   0  0  0  0  0  0  0  0  0  0  0  0
  1  2  1  0
  1  6  2  0
  2  3  2  0
  3  4  1  0
  3  7  1  0
  4  5  2  0
  5  6  1  0
  7  8  1  0
  7  9  2  0
  2 10  1  0
  4 11  1  0
  5 12  1  0
  6 13  1  0
M  CHG  1   8  -1
M  END
>  <mol_id>  (37) 
2026-09-16-3war-s0-n100-0037

>  <rmsd_to_ref>  (37) 
2.107142857146948

>  <pose_kind>  (37) 
rigid

$$$$
3war.A
     RDKit          3D

 13 13  0  0  0  0  0  0  0  0999 V2000
    0.5138   18.7460   38.8646 N   0  0  0  0  0  0  0  0  0  0  0  0
    0.9290   19.3891   37.7810 C   0  0  0  0  0  0  0  0  0  0  0  0
    2.1795   19.9815   37.8202 C   0  0  0  0  0  0  0  0  0  0  0  0
    2.9449   19.8893   38.9615 C   0  0  0  0  0  0  0  0  0  0  0  0
    2.4628   19.2053   40.0655 C   0  0  0  0  0  0  0  0  0  0  0  0
    1.2114   18.6199   40.0081 C   0  0  0  0  0  0  0  0  0  0  0  0
    2.6923   20.6958   36.6785 C   0  0  0  0  0  0  0  0  0  0  0  0
    2.0251   20.8544   35.4914 O   0  0  0  0  0  0  0  0  0  0  0  0
    3.8456   21.2178   36.7746 O   0  0  0  0  0  0  0  0  0  0  0  0
    0.3127   19.4562   36.8797 H   0  0  0  0  0  0  0  0  0  0  0  0
    3.9281   20.3528   38.9979 H   0  0  0  0  0  0  0  0  0  0  0  0
    3.0291   19.1136   40.9680 H   0  0  0  0  0  0  0  0  0  0  0  0
    0.7716   18.0717   40.8293 H   0  0  0  0  0  0  0  0  0  0  0  0
  1  2  1  0
  1  6  2  0
  2  3  2  0
  3  4  1  0
  3  7  1  0
  4  5  2  0
  5  6  1  0
  7  8  1  0
  7  9  2  0
  2 10  1  0
  4 11  1  0
  5 12  1  0
  6 13  1  0
M  CHG  1   8  -1
M  END
>  <mol_id>  (38) 
2026-09-16-3war-s0-n100-0038

>  <rmsd_to_ref>  (38) 
2.1530612244903167

>  <pose_kind>  (38) 
conformer

$$$$
3war.A
     RDKit          3D

 13 13  0  0  0  0  0  0  0  0999 V2000
    3.0775   17.3107   38.4577 N   0  0  0  0  0  0  0  0  0  0  0  0
    2.9409   18.1743   37.3444 C   0  0  0  0  0  0  0  0  0  0  0  0
    2.4116   19.4917   37.5964 C   0  0  0  0  0  0  0  0  0  0  0  0
    2.0324   19.8699   38.8720 C   0  0  0  0  0  0  0  0  0  0  0  0
    2.2082   19.0056   39.9304 C   0  0  0  0  0  0  0  0  0  0  0  0
    2.6947   17.7376   39.7033 C   0  0  0  0  0  0  0  0  0  0  0  0
    2.1487   20.4368   36.4334 C   0  0  0  0  0  0  0  0  0  0  0  0
    2.6372   20.1487   35.3016 O   0  0  0  0  0  0  0  0  0  0  0  0
    1.4673   21.4009   36.7077 O   0  0  0  0  0  0  0  0  0  0  0  0
    3.2263   17.8544   36.3313 H   0  0  0  0  0  0  0  0  0  0  0  0
    1.5897   20.8625   39.0417 H   0  0  0  0  0  0  0  0  0  0  0  0
    1.9611   19.3272   40.9529 H   0  0  0  0  0  0  0  0  0  0  0  0
    2.7791   17.0423   40.5514 H   0  0  0  0  0  0  0  0  0  0  0  0
  1  2  1  0
  1  6  2  0
  2  3  2  0
  3  4  1  0
  3  7  1  0
  4  5  2  0
  5  6  1  0
  7  8  1  0
  7  9  2  0
  2 10  1  0
  4 11  1  0
  5 12  1  0
  6 13  1  0
M  CHG  1   8  -1
M  END
>  <mol_id>  (39) 
2026-09-16-3war-s0-n100-0039

>  <rmsd_to_ref>  (39) 
2.1989795918382398

>  <pose_kind>  (39) 
rigid

$$$$
3war.A
     RDKit          3D

 13 13  0  0  0  0  0  0  0  0999 V2000
    2.1169   19.9069   40.6903 N   0  0  0  0  0  0  0  0  0  0  0  0
    2.9161   19.5499   39.6933 C   0  0  0  0  0  0  0  0  0  0  0  0
    2.6658   20.0840   38.4411 C   0  0  0  0  0  0  0  0  0  0  0  0
    1.6136   20.9554   38.2666 C   0  0  0  0  0  0  0  0  0  0  0  0
    0.8096   21.2949   39.3426 C   0  0  0  0  0  0  0  0  0  0  0  0
    1.0748   20.7516   40.5862 C   0  0  0  0  0  0  0  0  0  0  0  0
    3.4946   19.7389   37.3139 C   0  0  0  0  0  0  0  0  0  0  0  0
    4.5665   18.8856   37.3640 O   0  0  0  0  0  0  0  0  0  0  0  0
    3.2156   20.2607   36.1907 O   0  0  0  0  0  0  0  0  0  0  0  0
    3.7491   18.8568   39.8431 H   0  0  0  0  0  0  0  0  0  0  0  0
    1.4122   21.3782   37.2850 H   0  0  0  0  0  0  0  0  0  0  0  0
   -0.0156   21.9680   39.2443 H   0  0  0  0  0  0  0  0  0  0  0  0
    0.4910   20.9706   41.4691 H   0  0  0  0  0  0  0  0  0  0  0  0
  1  2  1  0
  1  6  2  0
  2  3  2  0
  3  4  1  0
  3  7  1  0
  4  5  2  0
  5  6  1  0
  7  8  1  0
  7  9  2  0
  2 10  1  0
  4 11  1  0
  5 12  1  0
  6 13  1  0
M  CHG  1   8  -1
M  END
>  <mol_id>  (40) 
2026-09-16-3war-s0-n100-0040

>  <rmsd_to_ref>  (40) 
2.24489795918765

>  <pose_kind>  (40) 
conformer

$$$$
3war.A
     RDKit          3D

 13 13  0  0  0  0  0  0  0  0999 V2000
    4.1952   17.6390   38.3633 N   0  0  0  0  0  0  0  0  0  0  0  0
    3.9929   18.7843   37.5562 C   0  0  0  0  0  0  0  0  0  0  0  0
    3.2729   19.8850   38.1472 C   0  0  0  0  0  0  0  0  0  0  0  0
    2.7837   19.7987   39.4385 C   0  0  0  0  0  0  0  0  0  0  0  0
    3.0277   18.6746   40.1966 C   0  0  0  0  0  0  0  0  0  0  0  0
    3.6970   17.6075   39.6404 C   0  0  0  0  0  0  0  0  0  0  0  0
    2.9367   21.1076   37.3066 C   0  0  0  0  0  0  0  0  0  0  0  0
    3.5145   21.2469   36.1888 O   0  0  0  0  0  0  0  0  0  0  0  0
    2.1146   21.8505   37.7982 O   0  0  0  0  0  0  0  0  0  0  0  0
    4.3685   18.8325   36.5234 H   0  0  0  0  0  0  0  0  0  0  0  0
    2.1989   20.6292   39.8607 H   0  0  0  0  0  0  0  0  0  0  0  0
    2.6891   18.6296   41.2423 H   0  0  0  0  0  0  0  0  0  0  0  0
    3.8371   16.6974   40.2421 H   0  0  0  0  0  0  0  0  0  0  0  0
  1  2  1  0
  1  6  2  0
  2  3  2  0
  3  4  1  0
  3  7  1  0
  4  5  2  0
  5  6  1  0
  7  8  1  0
  7  9  2  0
  2 10  1  0
  4 11  1  0
  5 12  1  0
  6 13  1  0
M  CHG  1   8  -1
M  END
>  <mol_id>  (41) 
2026-09-16-3war-s0-n100-0041

>  <rmsd_to_ref>  (41) 
2.290816326533832

>  <pose_kind>  (41) 
rigid

$$$$
3war.A
     RDKit          3D

 13 13  0  0  0  0  0  0  0  0999 V2000
    4.5741   19.4151   39.8898 N   0  0  0  0  0  0  0  0  0  0  0  0
    4.1508   19.4456   38.6327 C   0  0  0  0  0  0  0  0  0  0  0  0
    3.3986   20.5358   38.2302 C   0  0  0  0  0  0  0  0  0  0  0  0
    3.1151   21.5408   39.1281 C   0  0  0  0  0  0  0  0  0  0  0  0
    3.5822   21.4587   40.4300 C   0  0  0  0  0  0  0  0  0  0  0  0
    4.3320   20.3623   40.8142 C   0  0  0  0  0  0  0  0  0  0  0  0
    2.9069   20.6331   36.8791 C   0  0  0  0  0  0  0  0  0  0  0  0
    3.1237   19.6988   35.8993 O   0  0  0  0  0  0  0  0  0  0  0  0
    2.2228   21.6565   36.5691 O   0  0  0  0  0  0  0  0  0  0  0  0
    4.3818   18.6419   37.9277 H   0  0  0  0  0  0  0  0  0  0  0  0
    2.5246   22.3997   38.8175 H   0  0  0  0  0  0  0  0  0  0  0  0
    3.3815   22.2199   41.1537 H   0  0  0  0  0  0  0  0  0  0  0  0
    4.7286   20.2312   41.8111 H   0  0  0  0  0  0  0  0  0  0  0  0
  1  2  1  0
  1  6  2  0
  2  3  2  0
  3  4  1  0
  3  7  1  0
  4  5  2  0
  5  6  1  0
  7  8  1  0
  7  9  2  0
  2 10  1  0
  4 11  1  0
  5 12  1  0
  6 13  1  0
M  CHG  1   8  -1
M  END
>  <mol_id>  (42) 
2026-09-16-3war-s0-n100-0042

>  <rmsd_to_ref>  (42) 
2.3367346938793627

>  <pose_kind>  (42) 
conformer

$$$$
3war.A
     RDKit          3D

 13 13  0  0  0  0  0  0  0  0999 V2000
    3.3465   18.4728   39.1436 N   0  0  0  0  0  0  0  0  0  0  0  0
    3.4503   19.1934   37.9296 C   0  0  0  0  0  0  0  0  0  0  0  0
    2.2342   19.7500   37.3905 C   0  0  0  0  0  0  0  0  0  0  0  0
    1.0226   19.5553   38.0298 C   0  0  0  0  0  0  0  0  0  0  0  0
    0.9731   18.8698   39.2236 C   0  0  0  0  0  0  0  0  0  0  0  0
    2.1225   18.3160   39.7416 C   0  0  0  0  0  0  0  0  0  0  0  0
    2.2568   20.4534   36.0416 C   0  0  0  0  0  0  0  0  0  0  0  0
    3.3785   20.7622   35.5427 O   0  0  0  0  0  0  0  0  0  0  0  0
    1.1648   20.6487   35.5533 O   0  0  0  0  0  0  0  0  0  0  0  0
    4.4164   19.3233   37.4197 H   0  0  0  0  0  0  0  0  0  0  0  0
    0.0972   19.9488   37.5838 H   0  0  0  0  0  0  0  0  0  0  0  0
    0.0191   18.7652   39.7611 H   0  0  0  0  0  0  0  0  0  0  0  0
    2.0564   17.7268   40.6681 H   0  0  0  0  0  0  0  0  0  0  0  0
  1  2  1  0
  1  6  2  0
  2  3  2  0
  3  4  1  0
  3  7  1  0
  4  5  2  0
  5  6  1  0
  7  8  1  0
  7  9  2  0
  2 10  1  0
  4 11  1  0
  5 12  1  0
  6 13  1  0
M  CHG  1   8  -1
M  END
>  <mol_id>  (43) 
2026-09-16-3war-s0-n100-0043

>  <rmsd_to_ref>  (43) 
2.382653061225204

>  <pose_kind>  (43) 
rigid

$$$$
3war.A
     RDKit          3D

 13 13  0  0  0  0  0  0  0  0999 V2000
    1.7598   20.4100   39.6112 N   0  0  0  0  0  0  0  0  0  0  0  0
    2.0926   20.6769   38.3549 C   0  0  0  0  0  0  0  0  0  0  0  0
    2.2310   19.6111   37.4825 C   0  0  0  0  0  0  0  0  0  0  0  0
    2.0233   18.3264   37.9331 C   0  0  0  0  0  0  0  0  0  0  0  0
    1.6772   18.1037   39.2561 C   0  0  0  0  0  0  0  0  0  0  0  0
    1.5435   19.1804   40.1131 C   0  0  0  0  0  0  0  0  0  0  0  0
    2.5906   19.8294   36.1042 C   0  0  0  0  0  0  0  0  0  0  0  0
    2.8219   21.0581   35.5418 O   0  0  0  0  0  0  0  0  0  0  0  0
    2.7026   18.8126   35.3524 O   0  0  0  0  0  0  0  0  0  0  0  0
    2.2551   21.7014   38.0075 H   0  0  0  0  0  0  0  0  0  0  0  0
    2.1308   17.4851   37.2522 H   0  0  0  0  0  0  0  0  0  0  0  0
    1.5084   17.1202   39.6406 H   0  0  0  0  0  0  0  0  0  0  0  0
    1.2764   19.0827   41.1559 H   0  0  0  0  0  0  0  0  0  0  0  0
  1  2  1  0
  1  6  2  0
  2  3  2  0
  3  4  1  0
  3  7  1  0
  4  5  2  0
  5  6  1  0
  7  8  1  0
  7  9  2  0
  2 10  1  0
  4 11  1  0
  5 12  1  0
  6 13  1  0
M  CHG  1   8  -1
M  END
>  <mol_id>  (44) 
2026-09-16-3war-s0-n100-0044

>  <rmsd_to_ref>  (44) 
2.4285714285716637

>  <pose_kind>  (44) 
conformer

$$$$
3war.A
     RDKit          3D

 13 13  0  0  0  0  0  0  0  0999 V2000
    3.3734   19.0408   40.2356 N   0  0  0  0  0  0  0  0  0  0  0  0
    3.2130   18.3831   38.9923 C   0  0  0  0  0  0  0  0  0  0  0  0
    2.1762   18.8745   38.1187 C   0  0  0  0  0  0  0  0  0  0  0  0
    1.3643   19.9259   38.5054 C   0  0  0  0  0  0  0  0  0  0  0  0
    1.5744   20.5534   39.7137 C   0  0  0  0  0  0  0  0  0  0  0  0
    2.5475   20.0840   40.5672 C   0  0  0  0  0  0  0  0  0  0  0  0
    1.8856   18.1550   36.8100 C   0  0  0  0  0  0  0  0  0  0  0  0
    2.7228   17.3016   36.3935 O   0  0  0  0  0  0  0  0  0  0  0  0
    0.8426   18.4701   36.2790 O   0  0  0  0  0  0  0  0  0  0  0  0
    3.8511   17.5344   38.7052 H   0  0  0  0  0  0  0  0  0  0  0  0
    0.5496   20.2614   37.8468 H   0  0  0  0  0  0  0  0  0  0  0  0
    0.9668   21.4260   39.9956 H   0  0  0  0  0  0  0  0  0  0  0  0
    2.6667   20.5630   41.5503 H   0  0  0  0  0  0  0  0  0  0  0  0
  1  2  1  0
  1  6  2  0
  2  3  2  0
  3  4  1  0
  3  7  1  0
  4  5  2  0
  5  6  1  0
  7  8  1  0
  7  9  2  0
  2 10  1  0
  4 11  1  0
  5 12  1  0
  6 13  1  0
M  CHG  1   8  -1
M  END
>  <mol_id>  (45) 
2026-09-16-3war-s0-n100-0045

>  <rmsd_to_ref>  (45) 
2.4744897959189753

>  <pose_kind>  (45) 
rigid

$$$$
3war.A
     RDKit          3D

 13 13  0  0  0  0  0  0  0  0999 V2000
    2.3332   20.9940   39.5490 N   0  0  0  0  0  0  0  0  0  0  0  0
    3.0551   19.8869   39.4345 C   0  0  0  0  0  0  0  0  0  0  0  0
    3.8061   19.7209   38.2835 C   0  0  0  0  0  0  0  0  0  0  0  0
    3.7841   20.6911   37.3063 C   0  0  0  0  0  0  0  0  0  0  0  0
    3.0122   21.8289   37.4768 C   0  0  0  0  0  0  0  0  0  0  0  0
    2.2687   21.9776   38.6331 C   0  0  0  0  0  0  0  0  0  0  0  0
    4.6130   18.5420   38.0940 C   0  0  0  0  0  0  0  0  0  0  0  0
    4.7149   17.5118   38.9929 O   0  0  0  0  0  0  0  0  0  0  0  0
    5.2796   18.4463   37.0178 O   0  0  0  0  0  0  0  0  0  0  0  0
    3.0653   19.1226   40.2170 H   0  0  0  0  0  0  0  0  0  0  0  0
    4.3720   20.5660   36.3999 H   0  0  0  0  0  0  0  0  0  0  0  0
    2.9711   22.6023   36.7395 H   0  0  0  0  0  0  0  0  0  0  0  0
    1.6447   22.8370   38.8341 H   0  0  0  0  0  0  0  0  0  0  0  0
  1  2  1  0
  1  6  2  0
  2  3  2  0
  3  4  1  0
  3  7  1  0
  4  5  2  0
  5  6  1  0
  7  8  1  0
  7  9  2  0
  2 10  1  0
  4 11  1  0
  5 12  1  0
  6 13  1  0
M  CHG  1   8  -1
M  END
>  <mol_id>  (46) 
2026-09-16-3war-s0-n100-0046

>  <rmsd_to_ref>  (46) 
2.520408163267438

>  <pose_kind>  (46) 
conformer

$$$$
3war.A
     RDKit          3D

 13 13  0  0  0  0  0  0  0  0999 V2000
    0.4263   19.8624   38.3932 N   0  0  0  0  0  0  0  0  0  0  0  0
    1.0133   18.6866   37.8669 C   0  0  0  0  0  0  0  0  0  0  0  0
    2.4115   18.4699   38.1454 C   0  0  0  0  0  0  0  0  0  0  0  0
    3.1398   19.3941   38.8729 C   0  0  0  0  0  0  0  0  0  0  0  0
    2.5203   20.5113   39.3884 C   0  0  0  0  0  0  0  0  0  0  0  0
    1.1907   20.7423   39.1156 C   0  0  0  0  0  0  0  0  0  0  0  0
    3.1290   17.2771   37.5312 C   0  0  0  0  0  0  0  0  0  0  0  0
    2.4319   16.3619   37.0028 O   0  0  0  0  0  0  0  0  0  0  0  0
    4.3383   17.3225   37.6000 O   0  0  0  0  0  0  0  0  0  0  0  0
    0.4285   17.9698   37.2717 H   0  0  0  0  0  0  0  0  0  0  0  0
    4.2156   19.2364   39.0402 H   0  0  0  0  0  0  0  0  0  0  0  0
    3.0858   21.2163   40.0156 H   0  0  0  0  0  0  0  0  0  0  0  0
    0.7250   21.6657   39.4903 H   0  0  0  0  0  0  0  0  0  0  0  0
  1  2  1  0
  1  6  2  0
  2  3  2  0
  3  4  1  0
  3  7  1  0
  4  5  2  0
  5  6  1  0
  7  8  1  0
  7  9  2  0
  2 10  1  0
  4 11  1  0
  5 12  1  0
  6 13  1  0
M  CHG  1   8  -1
M  END
>  <mol_id>  (47) 
2026-09-16-3war-s0-n100-0047

>  <rmsd_to_ref>  (47) 
2.566326530612927

>  <pose_kind>  (47) 
rigid

$$$$
3war.A
     RDKit          3D

 13 13  0  0  0  0  0  0  0  0999 V2000
    1.9352   20.4022   41.6334 N   0  0  0  0  0  0  0  0  0  0  0  0
    0.8638   20.2710   40.8620 C   0  0  0  0  0  0  0  0  0  0  0  0
    1.0595   20.1706   39.4954 C   0  0  0  0  0  0  0  0  0  0  0  0
    2.3370   20.2086   38.9823 C   0  0  0  0  0  0  0  0  0  0  0  0
    3.4216   20.3472   39.8333 C   0  0  0  0  0  0  0  0  0  0  0  0
    3.2069   20.4461   41.1957 C   0  0  0  0  0  0  0  0  0  0  0  0
   -0.0600   20.0262   38.5996 C   0  0  0  0  0  0  0  0  0  0  0  0
   -1.3729   19.9758   38.9911 O   0  0  0  0  0  0  0  0  0  0  0  0
    0.1825   19.9389   37.3565 O   0  0  0  0  0  0  0  0  0  0  0  0
   -0.1467   20.2419   41.2801 H   0  0  0  0  0  0  0  0  0  0  0  0
    2.4968   20.1302   37.9094 H   0  0  0  0  0  0  0  0  0  0  0  0
    4.4268   20.3805   39.4705 H   0  0  0  0  0  0  0  0  0  0  0  0
    4.0033   20.5558   41.9182 H   0  0  0  0  0  0  0  0  0  0  0  0
  1  2  1  0
  1  6  2  0
  2  3  2  0
  3  4  1  0
  3  7  1  0
  4  5  2  0
  5  6  1  0
  7  8  1  0
  7  9  2  0
  2 10  1  0
  4 11  1  0
  5 12  1  0
  6 13  1  0
M  CHG  1   8  -1
M  END
>  <mol_id>  (48) 
2026-09-16-3war-s0-n100-0048

>  <rmsd_to_ref>  (48) 
2.6122448979607773

>  <pose_kind>  (48) 
conformer

$$$$
3war.A
     RDKit          3D

 13 13  0  0  0  0  0  0  0  0999 V2000
    3.4578   19.0713   41.4376 N   0  0  0  0  0  0  0  0  0  0  0  0
    3.0929   18.1190   40.4559 C   0  0  0  0  0  0  0  0  0  0  0  0
    3.4285   18.4253   39.0874 C   0  0  0  0  0  0  0  0  0  0  0  0
    4.0552   19.6150   38.7617 C   0  0  0  0  0  0  0  0  0  0  0  0
    4.4159   20.5006   39.7535 C   0  0  0  0  0  0  0  0  0  0  0  0
    4.0855   20.2315   41.0627 C   0  0  0  0  0  0  0  0  0  0  0  0
    2.9815   17.4925   37.9717 C   0  0  0  0  0  0  0  0  0  0  0  0
    2.5521   16.3432   38.2839 O   0  0  0  0  0  0  0  0  0  0  0  0
    3.0728   17.9567   36.8557 O   0  0  0  0  0  0  0  0  0  0  0  0
    2.5757   17.1861   40.7251 H   0  0  0  0  0  0  0  0  0  0  0  0
    4.2659   19.8543   37.7089 H   0  0  0  0  0  0  0  0  0  0  0  0
    4.9657   21.4190   39.5004 H   0  0  0  0  0  0  0  0  0  0  0  0
    4.3338   20.9736   41.8357 H   0  0  0  0  0  0  0  0  0  0  0  0
  1  2  1  0
  1  6  2  0
  2  3  2  0
  3  4  1  0
  3  7  1  0
  4  5  2  0
  5  6  1  0
  7  8  1  0
  7  9  2  0
  2 10  1  0
  4 11  1  0
  5 12  1  0
  6 13  1  0
M  CHG  1   8  -1
M  END
>  <mol_id>  (49) 
2026-09-16-3war-s0-n100-0049

>  <rmsd_to_ref>  (49) 
2.658163265309956

>  <pose_kind>  (49) 
rigid

$$$$
3war.A
     RDKit          3D

 13 13  0  0  0  0  0  0  0  0999 V2000
    2.4927   20.7296   39.7963 N   0  0  0  0  0  0  0  0  0  0  0  0
    2.4097   20.7941   38.4737 C   0  0  0  0  0  0  0  0  0  0  0  0
    3.5011   20.3688   37.7360 C   0  0  0  0  0  0  0  0  0  0  0  0
    4.6227   19.8989   38.3823 C   0  0  0  0  0  0  0  0  0  0  0  0
    4.6566   19.8528   39.7666 C   0  0  0  0  0  0  0  0  0  0  0  0
    3.5570   20.2819   40.4869 C   0  0  0  0  0  0  0  0  0  0  0  0
    3.4785   20.4116   36.2957 C   0  0  0  0  0  0  0  0  0  0  0  0
    2.4226   20.8573   35.5435 O   0  0  0  0  0  0  0  0  0  0  0  0
    4.5093   20.0082   35.6742 O   0  0  0  0  0  0  0  0  0  0  0  0
    1.5136   21.1692   37.9706 H   0  0  0  0  0  0  0  0  0  0  0  0
    5.4833   19.5634   37.8078 H   0  0  0  0  0  0  0  0  0  0  0  0
    5.5101   19.4943   40.3016 H   0  0  0  0  0  0  0  0  0  0  0  0
    3.5123   20.2748   41.5669 H   0  0  0  0  0  0  0  0  0  0  0  0
  1  2  1  0
  1  6  2  0
  2  3  2  0
  3  4  1  0
  3  7  1  0
  4  5  2  0
  5  6  1  0
  7  8  1  0
  7  9  2  0
  2 10  1  0
  4 11  1  0
  5 12  1  0
  6 13  1  0
M  CHG  1   8  -1
M  END
>  <mol_id>  (50) 
2026-09-16-3war-s0-n100-0050

>  <rmsd_to_ref>  (50) 
2.7040816326550288

>  <pose_kind>  (50) 
conformer

$$$$
3war.A
     RDKit          3D

 13 13  0  0  0  0  0  0  0  0999 V2000
    2.0975   21.3531   40.6822 N   0  0  0  0  0  0  0  0  0  0  0  0
    2.9956   20.5681   39.9197 C   0  0  0  0  0  0  0  0  0  0  0  0
    2.5497   19.2534   39.5295 C   0  0  0  0  0  0  0  0  0  0  0  0
    1.3066   18.7843   39.9150 C   0  0  0  0  0  0  0  0  0  0  0  0
    0.4548   19.5937   40.6343 C   0  0  0  0  0  0  0  0  0  0  0  0
    0.8730   20.8440   41.0310 C   0  0  0  0  0  0  0  0  0  0  0  0
    3.4987   18.3207   38.7919 C   0  0  0  0  0  0  0  0  0  0  0  0
    4.5649   18.8045   38.3103 O   0  0  0  0  0  0  0  0  0  0  0  0
    3.1370   17.1649   38.7423 O   0  0  0  0  0  0  0  0  0  0  0  0
    3.9899   20.9444   39.6375 H   0  0  0  0  0  0  0  0  0  0  0  0
    0.9977   17.7633   39.6467 H   0  0  0  0  0  0  0  0  0  0  0  0
   -0.5556   19.2422   40.8908 H   0  0  0  0  0  0  0  0  0  0  0  0
    0.2007   21.4566   41.6498 H   0  0  0  0  0  0  0  0  0  0  0  0
  1  2  1  0
  1  6  2  0
  2  3  2  0
  3  4  1  0
  3  7  1  0
  4  5  2  0
  5  6  1  0
  7  8  1  0
  7  9  2  0
  2 10  1  0
  4 11  1  0
  5 12  1  0
  6 13  1  0
M  CHG  1   8  -1
M  END
>  <mol_id>  (51) 
2026-09-16-3war-s0-n100-0051

>  <rmsd_to_ref>  (51) 
2.750000000002198

>  <pose_kind>  (51) 
rigid

$$$$
3war.A
     RDKit          3D

 13 13  0  0  0  0  0  0  0  0999 V2000
    3.8034   19.8916   39.5452 N   0  0  0  0  0  0  0  0  0  0  0  0
    3.3335   18.7888   38.9764 C   0  0  0  0  0  0  0  0  0  0  0  0
    2.1971   18.8990   38.1936 C   0  0  0  0  0  0  0  0  0  0  0  0
    1.5958   20.1271   38.0293 C   0  0  0  0  0  0  0  0  0  0  0  0
    2.1283   21.2474   38.6465 C   0  0  0  0  0  0  0  0  0  0  0  0
    3.2639   21.1183   39.4246 C   0  0  0  0  0  0  0  0  0  0  0  0
    1.6335   17.7414   37.5464 C   0  0  0  0  0  0  0  0  0  0  0  0
    2.1415   16.4712   37.6355 O   0  0  0  0  0  0  0  0  0  0  0  0
    0.5905   17.9053   36.8414 O   0  0  0  0  0  0  0  0  0  0  0  0
    3.8192   17.8183   39.1137 H   0  0  0  0  0  0  0  0  0  0  0  0
    0.7027   20.2197   37.4154 H   0  0  0  0  0  0  0  0  0  0  0  0
    1.6881   22.2163   38.5411 H   0  0  0  0  0  0  0  0  0  0  0  0
    3.7341   21.9469   39.9351 H   0  0  0  0  0  0  0  0  0  0  0  0
  1  2  1  0
  1  6  2  0
  2  3  2  0
  3  4  1  0
  3  7  1  0
  4  5  2  0
  5  6  1  0
  7  8  1  0
  7  9  2  0
  2 10  1  0
  4 11  1  0
  5 12  1  0
  6 13  1  0
M  CHG  1   8  -1
M  END
>  <mol_id>  (52) 
2026-09-16-3war-s0-n100-0052

>  <rmsd_to_ref>  (52) 
2.7959183673490173

>  <pose_kind>  (52) 
conformer

$$$$
3war.A
     RDKit          3D

 13 13  0  0  0  0  0  0  0  0999 V2000
   -0.6002   19.2464   40.5885 N   0  0  0  0  0  0  0  0  0  0  0  0
   -0.3112   19.9391   39.3882 C   0  0  0  0  0  0  0  0  0  0  0  0
    1.0741   20.0238   38.9965 C   0  0  0  0  0  0  0  0  0  0  0  0
    2.0675   19.4710   39.7848 C   0  0  0  0  0  0  0  0  0  0  0  0
    1.7373   18.7826   40.9315 C   0  0  0  0  0  0  0  0  0  0  0  0
    0.4212   18.7091   41.3291 C   0  0  0  0  0  0  0  0  0  0  0  0
    1.4652   20.8346   37.7699 C   0  0  0  0  0  0  0  0  0  0  0  0
    0.5512   21.2020   36.9747 O   0  0  0  0  0  0  0  0  0  0  0  0
    2.6508   21.0670   37.6727 O   0  0  0  0  0  0  0  0  0  0  0  0
   -1.1083   20.3929   38.7810 H   0  0  0  0  0  0  0  0  0  0  0  0
    3.1231   19.5813   39.4954 H   0  0  0  0  0  0  0  0  0  0  0  0
    2.5221   18.2934   41.5271 H   0  0  0  0  0  0  0  0  0  0  0  0
    0.1803   18.2012   42.2747 H   0  0  0  0  0  0  0  0  0  0  0  0
  1  2  1  0
  1  6  2  0
  2  3  2  0
  3  4  1  0
  3  7  1  0
  4  5  2  0
  5  6  1  0
  7  8  1  0
  7  9  2  0
  2 10  1  0
  4 11  1  0
  5 12  1  0
  6 13  1  0
M  CHG  1   8  -1
M  END
>  <mol_id>  (53) 
2026-09-16-3war-s0-n100-0053

>  <rmsd_to_ref>  (53) 
2.841836734694491

>  <pose_kind>  (53) 
rigid

$$$$
3war.A
     RDKit          3D

 13 13  0  0  0  0  0  0  0  0999 V2000
    1.3997   17.5391   37.5008 N   0  0  0  0  0  0  0  0  0  0  0  0
    2.1826   18.4759   36.9813 C   0  0  0  0  0  0  0  0  0  0  0  0
    1.9797   19.7845   37.3846 C   0  0  0  0  0  0  0  0  0  0  0  0
    0.9895   20.0737   38.2970 C   0  0  0  0  0  0  0  0  0  0  0  0
    0.2000   19.0566   38.8083 C   0  0  0  0  0  0  0  0  0  0  0  0
    0.4170   17.7554   38.3940 C   0  0  0  0  0  0  0  0  0  0  0  0
    2.7942   20.8514   36.8603 C   0  0  0  0  0  0  0  0  0  0  0  0
    3.8065   20.6874   35.9504 O   0  0  0  0  0  0  0  0  0  0  0  0
    2.5607   22.0309   37.2678 O   0  0  0  0  0  0  0  0  0  0  0  0
    2.9664   18.2349   36.2572 H   0  0  0  0  0  0  0  0  0  0  0  0
    0.8257   21.1001   38.6175 H   0  0  0  0  0  0  0  0  0  0  0  0
   -0.5777   19.2442   39.5180 H   0  0  0  0  0  0  0  0  0  0  0  0
   -0.1590   16.9127   38.7495 H   0  0  0  0  0  0  0  0  0  0  0  0
  1  2  1  0
  1  6  2  0
  2  3  2  0
  3  4  1  0
  3  7  1  0
  4  5  2  0
  5  6  1  0
  7  8  1  0
  7  9  2  0
  2 10  1  0
  4 11  1  0
  5 12  1  0
  6 13  1  0
M  CHG  1   8  -1
M  END
>  <mol_id>  (54) 
2026-09-16-3war-s0-n100-0054

>  <rmsd_to_ref>  (54) 
2.887755102042912

>  <pose_kind>  (54) 
conformer

$$$$
3war.A
     RDKit          3D

 13 13  0  0  0  0  0  0  0  0999 V2000
    3.6532   17.8217   37.0806 N   0  0  0  0  0  0  0  0  0  0  0  0
    3.3796   19.1844   36.8117 C   0  0  0  0  0  0  0  0  0  0  0  0
    2.2126   19.7554   37.4373 C   0  0  0  0  0  0  0  0  0  0  0  0
    1.3912   18.9842   38.2403 C   0  0  0  0  0  0  0  0  0  0  0  0
    1.7114   17.6689   38.4958 C   0  0  0  0  0  0  0  0  0  0  0  0
    2.8116   17.1037   37.8909 C   0  0  0  0  0  0  0  0  0  0  0  0
    1.8057   21.1858   37.1165 C   0  0  0  0  0  0  0  0  0  0  0  0
    2.6360   21.9268   36.5129 O   0  0  0  0  0  0  0  0  0  0  0  0
    0.6865   21.4865   37.4719 O   0  0  0  0  0  0  0  0  0  0  0  0
    4.0287   19.7814   36.1544 H   0  0  0  0  0  0  0  0  0  0  0  0
    0.4808   19.4222   38.6755 H   0  0  0  0  0  0  0  0  0  0  0  0
    1.0906   17.0724   39.1805 H   0  0  0  0  0  0  0  0  0  0  0  0
    3.0230   16.0381   38.0637 H   0  0  0  0  0  0  0  0  0  0  0  0
  1  2  1  0
  1  6  2  0
  2  3  2  0
  3  4  1  0
  3  7  1  0
  4  5  2  0
  5  6  1  0
  7  8  1  0
  7  9  2  0
  2 10  1  0
  4 11  1  0
  5 12  1  0
  6 13  1  0
M  CHG  1   8  -1
M  END
>  <mol_id>  (55) 
2026-09-16-3war-s0-n100-0055

>  <rmsd_to_ref>  (55) 
2.9336734693906013

>  <pose_kind>  (55) 
rigid

$$$$
3war.A
     RDKit          3D

 13 13  0  0  0  0  0  0  0  0999 V2000
    2.1957   21.7431   37.0490 N   0  0  0  0  0  0  0  0  0  0  0  0
    3.0525   20.8043   37.4295 C   0  0  0  0  0  0  0  0  0  0  0  0
    3.3899   20.7423   38.7707 C   0  0  0  0  0  0  0  0  0  0  0  0
    2.8377   21.6397   39.6574 C   0  0  0  0  0  0  0  0  0  0  0  0
    1.9474   22.6007   39.2065 C   0  0  0  0  0  0  0  0  0  0  0  0
    1.6221   22.6477   37.8634 C   0  0  0  0  0  0  0  0  0  0  0  0
    4.3146   19.7476   39.2523 C   0  0  0  0  0  0  0  0  0  0  0  0
    4.9266   18.8043   38.4678 O   0  0  0  0  0  0  0  0  0  0  0  0
    4.5852   19.7404   40.4926 O   0  0  0  0  0  0  0  0  0  0  0  0
    3.4852   20.0965   36.7165 H   0  0  0  0  0  0  0  0  0  0  0  0
    3.0990   21.5956   40.7123 H   0  0  0  0  0  0  0  0  0  0  0  0
    1.4995   23.3132   39.8662 H   0  0  0  0  0  0  0  0  0  0  0  0
    0.9364   23.3685   37.4410 H   0  0  0  0  0  0  0  0  0  0  0  0
  1  2  1  0
  1  6  2  0
  2  3  2  0
  3  4  1  0
  3  7  1  0
  4  5  2  0
  5  6  1  0
  7  8  1  0
  7  9  2  0
  2 10  1  0
  4 11  1  0
  5 12  1  0
  6 13  1  0
M  CHG  1   8  -1
M  END
>  <mol_id>  (56) 
2026-09-16-3war-s0-n100-0056

>  <rmsd_to_ref>  (56) 
2.9795918367375522

>  <pose_kind>  (56) 
conformer

$$$$
3war.A
     RDKit          3D

 13 13  0  0  0  0  0  0  0  0999 V2000
    0.7914   20.2058   37.5924 N   0  0  0  0  0  0  0  0  0  0  0  0
    1.6966   19.7890   38.5980 C   0  0  0  0  0  0  0  0  0  0  0  0
    2.6809   20.7486   39.0337 C   0  0  0  0  0  0  0  0  0  0  0  0
    2.7421   22.0079   38.4642 C   0  0  0  0  0  0  0  0  0  0  0  0
    1.8235   22.3794   37.5071 C   0  0  0  0  0  0  0  0  0  0  0  0
    0.8896   21.4684   37.0668 C   0  0  0  0  0  0  0  0  0  0  0  0
    3.7441   20.3372   40.0413 C   0  0  0  0  0  0  0  0  0  0  0  0
    3.5903   19.2480   40.6678 O   0  0  0  0  0  0  0  0  0  0  0  0
    4.6712   21.1112   40.1442 O   0  0  0  0  0  0  0  0  0  0  0  0
    1.6510   18.7776   39.0280 H   0  0  0  0  0  0  0  0  0  0  0  0
    3.5259   22.7139   38.7761 H   0  0  0  0  0  0  0  0  0  0  0  0
    1.8360   23.3997   37.0963 H   0  0  0  0  0  0  0  0  0  0  0  0
    0.1975   21.7642   36.2646 H   0  0  0  0  0  0  0  0  0  0  0  0
  1  2  1  0
  1  6  2  0
  2  3  2  0
  3  4  1  0
  3  7  1  0
  4  5  2  0
  5  6  1  0
  7  8  1  0
  7  9  2  0
  2 10  1  0
  4 11  1  0
  5 12  1  0
  6 13  1  0
M  CHG  1   8  -1
M  END
>  <mol_id>  (57) 
2026-09-16-3war-s0-n100-0057

>  <rmsd_to_ref>  (57) 
3.0255102040818085

>  <pose_kind>  (57) 
rigid

$$$$
3war.A
     RDKit          3D

 13 13  0  0  0  0  0  0  0  0999 V2000
    2.9765   19.2189   36.9249 N   0  0  0  0  0  0  0  0  0  0  0  0
    4.1419   19.8529   36.9250 C   0  0  0  0  0  0  0  0  0  0  0  0
    4.6883   20.2011   38.1484 C   0  0  0  0  0  0  0  0  0  0  0  0
    4.0203   19.8860   39.3108 C   0  0  0  0  0  0  0  0  0  0  0  0
    2.8053   19.2227   39.2536 C   0  0  0  0  0  0  0  0  0  0  0  0
    2.2748   18.8829   38.0227 C   0  0  0  0  0  0  0  0  0  0  0  0
    5.9512   20.8913   38.2212 C   0  0  0  0  0  0  0  0  0  0  0  0
    6.7061   21.2568   37.1367 O   0  0  0  0  0  0  0  0  0  0  0  0
    6.4015   21.1841   39.3716 O   0  0  0  0  0  0  0  0  0  0  0  0
    4.6639   20.0984   35.9955 H   0  0  0  0  0  0  0  0  0  0  0  0
    4.4449   20.1572   40.2747 H   0  0  0  0  0  0  0  0  0  0  0  0
    2.2591   18.9622   40.1353 H   0  0  0  0  0  0  0  0  0  0  0  0
    1.3335   18.3658   37.9017 H   0  0  0  0  0  0  0  0  0  0  0  0
  1  2  1  0
  1  6  2  0
  2  3  2  0
  3  4  1  0
  3  7  1  0
  4  5  2  0
  5  6  1  0
  7  8  1  0
  7  9  2  0
  2 10  1  0
  4 11  1  0
  5 12  1  0
  6 13  1  0
M  CHG  1   8  -1
M  END
>  <mol_id>  (58) 
2026-09-16-3war-s0-n100-0058

>  <rmsd_to_ref>  (58) 
3.0714285714297676

>  <pose_kind>  (58) 
conformer

$$$$
3war.A
     RDKit          3D

 13 13  0  0  0  0  0  0  0  0999 V2000
    4.0998   20.1474   38.9903 N   0  0  0  0  0  0  0  0  0  0  0  0
    2.9165   20.4212   38.2630 C   0  0  0  0  0  0  0  0  0  0  0  0
    1.7314   20.7231   39.0270 C   0  0  0  0  0  0  0  0  0  0  0  0
    1.7599   20.7144   40.4102 C   0  0  0  0  0  0  0  0  0  0  0  0
    2.9407   20.4687   41.0760 C   0  0  0  0  0  0  0  0  0  0  0  0
    4.0764   20.1600   40.3614 C   0  0  0  0  0  0  0  0  0  0  0  0
    0.4042   20.9327   38.3134 C   0  0  0  0  0  0  0  0  0  0  0  0
    0.4147   21.0930   37.0577 O   0  0  0  0  0  0  0  0  0  0  0  0
   -0.5684   20.9159   39.0366 O   0  0  0  0  0  0  0  0  0  0  0  0
    2.9018   20.4042   37.1632 H   0  0  0  0  0  0  0  0  0  0  0  0
    0.8379   20.9039   40.9794 H   0  0  0  0  0  0  0  0  0  0  0  0
    2.9761   20.5191   42.1743 H   0  0  0  0  0  0  0  0  0  0  0  0
    4.9977   19.9146   40.9098 H   0  0  0  0  0  0  0  0  0  0  0  0
  1  2  1  0
  1  6  2  0
  2  3  2  0
  3  4  1  0
  3  7  1  0
  4  5  2  0
  5  6  1  0
  7  8  1  0
  7  9  2  0
  2 10  1  0
  4 11  1  0
  5 12  1  0
  6 13  1  0
M  CHG  1   8  -1
M  END
>  <mol_id>  (59) 
2026-09-16-3war-s0-n100-0059

>  <rmsd_to_ref>  (59) 
3.117346938778757

>  <pose_kind>  (59) 
rigid

$$$$
3war.A
     RDKit          3D

 13 13  0  0  0  0  0  0  0  0999 V2000
    1.2449   20.0361   37.2725 N   0  0  0  0  0  0  0  0  0  0  0  0
    2.0285   19.0319   36.9013 C   0  0  0  0  0  0  0  0  0  0  0  0
    2.9548   18.5622   37.8165 C   0  0  0  0  0  0  0  0  0  0  0  0
    3.0368   19.1388   39.0645 C   0  0  0  0  0  0  0  0  0  0  0  0
    2.1938   20.1856   39.4008 C   0  0  0  0  0  0  0  0  0  0  0  0
    1.2747   20.6415   38.4737 C   0  0  0  0  0  0  0  0  0  0  0  0
    3.8374   17.4741   37.4790 C   0  0  0  0  0  0  0  0  0  0  0  0
    3.8493   16.8228   36.2727 O   0  0  0  0  0  0  0  0  0  0  0  0
    4.6656   17.0872   38.3599 O   0  0  0  0  0  0  0  0  0  0  0  0
    1.9549   18.5812   35.9072 H   0  0  0  0  0  0  0  0  0  0  0  0
    3.7627   18.7739   39.7876 H   0  0  0  0  0  0  0  0  0  0  0  0
    2.2293   20.6570   40.3599 H   0  0  0  0  0  0  0  0  0  0  0  0
    0.5865   21.4526   38.6659 H   0  0  0  0  0  0  0  0  0  0  0  0
  1  2  1  0
  1  6  2  0
  2  3  2  0
  3  4  1  0
  3  7  1  0
  4  5  2  0
  5  6  1  0
  7  8  1  0
  7  9  2  0
  2 10  1  0
  4 11  1  0
  5 12  1  0
  6 13  1  0
M  CHG  1   8  -1
M  END
>  <mol_id>  (60) 
2026-09-16-3war-s0-n100-0060

>  <rmsd_to_ref>  (60) 
3.1632653061257487

>  <pose_kind>  (60) 
conformer

$$$$
3war.A
     RDKit          3D

 13 13  0  0  0  0  0  0  0  0999 V2000
    2.7652   19.1323   36.6818 N   0  0  0  0  0  0  0  0  0  0  0  0
    2.4827   20.5077   36.8622 C   0  0  0  0  0  0  0  0  0  0  0  0
    2.7920   21.0781   38.1500 C   0  0  0  0  0  0  0  0  0  0  0  0
    3.3160   20.2952   39.1633 C   0  0  0  0  0  0  0  0  0  0  0  0
    3.5999   18.9667   38.9341 C   0  0  0  0  0  0  0  0  0  0  0  0
    3.2927   18.4027   37.7162 C   0  0  0  0  0  0  0  0  0  0  0  0
    2.4262   22.5253   38.4441 C   0  0  0  0  0  0  0  0  0  0  0  0
    2.0954   23.2711   37.4761 O   0  0  0  0  0  0  0  0  0  0  0  0
    2.4786   22.8334   39.6152 O   0  0  0  0  0  0  0  0  0  0  0  0
    2.0461   21.1148   36.0553 H   0  0  0  0  0  0  0  0  0  0  0  0
    3.5063   20.7343   40.1537 H   0  0  0  0  0  0  0  0  0  0  0  0
    4.0703   18.3589   39.7211 H   0  0  0  0  0  0  0  0  0  0  0  0
    3.4770   17.3285   37.5676 H   0  0  0  0  0  0  0  0  0  0  0  0
  1  2  1  0
  1  6  2  0
  2  3  2  0
  3  4  1  0
  3  7  1  0
  4  5  2  0
  5  6  1  0
  7  8  1  0
  7  9  2  0
  2 10  1  0
  4 11  1  0
  5 12  1  0
  6 13  1  0
M  CHG  1   8  -1
M  END
>  <mol_id>  (61) 
2026-09-16-3war-s0-n100-0061

>  <rmsd_to_ref>  (61) 
3.209183673471126

>  <pose_kind>  (61) 
rigid

$$$$
3war.A
     RDKit          3D

 13 13  0  0  0  0  0  0  0  0999 V2000
    4.2106   17.6369   37.2244 N   0  0  0  0  0  0  0  0  0  0  0  0
    3.7445   18.7134   36.6044 C   0  0  0  0  0  0  0  0  0  0  0  0
    3.2586   19.7489   37.3843 C   0  0  0  0  0  0  0  0  0  0  0  0
    3.2716   19.6362   38.7567 C   0  0  0  0  0  0  0  0  0  0  0  0
    3.7700   18.4892   39.3531 C   0  0  0  0  0  0  0  0  0  0  0  0
    4.2512   17.4652   38.5582 C   0  0  0  0  0  0  0  0  0  0  0  0
    2.7377   20.9469   36.7762 C   0  0  0  0  0  0  0  0  0  0  0  0
    2.6729   21.1736   35.4256 O   0  0  0  0  0  0  0  0  0  0  0  0
    2.3061   21.8619   37.5432 O   0  0  0  0  0  0  0  0  0  0  0  0
    3.7390   18.7923   35.5134 H   0  0  0  0  0  0  0  0  0  0  0  0
    2.8912   20.4466   39.3744 H   0  0  0  0  0  0  0  0  0  0  0  0
    3.7956   18.3673   40.4152 H   0  0  0  0  0  0  0  0  0  0  0  0
    4.6541   16.5432   38.9532 H   0  0  0  0  0  0  0  0  0  0  0  0
  1  2  1  0
  1  6  2  0
  2  3  2  0
  3  4  1  0
  3  7  1  0
  4  5  2  0
  5  6  1  0
  7  8  1  0
  7  9  2  0
  2 10  1  0
  4 11  1  0
  5 12  1  0
  6 13  1  0
M  CHG  1   8  -1
M  END
>  <mol_id>  (62) 
2026-09-16-3war-s0-n100-0062

>  <rmsd_to_ref>  (62) 
3.255102040818503

>  <pose_kind>  (62) 
conformer

$$$$
3war.A
     RDKit          3D

 13 13  0  0  0  0  0  0  0  0999 V2000
    2.4921   20.4892   40.1574 N   0  0  0  0  0  0  0  0  0  0  0  0
    2.1105   19.1395   39.9661 C   0  0  0  0  0  0  0  0  0  0  0  0
    2.1969   18.6166   38.6251 C   0  0  0  0  0  0  0  0  0  0  0  0
    2.6104   19.4201   37.5774 C   0  0  0  0  0  0  0  0  0  0  0  0
    2.9979   20.7207   37.8149 C   0  0  0  0  0  0  0  0  0  0  0  0
    2.9031   21.2404   39.0863 C   0  0  0  0  0  0  0  0  0  0  0  0
    1.7124   17.2047   38.3308 C   0  0  0  0  0  0  0  0  0  0  0  0
    1.4852   16.4307   39.3064 O   0  0  0  0  0  0  0  0  0  0  0  0
    1.5766   16.9504   37.1534 O   0  0  0  0  0  0  0  0  0  0  0  0
    1.7631   18.5169   40.8038 H   0  0  0  0  0  0  0  0  0  0  0  0
    2.6297   19.0199   36.5531 H   0  0  0  0  0  0  0  0  0  0  0  0
    3.3817   21.3414   36.9918 H   0  0  0  0  0  0  0  0  0  0  0  0
    3.1663   22.2961   39.2488 H   0  0  0  0  0  0  0  0  0  0  0  0
  1  2  1  0
  1  6  2  0
  2  3  2  0
  3  4  1  0
  3  7  1  0
  4  5  2  0
  5  6  1  0
  7  8  1  0
  7  9  2  0
  2 10  1  0
  4 11  1  0
  5 12  1  0
  6 13  1  0
M  CHG  1   8  -1
M  END
>  <mol_id>  (63) 
2026-09-16-3war-s0-n100-0063

>  <rmsd_to_ref>  (63) 
3.301020408165824

>  <pose_kind>  (63) 
rigid

$$$$
3war.A
     RDKit          3D

 13 13  0  0  0  0  0  0  0  0999 V2000
    0.3747   21.2878   37.2145 N   0  0  0  0  0  0  0  0  0  0  0  0
    1.4053   20.6432   36.6831 C   0  0  0  0  0  0  0  0  0  0  0  0
    1.5629   19.3046   36.9987 C   0  0  0  0  0  0  0  0  0  0  0  0
    0.6627   18.6892   37.8399 C   0  0  0  0  0  0  0  0  0  0  0  0
   -0.3967   19.4096   38.3675 C   0  0  0  0  0  0  0  0  0  0  0  0
   -0.5381   20.7458   38.0412 C   0  0  0  0  0  0  0  0  0  0  0  0
    2.6604   18.5442   36.4565 C   0  0  0  0  0  0  0  0  0  0  0  0
    3.6168   19.0455   35.6117 O   0  0  0  0  0  0  0  0  0  0  0  0
    2.7523   17.3206   36.7822 O   0  0  0  0  0  0  0  0  0  0  0  0
    2.1145   21.1418   36.0160 H   0  0  0  0  0  0  0  0  0  0  0  0
    0.7815   17.6377   38.0913 H   0  0  0  0  0  0  0  0  0  0  0  0
   -1.1144   18.9648   39.0236 H   0  0  0  0  0  0  0  0  0  0  0  0
   -1.3384   21.3691   38.4146 H   0  0  0  0  0  0  0  0  0  0  0  0
  1  2  1  0
  1  6  2  0
  2  3  2  0
  3  4  1  0
  3  7  1  0
  4  5  2  0
  5  6  1  0
  7  8  1  0
  7  9  2  0
  2 10  1  0
  4 11  1  0
  5 12  1  0
  6 13  1  0
M  CHG  1   8  -1
M  END
>  <mol_id>  (64) 
2026-09-16-3war-s0-n100-0064

>  <rmsd_to_ref>  (64) 
3.3469387755107096

>  <pose_kind>  (64) 
conformer

$$$$
3war.A
     RDKit          3D

 13 13  0  0  0  0  0  0  0  0999 V2000
    2.1050   20.2728   40.1840 N   0  0  0  0  0  0  0  0  0  0  0  0
    1.3186   20.7807   39.1221 C   0  0  0  0  0  0  0  0  0  0  0  0
    0.4764   19.8426   38.4220 C   0  0  0  0  0  0  0  0  0  0  0  0
    0.4696   18.5029   38.7675 C   0  0  0  0  0  0  0  0  0  0  0  0
    1.2315   18.0579   39.8256 C   0  0  0  0  0  0  0  0  0  0  0  0
    2.0552   18.9374   40.4917 C   0  0  0  0  0  0  0  0  0  0  0  0
   -0.3219   20.3005   37.2105 C   0  0  0  0  0  0  0  0  0  0  0  0
   -0.4330   21.5434   36.9975 O   0  0  0  0  0  0  0  0  0  0  0  0
   -0.7821   19.4031   36.5380 O   0  0  0  0  0  0  0  0  0  0  0  0
    1.3486   21.8443   38.8432 H   0  0  0  0  0  0  0  0  0  0  0  0
   -0.1451   17.7917   38.1962 H   0  0  0  0  0  0  0  0  0  0  0  0
    1.1818   17.0042   40.1371 H   0  0  0  0  0  0  0  0  0  0  0  0
    2.6963   18.5552   41.2998 H   0  0  0  0  0  0  0  0  0  0  0  0
  1  2  1  0
  1  6  2  0
  2  3  2  0
  3  4  1  0
  3  7  1  0
  4  5  2  0
  5  6  1  0
  7  8  1  0
  7  9  2  0
  2 10  1  0
  4 11  1  0
  5 12  1  0
  6 13  1  0
M  CHG  1   8  -1
M  END
>  <mol_id>  (65) 
2026-09-16-3war-s0-n100-0065

>  <rmsd_to_ref>  (65) 
3.3928571428598473

>  <pose_kind>  (65) 
rigid

$$$$
3war.A
     RDKit          3D

 13 13  0  0  0  0  0  0  0  0999 V2000
    2.7904   18.9738   39.6817 N   0  0  0  0  0  0  0  0  0  0  0  0
    2.4317   20.2080   39.3521 C   0  0  0  0  0  0  0  0  0  0  0  0
    1.4791   20.3609   38.3594 C   0  0  0  0  0  0  0  0  0  0  0  0
    0.9393   19.2491   37.7517 C   0  0  0  0  0  0  0  0  0  0  0  0
    1.3499   17.9824   38.1344 C   0  0  0  0  0  0  0  0  0  0  0  0
    2.3025   17.8490   39.1277 C   0  0  0  0  0  0  0  0  0  0  0  0
    1.0436   21.6729   37.9523 C   0  0  0  0  0  0  0  0  0  0  0  0
    1.5067   22.8496   38.4820 O   0  0  0  0  0  0  0  0  0  0  0  0
    0.1675   21.7495   37.0367 O   0  0  0  0  0  0  0  0  0  0  0  0
    2.8670   21.0842   39.8413 H   0  0  0  0  0  0  0  0  0  0  0  0
    0.1906   19.3633   36.9712 H   0  0  0  0  0  0  0  0  0  0  0  0
    0.9527   17.0973   37.6847 H   0  0  0  0  0  0  0  0  0  0  0  0
    2.6698   16.8943   39.4768 H   0  0  0  0  0  0  0  0  0  0  0  0
  1  2  1  0
  1  6  2  0
  2  3  2  0
  3  4  1  0
  3  7  1  0
  4  5  2  0
  5  6  1  0
  7  8  1  0
  7  9  2  0
  2 10  1  0
  4 11  1  0
  5 12  1  0
  6 13  1  0
M  CHG  1   8  -1
M  END
>  <mol_id>  (66) 
2026-09-16-3war-s0-n100-0066

>  <rmsd_to_ref>  (66) 
3.4387755102043025

>  <pose_kind>  (66) 
conformer

$$$$
3war.A
     RDKit          3D

 13 13  0  0  0  0  0  0  0  0999 V2000
    3.0165   20.0007   36.8193 N   0  0  0  0  0  0  0  0  0  0  0  0
    3.7379   20.5474   37.9079 C   0  0  0  0  0  0  0  0  0  0  0  0
    2.9911   21.3233   38.8668 C   0  0  0  0  0  0  0  0  0  0  0  0
    1.6345   21.5380   38.7008 C   0  0  0  0  0  0  0  0  0  0  0  0
    0.9684   20.9640   37.6402 C   0  0  0  0  0  0  0  0  0  0  0  0
    1.6704   20.2363   36.7058 C   0  0  0  0  0  0  0  0  0  0  0  0
    3.7184   22.0190   40.0077 C   0  0  0  0  0  0  0  0  0  0  0  0
    4.9196   21.6953   40.2422 O   0  0  0  0  0  0  0  0  0  0  0  0
    3.0608   22.8501   40.5960 O   0  0  0  0  0  0  0  0  0  0  0  0
    4.8207   20.3871   38.0173 H   0  0  0  0  0  0  0  0  0  0  0  0
    1.0867   22.1680   39.4170 H   0  0  0  0  0  0  0  0  0  0  0  0
   -0.1202   21.0864   37.5405 H   0  0  0  0  0  0  0  0  0  0  0  0
    1.1323   19.8294   35.8369 H   0  0  0  0  0  0  0  0  0  0  0  0
  1  2  1  0
  1  6  2  0
  2  3  2  0
  3  4  1  0
  3  7  1  0
  4  5  2  0
  5  6  1  0
  7  8  1  0
  7  9  2  0
  2 10  1  0
  4 11  1  0
  5 12  1  0
  6 13  1  0
M  CHG  1   8  -1
M  END
>  <mol_id>  (67) 
2026-09-16-3war-s0-n100-0067

>  <rmsd_to_ref>  (67) 
3.4846938775528997

>  <pose_kind>  (67) 
rigid

$$$$
3war.A
     RDKit          3D

 13 13  0  0  0  0  0  0  0  0999 V2000
    1.0447   22.4333   39.3512 N   0  0  0  0  0  0  0  0  0  0  0  0
    1.8383   21.7362   40.1540 C   0  0  0  0  0  0  0  0  0  0  0  0
    2.6970   20.8174   39.5757 C   0  0  0  0  0  0  0  0  0  0  0  0
    2.7047   20.6542   38.2082 C   0  0  0  0  0  0  0  0  0  0  0  0
    1.8546   21.4086   37.4158 C   0  0  0  0  0  0  0  0  0  0  0  0
    1.0037   22.3216   38.0110 C   0  0  0  0  0  0  0  0  0  0  0  0
    3.5860   20.0267   40.3889 C   0  0  0  0  0  0  0  0  0  0  0  0
    3.6685   20.1001   41.7554 O   0  0  0  0  0  0  0  0  0  0  0  0
    4.3502   19.2006   39.8012 O   0  0  0  0  0  0  0  0  0  0  0  0
    1.8240   21.8738   41.2392 H   0  0  0  0  0  0  0  0  0  0  0  0
    3.3773   19.9337   37.7483 H   0  0  0  0  0  0  0  0  0  0  0  0
    1.8335   21.3086   36.3513 H   0  0  0  0  0  0  0  0  0  0  0  0
    0.3147   22.9432   37.4569 H   0  0  0  0  0  0  0  0  0  0  0  0
  1  2  1  0
  1  6  2  0
  2  3  2  0
  3  4  1  0
  3  7  1  0
  4  5  2  0
  5  6  1  0
  7  8  1  0
  7  9  2  0
  2 10  1  0
  4 11  1  0
  5 12  1  0
  6 13  1  0
M  CHG  1   8  -1
M  END
>  <mol_id>  (68) 
2026-09-16-3war-s0-n100-0068

>  <rmsd_to_ref>  (68) 
3.5306122449000803

>  <pose_kind>  (68) 
conformer

$$$$
3war.A
     RDKit          3D

 13 13  0  0  0  0  0  0  0  0999 V2000
    3.5494   17.7583   40.8126 N   0  0  0  0  0  0  0  0  0  0  0  0
    3.1847   19.0758   41.1804 C   0  0  0  0  0  0  0  0  0  0  0  0
    2.9282   20.0085   40.1110 C   0  0  0  0  0  0  0  0  0  0  0  0
    3.0641   19.6242   38.7889 C   0  0  0  0  0  0  0  0  0  0  0  0
    3.3951   18.3238   38.4775 C   0  0  0  0  0  0  0  0  0  0  0  0
    3.6617   17.4262   39.4870 C   0  0  0  0  0  0  0  0  0  0  0  0
    2.6256   21.4643   40.4333 C   0  0  0  0  0  0  0  0  0  0  0  0
    2.3513   21.7714   41.6304 O   0  0  0  0  0  0  0  0  0  0  0  0
    2.6873   22.2168   39.4851 O   0  0  0  0  0  0  0  0  0  0  0  0
    3.1007   19.3749   42.2356 H   0  0  0  0  0  0  0  0  0  0  0  0
    2.9075   20.3585   37.9849 H   0  0  0  0  0  0  0  0  0  0  0  0
    3.4462   18.0037   37.4263 H   0  0  0  0  0  0  0  0  0  0  0  0
    3.9762   16.4064   39.2205 H   0  0  0  0  0  0  0  0  0  0  0  0
  1  2  1  0
  1  6  2  0
  2  3  2  0
  3  4  1  0
  3  7  1  0
  4  5  2  0
  5  6  1  0
  7  8  1  0
  7  9  2  0
  2 10  1  0
  4 11  1  0
  5 12  1  0
  6 13  1  0
M  CHG  1   8  -1
M  END
>  <mol_id>  (69) 
2026-09-16-3war-s0-n100-0069

>  <rmsd_to_ref>  (69) 
3.57653061224502

>  <pose_kind>  (69) 
rigid

$$$$
3war.A
     RDKit          3D

 13 13  0  0  0  0  0  0  0  0999 V2000
   -0.4773   22.3094   37.4025 N   0  0  0  0  0  0  0  0  0  0  0  0
    0.7142   22.0034   36.9055 C   0  0  0  0  0  0  0  0  0  0  0  0
    1.5326   21.1738   37.6527 C   0  0  0  0  0  0  0  0  0  0  0  0
    1.0966   20.6973   38.8690 C   0  0  0  0  0  0  0  0  0  0  0  0
   -0.1576   21.0483   39.3414 C   0  0  0  0  0  0  0  0  0  0  0  0
   -0.9614   21.8780   38.5814 C   0  0  0  0  0  0  0  0  0  0  0  0
    2.8392   20.8013   37.1725 C   0  0  0  0  0  0  0  0  0  0  0  0
    3.3805   21.2113   35.9815 O   0  0  0  0  0  0  0  0  0  0  0  0
    3.5438   20.0379   37.9022 O   0  0  0  0  0  0  0  0  0  0  0  0
    1.0504   22.3875   35.9380 H   0  0  0  0  0  0  0  0  0  0  0  0
    1.7353   20.0451   39.4603 H   0  0  0  0  0  0  0  0  0  0  0  0
   -0.5287   20.6973   40.2809 H   0  0  0  0  0  0  0  0  0  0  0  0
   -1.9495   22.1931   38.8860 H   0  0  0  0  0  0  0  0  0  0  0  0
  1  2  1  0
  1  6  2  0
  2  3  2  0
  3  4  1  0
  3  7  1  0
  4  5  2  0
  5  6  1  0
  7  8  1  0
  7  9  2  0
  2 10  1  0
  4 11  1  0
  5 12  1  0
  6 13  1  0
M  CHG  1   8  -1
M  END
>  <mol_id>  (70) 
2026-09-16-3war-s0-n100-0070

>  <rmsd_to_ref>  (70) 
3.6224489795925994

>  <pose_kind>  (70) 
conformer

$$$$
3war.A
     RDKit          3D

 13 13  0  0  0  0  0  0  0  0999 V2000
    3.5816   17.8768   37.4524 N   0  0  0  0  0  0  0  0  0  0  0  0
    3.0917   19.1218   37.9152 C   0  0  0  0  0  0  0  0  0  0  0  0
    3.3672   19.4663   39.2881 C   0  0  0  0  0  0  0  0  0  0  0  0
    4.0574   18.5948   40.1116 C   0  0  0  0  0  0  0  0  0  0  0  0
    4.5388   17.4051   39.6106 C   0  0  0  0  0  0  0  0  0  0  0  0
    4.2678   17.0532   38.3074 C   0  0  0  0  0  0  0  0  0  0  0  0
    2.7890   20.7439   39.8781 C   0  0  0  0  0  0  0  0  0  0  0  0
    2.2975   21.6028   39.0886 O   0  0  0  0  0  0  0  0  0  0  0  0
    2.8474   20.8158   41.0867 O   0  0  0  0  0  0  0  0  0  0  0  0
    2.5258   19.7968   37.2564 H   0  0  0  0  0  0  0  0  0  0  0  0
    4.2221   18.8522   41.1682 H   0  0  0  0  0  0  0  0  0  0  0  0
    5.1374   16.7390   40.2494 H   0  0  0  0  0  0  0  0  0  0  0  0
    4.6141   16.0763   37.9389 H   0  0  0  0  0  0  0  0  0  0  0  0
  1  2  1  0
  1  6  2  0
  2  3  2  0
  3  4  1  0
  3  7  1  0
  4  5  2  0
  5  6  1  0
  7  8  1  0
  7  9  2  0
  2 10  1  0
  4 11  1  0
  5 12  1  0
  6 13  1  0
M  CHG  1   8  -1
M  END
>  <mol_id>  (71) 
2026-09-16-3war-s0-n100-0071

>  <rmsd_to_ref>  (71) 
3.668367346940574

>  <pose_kind>  (71) 
rigid

$$$$
3war.A
     RDKit          3D

 13 13  0  0  0  0  0  0  0  0999 V2000
    3.6537   19.1240   41.9960 N   0  0  0  0  0  0  0  0  0  0  0  0
    3.1352   20.3206   41.7520 C   0  0  0  0  0  0  0  0  0  0  0  0
    2.7576   20.6086   40.4518 C   0  0  0  0  0  0  0  0  0  0  0  0
    2.9269   19.6633   39.4647 C   0  0  0  0  0  0  0  0  0  0  0  0
    3.4737   18.4285   39.7743 C   0  0  0  0  0  0  0  0  0  0  0  0
    3.8450   18.1585   41.0785 C   0  0  0  0  0  0  0  0  0  0  0  0
    2.1877   21.8891   40.1167 C   0  0  0  0  0  0  0  0  0  0  0  0
    1.9712   22.9062   41.0102 O   0  0  0  0  0  0  0  0  0  0  0  0
    1.8610   22.0946   38.9074 O   0  0  0  0  0  0  0  0  0  0  0  0
    3.0052   21.0640   42.5439 H   0  0  0  0  0  0  0  0  0  0  0  0
    2.6320   19.8841   38.4413 H   0  0  0  0  0  0  0  0  0  0  0  0
    3.6197   17.6709   39.0339 H   0  0  0  0  0  0  0  0  0  0  0  0
    4.2771   17.2189   41.3929 H   0  0  0  0  0  0  0  0  0  0  0  0
  1  2  1  0
  1  6  2  0
  2  3  2  0
  3  4  1  0
  3  7  1  0
  4  5  2  0
  5  6  1  0
  7  8  1  0
  7  9  2  0
  2 10  1  0
  4 11  1  0
  5 12  1  0
  6 13  1  0
M  CHG  1   8  -1
M  END
>  <mol_id>  (72) 
2026-09-16-3war-s0-n100-0072

>  <rmsd_to_ref>  (72) 
3.714285714287407

>  <pose_kind>  (72) 
conformer

$$$$
3war.A
     RDKit          3D

 13 13  0  0  0  0  0  0  0  0999 V2000
    3.1763   19.5428   37.0561 N   0  0  0  0  0  0  0  0  0  0  0  0
    2.7159   20.8797   37.1251 C   0  0  0  0  0  0  0  0  0  0  0  0
    2.8246   21.5464   38.3991 C   0  0  0  0  0  0  0  0  0  0  0  0
    3.3333   20.8853   39.5028 C   0  0  0  0  0  0  0  0  0  0  0  0
    3.7944   19.5926   39.3826 C   0  0  0  0  0  0  0  0  0  0  0  0
    3.6800   18.9358   38.1778 C   0  0  0  0  0  0  0  0  0  0  0  0
    2.2621   22.9498   38.5689 C   0  0  0  0  0  0  0  0  0  0  0  0
    1.9439   23.6005   37.5307 O   0  0  0  0  0  0  0  0  0  0  0  0
    2.1596   23.3191   39.7189 O   0  0  0  0  0  0  0  0  0  0  0  0
    2.2937   21.3876   36.2454 H   0  0  0  0  0  0  0  0  0  0  0  0
    3.3697   21.3926   40.4781 H   0  0  0  0  0  0  0  0  0  0  0  0
    4.2521   19.0872   40.2457 H   0  0  0  0  0  0  0  0  0  0  0  0
    4.0044   17.8868   38.1128 H   0  0  0  0  0  0  0  0  0  0  0  0
  1  2  1  0
  1  6  2  0
  2  3  2  0
  3  4  1  0
  3  7  1  0
  4  5  2  0
  5  6  1  0
  7  8  1  0
  7  9  2  0
  2 10  1  0
  4 11  1  0
  5 12  1  0
  6 13  1  0
M  CHG  1   8  -1
M  END
>  <mol_id>  (73) 
2026-09-16-3war-s0-n100-0073

>  <rmsd_to_ref>  (73) 
3.76020408163456

>  <pose_kind>  (73) 
rigid

$$$$
3war.A
     RDKit          3D

 13 13  0  0  0  0  0  0  0  0999 V2000
    3.5334   17.5916   36.4792 N   0  0  0  0  0  0  0  0  0  0  0  0
    2.5674   18.4671   36.2332 C   0  0  0  0  0  0  0  0  0  0  0  0
    2.2532   19.3792   37.2260 C   0  0  0  0  0  0  0  0  0  0  0  0
    2.9388   19.3540   38.4202 C   0  0  0  0  0  0  0  0  0  0  0  0
    3.9394   18.4179   38.6251 C   0  0  0  0  0  0  0  0  0  0  0  0
    4.2395   17.5147   37.6220 C   0  0  0  0  0  0  0  0  0  0  0  0
    1.2147   20.3578   37.0254 C   0  0  0  0  0  0  0  0  0  0  0  0
    0.4660   20.4801   35.8834 O   0  0  0  0  0  0  0  0  0  0  0  0
    0.9719   21.1677   37.9724 O   0  0  0  0  0  0  0  0  0  0  0  0
    2.0292   18.4781   35.2809 H   0  0  0  0  0  0  0  0  0  0  0  0
    2.6962   20.0682   39.2038 H   0  0  0  0  0  0  0  0  0  0  0  0
    4.4921   18.3691   39.5392 H   0  0  0  0  0  0  0  0  0  0  0  0
    5.0061   16.7579   37.7112 H   0  0  0  0  0  0  0  0  0  0  0  0
  1  2  1  0
  1  6  2  0
  2  3  2  0
  3  4  1  0
  3  7  1  0
  4  5  2  0
  5  6  1  0
  7  8  1  0
  7  9  2  0
  2 10  1  0
  4 11  1  0
  5 12  1  0
  6 13  1  0
M  CHG  1   8  -1
M  END
>  <mol_id>  (74) 
2026-09-16-3war-s0-n100-0074

>  <rmsd_to_ref>  (74) 
3.806122448982704

>  <pose_kind>  (74) 
conformer

$$$$
3war.A
     RDKit          3D

 13 13  0  0  0  0  0  0  0  0999 V2000
    3.1975   18.2856   37.0179 N   0  0  0  0  0  0  0  0  0  0  0  0
    2.4977   19.4087   37.5212 C   0  0  0  0  0  0  0  0  0  0  0  0
    1.5710   19.1747   38.6009 C   0  0  0  0  0  0  0  0  0  0  0  0
    1.3659   17.8982   39.0933 C   0  0  0  0  0  0  0  0  0  0  0  0
    2.0891   16.8387   38.5910 C   0  0  0  0  0  0  0  0  0  0  0  0
    2.9638   17.0425   37.5472 C   0  0  0  0  0  0  0  0  0  0  0  0
    0.7157   20.3186   39.1251 C   0  0  0  0  0  0  0  0  0  0  0  0
    1.0157   21.5001   38.7832 O   0  0  0  0  0  0  0  0  0  0  0  0
   -0.2062   19.9784   39.8345 O   0  0  0  0  0  0  0  0  0  0  0  0
    2.6540   20.4155   37.1067 H   0  0  0  0  0  0  0  0  0  0  0  0
    0.6239   17.7289   39.8876 H   0  0  0  0  0  0  0  0  0  0  0  0
    1.9684   15.8339   39.0221 H   0  0  0  0  0  0  0  0  0  0  0  0
    3.4938   16.1771   37.1229 H   0  0  0  0  0  0  0  0  0  0  0  0
  1  2  1  0
  1  6  2  0
  2  3  2  0
  3  4  1  0
  3  7  1  0
  4  5  2  0
  5  6  1  0
  7  8  1  0
  7  9  2  0
  2 10  1  0
  4 11  1  0
  5 12  1  0
  6 13  1  0
M  CHG  1   8  -1
M  END
>  <mol_id>  (75) 
2026-09-16-3war-s0-n100-0075

>  <rmsd_to_ref>  (75) 
3.852040816327705

>  <pose_kind>  (75) 
rigid

$$$$
3war.A
     RDKit          3D

 13 13  0  0  0  0  0  0  0  0999 V2000
    2.3138   19.0108   37.3595 N   0  0  0  0  0  0  0  0  0  0  0  0
    1.2213   19.7628   37.3257 C   0  0  0  0  0  0  0  0  0  0  0  0
    0.8686   20.4427   38.4787 C   0  0  0  0  0  0  0  0  0  0  0  0
    1.6463   20.3228   39.6089 C   0  0  0  0  0  0  0  0  0  0  0  0
    2.7779   19.5236   39.5898 C   0  0  0  0  0  0  0  0  0  0  0  0
    3.1146   18.8518   38.4290 C   0  0  0  0  0  0  0  0  0  0  0  0
   -0.3058   21.2773   38.5116 C   0  0  0  0  0  0  0  0  0  0  0  0
   -1.1548   21.4741   37.4533 O   0  0  0  0  0  0  0  0  0  0  0  0
   -0.5779   21.8757   39.5977 O   0  0  0  0  0  0  0  0  0  0  0  0
    0.6107   19.8508   36.4223 H   0  0  0  0  0  0  0  0  0  0  0  0
    1.3741   20.8549   40.5177 H   0  0  0  0  0  0  0  0  0  0  0  0
    3.4048   19.4071   40.4481 H   0  0  0  0  0  0  0  0  0  0  0  0
    3.9813   18.2119   38.3408 H   0  0  0  0  0  0  0  0  0  0  0  0
  1  2  1  0
  1  6  2  0
  2  3  2  0
  3  4  1  0
  3  7  1  0
  4  5  2  0
  5  6  1  0
  7  8  1  0
  7  9  2  0
  2 10  1  0
  4 11  1  0
  5 12  1  0
  6 13  1  0
M  CHG  1   8  -1
M  END
>  <mol_id>  (76) 
2026-09-16-3war-s0-n100-0076

>  <rmsd_to_ref>  (76) 
3.897959183676141

>  <pose_kind>  (76) 
conformer

$$$$
3war.A
     RDKit          3D

 13 13  0  0  0  0  0  0  0  0999 V2000
    2.3839   21.1701   36.6207 N   0  0  0  0  0  0  0  0  0  0  0  0
    2.8124   20.3978   37.7270 C   0  0  0  0  0  0  0  0  0  0  0  0
    2.6282   20.9701   39.0377 C   0  0  0  0  0  0  0  0  0  0  0  0
    2.0805   22.2316   39.1886 C   0  0  0  0  0  0  0  0  0  0  0  0
    1.6528   22.9362   38.0847 C   0  0  0  0  0  0  0  0  0  0  0  0
    1.8392   22.4118   36.8253 C   0  0  0  0  0  0  0  0  0  0  0  0
    3.1526   20.2373   40.2636 C   0  0  0  0  0  0  0  0  0  0  0  0
    3.5069   19.0286   40.1367 O   0  0  0  0  0  0  0  0  0  0  0  0
    3.1914   20.9045   41.2749 O   0  0  0  0  0  0  0  0  0  0  0  0
    3.2660   19.4048   37.5927 H   0  0  0  0  0  0  0  0  0  0  0  0
    1.9863   22.6728   40.1918 H   0  0  0  0  0  0  0  0  0  0  0  0
    1.1645   23.9139   38.2089 H   0  0  0  0  0  0  0  0  0  0  0  0
    1.5403   23.0103   35.9521 H   0  0  0  0  0  0  0  0  0  0  0  0
  1  2  1  0
  1  6  2  0
  2  3  2  0
  3  4  1  0
  3  7  1  0
  4  5  2  0
  5  6  1  0
  7  8  1  0
  7  9  2  0
  2 10  1  0
  4 11  1  0
  5 12  1  0
  6 13  1  0
M  CHG  1   8  -1
M  END
>  <mol_id>  (77) 
2026-09-16-3war-s0-n100-0077

>  <rmsd_to_ref>  (77) 
3.9438775510205026

>  <pose_kind>  (77) 
rigid

$$$$
3war.A
     RDKit          3D

 13 13  0  0  0  0  0  0  0  0999 V2000
    1.3499   20.4787   39.6233 N   0  0  0  0  0  0  0  0  0  0  0  0
    0.3194   19.8886   39.0314 C   0  0  0  0  0  0  0  0  0  0  0  0
    0.5879   18.8975   38.1030 C   0  0  0  0  0  0  0  0  0  0  0  0
    1.8927   18.5568   37.8237 C   0  0  0  0  0  0  0  0  0  0  0  0
    2.9319   19.2052   38.4710 C   0  0  0  0  0  0  0  0  0  0  0  0
    2.6447   20.1927   39.3953 C   0  0  0  0  0  0  0  0  0  0  0  0
   -0.4841   18.2155   37.4230 C   0  0  0  0  0  0  0  0  0  0  0  0
   -1.8178   18.4668   37.6169 O   0  0  0  0  0  0  0  0  0  0  0  0
   -0.1754   17.3158   36.5822 O   0  0  0  0  0  0  0  0  0  0  0  0
   -0.7133   20.1671   39.2610 H   0  0  0  0  0  0  0  0  0  0  0  0
    2.1095   17.7789   37.0952 H   0  0  0  0  0  0  0  0  0  0  0  0
    3.9565   18.9669   38.2792 H   0  0  0  0  0  0  0  0  0  0  0  0
    3.4028   20.7400   39.9377 H   0  0  0  0  0  0  0  0  0  0  0  0
  1  2  1  0
  1  6  2  0
  2  3  2  0
  3  4  1  0
  3  7  1  0
  4  5  2  0
  5  6  1  0
  7  8  1  0
  7  9  2  0
  2 10  1  0
  4 11  1  0
  5 12  1  0
  6 13  1  0
M  CHG  1   8  -1
M  END
>  <mol_id>  (78) 
2026-09-16-3war-s0-n100-0078

>  <rmsd_to_ref>  (78) 
3.989795918369861

>  <pose_kind>  (78) 
conformer

$$$$
3war.A
     RDKit          3D

 13 13  0  0  0  0  0  0  0  0999 V2000
    3.8656   17.7894   36.7892 N   0  0  0  0  0  0  0  0  0  0  0  0
    4.2112   17.1881   38.0233 C   0  0  0  0  0  0  0  0  0  0  0  0
    3.8669   17.9088   39.2239 C   0  0  0  0  0  0  0  0  0  0  0  0
    3.2510   19.1456   39.1547 C   0  0  0  0  0  0  0  0  0  0  0  0
    2.9091   19.6804   37.9320 C   0  0  0  0  0  0  0  0  0  0  0  0
    3.2480   19.0135   36.7760 C   0  0  0  0  0  0  0  0  0  0  0  0
    4.2935   17.3670   40.5800 C   0  0  0  0  0  0  0  0  0  0  0  0
    4.7126   16.1743   40.6471 O   0  0  0  0  0  0  0  0  0  0  0  0
    4.1978   18.1570   41.4944 O   0  0  0  0  0  0  0  0  0  0  0  0
    4.7199   16.2137   38.0646 H   0  0  0  0  0  0  0  0  0  0  0  0
    3.0339   19.7031   40.0778 H   0  0  0  0  0  0  0  0  0  0  0  0
    2.3674   20.6363   37.8795 H   0  0  0  0  0  0  0  0  0  0  0  0
    3.0148   19.4795   35.8072 H   0  0  0  0  0  0  0  0  0  0  0  0
  1  2  1  0
  1  6  2  0
  2  3  2  0
  3  4  1  0
  3  7  1  0
  4  5  2  0
  5  6  1  0
  7  8  1  0
  7  9  2  0
  2 10  1  0
  4 11  1  0
  5 12  1  0
  6 13  1  0
M  CHG  1   8  -1
M  END
>  <mol_id>  (79) 
2026-09-16-3war-s0-n100-0079

>  <rmsd_to_ref>  (79) 
4.035714285714853

>  <pose_kind>  (79) 
rigid

$$$$
3war.A
     RDKit          3D

 13 13  0  0  0  0  0  0  0  0999 V2000
    1.0829   20.6833   37.8695 N   0  0  0  0  0  0  0  0  0  0  0  0
    1.9169   20.0214   38.6613 C   0  0  0  0  0  0  0  0  0  0  0  0
    1.5960   18.7159   38.9913 C   0  0  0  0  0  0  0  0  0  0  0  0
    0.4414   18.1495   38.4985 C   0  0  0  0  0  0  0  0  0  0  0  0
   -0.3948   18.8859   37.6750 C   0  0  0  0  0  0  0  0  0  0  0  0
   -0.0581   20.1885   37.3560 C   0  0  0  0  0  0  0  0  0  0  0  0
    2.4573   17.9394   39.8468 C   0  0  0  0  0  0  0  0  0  0  0  0
    3.6287   18.3931   40.3960 O   0  0  0  0  0  0  0  0  0  0  0  0
    2.1100   16.7480   40.1140 O   0  0  0  0  0  0  0  0  0  0  0  0
    2.8315   20.4812   39.0471 H   0  0  0  0  0  0  0  0  0  0  0  0
    0.1842   17.1242   38.7545 H   0  0  0  0  0  0  0  0  0  0  0  0
   -1.2988   18.4788   37.2744 H   0  0  0  0  0  0  0  0  0  0  0  0
   -0.6613   20.8215   36.7206 H   0  0  0  0  0  0  0  0  0  0  0  0
  1  2  1  0
  1  6  2  0
  2  3  2  0
  3  4  1  0
  3  7  1  0
  4  5  2  0
  5  6  1  0
  7  8  1  0
  7  9  2  0
  2 10  1  0
  4 11  1  0
  5 12  1  0
  6 13  1  0
M  CHG  1   8  -1
M  END
>  <mol_id>  (80) 
2026-09-16-3war-s0-n100-0080

>  <rmsd_to_ref>  (80) 
4.081632653063207

>  <pose_kind>  (80) 
conformer

$$$$
3war.A
     RDKit          3D

 13 13  0  0  0  0  0  0  0  0999 V2000
    4.3046   18.7113   42.6343 N   0  0  0  0  0  0  0  0  0  0  0  0
    3.2867   19.6456   42.3261 C   0  0  0  0  0  0  0  0  0  0  0  0
    2.7697   19.6330   40.9800 C   0  0  0  0  0  0  0  0  0  0  0  0
    3.2768   18.7584   40.0354 C   0  0  0  0  0  0  0  0  0  0  0  0
    4.2490   17.8480   40.3875 C   0  0  0  0  0  0  0  0  0  0  0  0
    4.7663   17.8601   41.6634 C   0  0  0  0  0  0  0  0  0  0  0  0
    1.7437   20.6724   40.5538 C   0  0  0  0  0  0  0  0  0  0  0  0
    1.1752   21.3604   41.4515 O   0  0  0  0  0  0  0  0  0  0  0  0
    1.5698   20.7519   39.3568 O   0  0  0  0  0  0  0  0  0  0  0  0
    2.9067   20.3503   43.0804 H   0  0  0  0  0  0  0  0  0  0  0  0
    2.9029   18.7900   39.0014 H   0  0  0  0  0  0  0  0  0  0  0  0
    4.6105   17.1142   39.6521 H   0  0  0  0  0  0  0  0  0  0  0  0
    5.5790   17.1621   41.9128 H   0  0  0  0  0  0  0  0  0  0  0  0
  1  2  1  0
  1  6  2  0
  2  3  2  0
  3  4  1  0
  3  7  1  0
  4  5  2  0
  5  6  1  0
  7  8  1  0
  7  9  2  0
  2 10  1  0
  4 11  1  0
  5 12  1  0
  6 13  1  0
M  CHG  1   8  -1
M  END
>  <mol_id>  (81) 
2026-09-16-3war-s0-n100-0081

>  <rmsd_to_ref>  (81) 
4.127551020408788

>  <pose_kind>  (81) 
rigid

$$$$
3war.A
     RDKit          3D

 13 13  0  0  0  0  0  0  0  0999 V2000
    3.5285   17.6299   36.7246 N   0  0  0  0  0  0  0  0  0  0  0  0
    2.7907   18.7238   36.8634 C   0  0  0  0  0  0  0  0  0  0  0  0
    3.4458   19.9419   36.9235 C   0  0  0  0  0  0  0  0  0  0  0  0
    4.8198   19.9850   36.8390 C   0  0  0  0  0  0  0  0  0  0  0  0
    5.5421   18.8116   36.6945 C   0  0  0  0  0  0  0  0  0  0  0  0
    4.8708   17.6041   36.6364 C   0  0  0  0  0  0  0  0  0  0  0  0
    2.7061   21.1694   37.0737 C   0  0  0  0  0  0  0  0  0  0  0  0
    1.3409   21.2529   37.1681 O   0  0  0  0  0  0  0  0  0  0  0  0
    3.3623   22.2551   37.1226 O   0  0  0  0  0  0  0  0  0  0  0  0
    1.6998   18.6781   36.9296 H   0  0  0  0  0  0  0  0  0  0  0  0
    5.3398   20.9390   36.8856 H   0  0  0  0  0  0  0  0  0  0  0  0
    6.6092   18.8070   36.6258 H   0  0  0  0  0  0  0  0  0  0  0  0
    5.3677   16.6507   36.5247 H   0  0  0  0  0  0  0  0  0  0  0  0
  1  2  1  0
  1  6  2  0
  2  3  2  0
  3  4  1  0
  3  7  1  0
  4  5  2  0
  5  6  1  0
  7  8  1  0
  7  9  2  0
  2 10  1  0
  4 11  1  0
  5 12  1  0
  6 13  1  0
M  CHG  1   8  -1
M  END
>  <mol_id>  (82) 
2026-09-16-3war-s0-n100-0082

>  <rmsd_to_ref>  (82) 
4.173469387755337

>  <pose_kind>  (82) 
conformer

$$$$
3war.A
     RDKit          3D

 13 13  0  0  0  0  0  0  0  0999 V2000
    2.6182   18.2833   39.0991 N   0  0  0  0  0  0  0  0  0  0  0  0
    2.1017   19.4790   39.6538 C   0  0  0  0  0  0  0  0  0  0  0  0
    3.0442   20.3724   40.2808 C   0  0  0  0  0  0  0  0  0  0  0  0
    4.3870   20.0473   40.3530 C   0  0  0  0  0  0  0  0  0  0  0  0
    4.8491   18.8850   39.7755 C   0  0  0  0  0  0  0  0  0  0  0  0
    3.9593   18.0126   39.1900 C   0  0  0  0  0  0  0  0  0  0  0  0
    2.5459   21.6279   40.9809 C   0  0  0  0  0  0  0  0  0  0  0  0
    1.3516   21.9960   40.7788 O   0  0  0  0  0  0  0  0  0  0  0  0
    3.3626   22.1678   41.6955 O   0  0  0  0  0  0  0  0  0  0  0  0
    1.0285   19.7162   39.6087 H   0  0  0  0  0  0  0  0  0  0  0  0
    5.0871   20.7182   40.8725 H   0  0  0  0  0  0  0  0  0  0  0  0
    5.9247   18.6549   39.7822 H   0  0  0  0  0  0  0  0  0  0  0  0
    4.3378   17.0643   38.7805 H   0  0  0  0  0  0  0  0  0  0  0  0
  1  2  1  0
  1  6  2  0
  2  3  2  0
  3  4  1  0
  3  7  1  0
  4  5  2  0
  5  6  1  0
  7  8  1  0
  7  9  2  0
  2 10  1  0
  4 11  1  0
  5 12  1  0
  6 13  1  0
M  CHG  1   8  -1
M  END
>  <mol_id>  (83) 
2026-09-16-3war-s0-n100-0083

>  <rmsd_to_ref>  (83) 
4.21938775510281

>  <pose_kind>  (83) 
rigid

$$$$
3war.A
     RDKit          3D

 13 13  0  0  0  0  0  0  0  0999 V2000
    3.3813   20.9653   39.3978 N   0  0  0  0  0  0  0  0  0  0  0  0
    2.2767   21.5380   39.8581 C   0  0  0  0  0  0  0  0  0  0  0  0
    1.4327   22.1433   38.9430 C   0  0  0  0  0  0  0  0  0  0  0  0
    1.7562   22.1351   37.6043 C   0  0  0  0  0  0  0  0  0  0  0  0
    2.9229   21.5223   37.1771 C   0  0  0  0  0  0  0  0  0  0  0  0
    3.7538   20.9227   38.1056 C   0  0  0  0  0  0  0  0  0  0  0  0
    0.2163   22.7841   39.3745 C   0  0  0  0  0  0  0  0  0  0  0  0
   -0.2102   22.8564   40.6754 O   0  0  0  0  0  0  0  0  0  0  0  0
   -0.5170   23.3221   38.4887 O   0  0  0  0  0  0  0  0  0  0  0  0
    2.0296   21.5387   40.9238 H   0  0  0  0  0  0  0  0  0  0  0  0
    1.0968   22.6092   36.8807 H   0  0  0  0  0  0  0  0  0  0  0  0
    3.2056   21.4966   36.1461 H   0  0  0  0  0  0  0  0  0  0  0  0
    4.6784   20.4268   37.8456 H   0  0  0  0  0  0  0  0  0  0  0  0
  1  2  1  0
  1  6  2  0
  2  3  2  0
  3  4  1  0
  3  7  1  0
  4  5  2  0
  5  6  1  0
  7  8  1  0
  7  9  2  0
  2 10  1  0
  4 11  1  0
  5 12  1  0
  6 13  1  0
M  CHG  1   8  -1
M  END
>  <mol_id>  (84) 
2026-09-16-3war-s0-n100-0084

>  <rmsd_to_ref>  (84) 
4.2653061224507

>  <pose_kind>  (84) 
conformer

$$$$
3war.A
     RDKit          3D

 13 13  0  0  0  0  0  0  0  0999 V2000
   -0.2578   19.7028   36.2613 N   0  0  0  0  0  0  0  0  0  0  0  0
    0.6098   20.5711   36.9667 C   0  0  0  0  0  0  0  0  0  0  0  0
    2.0040   20.5469   36.5990 C   0  0  0  0  0  0  0  0  0  0  0  0
    2.4620   19.6869   35.6169 C   0  0  0  0  0  0  0  0  0  0  0  0
    1.5768   18.8784   34.9379 C   0  0  0  0  0  0  0  0  0  0  0  0
    0.2458   18.8760   35.2901 C   0  0  0  0  0  0  0  0  0  0  0  0
    3.0069   21.3830   37.3800 C   0  0  0  0  0  0  0  0  0  0  0  0
    2.5667   22.2745   38.1636 O   0  0  0  0  0  0  0  0  0  0  0  0
    4.1683   21.1006   37.1783 O   0  0  0  0  0  0  0  0  0  0  0  0
    0.2368   21.2350   37.7605 H   0  0  0  0  0  0  0  0  0  0  0  0
    3.5350   19.6485   35.3775 H   0  0  0  0  0  0  0  0  0  0  0  0
    1.9321   18.2374   34.1177 H   0  0  0  0  0  0  0  0  0  0  0  0
   -0.4382   18.1861   34.7740 H   0  0  0  0  0  0  0  0  0  0  0  0
  1  2  1  0
  1  6  2  0
  2  3  2  0
  3  4  1  0
  3  7  1  0
  4  5  2  0
  5  6  1  0
  7  8  1  0
  7  9  2  0
  2 10  1  0
  4 11  1  0
  5 12  1  0
  6 13  1  0
M  CHG  1   8  -1
M  END
>  <mol_id>  (85) 
2026-09-16-3war-s0-n100-0085

>  <rmsd_to_ref>  (85) 
4.311224489796712

>  <pose_kind>  (85) 
rigid

$$$$
3war.A
     RDKit          3D

 13 13  0  0  0  0  0  0  0  0999 V2000
    1.5476   16.2772   36.2109 N   0  0  0  0  0  0  0  0  0  0  0  0
    1.5203   17.4557   36.8199 C   0  0  0  0  0  0  0  0  0  0  0  0
    2.4297   18.4158   36.4109 C   0  0  0  0  0  0  0  0  0  0  0  0
    3.3217   18.1278   35.4019 C   0  0  0  0  0  0  0  0  0  0  0  0
    3.3072   16.8803   34.7994 C   0  0  0  0  0  0  0  0  0  0  0  0
    2.3916   15.9337   35.2210 C   0  0  0  0  0  0  0  0  0  0  0  0
    2.4551   19.7171   37.0294 C   0  0  0  0  0  0  0  0  0  0  0  0
    1.6197   20.1189   38.0396 O   0  0  0  0  0  0  0  0  0  0  0  0
    3.3117   20.5558   36.6116 O   0  0  0  0  0  0  0  0  0  0  0  0
    0.8073   17.6737   37.6204 H   0  0  0  0  0  0  0  0  0  0  0  0
    4.0384   18.8785   35.0765 H   0  0  0  0  0  0  0  0  0  0  0  0
    3.9847   16.6219   34.0135 H   0  0  0  0  0  0  0  0  0  0  0  0
    2.3226   14.9415   34.7979 H   0  0  0  0  0  0  0  0  0  0  0  0
  1  2  1  0
  1  6  2  0
  2  3  2  0
  3  4  1  0
  3  7  1  0
  4  5  2  0
  5  6  1  0
  7  8  1  0
  7  9  2  0
  2 10  1  0
  4 11  1  0
  5 12  1  0
  6 13  1  0
M  CHG  1   8  -1
M  END
>  <mol_id>  (86) 
2026-09-16-3war-s0-n100-0086

>  <rmsd_to_ref>  (86) 
4.357142857144494

>  <pose_kind>  (86) 
conformer

$$$$
3war.A
     RDKit          3D

 13 13  0  0  0  0  0  0  0  0999 V2000
    2.7366   20.8507   40.2589 N   0  0  0  0  0  0  0  0  0  0  0  0
    1.4452   20.6073   40.7852 C   0  0  0  0  0  0  0  0  0  0  0  0
    0.9312   19.2650   40.6689 C   0  0  0  0  0  0  0  0  0  0  0  0
    1.6692   18.2764   40.0427 C   0  0  0  0  0  0  0  0  0  0  0  0
    2.9330   18.5523   39.5689 C   0  0  0  0  0  0  0  0  0  0  0  0
    3.4302   19.8334   39.6553 C   0  0  0  0  0  0  0  0  0  0  0  0
   -0.4864   18.9555   41.1264 C   0  0  0  0  0  0  0  0  0  0  0  0
   -1.0921   19.8142   41.8324 O   0  0  0  0  0  0  0  0  0  0  0  0
   -0.9181   17.8866   40.7515 O   0  0  0  0  0  0  0  0  0  0  0  0
    0.8595   21.4071   41.2620 H   0  0  0  0  0  0  0  0  0  0  0  0
    1.2460   17.2682   39.9229 H   0  0  0  0  0  0  0  0  0  0  0  0
    3.5426   17.7524   39.1234 H   0  0  0  0  0  0  0  0  0  0  0  0
    4.4194   20.0485   39.2247 H   0  0  0  0  0  0  0  0  0  0  0  0
  1  2  1  0
  1  6  2  0
  2  3  2  0
  3  4  1  0
  3  7  1  0
  4  5  2  0
  5  6  1  0
  7  8  1  0
  7  9  2  0
  2 10  1  0
  4 11  1  0
  5 12  1  0
  6 13  1  0
M  CHG  1   8  -1
M  END
>  <mol_id>  (87) 
2026-09-16-3war-s0-n100-0087

>  <rmsd_to_ref>  (87) 
4.4030612244918625

>  <pose_kind>  (87) 
rigid

$$$$
3war.A
     RDKit          3D

 13 13  0  0  0  0  0  0  0  0999 V2000
    4.3536   17.5280   36.8238 N   0  0  0  0  0  0  0  0  0  0  0  0
    3.2410   17.4280   37.5395 C   0  0  0  0  0  0  0  0  0  0  0  0
    3.3199   17.6877   38.8969 C   0  0  0  0  0  0  0  0  0  0  0  0
    4.5284   18.0362   39.4579 C   0  0  0  0  0  0  0  0  0  0  0  0
    5.6604   18.1261   38.6641 C   0  0  0  0  0  0  0  0  0  0  0  0
    5.5625   17.8632   37.3102 C   0  0  0  0  0  0  0  0  0  0  0  0
    2.1499   17.5975   39.7334 C   0  0  0  0  0  0  0  0  0  0  0  0
    0.8966   17.2610   39.2909 O   0  0  0  0  0  0  0  0  0  0  0  0
    2.2848   17.8472   40.9708 O   0  0  0  0  0  0  0  0  0  0  0  0
    2.2862   17.1503   37.0837 H   0  0  0  0  0  0  0  0  0  0  0  0
    4.5965   18.2413   40.5238 H   0  0  0  0  0  0  0  0  0  0  0  0
    6.6149   18.3939   39.0653 H   0  0  0  0  0  0  0  0  0  0  0  0
    6.4019   17.9136   36.6310 H   0  0  0  0  0  0  0  0  0  0  0  0
  1  2  1  0
  1  6  2  0
  2  3  2  0
  3  4  1  0
  3  7  1  0
  4  5  2  0
  5  6  1  0
  7  8  1  0
  7  9  2  0
  2 10  1  0
  4 11  1  0
  5 12  1  0
  6 13  1  0
M  CHG  1   8  -1
M  END
>  <mol_id>  (88) 
2026-09-16-3war-s0-n100-0088

>  <rmsd_to_ref>  (88) 
4.448979591838045

>  <pose_kind>  (88) 
conformer

$$$$
3war.A
     RDKit          3D

 13 13  0  0  0  0  0  0  0  0999 V2000
    2.6853   21.8884   38.1375 N   0  0  0  0  0  0  0  0  0  0  0  0
    3.3459   21.9364   39.3888 C   0  0  0  0  0  0  0  0  0  0  0  0
    4.3703   20.9502   39.6285 C   0  0  0  0  0  0  0  0  0  0  0  0
    4.6635   19.9889   38.6777 C   0  0  0  0  0  0  0  0  0  0  0  0
    4.0135   19.9969   37.4630 C   0  0  0  0  0  0  0  0  0  0  0  0
    3.0197   20.9199   37.2262 C   0  0  0  0  0  0  0  0  0  0  0  0
    5.0532   20.8835   40.9864 C   0  0  0  0  0  0  0  0  0  0  0  0
    4.8955   21.8509   41.7877 O   0  0  0  0  0  0  0  0  0  0  0  0
    5.6957   19.8743   41.1816 O   0  0  0  0  0  0  0  0  0  0  0  0
    3.0889   22.6927   40.1450 H   0  0  0  0  0  0  0  0  0  0  0  0
    5.4169   19.2166   38.8921 H   0  0  0  0  0  0  0  0  0  0  0  0
    4.2874   19.2687   36.6855 H   0  0  0  0  0  0  0  0  0  0  0  0
    2.4745   20.8791   36.2717 H   0  0  0  0  0  0  0  0  0  0  0  0
  1  2  1  0
  1  6  2  0
  2  3  2  0
  3  4  1  0
  3  7  1  0
  4  5  2  0
  5  6  1  0
  7  8  1  0
  7  9  2  0
  2 10  1  0
  4 11  1  0
  5 12  1  0
  6 13  1  0
M  CHG  1   8  -1
M  END
>  <mol_id>  (89) 
2026-09-16-3war-s0-n100-0089

>  <rmsd_to_ref>  (89) 
4.4948979591838265

>  <pose_kind>  (89) 
rigid

$$$$
3war.A
     RDKit          3D

 13 13  0  0  0  0  0  0  0  0999 V2000
    4.5777   19.9171   37.6226 N   0  0  0  0  0  0  0  0  0  0  0  0
    4.9318   19.4774   38.8232 C   0  0  0  0  0  0  0  0  0  0  0  0
    4.1680   19.8733   39.9078 C   0  0  0  0  0  0  0  0  0  0  0  0
    3.0814   20.6973   39.7152 C   0  0  0  0  0  0  0  0  0  0  0  0
    2.7556   21.1276   38.4392 C   0  0  0  0  0  0  0  0  0  0  0  0
    3.5301   20.7221   37.3679 C   0  0  0  0  0  0  0  0  0  0  0  0
    4.4963   19.4328   41.2400 C   0  0  0  0  0  0  0  0  0  0  0  0
    5.5500   18.6143   41.5551 O   0  0  0  0  0  0  0  0  0  0  0  0
    3.7588   19.8290   42.1943 O   0  0  0  0  0  0  0  0  0  0  0  0
    5.7969   18.8231   38.9648 H   0  0  0  0  0  0  0  0  0  0  0  0
    2.4776   21.0116   40.5636 H   0  0  0  0  0  0  0  0  0  0  0  0
    1.9195   21.7676   38.2524 H   0  0  0  0  0  0  0  0  0  0  0  0
    3.3360   21.0176   36.3465 H   0  0  0  0  0  0  0  0  0  0  0  0
  1  2  1  0
  1  6  2  0
  2  3  2  0
  3  4  1  0
  3  7  1  0
  4  5  2  0
  5  6  1  0
  7  8  1  0
  7  9  2  0
  2 10  1  0
  4 11  1  0
  5 12  1  0
  6 13  1  0
M  CHG  1   8  -1
M  END
>  <mol_id>  (90) 
2026-09-16-3war-s0-n100-0090

>  <rmsd_to_ref>  (90) 
4.5408163265313

>  <pose_kind>  (90) 
conformer

$$$$
3war.A
     RDKit          3D

 13 13  0  0  0  0  0  0  0  0999 V2000
    3.6024   19.6404   36.3417 N   0  0  0  0  0  0  0  0  0  0  0  0
    3.3031   20.0470   37.6644 C   0  0  0  0  0  0  0  0  0  0  0  0
    4.2727   19.7303   38.6836 C   0  0  0  0  0  0  0  0  0  0  0  0
    5.4269   19.0346   38.3707 C   0  0  0  0  0  0  0  0  0  0  0  0
    5.6894   18.6824   37.0649 C   0  0  0  0  0  0  0  0  0  0  0  0
    4.7649   18.9607   36.0834 C   0  0  0  0  0  0  0  0  0  0  0  0
    3.9721   20.0522   40.1399 C   0  0  0  0  0  0  0  0  0  0  0  0
    2.9986   20.8191   40.3983 O   0  0  0  0  0  0  0  0  0  0  0  0
    4.7105   19.5191   40.9398 O   0  0  0  0  0  0  0  0  0  0  0  0
    2.3718   20.5811   37.9040 H   0  0  0  0  0  0  0  0  0  0  0  0
    6.1363   18.7622   39.1660 H   0  0  0  0  0  0  0  0  0  0  0  0
    6.6340   18.1808   36.8076 H   0  0  0  0  0  0  0  0  0  0  0  0
    4.9661   18.6257   35.0551 H   0  0  0  0  0  0  0  0  0  0  0  0
  1  2  1  0
  1  6  2  0
  2  3  2  0
  3  4  1  0
  3  7  1  0
  4  5  2  0
  5  6  1  0
  7  8  1  0
  7  9  2  0
  2 10  1  0
  4 11  1  0
  5 12  1  0
  6 13  1  0
M  CHG  1   8  -1
M  END
>  <mol_id>  (91) 
2026-09-16-3war-s0-n100-0091

>  <rmsd_to_ref>  (91) 
4.5867346938792055

>  <pose_kind>  (91) 
rigid

$$$$
3war.A
     RDKit          3D

 13 13  0  0  0  0  0  0  0  0999 V2000
    2.2644   20.9286   37.3016 N   0  0  0  0  0  0  0  0  0  0  0  0
    1.1039   21.4029   37.7359 C   0  0  0  0  0  0  0  0  0  0  0  0
    0.3037   20.5624   38.4906 C   0  0  0  0  0  0  0  0  0  0  0  0
    0.7255   19.2805   38.7653 C   0  0  0  0  0  0  0  0  0  0  0  0
    1.9471   18.8356   38.2868 C   0  0  0  0  0  0  0  0  0  0  0  0
    2.7332   19.6891   37.5347 C   0  0  0  0  0  0  0  0  0  0  0  0
   -0.9692   21.0131   38.9939 C   0  0  0  0  0  0  0  0  0  0  0  0
   -1.4937   22.2627   38.7865 O   0  0  0  0  0  0  0  0  0  0  0  0
   -1.6583   20.1969   39.6798 O   0  0  0  0  0  0  0  0  0  0  0  0
    0.7787   22.4230   37.5117 H   0  0  0  0  0  0  0  0  0  0  0  0
    0.1009   18.6157   39.3577 H   0  0  0  0  0  0  0  0  0  0  0  0
    2.3065   17.8472   38.4805 H   0  0  0  0  0  0  0  0  0  0  0  0
    3.6958   19.4111   37.1295 H   0  0  0  0  0  0  0  0  0  0  0  0
  1  2  1  0
  1  6  2  0
  2  3  2  0
  3  4  1  0
  3  7  1  0
  4  5  2  0
  5  6  1  0
  7  8  1  0
  7  9  2  0
  2 10  1  0
  4 11  1  0
  5 12  1  0
  6 13  1  0
M  CHG  1   8  -1
M  END
>  <mol_id>  (92) 
2026-09-16-3war-s0-n100-0092

>  <rmsd_to_ref>  (92) 
4.6326530612245085

>  <pose_kind>  (92) 
conformer

$$$$
3war.A
     RDKit          3D

 13 13  0  0  0  0  0  0  0  0999 V2000
    2.4003   20.6683   39.2394 N   0  0  0  0  0  0  0  0  0  0  0  0
    1.8017   20.7603   40.5190 C   0  0  0  0  0  0  0  0  0  0  0  0
    2.3960   19.9843   41.5791 C   0  0  0  0  0  0  0  0  0  0  0  0
    3.4865   19.1691   41.3335 C   0  0  0  0  0  0  0  0  0  0  0  0
    4.0529   19.1314   40.0783 C   0  0  0  0  0  0  0  0  0  0  0  0
    3.4857   19.8517   39.0510 C   0  0  0  0  0  0  0  0  0  0  0  0
    1.7474   19.9613   42.9551 C   0  0  0  0  0  0  0  0  0  0  0  0
    0.8536   20.8198   43.2136 O   0  0  0  0  0  0  0  0  0  0  0  0
    2.1539   19.0896   43.6928 O   0  0  0  0  0  0  0  0  0  0  0  0
    0.9216   21.3959   40.6967 H   0  0  0  0  0  0  0  0  0  0  0  0
    3.9021   18.5497   42.1421 H   0  0  0  0  0  0  0  0  0  0  0  0
    4.9548   18.5282   39.8973 H   0  0  0  0  0  0  0  0  0  0  0  0
    3.9185   19.7690   38.0432 H   0  0  0  0  0  0  0  0  0  0  0  0
  1  2  1  0
  1  6  2  0
  2  3  2  0
  3  4  1  0
  3  7  1  0
  4  5  2  0
  5  6  1  0
  7  8  1  0
  7  9  2  0
  2 10  1  0
  4 11  1  0
  5 12  1  0
  6 13  1  0
M  CHG  1   8  -1
M  END
>  <mol_id>  (93) 
2026-09-16-3war-s0-n100-0093

>  <rmsd_to_ref>  (93) 
4.678571428573114

>  <pose_kind>  (93) 
rigid

$$$$
3war.A
     RDKit          3D

 13 13  0  0  0  0  0  0  0  0999 V2000
    3.2294   17.3681   38.1917 N   0  0  0  0  0  0  0  0  0  0  0  0
    2.8582   17.2830   39.4626 C   0  0  0  0  0  0  0  0  0  0  0  0
    3.6506   17.9069   40.4107 C   0  0  0  0  0  0  0  0  0  0  0  0
    4.7819   18.5866   40.0171 C   0  0  0  0  0  0  0  0  0  0  0  0
    5.1238   18.6444   38.6758 C   0  0  0  0  0  0  0  0  0  0  0  0
    4.3204   18.0151   37.7428 C   0  0  0  0  0  0  0  0  0  0  0  0
    3.3059   17.8542   41.8089 C   0  0  0  0  0  0  0  0  0  0  0  0
    2.2084   17.2105   42.3197 O   0  0  0  0  0  0  0  0  0  0  0  0
    4.0713   18.4455   42.6312 O   0  0  0  0  0  0  0  0  0  0  0  0
    1.9575   16.7404   39.7642 H   0  0  0  0  0  0  0  0  0  0  0  0
    5.4083   19.0787   40.7577 H   0  0  0  0  0  0  0  0  0  0  0  0
    5.9946   19.1627   38.3340 H   0  0  0  0  0  0  0  0  0  0  0  0
    4.5247   18.0183   36.6814 H   0  0  0  0  0  0  0  0  0  0  0  0
  1  2  1  0
  1  6  2  0
  2  3  2  0
  3  4  1  0
  3  7  1  0
  4  5  2  0
  5  6  1  0
  7  8  1  0
  7  9  2  0
  2 10  1  0
  4 11  1  0
  5 12  1  0
  6 13  1  0
M  CHG  1   8  -1
M  END
>  <mol_id>  (94) 
2026-09-16-3war-s0-n100-0094

>  <rmsd_to_ref>  (94) 
4.724489795918522

>  <pose_kind>  (94) 
conformer

$$$$
3war.A
     RDKit          3D

 13 13  0  0  0  0  0  0  0  0999 V2000
    4.6494   20.0944   38.0779 N   0  0  0  0  0  0  0  0  0  0  0  0
    3.9105   20.0975   39.2854 C   0  0  0  0  0  0  0  0  0  0  0  0
    4.3396   19.1891   40.3199 C   0  0  0  0  0  0  0  0  0  0  0  0
    5.4113   18.3386   40.1150 C   0  0  0  0  0  0  0  0  0  0  0  0
    6.1180   18.3891   38.9334 C   0  0  0  0  0  0  0  0  0  0  0  0
    5.7093   19.2372   37.9288 C   0  0  0  0  0  0  0  0  0  0  0  0
    3.5342   19.0716   41.6053 C   0  0  0  0  0  0  0  0  0  0  0  0
    2.6581   19.9523   41.8494 O   0  0  0  0  0  0  0  0  0  0  0  0
    3.8101   18.1104   42.2902 O   0  0  0  0  0  0  0  0  0  0  0  0
    3.0469   20.7637   39.4283 H   0  0  0  0  0  0  0  0  0  0  0  0
    5.6998   17.6207   40.8970 H   0  0  0  0  0  0  0  0  0  0  0  0
    7.0052   17.7541   38.7932 H   0  0  0  0  0  0  0  0  0  0  0  0
    6.2525   19.2270   36.9723 H   0  0  0  0  0  0  0  0  0  0  0  0
  1  2  1  0
  1  6  2  0
  2  3  2  0
  3  4  1  0
  3  7  1  0
  4  5  2  0
  5  6  1  0
  7  8  1  0
  7  9  2  0
  2 10  1  0
  4 11  1  0
  5 12  1  0
  6 13  1  0
M  CHG  1   8  -1
M  END
>  <mol_id>  (95) 
2026-09-16-3war-s0-n100-0095

>  <rmsd_to_ref>  (95) 
4.770408163266444

>  <pose_kind>  (95) 
rigid

$$$$
