
     RDKit          3D

 27 29  0  0  0  0  0  0  0  0999 V2000
    3.1959   20.5963   38.2872 C   0  0  0  0  0  0  0  0  0  0  0  0
    1.4409   17.6530   41.4218 N   0  0  0  0  0  0  0  0  0  0  0  0
    2.0341   21.9258   40.2412 C   0  0  0  0  0  0  0  0  0  0  0  0
    2.4177   18.0311   39.5443 C   0  0  0  0  0  0  0  0  0  0  0  0
    1.9472   17.0768   40.3087 N   0  0  0  0  0  0  0  0  0  0  0  0
    3.5086   19.3355   37.6197 C   0  0  0  0  0  0  0  0  0  0  0  0
    0.9296   19.9914   42.5301 C   0  0  0  0  0  0  0  0  0  0  0  0
    0.7842   16.7907   42.5602 C   0  0  0  0  0  0  0  0  0  0  0  0
    0.2827   19.4344   43.4524 O   0  0  0  0  0  0  0  0  0  0  0  0
    1.0470   21.4845   42.5877 C   0  0  0  0  0  0  0  0  0  0  0  0
    2.5570   20.5997   39.5480 C   0  0  0  0  0  0  0  0  0  0  0  0
    2.1482   19.3465   40.1683 C   0  0  0  0  0  0  0  0  0  0  0  0
    3.0926   18.0901   38.2251 C   0  0  0  0  0  0  0  0  0  0  0  0
    1.4861   19.0548   41.4101 C   0  0  0  0  0  0  0  0  0  0  0  0
    2.2397   22.0283   41.7122 C   0  0  0  0  0  0  0  0  0  0  0  0
    3.4593   21.5495   37.8056 H   0  0  0  0  0  0  0  0  0  0  0  0
    0.9537   22.0010   40.0481 H   0  0  0  0  0  0  0  0  0  0  0  0
    2.6321   22.7394   39.8048 H   0  0  0  0  0  0  0  0  0  0  0  0
    4.0557   19.3334   36.6654 H   0  0  0  0  0  0  0  0  0  0  0  0
    1.2201   17.0712   43.5304 H   0  0  0  0  0  0  0  0  0  0  0  0
   -0.3004   16.9732   42.5789 H   0  0  0  0  0  0  0  0  0  0  0  0
    0.9734   15.7243   42.3677 H   0  0  0  0  0  0  0  0  0  0  0  0
    0.1092   21.9269   42.2208 H   0  0  0  0  0  0  0  0  0  0  0  0
    1.2435   21.7651   43.6331 H   0  0  0  0  0  0  0  0  0  0  0  0
    3.2840   17.1503   37.6865 H   0  0  0  0  0  0  0  0  0  0  0  0
    3.1428   21.4564   41.9718 H   0  0  0  0  0  0  0  0  0  0  0  0
    2.3244   23.1015   41.9382 H   0  0  0  0  0  0  0  0  0  0  0  0
  1 11  2  0
  2  8  1  0
  3 15  1  0
  4 12  1  0
  4  5  2  0
  5  2  1  0
  6  1  1  0
  6 13  2  0
  7  9  2  0
 10  7  1  0
 11  3  1  0
 11 12  1  0
 12 14  2  0
 13  4  1  0
 14  2  1  0
 14  7  1  0
 15 10  1  0
  1 16  1  0
  3 17  1  0
  3 18  1  0
  6 19  1  0
  8 20  1  0
  8 21  1  0
  8 22  1  0
 10 23  1  0
 10 24  1  0
 13 25  1  0
 15 26  1  0
 15 27  1  0
M  END
>  <mol_id>  (1) 
2026-08-24-6tgu-s0-n100-seed1-0001

>  <rmsd_to_ref>  (1) 


$$$$

     RDKit          3D

 26 27  0  0  0  0  0  0  0  0999 V2000
    2.0222   20.6892   37.9528 C   0  0  0  0  0  0  0  0  0  0  0  0
    0.8819   20.8805   41.4534 C   0  0  0  0  0  0  0  0  0  0  0  0
    0.9341   19.4547   41.1992 C   0  0  0  0  0  0  0  0  0  0  0  0
    1.6091   19.3185   39.9728 C   0  0  0  0  0  0  0  0  0  0  0  0
    0.3675   18.8393   42.4063 C   0  0  0  0  0  0  0  0  0  0  0  0
    2.3172   20.6255   36.8550 N   0  0  0  0  0  0  0  0  0  0  0  0
    1.6050   20.5616   39.3228 C   0  0  0  0  0  0  0  0  0  0  0  0
    1.9826   18.3401   39.2098 O   0  0  0  0  0  0  0  0  0  0  0  0
    1.2304   16.6159   42.3289 C   0  0  0  0  0  0  0  0  0  0  0  0
   -0.0028   16.0372   40.3348 O   0  0  0  0  0  0  0  0  0  0  0  0
    0.3347   21.0247   42.7438 C   0  0  0  0  0  0  0  0  0  0  0  0
    0.0790   17.5080   42.6643 C   0  0  0  0  0  0  0  0  0  0  0  0
    1.2547   21.4686   40.2452 N   0  0  0  0  0  0  0  0  0  0  0  0
    0.1278   19.8158   43.2537 N   0  0  0  0  0  0  0  0  0  0  0  0
    1.2714   16.1626   40.8809 C   0  0  0  0  0  0  0  0  0  0  0  0
    2.4626   18.5271   38.3644 H   0  0  0  0  0  0  0  0  0  0  0  0
    2.1617   17.1598   42.5455 H   0  0  0  0  0  0  0  0  0  0  0  0
    1.1123   15.7081   42.9388 H   0  0  0  0  0  0  0  0  0  0  0  0
   -0.6501   15.8236   41.0529 H   0  0  0  0  0  0  0  0  0  0  0  0
    1.0352   21.5817   43.3833 H   0  0  0  0  0  0  0  0  0  0  0  0
   -0.6148   21.5774   42.6897 H   0  0  0  0  0  0  0  0  0  0  0  0
   -0.1593   17.3957   43.7323 H   0  0  0  0  0  0  0  0  0  0  0  0
   -0.7751   17.2150   42.0360 H   0  0  0  0  0  0  0  0  0  0  0  0
    1.2602   22.4853   40.0803 H   0  0  0  0  0  0  0  0  0  0  0  0
    1.7771   15.1870   40.8288 H   0  0  0  0  0  0  0  0  0  0  0  0
    1.8139   16.9249   40.3027 H   0  0  0  0  0  0  0  0  0  0  0  0
  1  7  1  0
  2 11  1  0
  3  2  2  0
  3  5  1  0
  4  3  1  0
  5 12  1  0
  5 14  2  0
  6  1  3  0
  7 13  1  0
  7  4  2  0
  8  4  1  0
  9 12  1  0
 10 15  1  0
 11 14  1  0
 13  2  1  0
 15  9  1  0
  8 16  1  0
  9 17  1  0
  9 18  1  0
 10 19  1  0
 11 20  1  0
 11 21  1  0
 12 22  1  0
 12 23  1  0
 13 24  1  0
 15 25  1  0
 15 26  1  0
M  END
>  <mol_id>  (2) 
2026-08-24-6tgu-s0-n100-seed1-0003

>  <rmsd_to_ref>  (2) 


$$$$

     RDKit          3D

 32 33  0  0  0  0  0  0  0  0999 V2000
    2.9553   18.2147   38.7025 C   0  0  0  0  0  0  0  0  0  0  0  0
    2.5605   21.0933   38.7427 C   0  0  0  0  0  0  0  0  0  0  0  0
    1.8554   17.7558   41.0834 C   0  0  0  0  0  0  0  0  0  0  0  0
    3.0954   20.9882   36.4713 O   0  0  0  0  0  0  0  0  0  0  0  0
    2.3213   18.8580   39.8759 C   0  0  0  0  0  0  0  0  0  0  0  0
    1.3307   18.3441   42.1542 C   0  0  0  0  0  0  0  0  0  0  0  0
    1.5657   15.5532   42.1666 C   0  0  0  0  0  0  0  0  0  0  0  0
    1.9476   16.3656   41.0877 C   0  0  0  0  0  0  0  0  0  0  0  0
    2.1356   20.2258   39.8005 C   0  0  0  0  0  0  0  0  0  0  0  0
    1.0952   16.2068   43.3600 C   0  0  0  0  0  0  0  0  0  0  0  0
    1.0287   21.4952   41.4591 C   0  0  0  0  0  0  0  0  0  0  0  0
    1.7383   20.5925   40.8903 O   0  0  0  0  0  0  0  0  0  0  0  0
    0.8066   20.8161   43.5399 O   0  0  0  0  0  0  0  0  0  0  0  0
    0.9519   21.5853   42.5357 C   0  0  0  0  0  0  0  0  0  0  0  0
    3.1095   18.9854   37.5114 N   0  0  0  0  0  0  0  0  0  0  0  0
    2.9682   20.3470   37.5543 C   0  0  0  0  0  0  0  0  0  0  0  0
    0.9851   17.5661   43.3461 C   0  0  0  0  0  0  0  0  0  0  0  0
    2.9879   16.9261   38.6590 O   0  0  0  0  0  0  0  0  0  0  0  0
    0.7800   15.3514   44.5419 C   0  0  0  0  0  0  0  0  0  0  0  0
    1.7283   21.7609   38.4747 H   0  0  0  0  0  0  0  0  0  0  0  0
    3.4295   21.6652   39.1000 H   0  0  0  0  0  0  0  0  0  0  0  0
    1.1538   19.4298   42.1448 H   0  0  0  0  0  0  0  0  0  0  0  0
    1.6236   14.4566   42.1027 H   0  0  0  0  0  0  0  0  0  0  0  0
    2.3451   15.8733   40.1880 H   0  0  0  0  0  0  0  0  0  0  0  0
    0.0019   21.3528   41.0909 H   0  0  0  0  0  0  0  0  0  0  0  0
    1.5784   22.4110   41.1963 H   0  0  0  0  0  0  0  0  0  0  0  0
    1.0178   22.6374   42.8500 H   0  0  0  0  0  0  0  0  0  0  0  0
    3.3271   18.5178   36.6197 H   0  0  0  0  0  0  0  0  0  0  0  0
    0.6299   18.0880   44.2469 H   0  0  0  0  0  0  0  0  0  0  0  0
    1.2088   15.8050   45.4477 H   0  0  0  0  0  0  0  0  0  0  0  0
   -0.3111   15.2692   44.6544 H   0  0  0  0  0  0  0  0  0  0  0  0
    1.2100   14.3497   44.3947 H   0  0  0  0  0  0  0  0  0  0  0  0
  1  5  1  0
  2  9  1  0
  3  8  2  0
  3  6  1  0
  4 16  2  0
  5  3  1  0
  6 17  2  0
  7 10  2  0
  8  7  1  0
  9  5  2  0
  9 12  1  0
 10 19  1  0
 11 14  1  0
 12 11  1  0
 14 13  2  0
 15 16  1  0
 15  1  1  0
 16  2  1  0
 17 10  1  0
 18  1  2  0
  2 20  1  0
  2 21  1  0
  6 22  1  0
  7 23  1  0
  8 24  1  0
 11 25  1  0
 11 26  1  0
 14 27  1  0
 15 28  1  0
 17 29  1  0
 19 30  1  0
 19 31  1  0
 19 32  1  0
M  END
>  <mol_id>  (3) 
2026-08-24-6tgu-s0-n100-seed1-0004

>  <rmsd_to_ref>  (3) 


$$$$

     RDKit          3D

 47 48  0  0  0  0  0  0  0  0999 V2000
    2.0010   20.0140   39.2940 C   0  0  0  0  0  0  0  0  0  0  0  0
    0.0650   18.5100   43.4210 C   0  0  0  0  0  0  0  0  0  0  0  0
    1.3930   20.3490   40.5570 O   0  0  0  0  0  0  0  0  0  0  0  0
    3.9230   21.7360   35.1140 C   0  0  0  0  0  0  0  0  0  0  0  0
    1.1780   15.2290   40.8300 O   0  0  0  0  0  0  0  0  0  0  0  0
    0.5280   20.2370   41.7410 C   0  0  0  0  0  0  0  0  0  0  0  0
    0.8010   14.7570   43.0740 N   0  0  0  0  0  0  0  0  0  0  0  0
    3.2500   20.1880   36.7400 C   0  0  0  0  0  0  0  0  0  0  0  0
   -0.8400   19.4030   44.0170 C   0  0  0  0  0  0  0  0  0  0  0  0
    0.1620   12.3610   44.7670 C   0  0  0  0  0  0  0  0  0  0  0  0
    3.4560   19.0150   37.3570 C   0  0  0  0  0  0  0  0  0  0  0  0
    0.9020   13.3810   42.7400 C   0  0  0  0  0  0  0  0  0  0  0  0
    1.1710   15.6010   41.9990 C   0  0  0  0  0  0  0  0  0  0  0  0
   -0.3860   14.9390   43.9190 C   0  0  0  0  0  0  0  0  0  0  0  0
    1.5970   16.7570   42.3040 N   0  0  0  0  0  0  0  0  0  0  0  0
    2.5600   21.2830   37.2810 C   0  0  0  0  0  0  0  0  0  0  0  0
   -0.1690   12.4940   43.3050 C   0  0  0  0  0  0  0  0  0  0  0  0
    1.8800   21.1460   38.4890 C   0  0  0  0  0  0  0  0  0  0  0  0
   -1.0310   20.7180   43.4850 N   0  0  0  0  0  0  0  0  0  0  0  0
    0.7140   18.9060   42.2040 C   0  0  0  0  0  0  0  0  0  0  0  0
    1.4950   17.9740   41.6010 N   0  0  0  0  0  0  0  0  0  0  0  0
    4.1570   18.0350   36.7240 O   0  0  0  0  0  0  0  0  0  0  0  0
    2.7730   18.7320   38.5980 C   0  0  0  0  0  0  0  0  0  0  0  0
    3.8310   20.4170   35.5220 O   0  0  0  0  0  0  0  0  0  0  0  0
   -0.3240   21.1210   42.4900 C   0  0  0  0  0  0  0  0  0  0  0  0
    0.2716   17.5301   43.8762 H   0  0  0  0  0  0  0  0  0  0  0  0
    3.9687   22.3906   35.9969 H   0  0  0  0  0  0  0  0  0  0  0  0
    4.8327   21.8705   34.5104 H   0  0  0  0  0  0  0  0  0  0  0  0
    3.0408   21.9955   34.5104 H   0  0  0  0  0  0  0  0  0  0  0  0
   -1.4093   19.0880   44.9039 H   0  0  0  0  0  0  0  0  0  0  0  0
   -0.6922   12.7042   45.3690 H   0  0  0  0  0  0  0  0  0  0  0  0
    0.3752   11.3074   45.0003 H   0  0  0  0  0  0  0  0  0  0  0  0
    1.0450   12.9742   45.0003 H   0  0  0  0  0  0  0  0  0  0  0  0
    0.8679   13.2959   41.6438 H   0  0  0  0  0  0  0  0  0  0  0  0
    1.8457   13.0328   43.1852 H   0  0  0  0  0  0  0  0  0  0  0  0
   -0.0925   14.8940   44.9782 H   0  0  0  0  0  0  0  0  0  0  0  0
   -0.8412   15.9174   43.7059 H   0  0  0  0  0  0  0  0  0  0  0  0
   -1.1135   14.1419   43.7059 H   0  0  0  0  0  0  0  0  0  0  0  0
    2.0940   16.8145   43.2043 H   0  0  0  0  0  0  0  0  0  0  0  0
    2.5559   22.2477   36.7525 H   0  0  0  0  0  0  0  0  0  0  0  0
   -1.1598   12.9534   43.1737 H   0  0  0  0  0  0  0  0  0  0  0  0
   -0.2037   11.5174   42.8001 H   0  0  0  0  0  0  0  0  0  0  0  0
    1.2220   21.9627   38.8207 H   0  0  0  0  0  0  0  0  0  0  0  0
    1.9732   18.1422   40.7044 H   0  0  0  0  0  0  0  0  0  0  0  0
    4.3120   17.1673   37.1747 H   0  0  0  0  0  0  0  0  0  0  0  0
    2.7678   17.7288   39.0491 H   0  0  0  0  0  0  0  0  0  0  0  0
   -0.3724   22.1812   42.2007 H   0  0  0  0  0  0  0  0  0  0  0  0
  1  3  1  0
  2  9  1  0
  3  6  1  0
  4 24  1  0
  5 13  2  0
  6 20  1  0
  6 25  2  0
  7 14  1  0
  8 16  1  0
  8 11  2  0
 11 23  1  0
 12  7  1  0
 12 17  1  0
 13 15  1  0
 13  7  1  0
 16 18  2  0
 17 10  1  0
 18  1  1  0
 19  9  2  0
 20  2  2  0
 21 20  1  0
 21 15  1  0
 22 11  1  0
 23  1  2  0
 24  8  1  0
 25 19  1  0
  2 26  1  0
  4 27  1  0
  4 28  1  0
  4 29  1  0
  9 30  1  0
 10 31  1  0
 10 32  1  0
 10 33  1  0
 12 34  1  0
 12 35  1  0
 14 36  1  0
 14 37  1  0
 14 38  1  0
 15 39  1  0
 16 40  1  0
 17 41  1  0
 17 42  1  0
 18 43  1  0
 21 44  1  0
 22 45  1  0
 23 46  1  0
 25 47  1  0
M  END
>  <mol_id>  (4) 
2026-08-24-6tgu-s0-n100-seed1-0005

>  <rmsd_to_ref>  (4) 


$$$$

     RDKit          3D

 27 28  0  0  0  0  0  0  0  0999 V2000
    2.7941   17.1592   38.2344 C   0  0  0  0  0  0  0  0  0  0  0  0
    2.0856   16.8456   40.3913 O   0  0  0  0  0  0  0  0  0  0  0  0
    0.6819   17.2948   42.6564 C   0  0  0  0  0  0  0  0  0  0  0  0
    0.0284   19.3941   44.8325 N   0  0  0  0  0  0  0  0  0  0  0  0
   -0.1486   20.1281   43.8711 C   0  0  0  0  0  0  0  0  0  0  0  0
    1.3495   19.4296   40.9079 C   0  0  2  0  0  0  0  0  0  0  0  0
    2.1402   18.9927   39.5567 C   0  0  0  0  0  0  0  0  0  0  0  0
    2.4491   19.8419   38.4947 C   0  0  1  0  0  0  0  0  0  0  0  0
    3.1525   15.5859   38.0063 Cl  0  0  0  0  0  0  0  0  0  0  0  0
    3.1871   18.0472   37.0786 C   0  0  0  0  0  0  0  0  0  0  0  0
    0.7942   18.7090   42.1222 C   0  0  0  0  0  0  0  0  0  0  0  0
    2.3915   17.8331   39.3770 C   0  0  0  0  0  0  0  0  0  0  0  0
    2.9369   19.3670   37.2261 C   0  0  0  0  0  0  0  0  0  0  0  0
    0.4731   19.7570   42.7283 C   0  0  0  0  0  0  0  0  0  0  0  0
    3.1982   20.1604   36.3072 O   0  0  0  0  0  0  0  0  0  0  0  0
   -0.8128   21.1442   43.9389 O   0  0  0  0  0  0  0  0  0  0  0  0
    2.3759   21.5468   38.6670 Cl  0  0  0  0  0  0  0  0  0  0  0  0
    1.0090   20.9555   41.4632 S   0  0  0  0  0  0  0  0  0  0  0  0
    1.7779   17.1347   41.2868 H   0  0  0  0  0  0  0  0  0  0  0  0
    0.7890   17.3068   43.7511 H   0  0  0  0  0  0  0  0  0  0  0  0
   -0.3005   16.8786   42.3886 H   0  0  0  0  0  0  0  0  0  0  0  0
    1.4757   16.6728   42.2171 H   0  0  0  0  0  0  0  0  0  0  0  0
    0.5985   18.5421   44.7319 H   0  0  0  0  0  0  0  0  0  0  0  0
   -0.3925   19.6275   45.7430 H   0  0  0  0  0  0  0  0  0  0  0  0
    2.3005   19.4406   41.4608 H   0  0  0  0  0  0  0  0  0  0  0  0
    3.5024   19.8551   38.8117 H   0  0  0  0  0  0  0  0  0  0  0  0
    3.6513   17.6425   36.1671 H   0  0  0  0  0  0  0  0  0  0  0  0
  1 12  1  0
  5 16  2  0
  5  4  1  0
  6  7  1  0
  6 18  1  0
  6 11  1  0
  8 17  1  0
  8  7  1  0
  9  1  1  0
 10 13  1  0
 10  1  2  0
 11  3  1  0
 11 14  2  0
 12  7  2  0
 12  2  1  0
 13  8  1  0
 14  5  1  0
 15 13  2  0
 18 14  1  0
  2 19  1  0
  3 20  1  0
  3 21  1  0
  3 22  1  0
  4 23  1  0
  4 24  1  0
  6 25  1  6
  8 26  1  6
 10 27  1  0
M  END
>  <mol_id>  (5) 
2026-08-24-6tgu-s0-n100-seed1-0006

>  <rmsd_to_ref>  (5) 


$$$$

     RDKit          3D

 47 50  0  0  0  0  0  0  0  0999 V2000
    1.7130   18.8690   40.3640 C   0  0  1  0  0  0  0  0  0  0  0  0
    1.0980   18.6510   41.5540 C   0  0  0  0  0  0  0  0  0  0  0  0
    2.4580   21.7270   36.5360 C   0  0  0  0  0  0  0  0  0  0  0  0
    1.6960   20.4350   40.5880 N   0  0  0  0  0  0  0  0  0  0  0  0
   -0.6360   16.1020   45.5250 C   0  0  0  0  0  0  0  0  0  0  0  0
   -0.6590   17.7800   46.0520 C   0  0  0  0  0  0  0  0  0  0  0  0
    2.3420   20.2570   38.4480 C   0  0  0  0  0  0  0  0  0  0  0  0
    3.4600   19.3670   36.6080 C   0  0  0  0  0  0  0  0  0  0  0  0
    0.4880   19.7610   42.0430 C   0  0  0  0  0  0  0  0  0  0  0  0
    3.0590   16.6670   39.1280 C   0  0  0  0  0  0  0  0  0  0  0  0
    3.8570   19.6550   35.4410 O   0  0  0  0  0  0  0  0  0  0  0  0
    0.0070   17.4450   43.4110 C   0  0  0  0  0  0  0  0  0  0  0  0
   -0.9780   15.5990   46.5210 O   0  0  0  0  0  0  0  0  0  0  0  0
    2.4550   19.0360   39.2390 C   0  0  2  0  0  0  0  0  0  0  0  0
   -0.3870   18.7880   43.9380 C   0  0  0  0  0  0  0  0  0  0  0  0
   -0.7190   18.7090   45.3570 C   0  0  0  0  0  0  0  0  0  0  0  0
    2.7340   20.4910   37.2690 C   0  0  0  0  0  0  0  0  0  0  0  0
    3.9520   15.5970   38.4330 O   0  0  0  0  0  0  0  0  0  0  0  0
    0.6680   17.4520   42.2660 N   0  0  0  0  0  0  0  0  0  0  0  0
    3.0120   17.9630   38.5080 C   0  0  1  0  0  0  0  0  0  0  0  0
    3.7430   18.1070   37.2000 C   0  0  0  0  0  0  0  0  0  0  0  0
   -0.3750   19.8520   43.0920 C   0  0  0  0  0  0  0  0  0  0  0  0
    2.3390   16.3050   40.1310 O   0  0  0  0  0  0  0  0  0  0  0  0
    3.2250   15.7820   36.8470 C   0  0  0  0  0  0  0  0  0  0  0  0
    0.9090   22.0260   41.7400 O   0  0  0  0  0  0  0  0  0  0  0  0
   -0.2480   16.2100   44.1060 C   0  0  0  0  0  0  0  0  0  0  0  0
    0.9130   20.9910   41.3550 C   0  0  0  0  0  0  0  0  0  0  0  0
    1.6199   17.7941   40.1495 H   0  0  0  0  0  0  0  0  0  0  0  0
    2.2756   22.5437   37.2499 H   0  0  0  0  0  0  0  0  0  0  0  0
    3.3220   21.9789   35.9035 H   0  0  0  0  0  0  0  0  0  0  0  0
    1.5689   21.5875   35.9035 H   0  0  0  0  0  0  0  0  0  0  0  0
    2.3708   21.0141   40.0682 H   0  0  0  0  0  0  0  0  0  0  0  0
   -1.5289   17.8617   46.7203 H   0  0  0  0  0  0  0  0  0  0  0  0
    0.3750   17.8798   46.4139 H   0  0  0  0  0  0  0  0  0  0  0  0
    1.8422   21.0976   38.9516 H   0  0  0  0  0  0  0  0  0  0  0  0
    3.2228   19.1889   40.0117 H   0  0  0  0  0  0  0  0  0  0  0  0
   -0.0734   19.4591   45.8371 H   0  0  0  0  0  0  0  0  0  0  0  0
   -1.8132   18.7893   45.2782 H   0  0  0  0  0  0  0  0  0  0  0  0
    2.1297   18.2934   37.9403 H   0  0  0  0  0  0  0  0  0  0  0  0
    3.4238   17.3062   36.5168 H   0  0  0  0  0  0  0  0  0  0  0  0
    4.8247   18.0368   37.3873 H   0  0  0  0  0  0  0  0  0  0  0  0
   -1.0206   20.7294   43.2450 H   0  0  0  0  0  0  0  0  0  0  0  0
    2.1645   16.0519   36.9590 H   0  0  0  0  0  0  0  0  0  0  0  0
    3.7488   16.5755   36.2938 H   0  0  0  0  0  0  0  0  0  0  0  0
    3.3058   14.8347   36.2938 H   0  0  0  0  0  0  0  0  0  0  0  0
   -1.0549   15.7180   43.5431 H   0  0  0  0  0  0  0  0  0  0  0  0
    0.7686   15.7917   44.1462 H   0  0  0  0  0  0  0  0  0  0  0  0
  1  4  1  0
  1  2  1  0
  2  9  2  0
  2 19  1  0
  3 17  1  0
  4 27  1  0
  5  6  1  0
  5 13  2  0
  8 21  1  0
  8 17  1  0
  9 22  1  0
 10 23  2  0
 11  8  2  0
 12 15  1  0
 12 26  1  0
 14  7  1  0
 14  1  1  0
 15 16  1  0
 16  6  1  0
 17  7  2  0
 18 10  1  0
 19 12  2  0
 20 10  1  0
 20 14  1  0
 21 20  1  0
 22 15  2  0
 24 18  1  0
 26  5  1  0
 27 25  2  0
 27  9  1  0
  1 28  1  6
  3 29  1  0
  3 30  1  0
  3 31  1  0
  4 32  1  0
  6 33  1  0
  6 34  1  0
  7 35  1  0
 14 36  1  1
 16 37  1  0
 16 38  1  0
 20 39  1  6
 21 40  1  0
 21 41  1  0
 22 42  1  0
 24 43  1  0
 24 44  1  0
 24 45  1  0
 26 46  1  0
 26 47  1  0
M  END
>  <mol_id>  (6) 
2026-08-24-6tgu-s0-n100-seed1-0007

>  <rmsd_to_ref>  (6) 


$$$$

     RDKit          3D

 64 67  0  0  0  0  0  0  0  0999 V2000
    1.6022   21.3111   42.3986 C   0  0  0  0  0  0  0  0  0  0  0  0
    2.6854   13.1100   34.6918 C   0  0  0  0  0  0  0  0  0  0  0  0
   -1.0944   15.4095   47.4612 C   0  0  0  0  0  0  0  0  0  0  0  0
    2.4665   19.4511   38.1938 C   0  0  0  0  0  0  0  0  0  0  0  0
   -0.8186   16.0507   49.7884 C   0  0  0  0  0  0  0  0  0  0  0  0
    2.4621   20.5931   37.4832 N   0  0  0  0  0  0  0  0  0  0  0  0
    2.5641   17.3861   36.5575 N   0  0  0  0  0  0  0  0  0  0  0  0
    2.3300   18.0616   39.9217 C   0  0  0  0  0  0  0  0  0  0  0  0
    2.2974   16.0137   38.3810 C   0  0  0  0  0  0  0  0  0  0  0  0
    1.6533   20.3755   41.5309 N   0  0  0  0  0  0  0  0  0  0  0  0
    2.3503   17.2577   38.7974 C   0  0  0  0  0  0  0  0  0  0  0  0
    3.1463   20.4279   36.3888 O   0  0  0  0  0  0  0  0  0  0  0  0
   -0.4431   17.3804   43.8358 C   0  0  0  0  0  0  0  0  0  0  0  0
    2.7299   12.6823   37.2039 C   0  0  0  0  0  0  0  0  0  0  0  0
    0.0122   19.3218   45.1876 O   0  0  0  0  0  0  0  0  0  0  0  0
   -0.7991   16.0109   43.7672 C   0  0  0  0  0  0  0  0  0  0  0  0
   -0.9473   15.3390   45.0105 C   0  0  0  0  0  0  0  0  0  0  0  0
   -0.2157   18.0302   45.0506 C   0  0  0  0  0  0  0  0  0  0  0  0
    1.0074   19.3448   41.8574 N   0  0  0  0  0  0  0  0  0  0  0  0
    2.5252   13.6342   36.1015 C   0  0  0  0  0  0  0  0  0  0  0  0
    2.2890   14.8906   36.2354 N   0  0  0  0  0  0  0  0  0  0  0  0
   -1.7385   14.2631   47.8536 C   0  0  0  0  0  0  0  0  0  0  0  0
    2.4584   20.4363   40.5030 C   0  0  0  0  0  0  0  0  0  0  0  0
   -2.1257   14.1115   49.1755 C   0  0  0  0  0  0  0  0  0  0  0  0
    0.6077   20.9360   43.3080 C   0  0  0  0  0  0  0  0  0  0  0  0
   -0.4451   17.3015   46.2592 C   0  0  0  0  0  0  0  0  0  0  0  0
    2.3824   19.3610   39.5909 C   0  0  1  0  0  0  0  0  0  0  0  0
   -0.5563   16.3424   48.5034 C   0  0  0  0  0  0  0  0  0  0  0  0
   -1.8238   14.7148   51.4413 F   0  0  0  0  0  0  0  0  0  0  0  0
    0.3249   19.5838   42.9748 N   0  0  0  0  0  0  0  0  0  0  0  0
    2.3559   16.0819   36.9945 C   0  0  0  0  0  0  0  0  0  0  0  0
   -0.7909   16.0106   46.1897 C   0  0  0  0  0  0  0  0  0  0  0  0
   -1.6111   14.9557   50.1290 C   0  0  0  0  0  0  0  0  0  0  0  0
    0.2261   21.5445   44.2366 O   0  0  0  0  0  0  0  0  0  0  0  0
    2.4919   18.0866   37.7232 C   0  0  0  0  0  0  0  0  0  0  0  0
    1.3408   22.2653   41.9177 H   0  0  0  0  0  0  0  0  0  0  0  0
    2.5724   21.4536   42.8969 H   0  0  0  0  0  0  0  0  0  0  0  0
    3.1783   12.1271   34.7200 H   0  0  0  0  0  0  0  0  0  0  0  0
    1.6953   13.0104   34.2229 H   0  0  0  0  0  0  0  0  0  0  0  0
    3.2989   13.8113   34.1073 H   0  0  0  0  0  0  0  0  0  0  0  0
   -0.4017   16.6858   50.5839 H   0  0  0  0  0  0  0  0  0  0  0  0
    1.9897   21.4647   37.7626 H   0  0  0  0  0  0  0  0  0  0  0  0
    2.2776   17.6849   40.9539 H   0  0  0  0  0  0  0  0  0  0  0  0
    3.1501   15.4404   38.7738 H   0  0  0  0  0  0  0  0  0  0  0  0
    1.3838   15.5072   38.7258 H   0  0  0  0  0  0  0  0  0  0  0  0
    4.0335   20.0475   36.6085 H   0  0  0  0  0  0  0  0  0  0  0  0
   -0.3425   17.9510   42.9007 H   0  0  0  0  0  0  0  0  0  0  0  0
    2.8427   13.2342   38.1487 H   0  0  0  0  0  0  0  0  0  0  0  0
    1.8623   12.0097   37.2734 H   0  0  0  0  0  0  0  0  0  0  0  0
    3.6379   12.0911   37.0139 H   0  0  0  0  0  0  0  0  0  0  0  0
    0.1644   19.7050   46.0877 H   0  0  0  0  0  0  0  0  0  0  0  0
   -0.9519   15.4972   42.8067 H   0  0  0  0  0  0  0  0  0  0  0  0
   -1.1905   14.2663   45.0236 H   0  0  0  0  0  0  0  0  0  0  0  0
    0.3529   19.0962   41.1019 H   0  0  0  0  0  0  0  0  0  0  0  0
    1.4563   13.3751   36.0764 H   0  0  0  0  0  0  0  0  0  0  0  0
    1.8213   15.1641   35.3593 H   0  0  0  0  0  0  0  0  0  0  0  0
   -1.9465   13.4682   47.1222 H   0  0  0  0  0  0  0  0  0  0  0  0
    2.2312   21.3611   39.9522 H   0  0  0  0  0  0  0  0  0  0  0  0
    3.4752   20.3985   40.9209 H   0  0  0  0  0  0  0  0  0  0  0  0
   -2.8382   13.3227   49.4585 H   0  0  0  0  0  0  0  0  0  0  0  0
   -0.3383   17.7966   47.2356 H   0  0  0  0  0  0  0  0  0  0  0  0
    1.2846   19.3889   39.5266 H   0  0  0  0  0  0  0  0  0  0  0  0
    0.0304   17.2310   48.2271 H   0  0  0  0  0  0  0  0  0  0  0  0
   -0.2799   18.9276   43.4891 H   0  0  0  0  0  0  0  0  0  0  0  0
  1 25  1  0
  2 20  1  0
  3 22  2  0
  3 28  1  0
  4 27  1  0
  5 33  1  0
  6  4  1  0
  7 31  2  0
  7 35  1  0
  9 11  1  0
 10 19  1  0
 10  1  1  0
 11  8  2  0
 12  6  1  0
 13 16  2  0
 13 18  1  0
 15 18  1  0
 16 17  1  0
 17 32  2  0
 18 26  2  0
 19 30  1  0
 20 14  1  0
 21 20  1  0
 21 31  1  0
 22 24  1  0
 23 10  1  0
 24 33  2  0
 25 34  2  0
 26 32  1  0
 27  8  1  0
 27 23  1  0
 28  5  2  0
 30 25  1  0
 31  9  1  0
 32  3  1  0
 33 29  1  0
 35  4  2  0
 35 11  1  0
  1 36  1  0
  1 37  1  0
  2 38  1  0
  2 39  1  0
  2 40  1  0
  5 41  1  0
  6 42  1  0
  8 43  1  0
  9 44  1  0
  9 45  1  0
 12 46  1  0
 13 47  1  0
 14 48  1  0
 14 49  1  0
 14 50  1  0
 15 51  1  0
 16 52  1  0
 17 53  1  0
 19 54  1  0
 20 55  1  0
 21 56  1  0
 22 57  1  0
 23 58  1  0
 23 59  1  0
 24 60  1  0
 26 61  1  0
 27 62  1  6
 28 63  1  0
 30 64  1  0
M  END
>  <mol_id>  (7) 
2026-08-24-6tgu-s0-n100-seed1-0008

>  <rmsd_to_ref>  (7) 


$$$$

     RDKit          3D

 40 43  0  0  0  0  0  0  0  0999 V2000
    1.2908   18.2205   40.6344 C   0  0  0  0  0  0  0  0  0  0  0  0
   -0.6311   19.3451   45.5919 N   0  0  0  0  0  0  0  0  0  0  0  0
    0.5114   18.0665   43.1979 C   0  0  0  0  0  0  0  0  0  0  0  0
    2.0733   18.1305   38.3314 C   0  0  0  0  0  0  0  0  0  0  0  0
    2.4636   16.2626   39.7068 C   0  0  0  0  0  0  0  0  0  0  0  0
    1.5855   19.4565   38.0418 C   0  0  0  0  0  0  0  0  0  0  0  0
    3.7865   14.2449   38.7858 C   0  0  0  0  0  0  0  0  0  0  0  0
   -0.6258   19.9419   44.3672 C   0  0  0  0  0  0  0  0  0  0  0  0
    3.0840   15.5985   38.6119 C   0  0  0  0  0  0  0  0  0  0  0  0
   -0.7125   16.5319   47.5641 N   0  0  0  0  0  0  0  0  0  0  0  0
    3.9253   13.7895   37.4588 O   0  0  0  0  0  0  0  0  0  0  0  0
    1.9468   17.5432   39.6036 C   0  0  0  0  0  0  0  0  0  0  0  0
    3.1621   16.2976   37.4613 N   0  0  0  0  0  0  0  0  0  0  0  0
    0.9649   20.2021   39.1337 C   0  0  0  0  0  0  0  0  0  0  0  0
   -0.0979   19.3888   43.1894 C   0  0  0  0  0  0  0  0  0  0  0  0
    0.3405   17.3612   44.4548 C   0  0  0  0  0  0  0  0  0  0  0  0
    0.8296   19.5294   40.3412 C   0  0  0  0  0  0  0  0  0  0  0  0
    2.6955   17.4627   37.3197 N   0  0  0  0  0  0  0  0  0  0  0  0
   -0.0440   17.6031   47.0472 C   0  0  2  0  0  0  0  0  0  0  0  0
   -0.1811   18.0032   45.5989 C   0  0  0  0  0  0  0  0  0  0  0  0
    0.7178   16.8829   48.0049 C   0  0  0  0  0  0  0  0  0  0  0  0
    1.8258   19.9096   36.8608 O   0  0  0  0  0  0  0  0  0  0  0  0
    1.1815   17.5091   41.9806 C   0  0  0  0  0  0  0  0  0  0  0  0
    2.3918   15.7390   40.6715 H   0  0  0  0  0  0  0  0  0  0  0  0
    4.7681   14.3674   39.2668 H   0  0  0  0  0  0  0  0  0  0  0  0
    3.2310   13.5466   39.4289 H   0  0  0  0  0  0  0  0  0  0  0  0
   -1.0740   20.9439   44.2947 H   0  0  0  0  0  0  0  0  0  0  0  0
   -0.8876   15.6994   46.9835 H   0  0  0  0  0  0  0  0  0  0  0  0
   -1.6152   16.3838   48.0376 H   0  0  0  0  0  0  0  0  0  0  0  0
    4.6736   13.1434   37.4081 H   0  0  0  0  0  0  0  0  0  0  0  0
    0.6233   21.2400   39.0066 H   0  0  0  0  0  0  0  0  0  0  0  0
   -0.1452   19.9604   42.2507 H   0  0  0  0  0  0  0  0  0  0  0  0
    0.6244   16.3003   44.5175 H   0  0  0  0  0  0  0  0  0  0  0  0
    0.3132   20.0653   41.1512 H   0  0  0  0  0  0  0  0  0  0  0  0
    0.0032   18.6976   46.9476 H   0  0  0  0  0  0  0  0  0  0  0  0
    0.9132   17.3039   49.0022 H   0  0  0  0  0  0  0  0  0  0  0  0
    1.6957   16.3809   48.0464 H   0  0  0  0  0  0  0  0  0  0  0  0
    1.5150   20.8140   36.6049 H   0  0  0  0  0  0  0  0  0  0  0  0
    0.6640   16.5617   41.7698 H   0  0  0  0  0  0  0  0  0  0  0  0
    2.2325   17.5377   42.3042 H   0  0  0  0  0  0  0  0  0  0  0  0
  1 23  1  0
  2 20  1  0
  3 16  1  0
  4 12  1  0
  6  4  2  0
  6 14  1  0
  8  2  2  0
  9  7  1  0
  9  5  2  0
 10 21  1  0
 11  7  1  0
 12  5  1  0
 12  1  2  0
 13  9  1  0
 14 17  2  0
 15  3  2  0
 15  8  1  0
 16 20  2  0
 17  1  1  0
 18 13  2  0
 18  4  1  0
 19 20  1  0
 19 10  1  0
 19 21  1  0
 22  6  1  0
 23  3  1  0
  5 24  1  0
  7 25  1  0
  7 26  1  0
  8 27  1  0
 10 28  1  0
 10 29  1  0
 11 30  1  0
 14 31  1  0
 15 32  1  0
 16 33  1  0
 17 34  1  0
 19 35  1  1
 21 36  1  0
 21 37  1  0
 22 38  1  0
 23 39  1  0
 23 40  1  0
M  CHG  1  10   1
M  END
>  <mol_id>  (8) 
2026-08-24-6tgu-s0-n100-seed1-0009

>  <rmsd_to_ref>  (8) 


$$$$

     RDKit          3D

 38 41  0  0  0  0  0  0  0  0999 V2000
    3.7290   17.9120   39.3690 F   0  0  0  0  0  0  0  0  0  0  0  0
   -0.4510   18.0910   44.0980 C   0  0  0  0  0  0  0  0  0  0  0  0
    2.4130   20.5880   38.8090 C   0  0  0  0  0  0  0  0  0  0  0  0
    1.9770   19.1990   40.1640 N   0  0  0  0  0  0  0  0  0  0  0  0
    0.3210   20.7580   41.7380 C   0  0  0  0  0  0  0  0  0  0  0  0
    2.2830   21.0720   37.5520 C   0  0  0  0  0  0  0  0  0  0  0  0
    3.7890   18.9920   37.6480 C   0  0  0  0  0  0  0  0  0  0  0  0
    1.9630   20.4190   39.9070 C   0  0  2  0  0  0  0  0  0  0  0  0
    3.2930   19.0310   38.7460 C   0  0  0  0  0  0  0  0  0  0  0  0
    1.1330   21.3470   40.6630 C   0  0  0  0  0  0  0  0  0  0  0  0
    4.5930   18.6570   37.0060 C   0  0  0  0  0  0  0  0  0  0  0  0
    1.6670   17.1160   40.8880 O   0  0  0  0  0  0  0  0  0  0  0  0
    3.0540   20.7830   36.4900 C   0  0  0  0  0  0  0  0  0  0  0  0
   -0.8560   20.1240   43.3440 C   0  0  0  0  0  0  0  0  0  0  0  0
    0.3400   17.6270   43.0990 C   0  0  0  0  0  0  0  0  0  0  0  0
   -1.0300   19.2930   44.2560 C   0  0  0  0  0  0  0  0  0  0  0  0
    0.7510   18.6630   42.0740 C   0  0  0  0  0  0  0  0  0  0  0  0
    1.4880   18.3660   40.8570 C   0  0  0  0  0  0  0  0  0  0  0  0
    3.8800   19.6540   36.5810 C   0  0  0  0  0  0  0  0  0  0  0  0
   -1.2740   17.3540   46.2800 C   0  0  0  0  0  0  0  0  0  0  0  0
    0.2120   19.9260   42.3700 C   0  0  0  0  0  0  0  0  0  0  0  0
   -0.5630   17.0500   45.1470 C   0  0  0  0  0  0  0  0  0  0  0  0
    2.6672   18.7453   39.5486 H   0  0  0  0  0  0  0  0  0  0  0  0
   -0.6698   20.7692   41.2603 H   0  0  0  0  0  0  0  0  0  0  0  0
    0.9298   21.2712   42.4969 H   0  0  0  0  0  0  0  0  0  0  0  0
    1.4571   21.7782   37.3811 H   0  0  0  0  0  0  0  0  0  0  0  0
    2.5701   21.0831   40.5398 H   0  0  0  0  0  0  0  0  0  0  0  0
    1.7959   22.0991   41.1157 H   0  0  0  0  0  0  0  0  0  0  0  0
    0.4134   21.7577   39.9394 H   0  0  0  0  0  0  0  0  0  0  0  0
    5.6360   18.8286   37.3106 H   0  0  0  0  0  0  0  0  0  0  0  0
    4.8653   17.6814   36.5770 H   0  0  0  0  0  0  0  0  0  0  0  0
    3.0376   21.4078   35.5848 H   0  0  0  0  0  0  0  0  0  0  0  0
   -1.5079   21.0072   43.2732 H   0  0  0  0  0  0  0  0  0  0  0  0
    0.6593   16.5761   43.0378 H   0  0  0  0  0  0  0  0  0  0  0  0
   -1.6287   19.5320   45.1473 H   0  0  0  0  0  0  0  0  0  0  0  0
   -1.3790   16.6069   47.0805 H   0  0  0  0  0  0  0  0  0  0  0  0
   -1.7392   18.3449   46.3881 H   0  0  0  0  0  0  0  0  0  0  0  0
   -0.0908   16.0645   45.0209 H   0  0  0  0  0  0  0  0  0  0  0  0
  2 16  1  0
  2 22  1  0
  4 18  1  0
  5 21  1  0
  6  3  1  0
  7  9  1  0
  8  3  1  0
  8  4  1  0
  8 10  1  0
  9  3  2  0
  9  1  1  0
 10  5  1  0
 11  7  1  0
 13 19  1  0
 13  6  2  0
 14 16  2  0
 15  2  2  0
 17 21  2  0
 17 15  1  0
 18 12  2  0
 18 17  1  0
 19 11  1  0
 19  7  2  0
 21 14  1  0
 22 20  2  3
  4 23  1  0
  5 24  1  0
  5 25  1  0
  6 26  1  0
  8 27  1  1
 10 28  1  0
 10 29  1  0
 11 30  1  0
 11 31  1  0
 13 32  1  0
 14 33  1  0
 15 34  1  0
 16 35  1  0
 20 36  1  0
 20 37  1  0
 22 38  1  0
M  END
>  <mol_id>  (9) 
2026-08-24-6tgu-s0-n100-seed1-0010

>  <rmsd_to_ref>  (9) 


$$$$

     RDKit          3D

 56 58  0  0  0  0  0  0  0  0999 V2000
    1.0273   21.2311   42.3100 N   0  0  0  0  0  0  0  0  0  0  0  0
    2.1867   17.2225   39.8245 C   0  0  0  0  0  0  0  0  0  0  0  0
    1.8808   18.5794   40.3634 C   0  0  1  0  0  0  0  0  0  0  0  0
    2.1608   14.8546   40.0196 C   0  0  0  0  0  0  0  0  0  0  0  0
    1.5505   18.7491   41.8489 C   0  0  1  0  0  0  0  0  0  0  0  0
    2.6446   15.9100   37.8669 C   0  0  0  0  0  0  0  0  0  0  0  0
    0.7625   18.5039   43.9234 C   0  0  2  0  0  0  0  0  0  0  0  0
    2.2142   13.6102   37.9450 O   0  0  0  0  0  0  0  0  0  0  0  0
    1.3958   21.7469   40.9478 C   0  0  0  0  0  0  0  0  0  0  0  0
    2.6096   19.5384   36.8970 O   0  0  0  0  0  0  0  0  0  0  0  0
    0.2632   17.7148   44.9025 N   0  0  0  0  0  0  0  0  0  0  0  0
   -0.5434   20.5280   44.0915 O   0  0  0  0  0  0  0  0  0  0  0  0
    0.9891   19.9711   42.5279 N   0  0  0  0  0  0  0  0  0  0  0  0
   -0.5263   15.1764   45.3261 O   0  0  0  0  0  0  0  0  0  0  0  0
    2.5408   19.5499   39.6408 O   0  0  0  0  0  0  0  0  0  0  0  0
    0.2397   19.7341   43.6801 C   0  0  0  0  0  0  0  0  0  0  0  0
   -0.2286   16.9381   46.9796 N   0  0  0  0  0  0  0  0  0  0  0  0
   -1.2031   13.9166   45.1689 C   0  0  0  0  0  0  0  0  0  0  0  0
    2.0019   20.4810   37.3604 C   0  0  0  0  0  0  0  0  0  0  0  0
    2.5836   17.0826   38.4774 C   0  0  0  0  0  0  0  0  0  0  0  0
    1.9145   20.5999   38.9183 C   0  0  1  0  0  0  0  0  0  0  0  0
   -0.3042   15.6184   46.6319 C   0  0  0  0  0  0  0  0  0  0  0  0
    0.7926   20.9574   39.8221 C   0  0  0  0  0  0  0  0  0  0  0  0
    0.1696   17.2375   48.3475 C   0  0  0  0  0  0  0  0  0  0  0  0
    1.4880   21.4612   36.6987 N   0  0  0  0  0  0  0  0  0  0  0  0
    1.5295   17.9114   42.8111 C   0  0  0  0  0  0  0  0  0  0  0  0
    2.0341   16.0264   40.5305 C   0  0  0  0  0  0  0  0  0  0  0  0
   -0.2379   14.7601   47.4988 O   0  0  0  0  0  0  0  0  0  0  0  0
    2.3605   14.7470   38.6043 C   0  0  0  0  0  0  0  0  0  0  0  0
   -0.1440   17.9723   46.0728 C   0  0  0  0  0  0  0  0  0  0  0  0
   -0.2342   19.1878   46.4099 O   0  0  0  0  0  0  0  0  0  0  0  0
    0.0888   21.5983   42.5231 H   0  0  0  0  0  0  0  0  0  0  0  0
    0.8191   18.7942   40.1717 H   0  0  0  0  0  0  0  0  0  0  0  0
    2.1173   13.9560   40.6526 H   0  0  0  0  0  0  0  0  0  0  0  0
    2.5711   19.1152   42.0340 H   0  0  0  0  0  0  0  0  0  0  0  0
    2.9126   15.8464   36.8019 H   0  0  0  0  0  0  0  0  0  0  0  0
    1.5572   18.7735   44.6346 H   0  0  0  0  0  0  0  0  0  0  0  0
    2.0137   12.7748   38.4371 H   0  0  0  0  0  0  0  0  0  0  0  0
    1.0517   22.7884   40.8656 H   0  0  0  0  0  0  0  0  0  0  0  0
    2.4883   21.6585   40.8543 H   0  0  0  0  0  0  0  0  0  0  0  0
    0.2032   16.7186   44.6478 H   0  0  0  0  0  0  0  0  0  0  0  0
   -1.2739   13.4141   46.1449 H   0  0  0  0  0  0  0  0  0  0  0  0
   -2.2141   14.0906   44.7719 H   0  0  0  0  0  0  0  0  0  0  0  0
   -0.6388   13.2819   44.4698 H   0  0  0  0  0  0  0  0  0  0  0  0
    2.8536   17.9862   37.9111 H   0  0  0  0  0  0  0  0  0  0  0  0
    2.3584   21.5844   38.7093 H   0  0  0  0  0  0  0  0  0  0  0  0
    0.0496   21.5657   39.2853 H   0  0  0  0  0  0  0  0  0  0  0  0
    0.2761   20.0601   40.1939 H   0  0  0  0  0  0  0  0  0  0  0  0
   -0.0812   16.3859   48.9971 H   0  0  0  0  0  0  0  0  0  0  0  0
    1.2540   17.4186   48.3824 H   0  0  0  0  0  0  0  0  0  0  0  0
   -0.3634   18.1343   48.6966 H   0  0  0  0  0  0  0  0  0  0  0  0
    0.9900   22.2133   37.1960 H   0  0  0  0  0  0  0  0  0  0  0  0
    1.5753   21.4920   35.6728 H   0  0  0  0  0  0  0  0  0  0  0  0
    1.0477   16.9789   42.4821 H   0  0  0  0  0  0  0  0  0  0  0  0
    2.5548   17.6823   43.1370 H   0  0  0  0  0  0  0  0  0  0  0  0
    1.7876   16.0929   41.6005 H   0  0  0  0  0  0  0  0  0  0  0  0
  1 13  1  0
  2 27  1  0
  3  2  1  0
  3  5  1  0
  4 27  2  0
  5 13  1  0
  5 26  1  0
  6 29  2  0
  6 20  1  0
  7 11  1  0
  8 29  1  0
  9  1  1  0
 10 19  2  0
 11 30  1  0
 13 16  1  0
 14 22  1  0
 15  3  1  0
 16 12  2  0
 16  7  1  0
 17 24  1  0
 18 14  1  0
 20  2  2  0
 21 19  1  0
 21 23  1  0
 21 15  1  0
 22 17  1  0
 22 28  2  0
 23  9  1  0
 25 19  1  0
 26  7  1  0
 29  4  1  0
 30 31  2  0
 30 17  1  0
  1 32  1  0
  3 33  1  6
  4 34  1  0
  5 35  1  1
  6 36  1  0
  7 37  1  1
  8 38  1  0
  9 39  1  0
  9 40  1  0
 11 41  1  0
 18 42  1  0
 18 43  1  0
 18 44  1  0
 20 45  1  0
 21 46  1  1
 23 47  1  0
 23 48  1  0
 24 49  1  0
 24 50  1  0
 24 51  1  0
 25 52  1  0
 25 53  1  0
 26 54  1  0
 26 55  1  0
 27 56  1  0
M  END
>  <mol_id>  (10) 
2026-08-24-6tgu-s0-n100-seed1-0011

>  <rmsd_to_ref>  (10) 


$$$$

     RDKit          3D

 26 27  0  0  0  0  0  0  0  0999 V2000
   -0.1343   20.2501   43.6075 C   0  0  0  0  0  0  0  0  0  0  0  0
    1.8356   20.7509   40.5195 S   0  0  0  0  0  0  0  0  0  0  0  0
    1.1842   15.3837   43.7986 O   0  0  0  0  0  0  0  0  0  0  0  0
   -0.5845   15.5724   45.2678 N   0  0  0  0  0  0  0  0  0  0  0  0
    0.6205   18.0664   42.6741 C   0  0  0  0  0  0  0  0  0  0  0  0
   -0.5434   18.3480   44.7662 C   0  0  0  0  0  0  0  0  0  0  0  0
    3.1932   19.3242   39.3955 N   0  0  0  0  0  0  0  0  0  0  0  0
    2.5257   19.6132   40.4229 C   0  0  2  0  0  0  0  0  0  0  0  0
   -0.6879   19.6910   44.6954 N   0  0  0  0  0  0  0  0  0  0  0  0
    0.3566   15.9943   44.2366 C   0  0  0  0  0  0  0  0  0  0  0  0
    3.0751   19.4302   38.1188 C   0  0  0  0  0  0  0  0  0  0  0  0
    3.4932   18.2462   37.6391 O   0  0  0  0  0  0  0  0  0  0  0  0
    2.7206   20.3751   37.5300 O   0  0  0  0  0  0  0  0  0  0  0  0
    0.1301   17.4470   43.9011 C   0  0  0  0  0  0  0  0  0  0  0  0
    0.4376   19.5198   42.5237 C   0  0  0  0  0  0  0  0  0  0  0  0
    2.8763   18.4994   40.7367 N   0  0  0  0  0  0  0  0  0  0  0  0
    1.0508   20.3080   41.7139 C   0  0  0  0  0  0  0  0  0  0  0  0
   -0.1209   21.3485   43.5476 H   0  0  0  0  0  0  0  0  0  0  0  0
   -1.3117   16.2224   45.5985 H   0  0  0  0  0  0  0  0  0  0  0  0
   -0.5218   14.6243   45.6654 H   0  0  0  0  0  0  0  0  0  0  0  0
    1.1090   17.4693   41.8900 H   0  0  0  0  0  0  0  0  0  0  0  0
   -1.0264   17.8779   45.6355 H   0  0  0  0  0  0  0  0  0  0  0  0
    3.4064   20.1107   40.8551 H   0  0  0  0  0  0  0  0  0  0  0  0
    2.2162   17.7087   40.7379 H   0  0  0  0  0  0  0  0  0  0  0  0
    1.7312   20.7370   42.4641 H   0  0  0  0  0  0  0  0  0  0  0  0
    0.1829   20.2129   41.0448 H   0  0  0  0  0  0  0  0  0  0  0  0
  1  9  1  0
  2 17  1  0
  3 10  2  0
  5 14  2  0
  7  8  1  0
  7 16  1  0
  8  2  1  0
  8 16  1  0
  9  6  2  0
 10  4  1  0
 11  7  1  0
 12 11  1  0
 13 11  2  0
 14 10  1  0
 14  6  1  0
 15  5  1  0
 15  1  2  0
 17 15  1  0
  1 18  1  0
  4 19  1  0
  4 20  1  0
  5 21  1  0
  6 22  1  0
  8 23  1  1
 16 24  1  0
 17 25  1  0
 17 26  1  0
M  CHG  1  12  -1
M  END
>  <mol_id>  (11) 
2026-08-24-6tgu-s0-n100-seed1-0012

>  <rmsd_to_ref>  (11) 


$$$$

     RDKit          3D

 54 59  0  0  0  0  0  0  0  0999 V2000
    1.7320   15.2080   41.5440 C   0  0  0  0  0  0  0  0  0  0  0  0
    3.2730   22.4500   34.4190 C   0  0  0  0  0  0  0  0  0  0  0  0
    2.8840   20.5350   38.3600 C   0  0  0  0  0  0  0  0  0  0  0  0
   -0.7320   20.3000   44.0430 N   0  0  0  0  0  0  0  0  0  0  0  0
    0.4320   14.8380   43.4560 C   0  0  0  0  0  0  0  0  0  0  0  0
   -1.0900   18.5120   45.4020 N   0  0  0  0  0  0  0  0  0  0  0  0
    3.4300   16.4590   38.4460 C   0  0  0  0  0  0  0  0  0  0  0  0
    0.7070   17.1180   42.5740 C   0  0  0  0  0  0  0  0  0  0  0  0
    3.3850   19.8480   37.1850 C   0  0  0  0  0  0  0  0  0  0  0  0
    0.7530   13.5430   43.4740 N   0  0  0  0  0  0  0  0  0  0  0  0
    0.7250   19.1990   41.5770 C   0  0  0  0  0  0  0  0  0  0  0  0
   -0.0300   20.8990   42.8900 C   0  0  0  0  0  0  0  0  0  0  0  0
    2.7410   21.5890   35.6640 C   0  0  0  0  0  0  0  0  0  0  0  0
    0.7420   20.9120   40.9840 C   0  0  0  0  0  0  0  0  0  0  0  0
    3.1610   17.8230   38.4230 C   0  0  0  0  0  0  0  0  0  0  0  0
    0.9520   15.7290   42.5360 C   0  0  0  0  0  0  0  0  0  0  0  0
    2.1840   16.0700   40.4840 C   0  0  0  0  0  0  0  0  0  0  0  0
    3.5390   18.5240   37.2570 C   0  0  0  0  0  0  0  0  0  0  0  0
   -0.6130   15.3280   44.6770 C   0  0  0  0  0  0  0  0  0  0  0  0
    0.0820   18.0340   43.5010 C   0  0  0  0  0  0  0  0  0  0  0  0
    2.4120   18.2730   39.4760 C   0  0  0  0  0  0  0  0  0  0  0  0
    1.1630   17.8790   41.5530 C   0  0  0  0  0  0  0  0  0  0  0  0
    2.9910   15.5840   39.4630 C   0  0  0  0  0  0  0  0  0  0  0  0
    2.2710   19.9580   39.4340 C   0  0  0  0  0  0  0  0  0  0  0  0
    0.4250   20.2580   41.8820 C   0  0  0  0  0  0  0  0  0  0  0  0
    1.5370   13.0360   42.5160 C   0  0  0  0  0  0  0  0  0  0  0  0
    1.5820   21.1970   39.9270 O   0  0  0  0  0  0  0  0  0  0  0  0
    2.0470   13.8910   41.5130 C   0  0  0  0  0  0  0  0  0  0  0  0
    1.9200   17.4170   40.5220 C   0  0  0  0  0  0  0  0  0  0  0  0
   -0.6370   19.0280   44.2210 C   0  0  0  0  0  0  0  0  0  0  0  0
    3.6120   20.6120   36.0080 N   0  0  0  0  0  0  0  0  0  0  0  0
    1.6680   21.8570   36.1430 O   0  0  0  0  0  0  0  0  0  0  0  0
    3.8176   23.3313   34.7887 H   0  0  0  0  0  0  0  0  0  0  0  0
    3.9471   21.8324   33.8074 H   0  0  0  0  0  0  0  0  0  0  0  0
    2.4190   22.7766   33.8074 H   0  0  0  0  0  0  0  0  0  0  0  0
    3.0105   21.6273   38.3881 H   0  0  0  0  0  0  0  0  0  0  0  0
   -1.7329   20.5196   43.9385 H   0  0  0  0  0  0  0  0  0  0  0  0
   -0.2648   20.7078   44.8654 H   0  0  0  0  0  0  0  0  0  0  0  0
   -0.6500   19.0132   46.1869 H   0  0  0  0  0  0  0  0  0  0  0  0
   -2.1128   18.6217   45.4548 H   0  0  0  0  0  0  0  0  0  0  0  0
   -0.8488   17.5120   45.4548 H   0  0  0  0  0  0  0  0  0  0  0  0
    4.0214   16.0357   37.6208 H   0  0  0  0  0  0  0  0  0  0  0  0
   -0.7324   21.6356   42.4729 H   0  0  0  0  0  0  0  0  0  0  0  0
    0.9137   21.1945   43.3718 H   0  0  0  0  0  0  0  0  0  0  0  0
   -0.2055   20.8808   40.4262 H   0  0  0  0  0  0  0  0  0  0  0  0
    1.4481   21.4317   41.6483 H   0  0  0  0  0  0  0  0  0  0  0  0
    3.9629   17.9757   36.4028 H   0  0  0  0  0  0  0  0  0  0  0  0
   -0.1587   15.1150   45.6559 H   0  0  0  0  0  0  0  0  0  0  0  0
   -0.8009   16.4081   44.5873 H   0  0  0  0  0  0  0  0  0  0  0  0
   -1.5635   14.7817   44.5873 H   0  0  0  0  0  0  0  0  0  0  0  0
    3.2859   14.5244   39.4472 H   0  0  0  0  0  0  0  0  0  0  0  0
    1.7824   11.9637   42.5090 H   0  0  0  0  0  0  0  0  0  0  0  0
    2.6921   13.4917   40.7165 H   0  0  0  0  0  0  0  0  0  0  0  0
    4.4359   20.4228   35.4195 H   0  0  0  0  0  0  0  0  0  0  0  0
  1 16  1  0
  2 13  1  0
  3 24  2  0
  4 30  1  0
  5 10  1  0
  5 19  1  0
  7 23  1  0
  8 20  2  0
  9 18  2  0
  9  3  1  0
 11 25  2  0
 12  4  1  0
 13 31  1  0
 13 32  2  0
 14 25  1  0
 15  7  2  0
 15 21  1  0
 16  8  1  0
 16  5  2  0
 17 29  1  0
 17  1  1  0
 18 15  1  0
 20 30  2  0
 21 29  2  0
 22 11  2  0
 22  8  1  0
 23 17  2  0
 24 21  1  0
 24 27  1  0
 25 12  1  0
 26 10  2  0
 27 14  1  0
 28  1  2  0
 28 26  1  0
 29 22  1  0
 30  6  1  0
 31  9  1  0
  2 33  1  0
  2 34  1  0
  2 35  1  0
  3 36  1  0
  4 37  1  0
  4 38  1  0
  6 39  1  0
  6 40  1  0
  6 41  1  0
  7 42  1  0
 12 43  1  0
 12 44  1  0
 14 45  1  0
 14 46  1  0
 18 47  1  0
 19 48  1  0
 19 49  1  0
 19 50  1  0
 23 51  1  0
 26 52  1  0
 28 53  1  0
 31 54  1  0
M  CHG  2   4   1   6   1
M  END
>  <mol_id>  (12) 
2026-08-24-6tgu-s0-n100-seed1-0013

>  <rmsd_to_ref>  (12) 


$$$$

     RDKit          3D

 38 40  0  0  0  0  0  0  0  0999 V2000
    0.9880   22.0840   40.7130 F   0  0  0  0  0  0  0  0  0  0  0  0
    1.4520   17.4950   41.0790 C   0  0  0  0  0  0  0  0  0  0  0  0
   -0.7060   19.9740   42.5150 O   0  0  0  0  0  0  0  0  0  0  0  0
    0.1820   19.2780   41.8910 C   0  0  0  0  0  0  0  0  0  0  0  0
    2.0510   20.9740   39.0100 C   0  0  0  0  0  0  0  0  0  0  0  0
    1.3350   20.9350   40.1860 C   0  0  0  0  0  0  0  0  0  0  0  0
    3.7730   18.7230   36.7480 O   0  0  0  0  0  0  0  0  0  0  0  0
    2.4060   18.5830   39.1160 C   0  0  0  0  0  0  0  0  0  0  0  0
    2.5590   19.8170   38.4240 C   0  0  0  0  0  0  0  0  0  0  0  0
    2.4700   13.9680   41.8490 C   0  0  0  0  0  0  0  0  0  0  0  0
    3.2500   19.8070   37.0890 C   0  0  0  0  0  0  0  0  0  0  0  0
    2.0300   16.2890   41.0580 C   0  0  0  0  0  0  0  0  0  0  0  0
    1.7310   15.2440   42.0170 C   0  0  0  0  0  0  0  0  0  0  0  0
    3.2790   20.8150   36.4800 O   0  0  0  0  0  0  0  0  0  0  0  0
    0.7990   15.5770   43.0730 C   0  0  0  0  0  0  0  0  0  0  0  0
   -1.0480   18.1550   44.7300 N   0  0  0  0  0  0  0  0  0  0  0  0
    1.0620   19.7680   40.8490 C   0  0  0  0  0  0  0  0  0  0  0  0
   -0.9300   16.8490   44.1330 C   0  0  0  0  0  0  0  0  0  0  0  0
    0.1830   16.7920   43.1230 C   0  0  0  0  0  0  0  0  0  0  0  0
    0.5040   17.8580   42.1980 C   0  0  0  0  0  0  0  0  0  0  0  0
   -0.7450   17.9230   46.1220 C   0  0  0  0  0  0  0  0  0  0  0  0
    1.6950   18.5990   40.2780 C   0  0  0  0  0  0  0  0  0  0  0  0
   -0.8680   20.9159   42.2567 H   0  0  0  0  0  0  0  0  0  0  0  0
    2.2261   21.9437   38.5211 H   0  0  0  0  0  0  0  0  0  0  0  0
    2.8449   17.6521   38.7277 H   0  0  0  0  0  0  0  0  0  0  0  0
    2.7114   13.5512   42.8379 H   0  0  0  0  0  0  0  0  0  0  0  0
    1.8460   13.2534   41.2923 H   0  0  0  0  0  0  0  0  0  0  0  0
    3.4004   14.1537   41.2923 H   0  0  0  0  0  0  0  0  0  0  0  0
    1.8037   15.8638   40.0691 H   0  0  0  0  0  0  0  0  0  0  0  0
    3.0655   16.5414   41.3300 H   0  0  0  0  0  0  0  0  0  0  0  0
    0.5827   14.8324   43.8533 H   0  0  0  0  0  0  0  0  0  0  0  0
   -2.0028   18.5250   44.6186 H   0  0  0  0  0  0  0  0  0  0  0  0
   -0.4242   18.8503   44.2960 H   0  0  0  0  0  0  0  0  0  0  0  0
   -0.7292   16.1128   44.9252 H   0  0  0  0  0  0  0  0  0  0  0  0
   -1.8734   16.6254   43.6134 H   0  0  0  0  0  0  0  0  0  0  0  0
   -1.4622   18.4721   46.7498 H   0  0  0  0  0  0  0  0  0  0  0  0
   -0.8170   16.8469   46.3385 H   0  0  0  0  0  0  0  0  0  0  0  0
    0.2751   18.2732   46.3385 H   0  0  0  0  0  0  0  0  0  0  0  0
  2 20  1  0
  4 20  1  0
  4  3  1  0
  5  6  2  0
  6  1  1  0
  6 17  1  0
  7 11  1  0
  8 22  1  0
  9  5  1  0
  9  8  2  0
 10 13  1  0
 11  9  1  0
 12  2  1  0
 12 13  1  0
 13 15  2  0
 14 11  2  0
 15 19  1  0
 16 21  1  0
 17  4  2  0
 18 16  1  0
 19 18  1  0
 20 19  2  0
 22 17  1  0
 22  2  2  0
  3 23  1  0
  5 24  1  0
  8 25  1  0
 10 26  1  0
 10 27  1  0
 10 28  1  0
 12 29  1  0
 12 30  1  0
 15 31  1  0
 16 32  1  0
 16 33  1  0
 18 34  1  0
 18 35  1  0
 21 36  1  0
 21 37  1  0
 21 38  1  0
M  CHG  2   7  -1  16   1
M  END
>  <mol_id>  (13) 
2026-08-24-6tgu-s0-n100-seed1-0014

>  <rmsd_to_ref>  (13) 


$$$$

     RDKit          3D

 41 43  0  0  0  0  0  0  0  0999 V2000
    2.7040   15.3350   40.1720 C   0  0  0  0  0  0  0  0  0  0  0  0
    2.3190   20.8110   38.6770 N   0  0  0  0  0  0  0  0  0  0  0  0
    1.1640   17.7060   41.4020 C   0  0  0  0  0  0  0  0  0  0  0  0
    4.4470   21.3970   35.2000 O   0  0  0  0  0  0  0  0  0  0  0  0
   -0.2220   18.3910   45.6630 C   0  0  0  0  0  0  0  0  0  0  0  0
   -0.6740   17.5380   44.5980 O   0  0  0  0  0  0  0  0  0  0  0  0
    2.0970   18.9560   39.8800 C   0  0  0  0  0  0  0  0  0  0  0  0
   -0.6340   20.8530   43.7320 F   0  0  0  0  0  0  0  0  0  0  0  0
    2.6000   16.5700   39.5890 C   0  0  0  0  0  0  0  0  0  0  0  0
    0.6600   19.0230   41.6220 C   0  0  0  0  0  0  0  0  0  0  0  0
    3.5790   15.5140   37.6140 C   0  0  0  0  0  0  0  0  0  0  0  0
    1.9780   17.6070   40.2640 N   0  0  0  0  0  0  0  0  0  0  0  0
    3.7180   14.2990   38.2720 C   0  0  0  0  0  0  0  0  0  0  0  0
   -2.2860   19.1160   43.8550 F   0  0  0  0  0  0  0  0  0  0  0  0
    0.6310   16.8760   42.5330 C   0  0  0  0  0  0  0  0  0  0  0  0
    3.4840   20.0660   36.7910 C   0  0  0  0  0  0  0  0  0  0  0  0
   -1.9430   20.5010   42.3340 F   0  0  0  0  0  0  0  0  0  0  0  0
   -0.2480   17.8160   43.3580 C   0  0  0  0  0  0  0  0  0  0  0  0
    2.3130   21.9470   35.8650 O   0  0  0  0  0  0  0  0  0  0  0  0
   -0.3060   19.0910   42.7310 C   0  0  0  0  0  0  0  0  0  0  0  0
    4.2530   19.0970   36.5250 O   0  0  0  0  0  0  0  0  0  0  0  0
    3.3010   14.2040   39.5680 C   0  0  0  0  0  0  0  0  0  0  0  0
    2.8150   20.1970   37.9190 C   0  0  0  0  0  0  0  0  0  0  0  0
   -1.3070   19.9090   43.2800 C   0  0  0  0  0  0  0  0  0  0  0  0
    1.2190   19.7070   40.7740 N   0  0  0  0  0  0  0  0  0  0  0  0
    2.6880   19.3920   39.0050 C   0  0  0  0  0  0  0  0  0  0  0  0
    3.0600   16.6080   38.2850 C   0  0  0  0  0  0  0  0  0  0  0  0
    4.3670   13.0080   37.5760 Cl  0  0  0  0  0  0  0  0  0  0  0  0
    3.3110   21.2500   35.9120 C   0  0  0  0  0  0  0  0  0  0  0  0
    2.2928   15.2138   41.1850 H   0  0  0  0  0  0  0  0  0  0  0  0
    1.8813   20.3647   39.4956 H   0  0  0  0  0  0  0  0  0  0  0  0
   -0.4665   17.9296   46.6312 H   0  0  0  0  0  0  0  0  0  0  0  0
    0.8668   18.5275   45.5864 H   0  0  0  0  0  0  0  0  0  0  0  0
   -0.7204   19.3686   45.5864 H   0  0  0  0  0  0  0  0  0  0  0  0
    3.8811   15.6071   36.5604 H   0  0  0  0  0  0  0  0  0  0  0  0
    0.0357   16.0363   42.1450 H   0  0  0  0  0  0  0  0  0  0  0  0
    1.4426   16.4445   43.1373 H   0  0  0  0  0  0  0  0  0  0  0  0
    3.4266   13.2674   40.1310 H   0  0  0  0  0  0  0  0  0  0  0  0
    2.9651   18.4431   38.5225 H   0  0  0  0  0  0  0  0  0  0  0  0
    2.9178   20.2628   39.6366 H   0  0  0  0  0  0  0  0  0  0  0  0
    3.0103   17.5667   37.7480 H   0  0  0  0  0  0  0  0  0  0  0  0
  3 10  2  0
  3 15  1  0
  4 29  2  0
  6  5  1  0
  7 12  1  0
  7 25  2  0
  9  1  2  0
  9 12  1  0
 10 20  1  0
 11 13  1  0
 11 27  2  0
 12  3  1  0
 13 22  2  0
 15 18  1  0
 16 23  1  0
 17 24  1  0
 18  6  1  0
 19 29  1  0
 20 24  1  0
 20 18  2  0
 21 16  2  0
 22  1  1  0
 23  2  2  3
 23 26  1  0
 24  8  1  0
 24 14  1  0
 25 10  1  0
 26  7  1  0
 27  9  1  0
 28 13  1  0
 29 16  1  0
  1 30  1  0
  2 31  1  0
  5 32  1  0
  5 33  1  0
  5 34  1  0
 11 35  1  0
 15 36  1  0
 15 37  1  0
 22 38  1  0
 26 39  1  0
 26 40  1  0
 27 41  1  0
M  CHG  1  19  -1
M  END
>  <mol_id>  (14) 
2026-08-24-6tgu-s0-n100-seed1-0015

>  <rmsd_to_ref>  (14) 


$$$$

     RDKit          3D

 39 40  0  0  0  0  0  0  0  0999 V2000
    3.2620   20.0520   38.5430 O   0  0  0  0  0  0  0  0  0  0  0  0
    2.1770   21.3600   36.7700 O   0  0  0  0  0  0  0  0  0  0  0  0
   -0.2900   20.2360   41.5520 C   0  0  0  0  0  0  0  0  0  0  0  0
    3.5950   17.5150   37.6940 O   0  0  0  0  0  0  0  0  0  0  0  0
    0.5190   17.7670   42.4250 C   0  0  0  0  0  0  0  0  0  0  0  0
    0.9850   20.2050   41.1380 O   0  0  0  0  0  0  0  0  0  0  0  0
    1.4330   17.9930   41.1660 C   0  0  0  0  0  0  0  0  0  0  0  0
    1.8370   19.2730   40.3880 C   0  0  0  0  0  0  0  0  0  0  0  0
    0.4360   15.3410   43.2600 C   0  0  0  0  0  0  0  0  0  0  0  0
    0.7330   16.4490   42.7060 C   0  0  0  0  0  0  0  0  0  0  0  0
    2.6670   18.9930   39.2800 C   0  0  0  0  0  0  0  0  0  0  0  0
    3.2680   20.9750   40.7650 F   0  0  0  0  0  0  0  0  0  0  0  0
   -0.5590   16.6830   45.2380 C   0  0  0  0  0  0  0  0  0  0  0  0
   -0.6820   17.8020   44.5870 C   0  0  0  0  0  0  0  0  0  0  0  0
    3.7080   19.8160   36.2960 O   0  0  0  0  0  0  0  0  0  0  0  0
   -0.2960   18.5330   43.4940 C   0  0  2  0  0  0  0  0  0  0  0  0
   -0.3370   20.8350   42.8940 C   0  0  0  0  0  0  0  0  0  0  0  0
   -0.6740   19.8510   43.7600 O   0  0  0  0  0  0  0  0  0  0  0  0
    3.0560   20.4700   37.1670 C   0  0  0  0  0  0  0  0  0  0  0  0
    2.5350   16.6150   39.6260 C   0  0  0  0  0  0  0  0  0  0  0  0
   -0.3150   15.2990   44.5240 C   0  0  0  0  0  0  0  0  0  0  0  0
    2.9810   15.1890   39.2750 C   0  0  0  0  0  0  0  0  0  0  0  0
    2.9520   17.7160   38.8550 C   0  0  0  0  0  0  0  0  0  0  0  0
    1.8650   16.7990   40.7890 N   0  0  0  0  0  0  0  0  0  0  0  0
   -0.6917   19.2127   41.5894 H   0  0  0  0  0  0  0  0  0  0  0  0
   -0.8955   20.8331   40.8543 H   0  0  0  0  0  0  0  0  0  0  0  0
    3.7974   16.5937   37.3933 H   0  0  0  0  0  0  0  0  0  0  0  0
    0.7467   14.3989   42.7846 H   0  0  0  0  0  0  0  0  0  0  0  0
    1.6609   16.2203   42.1613 H   0  0  0  0  0  0  0  0  0  0  0  0
    3.2680   20.9750   41.7060 H   0  0  0  0  0  0  0  0  0  0  0  0
   -0.6283   16.7031   46.3356 H   0  0  0  0  0  0  0  0  0  0  0  0
   -1.3952   18.4220   45.1499 H   0  0  0  0  0  0  0  0  0  0  0  0
    0.6181   18.6751   44.0891 H   0  0  0  0  0  0  0  0  0  0  0  0
    0.6481   21.2476   43.1572 H   0  0  0  0  0  0  0  0  0  0  0  0
   -1.0696   21.6548   42.9302 H   0  0  0  0  0  0  0  0  0  0  0  0
   -0.6859   14.3540   44.9476 H   0  0  0  0  0  0  0  0  0  0  0  0
    3.1583   14.6220   40.2008 H   0  0  0  0  0  0  0  0  0  0  0  0
    2.1950   14.6934   38.6863 H   0  0  0  0  0  0  0  0  0  0  0  0
    3.9093   15.2296   38.6863 H   0  0  0  0  0  0  0  0  0  0  0  0
  1 11  1  0
  2 19  1  0
  3 17  1  0
  4 23  1  0
  5 10  2  0
  5 16  1  0
  6  3  1  0
  7  5  1  0
  8  6  1  0
  8  7  1  0
  9 21  2  0
 10  9  1  0
 11  8  2  0
 14 13  2  0
 15 19  2  0
 16 18  1  0
 16 14  1  0
 17 18  1  0
 19  1  1  0
 20 24  1  0
 21 13  1  0
 22 20  1  0
 23 11  1  0
 23 20  2  0
 24  7  2  0
  3 25  1  0
  3 26  1  0
  4 27  1  0
  9 28  1  0
 10 29  1  0
 12 30  1  0
 13 31  1  0
 14 32  1  0
 16 33  1  6
 17 34  1  0
 17 35  1  0
 21 36  1  0
 22 37  1  0
 22 38  1  0
 22 39  1  0
M  CHG  1   2  -1
M  END
>  <mol_id>  (15) 
2026-08-24-6tgu-s0-n100-seed1-0016

>  <rmsd_to_ref>  (15) 


$$$$

     RDKit          3D

 48 52  0  0  0  0  0  0  0  0999 V2000
    5.3660   13.1120   39.2110 N   0  0  0  0  0  0  0  0  0  0  0  0
    0.4330   20.5850   42.0170 C   0  0  0  0  0  0  0  0  0  0  0  0
    4.3350   20.4820   35.5040 C   0  0  0  0  0  0  0  0  0  0  0  0
   -0.7350   17.1620   46.0040 C   0  0  0  0  0  0  0  0  0  0  0  0
    4.9060   13.9890   37.1690 C   0  0  0  0  0  0  0  0  0  0  0  0
   -0.9630   20.0650   43.9450 C   0  0  0  0  0  0  0  0  0  0  0  0
    3.2810   15.4860   38.8070 C   0  0  0  0  0  0  0  0  0  0  0  0
    2.4050   19.6420   38.4030 C   0  0  0  0  0  0  0  0  0  0  0  0
    2.1390   17.5550   40.4810 C   0  0  0  0  0  0  0  0  0  0  0  0
    2.7320   18.4240   38.1480 C   0  0  0  0  0  0  0  0  0  0  0  0
    1.7290   18.9080   40.6730 C   0  0  0  0  0  0  0  0  0  0  0  0
    3.5590   19.9110   36.6280 C   0  0  1  0  0  0  0  0  0  0  0  0
    0.8200   21.6050   41.1620 C   0  0  0  0  0  0  0  0  0  0  0  0
   -0.5410   17.9030   45.1370 C   0  0  0  0  0  0  0  0  0  0  0  0
    1.9430   20.0020   39.7130 C   0  0  0  0  0  0  0  0  0  0  0  0
    5.9640   13.2300   36.9950 N   0  0  0  0  0  0  0  0  0  0  0  0
   -0.3210   18.6890   44.0130 C   0  0  0  0  0  0  0  0  0  0  0  0
    0.8150   19.2120   41.8120 C   0  0  0  0  0  0  0  0  0  0  0  0
    3.4870   18.5550   36.9940 O   0  0  0  0  0  0  0  0  0  0  0  0
   -0.5400   20.9390   42.8930 N   0  0  0  0  0  0  0  0  0  0  0  0
    2.7330   17.1920   39.0450 C   0  0  0  0  0  0  0  0  0  0  0  0
    4.4790   13.9590   38.4440 N   0  0  0  0  0  0  0  0  0  0  0  0
    4.2970   14.8140   36.1830 N   0  0  0  0  0  0  0  0  0  0  0  0
    1.6130   21.2690   40.0520 C   0  0  0  0  0  0  0  0  0  0  0  0
    6.1730   12.6980   38.3500 N   0  0  0  0  0  0  0  0  0  0  0  0
    1.8490   16.5350   41.3390 C   0  0  0  0  0  0  0  0  0  0  0  0
    0.5870   18.2240   42.9390 C   0  0  0  0  0  0  0  0  0  0  0  0
    2.8680   14.7370   39.9700 C   0  0  0  0  0  0  0  0  0  0  0  0
    2.2030   15.1170   41.1280 C   0  0  0  0  0  0  0  0  0  0  0  0
    2.7030   20.6290   37.4170 C   0  0  0  0  0  0  0  0  0  0  0  0
    5.1614   21.0901   35.9005 H   0  0  0  0  0  0  0  0  0  0  0  0
    4.7424   19.6667   34.8881 H   0  0  0  0  0  0  0  0  0  0  0  0
    3.6778   21.1135   34.8881 H   0  0  0  0  0  0  0  0  0  0  0  0
   -0.9195   16.4574   46.8284 H   0  0  0  0  0  0  0  0  0  0  0  0
   -1.7234   20.3773   44.6760 H   0  0  0  0  0  0  0  0  0  0  0  0
    3.8276   15.0918   37.9376 H   0  0  0  0  0  0  0  0  0  0  0  0
    2.6934   19.7773   35.9625 H   0  0  0  0  0  0  0  0  0  0  0  0
    0.5156   22.6457   41.3469 H   0  0  0  0  0  0  0  0  0  0  0  0
    3.6564   14.4568   38.8133 H   0  0  0  0  0  0  0  0  0  0  0  0
    4.6527   14.8094   35.2164 H   0  0  0  0  0  0  0  0  0  0  0  0
    3.5003   15.4159   36.4357 H   0  0  0  0  0  0  0  0  0  0  0  0
    1.9887   22.0869   39.4196 H   0  0  0  0  0  0  0  0  0  0  0  0
    1.3079   16.7892   42.2624 H   0  0  0  0  0  0  0  0  0  0  0  0
    1.0622   17.2321   42.9578 H   0  0  0  0  0  0  0  0  0  0  0  0
    3.1280   13.6689   39.9316 H   0  0  0  0  0  0  0  0  0  0  0  0
    1.9407   14.3642   41.8859 H   0  0  0  0  0  0  0  0  0  0  0  0
    3.1919   21.5117   37.8550 H   0  0  0  0  0  0  0  0  0  0  0  0
    1.8294   21.0493   36.8972 H   0  0  0  0  0  0  0  0  0  0  0  0
  2 20  1  0
  5 22  1  0
  6 17  1  0
  7 21  2  0
  7 28  1  0
  8 15  1  0
  9 11  1  0
  9 26  2  0
 10  8  2  0
 10 21  1  0
 11 18  2  0
 12  3  1  0
 12 19  1  0
 12 30  1  0
 13  2  2  0
 14  4  3  0
 15 24  2  0
 15 11  1  0
 16  5  2  0
 16 25  1  0
 17 14  1  0
 18  2  1  0
 18 27  1  0
 19 10  1  0
 20  6  2  0
 21  9  1  0
 22  1  1  0
 23  5  1  0
 24 13  1  0
 25  1  2  0
 27 17  2  0
 28 29  2  0
 29 26  1  0
 30  8  1  0
  3 31  1  0
  3 32  1  0
  3 33  1  0
  4 34  1  0
  6 35  1  0
  7 36  1  0
 12 37  1  1
 13 38  1  0
 22 39  1  0
 23 40  1  0
 23 41  1  0
 24 42  1  0
 26 43  1  0
 27 44  1  0
 28 45  1  0
 29 46  1  0
 30 47  1  0
 30 48  1  0
M  END
>  <mol_id>  (16) 
2026-08-24-6tgu-s0-n100-seed1-0017

>  <rmsd_to_ref>  (16) 


$$$$

     RDKit          3D

 30 32  0  0  0  0  0  0  0  0999 V2000
    4.8050   15.3750   37.4000 C   0  0  0  0  0  0  0  0  0  0  0  0
   -0.7640   20.6110   43.6090 N   0  0  0  0  0  0  0  0  0  0  0  0
    2.6590   18.1690   38.8630 C   0  0  0  0  0  0  0  0  0  0  0  0
   -0.3970   19.3300   43.4260 C   0  0  0  0  0  0  0  0  0  0  0  0
    1.7780   17.3550   41.0240 C   0  0  0  0  0  0  0  0  0  0  0  0
    1.9940   18.3910   40.0890 C   0  0  0  0  0  0  0  0  0  0  0  0
    2.6290   20.8660   37.7420 Cl  0  0  0  0  0  0  0  0  0  0  0  0
    1.0390   17.5990   42.1610 C   0  0  0  0  0  0  0  0  0  0  0  0
    3.7730   18.6390   36.8960 O   0  0  0  0  0  0  0  0  0  0  0  0
    4.9200   14.1630   36.8140 C   0  0  0  0  0  0  0  0  0  0  0  0
    4.8070   16.5420   36.7090 N   0  0  0  0  0  0  0  0  0  0  0  0
    0.4470   21.2350   41.6460 C   0  0  0  0  0  0  0  0  0  0  0  0
    0.7920   19.9360   41.4450 C   0  0  0  0  0  0  0  0  0  0  0  0
    3.2590   17.0850   38.4430 N   0  0  0  0  0  0  0  0  0  0  0  0
   -0.9810   18.4390   44.3020 N   0  0  0  0  0  0  0  0  0  0  0  0
    3.0280   19.1880   37.8340 C   0  0  0  0  0  0  0  0  0  0  0  0
    0.4540   18.9100   42.3540 C   0  0  0  0  0  0  0  0  0  0  0  0
    3.8970   17.4000   37.2800 C   0  0  0  0  0  0  0  0  0  0  0  0
    1.5800   19.5920   40.2650 N   0  0  0  0  0  0  0  0  0  0  0  0
   -0.3670   21.5190   42.7070 C   0  0  0  0  0  0  0  0  0  0  0  0
    4.7045   15.4174   38.4946 H   0  0  0  0  0  0  0  0  0  0  0  0
    2.1991   16.3547   40.8449 H   0  0  0  0  0  0  0  0  0  0  0  0
    0.8951   16.8086   42.9123 H   0  0  0  0  0  0  0  0  0  0  0  0
    4.9116   13.2514   37.4296 H   0  0  0  0  0  0  0  0  0  0  0  0
    5.0220   14.0878   35.7213 H   0  0  0  0  0  0  0  0  0  0  0  0
    5.3948   16.7515   35.8895 H   0  0  0  0  0  0  0  0  0  0  0  0
    0.8100   22.0302   40.9783 H   0  0  0  0  0  0  0  0  0  0  0  0
   -0.7603   17.4349   44.2387 H   0  0  0  0  0  0  0  0  0  0  0  0
   -1.6378   18.7777   45.0195 H   0  0  0  0  0  0  0  0  0  0  0  0
   -0.7170   22.5548   42.8275 H   0  0  0  0  0  0  0  0  0  0  0  0
  3  6  1  0
  4  2  1  0
  4 15  1  0
  5  8  2  0
  6 19  2  0
  6  5  1  0
  7 16  1  0
  8 17  1  0
  9 18  1  0
  9 16  1  0
 10  1  2  3
 11 18  1  0
 11  1  1  0
 12 20  1  0
 13 12  2  0
 13 17  1  0
 14  3  1  0
 16  3  2  0
 17  4  2  0
 18 14  2  0
 19 13  1  0
 20  2  2  0
  1 21  1  0
  5 22  1  0
  8 23  1  0
 10 24  1  0
 10 25  1  0
 11 26  1  0
 12 27  1  0
 15 28  1  0
 15 29  1  0
 20 30  1  0
M  END
>  <mol_id>  (17) 
2026-08-24-6tgu-s0-n100-seed1-0018

>  <rmsd_to_ref>  (17) 


$$$$

     RDKit          3D

 52 54  0  0  0  0  0  0  0  0999 V2000
    0.9938   19.4884   40.7789 C   0  0  2  0  0  0  0  0  0  0  0  0
   -0.0091   20.5889   44.0330 O   0  0  0  0  0  0  0  0  0  0  0  0
   -0.5817   18.2437   42.8700 C   0  0  2  0  0  0  0  0  0  0  0  0
   -0.7144   20.7873   42.7334 C   0  0  0  0  0  0  0  0  0  0  0  0
    2.3638   16.0724   39.3536 C   0  0  0  0  0  0  0  0  0  0  0  0
    2.9486   17.3466   37.4310 C   0  0  0  0  0  0  0  0  0  0  0  0
    1.2440   22.9985   40.8604 O   0  0  0  0  0  0  0  0  0  0  0  0
    1.8993   15.0340   41.4911 C   0  0  0  0  0  0  0  0  0  0  0  0
   -1.6560   19.5258   42.4780 C   0  0  0  0  0  0  0  0  0  0  0  0
    0.2235   17.5015   44.0972 C   0  0  0  0  0  0  0  0  0  0  0  0
    1.6519   20.8780   40.3681 C   0  0  0  0  0  0  0  0  0  0  0  0
    2.3066   17.2468   39.7698 C   0  0  1  0  0  0  0  0  0  0  0  0
    3.4495   17.3631   36.2794 O   0  0  0  0  0  0  0  0  0  0  0  0
    2.6821   16.1090   38.0134 C   0  0  0  0  0  0  0  0  0  0  0  0
    0.6162   18.5912   41.8673 C   0  0  1  0  0  0  0  0  0  0  0  0
   -0.4552   16.0162   44.3267 C   0  0  0  0  0  0  0  0  0  0  0  0
    2.9306   19.8051   37.6495 C   0  0  0  0  0  0  0  0  0  0  0  0
    0.8236   21.9354   41.0119 C   0  0  0  0  0  0  0  0  0  0  0  0
    3.2828   19.9751   36.3146 C   0  0  0  0  0  0  0  0  0  0  0  0
    1.9479   18.6416   39.6984 C   0  0  1  0  0  0  0  0  0  0  0  0
    0.8860   17.0821   41.7583 C   0  0  0  0  0  0  0  0  0  0  0  0
   -0.3674   21.5236   41.6495 N   0  0  0  0  0  0  0  0  0  0  0  0
    2.2061   16.4118   41.1948 C   0  0  1  0  0  0  0  0  0  0  0  0
    2.5637   18.6350   38.2875 C   0  0  1  0  0  0  0  0  0  0  0  0
    3.3782   20.3809   35.3034 O   0  0  0  0  0  0  0  0  0  0  0  0
   -0.0254   19.8364   41.0024 H   0  0  0  0  0  0  0  0  0  0  0  0
   -1.4180   17.5447   43.0182 H   0  0  0  0  0  0  0  0  0  0  0  0
    3.1371   15.5182   39.9057 H   0  0  0  0  0  0  0  0  0  0  0  0
    1.3979   15.5674   39.5026 H   0  0  0  0  0  0  0  0  0  0  0  0
    1.9331   14.8767   42.5793 H   0  0  0  0  0  0  0  0  0  0  0  0
    0.8931   14.7937   41.1169 H   0  0  0  0  0  0  0  0  0  0  0  0
    2.6377   14.3808   41.0031 H   0  0  0  0  0  0  0  0  0  0  0  0
   -1.9865   19.4720   41.4302 H   0  0  0  0  0  0  0  0  0  0  0  0
   -2.5924   19.5301   43.0552 H   0  0  0  0  0  0  0  0  0  0  0  0
    1.2856   17.3899   43.8334 H   0  0  0  0  0  0  0  0  0  0  0  0
    0.1535   18.1000   45.0175 H   0  0  0  0  0  0  0  0  0  0  0  0
    2.6887   20.9314   40.7316 H   0  0  0  0  0  0  0  0  0  0  0  0
    1.6808   21.0008   39.2753 H   0  0  0  0  0  0  0  0  0  0  0  0
    2.7060   17.9722   39.0457 H   0  0  0  0  0  0  0  0  0  0  0  0
    1.8369   15.6667   37.4658 H   0  0  0  0  0  0  0  0  0  0  0  0
    3.6366   15.5664   37.9463 H   0  0  0  0  0  0  0  0  0  0  0  0
    1.1171   19.5228   42.1697 H   0  0  0  0  0  0  0  0  0  0  0  0
   -0.5045   15.7980   45.4037 H   0  0  0  0  0  0  0  0  0  0  0  0
   -1.4706   16.0078   43.9040 H   0  0  0  0  0  0  0  0  0  0  0  0
    0.1570   15.2519   43.8255 H   0  0  0  0  0  0  0  0  0  0  0  0
    2.9458   20.7114   38.2728 H   0  0  0  0  0  0  0  0  0  0  0  0
    1.7832   19.6242   40.1647 H   0  0  0  0  0  0  0  0  0  0  0  0
    0.7807   16.6954   42.7827 H   0  0  0  0  0  0  0  0  0  0  0  0
    0.1846   16.8235   40.9514 H   0  0  0  0  0  0  0  0  0  0  0  0
   -1.1988   21.8798   41.1567 H   0  0  0  0  0  0  0  0  0  0  0  0
    3.2581   16.4411   41.5151 H   0  0  0  0  0  0  0  0  0  0  0  0
    3.5446   18.5980   38.7838 H   0  0  0  0  0  0  0  0  0  0  0  0
  1 11  1  0
  1 15  1  0
  3 10  1  0
  4  2  2  0
  6 14  1  0
  6 24  1  0
  7 18  2  0
  9  3  1  0
  9  4  1  0
 10 16  1  0
 11 18  1  0
 12  5  1  0
 12 20  1  0
 12 23  1  0
 13  6  2  0
 14  5  1  0
 15 21  1  0
 15  3  1  0
 17 24  1  0
 18 22  1  0
 19 17  2  0
 20  1  1  0
 22  4  1  0
 23  8  1  0
 23 21  1  0
 24 20  1  0
 25 19  2  0
  1 26  1  6
  3 27  1  6
  5 28  1  0
  5 29  1  0
  8 30  1  0
  8 31  1  0
  8 32  1  0
  9 33  1  0
  9 34  1  0
 10 35  1  0
 10 36  1  0
 11 37  1  0
 11 38  1  0
 12 39  1  1
 14 40  1  0
 14 41  1  0
 15 42  1  1
 16 43  1  0
 16 44  1  0
 16 45  1  0
 17 46  1  0
 20 47  1  1
 21 48  1  0
 21 49  1  0
 22 50  1  0
 23 51  1  1
 24 52  1  6
M  END
>  <mol_id>  (18) 
2026-08-24-6tgu-s0-n100-seed1-0019

>  <rmsd_to_ref>  (18) 


$$$$

     RDKit          3D

 30 30  0  0  0  0  0  0  0  0999 V2000
    1.3538   20.9310   40.6833 C   0  0  0  0  0  0  0  0  0  0  0  0
    2.5301   16.7885   37.1470 C   0  0  0  0  0  0  0  0  0  0  0  0
    0.9655   18.3540   42.2084 C   0  0  0  0  0  0  0  0  0  0  0  0
    2.9394   19.7689   39.4356 C   0  0  0  0  0  0  0  0  0  0  0  0
    0.4677   20.6475   43.0194 C   0  0  0  0  0  0  0  0  0  0  0  0
   -0.1045   18.4253   44.6640 Cl  0  0  0  0  0  0  0  0  0  0  0  0
    1.9071   19.6701   40.3809 C   0  0  2  0  0  0  0  0  0  0  0  0
    0.5049   19.2540   43.1763 C   0  0  1  0  0  0  0  0  0  0  0  0
    2.4289   19.0160   37.1843 C   0  0  0  0  0  0  0  0  0  0  0  0
    0.8868   21.4555   41.8591 C   0  0  0  0  0  0  0  0  0  0  0  0
    2.3280   17.9690   36.4598 O   0  0  0  0  0  0  0  0  0  0  0  0
    2.9891   18.7096   38.4359 C   0  0  0  0  0  0  0  0  0  0  0  0
   -0.0342   21.3000   43.9605 O   0  0  0  0  0  0  0  0  0  0  0  0
    2.1226   20.1852   36.8290 O   0  0  0  0  0  0  0  0  0  0  0  0
    1.5059   18.4667   40.9393 C   0  0  0  0  0  0  0  0  0  0  0  0
    0.4939   21.0097   40.0019 H   0  0  0  0  0  0  0  0  0  0  0  0
    2.2956   21.4984   40.6517 H   0  0  0  0  0  0  0  0  0  0  0  0
    2.7492   17.0111   38.2018 H   0  0  0  0  0  0  0  0  0  0  0  0
    1.6243   16.1677   37.0838 H   0  0  0  0  0  0  0  0  0  0  0  0
    3.3780   16.2463   36.7030 H   0  0  0  0  0  0  0  0  0  0  0  0
    0.8767   17.3071   42.5342 H   0  0  0  0  0  0  0  0  0  0  0  0
    2.8220   20.7264   38.9069 H   0  0  0  0  0  0  0  0  0  0  0  0
    3.8757   19.6841   40.0067 H   0  0  0  0  0  0  0  0  0  0  0  0
    2.6384   19.7963   41.1928 H   0  0  0  0  0  0  0  0  0  0  0  0
    1.5211   19.3279   43.5910 H   0  0  0  0  0  0  0  0  0  0  0  0
    1.6864   22.1140   42.2290 H   0  0  0  0  0  0  0  0  0  0  0  0
   -0.0804   21.8653   41.5326 H   0  0  0  0  0  0  0  0  0  0  0  0
    2.4520   17.8393   38.8409 H   0  0  0  0  0  0  0  0  0  0  0  0
    4.0579   18.5313   38.2463 H   0  0  0  0  0  0  0  0  0  0  0  0
    1.6235   17.5511   40.3411 H   0  0  0  0  0  0  0  0  0  0  0  0
  1 10  1  0
  3  8  1  0
  5  8  1  0
  5 13  2  0
  7  4  1  0
  7  1  1  0
  7 15  1  0
  8  6  1  0
  9 12  1  0
 10  5  1  0
 11  2  1  0
 11  9  1  0
 12  4  1  0
 14  9  2  0
 15  3  2  0
  1 16  1  0
  1 17  1  0
  2 18  1  0
  2 19  1  0
  2 20  1  0
  3 21  1  0
  4 22  1  0
  4 23  1  0
  7 24  1  1
  8 25  1  1
 10 26  1  0
 10 27  1  0
 12 28  1  0
 12 29  1  0
 15 30  1  0
M  END
>  <mol_id>  (19) 
2026-08-24-6tgu-s0-n100-seed1-0020

>  <rmsd_to_ref>  (19) 


$$$$

     RDKit          3D

 28 29  0  0  0  0  0  0  0  0999 V2000
    2.0910   17.3262   40.8096 C   0  0  0  0  0  0  0  0  0  0  0  0
    2.2057   19.2582   38.7423 N   0  0  0  0  0  0  0  0  0  0  0  0
    1.1781   19.8793   40.9028 C   0  0  0  0  0  0  0  0  0  0  0  0
    2.7659   20.0247   37.8311 C   0  0  0  0  0  0  0  0  0  0  0  0
    2.9658   14.9420   40.3326 C   0  0  0  0  0  0  0  0  0  0  0  0
    0.5841   19.0936   41.9052 C   0  0  0  0  0  0  0  0  0  0  0  0
    1.5739   15.7551   42.3157 N   0  0  0  0  0  0  0  0  0  0  0  0
    2.5844   18.0837   39.4565 C   0  0  0  0  0  0  0  0  0  0  0  0
   -0.7694   20.8905   42.5808 C   0  0  0  0  0  0  0  0  0  0  0  0
    3.4830   17.4669   38.9019 O   0  0  0  0  0  0  0  0  0  0  0  0
    1.2312   17.9024   41.8358 C   0  0  1  0  0  0  0  0  0  0  0  0
    0.8915   21.2703   40.7778 C   0  0  0  0  0  0  0  0  0  0  0  0
   -0.1672   21.7207   41.6280 C   0  0  0  0  0  0  0  0  0  0  0  0
    3.6348   19.7950   36.7173 O   0  0  0  0  0  0  0  0  0  0  0  0
    2.2065   15.9802   41.1302 C   0  0  0  0  0  0  0  0  0  0  0  0
    1.0432   16.8148   42.7192 N   0  0  0  0  0  0  0  0  0  0  0  0
   -0.4252   19.5911   42.7182 C   0  0  0  0  0  0  0  0  0  0  0  0
    2.3143   21.0955   37.9551 O   0  0  0  0  0  0  0  0  0  0  0  0
    1.2649   19.5865   39.0029 H   0  0  0  0  0  0  0  0  0  0  0  0
    1.8805   19.4101   40.1982 H   0  0  0  0  0  0  0  0  0  0  0  0
    3.5019   14.2713   41.0202 H   0  0  0  0  0  0  0  0  0  0  0  0
    2.2591   14.3567   39.7260 H   0  0  0  0  0  0  0  0  0  0  0  0
    3.6883   15.4434   39.6719 H   0  0  0  0  0  0  0  0  0  0  0  0
   -1.5464   21.3086   43.2376 H   0  0  0  0  0  0  0  0  0  0  0  0
    1.3069   18.9946   41.9422 H   0  0  0  0  0  0  0  0  0  0  0  0
    1.4345   21.9360   40.0909 H   0  0  0  0  0  0  0  0  0  0  0  0
   -0.5211   22.7575   41.5295 H   0  0  0  0  0  0  0  0  0  0  0  0
   -0.9300   18.9463   43.4526 H   0  0  0  0  0  0  0  0  0  0  0  0
  1 15  2  0
  1 11  1  0
  2  8  1  0
  3 12  2  0
  3  6  1  0
  4 18  1  0
  4  2  1  0
  5 15  1  0
  6 17  2  0
  7 16  2  0
  8  1  1  0
 10  8  2  0
 11  6  1  0
 11 16  1  0
 12 13  1  0
 13  9  2  0
 14  4  2  0
 15  7  1  0
 17  9  1  0
  2 19  1  0
  3 20  1  0
  5 21  1  0
  5 22  1  0
  5 23  1  0
  9 24  1  0
 11 25  1  1
 12 26  1  0
 13 27  1  0
 17 28  1  0
M  CHG  1  18  -1
M  END
>  <mol_id>  (20) 
2026-08-24-6tgu-s0-n100-seed1-0021

>  <rmsd_to_ref>  (20) 


$$$$

     RDKit          3D

 48 50  0  0  0  0  0  0  0  0999 V2000
    1.0440   14.6690   42.0830 C   0  0  0  0  0  0  0  0  0  0  0  0
    1.5470   16.0000   42.5960 C   0  0  0  0  0  0  0  0  0  0  0  0
    2.6950   17.4200   39.1860 N   0  0  0  0  0  0  0  0  0  0  0  0
    0.2250   18.2130   42.7830 C   0  0  0  0  0  0  0  0  0  0  0  0
    0.8690   20.8610   41.3960 C   0  0  0  0  0  0  0  0  0  0  0  0
    1.9010   20.8820   38.5480 C   0  0  0  0  0  0  0  0  0  0  0  0
    2.0050   13.5740   41.9900 C   0  0  0  0  0  0  0  0  0  0  0  0
    4.7550   15.4610   38.1800 S   0  0  0  0  0  0  0  0  0  0  0  0
   -1.2460   14.7510   43.9160 N   0  0  0  0  0  0  0  0  0  0  0  0
   -0.5640   15.7630   43.7090 C   0  0  0  0  0  0  0  0  0  0  0  0
    3.8030   17.6450   37.1220 O   0  0  0  0  0  0  0  0  0  0  0  0
    3.5580   16.7880   38.1290 C   0  0  0  0  0  0  0  0  0  0  0  0
    0.3480   16.7770   43.1590 C   0  0  1  0  0  0  0  0  0  0  0  0
    3.2780   18.9630   37.5890 C   0  0  1  0  0  0  0  0  0  0  0  0
    1.9250   19.7930   39.4830 C   0  0  0  0  0  0  0  0  0  0  0  0
    3.5350   19.8710   36.6410 C   0  0  0  0  0  0  0  0  0  0  0  0
    5.0570   15.3840   36.4440 C   0  0  0  0  0  0  0  0  0  0  0  0
    2.7830   18.8280   38.9230 C   0  0  1  0  0  0  0  0  0  0  0  0
   -0.3860   19.0520   43.6660 C   0  0  0  0  0  0  0  0  0  0  0  0
    3.1900   21.7080   35.3440 O   0  0  0  0  0  0  0  0  0  0  0  0
    2.1110   21.4860   37.3970 C   0  0  0  0  0  0  0  0  0  0  0  0
   -0.5590   20.4200   43.4180 C   0  0  0  0  0  0  0  0  0  0  0  0
    2.9510   21.1400   36.3740 C   0  0  0  0  0  0  0  0  0  0  0  0
    0.1080   21.1420   42.5050 C   0  0  0  0  0  0  0  0  0  0  0  0
    0.9640   18.4620   41.6110 C   0  0  0  0  0  0  0  0  0  0  0  0
    1.2100   19.6800   40.8350 C   0  0  0  0  0  0  0  0  0  0  0  0
    0.2360   14.3417   42.7538 H   0  0  0  0  0  0  0  0  0  0  0  0
    0.7431   14.8658   41.0434 H   0  0  0  0  0  0  0  0  0  0  0  0
    2.2915   15.8369   43.3892 H   0  0  0  0  0  0  0  0  0  0  0  0
    2.0216   16.5679   41.7822 H   0  0  0  0  0  0  0  0  0  0  0  0
    1.2674   21.7458   40.8780 H   0  0  0  0  0  0  0  0  0  0  0  0
    2.2899   13.2493   43.0016 H   0  0  0  0  0  0  0  0  0  0  0  0
    1.5495   12.7314   41.4491 H   0  0  0  0  0  0  0  0  0  0  0  0
    2.8996   13.9162   41.4491 H   0  0  0  0  0  0  0  0  0  0  0  0
    0.1000   17.5129   43.9381 H   0  0  0  0  0  0  0  0  0  0  0  0
    4.2471   19.1817   38.0612 H   0  0  0  0  0  0  0  0  0  0  0  0
    4.6027   20.0976   36.7779 H   0  0  0  0  0  0  0  0  0  0  0  0
    3.0607   19.3302   35.8088 H   0  0  0  0  0  0  0  0  0  0  0  0
    6.1089   15.1158   36.2664 H   0  0  0  0  0  0  0  0  0  0  0  0
    4.4033   14.6238   35.9915 H   0  0  0  0  0  0  0  0  0  0  0  0
    4.8471   16.3644   35.9915 H   0  0  0  0  0  0  0  0  0  0  0  0
    3.4704   19.2538   39.6688 H   0  0  0  0  0  0  0  0  0  0  0  0
   -1.3941   18.6423   43.8267 H   0  0  0  0  0  0  0  0  0  0  0  0
    0.3366   19.0663   44.4952 H   0  0  0  0  0  0  0  0  0  0  0  0
    1.5255   22.4028   37.2341 H   0  0  0  0  0  0  0  0  0  0  0  0
   -1.3080   20.9489   44.0257 H   0  0  0  0  0  0  0  0  0  0  0  0
    0.0255   22.2233   42.6893 H   0  0  0  0  0  0  0  0  0  0  0  0
    1.4520   17.5673   41.1970 H   0  0  0  0  0  0  0  0  0  0  0  0
  1  2  1  0
  4 13  1  0
  4 19  1  0
  5 24  1  0
  6 15  2  0
  7  1  1  0
 10  9  3  0
 11 14  1  0
 11 12  1  0
 12  8  1  0
 12  3  2  0
 13  2  1  0
 13 10  1  0
 14 16  1  0
 14 18  1  0
 15 26  1  0
 17  8  1  0
 18  3  1  0
 18 15  1  0
 20 23  2  0
 21  6  2  0
 22 19  1  0
 23 16  1  0
 23 21  1  0
 24 22  2  0
 25  4  2  0
 26  5  2  0
 26 25  1  0
  1 27  1  0
  1 28  1  0
  2 29  1  0
  2 30  1  0
  5 31  1  0
  7 32  1  0
  7 33  1  0
  7 34  1  0
 13 35  1  1
 14 36  1  6
 16 37  1  0
 16 38  1  0
 17 39  1  0
 17 40  1  0
 17 41  1  0
 18 42  1  1
 19 43  1  0
 19 44  1  0
 21 45  1  0
 22 46  1  0
 24 47  1  0
 25 48  1  0
M  END
>  <mol_id>  (21) 
2026-08-24-6tgu-s0-n100-seed1-0022

>  <rmsd_to_ref>  (21) 


$$$$

     RDKit          3D

 44 46  0  0  0  0  0  0  0  0999 V2000
    3.2340   18.0990   37.8770 C   0  0  0  0  0  0  0  0  0  0  0  0
    2.6650   15.9860   39.6190 C   0  0  1  0  0  0  0  0  0  0  0  0
    2.7320   19.6040   38.1300 C   0  0  2  0  0  0  0  0  0  0  0  0
    3.0770   15.5720   38.4380 C   0  0  0  0  0  0  0  0  0  0  0  0
   -1.1510   19.7140   44.4590 N   0  0  0  0  0  0  0  0  0  0  0  0
    2.5080   17.4420   39.9530 C   0  0  0  0  0  0  0  0  0  0  0  0
    3.5200   16.0010   37.2850 C   0  0  0  0  0  0  0  0  0  0  0  0
    0.3150   18.4490   43.0700 C   0  0  0  0  0  0  0  0  0  0  0  0
    3.6700   17.3100   36.8570 C   0  0  0  0  0  0  0  0  0  0  0  0
   -0.4820   18.5330   44.2560 C   0  0  2  0  0  0  0  0  0  0  0  0
    3.8970   20.1920   36.0900 O   0  0  0  0  0  0  0  0  0  0  0  0
    2.9700   20.4460   36.8120 C   0  0  0  0  0  0  0  0  0  0  0  0
    2.1780   21.3690   36.7420 O   0  0  0  0  0  0  0  0  0  0  0  0
   -0.2660   20.6110   42.4920 C   0  0  0  0  0  0  0  0  0  0  0  0
    1.2080   17.3290   42.4920 C   0  0  0  0  0  0  0  0  0  0  0  0
    2.9540   20.3300   39.3280 C   0  0  0  0  0  0  0  0  0  0  0  0
    1.3820   19.2310   41.1810 N   0  0  0  0  0  0  0  0  0  0  0  0
    0.4860   19.4470   42.2680 C   0  0  0  0  0  0  0  0  0  0  0  0
    2.2670   14.9170   40.6310 C   0  0  0  0  0  0  0  0  0  0  0  0
    2.0100   17.9070   41.3750 C   0  0  0  0  0  0  0  0  0  0  0  0
   -0.9820   20.6800   43.5960 C   0  0  0  0  0  0  0  0  0  0  0  0
   -0.6680   17.4440   45.3010 C   0  0  0  0  0  0  0  0  0  0  0  0
    2.8160   18.3650   38.7500 C   0  0  0  0  0  0  0  0  0  0  0  0
    2.6127   18.7565   37.2512 H   0  0  0  0  0  0  0  0  0  0  0  0
    4.0919   17.7315   38.4591 H   0  0  0  0  0  0  0  0  0  0  0  0
    3.6833   16.0004   40.0347 H   0  0  0  0  0  0  0  0  0  0  0  0
    2.0656   19.3293   37.2990 H   0  0  0  0  0  0  0  0  0  0  0  0
    3.0324   14.4732   38.4131 H   0  0  0  0  0  0  0  0  0  0  0  0
    3.8105   15.2236   36.5630 H   0  0  0  0  0  0  0  0  0  0  0  0
    4.7274   17.5202   36.6384 H   0  0  0  0  0  0  0  0  0  0  0  0
    3.0989   17.4967   35.9356 H   0  0  0  0  0  0  0  0  0  0  0  0
    0.3829   18.9278   44.8092 H   0  0  0  0  0  0  0  0  0  0  0  0
   -0.2578   21.4396   41.7685 H   0  0  0  0  0  0  0  0  0  0  0  0
    1.2459   16.2871   42.8428 H   0  0  0  0  0  0  0  0  0  0  0  0
    2.7552   19.6800   40.1928 H   0  0  0  0  0  0  0  0  0  0  0  0
    3.9984   20.6739   39.3601 H   0  0  0  0  0  0  0  0  0  0  0  0
    2.2806   21.1992   39.3601 H   0  0  0  0  0  0  0  0  0  0  0  0
    2.4114   15.3050   41.6501 H   0  0  0  0  0  0  0  0  0  0  0  0
    1.2095   14.6508   40.4864 H   0  0  0  0  0  0  0  0  0  0  0  0
    2.8929   14.0241   40.4864 H   0  0  0  0  0  0  0  0  0  0  0  0
   -1.4819   21.6362   43.8100 H   0  0  0  0  0  0  0  0  0  0  0  0
   -0.5929   17.8839   46.3064 H   0  0  0  0  0  0  0  0  0  0  0  0
   -1.6582   16.9814   45.1763 H   0  0  0  0  0  0  0  0  0  0  0  0
    0.1125   16.6790   45.1763 H   0  0  0  0  0  0  0  0  0  0  0  0
  1 23  1  0
  2  6  1  0
  2 19  1  0
  3 23  1  0
  3 16  1  0
  4  2  1  0
  6 20  1  0
  7  4  2  0
  8 10  1  0
  9  7  1  0
  9  1  1  0
 10  5  1  0
 10 22  1  0
 11 12  2  0
 12  3  1  0
 13 12  1  0
 14 21  1  0
 15  8  2  0
 17 20  2  0
 17 18  1  0
 18 14  2  0
 18  8  1  0
 20 15  1  0
 21  5  2  0
 23  6  2  0
  1 24  1  0
  1 25  1  0
  2 26  1  1
  3 27  1  1
  4 28  1  0
  7 29  1  0
  9 30  1  0
  9 31  1  0
 10 32  1  1
 14 33  1  0
 15 34  1  0
 16 35  1  0
 16 36  1  0
 16 37  1  0
 19 38  1  0
 19 39  1  0
 19 40  1  0
 21 41  1  0
 22 42  1  0
 22 43  1  0
 22 44  1  0
M  CHG  1  13  -1
M  END
>  <mol_id>  (22) 
2026-08-24-6tgu-s0-n100-seed1-0023

>  <rmsd_to_ref>  (22) 


$$$$

     RDKit          3D

 55 58  0  0  0  0  0  0  0  0999 V2000
    2.3424   12.0162   34.5698 C   0  0  0  0  0  0  0  0  0  0  0  0
    2.5351   18.2760   39.7885 C   0  0  0  0  0  0  0  0  0  0  0  0
    2.5487   19.3641   38.9317 C   0  0  0  0  0  0  0  0  0  0  0  0
    2.8263   16.7029   38.1432 C   0  0  0  0  0  0  0  0  0  0  0  0
   -0.2685   18.6100   44.0921 C   0  0  0  0  0  0  0  0  0  0  0  0
   -0.9186   15.4970   45.3827 C   0  0  0  0  0  0  0  0  0  0  0  0
    4.0203   20.0554   35.5647 C   0  0  0  0  0  0  0  0  0  0  0  0
   -0.8161   17.4655   46.6696 C   0  0  0  0  0  0  0  0  0  0  0  0
   -0.6256   16.2501   44.7229 N   0  0  0  0  0  0  0  0  0  0  0  0
   -0.7958   19.8748   43.8481 N   0  0  0  0  0  0  0  0  0  0  0  0
    0.7623   18.6963   41.9904 C   0  0  0  0  0  0  0  0  0  0  0  0
    3.2246   20.1430   36.6820 C   0  0  0  0  0  0  0  0  0  0  0  0
    2.5083   21.3026   36.5779 C   0  0  0  0  0  0  0  0  0  0  0  0
    3.0969   13.0685   35.1287 N   0  0  0  0  0  0  0  0  0  0  0  0
   -0.3992   20.5217   42.8109 C   0  0  0  0  0  0  0  0  0  0  0  0
   -2.1342   17.0740   47.4195 C   0  0  0  0  0  0  0  0  0  0  0  0
    1.1395   20.7354   40.6985 C   0  0  0  0  0  0  0  0  0  0  0  0
    2.8360   17.0040   39.4805 C   0  0  0  0  0  0  0  0  0  0  0  0
    3.0399   17.6987   37.2482 C   0  0  0  0  0  0  0  0  0  0  0  0
    0.5777   20.0097   41.7772 C   0  0  0  0  0  0  0  0  0  0  0  0
    2.7704   13.5206   36.3896 C   0  0  0  0  0  0  0  0  0  0  0  0
   -0.6202   17.5286   45.2465 C   0  0  2  0  0  0  0  0  0  0  0  0
    2.8116   21.8280   35.3077 N   0  0  0  0  0  0  0  0  0  0  0  0
    2.9166   14.8315   36.6608 N   0  0  0  0  0  0  0  0  0  0  0  0
    2.1332   20.8963   39.4427 S   0  0  0  0  0  0  0  0  0  0  0  0
    2.5658   15.2983   37.8463 C   0  0  0  0  0  0  0  0  0  0  0  0
    2.0056   14.5966   38.6664 O   0  0  0  0  0  0  0  0  0  0  0  0
   -0.8255   15.2669   44.1821 O   0  0  0  0  0  0  0  0  0  0  0  0
    0.1930   17.5995   47.2564 O   0  0  0  0  0  0  0  0  0  0  0  0
    0.3452   17.9464   43.0232 C   0  0  0  0  0  0  0  0  0  0  0  0
    3.7513   21.1348   34.7455 N   0  0  0  0  0  0  0  0  0  0  0  0
    2.3895   12.6859   37.2172 O   0  0  0  0  0  0  0  0  0  0  0  0
    3.0372   19.0678   37.6400 C   0  0  0  0  0  0  0  0  0  0  0  0
    1.9625   11.3698   35.3746 H   0  0  0  0  0  0  0  0  0  0  0  0
    1.4962   12.4323   34.0034 H   0  0  0  0  0  0  0  0  0  0  0  0
    2.9801   11.4257   33.8954 H   0  0  0  0  0  0  0  0  0  0  0  0
    2.2475   18.4747   40.8315 H   0  0  0  0  0  0  0  0  0  0  0  0
   -0.1900   15.0651   46.0846 H   0  0  0  0  0  0  0  0  0  0  0  0
   -1.7101   15.3870   46.1387 H   0  0  0  0  0  0  0  0  0  0  0  0
    4.7498   19.2587   35.3573 H   0  0  0  0  0  0  0  0  0  0  0  0
    1.3316   18.1635   41.2146 H   0  0  0  0  0  0  0  0  0  0  0  0
    3.5573   19.9443   37.7115 H   0  0  0  0  0  0  0  0  0  0  0  0
    1.8340   21.7357   37.3313 H   0  0  0  0  0  0  0  0  0  0  0  0
    3.8768   13.4910   34.6050 H   0  0  0  0  0  0  0  0  0  0  0  0
   -0.8048   21.5334   42.6628 H   0  0  0  0  0  0  0  0  0  0  0  0
   -1.9519   17.0715   48.5043 H   0  0  0  0  0  0  0  0  0  0  0  0
   -2.9220   17.8040   47.1818 H   0  0  0  0  0  0  0  0  0  0  0  0
   -2.4545   16.0716   47.0992 H   0  0  0  0  0  0  0  0  0  0  0  0
    0.2014   20.9776   40.1777 H   0  0  0  0  0  0  0  0  0  0  0  0
    1.9836   20.9920   41.3555 H   0  0  0  0  0  0  0  0  0  0  0  0
    3.0742   16.2544   40.2494 H   0  0  0  0  0  0  0  0  0  0  0  0
    3.2196   17.4427   36.1937 H   0  0  0  0  0  0  0  0  0  0  0  0
   -1.6906   17.6283   45.0138 H   0  0  0  0  0  0  0  0  0  0  0  0
    3.3002   15.4676   35.9473 H   0  0  0  0  0  0  0  0  0  0  0  0
    0.4804   16.8547   43.0290 H   0  0  0  0  0  0  0  0  0  0  0  0
  1 14  1  0
  3 25  1  0
  3  2  1  0
  4 18  1  0
  5 22  1  0
  7 12  1  0
  8 29  2  0
  8 16  1  0
  9 22  1  0
  9  6  1  0
 10  5  1  0
 11 30  1  0
 12 33  1  0
 13 12  1  0
 14 21  1  0
 15 10  2  0
 17 20  1  0
 18  2  2  0
 19 33  1  0
 19  4  2  0
 20 11  2  0
 20 15  1  0
 21 24  1  0
 21 32  2  0
 22  8  1  0
 23 13  2  0
 24 26  1  0
 25 17  1  0
 26  4  1  0
 26 27  2  0
 28  9  1  0
 28  6  1  0
 30  5  2  0
 31 23  1  0
 31  7  2  0
 33  3  2  0
  1 34  1  0
  1 35  1  0
  1 36  1  0
  2 37  1  0
  6 38  1  0
  6 39  1  0
  7 40  1  0
 11 41  1  0
 12 42  1  0
 13 43  1  0
 14 44  1  0
 15 45  1  0
 16 46  1  0
 16 47  1  0
 16 48  1  0
 17 49  1  0
 17 50  1  0
 18 51  1  0
 19 52  1  0
 22 53  1  6
 24 54  1  0
 30 55  1  0
M  END
>  <mol_id>  (23) 
2026-08-24-6tgu-s0-n100-seed1-0024

>  <rmsd_to_ref>  (23) 


$$$$

     RDKit          3D

 39 41  0  0  0  0  0  0  0  0999 V2000
    1.7989   21.3657   39.4316 C   0  0  0  0  0  0  0  0  0  0  0  0
    2.8486   17.3900   39.1641 C   0  0  0  0  0  0  0  0  0  0  0  0
    2.3481   19.0433   39.2495 C   0  0  0  0  0  0  0  0  0  0  0  0
    2.8077   16.2342   39.8542 N   0  0  0  0  0  0  0  0  0  0  0  0
    1.5484   18.3485   41.3306 N   0  0  0  0  0  0  0  0  0  0  0  0
    1.8289   19.2659   40.4438 N   0  0  0  0  0  0  0  0  0  0  0  0
    0.4570   19.7277   43.1422 C   0  0  0  0  0  0  0  0  0  0  0  0
    2.8124   20.2139   37.0552 C   0  0  0  0  0  0  0  0  0  0  0  0
    0.7579   17.2047   43.2821 C   0  0  0  0  0  0  0  0  0  0  0  0
    0.1235   17.3443   44.5032 C   0  0  0  0  0  0  0  0  0  0  0  0
    3.2033   18.9044   37.1302 C   0  0  0  0  0  0  0  0  0  0  0  0
   -0.1788   15.9137   45.2297 C   0  0  0  0  0  0  0  0  0  0  0  0
   -0.1705   19.7136   44.3530 N   0  0  0  0  0  0  0  0  0  0  0  0
    2.8806   18.3676   38.4634 C   0  0  1  0  0  0  0  0  0  0  0  0
    3.1932   14.0694   39.3731 O   0  0  0  0  0  0  0  0  0  0  0  0
    1.3177   15.6633   42.9098 Cl  0  0  0  0  0  0  0  0  0  0  0  0
    3.0845   15.2900   38.9999 C   0  0  0  0  0  0  0  0  0  0  0  0
   -0.3628   18.5422   44.9886 C   0  0  0  0  0  0  0  0  0  0  0  0
    3.2931   15.5909   37.5206 C   0  0  0  0  0  0  0  0  0  0  0  0
    0.8481   18.4972   42.5303 C   0  0  0  0  0  0  0  0  0  0  0  0
    2.2614   20.6645   38.3343 C   0  0  0  0  0  0  0  0  0  0  0  0
    1.3451   20.5280   40.7597 C   0  0  0  0  0  0  0  0  0  0  0  0
    1.7376   22.4638   39.4116 H   0  0  0  0  0  0  0  0  0  0  0  0
    1.9808   17.7810   39.7155 H   0  0  0  0  0  0  0  0  0  0  0  0
    3.9471   17.3362   39.1392 H   0  0  0  0  0  0  0  0  0  0  0  0
    2.5993   16.1196   40.8564 H   0  0  0  0  0  0  0  0  0  0  0  0
    1.8851   17.3983   41.1192 H   0  0  0  0  0  0  0  0  0  0  0  0
    0.6614   20.6837   42.6381 H   0  0  0  0  0  0  0  0  0  0  0  0
    2.9002   20.8420   36.1564 H   0  0  0  0  0  0  0  0  0  0  0  0
    3.6850   18.3392   36.3188 H   0  0  0  0  0  0  0  0  0  0  0  0
   -0.0268   16.0141   46.3146 H   0  0  0  0  0  0  0  0  0  0  0  0
   -1.2184   15.6140   45.0312 H   0  0  0  0  0  0  0  0  0  0  0  0
    0.5053   15.1491   44.8328 H   0  0  0  0  0  0  0  0  0  0  0  0
    1.8516   18.1638   38.1322 H   0  0  0  0  0  0  0  0  0  0  0  0
   -0.9293   18.5393   45.9315 H   0  0  0  0  0  0  0  0  0  0  0  0
    4.1084   16.3205   37.4062 H   0  0  0  0  0  0  0  0  0  0  0  0
    3.5545   14.6630   36.9910 H   0  0  0  0  0  0  0  0  0  0  0  0
    2.3671   16.0065   37.0968 H   0  0  0  0  0  0  0  0  0  0  0  0
    0.8058   20.8697   41.6555 H   0  0  0  0  0  0  0  0  0  0  0  0
  1 22  2  0
  2  4  1  0
  3  6  1  0
  5 20  1  0
  6 22  1  0
  6  5  1  0
  7 13  2  0
  8 11  2  0
  8 21  1  0
  9 10  1  0
 10 18  2  0
 10 12  1  0
 11 14  1  0
 13 18  1  0
 14  2  1  0
 14  3  1  0
 16  9  1  0
 17 15  2  0
 17  4  1  0
 19 17  1  0
 20  7  1  0
 20  9  2  0
 21  3  2  0
 21  1  1  0
  1 23  1  0
  2 24  1  0
  2 25  1  0
  4 26  1  0
  5 27  1  0
  7 28  1  0
  8 29  1  0
 11 30  1  0
 12 31  1  0
 12 32  1  0
 12 33  1  0
 14 34  1  1
 18 35  1  0
 19 36  1  0
 19 37  1  0
 19 38  1  0
 22 39  1  0
M  END
>  <mol_id>  (24) 
2026-08-24-6tgu-s0-n100-seed1-0025

>  <rmsd_to_ref>  (24) 


$$$$

     RDKit          3D

 34 36  0  0  0  0  0  0  0  0999 V2000
    0.7088   17.3926   42.7376 C   0  0  0  0  0  0  0  0  0  0  0  0
    3.3396   19.2695   36.7276 N   0  0  0  0  0  0  0  0  0  0  0  0
    1.7614   17.8681   40.6421 C   0  0  2  0  0  0  0  0  0  0  0  0
    2.3739   20.7656   38.4156 C   0  0  0  0  0  0  0  0  0  0  0  0
    2.0082   20.8114   41.2835 Cl  0  0  0  0  0  0  0  0  0  0  0  0
    1.3349   16.8575   41.6504 C   0  0  1  0  0  0  0  0  0  0  0  0
    1.7717   15.5918   41.4922 N   0  0  0  0  0  0  0  0  0  0  0  0
    2.8008   18.4438   38.8872 C   0  0  0  0  0  0  0  0  0  0  0  0
    0.0238   19.4772   43.0581 C   0  0  0  0  0  0  0  0  0  0  0  0
    2.5322   17.3829   39.6674 O   0  0  0  0  0  0  0  0  0  0  0  0
    0.3218   16.9839   43.9008 C   0  0  0  0  0  0  0  0  0  0  0  0
    2.0663   14.5255   41.3250 N   0  0  0  0  0  0  0  0  0  0  0  0
   -0.2917   17.8429   44.7944 C   0  0  0  0  0  0  0  0  0  0  0  0
    1.8322   19.2671   40.6422 C   0  0  1  0  0  0  0  0  0  0  0  0
    2.3309   19.6251   39.3211 C   0  0  0  0  0  0  0  0  0  0  0  0
    3.3020   18.2980   37.6552 C   0  0  0  0  0  0  0  0  0  0  0  0
    0.5436   18.7435   42.3189 N   0  0  0  0  0  0  0  0  0  0  0  0
    0.4410   15.7236   44.3944 O   0  0  0  0  0  0  0  0  0  0  0  0
    2.9075   21.5093   36.1982 O   0  0  0  0  0  0  0  0  0  0  0  0
    2.8513   20.5009   37.1149 C   0  0  0  0  0  0  0  0  0  0  0  0
   -0.3916   19.0444   44.4291 C   0  0  0  0  0  0  0  0  0  0  0  0
    0.6831   18.0046   40.8113 H   0  0  0  0  0  0  0  0  0  0  0  0
    1.3522   21.1632   38.3254 H   0  0  0  0  0  0  0  0  0  0  0  0
    3.0919   21.4711   38.8589 H   0  0  0  0  0  0  0  0  0  0  0  0
    0.5062   16.1343   41.6344 H   0  0  0  0  0  0  0  0  0  0  0  0
    2.6276   15.9233   41.0249 H   0  0  0  0  0  0  0  0  0  0  0  0
   -0.1667   20.5132   42.7414 H   0  0  0  0  0  0  0  0  0  0  0  0
    2.3250   14.0957   42.2246 H   0  0  0  0  0  0  0  0  0  0  0  0
    1.2745   14.0110   40.9137 H   0  0  0  0  0  0  0  0  0  0  0  0
   -0.6703   17.4971   45.7676 H   0  0  0  0  0  0  0  0  0  0  0  0
    1.1899   18.9989   41.4939 H   0  0  0  0  0  0  0  0  0  0  0  0
    3.7118   17.3142   37.3826 H   0  0  0  0  0  0  0  0  0  0  0  0
    0.1098   15.5146   45.3036 H   0  0  0  0  0  0  0  0  0  0  0  0
   -0.7921   19.7901   45.1317 H   0  0  0  0  0  0  0  0  0  0  0  0
  1 11  2  0
  2 20  1  0
  2 16  2  0
  3  6  1  0
  4 15  1  0
  6  7  1  0
  6  1  1  0
  8 15  2  0
  8 10  1  0
  9 21  1  0
 10  3  1  0
 11 18  1  0
 11 13  1  0
 12  7  1  0
 14  3  1  0
 14  5  1  0
 15 14  1  0
 16  8  1  0
 17  9  2  0
 17  1  1  0
 19 20  2  0
 20  4  1  0
 21 13  2  0
  3 22  1  6
  4 23  1  0
  4 24  1  0
  6 25  1  6
  7 26  1  0
  9 27  1  0
 12 28  1  0
 12 29  1  0
 13 30  1  0
 14 31  1  6
 16 32  1  0
 18 33  1  0
 21 34  1  0
M  END
>  <mol_id>  (25) 
2026-08-24-6tgu-s0-n100-seed1-0026

>  <rmsd_to_ref>  (25) 


$$$$

     RDKit          3D

 21 21  0  0  0  0  0  0  0  0999 V2000
    2.0237   22.2734   39.3021 O   0  0  0  0  0  0  0  0  0  0  0  0
    1.2180   19.7573   41.0546 C   0  0  0  0  0  0  0  0  0  0  0  0
    2.6334   18.8467   39.3663 O   0  0  0  0  0  0  0  0  0  0  0  0
    2.3122   21.0593   38.9703 C   0  0  1  0  0  0  0  0  0  0  0  0
    0.3080   18.4498   42.8608 C   0  0  0  0  0  0  0  0  0  0  0  0
    3.0346   20.8989   37.6725 C   0  0  0  0  0  0  0  0  0  0  0  0
   -0.3167   19.5325   43.3718 C   0  0  0  0  0  0  0  0  0  0  0  0
    1.0176   18.4833   41.6471 C   0  0  0  0  0  0  0  0  0  0  0  0
    2.0224   19.8109   39.7141 C   0  0  0  0  0  0  0  0  0  0  0  0
   -0.1377   20.7782   42.7969 C   0  0  0  0  0  0  0  0  0  0  0  0
    0.6820   20.9218   41.6367 C   0  0  0  0  0  0  0  0  0  0  0  0
    1.9317   22.3335   40.2860 H   0  0  0  0  0  0  0  0  0  0  0  0
    1.3495   20.9741   38.4450 H   0  0  0  0  0  0  0  0  0  0  0  0
    0.2599   17.5022   43.4171 H   0  0  0  0  0  0  0  0  0  0  0  0
    3.8056   20.1212   37.7757 H   0  0  0  0  0  0  0  0  0  0  0  0
    2.3203   20.6054   36.8892 H   0  0  0  0  0  0  0  0  0  0  0  0
    3.5097   21.8520   37.3971 H   0  0  0  0  0  0  0  0  0  0  0  0
   -0.9711   19.4235   44.2493 H   0  0  0  0  0  0  0  0  0  0  0  0
    1.3996   17.5643   41.1785 H   0  0  0  0  0  0  0  0  0  0  0  0
   -0.6280   21.6601   43.2348 H   0  0  0  0  0  0  0  0  0  0  0  0
    0.8888   21.9142   41.2098 H   0  0  0  0  0  0  0  0  0  0  0  0
  1  4  1  0
  2 11  1  0
  2  8  2  0
  4  6  1  0
  4  9  1  0
  5  7  2  0
  8  5  1  0
  9  3  2  0
  9  2  1  0
 10  7  1  0
 11 10  2  0
  1 12  1  0
  4 13  1  6
  5 14  1  0
  6 15  1  0
  6 16  1  0
  6 17  1  0
  7 18  1  0
  8 19  1  0
 10 20  1  0
 11 21  1  0
M  END
>  <mol_id>  (26) 
2026-08-24-6tgu-s0-n100-seed1-0027

>  <rmsd_to_ref>  (26) 


$$$$

     RDKit          3D

 38 40  0  0  0  0  0  0  0  0999 V2000
    3.2460   21.0120   35.9590 F   0  0  0  0  0  0  0  0  0  0  0  0
    0.3860   15.1400   43.0860 C   0  0  0  0  0  0  0  0  0  0  0  0
    1.0110   18.1460   41.6920 C   0  0  0  0  0  0  0  0  0  0  0  0
    3.0670   20.2830   37.8940 C   0  0  1  0  0  0  0  0  0  0  0  0
   -0.9180   18.1000   45.4320 C   0  0  0  0  0  0  0  0  0  0  0  0
    4.0370   19.3940   36.4600 F   0  0  0  0  0  0  0  0  0  0  0  0
    1.7740   21.3500   39.5550 C   0  0  0  0  0  0  0  0  0  0  0  0
    1.0800   19.2170   40.8330 C   0  0  2  0  0  0  0  0  0  0  0  0
    0.8840   21.4650   40.5860 C   0  0  0  0  0  0  0  0  0  0  0  0
   -0.2560   14.8790   45.2480 C   0  0  0  0  0  0  0  0  0  0  0  0
    1.7980   17.0620   41.0610 C   0  0  0  0  0  0  0  0  0  0  0  0
   -0.6080   17.0090   44.6530 C   0  0  0  0  0  0  0  0  0  0  0  0
    4.9500   20.2950   37.2600 F   0  0  0  0  0  0  0  0  0  0  0  0
    2.0400   18.8720   39.6570 C   0  0  0  0  0  0  0  0  0  0  0  0
   -0.0300   14.3940   43.8290 C   0  0  0  0  0  0  0  0  0  0  0  0
   -0.0310   17.0410   43.3140 C   0  0  0  0  0  0  0  0  0  0  0  0
    2.6240   20.8780   38.6750 C   0  0  0  0  0  0  0  0  0  0  0  0
    2.6580   19.0890   38.3020 O   0  0  0  0  0  0  0  0  0  0  0  0
    0.6630   16.2280   42.7910 N   0  0  0  0  0  0  0  0  0  0  0  0
    0.5630   20.4870   41.1740 C   0  0  0  0  0  0  0  0  0  0  0  0
    3.5680   20.4170   36.5880 C   0  0  0  0  0  0  0  0  0  0  0  0
   -0.8610   15.9740   45.3700 C   0  0  0  0  0  0  0  0  0  0  0  0
    0.2620   18.2310   42.6700 N   0  0  0  0  0  0  0  0  0  0  0  0
    2.4080   17.5230   39.9410 N   0  0  0  0  0  0  0  0  0  0  0  0
    0.6662   14.5347   42.2113 H   0  0  0  0  0  0  0  0  0  0  0  0
    3.9465   20.8944   37.6439 H   0  0  0  0  0  0  0  0  0  0  0  0
   -0.7843   19.1164   45.0332 H   0  0  0  0  0  0  0  0  0  0  0  0
   -1.2996   17.9558   46.4536 H   0  0  0  0  0  0  0  0  0  0  0  0
    0.2003   19.6639   40.3469 H   0  0  0  0  0  0  0  0  0  0  0  0
    0.4733   22.4466   40.8649 H   0  0  0  0  0  0  0  0  0  0  0  0
    0.7283   14.9840   45.7277 H   0  0  0  0  0  0  0  0  0  0  0  0
   -0.9094   14.1277   45.7156 H   0  0  0  0  0  0  0  0  0  0  0  0
    2.5596   16.7048   41.7698 H   0  0  0  0  0  0  0  0  0  0  0  0
    1.1233   16.2363   40.7908 H   0  0  0  0  0  0  0  0  0  0  0  0
   -0.2608   13.3598   43.5338 H   0  0  0  0  0  0  0  0  0  0  0  0
   -0.1538   20.5701   42.0042 H   0  0  0  0  0  0  0  0  0  0  0  0
   -1.9253   15.7487   45.2070 H   0  0  0  0  0  0  0  0  0  0  0  0
   -0.5058   16.3056   46.3568 H   0  0  0  0  0  0  0  0  0  0  0  0
  1 21  1  0
  2 15  2  0
  3 23  2  3
  4 21  1  0
  4 18  1  0
  4 17  1  0
  6 21  1  0
  7  9  1  0
  8 20  1  0
  8  3  1  0
  9 20  2  0
 10 22  1  0
 11  3  1  0
 12 22  1  0
 12  5  2  3
 14 24  2  0
 14  8  1  0
 15 10  1  0
 16 12  1  0
 17  7  3  0
 18 14  1  0
 19  2  1  0
 19 16  2  0
 21 13  1  0
 23 16  1  0
 24 11  1  0
  2 25  1  0
  4 26  1  1
  5 27  1  0
  5 28  1  0
  8 29  1  6
  9 30  1  0
 10 31  1  0
 10 32  1  0
 11 33  1  0
 11 34  1  0
 15 35  1  0
 20 36  1  0
 22 37  1  0
 22 38  1  0
M  END
>  <mol_id>  (27) 
2026-08-24-6tgu-s0-n100-seed1-0028

>  <rmsd_to_ref>  (27) 


$$$$

     RDKit          3D

 31 33  0  0  0  0  0  0  0  0999 V2000
   -0.9610   19.6920   44.6910 N   0  0  0  0  0  0  0  0  0  0  0  0
    1.2990   18.0160   41.7340 C   0  0  0  0  0  0  0  0  0  0  0  0
    3.3280   18.7650   37.7700 C   0  0  0  0  0  0  0  0  0  0  0  0
    0.5290   18.4010   42.8060 C   0  0  1  0  0  0  0  0  0  0  0  0
    1.8140   20.7450   39.0240 C   0  0  0  0  0  0  0  0  0  0  0  0
   -0.7410   20.3420   43.5380 C   0  0  0  0  0  0  0  0  0  0  0  0
    0.4690   20.1660   41.4340 N   0  0  0  0  0  0  0  0  0  0  0  0
   -1.0480   17.7040   46.0750 N   0  0  0  0  0  0  0  0  0  0  0  0
    2.8060   17.2880   39.5100 O   0  0  0  0  0  0  0  0  0  0  0  0
    3.8950   20.2750   36.1000 O   0  0  0  0  0  0  0  0  0  0  0  0
    1.2690   19.2230   40.8640 C   0  0  0  0  0  0  0  0  0  0  0  0
    2.6670   18.5570   38.9820 C   0  0  0  0  0  0  0  0  0  0  0  0
    1.9250   19.5150   39.6310 C   0  0  0  0  0  0  0  0  0  0  0  0
    3.9680   17.7370   37.0780 C   0  0  0  0  0  0  0  0  0  0  0  0
    3.2520   19.9750   37.1930 C   0  0  0  0  0  0  0  0  0  0  0  0
    2.5040   21.0460   37.8020 C   0  0  0  0  0  0  0  0  0  0  0  0
    4.4650   16.9210   36.5320 N   0  0  0  0  0  0  0  0  0  0  0  0
   -0.5770   18.4070   44.9080 C   0  0  0  0  0  0  0  0  0  0  0  0
    0.2290   17.7260   43.9260 C   0  0  0  0  0  0  0  0  0  0  0  0
    0.0460   19.7250   42.6140 C   0  0  0  0  0  0  0  0  0  0  0  0
    1.8091   17.0567   41.5625 H   0  0  0  0  0  0  0  0  0  0  0  0
   -0.3627   17.9834   42.3155 H   0  0  0  0  0  0  0  0  0  0  0  0
    1.1809   21.5164   39.4867 H   0  0  0  0  0  0  0  0  0  0  0  0
   -1.1786   21.3330   43.3470 H   0  0  0  0  0  0  0  0  0  0  0  0
   -0.7226   18.1897   46.9230 H   0  0  0  0  0  0  0  0  0  0  0  0
   -2.0776   17.6781   46.0679 H   0  0  0  0  0  0  0  0  0  0  0  0
   -0.6803   16.7419   46.0679 H   0  0  0  0  0  0  0  0  0  0  0  0
    2.3682   17.0580   40.3677 H   0  0  0  0  0  0  0  0  0  0  0  0
    3.8102   21.1803   35.7084 H   0  0  0  0  0  0  0  0  0  0  0  0
    2.4638   22.0484   37.3508 H   0  0  0  0  0  0  0  0  0  0  0  0
    0.5829   16.6971   44.0879 H   0  0  0  0  0  0  0  0  0  0  0  0
  1 18  1  0
  3 12  1  0
  4  2  1  0
  4 19  1  0
  5 13  1  0
  6  1  2  0
  7 20  2  0
 10 15  1  0
 11  7  1  0
 11  2  2  0
 12  9  1  0
 12 13  2  0
 13 11  1  0
 14  3  1  0
 15  3  2  0
 15 16  1  0
 16  5  2  0
 17 14  3  0
 18  8  1  0
 19 18  2  0
 20  4  1  0
 20  6  1  0
  2 21  1  0
  4 22  1  6
  5 23  1  0
  6 24  1  0
  8 25  1  0
  8 26  1  0
  8 27  1  0
  9 28  1  0
 10 29  1  0
 16 30  1  0
 19 31  1  0
M  CHG  1   8   1
M  END
>  <mol_id>  (28) 
2026-08-24-6tgu-s0-n100-seed1-0029

>  <rmsd_to_ref>  (28) 


$$$$

     RDKit          3D

 58 63  0  0  0  0  0  0  0  0999 V2000
    2.2335   18.6119   38.7911 C   0  0  0  0  0  0  0  0  0  0  0  0
   -0.3631   20.4619   44.2690 N   0  0  0  0  0  0  0  0  0  0  0  0
    1.6466   17.5323   40.5551 C   0  0  2  0  0  0  0  0  0  0  0  0
   -1.8106   15.6948   47.5927 C   0  0  0  0  0  0  0  0  0  0  0  0
    0.7185   18.3831   42.7305 C   0  0  0  0  0  0  0  0  0  0  0  0
    2.7659   17.4157   36.2850 C   0  0  0  0  0  0  0  0  0  0  0  0
   -0.7949   16.4317   47.0281 C   0  0  0  0  0  0  0  0  0  0  0  0
    1.8661   18.7822   40.1068 O   0  0  0  0  0  0  0  0  0  0  0  0
    2.1873   17.2057   38.5537 C   0  0  2  0  0  0  0  0  0  0  0  0
    2.5069   19.7976   38.0990 C   0  0  0  0  0  0  0  0  0  0  0  0
   -1.0131   15.0386   46.6142 C   0  0  0  0  0  0  0  0  0  0  0  0
   -0.4422   19.2555   44.7414 C   0  0  0  0  0  0  0  0  0  0  0  0
    1.2431   14.6847   35.8062 C   0  0  0  0  0  0  0  0  0  0  0  0
    1.1205   17.1527   41.9682 C   0  0  0  0  0  0  0  0  0  0  0  0
    2.6507   19.9130   36.7976 C   0  0  0  0  0  0  0  0  0  0  0  0
    2.3090   12.4765   36.9094 C   0  0  0  0  0  0  0  0  0  0  0  0
    3.2542   21.4546   34.9336 C   0  0  0  0  0  0  0  0  0  0  0  0
    0.3510   20.7282   43.2044 C   0  0  0  0  0  0  0  0  0  0  0  0
    2.1408   13.9126   34.8378 C   0  0  0  0  0  0  0  0  0  0  0  0
    2.6778   13.8489   37.5703 C   0  0  0  0  0  0  0  0  0  0  0  0
    2.6688   21.1628   36.1959 O   0  0  0  0  0  0  0  0  0  0  0  0
    0.8520   19.7160   42.3853 C   0  0  0  0  0  0  0  0  0  0  0  0
    1.9750   15.0294   37.0520 C   0  0  0  0  0  0  0  0  0  0  0  0
    2.4790   12.5609   35.3836 C   0  0  0  0  0  0  0  0  0  0  0  0
    2.7410   18.6963   36.0852 C   0  0  0  0  0  0  0  0  0  0  0  0
   -0.6736   17.3376   45.8692 C   0  0  0  0  0  0  0  0  0  0  0  0
   -0.9086   18.6927   45.8714 N   0  0  0  0  0  0  0  0  0  0  0  0
   -0.2576   17.0082   44.5985 N   0  0  0  0  0  0  0  0  0  0  0  0
    2.4463   16.5016   37.3156 C   0  0  0  0  0  0  0  0  0  0  0  0
    1.7849   16.5729   39.6505 O   0  0  0  0  0  0  0  0  0  0  0  0
    0.0265   18.1740   43.9880 C   0  0  0  0  0  0  0  0  0  0  0  0
    0.6125   17.5804   40.1831 H   0  0  0  0  0  0  0  0  0  0  0  0
   -1.7347   15.3880   48.6463 H   0  0  0  0  0  0  0  0  0  0  0  0
   -2.8930   15.8567   47.7036 H   0  0  0  0  0  0  0  0  0  0  0  0
    3.1448   16.8882   35.3972 H   0  0  0  0  0  0  0  0  0  0  0  0
   -0.1415   17.1379   47.5613 H   0  0  0  0  0  0  0  0  0  0  0  0
    3.2512   17.1255   38.8217 H   0  0  0  0  0  0  0  0  0  0  0  0
    2.6106   20.7145   38.6977 H   0  0  0  0  0  0  0  0  0  0  0  0
   -1.4247   14.8090   45.6204 H   0  0  0  0  0  0  0  0  0  0  0  0
   -0.4110   14.1194   46.5638 H   0  0  0  0  0  0  0  0  0  0  0  0
    0.3716   14.0637   36.0613 H   0  0  0  0  0  0  0  0  0  0  0  0
    0.9228   15.6173   35.3188 H   0  0  0  0  0  0  0  0  0  0  0  0
    0.2480   16.4911   41.8635 H   0  0  0  0  0  0  0  0  0  0  0  0
    1.9226   16.6402   42.5195 H   0  0  0  0  0  0  0  0  0  0  0  0
    2.9706   11.6924   37.3062 H   0  0  0  0  0  0  0  0  0  0  0  0
    1.2612   12.2356   37.1417 H   0  0  0  0  0  0  0  0  0  0  0  0
    4.3321   21.6327   35.0616 H   0  0  0  0  0  0  0  0  0  0  0  0
    3.1014   20.6039   34.2532 H   0  0  0  0  0  0  0  0  0  0  0  0
    2.7819   22.3529   34.5093 H   0  0  0  0  0  0  0  0  0  0  0  0
    0.5614   21.7773   42.9491 H   0  0  0  0  0  0  0  0  0  0  0  0
    1.6161   13.7925   33.8785 H   0  0  0  0  0  0  0  0  0  0  0  0
    3.0739   14.4780   34.6977 H   0  0  0  0  0  0  0  0  0  0  0  0
    3.4215   13.9237   38.3773 H   0  0  0  0  0  0  0  0  0  0  0  0
    1.3624   19.9827   41.4480 H   0  0  0  0  0  0  0  0  0  0  0  0
    1.8185   11.8168   34.9144 H   0  0  0  0  0  0  0  0  0  0  0  0
    3.5376   12.3666   35.1565 H   0  0  0  0  0  0  0  0  0  0  0  0
    2.8141   18.9037   35.0075 H   0  0  0  0  0  0  0  0  0  0  0  0
   -0.1796   16.0628   44.1970 H   0  0  0  0  0  0  0  0  0  0  0  0
  1  8  1  0
  2 12  1  0
  3 14  1  0
  5 31  1  0
  6 29  2  0
  7  4  1  0
  8  3  1  0
  9 29  1  0
  9  1  1  0
  9 30  1  0
 10  1  2  0
 11  7  1  0
 11  4  1  0
 12 27  1  0
 13 23  1  0
 14  5  1  0
 15 10  1  0
 16 20  1  0
 17 21  1  0
 18  2  2  0
 19 13  1  0
 19 24  1  0
 21 15  1  0
 22  5  2  0
 22 18  1  0
 23 29  1  0
 23 20  2  0
 24 16  1  0
 25  6  1  0
 25 15  2  0
 26  7  1  0
 27 26  2  0
 28 26  1  0
 30  3  1  0
 31 12  2  0
 31 28  1  0
  3 32  1  1
  4 33  1  0
  4 34  1  0
  6 35  1  0
  7 36  1  0
  9 37  1  1
 10 38  1  0
 11 39  1  0
 11 40  1  0
 13 41  1  0
 13 42  1  0
 14 43  1  0
 14 44  1  0
 16 45  1  0
 16 46  1  0
 17 47  1  0
 17 48  1  0
 17 49  1  0
 18 50  1  0
 19 51  1  0
 19 52  1  0
 20 53  1  0
 22 54  1  0
 24 55  1  0
 24 56  1  0
 25 57  1  0
 28 58  1  0
M  END
>  <mol_id>  (29) 
2026-08-24-6tgu-s0-n100-seed1-0030

>  <rmsd_to_ref>  (29) 


$$$$

     RDKit          3D

 63 67  0  0  0  0  0  0  0  0999 V2000
    3.7470   21.2320   35.6670 C   0  0  0  0  0  0  0  0  0  0  0  0
   -0.9170   12.8360   44.0620 C   0  0  0  0  0  0  0  0  0  0  0  0
   -0.0530   16.5310   43.6720 C   0  0  0  0  0  0  0  0  0  0  0  0
   -0.6500   17.5670   44.3580 C   0  0  0  0  0  0  0  0  0  0  0  0
    0.8920   16.8080   42.7320 O   0  0  0  0  0  0  0  0  0  0  0  0
    1.0020   13.2020   42.6720 C   0  0  0  0  0  0  0  0  0  0  0  0
    3.6550   19.7460   35.9190 C   0  0  0  0  0  0  0  0  0  0  0  0
   -1.2270   21.0560   43.5990 N   0  0  0  0  0  0  0  0  0  0  0  0
   -1.1030   14.3010   44.2270 C   0  0  0  0  0  0  0  0  0  0  0  0
   -0.1540   15.0930   43.6210 C   0  0  0  0  0  0  0  0  0  0  0  0
    3.1330   16.8960   39.4280 C   0  0  0  0  0  0  0  0  0  0  0  0
    3.2140   17.4530   37.2630 C   0  0  0  0  0  0  0  0  0  0  0  0
    2.9090   18.7680   37.6670 C   0  0  0  0  0  0  0  0  0  0  0  0
   -1.0710   19.8200   43.9950 C   0  0  0  0  0  0  0  0  0  0  0  0
    0.1400   12.3280   43.3200 C   0  0  0  0  0  0  0  0  0  0  0  0
    2.1670   20.1560   39.0580 C   0  0  2  0  0  0  0  0  0  0  0  0
    2.8000   19.1240   39.3520 C   0  0  2  0  0  0  0  0  0  0  0  0
    0.5170   20.6790   42.0120 C   0  0  0  0  0  0  0  0  0  0  0  0
    3.0890   19.5570   38.1370 C   0  0  1  0  0  0  0  0  0  0  0  0
    0.8710   14.5580   42.7930 C   0  0  0  0  0  0  0  0  0  0  0  0
   -0.1850   18.8130   43.5600 C   0  0  0  0  0  0  0  0  0  0  0  0
    0.6090   19.3800   42.4200 C   0  0  0  0  0  0  0  0  0  0  0  0
    3.3070   16.5870   38.1580 C   0  0  0  0  0  0  0  0  0  0  0  0
    2.8930   20.0440   37.4520 N   0  0  0  0  0  0  0  0  0  0  0  0
    2.7530   21.0480   36.8210 C   0  0  0  0  0  0  0  0  0  0  0  0
    0.2790   10.9300   43.1500 C   0  0  0  0  0  0  0  0  0  0  0  0
   -0.5230   21.4290   42.6070 C   0  0  0  0  0  0  0  0  0  0  0  0
    1.5050   15.5770   42.3020 C   0  0  0  0  0  0  0  0  0  0  0  0
    2.8600   18.0480   39.8770 C   0  0  0  0  0  0  0  0  0  0  0  0
    1.3330   21.3970   41.1170 C   0  0  0  0  0  0  0  0  0  0  0  0
    1.6100   21.1490   39.7720 C   0  0  0  0  0  0  0  0  0  0  0  0
    4.7025   21.7280   35.8929 H   0  0  0  0  0  0  0  0  0  0  0  0
    3.6129   21.7803   34.7229 H   0  0  0  0  0  0  0  0  0  0  0  0
   -1.6283   12.1433   44.5354 H   0  0  0  0  0  0  0  0  0  0  0  0
   -1.7459   17.4729   44.3444 H   0  0  0  0  0  0  0  0  0  0  0  0
   -0.3763   17.6020   45.4228 H   0  0  0  0  0  0  0  0  0  0  0  0
    1.8096   12.7943   42.0463 H   0  0  0  0  0  0  0  0  0  0  0  0
    3.0195   19.2083   35.2000 H   0  0  0  0  0  0  0  0  0  0  0  0
    4.5558   19.1173   35.8609 H   0  0  0  0  0  0  0  0  0  0  0  0
   -1.9437   14.7248   44.7959 H   0  0  0  0  0  0  0  0  0  0  0  0
    3.2338   16.0822   40.1612 H   0  0  0  0  0  0  0  0  0  0  0  0
    3.3629   17.1735   36.2096 H   0  0  0  0  0  0  0  0  0  0  0  0
    2.9831   18.4953   37.5281 H   0  0  0  0  0  0  0  0  0  0  0  0
    2.7226   17.9511   38.3797 H   0  0  0  0  0  0  0  0  0  0  0  0
    2.0208   18.9125   37.0344 H   0  0  0  0  0  0  0  0  0  0  0  0
    3.7720   18.5130   37.0344 H   0  0  0  0  0  0  0  0  0  0  0  0
   -1.7468   19.5128   44.8068 H   0  0  0  0  0  0  0  0  0  0  0  0
    1.2697   20.7738   38.9056 H   0  0  0  0  0  0  0  0  0  0  0  0
    3.1296   18.7684   40.3394 H   0  0  0  0  0  0  0  0  0  0  0  0
    1.3016   18.7136   41.8850 H   0  0  0  0  0  0  0  0  0  0  0  0
    3.5383   15.5476   37.8819 H   0  0  0  0  0  0  0  0  0  0  0  0
    2.8648   21.9006   37.5070 H   0  0  0  0  0  0  0  0  0  0  0  0
    1.7558   20.9856   36.3610 H   0  0  0  0  0  0  0  0  0  0  0  0
    0.3273   10.4438   44.1355 H   0  0  0  0  0  0  0  0  0  0  0  0
   -0.5849   10.5409   42.5912 H   0  0  0  0  0  0  0  0  0  0  0  0
    1.2026   10.7186   42.5912 H   0  0  0  0  0  0  0  0  0  0  0  0
   -0.7419   22.4173   42.1766 H   0  0  0  0  0  0  0  0  0  0  0  0
    2.3874   15.5109   41.6486 H   0  0  0  0  0  0  0  0  0  0  0  0
    2.6351   18.0646   40.9536 H   0  0  0  0  0  0  0  0  0  0  0  0
    0.9127   22.4135   41.1237 H   0  0  0  0  0  0  0  0  0  0  0  0
    2.3075   21.0951   41.5283 H   0  0  0  0  0  0  0  0  0  0  0  0
    2.2312   22.0139   39.4964 H   0  0  0  0  0  0  0  0  0  0  0  0
    0.5786   20.8516   39.5315 H   0  0  0  0  0  0  0  0  0  0  0  0
  1  7  1  0
  1 25  1  0
  2  9  2  0
  3  4  1  0
  5  3  1  0
  6 20  1  0
  6 15  2  0
  7 24  1  0
  8 14  2  0
 10  3  2  0
 10  9  1  0
 11 29  2  3
 12 23  2  3
 15  2  1  0
 16 17  1  0
 16 31  1  0
 17 29  1  0
 18 22  1  0
 18 27  2  0
 19 13  1  6
 19 16  1  0
 19 17  1  0
 20 10  1  0
 21 14  1  0
 21  4  1  0
 22 21  2  0
 23 11  1  0
 24 19  1  0
 25 24  1  0
 26 15  1  0
 27  8  1  0
 28  5  1  0
 28 20  2  0
 30 18  1  0
 31 30  1  0
  1 32  1  0
  1 33  1  0
  2 34  1  0
  4 35  1  0
  4 36  1  0
  6 37  1  0
  7 38  1  0
  7 39  1  0
  9 40  1  0
 11 41  1  0
 12 42  1  0
 12 43  1  0
 13 44  1  0
 13 45  1  0
 13 46  1  0
 14 47  1  0
 16 48  1  6
 17 49  1  1
 22 50  1  0
 23 51  1  0
 25 52  1  0
 25 53  1  0
 26 54  1  0
 26 55  1  0
 26 56  1  0
 27 57  1  0
 28 58  1  0
 29 59  1  0
 30 60  1  0
 30 61  1  0
 31 62  1  0
 31 63  1  0
M  END
>  <mol_id>  (30) 
2026-08-24-6tgu-s0-n100-seed1-0031

>  <rmsd_to_ref>  (30) 


$$$$

     RDKit          3D

 30 33  0  0  0  0  0  0  0  0999 V2000
    0.5610   19.0459   41.6449 C   0  0  0  0  0  0  0  0  0  0  0  0
    1.2505   18.4524   40.7058 N   0  0  0  0  0  0  0  0  0  0  0  0
    0.5047   18.1458   42.6099 C   0  0  0  0  0  0  0  0  0  0  0  0
    2.0573   20.7899   38.0546 C   0  0  0  0  0  0  0  0  0  0  0  0
    2.3017   17.9928   38.5871 C   0  0  0  0  0  0  0  0  0  0  0  0
    2.0077   16.2250   40.1958 C   0  0  0  0  0  0  0  0  0  0  0  0
    1.4281   17.0752   41.0913 C   0  0  0  0  0  0  0  0  0  0  0  0
   -0.4197   20.4745   43.3421 C   0  0  0  0  0  0  0  0  0  0  0  0
   -0.5348   19.3448   44.2817 C   0  0  0  0  0  0  0  0  0  0  0  0
    0.0220   20.2267   42.0461 C   0  0  0  0  0  0  0  0  0  0  0  0
    2.3840   16.5819   38.9198 N   0  0  0  0  0  0  0  0  0  0  0  0
    2.6744   19.9472   37.0913 C   0  0  0  0  0  0  0  0  0  0  0  0
    2.9535   18.6014   37.2467 C   0  0  0  0  0  0  0  0  0  0  0  0
    2.1813   14.8211   40.7847 C   0  0  0  0  0  0  0  0  0  0  0  0
    1.5506   20.3642   39.2390 C   0  0  0  0  0  0  0  0  0  0  0  0
    0.0714   18.1687   43.8675 C   0  0  0  0  0  0  0  0  0  0  0  0
    0.9526   16.9443   42.2201 N   0  0  0  0  0  0  0  0  0  0  0  0
   -0.7840   21.6749   43.7320 O   0  0  0  0  0  0  0  0  0  0  0  0
    1.6646   18.7676   39.5222 C   0  0  0  0  0  0  0  0  0  0  0  0
    1.9852   21.8630   37.8238 H   0  0  0  0  0  0  0  0  0  0  0  0
   -1.0636   19.4288   45.2425 H   0  0  0  0  0  0  0  0  0  0  0  0
   -0.0706   21.0332   41.3038 H   0  0  0  0  0  0  0  0  0  0  0  0
    2.9563   20.4079   36.1330 H   0  0  0  0  0  0  0  0  0  0  0  0
    3.5527   18.0138   36.5355 H   0  0  0  0  0  0  0  0  0  0  0  0
    2.3041   14.8936   41.8755 H   0  0  0  0  0  0  0  0  0  0  0  0
    1.2927   14.2147   40.5552 H   0  0  0  0  0  0  0  0  0  0  0  0
    3.0718   14.3470   40.3461 H   0  0  0  0  0  0  0  0  0  0  0  0
    1.0920   21.0553   39.9615 H   0  0  0  0  0  0  0  0  0  0  0  0
    0.1872   17.3053   44.5391 H   0  0  0  0  0  0  0  0  0  0  0  0
   -0.7111   22.4411   43.1092 H   0  0  0  0  0  0  0  0  0  0  0  0
  1 10  2  0
  1  3  1  0
  2  7  1  0
  2  1  1  0
  3 16  2  0
  4 15  1  0
  5 11  1  0
  5 19  1  0
  6 14  1  0
  6  7  1  0
  7 17  2  0
  8 18  1  0
  8  9  2  0
 10  8  1  0
 11  6  2  0
 12 13  1  0
 12  4  2  0
 13  5  2  0
 15 19  2  0
 16  9  1  0
 17  3  1  0
 19  2  1  0
  4 20  1  0
  9 21  1  0
 10 22  1  0
 12 23  1  0
 13 24  1  0
 14 25  1  0
 14 26  1  0
 14 27  1  0
 15 28  1  0
 16 29  1  0
 18 30  1  0
M  END
>  <mol_id>  (31) 
2026-08-24-6tgu-s0-n100-seed1-0032

>  <rmsd_to_ref>  (31) 


$$$$

     RDKit          3D

 20 22  0  0  0  0  0  0  0  0999 V2000
   -0.1309   19.7485   44.8279 N   0  0  0  0  0  0  0  0  0  0  0  0
    2.5875   19.7058   37.7285 C   0  0  0  0  0  0  0  0  0  0  0  0
    0.8496   17.7705   41.9937 C   0  0  0  0  0  0  0  0  0  0  0  0
   -0.3438   17.5884   44.2314 N   0  0  0  0  0  0  0  0  0  0  0  0
    1.5959   18.6147   39.8447 N   0  0  0  0  0  0  0  0  0  0  0  0
    1.3099   18.7385   41.0859 C   0  0  0  0  0  0  0  0  0  0  0  0
    2.6314   18.6036   37.0423 O   0  0  0  0  0  0  0  0  0  0  0  0
    2.1343   20.9494   40.2134 S   0  0  0  0  0  0  0  0  0  0  0  0
    0.4139   19.5807   43.5718 C   0  0  0  0  0  0  0  0  0  0  0  0
    2.0907   19.5808   39.1411 C   0  0  0  0  0  0  0  0  0  0  0  0
   -0.5824   18.5158   45.1904 C   0  0  0  0  0  0  0  0  0  0  0  0
    0.3273   18.2809   43.2936 C   0  0  0  0  0  0  0  0  0  0  0  0
    0.8121   16.5762   41.6588 O   0  0  0  0  0  0  0  0  0  0  0  0
    2.7378   20.8663   37.2409 O   0  0  0  0  0  0  0  0  0  0  0  0
    1.4886   20.0987   41.4897 C   0  0  0  0  0  0  0  0  0  0  0  0
    1.0627   20.5026   42.7269 C   0  0  0  0  0  0  0  0  0  0  0  0
   -0.0741   18.2089   46.1163 H   0  0  0  0  0  0  0  0  0  0  0  0
   -1.6705   18.5811   45.3385 H   0  0  0  0  0  0  0  0  0  0  0  0
    1.9495   20.8638   43.2684 H   0  0  0  0  0  0  0  0  0  0  0  0
    0.2803   21.2424   42.5023 H   0  0  0  0  0  0  0  0  0  0  0  0
  1 11  1  0
  2 10  1  0
  3 12  1  0
  4 11  1  0
  5  6  1  0
  6 15  2  0
  6  3  1  0
  7  2  1  0
  8 15  1  0
  9  1  2  0
 10  5  2  0
 10  8  1  0
 12  9  1  0
 12  4  2  0
 13  3  2  0
 14  2  2  0
 15 16  1  0
 16  9  1  0
 11 17  1  0
 11 18  1  0
 16 19  1  0
 16 20  1  0
M  CHG  1   7  -1
M  END
>  <mol_id>  (32) 
2026-08-24-6tgu-s0-n100-seed1-0033

>  <rmsd_to_ref>  (32) 


$$$$

     RDKit          3D

 52 54  0  0  0  0  0  0  0  0999 V2000
    3.5373   21.0063   36.0022 O   0  0  0  0  0  0  0  0  0  0  0  0
    2.1516   21.0687   40.5491 C   0  0  0  0  0  0  0  0  0  0  0  0
   -0.4983   19.8248   44.0190 S   0  0  0  0  0  6  0  0  0  0  0  0
    0.0762   17.9139   42.7988 C   0  0  0  0  0  0  0  0  0  0  0  0
    1.8358   22.3011   36.4091 O   0  0  0  0  0  0  0  0  0  0  0  0
    1.7850   17.1258   40.6786 N   0  0  0  0  0  0  0  0  0  0  0  0
    3.2608   15.2998   36.7168 C   0  0  0  0  0  0  0  0  0  0  0  0
    2.4142   21.3771   39.1704 O   0  0  0  0  0  0  0  0  0  0  0  0
   -1.7710   14.0362   44.5389 C   0  0  0  0  0  0  0  0  0  0  0  0
   -1.6092   20.7967   43.7869 O   0  0  0  0  0  0  0  0  0  0  0  0
   -0.5719   16.1062   44.1487 C   0  0  1  0  0  0  0  0  0  0  0  0
   -0.3651   18.3457   43.9049 N   0  0  0  0  0  0  0  0  0  0  0  0
    2.5436   16.6553   38.5954 C   0  0  0  0  0  0  0  0  0  0  0  0
    0.0666   16.4464   42.7012 C   0  0  0  0  0  0  0  0  0  0  0  0
    3.1178   17.6727   36.7228 N   0  0  0  0  0  0  0  0  0  0  0  0
   -0.6502   17.4670   44.8396 C   0  0  0  0  0  0  0  0  0  0  0  0
    2.5771   19.3502   38.3068 C   0  0  1  0  0  0  0  0  0  0  0  0
    1.6328   16.0111   40.9772 O   0  0  0  0  0  0  0  0  0  0  0  0
    0.4091   18.8506   42.0508 N   0  0  0  0  0  0  0  0  0  0  0  0
    0.3923   21.2263   42.2798 C   0  0  0  0  0  0  0  0  0  0  0  0
    2.9822   16.5936   37.4348 C   0  0  0  0  0  0  0  0  0  0  0  0
    0.1850   19.9518   42.6217 C   0  0  0  0  0  0  0  0  0  0  0  0
    0.0008   20.1540   45.3224 O   0  0  0  0  0  0  0  0  0  0  0  0
    2.6893   18.8420   37.1143 C   0  0  0  0  0  0  0  0  0  0  0  0
    2.4803   20.8087   38.0187 C   0  0  1  0  0  0  0  0  0  0  0  0
    2.5952   21.4075   36.7233 C   0  0  0  0  0  0  0  0  0  0  0  0
    2.3192   18.9027   39.3728 N   0  0  0  0  0  0  0  0  0  0  0  0
    0.9575   21.5945   40.8931 C   0  0  0  0  0  0  0  0  0  0  0  0
   -1.7670   15.3023   44.2078 C   0  0  0  0  0  0  0  0  0  0  0  0
    2.2809   17.5587   39.4524 C   0  0  0  0  0  0  0  0  0  0  0  0
    2.9415   21.5005   41.1813 H   0  0  0  0  0  0  0  0  0  0  0  0
    2.1342   19.9781   40.6911 H   0  0  0  0  0  0  0  0  0  0  0  0
    3.5103   14.5194   37.4508 H   0  0  0  0  0  0  0  0  0  0  0  0
    2.3693   14.9967   36.1480 H   0  0  0  0  0  0  0  0  0  0  0  0
    4.1063   15.4380   36.0268 H   0  0  0  0  0  0  0  0  0  0  0  0
   -2.7183   13.4776   44.5651 H   0  0  0  0  0  0  0  0  0  0  0  0
   -0.8272   13.5306   44.7910 H   0  0  0  0  0  0  0  0  0  0  0  0
    0.0705   15.3882   44.6795 H   0  0  0  0  0  0  0  0  0  0  0  0
    3.2522   16.0171   39.1435 H   0  0  0  0  0  0  0  0  0  0  0  0
    1.4949   16.5492   38.2805 H   0  0  0  0  0  0  0  0  0  0  0  0
   -0.5678   16.0912   41.8758 H   0  0  0  0  0  0  0  0  0  0  0  0
    1.0391   15.9780   42.4891 H   0  0  0  0  0  0  0  0  0  0  0  0
   -1.6614   17.6404   45.2363 H   0  0  0  0  0  0  0  0  0  0  0  0
    0.0414   17.5352   45.6922 H   0  0  0  0  0  0  0  0  0  0  0  0
    3.1835   18.7002   38.9547 H   0  0  0  0  0  0  0  0  0  0  0  0
    0.1563   22.0251   42.9982 H   0  0  0  0  0  0  0  0  0  0  0  0
    3.3394   19.5532   36.5837 H   0  0  0  0  0  0  0  0  0  0  0  0
    1.6183   18.6600   36.9418 H   0  0  0  0  0  0  0  0  0  0  0  0
    3.5664   20.9089   38.1614 H   0  0  0  0  0  0  0  0  0  0  0  0
    1.0567   22.6895   40.8576 H   0  0  0  0  0  0  0  0  0  0  0  0
    0.2436   21.1642   40.1753 H   0  0  0  0  0  0  0  0  0  0  0  0
   -2.7273   15.7787   43.9613 H   0  0  0  0  0  0  0  0  0  0  0  0
  1 26  2  0
  2 28  1  0
  3 23  2  0
  4 12  1  0
  5 26  1  0
  6 18  2  0
  7 21  1  0
  8  2  1  0
 10  3  2  0
 11 29  1  0
 11 16  1  0
 12  3  1  0
 12 16  1  0
 13 30  1  0
 14  4  1  0
 14 11  1  0
 15 24  1  0
 15 21  2  0
 17 25  1  0
 17 27  1  0
 19 22  1  0
 19  4  2  0
 20 22  2  3
 21 13  1  0
 22  3  1  0
 24 17  1  0
 25 26  1  0
 25  8  1  0
 27 30  2  0
 28 20  1  0
 29  9  2  3
 30  6  1  0
  2 31  1  0
  2 32  1  0
  7 33  1  0
  7 34  1  0
  7 35  1  0
  9 36  1  0
  9 37  1  0
 11 38  1  1
 13 39  1  0
 13 40  1  0
 14 41  1  0
 14 42  1  0
 16 43  1  0
 16 44  1  0
 17 45  1  1
 20 46  1  0
 24 47  1  0
 24 48  1  0
 25 49  1  6
 28 50  1  0
 28 51  1  0
 29 52  1  0
M  CHG  1   5  -1
M  END
>  <mol_id>  (33) 
2026-08-24-6tgu-s0-n100-seed1-0034

>  <rmsd_to_ref>  (33) 


$$$$

     RDKit          3D

 25 25  0  0  0  0  0  0  0  0999 V2000
    0.0180   18.2700   42.9990 N   0  0  0  0  0  0  0  0  0  0  0  0
    0.2050   19.4710   42.3950 C   0  0  0  0  0  0  0  0  0  0  0  0
    2.8230   20.0340   37.9100 C   0  0  0  0  0  0  0  0  0  0  0  0
    0.3500   15.8710   43.0840 C   0  0  0  0  0  0  0  0  0  0  0  0
    1.8320   18.6170   40.8570 C   0  0  0  0  0  0  0  0  0  0  0  0
    3.3350   19.7650   36.7880 O   0  0  0  0  0  0  0  0  0  0  0  0
    1.1490   20.9000   40.8050 N   0  0  0  0  0  0  0  0  0  0  0  0
    2.1030   15.9850   40.6800 C   0  0  0  0  0  0  0  0  0  0  0  0
    2.2410   21.0860   38.1330 O   0  0  0  0  0  0  0  0  0  0  0  0
    3.1180   18.9490   38.9330 C   0  0  0  0  0  0  0  0  0  0  0  0
    2.9370   18.9680   40.1530 O   0  0  0  0  0  0  0  0  0  0  0  0
    1.0460   19.6580   41.3170 C   0  0  0  0  0  0  0  0  0  0  0  0
    0.6150   17.1510   42.4050 C   0  0  0  0  0  0  0  0  0  0  0  0
    1.4990   17.2900   41.3270 C   0  0  0  0  0  0  0  0  0  0  0  0
   -0.3428   20.3413   42.7854 H   0  0  0  0  0  0  0  0  0  0  0  0
    0.3810   16.0205   44.1734 H   0  0  0  0  0  0  0  0  0  0  0  0
   -0.6439   15.5004   42.7929 H   0  0  0  0  0  0  0  0  0  0  0  0
    1.1151   15.1362   42.7929 H   0  0  0  0  0  0  0  0  0  0  0  0
    0.5513   21.6571   41.1661 H   0  0  0  0  0  0  0  0  0  0  0  0
    1.8255   21.0924   40.0525 H   0  0  0  0  0  0  0  0  0  0  0  0
    2.4222   15.2954   41.4753 H   0  0  0  0  0  0  0  0  0  0  0  0
    1.3390   15.4974   40.0567 H   0  0  0  0  0  0  0  0  0  0  0  0
    2.9692   16.2519   40.0567 H   0  0  0  0  0  0  0  0  0  0  0  0
    2.5432   18.0786   38.5837 H   0  0  0  0  0  0  0  0  0  0  0  0
    4.2152   19.0279   38.9349 H   0  0  0  0  0  0  0  0  0  0  0  0
  2  1  2  0
  3  9  1  0
  3 10  1  0
  5 12  2  0
  5 14  1  0
  6  3  2  0
  7 12  1  0
  8 14  1  0
 10 11  1  0
 11  5  1  0
 12  2  1  0
 13  1  1  0
 13  4  1  0
 14 13  2  0
  2 15  1  0
  4 16  1  0
  4 17  1  0
  4 18  1  0
  7 19  1  0
  7 20  1  0
  8 21  1  0
  8 22  1  0
  8 23  1  0
 10 24  1  0
 10 25  1  0
M  CHG  1   9  -1
M  END
>  <mol_id>  (34) 
2026-08-24-6tgu-s0-n100-seed1-0035

>  <rmsd_to_ref>  (34) 


$$$$

     RDKit          3D

 56 60  0  0  0  0  0  0  0  0999 V2000
    1.1894   16.1381   41.6447 C   0  0  0  0  0  0  0  0  0  0  0  0
   -1.2065   16.4740   46.5201 C   0  0  0  0  0  0  0  0  0  0  0  0
   -0.0463   17.7786   43.2008 N   0  0  0  0  0  0  0  0  0  0  0  0
    1.9748   19.4050   40.3121 C   0  0  1  0  0  0  0  0  0  0  0  0
    2.6615   14.1648   35.9024 C   0  0  0  0  0  0  0  0  0  0  0  0
    2.3049   20.6759   37.5281 O   0  0  0  0  0  0  0  0  0  0  0  0
    2.7374   18.4850   36.8426 N   0  0  0  0  0  0  0  0  0  0  0  0
    3.7456   14.9722   35.9755 N   0  0  0  0  0  0  0  0  0  0  0  0
    2.7302   18.8453   39.1505 C   0  0  2  0  0  0  0  0  0  0  0  0
    3.3252   13.4171   33.7098 O   0  0  0  0  0  0  0  0  0  0  0  0
    2.6850   16.9501   37.2750 C   0  0  0  0  0  0  0  0  0  0  0  0
   -1.4855   15.2096   46.3010 C   0  0  0  0  0  0  0  0  0  0  0  0
    2.5959   13.0397   34.9017 C   0  0  0  0  0  0  0  0  0  0  0  0
   -0.0445   19.1430   43.3494 C   0  0  0  0  0  0  0  0  0  0  0  0
   -0.5872   19.6678   44.5719 C   0  0  1  0  0  0  0  0  0  0  0  0
   -0.6190   21.7097   43.7591 C   0  0  0  0  0  0  0  0  0  0  0  0
    1.2255   21.0086   41.6139 C   0  0  0  0  0  0  0  0  0  0  0  0
    1.2258   18.7050   41.4239 C   0  0  0  0  0  0  0  0  0  0  0  0
    0.7802   17.4671   42.0313 C   0  0  0  0  0  0  0  0  0  0  0  0
    0.6974   19.8219   42.2685 C   0  0  0  0  0  0  0  0  0  0  0  0
    2.1775   11.9691   35.0719 O   0  0  0  0  0  0  0  0  0  0  0  0
   -1.5049   14.7147   44.9253 C   0  0  0  0  0  0  0  0  0  0  0  0
    3.7020   16.2431   36.6405 C   0  0  0  0  0  0  0  0  0  0  0  0
    1.5346   15.7139   37.4132 C   0  0  0  0  0  0  0  0  0  0  0  0
   -1.0513   15.5133   43.8715 C   0  0  0  0  0  0  0  0  0  0  0  0
    2.0875   20.6941   40.5751 C   0  0  0  0  0  0  0  0  0  0  0  0
   -0.6814   16.8443   44.1324 C   0  0  0  0  0  0  0  0  0  0  0  0
    1.5500   14.6206   36.7725 C   0  0  0  0  0  0  0  0  0  0  0  0
   -2.2400   13.1549   44.6603 Cl  0  0  0  0  0  0  0  0  0  0  0  0
   -0.3443   20.8964   44.7716 O   0  0  0  0  0  0  0  0  0  0  0  0
   -1.3753   22.1500   43.2107 O   0  0  0  0  0  0  0  0  0  0  0  0
    2.6078   19.4630   37.6708 C   0  0  0  0  0  0  0  0  0  0  0  0
    2.1838   17.6640   38.9594 O   0  0  0  0  0  0  0  0  0  0  0  0
   -1.0549   17.4191   45.4307 C   0  0  0  0  0  0  0  0  0  0  0  0
   -1.3399   18.8918   45.6456 C   0  0  0  0  0  0  0  0  0  0  0  0
    1.4296   15.5523   42.5442 H   0  0  0  0  0  0  0  0  0  0  0  0
    0.3721   15.6481   41.0954 H   0  0  0  0  0  0  0  0  0  0  0  0
    2.0784   16.2012   40.9999 H   0  0  0  0  0  0  0  0  0  0  0  0
   -1.0847   16.8249   47.5556 H   0  0  0  0  0  0  0  0  0  0  0  0
    1.5185   18.7422   39.5622 H   0  0  0  0  0  0  0  0  0  0  0  0
    2.8827   18.7059   35.8471 H   0  0  0  0  0  0  0  0  0  0  0  0
    3.7775   18.9917   39.4532 H   0  0  0  0  0  0  0  0  0  0  0  0
   -1.7014   14.5324   47.1405 H   0  0  0  0  0  0  0  0  0  0  0  0
    0.3399   19.3988   45.0991 H   0  0  0  0  0  0  0  0  0  0  0  0
    0.3383   22.0493   43.3368 H   0  0  0  0  0  0  0  0  0  0  0  0
    0.3859   21.5948   41.2122 H   0  0  0  0  0  0  0  0  0  0  0  0
    1.7931   21.5822   42.3615 H   0  0  0  0  0  0  0  0  0  0  0  0
    4.6702   16.7651   36.6508 H   0  0  0  0  0  0  0  0  0  0  0  0
    0.7052   15.8736   38.1179 H   0  0  0  0  0  0  0  0  0  0  0  0
   -0.9847   15.1059   42.8520 H   0  0  0  0  0  0  0  0  0  0  0  0
    3.1223   20.9236   40.8694 H   0  0  0  0  0  0  0  0  0  0  0  0
    1.8326   21.2843   39.6825 H   0  0  0  0  0  0  0  0  0  0  0  0
    0.6747   13.9612   36.8686 H   0  0  0  0  0  0  0  0  0  0  0  0
    2.0899   17.1994   39.8285 H   0  0  0  0  0  0  0  0  0  0  0  0
   -0.9933   19.1993   46.6433 H   0  0  0  0  0  0  0  0  0  0  0  0
   -2.4200   19.0900   45.5802 H   0  0  0  0  0  0  0  0  0  0  0  0
  1 19  1  0
  3 14  1  0
  3 27  1  0
  4  9  1  0
  4 26  1  0
  4 18  1  0
  5  8  1  0
  5 28  2  0
  6 32  2  0
  7 11  1  0
  7 32  1  0
  8 23  2  0
  9 33  1  0
 10 13  2  0
 11 24  2  0
 12  2  2  0
 13 21  1  0
 13  5  1  0
 14 15  1  0
 15 30  1  0
 15 35  1  0
 16 30  1  0
 17 20  1  0
 18 19  2  0
 18 20  1  0
 19  3  1  0
 20 14  2  0
 22 12  1  0
 23 11  1  0
 25 27  1  0
 25 22  2  0
 26 17  1  0
 27 34  2  0
 28 24  1  0
 29 22  1  0
 31 16  2  0
 32  9  1  0
 34 35  1  0
 34  2  1  0
  1 36  1  0
  1 37  1  0
  1 38  1  0
  2 39  1  0
  4 40  1  6
  7 41  1  0
  9 42  1  1
 12 43  1  0
 15 44  1  6
 16 45  1  0
 17 46  1  0
 17 47  1  0
 23 48  1  0
 24 49  1  0
 25 50  1  0
 26 51  1  0
 26 52  1  0
 28 53  1  0
 33 54  1  0
 35 55  1  0
 35 56  1  0
M  CHG  1  21  -1
M  END
>  <mol_id>  (35) 
2026-08-24-6tgu-s0-n100-seed1-0036

>  <rmsd_to_ref>  (35) 


$$$$

     RDKit          3D

 41 42  0  0  0  0  0  0  0  0999 V2000
   -0.3019   15.5643   45.3301 C   0  0  0  0  0  0  0  0  0  0  0  0
   -0.0817   13.3940   43.4478 C   0  0  0  0  0  0  0  0  0  0  0  0
    1.9301   21.0578   39.1305 C   0  0  0  0  0  0  0  0  0  0  0  0
    2.1574   19.5019   41.1377 C   0  0  2  0  0  0  0  0  0  0  0  0
    2.5991   20.7198   36.9013 C   0  0  0  0  0  0  0  0  0  0  0  0
    0.0119   15.8616   43.9695 C   0  0  0  0  0  0  0  0  0  0  0  0
    1.5600   17.1981   41.1155 O   0  0  0  0  0  0  0  0  0  0  0  0
    0.0977   14.7471   42.9804 C   0  0  0  0  0  0  0  0  0  0  0  0
    2.2172   19.7390   39.6112 C   0  0  0  0  0  0  0  0  0  0  0  0
    0.1769   17.3901   43.6024 C   0  0  0  0  0  0  0  0  0  0  0  0
    2.6135   18.8365   38.5211 C   0  0  0  0  0  0  0  0  0  0  0  0
    2.5904   17.3715   38.5753 C   0  0  0  0  0  0  0  0  0  0  0  0
   -0.1107   18.1570   44.9200 C   0  0  0  0  0  0  0  0  0  0  0  0
    2.0689   21.5450   37.8471 C   0  0  0  0  0  0  0  0  0  0  0  0
   -0.3320   13.1043   44.8195 C   0  0  0  0  0  0  0  0  0  0  0  0
    1.4378   18.3043   41.5913 C   0  0  0  0  0  0  0  0  0  0  0  0
    1.8299   22.2660   35.7434 O   0  0  0  0  0  0  0  0  0  0  0  0
    0.7488   18.4434   42.6652 N   0  0  0  0  0  0  0  0  0  0  0  0
    2.8636   21.4035   35.7035 O   0  0  0  0  0  0  0  0  0  0  0  0
    2.7595   19.3870   37.2135 C   0  0  0  0  0  0  0  0  0  0  0  0
   -0.4067   14.1680   45.7645 C   0  0  0  0  0  0  0  0  0  0  0  0
    1.6536   20.8129   41.8089 C   0  0  0  0  0  0  0  0  0  0  0  0
   -0.4646   16.3800   46.0499 H   0  0  0  0  0  0  0  0  0  0  0  0
   -0.0238   12.5653   42.7266 H   0  0  0  0  0  0  0  0  0  0  0  0
    1.5519   21.7708   39.8778 H   0  0  0  0  0  0  0  0  0  0  0  0
    3.1805   19.2640   41.4645 H   0  0  0  0  0  0  0  0  0  0  0  0
    0.2935   14.9530   41.9178 H   0  0  0  0  0  0  0  0  0  0  0  0
    2.7914   17.0394   39.6046 H   0  0  0  0  0  0  0  0  0  0  0  0
    1.6012   17.0085   38.2594 H   0  0  0  0  0  0  0  0  0  0  0  0
    3.3612   16.9675   37.9025 H   0  0  0  0  0  0  0  0  0  0  0  0
    0.3681   17.6338   45.7608 H   0  0  0  0  0  0  0  0  0  0  0  0
    0.2928   19.1777   44.8458 H   0  0  0  0  0  0  0  0  0  0  0  0
   -1.1969   18.2034   45.0877 H   0  0  0  0  0  0  0  0  0  0  0  0
    1.7603   22.5702   37.5947 H   0  0  0  0  0  0  0  0  0  0  0  0
   -0.4671   12.0633   45.1482 H   0  0  0  0  0  0  0  0  0  0  0  0
    1.6472   22.5187   36.6829 H   0  0  0  0  0  0  0  0  0  0  0  0
    3.0186   18.6985   36.3957 H   0  0  0  0  0  0  0  0  0  0  0  0
   -0.5444   13.9391   46.8316 H   0  0  0  0  0  0  0  0  0  0  0  0
    1.8589   20.7742   42.8888 H   0  0  0  0  0  0  0  0  0  0  0  0
    2.1750   21.6749   41.3671 H   0  0  0  0  0  0  0  0  0  0  0  0
    0.5708   20.9160   41.6449 H   0  0  0  0  0  0  0  0  0  0  0  0
  1 21  2  0
  2 15  2  0
  3  9  1  0
  4 16  1  0
  4 22  1  0
  5 20  2  0
  5 14  1  0
  6  1  1  0
  7 16  2  0
  8  2  1  0
  8  6  2  0
  9  4  1  0
 10  6  1  0
 10 13  1  0
 11 12  1  0
 11  9  2  0
 14  3  2  0
 15 21  1  0
 16 18  1  0
 17 19  1  0
 18 10  2  3
 19  5  1  0
 20 11  1  0
  1 23  1  0
  2 24  1  0
  3 25  1  0
  4 26  1  1
  8 27  1  0
 12 28  1  0
 12 29  1  0
 12 30  1  0
 13 31  1  0
 13 32  1  0
 13 33  1  0
 14 34  1  0
 15 35  1  0
 17 36  1  0
 20 37  1  0
 21 38  1  0
 22 39  1  0
 22 40  1  0
 22 41  1  0
M  END
>  <mol_id>  (36) 
2026-08-24-6tgu-s0-n100-seed1-0037

>  <rmsd_to_ref>  (36) 


$$$$

     RDKit          3D

 50 53  0  0  0  0  0  0  0  0999 V2000
   -0.4308   18.4767   44.0061 C   0  0  0  0  0  0  0  0  0  0  0  0
    2.4521   21.1692   38.5915 C   0  0  0  0  0  0  0  0  0  0  0  0
    3.3860   18.6962   39.1087 N   0  0  0  0  0  0  0  0  0  0  0  0
   -0.7704   17.3992   44.7276 C   0  0  0  0  0  0  0  0  0  0  0  0
    1.5896   16.9619   41.1855 N   0  0  0  0  0  0  0  0  0  0  0  0
    4.0809   16.7545   37.3146 C   0  0  0  0  0  0  0  0  0  0  0  0
    3.8274   15.7406   38.5910 C   0  0  0  0  0  0  0  0  0  0  0  0
    2.8636   15.6700   39.3812 C   0  0  0  0  0  0  0  0  0  0  0  0
   -0.7670   21.3627   42.3536 C   0  0  0  0  0  0  0  0  0  0  0  0
    2.0529   13.9279   42.0099 C   0  0  0  0  0  0  0  0  0  0  0  0
    0.4884   18.4302   42.9295 C   0  0  0  0  0  0  0  0  0  0  0  0
    3.5193   19.1568   37.8879 C   0  0  0  0  0  0  0  0  0  0  0  0
    4.1094   21.6533   35.4003 N   0  0  0  0  0  0  0  0  0  0  0  0
   -0.1786   16.1179   44.3871 C   0  0  0  0  0  0  0  0  0  0  0  0
    1.5234   22.3559   41.1115 O   0  0  0  0  0  0  0  0  0  0  0  0
    1.0212   19.6181   42.4634 N   0  0  0  0  0  0  0  0  0  0  0  0
    0.9618   17.1684   42.4110 C   0  0  0  0  0  0  0  0  0  0  0  0
    2.2457   15.8208   40.6703 C   0  0  0  0  0  0  0  0  0  0  0  0
    1.3429   14.7285   42.8114 C   0  0  0  0  0  0  0  0  0  0  0  0
    2.5793   14.5594   40.8544 N   0  0  0  0  0  0  0  0  0  0  0  0
    3.1261   20.5389   37.5690 C   0  0  0  0  0  0  0  0  0  0  0  0
    0.7354   15.9676   43.1943 C   0  0  0  0  0  0  0  0  0  0  0  0
    1.3417   21.2977   40.9373 C   0  0  0  0  0  0  0  0  0  0  0  0
    3.9964   18.3459   37.0302 O   0  0  0  0  0  0  0  0  0  0  0  0
    3.6325   21.0825   36.3325 C   0  0  0  0  0  0  0  0  0  0  0  0
    2.7970   19.4599   40.0608 N   0  0  0  0  0  0  0  0  0  0  0  0
    0.4473   20.7008   41.9890 C   0  0  1  0  0  0  0  0  0  0  0  0
   -1.5576   17.5300   45.8874 N   0  0  0  0  0  0  0  0  0  0  0  0
    2.2599   20.6427   39.8682 C   0  0  0  0  0  0  0  0  0  0  0  0
   -0.8880   19.4437   44.2626 H   0  0  0  0  0  0  0  0  0  0  0  0
    2.0330   22.1650   38.3849 H   0  0  0  0  0  0  0  0  0  0  0  0
    5.1200   16.5236   37.0372 H   0  0  0  0  0  0  0  0  0  0  0  0
    3.1030   16.5445   36.8567 H   0  0  0  0  0  0  0  0  0  0  0  0
    3.8872   14.7345   38.1504 H   0  0  0  0  0  0  0  0  0  0  0  0
    4.5495   16.1971   39.2840 H   0  0  0  0  0  0  0  0  0  0  0  0
    2.1582   16.2889   38.8074 H   0  0  0  0  0  0  0  0  0  0  0  0
    3.2627   14.7044   39.7253 H   0  0  0  0  0  0  0  0  0  0  0  0
   -0.8644   21.3727   43.4492 H   0  0  0  0  0  0  0  0  0  0  0  0
   -0.7483   22.3963   41.9777 H   0  0  0  0  0  0  0  0  0  0  0  0
   -1.6221   20.8281   41.9143 H   0  0  0  0  0  0  0  0  0  0  0  0
    2.8938   13.5207   42.5905 H   0  0  0  0  0  0  0  0  0  0  0  0
    1.3585   13.1540   41.6510 H   0  0  0  0  0  0  0  0  0  0  0  0
   -0.4004   15.2390   45.0104 H   0  0  0  0  0  0  0  0  0  0  0  0
    2.0499   19.6620   42.4934 H   0  0  0  0  0  0  0  0  0  0  0  0
    0.4363   14.1075   42.8611 H   0  0  0  0  0  0  0  0  0  0  0  0
    2.2958   15.1246   43.1924 H   0  0  0  0  0  0  0  0  0  0  0  0
    3.1902   14.0583   40.1937 H   0  0  0  0  0  0  0  0  0  0  0  0
    0.9867   21.2621   42.7662 H   0  0  0  0  0  0  0  0  0  0  0  0
   -1.8123   16.6948   46.4338 H   0  0  0  0  0  0  0  0  0  0  0  0
   -1.8788   18.4608   46.1896 H   0  0  0  0  0  0  0  0  0  0  0  0
  1  4  2  0
  2 29  2  0
  3 26  2  0
  4 28  1  0
  5 17  1  0
  6  7  1  0
  7  8  1  0
  8 18  1  0
 10 19  1  0
 11  1  1  0
 12  3  1  0
 13 25  3  0
 14  4  1  0
 16 11  1  0
 17 11  2  0
 17 22  1  0
 18 20  1  0
 18  5  2  0
 19 22  1  0
 20 10  1  0
 21 12  2  0
 21  2  1  0
 22 14  2  0
 23 15  2  0
 23 27  1  0
 24  6  1  0
 24 12  1  0
 25 21  1  0
 27  9  1  0
 27 16  1  0
 29 26  1  0
 29 23  1  0
  1 30  1  0
  2 31  1  0
  6 32  1  0
  6 33  1  0
  7 34  1  0
  7 35  1  0
  8 36  1  0
  8 37  1  0
  9 38  1  0
  9 39  1  0
  9 40  1  0
 10 41  1  0
 10 42  1  0
 14 43  1  0
 16 44  1  0
 19 45  1  0
 19 46  1  0
 20 47  1  0
 27 48  1  6
 28 49  1  0
 28 50  1  0
M  END
>  <mol_id>  (37) 
2026-08-24-6tgu-s0-n100-seed1-0039

>  <rmsd_to_ref>  (37) 


$$$$

     RDKit          3D

 43 46  0  0  0  0  0  0  0  0999 V2000
   -1.1910   18.8600   44.5660 C   0  0  0  0  0  0  0  0  0  0  0  0
   -0.6460   16.4890   44.7710 C   0  0  0  0  0  0  0  0  0  0  0  0
   -1.1850   19.9840   43.9200 C   0  0  0  0  0  0  0  0  0  0  0  0
    4.7640   15.8990   36.7020 N   0  0  0  0  0  0  0  0  0  0  0  0
    0.6220   15.4520   43.0690 C   0  0  0  0  0  0  0  0  0  0  0  0
    3.3250   15.9540   38.2860 C   0  0  0  0  0  0  0  0  0  0  0  0
    3.5480   17.1840   37.8070 C   0  0  0  0  0  0  0  0  0  0  0  0
    2.6150   20.8250   38.0270 C   0  0  0  0  0  0  0  0  0  0  0  0
    3.2860   19.5990   37.5500 C   0  0  0  0  0  0  0  0  0  0  0  0
    2.4620   18.4130   39.6530 C   0  0  0  0  0  0  0  0  0  0  0  0
   -1.1500   16.6140   45.9890 N   0  0  0  0  0  0  0  0  0  0  0  0
    0.1990   17.8210   42.9980 C   0  0  0  0  0  0  0  0  0  0  0  0
    2.4200   15.5100   39.2990 N   0  0  0  0  0  0  0  0  0  0  0  0
    1.6930   20.7020   40.1550 C   0  0  0  0  0  0  0  0  0  0  0  0
   -0.1320   15.3820   44.2060 C   0  0  0  0  0  0  0  0  0  0  0  0
    3.1040   18.4060   38.3300 C   0  0  0  0  0  0  0  0  0  0  0  0
   -0.3710   20.0480   42.9150 C   0  0  0  0  0  0  0  0  0  0  0  0
    1.8770   19.4030   40.5280 C   0  0  0  0  0  0  0  0  0  0  0  0
    1.5040   19.1740   41.5880 N   0  0  0  0  0  0  0  0  0  0  0  0
    4.4710   17.1380   36.7720 O   0  0  0  0  0  0  0  0  0  0  0  0
    0.3770   18.9890   42.3980 C   0  0  0  0  0  0  0  0  0  0  0  0
    4.1740   15.2040   37.6310 N   0  0  0  0  0  0  0  0  0  0  0  0
   -0.5710   17.7420   44.1340 C   0  0  0  0  0  0  0  0  0  0  0  0
    0.8070   16.6490   42.4440 C   0  0  0  0  0  0  0  0  0  0  0  0
    2.4090   21.7150   37.0280 F   0  0  0  0  0  0  0  0  0  0  0  0
    3.8190   19.6490   36.3000 O   0  0  0  0  0  0  0  0  0  0  0  0
    1.9230   21.0320   39.0790 C   0  0  0  0  0  0  0  0  0  0  0  0
   -1.7331   18.8150   45.5221 H   0  0  0  0  0  0  0  0  0  0  0  0
   -1.8293   20.8282   44.2069 H   0  0  0  0  0  0  0  0  0  0  0  0
    1.0806   14.5409   42.6572 H   0  0  0  0  0  0  0  0  0  0  0  0
    2.4150   17.4042   40.0891 H   0  0  0  0  0  0  0  0  0  0  0  0
   -1.5150   17.5241   46.3044 H   0  0  0  0  0  0  0  0  0  0  0  0
   -1.1771   15.8012   46.6211 H   0  0  0  0  0  0  0  0  0  0  0  0
    2.3758   14.5116   39.5484 H   0  0  0  0  0  0  0  0  0  0  0  0
    1.8120   16.1884   39.7797 H   0  0  0  0  0  0  0  0  0  0  0  0
    1.3234   21.4356   40.8865 H   0  0  0  0  0  0  0  0  0  0  0  0
   -0.3223   14.4020   44.6680 H   0  0  0  0  0  0  0  0  0  0  0  0
   -0.2588   21.0259   42.4240 H   0  0  0  0  0  0  0  0  0  0  0  0
    2.3341   19.0571   42.1865 H   0  0  0  0  0  0  0  0  0  0  0  0
    1.4136   16.7136   41.5287 H   0  0  0  0  0  0  0  0  0  0  0  0
    4.2812   18.8570   35.9269 H   0  0  0  0  0  0  0  0  0  0  0  0
    2.1789   22.0861   39.2618 H   0  0  0  0  0  0  0  0  0  0  0  0
    1.1487   20.3466   38.7039 H   0  0  0  0  0  0  0  0  0  0  0  0
  2 11  1  0
  3  1  1  0
  4 20  1  0
  4 22  2  0
  5 15  1  0
  6 13  1  0
  7  6  2  0
  7 16  1  0
  8 27  1  0
  9  8  2  0
  9 16  1  0
 10 18  1  0
 12 23  1  0
 14 18  2  0
 15  2  2  0
 16 10  2  0
 17  3  2  0
 18 19  1  0
 19 21  1  0
 20  7  1  0
 21 17  1  0
 21 12  2  0
 22  6  1  0
 23  1  2  0
 23  2  1  0
 24 12  1  0
 24  5  2  0
 25  8  1  0
 26  9  1  0
 27 14  1  0
  1 28  1  0
  3 29  1  0
  5 30  1  0
 10 31  1  0
 11 32  1  0
 11 33  1  0
 13 34  1  0
 13 35  1  0
 14 36  1  0
 15 37  1  0
 17 38  1  0
 19 39  1  0
 24 40  1  0
 26 41  1  0
 27 42  1  0
 27 43  1  0
M  END
>  <mol_id>  (38) 
2026-08-24-6tgu-s0-n100-seed1-0040

>  <rmsd_to_ref>  (38) 


$$$$

     RDKit          3D

 41 43  0  0  0  0  0  0  0  0999 V2000
    5.0770   16.2550   36.9030 C   0  0  0  0  0  0  0  0  0  0  0  0
   -0.0270   16.3650   43.8590 C   0  0  0  0  0  0  0  0  0  0  0  0
    0.3840   17.1350   42.7850 C   0  0  0  0  0  0  0  0  0  0  0  0
    0.1080   14.6420   43.6440 Cl  0  0  0  0  0  0  0  0  0  0  0  0
    3.1810   17.2370   38.1600 C   0  0  0  0  0  0  0  0  0  0  0  0
   -0.6650   16.1730   46.3570 C   0  0  0  0  0  0  0  0  0  0  0  0
    3.2400   14.8260   37.6070 C   0  0  0  0  0  0  0  0  0  0  0  0
    2.5640   15.9290   38.1850 C   0  0  0  0  0  0  0  0  0  0  0  0
    4.3130   20.2560   36.9830 O   0  0  0  0  0  0  0  0  0  0  0  0
    2.4550   20.0420   38.4360 C   0  0  0  0  0  0  0  0  0  0  0  0
   -0.8880   18.3520   45.0420 C   0  0  0  0  0  0  0  0  0  0  0  0
    3.1180   20.5810   37.1700 C   0  0  0  0  0  0  0  0  0  0  0  0
    1.3420   19.3920   40.8330 C   0  0  0  0  0  0  0  0  0  0  0  0
    1.8150   20.9970   39.1230 C   0  0  0  0  0  0  0  0  0  0  0  0
    2.0550   18.4040   40.2340 C   0  0  0  0  0  0  0  0  0  0  0  0
    1.2460   20.7170   40.3190 C   0  0  0  0  0  0  0  0  0  0  0  0
    2.5640   18.6030   38.8280 C   0  0  0  0  0  0  0  0  0  0  0  0
    5.1670   13.8150   36.2980 C   0  0  0  0  0  0  0  0  0  0  0  0
    4.4830   15.0130   36.9700 C   0  0  0  0  0  0  0  0  0  0  0  0
    0.1550   18.5220   42.8120 C   0  0  0  0  0  0  0  0  0  0  0  0
    2.2470   17.1920   40.7730 F   0  0  0  0  0  0  0  0  0  0  0  0
    0.5950   19.2130   41.8720 O   0  0  0  0  0  0  0  0  0  0  0  0
   -0.4810   16.9490   45.0630 C   0  0  0  0  0  0  0  0  0  0  0  0
    2.5110   21.4590   36.4970 O   0  0  0  0  0  0  0  0  0  0  0  0
   -0.5110   19.1090   43.9210 C   0  0  0  0  0  0  0  0  0  0  0  0
    4.4540   17.4290   37.4900 C   0  0  0  0  0  0  0  0  0  0  0  0
    6.0459   16.3599   36.3929 H   0  0  0  0  0  0  0  0  0  0  0  0
    0.8827   16.6686   41.9226 H   0  0  0  0  0  0  0  0  0  0  0  0
   -0.5057   16.8449   47.2133 H   0  0  0  0  0  0  0  0  0  0  0  0
   -1.6851   15.7635   46.3971 H   0  0  0  0  0  0  0  0  0  0  0  0
    0.0627   15.3491   46.3971 H   0  0  0  0  0  0  0  0  0  0  0  0
    2.7937   13.8218   37.6556 H   0  0  0  0  0  0  0  0  0  0  0  0
    1.5765   15.7915   38.6497 H   0  0  0  0  0  0  0  0  0  0  0  0
   -1.4641   18.7955   45.8675 H   0  0  0  0  0  0  0  0  0  0  0  0
    1.7513   22.0156   38.7127 H   0  0  0  0  0  0  0  0  0  0  0  0
    0.7185   21.4994   40.8843 H   0  0  0  0  0  0  0  0  0  0  0  0
    5.5556   13.1343   37.0698 H   0  0  0  0  0  0  0  0  0  0  0  0
    4.4379   13.2806   35.6712 H   0  0  0  0  0  0  0  0  0  0  0  0
    5.9978   14.1713   35.6712 H   0  0  0  0  0  0  0  0  0  0  0  0
   -0.7374   20.1853   43.9011 H   0  0  0  0  0  0  0  0  0  0  0  0
    4.9267   18.4204   37.4292 H   0  0  0  0  0  0  0  0  0  0  0  0
  1 19  2  0
  1 26  1  0
  2 23  2  0
  3 20  2  0
  3  2  1  0
  4  2  1  0
  5  8  1  0
  5 17  1  0
  7  8  2  0
  9 12  1  0
 10 17  2  0
 10 14  1  0
 11 23  1  0
 12 10  1  0
 13 22  1  0
 14 16  2  0
 15 21  1  0
 15 13  2  0
 16 13  1  0
 17 15  1  0
 18 19  1  0
 19  7  1  0
 20 25  1  0
 22 20  1  0
 23  6  1  0
 24 12  2  0
 25 11  2  0
 26  5  2  0
  1 27  1  0
  3 28  1  0
  6 29  1  0
  6 30  1  0
  6 31  1  0
  7 32  1  0
  8 33  1  0
 11 34  1  0
 14 35  1  0
 16 36  1  0
 18 37  1  0
 18 38  1  0
 18 39  1  0
 25 40  1  0
 26 41  1  0
M  CHG  1   9  -1
M  END
>  <mol_id>  (39) 
2026-08-24-6tgu-s0-n100-seed1-0041

>  <rmsd_to_ref>  (39) 


$$$$

     RDKit          3D

 25 26  0  0  0  0  0  0  0  0999 V2000
    0.8607   18.6975   42.9746 C   0  0  0  0  0  0  0  0  0  0  0  0
   -1.2226   16.4031   45.3535 C   0  0  0  0  0  0  0  0  0  0  0  0
    2.8335   19.4913   39.3069 C   0  0  0  0  0  0  0  0  0  0  0  0
    2.9517   21.2285   37.6043 O   0  0  0  0  0  0  0  0  0  0  0  0
   -0.4937   18.6735   44.7866 C   0  0  0  0  0  0  0  0  0  0  0  0
   -0.5463   17.4292   44.5592 C   0  0  0  0  0  0  0  0  0  0  0  0
    1.1062   16.7896   40.8582 O   0  0  0  0  0  0  0  0  0  0  0  0
    2.3313   18.1129   39.4991 C   0  0  0  0  0  0  0  0  0  0  0  0
    1.7157   17.9686   40.7085 C   0  0  0  0  0  0  0  0  0  0  0  0
    2.2178   20.2350   41.5114 C   0  0  0  0  0  0  0  0  0  0  0  0
    0.4284   19.5090   43.9611 C   0  0  0  0  0  0  0  0  0  0  0  0
    2.9526   20.3503   40.2272 C   0  0  0  0  0  0  0  0  0  0  0  0
    3.3573   19.2042   37.0216 O   0  0  0  0  0  0  0  0  0  0  0  0
    0.4336   17.0779   43.2308 S   0  0  0  0  0  0  0  0  0  0  0  0
    3.0701   20.0387   37.9522 C   0  0  0  0  0  0  0  0  0  0  0  0
    1.6341   18.9846   41.7169 C   0  0  0  0  0  0  0  0  0  0  0  0
   -0.8649   16.4489   46.3927 H   0  0  0  0  0  0  0  0  0  0  0  0
   -2.3083   16.5788   45.3314 H   0  0  0  0  0  0  0  0  0  0  0  0
   -1.0031   15.4105   44.9335 H   0  0  0  0  0  0  0  0  0  0  0  0
   -1.1128   19.1285   45.5737 H   0  0  0  0  0  0  0  0  0  0  0  0
    0.6287   16.5826   41.7003 H   0  0  0  0  0  0  0  0  0  0  0  0
    2.4405   17.3056   38.7599 H   0  0  0  0  0  0  0  0  0  0  0  0
    2.1404   21.0598   42.2350 H   0  0  0  0  0  0  0  0  0  0  0  0
    0.6979   20.5631   44.1233 H   0  0  0  0  0  0  0  0  0  0  0  0
    3.6214   21.2095   40.0710 H   0  0  0  0  0  0  0  0  0  0  0  0
  1 14  1  0
  1 11  2  0
  3  8  2  0
  3 12  1  0
  4 15  1  0
  6  5  2  0
  6  2  1  0
  8  9  1  0
  9  7  1  0
  9 16  2  0
 10 16  1  0
 11  5  1  0
 12 10  2  0
 13 15  2  0
 14  6  1  0
 15  3  1  0
 16  1  1  0
  2 17  1  0
  2 18  1  0
  2 19  1  0
  5 20  1  0
  7 21  1  0
  8 22  1  0
 10 23  1  0
 11 24  1  0
 12 25  1  0
M  CHG  1   4  -1
M  END
>  <mol_id>  (40) 
2026-08-24-6tgu-s0-n100-seed1-0042

>  <rmsd_to_ref>  (40) 


$$$$

     RDKit          3D

 28 30  0  0  0  0  0  0  0  0999 V2000
    1.6496   16.9888   41.9420 C   0  0  0  0  0  0  0  0  0  0  0  0
   -0.4775   17.4737   43.7091 C   0  0  0  0  0  0  0  0  0  0  0  0
    1.1612   15.9585   42.7730 C   0  0  0  0  0  0  0  0  0  0  0  0
    0.1076   18.5401   43.0164 C   0  0  0  0  0  0  0  0  0  0  0  0
    3.2898   18.6241   36.9306 C   0  0  0  0  0  0  0  0  0  0  0  0
    1.0884   18.3248   41.9990 C   0  0  0  0  0  0  0  0  0  0  0  0
    2.0933   20.7097   38.1366 C   0  0  0  0  0  0  0  0  0  0  0  0
   -0.7722   20.0551   44.4135 O   0  0  0  0  0  0  0  0  0  0  0  0
    2.9449   18.4388   38.2172 C   0  0  0  0  0  0  0  0  0  0  0  0
    3.0826   19.8854   36.3721 N   0  0  0  0  0  0  0  0  0  0  0  0
    2.5296   20.9362   36.9459 N   0  0  0  0  0  0  0  0  0  0  0  0
    0.2195   16.2938   43.8661 C   0  0  0  0  0  0  0  0  0  0  0  0
    1.4263   19.4286   41.1666 C   0  0  2  0  0  0  0  0  0  0  0  0
    2.2953   19.5684   38.9080 C   0  0  0  0  0  0  0  0  0  0  0  0
   -0.1459   19.9468   43.4185 C   0  0  0  0  0  0  0  0  0  0  0  0
    1.2483   21.1043   41.4003 S   0  0  0  0  0  0  0  0  0  0  0  0
    1.7966   19.1789   39.9396 O   0  0  0  0  0  0  0  0  0  0  0  0
    0.4996   21.2050   42.8048 C   0  0  0  0  0  0  0  0  0  0  0  0
    2.4690   16.7753   41.2398 H   0  0  0  0  0  0  0  0  0  0  0  0
   -1.4899   17.5763   44.1270 H   0  0  0  0  0  0  0  0  0  0  0  0
    1.4764   14.9172   42.6109 H   0  0  0  0  0  0  0  0  0  0  0  0
    3.7223   17.8056   36.3366 H   0  0  0  0  0  0  0  0  0  0  0  0
    1.4930   21.5087   38.5961 H   0  0  0  0  0  0  0  0  0  0  0  0
    3.1390   17.4863   38.7319 H   0  0  0  0  0  0  0  0  0  0  0  0
    0.0850   15.6452   44.7443 H   0  0  0  0  0  0  0  0  0  0  0  0
    1.7104   19.3403   42.2256 H   0  0  0  0  0  0  0  0  0  0  0  0
    1.2369   21.5729   43.5335 H   0  0  0  0  0  0  0  0  0  0  0  0
   -0.3611   21.8554   42.5900 H   0  0  0  0  0  0  0  0  0  0  0  0
  1  3  1  0
  2 12  1  0
  3 12  2  0
  4 15  1  0
  4  2  2  0
  5  9  2  0
  6  1  2  0
  6  4  1  0
  7 14  2  0
  9 14  1  0
 10 11  2  0
 10  5  1  0
 11  7  1  0
 13 17  1  0
 13 16  1  0
 13  6  1  0
 14 17  1  0
 15  8  2  0
 16 18  1  0
 18 15  1  0
  1 19  1  0
  2 20  1  0
  3 21  1  0
  5 22  1  0
  7 23  1  0
  9 24  1  0
 12 25  1  0
 13 26  1  1
 18 27  1  0
 18 28  1  0
M  END
>  <mol_id>  (41) 
2026-08-24-6tgu-s0-n100-seed1-0043

>  <rmsd_to_ref>  (41) 


$$$$

     RDKit          3D

 47 51  0  0  0  0  0  0  0  0999 V2000
    2.8080   14.9520   40.5380 N   0  0  0  0  0  0  0  0  0  0  0  0
   -1.2440   20.6530   43.6400 O   0  0  0  0  0  0  0  0  0  0  0  0
   -0.4800   21.2030   42.4080 C   0  0  0  0  0  0  0  0  0  0  0  0
   -0.9200   19.4490   43.7950 C   0  0  0  0  0  0  0  0  0  0  0  0
    2.2400   17.3810   40.1010 N   0  0  0  0  0  0  0  0  0  0  0  0
    1.3330   16.3670   41.9790 C   0  0  0  0  0  0  0  0  0  0  0  0
   -0.8130   17.4190   44.5870 C   0  0  1  0  0  0  0  0  0  0  0  0
   -0.0420   17.4410   43.5070 C   0  0  0  0  0  0  0  0  0  0  0  0
    1.0030   18.8720   41.8020 C   0  0  0  0  0  0  0  0  0  0  0  0
   -1.3180   18.6250   44.8250 N   0  0  0  0  0  0  0  0  0  0  0  0
    2.0740   21.4660   37.7450 C   0  0  0  0  0  0  0  0  0  0  0  0
    2.8070   22.0330   35.1560 O   0  0  0  0  0  0  0  0  0  0  0  0
    3.2080   13.8790   39.9240 C   0  0  0  0  0  0  0  0  0  0  0  0
    0.0700   18.7510   42.9260 C   0  0  0  0  0  0  0  0  0  0  0  0
    1.6910   21.1260   38.9650 C   0  0  0  0  0  0  0  0  0  0  0  0
    3.0450   19.2240   38.9720 C   0  0  0  0  0  0  0  0  0  0  0  0
    2.5810   15.9930   39.8140 C   0  0  0  0  0  0  0  0  0  0  0  0
    0.8440   20.7920   41.6360 C   0  0  0  0  0  0  0  0  0  0  0  0
    3.4980   21.0840   35.8260 O   0  0  0  0  0  0  0  0  0  0  0  0
    2.1270   20.0620   39.6540 C   0  0  0  0  0  0  0  0  0  0  0  0
    0.6410   16.3040   43.0320 C   0  0  0  0  0  0  0  0  0  0  0  0
    3.0320   15.6160   38.1360 S   0  0  0  0  0  0  0  0  0  0  0  0
    1.5260   17.5160   41.2960 C   0  0  0  0  0  0  0  0  0  0  0  0
    3.5700   13.9920   38.4790 C   0  0  0  0  0  0  0  0  0  0  0  0
   -0.9770   16.1570   45.4390 C   0  0  0  0  0  0  0  0  0  0  0  0
    3.5440   19.5110   37.7200 C   0  0  0  0  0  0  0  0  0  0  0  0
    3.0400   20.6670   37.0810 C   0  0  0  0  0  0  0  0  0  0  0  0
    1.7360   20.0400   41.1300 C   0  0  2  0  0  0  0  0  0  0  0  0
   -1.2427   21.1745   41.6158 H   0  0  0  0  0  0  0  0  0  0  0  0
   -0.0185   22.0424   42.9488 H   0  0  0  0  0  0  0  0  0  0  0  0
    2.4958   18.1721   39.4930 H   0  0  0  0  0  0  0  0  0  0  0  0
    1.7997   15.4456   41.6006 H   0  0  0  0  0  0  0  0  0  0  0  0
    0.0905   17.6852   45.1552 H   0  0  0  0  0  0  0  0  0  0  0  0
    1.6501   22.3541   37.2534 H   0  0  0  0  0  0  0  0  0  0  0  0
    2.3660   22.6387   35.8031 H   0  0  0  0  0  0  0  0  0  0  0  0
    3.2780   12.9166   40.4521 H   0  0  0  0  0  0  0  0  0  0  0  0
    0.9499   21.7731   39.4569 H   0  0  0  0  0  0  0  0  0  0  0  0
    3.3753   18.2988   39.4669 H   0  0  0  0  0  0  0  0  0  0  0  0
    0.6154   21.3414   40.7108 H   0  0  0  0  0  0  0  0  0  0  0  0
    1.2888   20.5738   42.6181 H   0  0  0  0  0  0  0  0  0  0  0  0
    0.5704   15.3546   43.5831 H   0  0  0  0  0  0  0  0  0  0  0  0
    4.0447   13.2549   37.8147 H   0  0  0  0  0  0  0  0  0  0  0  0
   -0.9419   16.4270   46.5048 H   0  0  0  0  0  0  0  0  0  0  0  0
   -1.9441   15.6845   45.2121 H   0  0  0  0  0  0  0  0  0  0  0  0
   -0.1628   15.4530   45.2121 H   0  0  0  0  0  0  0  0  0  0  0  0
    4.2990   18.8708   37.2403 H   0  0  0  0  0  0  0  0  0  0  0  0
    2.8103   20.2211   41.2820 H   0  0  0  0  0  0  0  0  0  0  0  0
  2  4  1  0
  3  2  1  0
  4 10  2  0
  5 23  1  0
  6 21  2  0
  7 10  1  0
  7 25  1  0
  8  7  1  0
  9 14  1  0
 11 15  2  0
 12 19  1  0
 13  1  1  0
 14  8  2  0
 14  4  1  0
 15 20  1  0
 16 20  2  0
 17  5  1  0
 17  1  2  0
 18  3  1  0
 19 27  1  0
 21  8  1  0
 22 24  1  0
 22 17  1  0
 23  9  2  0
 23  6  1  0
 24 13  2  0
 26 16  1  0
 27 26  2  0
 27 11  1  0
 28 20  1  0
 28 18  1  0
 28  9  1  0
  3 29  1  0
  3 30  1  0
  5 31  1  0
  6 32  1  0
  7 33  1  6
 11 34  1  0
 12 35  1  0
 13 36  1  0
 15 37  1  0
 16 38  1  0
 18 39  1  0
 18 40  1  0
 21 41  1  0
 24 42  1  0
 25 43  1  0
 25 44  1  0
 25 45  1  0
 26 46  1  0
 28 47  1  1
M  END
>  <mol_id>  (42) 
2026-08-24-6tgu-s0-n100-seed1-0044

>  <rmsd_to_ref>  (42) 


$$$$

     RDKit          3D

 50 50  0  0  0  0  0  0  0  0999 V2000
   -0.0920   18.9480   45.4090 C   0  0  0  0  0  0  0  0  0  0  0  0
    2.6520   21.1560   36.9320 O   0  0  0  0  0  0  0  0  0  0  0  0
    0.0810   17.6960   43.3990 C   0  0  0  0  0  0  0  0  0  0  0  0
    4.6550   16.1320   36.5310 N   0  0  0  0  0  0  0  0  0  0  0  0
   -0.4410   15.8650   44.8370 C   0  0  0  0  0  0  0  0  0  0  0  0
    1.6220   15.2180   41.8030 C   0  0  0  0  0  0  0  0  0  0  0  0
    0.2140   19.9750   42.3410 C   0  0  0  0  0  0  0  0  0  0  0  0
    0.2100   16.3140   43.5730 C   0  0  0  0  0  0  0  0  0  0  0  0
    1.5070   20.2520   40.2920 C   0  0  0  0  0  0  0  0  0  0  0  0
    0.6480   15.3960   42.8880 C   0  0  0  0  0  0  0  0  0  0  0  0
    3.3290   16.1620   38.4380 C   0  0  0  0  0  0  0  0  0  0  0  0
   -1.3920   16.8540   45.4800 C   0  0  0  0  0  0  0  0  0  0  0  0
   -0.5550   20.5020   43.2650 O   0  0  0  0  0  0  0  0  0  0  0  0
   -0.6140   18.3440   44.4440 C   0  0  0  0  0  0  0  0  0  0  0  0
    0.7840   20.7990   41.3970 N   0  0  0  0  0  0  0  0  0  0  0  0
    3.8370   14.8320   38.7290 O   0  0  0  0  0  0  0  0  0  0  0  0
    1.8150   21.0430   39.1700 C   0  0  0  0  0  0  0  0  0  0  0  0
    3.6000   18.3440   37.1730 C   0  0  0  0  0  0  0  0  0  0  0  0
    4.1190   16.9510   37.5390 C   0  0  2  0  0  0  0  0  0  0  0  0
    2.4380   20.4340   38.1670 C   0  0  0  0  0  0  0  0  0  0  0  0
    2.8840   19.0550   38.2210 C   0  0  0  0  0  0  0  0  0  0  0  0
   -0.4780   14.7100   45.2780 O   0  0  0  0  0  0  0  0  0  0  0  0
    3.7700   18.9310   36.1030 O   0  0  0  0  0  0  0  0  0  0  0  0
    2.2470   15.0130   41.0780 N   0  0  0  0  0  0  0  0  0  0  0  0
   -1.8680   18.9540   44.1320 O   0  0  0  0  0  0  0  0  0  0  0  0
    0.4020   18.6120   42.3980 C   0  0  0  0  0  0  0  0  0  0  0  0
    2.5360   18.2880   39.3530 C   0  0  0  0  0  0  0  0  0  0  0  0
    1.8100   18.9060   40.3910 C   0  0  0  0  0  0  0  0  0  0  0  0
   -0.7287   19.4203   46.1716 H   0  0  0  0  0  0  0  0  0  0  0  0
    1.0032   19.0062   45.4940 H   0  0  0  0  0  0  0  0  0  0  0  0
    2.3623   22.0994   36.8536 H   0  0  0  0  0  0  0  0  0  0  0  0
    5.1675   15.3489   36.9612 H   0  0  0  0  0  0  0  0  0  0  0  0
    3.8915   15.7628   35.9464 H   0  0  0  0  0  0  0  0  0  0  0  0
    5.2989   16.6839   35.9464 H   0  0  0  0  0  0  0  0  0  0  0  0
   -0.2697   14.9856   42.4414 H   0  0  0  0  0  0  0  0  0  0  0  0
    1.3490   15.0585   43.6656 H   0  0  0  0  0  0  0  0  0  0  0  0
    2.3271   16.0512   37.9977 H   0  0  0  0  0  0  0  0  0  0  0  0
    3.3408   16.7015   39.3965 H   0  0  0  0  0  0  0  0  0  0  0  0
   -1.3171   16.7761   46.5747 H   0  0  0  0  0  0  0  0  0  0  0  0
   -1.1272   17.8745   45.1661 H   0  0  0  0  0  0  0  0  0  0  0  0
   -2.4220   16.6294   45.1661 H   0  0  0  0  0  0  0  0  0  0  0  0
    0.6885   21.8205   41.4879 H   0  0  0  0  0  0  0  0  0  0  0  0
    3.8857   14.7046   39.7096 H   0  0  0  0  0  0  0  0  0  0  0  0
    1.5535   22.1105   39.1255 H   0  0  0  0  0  0  0  0  0  0  0  0
    4.9853   17.3315   38.0999 H   0  0  0  0  0  0  0  0  0  0  0  0
   -2.3828   19.4171   44.8395 H   0  0  0  0  0  0  0  0  0  0  0  0
   -0.1265   18.2330   41.5109 H   0  0  0  0  0  0  0  0  0  0  0  0
    1.4892   18.6270   42.5648 H   0  0  0  0  0  0  0  0  0  0  0  0
    2.8255   17.2291   39.4240 H   0  0  0  0  0  0  0  0  0  0  0  0
    1.4886   18.3255   41.2684 H   0  0  0  0  0  0  0  0  0  0  0  0
  2 20  1  0
  3  8  2  3
  3 14  1  0
  5 22  2  0
  5 12  1  0
  6 10  1  0
  7 26  1  0
  7 13  2  0
  8  5  1  0
  9 28  1  0
  9 15  1  0
 10  8  1  0
 11 16  1  0
 14  1  2  3
 15  7  1  0
 17  9  2  0
 18 19  1  0
 18 21  1  0
 19  4  1  0
 19 11  1  0
 20 21  2  0
 20 17  1  0
 21 27  1  0
 23 18  2  0
 24  6  3  0
 25 14  1  0
 26  3  1  0
 27 28  2  0
  1 29  1  0
  1 30  1  0
  2 31  1  0
  4 32  1  0
  4 33  1  0
  4 34  1  0
 10 35  1  0
 10 36  1  0
 11 37  1  0
 11 38  1  0
 12 39  1  0
 12 40  1  0
 12 41  1  0
 15 42  1  0
 16 43  1  0
 17 44  1  0
 19 45  1  1
 25 46  1  0
 26 47  1  0
 26 48  1  0
 27 49  1  0
 28 50  1  0
M  CHG  1   4   1
M  END
>  <mol_id>  (43) 
2026-08-24-6tgu-s0-n100-seed1-0045

>  <rmsd_to_ref>  (43) 


$$$$

     RDKit          3D

 37 38  0  0  0  0  0  0  0  0999 V2000
   -0.1875   19.1541   43.7583 C   0  0  0  0  0  0  0  0  0  0  0  0
   -0.1269   21.0933   42.6582 N   0  0  0  0  0  0  0  0  0  0  0  0
    2.9632   18.4930   38.2478 C   0  0  0  0  0  0  0  0  0  0  0  0
    0.6750   19.0246   42.5955 C   0  0  0  0  0  0  0  0  0  0  0  0
    2.5743   15.8285   42.0711 N   0  0  0  0  0  0  0  0  0  0  0  0
    1.6138   16.6260   42.6327 C   0  0  0  0  0  0  0  0  0  0  0  0
    0.6127   20.2315   41.8904 C   0  0  0  0  0  0  0  0  0  0  0  0
    1.0909   20.6603   40.6207 C   0  0  0  0  0  0  0  0  0  0  0  0
    3.7852   13.7373   41.8575 C   0  0  0  0  0  0  0  0  0  0  0  0
    1.4166   17.9181   41.9071 C   0  0  0  0  0  0  0  0  0  0  0  0
    2.6264   14.5154   42.4916 C   0  0  0  0  0  0  0  0  0  0  0  0
   -0.6235   18.2750   44.8747 C   0  0  0  0  0  0  0  0  0  0  0  0
   -0.5434   20.4034   43.7779 N   0  0  0  0  0  0  0  0  0  0  0  0
   -2.1061   18.2439   44.8804 N   0  0  0  0  0  0  0  0  0  0  0  0
    2.2491   16.3682   37.6393 O   0  0  0  0  0  0  0  0  0  0  0  0
    1.0019   16.2890   43.6250 O   0  0  0  0  0  0  0  0  0  0  0  0
    2.2698   18.8501   39.5051 C   0  0  0  0  0  0  0  0  0  0  0  0
    3.2399   17.1414   37.7838 C   0  0  0  0  0  0  0  0  0  0  0  0
    4.3815   16.6952   37.6379 O   0  0  0  0  0  0  0  0  0  0  0  0
    2.0769   17.9855   40.6118 C   0  0  0  0  0  0  0  0  0  0  0  0
    1.7265   20.1117   39.5502 C   0  0  0  0  0  0  0  0  0  0  0  0
    2.3691   18.9580   37.4473 H   0  0  0  0  0  0  0  0  0  0  0  0
    3.9835   18.8225   38.4932 H   0  0  0  0  0  0  0  0  0  0  0  0
    3.2299   16.1929   41.3652 H   0  0  0  0  0  0  0  0  0  0  0  0
    0.8917   21.7302   40.4604 H   0  0  0  0  0  0  0  0  0  0  0  0
    4.5315   13.4974   42.6291 H   0  0  0  0  0  0  0  0  0  0  0  0
    3.4027   12.8056   41.4151 H   0  0  0  0  0  0  0  0  0  0  0  0
    4.2529   14.3506   41.0731 H   0  0  0  0  0  0  0  0  0  0  0  0
    2.7487   14.5004   43.5846 H   0  0  0  0  0  0  0  0  0  0  0  0
    1.6899   14.0294   42.1807 H   0  0  0  0  0  0  0  0  0  0  0  0
   -0.2292   17.2589   44.7256 H   0  0  0  0  0  0  0  0  0  0  0  0
   -0.2453   18.6588   45.8337 H   0  0  0  0  0  0  0  0  0  0  0  0
   -2.4489   18.3865   45.8412 H   0  0  0  0  0  0  0  0  0  0  0  0
   -2.4676   18.9924   44.2722 H   0  0  0  0  0  0  0  0  0  0  0  0
   -2.4317   17.3310   44.5317 H   0  0  0  0  0  0  0  0  0  0  0  0
    2.6093   17.0406   40.4286 H   0  0  0  0  0  0  0  0  0  0  0  0
    1.8129   20.7299   38.6445 H   0  0  0  0  0  0  0  0  0  0  0  0
  1 13  1  0
  1 12  1  0
  2 13  2  0
  3 17  1  0
  4  1  2  0
  5 11  1  0
  5  6  1  0
  6 16  2  0
  7  4  1  0
  7  2  1  0
  8  7  2  0
  9 11  1  0
 10  6  1  0
 10  4  1  0
 14 12  1  0
 15 18  2  0
 17 21  2  0
 17 20  1  0
 18  3  1  0
 19 18  1  0
 20 10  2  0
 21  8  1  0
  3 22  1  0
  3 23  1  0
  5 24  1  0
  8 25  1  0
  9 26  1  0
  9 27  1  0
  9 28  1  0
 11 29  1  0
 11 30  1  0
 12 31  1  0
 12 32  1  0
 14 33  1  0
 14 34  1  0
 14 35  1  0
 20 36  1  0
 21 37  1  0
M  CHG  2  14   1  19  -1
M  END
>  <mol_id>  (44) 
2026-08-24-6tgu-s0-n100-seed1-0046

>  <rmsd_to_ref>  (44) 


$$$$

     RDKit          3D

 31 35  0  0  0  0  0  0  0  0999 V2000
    3.7982   19.2701   37.0137 N   0  0  0  0  0  0  0  0  0  0  0  0
   -0.4635   19.7871   44.0377 C   0  0  0  0  0  0  0  0  0  0  0  0
    2.7865   20.2348   38.8226 C   0  0  0  0  0  0  0  0  0  0  0  0
    0.8726   18.7338   42.3639 C   0  0  0  0  0  0  0  0  0  0  0  0
    0.1662   18.3890   43.7560 C   0  0  0  0  0  0  0  0  0  0  0  0
    0.3338   21.3539   42.3028 C   0  0  0  0  0  0  0  0  0  0  0  0
    1.6466   15.8777   42.2764 C   0  0  0  0  0  0  0  0  0  0  0  0
    4.0380   17.9921   37.5870 C   0  0  0  0  0  0  0  0  0  0  0  0
    1.4286   19.1935   41.4674 C   0  0  0  0  0  0  0  0  0  0  0  0
    1.2196   20.7494   41.1606 C   0  0  2  0  0  0  0  0  0  0  0  0
    0.0308   17.0331   44.2566 N   0  0  0  0  0  0  0  0  0  0  0  0
    2.0453   21.2140   39.9507 S   0  0  0  0  0  0  0  0  0  0  0  0
    3.1670   20.3066   37.6376 C   0  0  0  0  0  0  0  0  0  0  0  0
    2.2326   18.3664   40.8921 C   0  0  0  0  0  0  0  0  0  0  0  0
    3.3946   17.7344   38.9715 C   0  0  0  0  0  0  0  0  0  0  0  0
    2.3413   16.7125   41.1697 C   0  0  0  0  0  0  0  0  0  0  0  0
    0.8504   16.1418   43.4847 C   0  0  0  0  0  0  0  0  0  0  0  0
    3.2124   16.6210   39.7041 N   0  0  0  0  0  0  0  0  0  0  0  0
   -0.2922   20.9082   43.3011 N   0  0  0  0  0  0  0  0  0  0  0  0
    2.7217   18.8130   39.6008 C   0  0  0  0  0  0  0  0  0  0  0  0
   -1.5500   19.6147   44.0480 H   0  0  0  0  0  0  0  0  0  0  0  0
    0.1087   20.0681   44.9341 H   0  0  0  0  0  0  0  0  0  0  0  0
    0.2327   22.4453   42.2094 H   0  0  0  0  0  0  0  0  0  0  0  0
    1.7867   14.7987   42.1145 H   0  0  0  0  0  0  0  0  0  0  0  0
    4.6455   17.2302   37.0768 H   0  0  0  0  0  0  0  0  0  0  0  0
    0.3137   20.5139   40.5828 H   0  0  0  0  0  0  0  0  0  0  0  0
    0.3276   17.0021   45.2425 H   0  0  0  0  0  0  0  0  0  0  0  0
   -0.9537   16.7404   44.1793 H   0  0  0  0  0  0  0  0  0  0  0  0
    2.9882   21.2359   37.0767 H   0  0  0  0  0  0  0  0  0  0  0  0
    0.1536   15.2935   43.4140 H   0  0  0  0  0  0  0  0  0  0  0  0
    1.7416   16.5853   43.9527 H   0  0  0  0  0  0  0  0  0  0  0  0
  1  8  2  0
  1 13  1  0
  3 20  1  0
  3 12  1  0
  4  5  2  0
  5 11  1  0
  5  2  1  0
  6 19  2  0
  7 17  1  0
  8 15  1  0
  9  4  2  0
 10  9  1  0
 10  6  1  0
 12 10  1  0
 13  3  2  0
 14 16  1  0
 14  9  1  0
 15 18  2  0
 15 20  1  0
 16  7  2  0
 17 11  1  0
 18 16  1  0
 19  2  1  0
 20 14  2  0
  2 21  1  0
  2 22  1  0
  6 23  1  0
  7 24  1  0
  8 25  1  0
 10 26  1  6
 11 27  1  0
 11 28  1  0
 13 29  1  0
 17 30  1  0
 17 31  1  0
M  CHG  1  11   1
M  END
>  <mol_id>  (45) 
2026-08-24-6tgu-s0-n100-seed1-0047

>  <rmsd_to_ref>  (45) 


$$$$

     RDKit          3D

 26 27  0  0  0  0  0  0  0  0999 V2000
    1.1854   16.9891   41.1626 N   0  0  0  0  0  0  0  0  0  0  0  0
    2.6655   21.7459   35.3058 N   0  0  0  0  0  0  0  0  0  0  0  0
    2.5405   20.3417   37.4823 C   0  0  0  0  0  0  0  0  0  0  0  0
    2.6475   21.1269   36.3137 C   0  0  0  0  0  0  0  0  0  0  0  0
    0.1350   17.8154   44.5354 C   0  0  0  0  0  0  0  0  0  0  0  0
    2.4929   19.0451   37.2768 C   0  0  0  0  0  0  0  0  0  0  0  0
    2.2082   19.9211   39.7564 C   0  0  0  0  0  0  0  0  0  0  0  0
    1.6682   17.7095   40.3751 N   0  0  0  0  0  0  0  0  0  0  0  0
    1.3828   18.8189   42.3736 C   0  0  0  0  0  0  0  0  0  0  0  0
    2.1891   18.1556   38.2642 C   0  0  0  0  0  0  0  0  0  0  0  0
    1.2545   19.6173   43.5731 N   0  0  0  0  0  0  0  0  0  0  0  0
    2.5087   20.8639   38.7646 C   0  0  0  0  0  0  0  0  0  0  0  0
    0.6162   19.0975   44.5405 C   0  0  0  0  0  0  0  0  0  0  0  0
    0.2583   17.0543   43.4070 C   0  0  0  0  0  0  0  0  0  0  0  0
    2.0224   18.5853   39.5781 C   0  0  0  0  0  0  0  0  0  0  0  0
    0.8199   17.6225   42.3184 C   0  0  0  0  0  0  0  0  0  0  0  0
    1.0499   15.9809   41.0010 H   0  0  0  0  0  0  0  0  0  0  0  0
   -0.3474   17.4011   45.4330 H   0  0  0  0  0  0  0  0  0  0  0  0
    2.7065   18.6620   36.2681 H   0  0  0  0  0  0  0  0  0  0  0  0
    2.1128   20.2999   40.7847 H   0  0  0  0  0  0  0  0  0  0  0  0
    2.4817   17.1032   40.1975 H   0  0  0  0  0  0  0  0  0  0  0  0
    1.9459   19.2046   41.5110 H   0  0  0  0  0  0  0  0  0  0  0  0
    2.0748   17.0890   38.0207 H   0  0  0  0  0  0  0  0  0  0  0  0
    2.7020   21.9242   38.9847 H   0  0  0  0  0  0  0  0  0  0  0  0
    0.4397   19.7132   45.4348 H   0  0  0  0  0  0  0  0  0  0  0  0
   -0.0892   16.0109   43.3862 H   0  0  0  0  0  0  0  0  0  0  0  0
  1 16  1  0
  2  4  3  0
  3 12  2  0
  4  3  1  0
  5 13  1  0
  6  3  1  0
  6 10  2  0
  8  1  1  0
  9 11  1  0
 10 15  1  0
 11 13  2  0
 12  7  1  0
 14  5  2  0
 15  7  2  0
 15  8  1  0
 16  9  2  0
 16 14  1  0
  1 17  1  0
  5 18  1  0
  6 19  1  0
  7 20  1  0
  8 21  1  0
  9 22  1  0
 10 23  1  0
 12 24  1  0
 13 25  1  0
 14 26  1  0
M  END
>  <mol_id>  (46) 
2026-08-24-6tgu-s0-n100-seed1-0048

>  <rmsd_to_ref>  (46) 


$$$$

     RDKit          3D

 60 62  0  0  0  0  0  0  0  0999 V2000
    3.3520   21.1770   35.9810 N   0  0  0  0  0  0  0  0  0  0  0  0
    0.7080   14.8530   42.9580 C   0  0  0  0  0  0  0  0  0  0  0  0
   -1.3660   17.4820   45.4670 C   0  0  0  0  0  0  0  0  0  0  0  0
    2.6560   18.3340   39.0130 C   0  0  1  0  0  0  0  0  0  0  0  0
    0.8980   19.3570   42.0250 C   0  0  0  0  0  0  0  0  0  0  0  0
    0.8930   20.6120   41.0580 C   0  0  0  0  0  0  0  0  0  0  0  0
   -0.1380   17.3900   43.2250 C   0  0  0  0  0  0  0  0  0  0  0  0
    3.0090   17.1180   38.9120 N   0  0  0  0  0  0  0  0  0  0  0  0
    0.0570   14.1290   44.2100 C   0  0  0  0  0  0  0  0  0  0  0  0
    3.5620   14.4280   38.4700 C   0  0  0  0  0  0  0  0  0  0  0  0
   -1.0520   16.9890   44.1220 O   0  0  0  0  0  0  0  0  0  0  0  0
    3.2960   21.2200   40.5780 F   0  0  0  0  0  0  0  0  0  0  0  0
    0.6610   20.9710   39.9440 F   0  0  0  0  0  0  0  0  0  0  0  0
    0.7670   16.3050   42.6340 C   0  0  0  0  0  0  0  0  0  0  0  0
    2.6140   21.3550   36.7030 C   0  0  0  0  0  0  0  0  0  0  0  0
    1.6450   18.1860   41.4070 C   0  0  0  0  0  0  0  0  0  0  0  0
    3.2350   19.9610   40.4810 C   0  0  2  0  0  0  0  0  0  0  0  0
    3.7280   15.4380   37.4060 N   0  0  0  0  0  0  0  0  0  0  0  0
    1.0550   20.5910   41.9000 O   0  0  0  0  0  0  0  0  0  0  0  0
   -0.0770   18.7400   42.9310 C   0  0  0  0  0  0  0  0  0  0  0  0
    3.9440   17.7370   36.9440 N   0  0  0  0  0  0  0  0  0  0  0  0
    1.6180   13.8950   42.2530 C   0  0  0  0  0  0  0  0  0  0  0  0
    2.3590   18.8710   40.2600 C   0  0  1  0  0  0  0  0  0  0  0  0
    2.2710   20.5680   37.7280 C   0  0  0  0  0  0  0  0  0  0  0  0
    4.6470   19.4990   40.7150 C   0  0  0  0  0  0  0  0  0  0  0  0
    2.8160   19.4100   37.9380 C   0  0  0  0  0  0  0  0  0  0  0  0
    1.5780   16.8490   41.6670 C   0  0  0  0  0  0  0  0  0  0  0  0
    3.6390   16.9140   37.7860 C   0  0  0  0  0  0  0  0  0  0  0  0
    5.1150   15.4270   36.9110 C   0  0  0  0  0  0  0  0  0  0  0  0
    3.5240   19.0370   36.9340 C   0  0  0  0  0  0  0  0  0  0  0  0
    3.7370   20.3750   35.9780 N   0  0  0  0  0  0  0  0  0  0  0  0
   -0.2077   15.3207   42.5673 H   0  0  0  0  0  0  0  0  0  0  0  0
   -0.9335   16.8030   46.2166 H   0  0  0  0  0  0  0  0  0  0  0  0
   -0.9425   18.4889   45.5966 H   0  0  0  0  0  0  0  0  0  0  0  0
   -2.4575   17.5239   45.5966 H   0  0  0  0  0  0  0  0  0  0  0  0
    1.8932   17.7348   38.4942 H   0  0  0  0  0  0  0  0  0  0  0  0
    1.7866   20.0334   40.7809 H   0  0  0  0  0  0  0  0  0  0  0  0
   -0.1285   20.9280   41.3161 H   0  0  0  0  0  0  0  0  0  0  0  0
    0.4539   14.5704   45.1361 H   0  0  0  0  0  0  0  0  0  0  0  0
   -1.0351   14.2578   44.1811 H   0  0  0  0  0  0  0  0  0  0  0  0
    0.3007   13.0567   44.1811 H   0  0  0  0  0  0  0  0  0  0  0  0
    3.6420   14.9147   39.4532 H   0  0  0  0  0  0  0  0  0  0  0  0
    2.5739   13.9541   38.3748 H   0  0  0  0  0  0  0  0  0  0  0  0
    4.3464   13.6627   38.3748 H   0  0  0  0  0  0  0  0  0  0  0  0
    2.0569   22.2986   36.6066 H   0  0  0  0  0  0  0  0  0  0  0  0
    3.4377   20.0343   39.4023 H   0  0  0  0  0  0  0  0  0  0  0  0
   -0.8140   19.3999   43.4120 H   0  0  0  0  0  0  0  0  0  0  0  0
    2.1770   13.3065   42.9954 H   0  0  0  0  0  0  0  0  0  0  0  0
    1.0215   13.2189   41.6229 H   0  0  0  0  0  0  0  0  0  0  0  0
    2.3239   14.4560   41.6229 H   0  0  0  0  0  0  0  0  0  0  0  0
    1.2794   19.0763   40.2120 H   0  0  0  0  0  0  0  0  0  0  0  0
    1.4933   20.9176   38.4229 H   0  0  0  0  0  0  0  0  0  0  0  0
    4.8379   19.4365   41.7965 H   0  0  0  0  0  0  0  0  0  0  0  0
    4.7886   18.5077   40.2598 H   0  0  0  0  0  0  0  0  0  0  0  0
    5.3472   20.2149   40.2598 H   0  0  0  0  0  0  0  0  0  0  0  0
    2.2061   16.1702   41.0714 H   0  0  0  0  0  0  0  0  0  0  0  0
    5.8089   15.4215   37.7645 H   0  0  0  0  0  0  0  0  0  0  0  0
    5.2789   14.5275   36.2994 H   0  0  0  0  0  0  0  0  0  0  0  0
    5.2932   16.3238   36.2994 H   0  0  0  0  0  0  0  0  0  0  0  0
    4.4484   20.2551   35.2429 H   0  0  0  0  0  0  0  0  0  0  0  0
  1 15  2  0
  2  9  1  0
  4 23  1  0
  5 20  1  0
  6 19  1  0
  7 11  1  0
  8  4  1  0
 11  3  1  0
 13  6  1  0
 14  2  1  0
 14  7  1  0
 15 24  1  0
 16 27  1  0
 16  5  2  0
 17 12  1  0
 17 25  1  0
 18 28  1  0
 18 10  1  0
 19  5  1  0
 20  7  2  0
 21 28  1  0
 22  2  1  0
 23 17  1  0
 23 16  1  0
 24 26  2  0
 26  4  1  0
 27 14  2  0
 28  8  2  0
 29 18  1  0
 30 21  2  0
 30 26  1  0
 31  1  1  0
 31 30  1  0
  2 32  1  0
  3 33  1  0
  3 34  1  0
  3 35  1  0
  4 36  1  6
  6 37  1  0
  6 38  1  0
  9 39  1  0
  9 40  1  0
  9 41  1  0
 10 42  1  0
 10 43  1  0
 10 44  1  0
 15 45  1  0
 17 46  1  6
 20 47  1  0
 22 48  1  0
 22 49  1  0
 22 50  1  0
 23 51  1  6
 24 52  1  0
 25 53  1  0
 25 54  1  0
 25 55  1  0
 27 56  1  0
 29 57  1  0
 29 58  1  0
 29 59  1  0
 31 60  1  0
M  END
>  <mol_id>  (47) 
2026-08-24-6tgu-s0-n100-seed1-0049

>  <rmsd_to_ref>  (47) 


$$$$

     RDKit          3D

 20 21  0  0  0  0  0  0  0  0999 V2000
    0.1570   16.8600   43.3330 N   0  0  0  0  0  0  0  0  0  0  0  0
    2.1060   18.7430   40.6600 C   0  0  0  0  0  0  0  0  0  0  0  0
    1.2000   16.9670   42.4680 N   0  0  0  0  0  0  0  0  0  0  0  0
    3.4040   19.4460   37.1880 O   0  0  0  0  0  0  0  0  0  0  0  0
   -0.5070   17.9820   43.2250 C   0  0  0  0  0  0  0  0  0  0  0  0
    2.5400   20.6100   39.0890 C   0  0  0  0  0  0  0  0  0  0  0  0
    0.1870   18.8400   42.2830 C   0  0  0  0  0  0  0  0  0  0  0  0
   -0.1150   20.1340   41.8000 C   0  0  0  0  0  0  0  0  0  0  0  0
    1.3310   18.1290   41.7580 C   0  0  2  0  0  0  0  0  0  0  0  0
    0.6830   20.7120   40.7660 C   0  0  0  0  0  0  0  0  0  0  0  0
    2.7590   20.3550   37.6460 C   0  0  0  0  0  0  0  0  0  0  0  0
    1.7020   19.9730   40.1900 C   0  0  0  0  0  0  0  0  0  0  0  0
    2.3070   21.2200   36.8340 O   0  0  0  0  0  0  0  0  0  0  0  0
    2.9805   18.2324   40.2303 H   0  0  0  0  0  0  0  0  0  0  0  0
   -1.4356   18.2328   43.7587 H   0  0  0  0  0  0  0  0  0  0  0  0
    2.1961   21.6548   39.0991 H   0  0  0  0  0  0  0  0  0  0  0  0
    3.4807   20.1370   39.4074 H   0  0  0  0  0  0  0  0  0  0  0  0
   -0.9631   20.6947   42.2199 H   0  0  0  0  0  0  0  0  0  0  0  0
    1.9787   18.6277   42.4940 H   0  0  0  0  0  0  0  0  0  0  0  0
    0.4885   21.7407   40.4286 H   0  0  0  0  0  0  0  0  0  0  0  0
  3  1  2  0
  4 11  1  0
  5  1  1  0
  6 12  1  0
  7  5  2  0
  8  7  1  0
  9  2  1  0
  9  7  1  0
  9  3  1  0
 10  8  2  0
 11  6  1  0
 12  2  2  0
 12 10  1  0
 13 11  2  0
  2 14  1  0
  5 15  1  0
  6 16  1  0
  6 17  1  0
  8 18  1  0
  9 19  1  1
 10 20  1  0
M  CHG  1   4  -1
M  END
>  <mol_id>  (48) 
2026-08-24-6tgu-s0-n100-seed1-0050

>  <rmsd_to_ref>  (48) 


$$$$

     RDKit          3D

 44 46  0  0  0  0  0  0  0  0999 V2000
    2.3983   20.6186   37.5161 C   0  0  0  0  0  0  0  0  0  0  0  0
   -0.1273   13.8658   44.5585 C   0  0  0  0  0  0  0  0  0  0  0  0
    0.1279   20.5977   43.4034 N   0  0  0  0  0  0  0  0  0  0  0  0
   -0.5011   12.9883   45.4455 N   0  0  0  0  0  0  0  0  0  0  0  0
    2.5833   17.1066   37.0007 N   0  0  0  0  0  0  0  0  0  0  0  0
    1.0876   16.4383   42.5765 C   0  0  0  0  0  0  0  0  0  0  0  0
    1.4445   19.8559   40.9204 C   0  0  0  0  0  0  0  0  0  0  0  0
    2.1021   20.7692   38.7763 C   0  0  0  0  0  0  0  0  0  0  0  0
    2.6082   19.4234   36.8686 N   0  0  0  0  0  0  0  0  0  0  0  0
    0.0939   18.4613   44.0516 C   0  0  0  0  0  0  0  0  0  0  0  0
   -0.4173   17.2296   44.3993 C   0  0  0  0  0  0  0  0  0  0  0  0
    1.3565   17.3986   41.7412 C   0  0  0  0  0  0  0  0  0  0  0  0
    0.1237   16.0211   43.7004 C   0  0  2  0  0  0  0  0  0  0  0  0
   -0.3153   13.3735   43.2943 O   0  0  0  0  0  0  0  0  0  0  0  0
    1.1325   18.9222   41.8429 C   0  0  0  0  0  0  0  0  0  0  0  0
    0.5062   19.2934   43.0717 C   0  0  0  0  0  0  0  0  0  0  0  0
    2.5504   21.5824   36.7379 C   0  0  0  0  0  0  0  0  0  0  0  0
    2.5412   18.3692   37.5752 C   0  0  0  0  0  0  0  0  0  0  0  0
    2.9087   22.0771   35.7791 N   0  0  0  0  0  0  0  0  0  0  0  0
    0.4232   14.9747   44.6638 N   0  0  0  0  0  0  0  0  0  0  0  0
    2.2976   18.3996   39.0090 C   0  0  0  0  0  0  0  0  0  0  0  0
    0.5817   21.2856   42.5711 C   0  0  0  0  0  0  0  0  0  0  0  0
    1.1584   21.0639   41.4471 C   0  0  0  0  0  0  0  0  0  0  0  0
    1.9495   19.6377   39.5402 C   0  0  0  0  0  0  0  0  0  0  0  0
   -0.9502   12.1114   45.1450 H   0  0  0  0  0  0  0  0  0  0  0  0
   -0.3477   13.1712   46.4474 H   0  0  0  0  0  0  0  0  0  0  0  0
    2.5271   16.2679   37.5960 H   0  0  0  0  0  0  0  0  0  0  0  0
    2.6706   17.0082   35.9792 H   0  0  0  0  0  0  0  0  0  0  0  0
    2.0534   16.3460   43.0949 H   0  0  0  0  0  0  0  0  0  0  0  0
    0.4718   15.9236   41.8242 H   0  0  0  0  0  0  0  0  0  0  0  0
    1.9783   21.7706   39.2144 H   0  0  0  0  0  0  0  0  0  0  0  0
   -0.6646   19.1051   44.5208 H   0  0  0  0  0  0  0  0  0  0  0  0
    1.1109   18.0467   44.1149 H   0  0  0  0  0  0  0  0  0  0  0  0
   -0.2372   17.0928   45.4758 H   0  0  0  0  0  0  0  0  0  0  0  0
   -1.4730   17.2742   44.0936 H   0  0  0  0  0  0  0  0  0  0  0  0
    2.4388   17.3025   41.5693 H   0  0  0  0  0  0  0  0  0  0  0  0
    0.5428   17.1904   41.0308 H   0  0  0  0  0  0  0  0  0  0  0  0
   -0.6025   15.4688   43.0858 H   0  0  0  0  0  0  0  0  0  0  0  0
    2.0742   22.4129   37.2796 H   0  0  0  0  0  0  0  0  0  0  0  0
    2.7392   23.0810   35.6230 H   0  0  0  0  0  0  0  0  0  0  0  0
    1.0885   15.1516   45.4299 H   0  0  0  0  0  0  0  0  0  0  0  0
    2.3833   17.4990   39.6348 H   0  0  0  0  0  0  0  0  0  0  0  0
    0.4941   22.3569   42.8046 H   0  0  0  0  0  0  0  0  0  0  0  0
    1.4478   21.9449   40.8553 H   0  0  0  0  0  0  0  0  0  0  0  0
  1  8  1  0
  2 20  1  0
  2  4  1  0
  3 16  1  0
  5 18  1  0
  6 13  1  0
  7 23  2  0
  7 15  1  0
  8 24  2  0
  9  1  2  0
  9 18  1  0
 10 11  1  0
 12  6  1  0
 13 11  1  0
 13 20  1  0
 14  2  2  0
 15 12  1  0
 15 16  2  0
 16 10  1  0
 17  1  1  0
 18 21  2  0
 19 17  2  3
 21 24  1  0
 22  3  2  0
 23 22  1  0
 24  7  1  0
  4 25  1  0
  4 26  1  0
  5 27  1  0
  5 28  1  0
  6 29  1  0
  6 30  1  0
  8 31  1  0
 10 32  1  0
 10 33  1  0
 11 34  1  0
 11 35  1  0
 12 36  1  0
 12 37  1  0
 13 38  1  6
 17 39  1  0
 19 40  1  0
 20 41  1  0
 21 42  1  0
 22 43  1  0
 23 44  1  0
M  END
>  <mol_id>  (49) 
2026-08-24-6tgu-s0-n100-seed1-0051

>  <rmsd_to_ref>  (49) 


$$$$

     RDKit          3D

 34 35  0  0  0  0  0  0  0  0999 V2000
    0.3072   17.8894   42.9751 C   0  0  0  0  0  0  0  0  0  0  0  0
    2.2097   18.3022   40.6497 N   0  0  0  0  0  0  0  0  0  0  0  0
   -1.4203   18.8696   44.2036 C   0  0  0  0  0  0  0  0  0  0  0  0
   -1.3379   20.0643   43.4605 C   0  0  0  0  0  0  0  0  0  0  0  0
   -0.3579   20.1715   42.4658 C   0  0  0  0  0  0  0  0  0  0  0  0
    1.4685   19.1847   41.1314 C   0  0  0  0  0  0  0  0  0  0  0  0
    1.2870   16.5430   42.7063 Cl  0  0  0  0  0  0  0  0  0  0  0  0
    3.0570   20.5167   38.0636 C   0  0  0  0  0  0  0  0  0  0  0  0
    3.0553   19.1516   38.6341 C   0  0  0  0  0  0  0  0  0  0  0  0
    3.5173   18.4011   37.6062 C   0  0  0  0  0  0  0  0  0  0  0  0
   -0.6280   17.7949   43.9447 C   0  0  0  0  0  0  0  0  0  0  0  0
    3.4728   20.3502   36.7792 C   0  0  0  0  0  0  0  0  0  0  0  0
    3.4746   21.3409   35.8395 O   0  0  0  0  0  0  0  0  0  0  0  0
    3.0008   18.5700   39.7993 C   0  0  1  0  0  0  0  0  0  0  0  0
    3.7871   19.1156   36.4917 N   0  0  0  0  0  0  0  0  0  0  0  0
    2.8532   19.4456   39.9573 C   0  0  0  0  0  0  0  0  0  0  0  0
    1.9715   20.2657   40.6500 N   0  0  0  0  0  0  0  0  0  0  0  0
    0.4524   19.1253   42.1747 C   0  0  0  0  0  0  0  0  0  0  0  0
   -2.1519   18.8039   45.0225 H   0  0  0  0  0  0  0  0  0  0  0  0
   -2.0299   20.8962   43.6578 H   0  0  0  0  0  0  0  0  0  0  0  0
   -0.2445   21.1165   41.9142 H   0  0  0  0  0  0  0  0  0  0  0  0
    3.8932   20.3142   38.7489 H   0  0  0  0  0  0  0  0  0  0  0  0
    2.7091   21.5506   38.2053 H   0  0  0  0  0  0  0  0  0  0  0  0
    2.2324   19.8201   38.2753 H   0  0  0  0  0  0  0  0  0  0  0  0
    3.7116   20.0292   38.7288 H   0  0  0  0  0  0  0  0  0  0  0  0
    2.0121   19.3874   38.3770 H   0  0  0  0  0  0  0  0  0  0  0  0
    4.4415   17.8999   37.9298 H   0  0  0  0  0  0  0  0  0  0  0  0
    2.7222   17.6870   37.3461 H   0  0  0  0  0  0  0  0  0  0  0  0
   -0.7471   16.8628   44.5165 H   0  0  0  0  0  0  0  0  0  0  0  0
    3.6060   17.6514   39.8033 H   0  0  0  0  0  0  0  0  0  0  0  0
    4.1626   18.7605   35.6007 H   0  0  0  0  0  0  0  0  0  0  0  0
    3.8192   19.7563   40.3819 H   0  0  0  0  0  0  0  0  0  0  0  0
    2.3095   19.5765   39.0101 H   0  0  0  0  0  0  0  0  0  0  0  0
    1.7994   21.2774   40.7379 H   0  0  0  0  0  0  0  0  0  0  0  0
  1 11  2  0
  2  6  2  0
  4  3  2  0
  5  4  1  0
  6 18  1  0
  7  1  1  0
 10  9  1  0
 11  3  1  0
 12  8  1  0
 13 12  2  0
 14  9  1  0
 14 16  1  0
 14  2  1  0
 15 12  1  0
 15 10  1  0
 16 17  1  0
 17  6  1  0
 18  5  2  0
 18  1  1  0
  3 19  1  0
  4 20  1  0
  5 21  1  0
  8 22  1  0
  8 23  1  0
  8 24  1  0
  9 25  1  0
  9 26  1  0
 10 27  1  0
 10 28  1  0
 11 29  1  0
 14 30  1  1
 15 31  1  0
 16 32  1  0
 16 33  1  0
 17 34  1  0
M  END
>  <mol_id>  (50) 
2026-08-24-6tgu-s0-n100-seed1-0052

>  <rmsd_to_ref>  (50) 


$$$$

     RDKit          3D

 24 25  0  0  0  0  0  0  0  0999 V2000
    3.2797   18.8293   38.0712 C   0  0  0  0  0  0  0  0  0  0  0  0
    0.7736   20.6346   41.7272 C   0  0  0  0  0  0  0  0  0  0  0  0
    2.8023   18.4308   39.3039 C   0  0  0  0  0  0  0  0  0  0  0  0
   -0.5103   18.6803   43.8542 C   0  0  0  0  0  0  0  0  0  0  0  0
    3.2202   20.9065   37.0214 O   0  0  0  0  0  0  0  0  0  0  0  0
    2.8552   20.2495   37.9017 C   0  0  0  0  0  0  0  0  0  0  0  0
   -0.1112   20.8185   42.7465 C   0  0  0  0  0  0  0  0  0  0  0  0
    2.0984   20.4864   39.0131 O   0  0  0  0  0  0  0  0  0  0  0  0
    2.1221   19.4923   39.9538 C   0  0  0  0  0  0  0  0  0  0  0  0
   -0.6102   20.0388   43.6595 C   0  0  0  0  0  0  0  0  0  0  0  0
    0.1811   17.9246   42.9512 C   0  0  0  0  0  0  0  0  0  0  0  0
    0.9078   18.2820   41.7917 C   0  0  0  0  0  0  0  0  0  0  0  0
    3.8513   18.2092   37.1205 O   0  0  0  0  0  0  0  0  0  0  0  0
    1.2484   19.4018   41.1713 C   0  0  0  0  0  0  0  0  0  0  0  0
   -1.1647   18.2455   45.0090 C   0  0  0  0  0  0  0  0  0  0  0  0
    1.2962   21.7773   41.1949 O   0  0  0  0  0  0  0  0  0  0  0  0
   -1.6573   18.0194   46.0144 N   0  0  0  0  0  0  0  0  0  0  0  0
    2.9323   17.4235   39.7261 H   0  0  0  0  0  0  0  0  0  0  0  0
    0.3510   21.6253   43.3341 H   0  0  0  0  0  0  0  0  0  0  0  0
   -1.0073   20.8200   42.1086 H   0  0  0  0  0  0  0  0  0  0  0  0
   -1.2221   20.5586   44.4114 H   0  0  0  0  0  0  0  0  0  0  0  0
    0.1712   16.8453   43.1635 H   0  0  0  0  0  0  0  0  0  0  0  0
    1.2918   17.3954   41.2658 H   0  0  0  0  0  0  0  0  0  0  0  0
    1.9464   21.7241   40.4503 H   0  0  0  0  0  0  0  0  0  0  0  0
  1  3  1  0
  2  7  1  0
  3  9  2  0
  4 15  1  0
  5  6  2  0
  6  1  1  0
  6  8  1  0
  7 10  1  0
  8  9  1  0
  9 14  1  0
 10  4  2  0
 11  4  1  0
 12 11  2  0
 13  1  2  0
 14  2  2  0
 14 12  1  0
 15 17  3  0
 16  2  1  0
  3 18  1  0
  7 19  1  0
  7 20  1  0
 10 21  1  0
 11 22  1  0
 12 23  1  0
 16 24  1  0
M  END
>  <mol_id>  (51) 
2026-08-24-6tgu-s0-n100-seed1-0053

>  <rmsd_to_ref>  (51) 


$$$$

     RDKit          3D

 41 44  0  0  0  0  0  0  0  0999 V2000
    4.6250   14.3260   36.9120 C   0  0  0  0  0  0  0  0  0  0  0  0
    2.3110   19.2090   39.2530 C   0  0  0  0  0  0  0  0  0  0  0  0
   -0.1670   20.1620   42.7910 C   0  0  0  0  0  0  0  0  0  0  0  0
    1.0920   20.6790   40.8140 C   0  0  0  0  0  0  0  0  0  0  0  0
   -1.9810   17.7790   45.1710 N   0  0  0  0  0  0  0  0  0  0  0  0
    3.5710   18.0230   37.2180 C   0  0  0  0  0  0  0  0  0  0  0  0
    1.3420   16.7920   41.8110 S   0  0  0  0  0  0  0  0  0  0  0  0
    1.6130   21.6260   39.8910 O   0  0  0  0  0  0  0  0  0  0  0  0
    0.2630   21.0680   41.8410 C   0  0  0  0  0  0  0  0  0  0  0  0
    3.2030   15.6800   38.7140 C   0  0  0  0  0  0  0  0  0  0  0  0
    2.9420   18.1030   38.5900 C   0  0  0  0  0  0  0  0  0  0  0  0
    5.6120   13.5590   37.7530 C   0  0  0  0  0  0  0  0  0  0  0  0
   -0.5730   18.1630   45.0830 C   0  0  0  0  0  0  0  0  0  0  0  0
   -1.0200   20.5090   43.7200 O   0  0  0  0  0  0  0  0  0  0  0  0
    0.5050   16.5970   43.2970 C   0  0  0  0  0  0  0  0  0  0  0  0
   -0.0090   17.8210   43.6700 C   0  0  0  0  0  0  0  0  0  0  0  0
    2.8280   14.6620   39.2960 O   0  0  0  0  0  0  0  0  0  0  0  0
    4.3080   12.9160   37.4100 C   0  0  0  0  0  0  0  0  0  0  0  0
    3.9970   15.5950   37.5480 C   0  0  0  0  0  0  0  0  0  0  0  0
    3.7180   19.0320   36.4890 O   0  0  0  0  0  0  0  0  0  0  0  0
    2.7700   16.8760   39.1890 N   0  0  0  0  0  0  0  0  0  0  0  0
    1.0940   18.3870   41.6320 C   0  0  0  0  0  0  0  0  0  0  0  0
    4.1400   16.8330   36.8630 N   0  0  0  0  0  0  0  0  0  0  0  0
    1.5020   19.3220   40.5140 C   0  0  0  0  0  0  0  0  0  0  0  0
    0.2970   18.8370   42.7620 C   0  0  0  0  0  0  0  0  0  0  0  0
    4.5919   14.7974   35.9187 H   0  0  0  0  0  0  0  0  0  0  0  0
    1.6382   19.6151   38.4833 H   0  0  0  0  0  0  0  0  0  0  0  0
    3.2354   19.6331   39.6722 H   0  0  0  0  0  0  0  0  0  0  0  0
   -2.2552   17.7042   46.1610 H   0  0  0  0  0  0  0  0  0  0  0  0
   -2.5611   18.4925   44.7070 H   0  0  0  0  0  0  0  0  0  0  0  0
   -2.1186   16.8698   44.7070 H   0  0  0  0  0  0  0  0  0  0  0  0
    2.2081   21.3274   39.1583 H   0  0  0  0  0  0  0  0  0  0  0  0
   -0.0624   22.1167   41.9066 H   0  0  0  0  0  0  0  0  0  0  0  0
    6.5418   13.1849   37.2996 H   0  0  0  0  0  0  0  0  0  0  0  0
    6.1465   13.7636   38.6924 H   0  0  0  0  0  0  0  0  0  0  0  0
   -0.4797   19.2447   45.2595 H   0  0  0  0  0  0  0  0  0  0  0  0
   -0.0015   17.6081   45.8416 H   0  0  0  0  0  0  0  0  0  0  0  0
   -1.3166   19.8457   44.3924 H   0  0  0  0  0  0  0  0  0  0  0  0
    0.3971   15.6560   43.8564 H   0  0  0  0  0  0  0  0  0  0  0  0
    3.5464   12.7656   38.1893 H   0  0  0  0  0  0  0  0  0  0  0  0
    4.0066   11.9711   36.9342 H   0  0  0  0  0  0  0  0  0  0  0  0
  1 18  1  0
  1 19  1  0
  1 12  1  0
  2 24  1  0
  3 14  1  0
  4  9  2  0
  6 11  1  0
  7 15  1  0
  8  4  1  0
  9  3  1  0
 10 21  1  0
 10 17  2  0
 11 21  2  0
 11  2  1  0
 13  5  1  0
 15 16  2  0
 16 13  1  0
 18 12  1  0
 19 10  1  0
 20  6  2  0
 22  7  1  0
 22 25  1  0
 23  6  1  0
 23 19  2  0
 24  4  1  0
 24 22  2  0
 25  3  2  0
 25 16  1  0
  1 26  1  0
  2 27  1  0
  2 28  1  0
  5 29  1  0
  5 30  1  0
  5 31  1  0
  8 32  1  0
  9 33  1  0
 12 34  1  0
 12 35  1  0
 13 36  1  0
 13 37  1  0
 14 38  1  0
 15 39  1  0
 18 40  1  0
 18 41  1  0
M  CHG  1   5   1
M  END
>  <mol_id>  (52) 
2026-08-24-6tgu-s0-n100-seed1-0054

>  <rmsd_to_ref>  (52) 


$$$$

     RDKit          3D

 51 53  0  0  0  0  0  0  0  0999 V2000
   -0.5979   18.5449   44.8769 C   0  0  0  0  0  0  0  0  0  0  0  0
    1.7284   15.9350   41.9181 O   0  0  0  0  0  0  0  0  0  0  0  0
    0.5535   20.8366   42.3238 C   0  0  0  0  0  0  0  0  0  0  0  0
    2.2185   17.9283   40.6630 N   0  0  0  0  0  0  0  0  0  0  0  0
    0.0978   20.3014   43.4692 C   0  0  0  0  0  0  0  0  0  0  0  0
    1.1504   20.0377   41.3047 C   0  0  0  0  0  0  0  0  0  0  0  0
    2.4478   18.3698   39.4048 C   0  0  0  0  0  0  0  0  0  0  0  0
    2.1929   20.0718   37.6584 C   0  0  0  0  0  0  0  0  0  0  0  0
    0.1014   15.2678   44.8955 C   0  0  0  0  0  0  0  0  0  0  0  0
    0.8803   16.5160   42.8956 C   0  0  0  0  0  0  0  0  0  0  0  0
    3.2813   17.9340   37.2021 C   0  0  0  0  0  0  0  0  0  0  0  0
    0.3363   18.2790   45.9526 N   0  0  0  0  0  0  0  0  0  0  0  0
    0.3400   16.8202   48.1375 C   0  0  0  0  0  0  0  0  0  0  0  0
    2.3018   14.6894   42.1800 C   0  0  0  0  0  0  0  0  0  0  0  0
    1.7692   21.2428   37.2346 N   0  0  0  0  0  0  0  0  0  0  0  0
    2.9751   21.3408   35.0764 N   0  0  0  0  0  0  0  0  0  0  0  0
    0.8597   18.0774   42.8187 C   0  0  0  0  0  0  0  0  0  0  0  0
    0.3711   17.5459   47.0871 C   0  0  0  0  0  0  0  0  0  0  0  0
    0.1255   18.9308   43.7511 N   0  0  0  0  0  0  0  0  0  0  0  0
    2.0456   19.6982   39.0390 C   0  0  0  0  0  0  0  0  0  0  0  0
    3.0831   17.6011   38.5332 C   0  0  0  0  0  0  0  0  0  0  0  0
    1.3785   20.5439   40.0147 C   0  0  0  0  0  0  0  0  0  0  0  0
    1.5182   18.6635   41.5765 C   0  0  0  0  0  0  0  0  0  0  0  0
    1.7214   21.5682   35.7994 C   0  0  0  0  0  0  0  0  0  0  0  0
    2.7909   19.1430   36.7671 C   0  0  0  0  0  0  0  0  0  0  0  0
    1.1173   15.9973   44.2129 O   0  0  0  0  0  0  0  0  0  0  0  0
   -1.1756   17.6359   44.6536 H   0  0  0  0  0  0  0  0  0  0  0  0
   -1.2945   19.3440   45.1706 H   0  0  0  0  0  0  0  0  0  0  0  0
    0.4634   21.9218   42.1680 H   0  0  0  0  0  0  0  0  0  0  0  0
    0.6708   20.7845   44.2743 H   0  0  0  0  0  0  0  0  0  0  0  0
   -0.9837   20.4758   43.3694 H   0  0  0  0  0  0  0  0  0  0  0  0
    0.3004   15.2866   45.9772 H   0  0  0  0  0  0  0  0  0  0  0  0
   -0.8777   15.7274   44.6947 H   0  0  0  0  0  0  0  0  0  0  0  0
    0.0970   14.2264   44.5415 H   0  0  0  0  0  0  0  0  0  0  0  0
   -0.1457   16.2044   42.6501 H   0  0  0  0  0  0  0  0  0  0  0  0
    3.8121   17.2553   36.5183 H   0  0  0  0  0  0  0  0  0  0  0  0
    1.1564   17.9226   45.4415 H   0  0  0  0  0  0  0  0  0  0  0  0
    0.1158   19.1547   46.4480 H   0  0  0  0  0  0  0  0  0  0  0  0
    0.3131   16.1951   49.0422 H   0  0  0  0  0  0  0  0  0  0  0  0
    2.5238   14.6066   43.2543 H   0  0  0  0  0  0  0  0  0  0  0  0
    1.6002   13.8941   41.8883 H   0  0  0  0  0  0  0  0  0  0  0  0
    3.2332   14.5861   41.6041 H   0  0  0  0  0  0  0  0  0  0  0  0
    1.4643   21.9471   37.9214 H   0  0  0  0  0  0  0  0  0  0  0  0
    3.7472   21.2411   35.7509 H   0  0  0  0  0  0  0  0  0  0  0  0
    2.8966   20.4810   34.5149 H   0  0  0  0  0  0  0  0  0  0  0  0
    3.1631   22.1406   34.4553 H   0  0  0  0  0  0  0  0  0  0  0  0
    3.4784   16.6378   38.8878 H   0  0  0  0  0  0  0  0  0  0  0  0
    1.0582   21.5618   39.7478 H   0  0  0  0  0  0  0  0  0  0  0  0
    1.4556   22.6307   35.6980 H   0  0  0  0  0  0  0  0  0  0  0  0
    0.9788   20.8907   35.3526 H   0  0  0  0  0  0  0  0  0  0  0  0
    2.8641   19.3970   35.6993 H   0  0  0  0  0  0  0  0  0  0  0  0
  1 12  1  0
  2 14  1  0
  2 10  1  0
  3  5  1  0
  4 23  1  0
  5 19  1  0
  6 23  1  0
  6  3  2  0
  7  4  2  0
  8 20  1  0
 10 26  1  0
 11 21  2  0
 12 18  1  0
 15  8  1  0
 16 24  1  0
 17 10  1  0
 17 19  1  0
 18 13  3  0
 19  1  1  0
 20  7  1  0
 20 22  2  0
 21  7  1  0
 22  6  1  0
 23 17  2  0
 24 15  1  0
 25 11  1  0
 25  8  2  0
 26  9  1  0
  1 27  1  0
  1 28  1  0
  3 29  1  0
  5 30  1  0
  5 31  1  0
  9 32  1  0
  9 33  1  0
  9 34  1  0
 10 35  1  0
 11 36  1  0
 12 37  1  0
 12 38  1  0
 13 39  1  0
 14 40  1  0
 14 41  1  0
 14 42  1  0
 15 43  1  0
 16 44  1  0
 16 45  1  0
 16 46  1  0
 21 47  1  0
 22 48  1  0
 24 49  1  0
 24 50  1  0
 25 51  1  0
M  CHG  2  12   1  16   1
M  END
>  <mol_id>  (53) 
2026-08-24-6tgu-s0-n100-seed1-0055

>  <rmsd_to_ref>  (53) 


$$$$

     RDKit          3D

 41 43  0  0  0  0  0  0  0  0999 V2000
    1.4050   21.4909   40.1726 C   0  0  0  0  0  0  0  0  0  0  0  0
    0.7242   19.2961   41.2521 O   0  0  0  0  0  0  0  0  0  0  0  0
    2.7343   14.5489   41.9906 C   0  0  0  0  0  0  0  0  0  0  0  0
    1.7717   15.3237   42.6790 C   0  0  0  0  0  0  0  0  0  0  0  0
    0.0635   21.2456   42.3737 C   0  0  0  0  0  0  0  0  0  0  0  0
    2.1766   17.2652   41.7913 O   0  0  0  0  0  0  0  0  0  0  0  0
    2.3052   20.5488   39.4096 C   0  0  0  0  0  0  0  0  0  0  0  0
    3.5526   20.6401   37.1588 C   0  0  0  0  0  0  0  0  0  0  0  0
    1.1044   14.8210   43.7386 C   0  0  0  0  0  0  0  0  0  0  0  0
    4.0883   19.3997   37.1130 N   0  0  0  0  0  0  0  0  0  0  0  0
    3.9642   18.4772   38.0275 C   0  0  0  0  0  0  0  0  0  0  0  0
   -0.9231   16.6348   46.1621 C   0  0  0  0  0  0  0  0  0  0  0  0
    3.7030   21.4542   36.2057 O   0  0  0  0  0  0  0  0  0  0  0  0
    2.5263   19.2604   39.8162 N   0  0  0  0  0  0  0  0  0  0  0  0
   -0.0564   16.8795   44.0307 C   0  0  0  0  0  0  0  0  0  0  0  0
    0.5336   17.4829   42.9611 C   0  0  1  0  0  0  0  0  0  0  0  0
    0.1502   15.6168   44.4037 C   0  0  0  0  0  0  0  0  0  0  0  0
    1.5650   16.7013   42.4129 C   0  0  0  0  0  0  0  0  0  0  0  0
   -0.2707   20.0537   43.0452 N   0  0  0  0  0  0  0  0  0  0  0  0
    2.7360   21.0788   38.2143 C   0  0  0  0  0  0  0  0  0  0  0  0
    3.6174   13.8226   41.4819 N   0  0  0  0  0  0  0  0  0  0  0  0
   -0.9838   17.6915   44.7549 O   0  0  0  0  0  0  0  0  0  0  0  0
    0.2182   18.8604   42.4456 C   0  0  0  0  0  0  0  0  0  0  0  0
    3.3565   18.5156   39.1519 C   0  0  0  0  0  0  0  0  0  0  0  0
    1.0841   20.6708   41.4253 C   0  0  2  0  0  0  0  0  0  0  0  0
    1.9270   22.4248   40.4281 H   0  0  0  0  0  0  0  0  0  0  0  0
    0.5159   21.8115   39.6098 H   0  0  0  0  0  0  0  0  0  0  0  0
   -0.7971   21.6821   41.8457 H   0  0  0  0  0  0  0  0  0  0  0  0
    0.4064   22.0774   43.0067 H   0  0  0  0  0  0  0  0  0  0  0  0
    1.3041   13.7951   44.0815 H   0  0  0  0  0  0  0  0  0  0  0  0
    4.6455   19.1611   36.2803 H   0  0  0  0  0  0  0  0  0  0  0  0
    4.4571   17.5214   37.7960 H   0  0  0  0  0  0  0  0  0  0  0  0
   -1.0436   17.2345   47.0764 H   0  0  0  0  0  0  0  0  0  0  0  0
   -1.7340   15.8942   46.0998 H   0  0  0  0  0  0  0  0  0  0  0  0
    0.0464   16.1156   46.1892 H   0  0  0  0  0  0  0  0  0  0  0  0
    1.3021   17.9069   43.6242 H   0  0  0  0  0  0  0  0  0  0  0  0
   -0.4286   15.1924   45.2374 H   0  0  0  0  0  0  0  0  0  0  0  0
    3.2296   22.0102   38.5286 H   0  0  0  0  0  0  0  0  0  0  0  0
    1.7923   20.8818   37.6844 H   0  0  0  0  0  0  0  0  0  0  0  0
    3.6237   17.6317   39.7497 H   0  0  0  0  0  0  0  0  0  0  0  0
    2.0927   20.7314   41.8598 H   0  0  0  0  0  0  0  0  0  0  0  0
  2 25  1  0
  2 23  1  0
  3  4  1  0
  4  9  2  0
  5 19  1  0
  6 18  2  0
  7 14  2  0
  7  1  1  0
  8 20  1  0
  9 17  1  0
 10  8  1  0
 10 11  1  0
 11 24  2  0
 13  8  2  0
 15 17  2  0
 15 22  1  0
 16 23  1  0
 16 15  1  0
 18  4  1  0
 18 16  1  0
 20  7  1  0
 21  3  3  0
 22 12  1  0
 23 19  2  0
 24 14  1  0
 25  1  1  0
 25  5  1  0
  1 26  1  0
  1 27  1  0
  5 28  1  0
  5 29  1  0
  9 30  1  0
 10 31  1  0
 11 32  1  0
 12 33  1  0
 12 34  1  0
 12 35  1  0
 16 36  1  6
 17 37  1  0
 20 38  1  0
 20 39  1  0
 24 40  1  0
 25 41  1  1
M  END
>  <mol_id>  (54) 
2026-08-24-6tgu-s0-n100-seed1-0056

>  <rmsd_to_ref>  (54) 


$$$$

     RDKit          3D

 21 21  0  0  0  0  0  0  0  0999 V2000
    2.6369   20.2394   37.4663 C   0  0  0  0  0  0  0  0  0  0  0  0
    1.9168   17.7544   40.3402 C   0  0  0  0  0  0  0  0  0  0  0  0
   -0.4623   21.7774   42.1870 C   0  0  0  0  0  0  0  0  0  0  0  0
    2.1409   19.9724   38.5552 C   0  0  0  0  0  0  0  0  0  0  0  0
    1.0153   21.0577   40.1673 N   0  0  0  0  0  0  0  0  0  0  0  0
    1.4704   19.8807   39.7584 C   0  0  0  0  0  0  0  0  0  0  0  0
    0.2545   20.7645   41.3920 C   0  0  1  0  0  0  0  0  0  0  0  0
    0.2551   19.4096   41.5837 C   0  0  0  0  0  0  0  0  0  0  0  0
   -1.5807   21.1699   42.8566 N   0  0  0  0  0  0  0  0  0  0  0  0
    1.1311   18.8020   40.6675 C   0  0  0  0  0  0  0  0  0  0  0  0
    3.0819   20.4789   36.4893 H   0  0  0  0  0  0  0  0  0  0  0  0
    2.2483   17.2442   41.2566 H   0  0  0  0  0  0  0  0  0  0  0  0
    1.3482   17.0510   39.7142 H   0  0  0  0  0  0  0  0  0  0  0  0
    2.7944   18.1142   39.7829 H   0  0  0  0  0  0  0  0  0  0  0  0
   -0.8245   22.5747   41.5213 H   0  0  0  0  0  0  0  0  0  0  0  0
    0.2223   22.2020   42.9360 H   0  0  0  0  0  0  0  0  0  0  0  0
   -0.6679   20.6802   40.7987 H   0  0  0  0  0  0  0  0  0  0  0  0
   -0.3398   18.8767   42.3401 H   0  0  0  0  0  0  0  0  0  0  0  0
   -1.4970   21.3221   43.8719 H   0  0  0  0  0  0  0  0  0  0  0  0
   -2.4559   21.5939   42.5170 H   0  0  0  0  0  0  0  0  0  0  0  0
   -1.5904   20.1587   42.6606 H   0  0  0  0  0  0  0  0  0  0  0  0
  1  4  3  0
  2 10  1  0
  3  9  1  0
  4  6  1  0
  5  7  1  0
  6  5  2  0
  6 10  1  0
  7  8  1  0
  7  3  1  0
 10  8  2  0
  1 11  1  0
  2 12  1  0
  2 13  1  0
  2 14  1  0
  3 15  1  0
  3 16  1  0
  7 17  1  1
  8 18  1  0
  9 19  1  0
  9 20  1  0
  9 21  1  0
M  CHG  1   9   1
M  END
>  <mol_id>  (55) 
2026-08-24-6tgu-s0-n100-seed1-0057

>  <rmsd_to_ref>  (55) 


$$$$

     RDKit          3D

 49 50  0  0  0  0  0  0  0  0999 V2000
    3.5780   19.1880   38.3630 C   0  0  0  0  0  0  0  0  0  0  0  0
    4.9040   16.2990   37.0740 C   0  0  0  0  0  0  0  0  0  0  0  0
   -0.8820   16.1400   45.9390 C   0  0  0  0  0  0  0  0  0  0  0  0
   -0.2900   17.4190   43.9470 C   0  0  0  0  0  0  0  0  0  0  0  0
   -0.6360   20.4380   43.1810 C   0  0  0  0  0  0  0  0  0  0  0  0
    1.2070   19.6900   39.7690 N   0  0  0  0  0  0  0  0  0  0  0  0
    0.5780   18.8170   42.0530 C   0  0  0  0  0  0  0  0  0  0  0  0
    1.7680   20.9850   39.5160 C   0  0  0  0  0  0  0  0  0  0  0  0
    2.3980   21.3190   38.2970 N   0  0  0  0  0  0  0  0  0  0  0  0
    5.4120   15.4110   35.9530 O   0  0  0  0  0  0  0  0  0  0  0  0
   -0.8640   17.3640   45.2830 C   0  0  0  0  0  0  0  0  0  0  0  0
    4.0170   17.3700   36.6660 C   0  0  0  0  0  0  0  0  0  0  0  0
    4.0430   18.0110   35.6270 O   0  0  0  0  0  0  0  0  0  0  0  0
   -1.2480   19.6190   43.8520 N   0  0  0  0  0  0  0  0  0  0  0  0
    1.7180   18.2520   42.0710 O   0  0  0  0  0  0  0  0  0  0  0  0
    3.0400   20.4090   37.6130 C   0  0  2  0  0  0  0  0  0  0  0  0
    0.1820   16.3290   43.3530 C   0  0  0  0  0  0  0  0  0  0  0  0
    0.1260   14.9900   43.9070 C   0  0  0  0  0  0  0  0  0  0  0  0
    1.5840   21.8260   40.3840 O   0  0  0  0  0  0  0  0  0  0  0  0
    0.1420   19.7090   40.9330 C   0  0  0  0  0  0  0  0  0  0  0  0
   -0.6950   21.7360   43.1160 N   0  0  0  0  0  0  0  0  0  0  0  0
    3.0220   17.7010   37.7670 C   0  0  0  0  0  0  0  0  0  0  0  0
   -0.4840   14.8970   45.2790 C   0  0  0  0  0  0  0  0  0  0  0  0
    3.3140   21.6070   35.9020 O   0  0  0  0  0  0  0  0  0  0  0  0
    3.1520   20.5160   36.3790 C   0  0  0  0  0  0  0  0  0  0  0  0
   -0.2340   18.8900   43.3250 C   0  0  1  0  0  0  0  0  0  0  0  0
   -0.6030   13.5400   45.8950 C   0  0  0  0  0  0  0  0  0  0  0  0
    4.6758   19.1978   38.2942 H   0  0  0  0  0  0  0  0  0  0  0  0
    3.2133   19.2684   39.3977 H   0  0  0  0  0  0  0  0  0  0  0  0
    4.3622   15.6642   37.7906 H   0  0  0  0  0  0  0  0  0  0  0  0
    5.7929   16.7876   37.4997 H   0  0  0  0  0  0  0  0  0  0  0  0
   -1.2063   16.1042   46.9895 H   0  0  0  0  0  0  0  0  0  0  0  0
    1.4702   18.8411   39.2484 H   0  0  0  0  0  0  0  0  0  0  0  0
    2.3512   22.2858   37.9448 H   0  0  0  0  0  0  0  0  0  0  0  0
    5.8648   14.6195   36.3384 H   0  0  0  0  0  0  0  0  0  0  0  0
   -1.2724   18.2670   45.7602 H   0  0  0  0  0  0  0  0  0  0  0  0
   -2.0687   19.5323   44.4683 H   0  0  0  0  0  0  0  0  0  0  0  0
    3.9770   20.9696   37.7466 H   0  0  0  0  0  0  0  0  0  0  0  0
    0.6511   16.4512   42.3656 H   0  0  0  0  0  0  0  0  0  0  0  0
    0.5011   14.1092   43.3652 H   0  0  0  0  0  0  0  0  0  0  0  0
    0.0344   20.7371   41.3092 H   0  0  0  0  0  0  0  0  0  0  0  0
   -0.8205   19.3471   40.5423 H   0  0  0  0  0  0  0  0  0  0  0  0
   -1.5921   22.2014   42.9171 H   0  0  0  0  0  0  0  0  0  0  0  0
    2.0035   17.7949   37.3622 H   0  0  0  0  0  0  0  0  0  0  0  0
    2.9630   16.9222   38.5416 H   0  0  0  0  0  0  0  0  0  0  0  0
    3.1035   19.6260   35.7344 H   0  0  0  0  0  0  0  0  0  0  0  0
   -0.5949   13.6329   46.9910 H   0  0  0  0  0  0  0  0  0  0  0  0
   -1.5456   13.0728   45.5736 H   0  0  0  0  0  0  0  0  0  0  0  0
    0.2439   12.9159   45.5736 H   0  0  0  0  0  0  0  0  0  0  0  0
  4 11  1  0
  5 26  1  0
  5 14  1  0
  6 20  1  0
  7 15  2  0
  8  6  1  0
  8 19  2  0
  9  8  1  0
 10  2  1  0
 11  3  2  0
 12  2  1  0
 12 22  1  0
 13 12  2  0
 16 25  1  0
 16  9  1  0
 16  1  1  0
 17 18  1  0
 17  4  2  0
 18 23  2  0
 20  7  1  0
 21  5  2  3
 22  1  1  0
 23 27  1  0
 23  3  1  0
 24 25  2  0
 26  7  1  6
 26 14  1  0
 26  4  1  0
  1 28  1  0
  1 29  1  0
  2 30  1  0
  2 31  1  0
  3 32  1  0
  6 33  1  0
  9 34  1  0
 10 35  1  0
 11 36  1  0
 14 37  1  0
 16 38  1  1
 17 39  1  0
 18 40  1  0
 20 41  1  0
 20 42  1  0
 21 43  1  0
 22 44  1  0
 22 45  1  0
 25 46  1  0
 27 47  1  0
 27 48  1  0
 27 49  1  0
M  END
>  <mol_id>  (56) 
2026-08-24-6tgu-s0-n100-seed1-0058

>  <rmsd_to_ref>  (56) 


$$$$

     RDKit          3D

 33 35  0  0  0  0  0  0  0  0999 V2000
    1.5250   19.3520   40.7440 C   0  0  0  0  0  0  0  0  0  0  0  0
    2.7900   20.7850   37.5290 C   0  0  0  0  0  0  0  0  0  0  0  0
    1.6930   20.3540   39.7440 C   0  0  0  0  0  0  0  0  0  0  0  0
    0.9230   19.5870   41.9530 N   0  0  0  0  0  0  0  0  0  0  0  0
   -0.4360   18.3940   44.5250 C   0  0  0  0  0  0  0  0  0  0  0  0
    2.8690   18.8390   38.4540 C   0  0  0  0  0  0  0  0  0  0  0  0
    3.6840   17.4800   36.8620 O   0  0  0  0  0  0  0  0  0  0  0  0
    0.7330   18.5880   42.4800 O   0  0  0  0  0  0  0  0  0  0  0  0
   -0.0070   17.8400   43.2810 C   0  0  0  0  0  0  0  0  0  0  0  0
    3.5340   21.3750   35.2170 O   0  0  0  0  0  0  0  0  0  0  0  0
    0.2840   16.4040   43.1830 C   0  0  0  0  0  0  0  0  0  0  0  0
    3.4870   18.7050   37.3250 N   0  0  0  0  0  0  0  0  0  0  0  0
    1.9240   18.1780   40.6050 N   0  0  0  0  0  0  0  0  0  0  0  0
   -0.7720   17.5460   45.5740 C   0  0  0  0  0  0  0  0  0  0  0  0
   -0.1550   15.6610   44.2490 C   0  0  0  0  0  0  0  0  0  0  0  0
   -1.2450   17.9750   46.7570 O   0  0  0  0  0  0  0  0  0  0  0  0
    4.2060   20.4330   35.7650 O   0  0  0  0  0  0  0  0  0  0  0  0
   -0.9930   15.3460   46.4340 F   0  0  0  0  0  0  0  0  0  0  0  0
   -0.6340   16.1450   45.4050 C   0  0  0  0  0  0  0  0  0  0  0  0
    3.5770   19.9990   36.7970 C   0  0  0  0  0  0  0  0  0  0  0  0
    2.3910   20.0290   38.6550 C   0  0  0  0  0  0  0  0  0  0  0  0
    2.7840   18.0050   39.3920 N   0  0  0  0  0  0  0  0  0  0  0  0
    2.5051   21.8228   37.3014 H   0  0  0  0  0  0  0  0  0  0  0  0
    0.6896   20.6596   39.4126 H   0  0  0  0  0  0  0  0  0  0  0  0
    2.2881   21.1394   40.2329 H   0  0  0  0  0  0  0  0  0  0  0  0
    0.6800   20.5150   42.3281 H   0  0  0  0  0  0  0  0  0  0  0  0
   -0.5002   19.4847   44.6525 H   0  0  0  0  0  0  0  0  0  0  0  0
    4.1538   17.3459   36.0010 H   0  0  0  0  0  0  0  0  0  0  0  0
    3.1288   21.9430   35.9193 H   0  0  0  0  0  0  0  0  0  0  0  0
    0.8108   15.9606   42.3251 H   0  0  0  0  0  0  0  0  0  0  0  0
   -0.1102   14.5667   44.1467 H   0  0  0  0  0  0  0  0  0  0  0  0
   -1.4672   17.3222   47.4674 H   0  0  0  0  0  0  0  0  0  0  0  0
    3.3447   17.1439   39.3204 H   0  0  0  0  0  0  0  0  0  0  0  0
  1  4  1  0
  2 21  1  0
  3  1  1  0
  4  8  1  0
  5 14  1  0
  6 21  2  0
  6 22  1  0
  7 12  1  0
  8  9  1  0
  9  5  2  0
 10 17  1  0
 11  9  1  0
 11 15  2  0
 12  6  1  0
 13  1  2  0
 14 16  1  0
 15 19  1  0
 17 20  1  0
 19 14  2  0
 19 18  1  0
 20 12  1  0
 20  2  2  0
 21  3  1  0
 22 13  1  0
  2 23  1  0
  3 24  1  0
  3 25  1  0
  4 26  1  0
  5 27  1  0
  7 28  1  0
 10 29  1  0
 11 30  1  0
 15 31  1  0
 16 32  1  0
 22 33  1  0
M  END
>  <mol_id>  (57) 
2026-08-24-6tgu-s0-n100-seed1-0060

>  <rmsd_to_ref>  (57) 


$$$$

     RDKit          3D

 30 30  0  0  0  0  0  0  0  0999 V2000
    2.4190   20.5830   38.3230 C   0  0  0  0  0  0  0  0  0  0  0  0
   -0.6630   17.8850   46.0690 C   0  0  0  0  0  0  0  0  0  0  0  0
   -0.1340   18.6980   45.0120 O   0  0  0  0  0  0  0  0  0  0  0  0
    1.5050   17.0690   40.9400 C   0  0  0  0  0  0  0  0  0  0  0  0
    2.9000   20.6680   36.9920 C   0  0  0  0  0  0  0  0  0  0  0  0
    2.4800   21.4290   36.2290 O   0  0  0  0  0  0  0  0  0  0  0  0
    0.3040   18.6160   42.6770 N   0  0  0  0  0  0  0  0  0  0  0  0
    0.8020   19.2560   41.5690 C   0  0  0  0  0  0  0  0  0  0  0  0
   -1.8580   18.9850   43.6320 O   0  0  0  0  0  0  0  0  0  0  0  0
    2.8420   17.1980   39.1570 C   0  0  0  0  0  0  0  0  0  0  0  0
    2.8510   19.4830   38.9580 O   0  0  0  0  0  0  0  0  0  0  0  0
    3.6130   19.5620   36.7360 O   0  0  0  0  0  0  0  0  0  0  0  0
    3.6640   16.7970   38.1650 O   0  0  0  0  0  0  0  0  0  0  0  0
   -0.7070   16.3390   45.9990 C   0  0  0  0  0  0  0  0  0  0  0  0
    1.0320   16.4650   41.9190 O   0  0  0  0  0  0  0  0  0  0  0  0
    1.5660   18.4190   40.7010 C   0  0  0  0  0  0  0  0  0  0  0  0
    0.6020   20.6060   41.3160 C   0  0  0  0  0  0  0  0  0  0  0  0
    2.4770   18.4570   39.5900 C   0  0  0  0  0  0  0  0  0  0  0  0
   -0.6390   18.8000   43.7120 C   0  0  0  0  0  0  0  0  0  0  0  0
    2.2600   16.2750   40.0180 O   0  0  0  0  0  0  0  0  0  0  0  0
    1.3193   20.5676   38.3000 H   0  0  0  0  0  0  0  0  0  0  0  0
    2.8009   21.4564   38.8719 H   0  0  0  0  0  0  0  0  0  0  0  0
   -0.0747   18.1317   46.9651 H   0  0  0  0  0  0  0  0  0  0  0  0
   -1.7326   18.1387   46.0291 H   0  0  0  0  0  0  0  0  0  0  0  0
   -0.7188   15.9260   47.0185 H   0  0  0  0  0  0  0  0  0  0  0  0
   -1.6145   16.0218   45.4644 H   0  0  0  0  0  0  0  0  0  0  0  0
    0.1810   15.9707   45.4644 H   0  0  0  0  0  0  0  0  0  0  0  0
    0.5215   21.1496   42.2689 H   0  0  0  0  0  0  0  0  0  0  0  0
    1.4515   21.0008   40.7393 H   0  0  0  0  0  0  0  0  0  0  0  0
   -0.3254   20.7375   40.7393 H   0  0  0  0  0  0  0  0  0  0  0  0
  1 11  1  0
  3  2  1  0
  4 15  2  0
  5  1  1  0
  6  5  2  0
  7 19  1  0
  8  7  2  3
  9 19  2  0
 10 18  1  0
 10 20  1  0
 11 18  1  0
 12  5  1  0
 13 10  2  0
 14  2  1  0
 16  4  1  0
 16  8  1  0
 17  8  1  0
 18 16  2  0
 19  3  1  0
 20  4  1  0
  1 21  1  0
  1 22  1  0
  2 23  1  0
  2 24  1  0
 14 25  1  0
 14 26  1  0
 14 27  1  0
 17 28  1  0
 17 29  1  0
 17 30  1  0
M  CHG  1  12  -1
M  END
>  <mol_id>  (58) 
2026-08-24-6tgu-s0-n100-seed1-0061

>  <rmsd_to_ref>  (58) 


$$$$

     RDKit          3D

 21 21  0  0  0  0  0  0  0  0999 V2000
    2.1314   21.5192   37.5070 O   0  0  0  0  0  0  0  0  0  0  0  0
    0.8539   17.0385   42.4106 O   0  0  0  0  0  0  0  0  0  0  0  0
    3.1498   20.1651   36.2119 O   0  0  0  0  0  0  0  0  0  0  0  0
    0.7071   21.8171   42.3322 F   0  0  0  0  0  0  0  0  0  0  0  0
    1.7073   18.3075   40.4973 C   0  0  0  0  0  0  0  0  0  0  0  0
    0.9980   20.6758   41.7794 C   0  0  0  0  0  0  0  0  0  0  0  0
    1.0966   18.2618   41.7709 C   0  0  0  0  0  0  0  0  0  0  0  0
    2.6466   20.4047   37.3390 C   0  0  0  0  0  0  0  0  0  0  0  0
    1.6330   20.7004   40.5368 C   0  0  0  0  0  0  0  0  0  0  0  0
   -0.3055   16.8536   43.1965 C   0  0  0  0  0  0  0  0  0  0  0  0
    2.8129   19.4492   38.5056 C   0  0  0  0  0  0  0  0  0  0  0  0
    2.0009   19.5093   39.8445 C   0  0  0  0  0  0  0  0  0  0  0  0
    0.7451   19.4452   42.3932 C   0  0  0  0  0  0  0  0  0  0  0  0
    1.9620   17.3602   39.9995 H   0  0  0  0  0  0  0  0  0  0  0  0
    1.8578   21.6732   40.0751 H   0  0  0  0  0  0  0  0  0  0  0  0
   -0.0181   16.7339   44.2516 H   0  0  0  0  0  0  0  0  0  0  0  0
   -0.9626   17.7296   43.0926 H   0  0  0  0  0  0  0  0  0  0  0  0
   -0.8386   15.9532   42.8573 H   0  0  0  0  0  0  0  0  0  0  0  0
    2.6222   18.4476   38.0927 H   0  0  0  0  0  0  0  0  0  0  0  0
    3.8078   19.7500   38.8656 H   0  0  0  0  0  0  0  0  0  0  0  0
    0.2617   19.4184   43.3809 H   0  0  0  0  0  0  0  0  0  0  0  0
  1  8  1  0
  2 10  1  0
  3  8  2  0
  5  7  2  0
  6  4  1  0
  6 13  2  0
  7 13  1  0
  7  2  1  0
  8 11  1  0
  9  6  1  0
 11 12  1  0
 12  9  2  0
 12  5  1  0
  5 14  1  0
  9 15  1  0
 10 16  1  0
 10 17  1  0
 10 18  1  0
 11 19  1  0
 11 20  1  0
 13 21  1  0
M  CHG  1   1  -1
M  END
>  <mol_id>  (59) 
2026-08-24-6tgu-s0-n100-seed1-0062

>  <rmsd_to_ref>  (59) 


$$$$

     RDKit          3D

 35 39  0  0  0  0  0  0  0  0999 V2000
   -0.8110   20.7290   43.9030 N   0  0  0  0  0  0  0  0  0  0  0  0
    3.5360   17.7090   37.4420 C   0  0  0  0  0  0  0  0  0  0  0  0
    1.6930   19.0260   40.5160 C   0  0  0  0  0  0  0  0  0  0  0  0
    0.3860   13.3420   43.7820 Cl  0  0  0  0  0  0  0  0  0  0  0  0
    2.7460   15.7750   39.7930 O   0  0  0  0  0  0  0  0  0  0  0  0
    2.3540   21.0010   38.9880 C   0  0  0  0  0  0  0  0  0  0  0  0
    4.9710   15.7510   36.9310 C   0  0  0  0  0  0  0  0  0  0  0  0
    0.6680   17.5670   42.2150 C   0  0  0  0  0  0  0  0  0  0  0  0
   -0.2020   16.0090   43.8640 C   0  0  0  0  0  0  0  0  0  0  0  0
    1.2530   15.1270   42.1290 C   0  0  0  0  0  0  0  0  0  0  0  0
    2.8290   18.4620   38.5470 C   0  0  0  0  0  0  0  0  0  0  0  0
    1.3230   16.4110   41.5890 C   0  0  0  0  0  0  0  0  0  0  0  0
    2.8260   19.8760   38.1690 C   0  0  0  0  0  0  0  0  0  0  0  0
    0.5680   20.1320   41.9650 C   0  0  0  0  0  0  0  0  0  0  0  0
    3.4070   19.9400   36.8400 N   0  0  0  0  0  0  0  0  0  0  0  0
    1.0390   21.0410   41.1580 N   0  0  0  0  0  0  0  0  0  0  0  0
    0.9210   18.8500   41.6020 C   0  0  2  0  0  0  0  0  0  0  0  0
    3.8500   16.3870   37.5370 N   0  0  0  0  0  0  0  0  0  0  0  0
    1.7500   20.3880   40.1990 C   0  0  0  0  0  0  0  0  0  0  0  0
    2.2690   17.9950   39.7660 C   0  0  0  0  0  0  0  0  0  0  0  0
    3.8410   18.6390   36.5390 N   0  0  0  0  0  0  0  0  0  0  0  0
   -0.3070   20.4750   43.0430 C   0  0  0  0  0  0  0  0  0  0  0  0
   -0.1280   17.3190   43.3610 C   0  0  0  0  0  0  0  0  0  0  0  0
    0.4750   14.9290   43.2820 C   0  0  0  0  0  0  0  0  0  0  0  0
    2.1700   16.6840   40.3480 C   0  0  0  0  0  0  0  0  0  0  0  0
    2.4316   22.0729   38.7535 H   0  0  0  0  0  0  0  0  0  0  0  0
    5.6434   15.3695   37.7135 H   0  0  0  0  0  0  0  0  0  0  0  0
    4.6245   14.9150   36.3057 H   0  0  0  0  0  0  0  0  0  0  0  0
    5.5109   16.4773   36.3057 H   0  0  0  0  0  0  0  0  0  0  0  0
   -0.8194   15.8229   44.7551 H   0  0  0  0  0  0  0  0  0  0  0  0
    1.7937   14.2898   41.6635 H   0  0  0  0  0  0  0  0  0  0  0  0
    3.4851   20.7726   36.2387 H   0  0  0  0  0  0  0  0  0  0  0  0
    1.8112   18.9130   42.2451 H   0  0  0  0  0  0  0  0  0  0  0  0
    3.2206   15.7944   38.0970 H   0  0  0  0  0  0  0  0  0  0  0  0
   -0.6782   18.1375   43.8481 H   0  0  0  0  0  0  0  0  0  0  0  0
  2 18  1  0
  2 11  1  0
  5 25  2  0
  6 19  1  0
  7 18  1  0
  8 23  1  0
 10 24  2  0
 11 20  2  0
 12 10  1  0
 12  8  2  0
 13 11  1  0
 13  6  2  0
 14 22  1  0
 15 13  1  0
 16 14  2  0
 17  3  1  0
 17 14  1  0
 17  8  1  0
 19  3  2  0
 19 16  1  0
 20 25  1  0
 20  3  1  0
 21 15  1  0
 21  2  2  0
 22  1  3  0
 23  9  2  0
 24  4  1  0
 24  9  1  0
 25 12  1  0
  6 26  1  0
  7 27  1  0
  7 28  1  0
  7 29  1  0
  9 30  1  0
 10 31  1  0
 15 32  1  0
 17 33  1  6
 18 34  1  0
 23 35  1  0
M  END
>  <mol_id>  (60) 
2026-08-24-6tgu-s0-n100-seed1-0063

>  <rmsd_to_ref>  (60) 


$$$$

     RDKit          3D

 47 48  0  0  0  0  0  0  0  0999 V2000
    0.7246   15.3994   43.1833 C   0  0  0  0  0  0  0  0  0  0  0  0
   -1.1846   15.1979   44.8697 N   0  0  0  0  0  0  0  0  0  0  0  0
   -0.3831   20.1025   43.6869 C   0  0  0  0  0  0  0  0  0  0  0  0
    3.4830   20.4425   36.9791 C   0  0  0  0  0  0  0  0  0  0  0  0
    2.5447   15.0210   40.3296 O   0  0  0  0  0  0  0  0  0  0  0  0
   -0.4142   21.4160   43.6442 O   0  0  0  0  0  0  0  0  0  0  0  0
    1.0321   20.7857   40.8733 C   0  0  0  0  0  0  0  0  0  0  0  0
    2.6169   18.9529   39.4886 C   0  0  0  0  0  0  0  0  0  0  0  0
   -1.0023   19.6012   44.7276 N   0  0  0  0  0  0  0  0  0  0  0  0
   -0.1731   14.5828   43.9301 C   0  0  1  0  0  0  0  0  0  0  0  0
    1.1711   19.5007   41.3524 C   0  0  0  0  0  0  0  0  0  0  0  0
    1.4603   15.6379   42.1773 C   0  0  1  0  0  0  0  0  0  0  0  0
    1.9795   18.6036   40.6462 C   0  0  0  0  0  0  0  0  0  0  0  0
    3.7124   19.1549   36.7630 O   0  0  0  0  0  0  0  0  0  0  0  0
    1.7455   13.4570   41.8331 C   0  0  0  0  0  0  0  0  0  0  0  0
    3.4840   21.2219   36.0497 O   0  0  0  0  0  0  0  0  0  0  0  0
   -0.0981   13.2868   43.6629 C   0  0  0  0  0  0  0  0  0  0  0  0
   -0.6783   17.1393   43.8269 O   0  0  0  0  0  0  0  0  0  0  0  0
    0.3133   19.1914   42.7135 C   0  0  1  0  0  0  0  0  0  0  0  0
    2.5069   20.3488   39.0409 C   0  0  0  0  0  0  0  0  0  0  0  0
    0.6617   12.7788   42.7076 C   0  0  0  0  0  0  0  0  0  0  0  0
    3.4164   20.8488   38.1962 O   0  0  0  0  0  0  0  0  0  0  0  0
    0.1774   17.6943   42.8198 C   0  0  0  0  0  0  0  0  0  0  0  0
    1.7195   14.6323   41.1067 C   0  0  2  0  0  0  0  0  0  0  0  0
    1.6594   21.1665   39.7211 C   0  0  0  0  0  0  0  0  0  0  0  0
    0.8777   16.8946   41.9319 N   0  0  0  0  0  0  0  0  0  0  0  0
    0.0958   16.3001   43.1261 H   0  0  0  0  0  0  0  0  0  0  0  0
    1.5556   14.8201   43.6120 H   0  0  0  0  0  0  0  0  0  0  0  0
   -0.9054   15.0127   45.8437 H   0  0  0  0  0  0  0  0  0  0  0  0
   -1.2258   16.2149   44.7119 H   0  0  0  0  0  0  0  0  0  0  0  0
   -2.1118   14.7853   44.6939 H   0  0  0  0  0  0  0  0  0  0  0  0
    3.3255   15.3734   40.8261 H   0  0  0  0  0  0  0  0  0  0  0  0
    0.4121   21.5095   41.4226 H   0  0  0  0  0  0  0  0  0  0  0  0
    3.1926   18.2144   38.9114 H   0  0  0  0  0  0  0  0  0  0  0  0
   -1.0406   18.5807   44.8619 H   0  0  0  0  0  0  0  0  0  0  0  0
   -1.4507   20.2278   45.4112 H   0  0  0  0  0  0  0  0  0  0  0  0
    0.5573   14.5303   44.7508 H   0  0  0  0  0  0  0  0  0  0  0  0
    2.5515   15.5963   42.3097 H   0  0  0  0  0  0  0  0  0  0  0  0
    2.1065   17.5827   41.0357 H   0  0  0  0  0  0  0  0  0  0  0  0
    2.5931   13.5914   42.5213 H   0  0  0  0  0  0  0  0  0  0  0  0
    1.6785   12.7685   40.9778 H   0  0  0  0  0  0  0  0  0  0  0  0
   -0.7013   12.5955   44.2697 H   0  0  0  0  0  0  0  0  0  0  0  0
   -0.6210   19.2351   42.1346 H   0  0  0  0  0  0  0  0  0  0  0  0
    0.4991   11.7105   42.5022 H   0  0  0  0  0  0  0  0  0  0  0  0
    0.9973   14.4320   40.3016 H   0  0  0  0  0  0  0  0  0  0  0  0
    1.4711   22.1761   39.3271 H   0  0  0  0  0  0  0  0  0  0  0  0
    0.9849   17.2646   40.9766 H   0  0  0  0  0  0  0  0  0  0  0  0
  1 10  1  0
  3  9  1  0
  4 22  1  0
  6  3  2  0
  7 11  2  0
  8 13  2  0
 10  2  1  0
 11 19  1  0
 12 26  1  0
 12  1  1  0
 13 11  1  0
 14  4  1  0
 15 21  1  0
 16  4  2  0
 17 10  1  0
 19 23  1  0
 19  3  1  0
 20  8  1  0
 20 25  2  0
 21 17  2  0
 22 20  1  0
 23 18  2  0
 24  5  1  0
 24 15  1  0
 24 12  1  0
 25  7  1  0
 26 23  1  0
  1 27  1  0
  1 28  1  0
  2 29  1  0
  2 30  1  0
  2 31  1  0
  5 32  1  0
  7 33  1  0
  8 34  1  0
  9 35  1  0
  9 36  1  0
 10 37  1  1
 12 38  1  1
 13 39  1  0
 15 40  1  0
 15 41  1  0
 17 42  1  0
 19 43  1  1
 21 44  1  0
 24 45  1  6
 25 46  1  0
 26 47  1  0
M  CHG  2   2   1  14  -1
M  END
>  <mol_id>  (61) 
2026-08-24-6tgu-s0-n100-seed1-0064

>  <rmsd_to_ref>  (61) 


$$$$

     RDKit          3D

 55 60  0  0  0  0  0  0  0  0999 V2000
   -1.2010   14.7613   45.2055 O   0  0  0  0  0  0  0  0  0  0  0  0
    1.2926   14.6790   42.4393 C   0  0  0  0  0  0  0  0  0  0  0  0
    1.3388   12.4856   41.5331 C   0  0  0  0  0  0  0  0  0  0  0  0
    1.6769   20.4568   40.5238 C   0  0  0  0  0  0  0  0  0  0  0  0
    2.5949   21.1296   38.4180 C   0  0  0  0  0  0  0  0  0  0  0  0
    2.0236   18.6714   38.7343 C   0  0  0  0  0  0  0  0  0  0  0  0
    3.3982   21.1726   36.4145 C   0  0  0  0  0  0  0  0  0  0  0  0
    2.6404   19.8014   37.9159 C   0  0  0  0  0  0  0  0  0  0  0  0
    0.5400   20.6746   42.8425 C   0  0  0  0  0  0  0  0  0  0  0  0
    3.2708   19.8636   36.7051 C   0  0  0  0  0  0  0  0  0  0  0  0
    1.8795   17.2816   38.2786 C   0  0  2  0  0  0  0  0  0  0  0  0
    1.2421   20.9814   41.8631 N   0  0  0  0  0  0  0  0  0  0  0  0
    2.2114   16.0317   39.0846 C   0  0  2  0  0  0  0  0  0  0  0  0
    2.1850   21.3568   39.6877 C   0  0  0  0  0  0  0  0  0  0  0  0
   -0.0618   16.6527   44.0551 C   0  0  0  0  0  0  0  0  0  0  0  0
   -0.5228   19.6479   44.2715 C   0  0  0  0  0  0  0  0  0  0  0  0
    4.4469   16.1894   35.9021 C   0  0  0  0  0  0  0  0  0  0  0  0
    0.3619   14.1949   43.4865 C   0  0  0  0  0  0  0  0  0  0  0  0
    1.6531   19.1069   40.0799 C   0  0  0  0  0  0  0  0  0  0  0  0
   -0.7678   13.9340   46.3111 C   0  0  0  0  0  0  0  0  0  0  0  0
    0.2988   19.2750   43.2010 C   0  0  0  0  0  0  0  0  0  0  0  0
    3.7195   21.7205   35.1405 C   0  0  0  0  0  0  0  0  0  0  0  0
    1.5109   16.0118   42.2523 C   0  0  0  0  0  0  0  0  0  0  0  0
    4.0439   16.6977   37.1467 O   0  0  0  0  0  0  0  0  0  0  0  0
    0.9518   18.2116   42.6786 N   0  0  0  0  0  0  0  0  0  0  0  0
    0.7942   17.0250   42.9996 C   0  0  0  0  0  0  0  0  0  0  0  0
   -0.3234   15.2598   44.2640 C   0  0  0  0  0  0  0  0  0  0  0  0
   -0.4137   20.9471   43.6689 N   0  0  0  0  0  0  0  0  0  0  0  0
    2.9887   22.0126   37.3510 O   0  0  0  0  0  0  0  0  0  0  0  0
    3.8653   22.0573   34.0421 N   0  0  0  0  0  0  0  0  0  0  0  0
    2.7676   16.1822   37.6655 C   0  0  2  0  0  0  0  0  0  0  0  0
    2.4896   14.7330   38.3086 C   0  0  0  0  0  0  0  0  0  0  0  0
    1.9524   13.7555   41.6569 O   0  0  0  0  0  0  0  0  0  0  0  0
    1.2263   12.0339   42.5298 H   0  0  0  0  0  0  0  0  0  0  0  0
    0.3483   12.6006   41.0686 H   0  0  0  0  0  0  0  0  0  0  0  0
    1.9651   11.8354   40.9045 H   0  0  0  0  0  0  0  0  0  0  0  0
    3.6069   19.0150   36.0911 H   0  0  0  0  0  0  0  0  0  0  0  0
    1.0305   17.8413   37.8589 H   0  0  0  0  0  0  0  0  0  0  0  0
    1.6689   21.9049   42.0238 H   0  0  0  0  0  0  0  0  0  0  0  0
    2.0310   15.9907   40.1690 H   0  0  0  0  0  0  0  0  0  0  0  0
    2.2818   22.3858   40.0643 H   0  0  0  0  0  0  0  0  0  0  0  0
   -0.5188   17.4144   44.7040 H   0  0  0  0  0  0  0  0  0  0  0  0
   -1.5307   19.2074   44.2741 H   0  0  0  0  0  0  0  0  0  0  0  0
   -0.2965   19.4357   45.3268 H   0  0  0  0  0  0  0  0  0  0  0  0
    5.2111   15.4129   36.0532 H   0  0  0  0  0  0  0  0  0  0  0  0
    3.5789   15.7540   35.3855 H   0  0  0  0  0  0  0  0  0  0  0  0
    4.8665   17.0031   35.2922 H   0  0  0  0  0  0  0  0  0  0  0  0
    0.1908   13.1246   43.6743 H   0  0  0  0  0  0  0  0  0  0  0  0
    1.3340   18.3370   40.7979 H   0  0  0  0  0  0  0  0  0  0  0  0
   -0.9131   14.4788   47.2556 H   0  0  0  0  0  0  0  0  0  0  0  0
   -1.3586   13.0062   46.3283 H   0  0  0  0  0  0  0  0  0  0  0  0
    0.2974   13.6882   46.1898 H   0  0  0  0  0  0  0  0  0  0  0  0
    2.2566   16.3287   41.5084 H   0  0  0  0  0  0  0  0  0  0  0  0
    3.3292   14.0833   38.5968 H   0  0  0  0  0  0  0  0  0  0  0  0
    1.9076   13.8434   38.0259 H   0  0  0  0  0  0  0  0  0  0  0  0
  1 20  1  0
  2 18  1  0
  3 33  1  0
  4 12  1  0
  5 14  2  0
  6 19  1  0
  7 10  2  0
  7 29  1  0
  8  5  1  0
  8  6  2  0
  9 21  1  0
  9 28  2  0
 10  8  1  0
 11  6  1  0
 11 13  1  0
 12  9  1  0
 13 32  1  0
 14  4  1  0
 15 27  1  0
 17 24  1  0
 18 27  2  0
 19  4  2  0
 21 16  1  0
 22  7  1  0
 23  2  2  0
 23 26  1  0
 25 26  1  0
 25 21  2  3
 26 15  2  0
 27  1  1  0
 28 16  1  0
 29  5  1  0
 30 22  3  0
 31 24  1  6
 31 11  1  0
 31 32  1  0
 31 13  1  0
 33  2  1  0
  3 34  1  0
  3 35  1  0
  3 36  1  0
 10 37  1  0
 11 38  1  6
 12 39  1  0
 13 40  1  1
 14 41  1  0
 15 42  1  0
 16 43  1  0
 16 44  1  0
 17 45  1  0
 17 46  1  0
 17 47  1  0
 18 48  1  0
 19 49  1  0
 20 50  1  0
 20 51  1  0
 20 52  1  0
 23 53  1  0
 32 54  1  0
 32 55  1  0
M  END
>  <mol_id>  (62) 
2026-08-24-6tgu-s0-n100-seed1-0065

>  <rmsd_to_ref>  (62) 


$$$$

     RDKit          3D

 44 47  0  0  0  0  0  0  0  0999 V2000
   -0.4781   20.6000   44.0393 C   0  0  0  0  0  0  0  0  0  0  0  0
    0.0312   18.0474   44.3450 C   0  0  0  0  0  0  0  0  0  0  0  0
    1.2730   16.8254   42.6675 C   0  0  0  0  0  0  0  0  0  0  0  0
   -0.1766   21.7056   43.3268 C   0  0  0  0  0  0  0  0  0  0  0  0
    0.1934   14.1897   48.0036 C   0  0  0  0  0  0  0  0  0  0  0  0
    0.4821   14.3290   46.4740 C   0  0  0  0  0  0  0  0  0  0  0  0
    0.6090   19.1546   42.2443 C   0  0  0  0  0  0  0  0  0  0  0  0
    2.3743   17.1053   39.0462 C   0  0  0  0  0  0  0  0  0  0  0  0
    2.0276   19.4777   38.5958 C   0  0  0  0  0  0  0  0  0  0  0  0
    0.6984   16.8303   43.9101 C   0  0  0  0  0  0  0  0  0  0  0  0
    1.2018   17.8899   41.7976 C   0  0  0  0  0  0  0  0  0  0  0  0
    0.3562   21.3301   41.1472 C   0  0  0  0  0  0  0  0  0  0  0  0
    2.6384   17.8385   36.8941 N   0  0  0  0  0  0  0  0  0  0  0  0
    2.3026   19.1546   37.2424 C   0  0  0  0  0  0  0  0  0  0  0  0
    0.1669   15.5286   45.8659 N   0  0  0  0  0  0  0  0  0  0  0  0
   -0.9846   20.5105   45.1983 O   0  0  0  0  0  0  0  0  0  0  0  0
    1.7256   14.2153   44.2658 S   0  0  0  0  0  0  0  0  0  0  0  0
    2.6472   16.8081   37.8123 C   0  0  0  0  0  0  0  0  0  0  0  0
    1.2619   13.4870   45.7723 N   0  0  0  0  0  0  0  0  0  0  0  0
    2.1144   18.4158   39.5202 C   0  0  0  0  0  0  0  0  0  0  0  0
   -0.0027   22.0810   42.2039 C   0  0  0  0  0  0  0  0  0  0  0  0
    0.6433   20.0675   41.2668 C   0  0  0  0  0  0  0  0  0  0  0  0
    0.1201   19.2947   43.5165 C   0  0  0  0  0  0  0  0  0  0  0  0
    0.7787   15.5925   44.6824 C   0  0  1  0  0  0  0  0  0  0  0  0
    2.1931   20.0592   36.4464 O   0  0  0  0  0  0  0  0  0  0  0  0
    1.7382   17.9044   40.5181 N   0  0  0  0  0  0  0  0  0  0  0  0
   -0.5405   18.0532   45.2847 H   0  0  0  0  0  0  0  0  0  0  0  0
    1.8192   15.9256   42.3481 H   0  0  0  0  0  0  0  0  0  0  0  0
   -0.9752   22.3879   43.6532 H   0  0  0  0  0  0  0  0  0  0  0  0
    0.9019   21.5518   43.4791 H   0  0  0  0  0  0  0  0  0  0  0  0
    0.9338   14.7726   48.5710 H   0  0  0  0  0  0  0  0  0  0  0  0
   -0.8164   14.5675   48.2220 H   0  0  0  0  0  0  0  0  0  0  0  0
    0.2595   13.1309   48.2942 H   0  0  0  0  0  0  0  0  0  0  0  0
    2.3424   16.2822   39.7753 H   0  0  0  0  0  0  0  0  0  0  0  0
    1.0053   19.8811   38.6434 H   0  0  0  0  0  0  0  0  0  0  0  0
    2.8106   20.1908   38.8929 H   0  0  0  0  0  0  0  0  0  0  0  0
    0.4084   21.7977   40.1529 H   0  0  0  0  0  0  0  0  0  0  0  0
    2.8764   15.7755   37.5104 H   0  0  0  0  0  0  0  0  0  0  0  0
    1.5433   12.5464   46.0837 H   0  0  0  0  0  0  0  0  0  0  0  0
   -0.1523   23.1544   42.0158 H   0  0  0  0  0  0  0  0  0  0  0  0
    0.0118   19.6076   40.4924 H   0  0  0  0  0  0  0  0  0  0  0  0
    1.7265   20.2383   41.3533 H   0  0  0  0  0  0  0  0  0  0  0  0
    1.6257   16.0028   45.2517 H   0  0  0  0  0  0  0  0  0  0  0  0
    1.9006   16.9045   40.3321 H   0  0  0  0  0  0  0  0  0  0  0  0
  1 16  2  0
  3 10  2  0
  4  1  1  0
  6  5  1  0
  7 23  1  0
  8 20  2  0
  9 20  1  0
 10  2  1  0
 11  7  2  0
 11  3  1  0
 12 21  2  0
 13 14  1  0
 13 18  2  0
 14  9  1  0
 15  6  2  0
 17 24  1  0
 17 19  1  0
 18  8  1  0
 19  6  1  0
 20 26  1  0
 21  4  1  0
 22 12  1  0
 22  7  1  0
 23  2  2  0
 23  1  1  0
 24 10  1  0
 24 15  1  0
 25 14  2  0
 26 11  1  0
  2 27  1  0
  3 28  1  0
  4 29  1  0
  4 30  1  0
  5 31  1  0
  5 32  1  0
  5 33  1  0
  8 34  1  0
  9 35  1  0
  9 36  1  0
 12 37  1  0
 18 38  1  0
 19 39  1  0
 21 40  1  0
 22 41  1  0
 22 42  1  0
 24 43  1  6
 26 44  1  0
M  END
>  <mol_id>  (63) 
2026-08-24-6tgu-s0-n100-seed1-0066

>  <rmsd_to_ref>  (63) 


$$$$

     RDKit          3D

 37 39  0  0  0  0  0  0  0  0999 V2000
    0.1580   19.6590   42.7940 C   0  0  0  0  0  0  0  0  0  0  0  0
    3.6710   19.0900   37.7450 C   0  0  0  0  0  0  0  0  0  0  0  0
    0.8610   20.0360   41.6470 C   0  0  0  0  0  0  0  0  0  0  0  0
    1.7820   20.7040   38.8920 C   0  0  0  0  0  0  0  0  0  0  0  0
   -0.9930   20.1180   44.4940 N   0  0  0  0  0  0  0  0  0  0  0  0
    3.0810   18.6630   38.9270 C   0  0  0  0  0  0  0  0  0  0  0  0
    1.5450   19.0690   40.9130 C   0  0  0  0  0  0  0  0  0  0  0  0
   -0.5470   17.5960   44.4560 N   0  0  0  0  0  0  0  0  0  0  0  0
   -1.0510   17.8100   45.7690 C   0  0  0  0  0  0  0  0  0  0  0  0
    3.3690   20.2470   37.0840 C   0  0  0  0  0  0  0  0  0  0  0  0
    2.3360   21.0270   37.7000 C   0  0  0  0  0  0  0  0  0  0  0  0
    2.1440   19.4690   39.5870 C   0  0  0  0  0  0  0  0  0  0  0  0
    4.0490   20.6410   35.8050 C   0  0  0  0  0  0  0  0  0  0  0  0
    0.1350   18.3230   43.2560 C   0  0  0  0  0  0  0  0  0  0  0  0
    0.9680   17.4370   42.5120 C   0  0  0  0  0  0  0  0  0  0  0  0
   -0.6990   16.7730   46.8030 C   0  0  0  0  0  0  0  0  0  0  0  0
   -0.4690   20.7520   43.5760 N   0  0  0  0  0  0  0  0  0  0  0  0
    3.6170   21.4930   34.8910 N   0  0  0  0  0  0  0  0  0  0  0  0
   -0.2090   17.9230   46.9650 C   0  0  0  0  0  0  0  0  0  0  0  0
    1.6860   17.7800   41.4060 N   0  0  0  0  0  0  0  0  0  0  0  0
    4.4448   18.4440   37.3047 H   0  0  0  0  0  0  0  0  0  0  0  0
    0.8744   21.0880   41.3259 H   0  0  0  0  0  0  0  0  0  0  0  0
    1.0457   21.3831   39.3466 H   0  0  0  0  0  0  0  0  0  0  0  0
   -0.6782   20.4989   45.3977 H   0  0  0  0  0  0  0  0  0  0  0  0
   -2.0176   20.1984   44.4257 H   0  0  0  0  0  0  0  0  0  0  0  0
    3.3514   17.6838   39.3489 H   0  0  0  0  0  0  0  0  0  0  0  0
   -0.6803   16.6050   44.2089 H   0  0  0  0  0  0  0  0  0  0  0  0
   -1.9001   18.3668   45.3460 H   0  0  0  0  0  0  0  0  0  0  0  0
    1.9776   21.9281   37.1809 H   0  0  0  0  0  0  0  0  0  0  0  0
    5.0203   20.1652   35.6048 H   0  0  0  0  0  0  0  0  0  0  0  0
    1.0364   16.3950   42.8579 H   0  0  0  0  0  0  0  0  0  0  0  0
   -1.4754   16.4139   47.4945 H   0  0  0  0  0  0  0  0  0  0  0  0
   -0.2632   15.7646   46.7471 H   0  0  0  0  0  0  0  0  0  0  0  0
   -0.4671   21.7668   43.3996 H   0  0  0  0  0  0  0  0  0  0  0  0
    4.1832   21.6777   34.0506 H   0  0  0  0  0  0  0  0  0  0  0  0
    0.8752   18.0607   46.8401 H   0  0  0  0  0  0  0  0  0  0  0  0
   -0.2275   18.6190   47.8166 H   0  0  0  0  0  0  0  0  0  0  0  0
  1 14  2  0
  1 17  1  0
  2  6  2  0
  3  1  1  0
  4 12  2  0
  6 12  1  0
  7 20  1  0
  7  3  2  0
  8  9  1  0
  9 16  1  0
  9 19  1  0
 10 11  2  0
 10  2  1  0
 11  4  1  0
 12  7  1  0
 13 10  1  0
 14  8  1  0
 15 14  1  0
 16 19  1  0
 17  5  1  0
 18 13  2  3
 20 15  2  0
  2 21  1  0
  3 22  1  0
  4 23  1  0
  5 24  1  0
  5 25  1  0
  6 26  1  0
  8 27  1  0
  9 28  1  0
 11 29  1  0
 13 30  1  0
 15 31  1  0
 16 32  1  0
 16 33  1  0
 17 34  1  0
 18 35  1  0
 19 36  1  0
 19 37  1  0
M  END
>  <mol_id>  (64) 
2026-08-24-6tgu-s0-n100-seed1-0067

>  <rmsd_to_ref>  (64) 


$$$$

     RDKit          3D

 59 63  0  0  0  0  0  0  0  0999 V2000
   -0.5715   19.4803   43.6367 C   0  0  0  0  0  0  0  0  0  0  0  0
    1.5450   20.7102   39.8753 C   0  0  0  0  0  0  0  0  0  0  0  0
    3.1904   16.8417   37.7502 C   0  0  2  0  0  0  0  0  0  0  0  0
    5.7172   14.2488   38.1457 O   0  0  0  0  0  0  0  0  0  0  0  0
   -0.4473   20.5263   42.7832 N   0  0  0  0  0  0  0  0  0  0  0  0
    2.1355   21.0224   35.7671 O   0  0  0  0  0  0  0  0  0  0  0  0
    0.9016   16.0242   43.1841 C   0  0  0  0  0  0  0  0  0  0  0  0
    3.0248   20.1142   35.9000 C   0  0  0  0  0  0  0  0  0  0  0  0
    5.4130   14.1675   35.9215 O   0  0  0  0  0  0  0  0  0  0  0  0
   -0.7566   17.3522   46.4101 N   0  0  0  0  0  0  0  0  0  0  0  0
   -0.0199   15.1508   45.9954 S   0  0  0  0  0  0  0  0  0  0  0  0
    0.1214   18.3008   43.3772 C   0  0  0  0  0  0  0  0  0  0  0  0
   -0.5466   16.5543   48.7474 C   0  0  0  0  0  0  0  0  0  0  0  0
    0.3274   20.4048   41.6848 C   0  0  0  0  0  0  0  0  0  0  0  0
   -1.9039   16.3832   49.4701 C   0  0  0  0  0  0  0  0  0  0  0  0
    3.8141   19.0145   38.8015 C   0  0  0  0  0  0  0  0  0  0  0  0
    1.4123   16.6777   41.9607 C   0  0  0  0  0  0  0  0  0  0  0  0
    2.4698   17.1183   39.1476 C   0  0  0  0  0  0  0  0  0  0  0  0
    2.9098   18.4747   39.7587 C   0  0  2  0  0  0  0  0  0  0  0  0
    4.4653   16.2397   37.4005 N   0  0  0  0  0  0  0  0  0  0  0  0
    2.7045   19.0023   36.6595 N   0  0  0  0  0  0  0  0  0  0  0  0
    3.8522   13.5330   38.0482 O   0  0  0  0  0  0  0  0  0  0  0  0
    0.1061   17.0320   44.0796 N   0  0  0  0  0  0  0  0  0  0  0  0
    0.8684   18.1717   42.2514 C   0  0  0  0  0  0  0  0  0  0  0  0
    1.8485   19.4218   40.3343 N   0  0  0  0  0  0  0  0  0  0  0  0
    4.1570   20.0908   35.2784 O   0  0  0  0  0  0  0  0  0  0  0  0
   -0.6305   16.3865   47.3360 C   0  0  1  0  0  0  0  0  0  0  0  0
    4.7709   14.6582   37.3361 P   0  0  0  0  0  5  0  0  0  0  0  0
    0.6559   21.2542   40.7002 N   0  0  0  0  0  0  0  0  0  0  0  0
    3.6730   18.2786   37.4264 C   0  0  2  0  0  0  0  0  0  0  0  0
   -0.3289   16.7051   45.2414 C   0  0  2  0  0  0  0  0  0  0  0  0
   -2.9423   16.8922   48.6717 O   0  0  0  0  0  0  0  0  0  0  0  0
    1.0511   19.2165   41.4471 C   0  0  1  0  0  0  0  0  0  0  0  0
   -0.2444   19.8332   44.6259 H   0  0  0  0  0  0  0  0  0  0  0  0
   -1.6274   19.1883   43.5375 H   0  0  0  0  0  0  0  0  0  0  0  0
    1.9710   21.1910   38.9823 H   0  0  0  0  0  0  0  0  0  0  0  0
    2.4484   16.1517   37.3219 H   0  0  0  0  0  0  0  0  0  0  0  0
    5.4778   14.4817   39.0776 H   0  0  0  0  0  0  0  0  0  0  0  0
    1.0602   14.9647   43.4334 H   0  0  0  0  0  0  0  0  0  0  0  0
   -1.7349   17.6637   46.3271 H   0  0  0  0  0  0  0  0  0  0  0  0
   -0.2212   18.2047   46.6284 H   0  0  0  0  0  0  0  0  0  0  0  0
   -0.1658   17.5650   48.9560 H   0  0  0  0  0  0  0  0  0  0  0  0
    0.1241   15.7697   49.1276 H   0  0  0  0  0  0  0  0  0  0  0  0
   -2.0821   15.3148   49.6617 H   0  0  0  0  0  0  0  0  0  0  0  0
   -1.8775   16.9341   50.4218 H   0  0  0  0  0  0  0  0  0  0  0  0
    3.5962   20.0837   38.6623 H   0  0  0  0  0  0  0  0  0  0  0  0
    4.8412   18.8781   39.1707 H   0  0  0  0  0  0  0  0  0  0  0  0
    1.9857   16.2724   41.1139 H   0  0  0  0  0  0  0  0  0  0  0  0
    1.3811   17.1338   38.9909 H   0  0  0  0  0  0  0  0  0  0  0  0
    2.7550   16.3178   39.8460 H   0  0  0  0  0  0  0  0  0  0  0  0
    3.3889   18.3023   40.7338 H   0  0  0  0  0  0  0  0  0  0  0  0
    4.6860   16.5976   36.4602 H   0  0  0  0  0  0  0  0  0  0  0  0
    1.7260   18.6813   36.6737 H   0  0  0  0  0  0  0  0  0  0  0  0
    3.9016   13.6404   39.0311 H   0  0  0  0  0  0  0  0  0  0  0  0
   -1.2251   15.9788   48.1668 H   0  0  0  0  0  0  0  0  0  0  0  0
    4.6094   18.2281   36.8513 H   0  0  0  0  0  0  0  0  0  0  0  0
   -0.8453   17.1213   44.3639 H   0  0  0  0  0  0  0  0  0  0  0  0
   -3.6091   17.3448   49.2467 H   0  0  0  0  0  0  0  0  0  0  0  0
    1.8619   19.5807   42.0952 H   0  0  0  0  0  0  0  0  0  0  0  0
  2 25  1  0
  2 29  2  0
  3 20  1  0
  3 18  1  0
  5  1  1  0
  6  8  1  0
  7 23  1  0
  8 21  1  0
  9 28  2  0
 10 27  1  0
 11 27  1  0
 12  1  1  0
 12 23  1  0
 13 15  1  0
 14  5  2  0
 17 24  1  0
 17  7  2  0
 18 19  1  0
 19 16  1  0
 19 25  1  0
 24 12  2  0
 25 33  1  0
 26  8  2  0
 27 13  1  0
 28 20  1  0
 28 22  1  0
 28  4  1  0
 29 14  1  0
 30 21  1  0
 30  3  1  0
 30 16  1  0
 31 23  1  0
 31 11  1  0
 31 10  1  0
 32 15  1  0
 33 14  1  0
 33 24  1  0
  1 34  1  0
  1 35  1  0
  2 36  1  0
  3 37  1  6
  4 38  1  0
  7 39  1  0
 10 40  1  0
 10 41  1  0
 13 42  1  0
 13 43  1  0
 15 44  1  0
 15 45  1  0
 16 46  1  0
 16 47  1  0
 17 48  1  0
 18 49  1  0
 18 50  1  0
 19 51  1  1
 20 52  1  0
 21 53  1  0
 22 54  1  0
 27 55  1  1
 30 56  1  6
 31 57  1  6
 32 58  1  0
 33 59  1  1
M  CHG  2   6  -1  10   1
M  END
>  <mol_id>  (65) 
2026-08-24-6tgu-s0-n100-seed1-0068

>  <rmsd_to_ref>  (65) 


$$$$

     RDKit          3D

 17 18  0  0  0  0  0  0  0  0999 V2000
    3.2730   18.4540   38.2170 C   0  0  0  0  0  0  0  0  0  0  0  0
    2.1560   20.4440   38.8610 O   0  0  0  0  0  0  0  0  0  0  0  0
    0.8470   18.8030   42.3820 C   0  0  0  0  0  0  0  0  0  0  0  0
    1.7810   19.8320   39.9980 C   0  0  0  0  0  0  0  0  0  0  0  0
    2.8250   19.7340   37.9510 C   0  0  0  0  0  0  0  0  0  0  0  0
    2.9790   20.3730   36.8480 O   0  0  0  0  0  0  0  0  0  0  0  0
    2.0510   18.5010   40.2480 C   0  0  0  0  0  0  0  0  0  0  0  0
    2.8340   17.7920   39.3460 C   0  0  0  0  0  0  0  0  0  0  0  0
    0.6220   20.1500   42.0350 C   0  0  0  0  0  0  0  0  0  0  0  0
    1.5710   17.9280   41.4650 C   0  0  0  0  0  0  0  0  0  0  0  0
    1.0480   20.6510   40.8100 C   0  0  0  0  0  0  0  0  0  0  0  0
    3.9783   17.9634   37.5301 H   0  0  0  0  0  0  0  0  0  0  0  0
    0.4780   18.4118   43.3416 H   0  0  0  0  0  0  0  0  0  0  0  0
    3.0954   16.7387   39.5253 H   0  0  0  0  0  0  0  0  0  0  0  0
    0.1028   20.8135   42.7422 H   0  0  0  0  0  0  0  0  0  0  0  0
    1.7405   16.8674   41.7023 H   0  0  0  0  0  0  0  0  0  0  0  0
    0.8018   21.6782   40.5030 H   0  0  0  0  0  0  0  0  0  0  0  0
  1  8  2  0
  2  4  1  0
  4  7  1  0
  4 11  2  0
  5  1  1  0
  5  2  1  0
  6  5  2  0
  7 10  2  0
  8  7  1  0
  9  3  2  0
 10  3  1  0
 11  9  1  0
  1 12  1  0
  3 13  1  0
  8 14  1  0
  9 15  1  0
 10 16  1  0
 11 17  1  0
M  END
>  <mol_id>  (66) 
2026-08-24-6tgu-s0-n100-seed1-0069

>  <rmsd_to_ref>  (66) 


$$$$

     RDKit          3D

 24 26  0  0  0  0  0  0  0  0999 V2000
    1.0838   18.7668   41.4583 C   0  0  0  0  0  0  0  0  0  0  0  0
    2.8464   17.2214   38.8121 O   0  0  0  0  0  0  0  0  0  0  0  0
    0.8773   20.0838   40.9037 C   0  0  2  0  0  0  0  0  0  0  0  0
    1.5593   20.4040   39.5389 C   0  0  0  0  0  0  0  0  0  0  0  0
    2.4023   18.1436   39.5071 C   0  0  0  0  0  0  0  0  0  0  0  0
    2.6803   20.6051   36.8295 N   0  0  0  0  0  0  0  0  0  0  0  0
   -0.7503   18.7677   44.5974 O   0  0  0  0  0  0  0  0  0  0  0  0
    0.5452   18.3314   42.6725 C   0  0  0  0  0  0  0  0  0  0  0  0
    1.8394   17.8472   40.6933 N   0  0  0  0  0  0  0  0  0  0  0  0
    2.2218   19.3477   38.9044 C   0  0  0  0  0  0  0  0  0  0  0  0
   -0.5464   20.5544   42.9307 C   0  0  0  0  0  0  0  0  0  0  0  0
    0.0268   20.9642   41.6986 C   0  0  0  0  0  0  0  0  0  0  0  0
    2.8033   19.4625   37.5566 C   0  0  0  0  0  0  0  0  0  0  0  0
   -0.2993   19.2232   43.5035 C   0  0  0  0  0  0  0  0  0  0  0  0
    1.4094   21.5633   38.7684 C   0  0  0  0  0  0  0  0  0  0  0  0
    2.0110   21.6285   37.4331 C   0  0  0  0  0  0  0  0  0  0  0  0
   -0.0077   19.7173   40.3629 H   0  0  0  0  0  0  0  0  0  0  0  0
   -0.0677   17.4475   42.4422 H   0  0  0  0  0  0  0  0  0  0  0  0
    1.4407   18.1994   43.2976 H   0  0  0  0  0  0  0  0  0  0  0  0
   -1.1966   21.2556   43.4746 H   0  0  0  0  0  0  0  0  0  0  0  0
   -0.1770   21.9804   41.3301 H   0  0  0  0  0  0  0  0  0  0  0  0
    3.3477   18.6074   37.1295 H   0  0  0  0  0  0  0  0  0  0  0  0
    0.8435   22.4202   39.1626 H   0  0  0  0  0  0  0  0  0  0  0  0
    1.9154   22.5727   36.8770 H   0  0  0  0  0  0  0  0  0  0  0  0
  1  8  1  0
  2  5  2  0
  3  1  1  0
  3 12  1  0
  4  3  1  0
  5  9  1  0
  6 13  1  0
  6 16  2  0
  8 14  1  0
  9  1  2  0
 10  5  1  0
 10  4  1  0
 11 14  1  0
 12 11  2  0
 13 10  2  0
 14  7  2  0
 15  4  2  0
 16 15  1  0
  3 17  1  6
  8 18  1  0
  8 19  1  0
 11 20  1  0
 12 21  1  0
 13 22  1  0
 15 23  1  0
 16 24  1  0
M  END
>  <mol_id>  (67) 
2026-08-24-6tgu-s0-n100-seed1-0070

>  <rmsd_to_ref>  (67) 


$$$$

     RDKit          3D

 47 51  0  0  0  0  0  0  0  0999 V2000
    2.5180   16.9160   40.3140 O   0  0  0  0  0  0  0  0  0  0  0  0
   -2.0270   19.3100   45.9970 N   0  0  0  0  0  0  0  0  0  0  0  0
    2.9970   15.4640   40.0290 C   0  0  0  0  0  0  0  0  0  0  0  0
    0.1440   20.8690   41.9260 C   0  0  0  0  0  0  0  0  0  0  0  0
    0.8720   15.2010   42.4100 C   0  0  0  0  0  0  0  0  0  0  0  0
    3.9840   17.4650   37.1790 C   0  0  0  0  0  0  0  0  0  0  0  0
    0.1540   15.7940   43.5270 C   0  0  0  0  0  0  0  0  0  0  0  0
   -1.0930   16.8210   45.8850 C   0  0  0  0  0  0  0  0  0  0  0  0
   -0.2280   14.9610   44.6580 C   0  0  0  0  0  0  0  0  0  0  0  0
    3.3550   17.3920   38.3040 N   0  0  0  0  0  0  0  0  0  0  0  0
   -0.9060   20.1390   43.9440 N   0  0  0  0  0  0  0  0  0  0  0  0
   -0.7440   17.7570   44.7850 C   0  0  0  0  0  0  0  0  0  0  0  0
    2.2100   21.1200   37.9850 C   0  0  0  0  0  0  0  0  0  0  0  0
    2.7510   17.9030   39.4070 C   0  0  0  0  0  0  0  0  0  0  0  0
   -1.1070   19.0900   44.7360 C   0  0  0  0  0  0  0  0  0  0  0  0
    1.3260   21.7100   39.0950 O   0  0  0  0  0  0  0  0  0  0  0  0
    1.6650   19.6170   40.6500 C   0  0  0  0  0  0  0  0  0  0  0  0
   -0.0990   17.2580   43.5510 C   0  0  0  0  0  0  0  0  0  0  0  0
   -0.8020   15.4620   45.8440 C   0  0  0  0  0  0  0  0  0  0  0  0
    3.2270   20.2650   38.5030 C   0  0  2  0  0  0  0  0  0  0  0  0
   -0.2030   19.7970   42.8660 C   0  0  0  0  0  0  0  0  0  0  0  0
    4.0380   20.1470   37.3720 C   0  0  0  0  0  0  0  0  0  0  0  0
    0.3580   18.5210   42.5870 C   0  0  0  0  0  0  0  0  0  0  0  0
    1.2330   18.6110   41.5690 N   0  0  0  0  0  0  0  0  0  0  0  0
    2.0920   21.4830   36.9160 O   0  0  0  0  0  0  0  0  0  0  0  0
    4.4090   16.1240   36.5850 C   0  0  0  0  0  0  0  0  0  0  0  0
    4.2420   18.7400   36.5720 N   0  0  0  0  0  0  0  0  0  0  0  0
    1.1100   21.0000   40.5750 C   0  0  0  0  0  0  0  0  0  0  0  0
    2.5860   19.3740   39.7540 N   0  0  0  0  0  0  0  0  0  0  0  0
   -2.2133   18.5283   46.6413 H   0  0  0  0  0  0  0  0  0  0  0  0
   -2.4419   20.2355   46.1766 H   0  0  0  0  0  0  0  0  0  0  0  0
    3.1695   14.9412   40.9813 H   0  0  0  0  0  0  0  0  0  0  0  0
    2.2272   14.9305   39.4520 H   0  0  0  0  0  0  0  0  0  0  0  0
    3.9331   15.4933   39.4520 H   0  0  0  0  0  0  0  0  0  0  0  0
   -0.3554   21.8173   42.1738 H   0  0  0  0  0  0  0  0  0  0  0  0
    1.6672   14.5442   42.7925 H   0  0  0  0  0  0  0  0  0  0  0  0
    0.1740   14.6126   41.7963 H   0  0  0  0  0  0  0  0  0  0  0  0
    1.3179   15.9976   41.7963 H   0  0  0  0  0  0  0  0  0  0  0  0
   -1.6050   17.2216   46.7724 H   0  0  0  0  0  0  0  0  0  0  0  0
   -0.0588   13.8767   44.5827 H   0  0  0  0  0  0  0  0  0  0  0  0
   -1.0110   14.8052   46.7013 H   0  0  0  0  0  0  0  0  0  0  0  0
    4.0798   20.2984   39.1970 H   0  0  0  0  0  0  0  0  0  0  0  0
    3.6381   20.8598   36.6358 H   0  0  0  0  0  0  0  0  0  0  0  0
    5.0390   20.3059   37.7996 H   0  0  0  0  0  0  0  0  0  0  0  0
    4.6329   15.4174   37.3978 H   0  0  0  0  0  0  0  0  0  0  0  0
    3.5939   15.7229   35.9647 H   0  0  0  0  0  0  0  0  0  0  0  0
    5.3063   16.2656   35.9647 H   0  0  0  0  0  0  0  0  0  0  0  0
  3  1  1  0
  4 21  2  0
  5  7  1  0
  6 10  1  0
  7 18  2  0
  7  9  1  0
  9 19  2  0
 10 14  2  0
 11 15  2  0
 12  8  2  0
 13 20  1  0
 13 16  1  0
 14 29  1  0
 14  1  1  0
 15 12  1  0
 15  2  1  0
 16 28  1  0
 17 24  1  0
 18 12  1  0
 19  8  1  0
 20 22  1  0
 20 29  1  0
 21 11  1  0
 23 21  1  0
 23 18  1  0
 24 23  2  0
 25 13  2  0
 26  6  1  0
 27  6  2  0
 27 22  1  0
 28 17  2  0
 28  4  1  0
 29 17  1  0
  2 30  1  0
  2 31  1  0
  3 32  1  0
  3 33  1  0
  3 34  1  0
  4 35  1  0
  5 36  1  0
  5 37  1  0
  5 38  1  0
  8 39  1  0
  9 40  1  0
 19 41  1  0
 20 42  1  1
 22 43  1  0
 22 44  1  0
 26 45  1  0
 26 46  1  0
 26 47  1  0
M  END
>  <mol_id>  (68) 
2026-08-24-6tgu-s0-n100-seed1-0071

>  <rmsd_to_ref>  (68) 


$$$$

     RDKit          3D

 39 40  0  0  0  0  0  0  0  0999 V2000
   -0.4600   17.6770   44.2600 C   0  0  0  0  0  0  0  0  0  0  0  0
    1.5220   21.3090   39.4900 C   0  0  0  0  0  0  0  0  0  0  0  0
    3.1350   19.8010   38.4240 C   0  0  0  0  0  0  0  0  0  0  0  0
    1.4940   13.9500   42.6880 C   0  0  0  0  0  0  0  0  0  0  0  0
    1.2260   19.3400   41.0360 C   0  0  0  0  0  0  0  0  0  0  0  0
    4.0850   16.8710   36.5090 N   0  0  0  0  0  0  0  0  0  0  0  0
    0.1720   17.7540   43.1290 C   0  0  0  0  0  0  0  0  0  0  0  0
    3.0310   18.7980   39.3240 C   0  0  0  0  0  0  0  0  0  0  0  0
    2.5370   14.0450   41.7310 C   0  0  0  0  0  0  0  0  0  0  0  0
   -0.9040   18.8610   44.8700 N   0  0  0  0  0  0  0  0  0  0  0  0
    0.3690   19.0050   42.3240 C   0  0  0  0  0  0  0  0  0  0  0  0
    0.7050   16.4220   42.5610 C   0  0  0  0  0  0  0  0  0  0  0  0
    1.1330   12.8110   43.2190 O   0  0  0  0  0  0  0  0  0  0  0  0
    0.5990   15.0980   43.1750 C   0  0  0  0  0  0  0  0  0  0  0  0
    3.5790   19.3940   37.0500 C   0  0  0  0  0  0  0  0  0  0  0  0
    1.5180   16.4830   41.6130 O   0  0  0  0  0  0  0  0  0  0  0  0
    2.1520   18.4850   40.4110 C   0  0  0  0  0  0  0  0  0  0  0  0
   -0.6210   19.8840   44.2030 C   0  0  0  0  0  0  0  0  0  0  0  0
    3.7970   18.1110   36.9240 N   0  0  0  0  0  0  0  0  0  0  0  0
    2.4060   20.9290   38.4700 C   0  0  0  0  0  0  0  0  0  0  0  0
    3.6610   20.1620   36.2220 O   0  0  0  0  0  0  0  0  0  0  0  0
    1.0060   20.5950   40.5070 C   0  0  0  0  0  0  0  0  0  0  0  0
   -0.1270   20.0670   42.9330 N   0  0  0  0  0  0  0  0  0  0  0  0
   -0.6446   16.7009   44.7325 H   0  0  0  0  0  0  0  0  0  0  0  0
    1.1984   22.3597   39.4527 H   0  0  0  0  0  0  0  0  0  0  0  0
    4.2269   16.2599   37.3259 H   0  0  0  0  0  0  0  0  0  0  0  0
    3.3056   16.5094   35.9409 H   0  0  0  0  0  0  0  0  0  0  0  0
    3.8124   18.0357   39.1887 H   0  0  0  0  0  0  0  0  0  0  0  0
    3.5033   14.1330   42.2493 H   0  0  0  0  0  0  0  0  0  0  0  0
    2.5397   13.1434   41.1009 H   0  0  0  0  0  0  0  0  0  0  0  0
    2.3768   14.9323   41.1009 H   0  0  0  0  0  0  0  0  0  0  0  0
    1.6244   11.9817   42.9932 H   0  0  0  0  0  0  0  0  0  0  0  0
   -0.1230   14.9252   43.9867 H   0  0  0  0  0  0  0  0  0  0  0  0
    2.2075   17.4583   40.8018 H   0  0  0  0  0  0  0  0  0  0  0  0
   -0.8050   20.8248   44.7425 H   0  0  0  0  0  0  0  0  0  0  0  0
    3.5764   17.8593   37.8981 H   0  0  0  0  0  0  0  0  0  0  0  0
    2.5134   21.6231   37.6235 H   0  0  0  0  0  0  0  0  0  0  0  0
    1.1708   21.2538   41.3723 H   0  0  0  0  0  0  0  0  0  0  0  0
    0.0951   20.3059   39.9623 H   0  0  0  0  0  0  0  0  0  0  0  0
  1 10  1  0
  2 22  1  0
  3 20  1  0
  3  8  2  0
  4 14  2  3
  4 13  1  0
  5 11  1  0
  6 19  1  0
  7  1  2  0
  8 17  1  0
  9  4  1  0
 11 23  2  0
 11  7  1  0
 12  7  1  0
 12 14  1  0
 15  3  1  0
 16 12  2  0
 17  5  2  0
 18 10  2  0
 19 15  1  0
 20  2  2  0
 21 15  2  0
 22  5  1  0
 23 18  1  0
  1 24  1  0
  2 25  1  0
  6 26  1  0
  6 27  1  0
  8 28  1  0
  9 29  1  0
  9 30  1  0
  9 31  1  0
 13 32  1  0
 14 33  1  0
 17 34  1  0
 18 35  1  0
 19 36  1  0
 20 37  1  0
 22 38  1  0
 22 39  1  0
M  END
>  <mol_id>  (69) 
2026-08-24-6tgu-s0-n100-seed1-0072

>  <rmsd_to_ref>  (69) 


$$$$

     RDKit          3D

 28 28  0  0  0  0  0  0  0  0999 V2000
    4.0017   19.4875   36.0823 O   0  0  0  0  0  0  0  0  0  0  0  0
    0.2046   19.6943   43.1244 C   0  0  0  0  0  0  0  0  0  0  0  0
    3.2801   19.4702   37.0887 C   0  0  0  0  0  0  0  0  0  0  0  0
    0.3385   17.2940   43.4286 C   0  0  0  0  0  0  0  0  0  0  0  0
    3.6425   17.3060   37.9714 O   0  0  0  0  0  0  0  0  0  0  0  0
   -1.2631   18.5376   44.7398 C   0  0  0  0  0  0  0  0  0  0  0  0
    1.6941   18.4141   41.6735 C   0  0  0  0  0  0  0  0  0  0  0  0
    2.3511   19.9776   39.8719 C   0  0  0  0  0  0  0  0  0  0  0  0
    1.2286   19.4315   40.6431 C   0  0  0  0  0  0  0  0  0  0  0  0
    3.4460   18.5389   38.1722 C   0  0  0  0  0  0  0  0  0  0  0  0
    2.4390   20.3620   37.0471 O   0  0  0  0  0  0  0  0  0  0  0  0
   -0.7963   19.7260   44.0725 C   0  0  0  0  0  0  0  0  0  0  0  0
    0.7407   18.4648   42.7829 C   0  0  0  0  0  0  0  0  0  0  0  0
   -0.6240   17.3433   44.3556 C   0  0  0  0  0  0  0  0  0  0  0  0
    3.5476   19.0376   39.5655 C   0  0  0  0  0  0  0  0  0  0  0  0
    0.5666   20.6198   42.6529 H   0  0  0  0  0  0  0  0  0  0  0  0
    0.8119   16.3340   43.1754 H   0  0  0  0  0  0  0  0  0  0  0  0
   -2.0619   18.5616   45.4957 H   0  0  0  0  0  0  0  0  0  0  0  0
    2.7027   18.6708   42.0295 H   0  0  0  0  0  0  0  0  0  0  0  0
    1.7377   17.4048   41.2381 H   0  0  0  0  0  0  0  0  0  0  0  0
    1.9494   20.3214   38.9073 H   0  0  0  0  0  0  0  0  0  0  0  0
    2.7743   20.7609   40.5178 H   0  0  0  0  0  0  0  0  0  0  0  0
    0.7184   20.2563   41.1622 H   0  0  0  0  0  0  0  0  0  0  0  0
    0.5479   18.9236   39.9440 H   0  0  0  0  0  0  0  0  0  0  0  0
   -1.2545   20.6928   44.3283 H   0  0  0  0  0  0  0  0  0  0  0  0
   -0.9312   16.4054   44.8414 H   0  0  0  0  0  0  0  0  0  0  0  0
    3.5311   18.1857   40.2611 H   0  0  0  0  0  0  0  0  0  0  0  0
    4.4888   19.5940   39.6861 H   0  0  0  0  0  0  0  0  0  0  0  0
  1  3  2  0
  2 12  1  0
  3 10  1  0
  4 14  2  0
  5 10  2  0
  7 13  1  0
  8  9  1  0
  9  7  1  0
 10 15  1  0
 11  3  1  0
 12  6  2  0
 13  2  2  0
 13  4  1  0
 14  6  1  0
 15  8  1  0
  2 16  1  0
  4 17  1  0
  6 18  1  0
  7 19  1  0
  7 20  1  0
  8 21  1  0
  8 22  1  0
  9 23  1  0
  9 24  1  0
 12 25  1  0
 14 26  1  0
 15 27  1  0
 15 28  1  0
M  CHG  1  11  -1
M  END
>  <mol_id>  (70) 
2026-08-24-6tgu-s0-n100-seed1-0073

>  <rmsd_to_ref>  (70) 


$$$$

     RDKit          3D

 49 54  0  0  0  0  0  0  0  0999 V2000
    3.5990   18.9560   36.9800 C   0  0  0  0  0  0  0  0  0  0  0  0
    0.8590   16.0360   42.2940 C   0  0  0  0  0  0  0  0  0  0  0  0
   -0.6520   14.3310   45.6170 C   0  0  0  0  0  0  0  0  0  0  0  0
   -0.8730   20.7700   43.5390 C   0  0  0  0  0  0  0  0  0  0  0  0
    3.0480   22.0550   35.0610 N   0  0  0  0  0  0  0  0  0  0  0  0
    2.9420   19.3160   38.2180 C   0  0  0  0  0  0  0  0  0  0  0  0
   -0.4790   13.0130   45.7600 C   0  0  0  0  0  0  0  0  0  0  0  0
    2.7440   18.3650   39.2710 C   0  0  0  0  0  0  0  0  0  0  0  0
    2.3140   20.5450   38.3250 C   0  0  0  0  0  0  0  0  0  0  0  0
   -0.1600   14.9370   44.4890 C   0  0  0  0  0  0  0  0  0  0  0  0
   -0.0560   21.0750   42.2560 C   0  0  0  0  0  0  0  0  0  0  0  0
    0.5700   12.7990   43.6540 N   0  0  0  0  0  0  0  0  0  0  0  0
   -0.1560   18.3440   42.9720 C   0  0  0  0  0  0  0  0  0  0  0  0
    1.8630   18.8160   40.2820 C   0  0  0  0  0  0  0  0  0  0  0  0
    2.9960   21.1300   36.1350 C   0  0  0  0  0  0  0  0  0  0  0  0
   -1.0810   20.3060   44.1360 N   0  0  0  0  0  0  0  0  0  0  0  0
    1.0020   14.7310   42.3830 C   0  0  0  0  0  0  0  0  0  0  0  0
    0.4470   14.1190   43.5050 C   0  0  0  0  0  0  0  0  0  0  0  0
    3.3420   17.1300   39.2450 O   0  0  0  0  0  0  0  0  0  0  0  0
   -1.0580   18.8980   44.0150 C   0  0  0  0  0  0  0  0  0  0  0  0
    3.6280   19.8460   36.0140 C   0  0  0  0  0  0  0  0  0  0  0  0
    1.4410   20.0850   40.4690 C   0  0  0  0  0  0  0  0  0  0  0  0
   -0.3250   16.2470   44.3050 C   0  0  0  0  0  0  0  0  0  0  0  0
    1.6640   21.0030   39.5560 C   0  0  0  0  0  0  0  0  0  0  0  0
    0.5110   18.8240   41.9200 C   0  0  0  0  0  0  0  0  0  0  0  0
    1.3750   18.1060   41.1970 N   0  0  0  0  0  0  0  0  0  0  0  0
    0.6520   20.2080   41.6290 C   0  0  0  0  0  0  0  0  0  0  0  0
    2.3430   21.4570   37.2680 C   0  0  0  0  0  0  0  0  0  0  0  0
    0.1820   16.8740   43.1570 C   0  0  0  0  0  0  0  0  0  0  0  0
    0.1040   12.2670   44.7890 C   0  0  0  0  0  0  0  0  0  0  0  0
    4.0607   17.9659   36.8514 H   0  0  0  0  0  0  0  0  0  0  0  0
    1.3364   16.5170   41.4276 H   0  0  0  0  0  0  0  0  0  0  0  0
   -1.1770   14.9162   46.3864 H   0  0  0  0  0  0  0  0  0  0  0  0
   -1.4742   21.6787   43.6902 H   0  0  0  0  0  0  0  0  0  0  0  0
    3.5458   21.8094   34.1934 H   0  0  0  0  0  0  0  0  0  0  0  0
    2.5879   22.9724   35.1487 H   0  0  0  0  0  0  0  0  0  0  0  0
   -0.8168   12.5231   46.6852 H   0  0  0  0  0  0  0  0  0  0  0  0
   -0.0856   22.1002   41.8584 H   0  0  0  0  0  0  0  0  0  0  0  0
   -0.4553   20.5413   44.9196 H   0  0  0  0  0  0  0  0  0  0  0  0
   -2.0869   20.5052   44.2334 H   0  0  0  0  0  0  0  0  0  0  0  0
    1.5322   14.1532   41.6116 H   0  0  0  0  0  0  0  0  0  0  0  0
    3.1893   16.4904   39.9851 H   0  0  0  0  0  0  0  0  0  0  0  0
   -1.6727   18.2493   44.6563 H   0  0  0  0  0  0  0  0  0  0  0  0
    4.1545   19.5992   35.0803 H   0  0  0  0  0  0  0  0  0  0  0  0
   -0.8627   16.8407   45.0589 H   0  0  0  0  0  0  0  0  0  0  0  0
    1.3792   22.0547   39.7069 H   0  0  0  0  0  0  0  0  0  0  0  0
    1.6070   17.1166   41.3647 H   0  0  0  0  0  0  0  0  0  0  0  0
    1.8390   22.4305   37.3588 H   0  0  0  0  0  0  0  0  0  0  0  0
    0.1972   11.1816   44.9410 H   0  0  0  0  0  0  0  0  0  0  0  0
  1  6  2  0
  2 17  1  0
  2 29  2  0
  3  7  2  0
  4 16  1  0
  5 15  1  0
  6  9  1  0
  6  8  1  0
  8 14  2  0
  9 24  1  0
 10  3  1  0
 11  4  2  0
 12 30  2  0
 13 29  1  0
 13 20  2  0
 14 22  1  0
 14 26  1  0
 15 28  1  0
 17 18  2  0
 18 12  1  0
 18 10  1  0
 19  8  1  0
 20 16  1  0
 21 15  2  0
 21  1  1  0
 22 27  1  0
 23 10  2  0
 24 22  2  0
 25 13  1  0
 26 25  1  0
 27 25  2  0
 27 11  1  0
 28  9  2  0
 29 23  1  0
 30  7  1  0
  1 31  1  0
  2 32  1  0
  3 33  1  0
  4 34  1  0
  5 35  1  0
  5 36  1  0
  7 37  1  0
 11 38  1  0
 16 39  1  0
 16 40  1  0
 17 41  1  0
 19 42  1  0
 20 43  1  0
 21 44  1  0
 23 45  1  0
 24 46  1  0
 26 47  1  0
 28 48  1  0
 30 49  1  0
M  CHG  1  16   1
M  END
>  <mol_id>  (71) 
2026-08-24-6tgu-s0-n100-seed1-0074

>  <rmsd_to_ref>  (71) 


$$$$

     RDKit          3D

 32 33  0  0  0  0  0  0  0  0999 V2000
    0.0710   18.5520   46.0110 N   0  0  0  0  0  0  0  0  0  0  0  0
    3.0260   16.8460   39.3310 O   0  0  0  0  0  0  0  0  0  0  0  0
    2.7400   21.4890   35.9750 O   0  0  0  0  0  0  0  0  0  0  0  0
    2.4370   20.6010   38.6110 C   0  0  0  0  0  0  0  0  0  0  0  0
   -0.6870   20.4570   43.8400 N   0  0  0  0  0  0  0  0  0  0  0  0
    2.8190   18.0410   38.9800 C   0  0  0  0  0  0  0  0  0  0  0  0
    3.9200   17.9500   36.8890 O   0  0  0  0  0  0  0  0  0  0  0  0
    0.7830   19.4110   41.7240 N   0  0  0  0  0  0  0  0  0  0  0  0
   -0.7190   18.3710   45.1890 C   0  0  0  0  0  0  0  0  0  0  0  0
    1.9260   20.0910   39.6850 C   0  0  0  0  0  0  0  0  0  0  0  0
   -1.5790   17.6770   45.1050 O   0  0  0  0  0  0  0  0  0  0  0  0
    0.0290   19.2970   42.2620 C   0  0  1  0  0  0  0  0  0  0  0  0
    2.0580   18.7160   39.8070 C   0  0  0  0  0  0  0  0  0  0  0  0
    3.5180   20.5030   36.3590 O   0  0  0  0  0  0  0  0  0  0  0  0
    3.1340   19.9650   37.6190 C   0  0  2  0  0  0  0  0  0  0  0  0
    0.4180   17.9190   42.9300 S   0  0  0  0  0  0  0  0  0  0  0  0
   -0.3870   19.1300   43.7670 C   0  0  1  0  0  0  0  0  0  0  0  0
    1.5220   18.4730   40.8050 C   0  0  0  0  0  0  0  0  0  0  0  0
    3.3510   18.5860   37.7720 C   0  0  0  0  0  0  0  0  0  0  0  0
    0.8002   19.2668   45.8760 H   0  0  0  0  0  0  0  0  0  0  0  0
    0.0467   17.9987   46.8794 H   0  0  0  0  0  0  0  0  0  0  0  0
    2.3755   21.9510   36.7711 H   0  0  0  0  0  0  0  0  0  0  0  0
    2.2930   21.6834   38.4782 H   0  0  0  0  0  0  0  0  0  0  0  0
   -0.7511   20.7406   44.8281 H   0  0  0  0  0  0  0  0  0  0  0  0
    0.0520   21.0022   43.3735 H   0  0  0  0  0  0  0  0  0  0  0  0
   -1.5886   20.6313   43.3735 H   0  0  0  0  0  0  0  0  0  0  0  0
    0.5240   20.1960   41.1095 H   0  0  0  0  0  0  0  0  0  0  0  0
    1.4732   19.3898   42.4883 H   0  0  0  0  0  0  0  0  0  0  0  0
    1.4228   20.7045   40.4468 H   0  0  0  0  0  0  0  0  0  0  0  0
   -0.5843   19.9625   41.6367 H   0  0  0  0  0  0  0  0  0  0  0  0
    3.6784   20.8604   37.9534 H   0  0  0  0  0  0  0  0  0  0  0  0
    1.5572   17.4206   41.1230 H   0  0  0  0  0  0  0  0  0  0  0  0
  3 14  1  0
  4 10  2  0
  6  2  2  0
  6 13  1  0
  7 19  2  0
  9  1  1  0
 10 13  1  0
 11  9  2  0
 12  8  1  0
 12 16  1  0
 12 17  1  0
 13 18  2  3
 15 14  1  0
 15 19  1  0
 15  4  1  0
 16 17  1  0
 17  5  1  1
 17  9  1  0
 18  8  1  0
 19  6  1  0
  1 20  1  0
  1 21  1  0
  3 22  1  0
  4 23  1  0
  5 24  1  0
  5 25  1  0
  5 26  1  0
  8 27  1  0
  8 28  1  0
 10 29  1  0
 12 30  1  6
 15 31  1  1
 18 32  1  0
M  CHG  2   5   1   8   1
M  END
>  <mol_id>  (72) 
2026-08-24-6tgu-s0-n100-seed1-0075

>  <rmsd_to_ref>  (72) 


$$$$

     RDKit          3D

 28 29  0  0  0  0  0  0  0  0999 V2000
    1.5142   19.0882   41.3348 C   0  0  2  0  0  0  0  0  0  0  0  0
    3.6026   20.4124   36.0980 O   0  0  0  0  0  0  0  0  0  0  0  0
   -0.6740   17.7952   43.8544 N   0  0  0  0  0  0  0  0  0  0  0  0
   -0.1152   17.7644   42.5504 C   0  0  0  0  0  0  0  0  0  0  0  0
   -0.7664   19.0559   45.7554 N   0  0  0  0  0  0  0  0  0  0  0  0
    2.1758   18.9825   40.2660 N   0  0  0  0  0  0  0  0  0  0  0  0
   -0.3262   18.7907   44.5892 C   0  0  0  0  0  0  0  0  0  0  0  0
    2.9695   20.5767   37.1943 C   0  0  0  0  0  0  0  0  0  0  0  0
    2.3329   21.5546   37.5307 O   0  0  0  0  0  0  0  0  0  0  0  0
    3.0293   19.8951   39.6307 C   0  0  0  0  0  0  0  0  0  0  0  0
    1.7419   17.9217   39.3807 C   0  0  0  0  0  0  0  0  0  0  0  0
    0.7573   18.7981   42.4062 C   0  0  0  0  0  0  0  0  0  0  0  0
    2.2309   18.1773   37.9504 C   0  0  0  0  0  0  0  0  0  0  0  0
    0.8377   19.6995   43.7818 S   0  0  0  0  0  0  0  0  0  0  0  0
    3.1132   19.4020   38.1750 C   0  0  1  0  0  0  0  0  0  0  0  0
    2.0982   20.5458   41.2186 C   0  0  0  0  0  0  0  0  0  0  0  0
    2.4131   18.7718   41.8842 H   0  0  0  0  0  0  0  0  0  0  0  0
   -0.3511   17.0197   41.7759 H   0  0  0  0  0  0  0  0  0  0  0  0
   -0.4195   19.8836   46.2609 H   0  0  0  0  0  0  0  0  0  0  0  0
   -1.4692   18.4427   46.1924 H   0  0  0  0  0  0  0  0  0  0  0  0
    2.6111   20.9116   39.6726 H   0  0  0  0  0  0  0  0  0  0  0  0
    4.0175   19.9450   40.1112 H   0  0  0  0  0  0  0  0  0  0  0  0
    1.1440   17.0524   39.6917 H   0  0  0  0  0  0  0  0  0  0  0  0
    2.0080   17.6310   37.0221 H   0  0  0  0  0  0  0  0  0  0  0  0
    4.1175   19.0120   37.9532 H   0  0  0  0  0  0  0  0  0  0  0  0
    2.4734   20.8698   42.2006 H   0  0  0  0  0  0  0  0  0  0  0  0
    2.9225   20.5535   40.4903 H   0  0  0  0  0  0  0  0  0  0  0  0
    1.3066   21.2323   40.8839 H   0  0  0  0  0  0  0  0  0  0  0  0
  1 16  1  0
  1 12  1  0
  2  8  2  0
  3  7  2  0
  4  3  1  0
  6  1  1  0
  7  5  1  0
  8  9  1  0
 10  6  1  0
 11  6  1  0
 12  4  2  0
 12 14  1  0
 13 15  1  0
 13 11  2  0
 14  7  1  0
 15  8  1  0
 15 10  1  0
  1 17  1  1
  4 18  1  0
  5 19  1  0
  5 20  1  0
 10 21  1  0
 10 22  1  0
 11 23  1  0
 13 24  1  0
 15 25  1  1
 16 26  1  0
 16 27  1  0
 16 28  1  0
M  CHG  1   9  -1
M  END
>  <mol_id>  (73) 
2026-08-24-6tgu-s0-n100-seed1-0076

>  <rmsd_to_ref>  (73) 


$$$$

     RDKit          3D

 48 51  0  0  0  0  0  0  0  0999 V2000
    2.1948   15.0744   41.2147 C   0  0  0  0  0  0  0  0  0  0  0  0
   -0.2970   21.6408   43.5980 O   0  0  0  0  0  0  0  0  0  0  0  0
    2.6872   19.6121   37.5994 C   0  0  0  0  0  0  0  0  0  0  0  0
    1.8036   19.4598   41.0613 C   0  0  0  0  0  0  0  0  0  0  0  0
    0.0550   20.5468   43.2327 C   0  0  0  0  0  0  0  0  0  0  0  0
    3.3141   13.1642   37.7537 O   0  0  0  0  0  0  0  0  0  0  0  0
    2.6907   19.1760   38.7723 N   0  0  0  0  0  0  0  0  0  0  0  0
    2.2962   19.9740   39.9263 C   0  0  0  0  0  0  0  0  0  0  0  0
    2.2918   13.7153   41.2507 C   0  0  0  0  0  0  0  0  0  0  0  0
    2.5288   15.8360   40.0311 C   0  0  0  0  0  0  0  0  0  0  0  0
    2.9381   13.7266   38.9251 C   0  0  0  0  0  0  0  0  0  0  0  0
    2.8216   17.7660   38.7338 C   0  0  0  0  0  0  0  0  0  0  0  0
    0.9799   16.6410   42.6350 N   0  0  0  0  0  0  0  0  0  0  0  0
    2.5140   21.4651   36.3483 O   0  0  0  0  0  0  0  0  0  0  0  0
    3.0367   16.9807   37.5777 C   0  0  0  0  0  0  0  0  0  0  0  0
    1.2891   21.7454   41.6573 C   0  0  0  0  0  0  0  0  0  0  0  0
    3.1591   15.6674   37.6930 N   0  0  0  0  0  0  0  0  0  0  0  0
    1.0064   20.3751   41.9723 C   0  0  0  0  0  0  0  0  0  0  0  0
    1.6369   15.7671   42.1837 N   0  0  0  0  0  0  0  0  0  0  0  0
    3.2288   20.3082   36.5677 C   0  0  0  0  0  0  0  0  0  0  0  0
    4.2702   20.7902   34.5926 O   0  0  0  0  0  0  0  0  0  0  0  0
   -0.4817   19.4299   44.0276 N   0  0  0  0  0  0  0  0  0  0  0  0
    4.2245   19.9361   35.7141 N   0  0  0  0  0  0  0  0  0  0  0  0
    1.6949   22.1646   40.5319 N   0  0  0  0  0  0  0  0  0  0  0  0
    2.6794   12.9766   40.0657 C   0  0  0  0  0  0  0  0  0  0  0  0
    2.8564   15.1200   38.9152 C   0  0  0  0  0  0  0  0  0  0  0  0
   -0.6946   16.9963   44.5349 C   0  0  0  0  0  0  0  0  0  0  0  0
    2.6059   17.1806   39.9816 N   0  0  0  0  0  0  0  0  0  0  0  0
    0.7328   17.9572   42.8799 N   0  0  0  0  0  0  0  0  0  0  0  0
    2.1982   21.3241   39.6478 C   0  0  0  0  0  0  0  0  0  0  0  0
   -0.1689   18.1821   43.8354 C   0  0  0  0  0  0  0  0  0  0  0  0
    2.5681   18.6484   37.0826 H   0  0  0  0  0  0  0  0  0  0  0  0
    2.2951   20.5626   37.9902 H   0  0  0  0  0  0  0  0  0  0  0  0
    1.9720   18.4053   41.3251 H   0  0  0  0  0  0  0  0  0  0  0  0
    3.3953   12.1802   37.6805 H   0  0  0  0  0  0  0  0  0  0  0  0
    2.0746   13.1761   42.1846 H   0  0  0  0  0  0  0  0  0  0  0  0
    0.1811   16.1540   43.0659 H   0  0  0  0  0  0  0  0  0  0  0  0
    3.1019   17.4579   36.5887 H   0  0  0  0  0  0  0  0  0  0  0  0
    1.1425   22.4900   42.4536 H   0  0  0  0  0  0  0  0  0  0  0  0
    1.9482   15.2634   43.0264 H   0  0  0  0  0  0  0  0  0  0  0  0
    4.4267   21.7206   34.8926 H   0  0  0  0  0  0  0  0  0  0  0  0
    4.8580   19.1386   35.8675 H   0  0  0  0  0  0  0  0  0  0  0  0
    2.7642   11.8799   40.0691 H   0  0  0  0  0  0  0  0  0  0  0  0
   -0.5662   17.1238   45.6199 H   0  0  0  0  0  0  0  0  0  0  0  0
   -1.7634   16.8779   44.3035 H   0  0  0  0  0  0  0  0  0  0  0  0
   -0.1464   16.1021   44.2034 H   0  0  0  0  0  0  0  0  0  0  0  0
    1.2041   18.7170   42.3686 H   0  0  0  0  0  0  0  0  0  0  0  0
    2.5447   21.7036   38.6752 H   0  0  0  0  0  0  0  0  0  0  0  0
  1  9  2  0
  1 19  1  0
  3  7  1  0
  4 18  2  0
  5  2  2  0
  5 22  1  0
  6 11  1  0
  7  8  1  0
  8  4  1  0
 10  1  1  0
 11 26  1  0
 11 25  2  0
 12  7  1  0
 12 28  2  0
 13 29  1  0
 14 20  2  0
 15 17  2  0
 15 12  1  0
 16 18  1  0
 17 26  1  0
 18  5  1  0
 19 13  1  0
 20  3  1  0
 21 23  1  0
 23 20  1  0
 24 16  2  0
 25  9  1  0
 26 10  2  0
 28 10  1  0
 29 31  1  0
 30  8  2  0
 30 24  1  0
 31 22  2  0
 31 27  1  0
  3 32  1  0
  3 33  1  0
  4 34  1  0
  6 35  1  0
  9 36  1  0
 13 37  1  0
 15 38  1  0
 16 39  1  0
 19 40  1  0
 21 41  1  0
 23 42  1  0
 25 43  1  0
 27 44  1  0
 27 45  1  0
 27 46  1  0
 29 47  1  0
 30 48  1  0
M  END
>  <mol_id>  (74) 
2026-08-24-6tgu-s0-n100-seed1-0077

>  <rmsd_to_ref>  (74) 


$$$$

     RDKit          3D

 37 42  0  0  0  0  0  0  0  0999 V2000
    2.7660   18.5620   38.5660 C   0  0  0  0  0  0  0  0  0  0  0  0
    0.5810   20.5320   41.8640 C   0  0  0  0  0  0  0  0  0  0  0  0
    0.7180   19.1770   42.0630 C   0  0  0  0  0  0  0  0  0  0  0  0
    1.2070   20.9270   40.7730 O   0  0  0  0  0  0  0  0  0  0  0  0
    0.2120   17.1430   43.2700 C   0  0  0  0  0  0  0  0  0  0  0  0
    3.7940   16.8640   37.4220 C   0  0  0  0  0  0  0  0  0  0  0  0
    3.6690   20.7590   36.0290 O   0  0  0  0  0  0  0  0  0  0  0  0
    3.3060   18.8360   37.3470 C   0  0  0  0  0  0  0  0  0  0  0  0
    2.3070   20.6820   38.0660 C   0  0  0  0  0  0  0  0  0  0  0  0
   -0.9690   20.6590   43.7360 N   0  0  0  0  0  0  0  0  0  0  0  0
    0.9700   14.8310   42.8450 C   0  0  0  0  0  0  0  0  0  0  0  0
    3.0930   17.1310   38.6360 C   0  0  0  0  0  0  0  0  0  0  0  0
    0.9190   16.2000   42.5330 C   0  0  0  0  0  0  0  0  0  0  0  0
    0.1760   14.3570   43.9280 C   0  0  0  0  0  0  0  0  0  0  0  0
   -0.5780   15.3040   44.5920 C   0  0  0  0  0  0  0  0  0  0  0  0
   -0.5640   16.5900   44.3770 C   0  0  0  0  0  0  0  0  0  0  0  0
   -0.6330   19.2900   43.9230 C   0  0  0  0  0  0  0  0  0  0  0  0
    1.6040   18.7880   41.0360 C   0  0  0  0  0  0  0  0  0  0  0  0
    1.7790   19.8090   40.2550 C   0  0  0  0  0  0  0  0  0  0  0  0
    1.7360   16.4510   41.3310 N   0  0  0  0  0  0  0  0  0  0  0  0
    3.9810   17.8930   36.7080 N   0  0  0  0  0  0  0  0  0  0  0  0
   -0.3150   21.2510   42.6990 C   0  0  0  0  0  0  0  0  0  0  0  0
    0.1190   18.5160   43.0480 C   0  0  0  0  0  0  0  0  0  0  0  0
    1.9950   17.5860   40.8550 N   0  0  0  0  0  0  0  0  0  0  0  0
    2.2460   19.6850   39.0500 N   0  0  0  0  0  0  0  0  0  0  0  0
    3.1120   20.2160   37.0010 C   0  0  0  0  0  0  0  0  0  0  0  0
    4.1390   15.8600   37.1339 H   0  0  0  0  0  0  0  0  0  0  0  0
    1.2942   20.9007   37.6968 H   0  0  0  0  0  0  0  0  0  0  0  0
    2.7384   21.6014   38.4887 H   0  0  0  0  0  0  0  0  0  0  0  0
    1.6063   14.1437   42.2681 H   0  0  0  0  0  0  0  0  0  0  0  0
    3.7305   16.9202   39.5073 H   0  0  0  0  0  0  0  0  0  0  0  0
    2.1972   16.5026   38.7482 H   0  0  0  0  0  0  0  0  0  0  0  0
    0.1641   13.2963   44.2191 H   0  0  0  0  0  0  0  0  0  0  0  0
   -1.2555   14.9386   45.3778 H   0  0  0  0  0  0  0  0  0  0  0  0
   -1.1389   17.2612   45.0320 H   0  0  0  0  0  0  0  0  0  0  0  0
   -0.9997   18.8023   44.8383 H   0  0  0  0  0  0  0  0  0  0  0  0
   -0.4859   22.3196   42.5017 H   0  0  0  0  0  0  0  0  0  0  0  0
  1 12  1  0
  1 25  1  0
  2  3  1  0
  2 22  2  0
  3 23  2  0
  4  2  1  0
  5 16  2  0
  6 12  1  0
  7 26  2  0
  8  1  2  0
  9 25  1  0
 10 17  2  0
 11 14  1  0
 13 11  2  0
 13  5  1  0
 14 15  2  0
 16 15  1  0
 18  3  1  0
 19  4  1  0
 19 18  2  0
 20 13  1  0
 21  8  1  0
 21  6  2  0
 22 10  1  0
 23  5  1  0
 23 17  1  0
 24 18  1  0
 24 20  2  0
 25 19  1  0
 26  8  1  0
 26  9  1  0
  6 27  1  0
  9 28  1  0
  9 29  1  0
 11 30  1  0
 12 31  1  0
 12 32  1  0
 14 33  1  0
 15 34  1  0
 16 35  1  0
 17 36  1  0
 22 37  1  0
M  END
>  <mol_id>  (75) 
2026-08-24-6tgu-s0-n100-seed1-0078

>  <rmsd_to_ref>  (75) 


$$$$

     RDKit          3D

 39 40  0  0  0  0  0  0  0  0999 V2000
    0.5482   17.0188   43.2890 C   0  0  0  0  0  0  0  0  0  0  0  0
    5.0159   15.6071   36.4452 O   0  0  0  0  0  0  0  0  0  0  0  0
    1.5870   18.6909   41.2787 C   0  0  0  0  0  0  0  0  0  0  0  0
   -0.4585   21.2959   41.8284 C   0  0  0  0  0  0  0  0  0  0  0  0
    1.7307   17.3198   41.1825 C   0  0  0  0  0  0  0  0  0  0  0  0
    0.6675   20.6442   42.3339 O   0  0  0  0  0  0  0  0  0  0  0  0
   -0.6474   16.8337   45.3436 C   0  0  0  0  0  0  0  0  0  0  0  0
    4.1512   19.5129   38.0401 C   0  0  0  0  0  0  0  0  0  0  0  0
    4.1554   15.7989   37.4381 C   0  0  0  0  0  0  0  0  0  0  0  0
    3.8516   20.5532   35.9737 O   0  0  0  0  0  0  0  0  0  0  0  0
    1.1860   16.4723   42.2372 C   0  0  0  0  0  0  0  0  0  0  0  0
   -0.6708   18.1695   45.5614 N   0  0  0  0  0  0  0  0  0  0  0  0
    3.1451   17.4826   38.8345 C   0  0  0  0  0  0  0  0  0  0  0  0
    3.7041   17.0775   37.6463 C   0  0  0  0  0  0  0  0  0  0  0  0
    3.5395   14.8725   37.9959 O   0  0  0  0  0  0  0  0  0  0  0  0
    0.8457   19.2000   42.3497 C   0  0  0  0  0  0  0  0  0  0  0  0
   -0.1200   20.2425   44.8589 O   0  0  0  0  0  0  0  0  0  0  0  0
    3.4601   20.4531   37.1962 C   0  0  0  0  0  0  0  0  0  0  0  0
    0.4639   18.4833   43.4043 C   0  0  0  0  0  0  0  0  0  0  0  0
   -0.1274   19.0486   44.6456 C   0  0  0  0  0  0  0  0  0  0  0  0
    3.0726   18.9173   38.8976 N   0  0  0  0  0  0  0  0  0  0  0  0
    2.5237   16.6981   40.0285 C   0  0  0  0  0  0  0  0  0  0  0  0
    2.4474   21.1516   37.6504 O   0  0  0  0  0  0  0  0  0  0  0  0
   -0.0482   16.2497   44.2227 C   0  0  0  0  0  0  0  0  0  0  0  0
    2.0421   19.3617   40.5351 H   0  0  0  0  0  0  0  0  0  0  0  0
   -1.0762   21.6609   42.6622 H   0  0  0  0  0  0  0  0  0  0  0  0
   -0.1418   22.1465   41.2069 H   0  0  0  0  0  0  0  0  0  0  0  0
   -1.0451   20.5939   41.2175 H   0  0  0  0  0  0  0  0  0  0  0  0
   -1.1232   16.1749   46.0848 H   0  0  0  0  0  0  0  0  0  0  0  0
    4.9025   20.0248   38.6593 H   0  0  0  0  0  0  0  0  0  0  0  0
    4.6951   18.7515   37.4617 H   0  0  0  0  0  0  0  0  0  0  0  0
    1.2971   15.3799   42.1726 H   0  0  0  0  0  0  0  0  0  0  0  0
   -1.1002   18.5357   46.4230 H   0  0  0  0  0  0  0  0  0  0  0  0
    4.5677   17.7370   37.4754 H   0  0  0  0  0  0  0  0  0  0  0  0
    2.8409   17.1234   36.9661 H   0  0  0  0  0  0  0  0  0  0  0  0
    3.2005   19.2247   39.8723 H   0  0  0  0  0  0  0  0  0  0  0  0
    2.1522   19.2292   38.5562 H   0  0  0  0  0  0  0  0  0  0  0  0
    2.6660   15.6075   40.0442 H   0  0  0  0  0  0  0  0  0  0  0  0
   -0.0635   15.1565   44.1021 H   0  0  0  0  0  0  0  0  0  0  0  0
  1 19  1  0
  1 24  1  0
  2  9  2  0
  3 16  1  0
  4  6  1  0
  5  3  2  0
  5 11  1  0
  6 16  1  0
  7 12  1  0
  8 21  1  0
  9 14  1  0
  9 15  1  0
 10 18  2  0
 11  1  2  0
 13 21  1  0
 13 22  2  3
 14 13  1  0
 16 19  2  0
 18 23  1  0
 18  8  1  0
 19 20  1  0
 20 17  2  0
 20 12  1  0
 22  5  1  0
 24  7  2  0
  3 25  1  0
  4 26  1  0
  4 27  1  0
  4 28  1  0
  7 29  1  0
  8 30  1  0
  8 31  1  0
 11 32  1  0
 12 33  1  0
 14 34  1  0
 14 35  1  0
 21 36  1  0
 21 37  1  0
 22 38  1  0
 24 39  1  0
M  CHG  3  15  -1  21   1  23  -1
M  END
>  <mol_id>  (76) 
2026-08-24-6tgu-s0-n100-seed1-0080

>  <rmsd_to_ref>  (76) 


$$$$

     RDKit          3D

 41 45  0  0  0  0  0  0  0  0999 V2000
    1.2989   21.4866   41.1243 O   0  0  0  0  0  0  0  0  0  0  0  0
   -0.6195   19.4096   44.6366 N   0  0  0  0  0  0  0  0  0  0  0  0
    1.8592   20.3947   40.9142 C   0  0  0  0  0  0  0  0  0  0  0  0
    1.4355   19.0588   41.4821 C   0  0  0  0  0  0  0  0  0  0  0  0
    0.6035   15.1941   42.5769 C   0  0  0  0  0  0  0  0  0  0  0  0
    2.5963   13.3783   40.1466 C   0  0  0  0  0  0  0  0  0  0  0  0
   -0.7119   18.1284   44.9415 C   0  0  0  0  0  0  0  0  0  0  0  0
    2.7060   14.6791   39.8729 N   0  0  0  0  0  0  0  0  0  0  0  0
    0.2921   21.1401   43.4028 N   0  0  0  0  0  0  0  0  0  0  0  0
    0.6505   18.8391   42.7358 C   0  0  0  0  0  0  0  0  0  0  0  0
    4.1679   20.9959   35.8541 C   0  0  0  0  0  0  0  0  0  0  0  0
    3.8085   21.9429   35.3943 O   0  0  0  0  0  0  0  0  0  0  0  0
    0.1027   19.8315   43.5481 C   0  0  0  0  0  0  0  0  0  0  0  0
    1.6104   13.1553   41.1550 C   0  0  0  0  0  0  0  0  0  0  0  0
    0.3949   17.5422   43.0562 C   0  0  0  0  0  0  0  0  0  0  0  0
    3.9606   19.0989   37.3232 N   0  0  0  0  0  0  0  0  0  0  0  0
   -0.2845   17.1704   44.1177 C   0  0  0  0  0  0  0  0  0  0  0  0
    3.0562   20.9824   37.9681 C   0  0  0  0  0  0  0  0  0  0  0  0
    2.0003   15.3616   40.8328 C   0  0  0  0  0  0  0  0  0  0  0  0
    3.0221   20.4147   40.2621 N   0  0  0  0  0  0  0  0  0  0  0  0
    2.9848   20.0470   38.9580 C   0  0  0  0  0  0  0  0  0  0  0  0
    1.5908   16.6497   41.2312 C   0  0  0  0  0  0  0  0  0  0  0  0
   -1.4692   17.7151   46.1859 N   0  0  0  0  0  0  0  0  0  0  0  0
    0.8614   16.4804   42.3579 C   0  0  0  0  0  0  0  0  0  0  0  0
    1.8039   17.9257   40.8214 C   0  0  0  0  0  0  0  0  0  0  0  0
    1.2497   14.4412   41.6348 C   0  0  0  0  0  0  0  0  0  0  0  0
    3.4687   18.8757   38.5049 C   0  0  0  0  0  0  0  0  0  0  0  0
    3.6953   20.4388   36.9954 N   0  0  0  0  0  0  0  0  0  0  0  0
   -0.0284   14.7988   43.3860 H   0  0  0  0  0  0  0  0  0  0  0  0
    3.1849   12.5857   39.6616 H   0  0  0  0  0  0  0  0  0  0  0  0
   -0.1554   21.8008   44.0541 H   0  0  0  0  0  0  0  0  0  0  0  0
    0.8863   21.4928   42.6390 H   0  0  0  0  0  0  0  0  0  0  0  0
    4.9794   20.4641   35.3360 H   0  0  0  0  0  0  0  0  0  0  0  0
    1.2124   12.1864   41.4909 H   0  0  0  0  0  0  0  0  0  0  0  0
   -0.4929   16.1093   44.3194 H   0  0  0  0  0  0  0  0  0  0  0  0
    2.6466   22.0029   37.9969 H   0  0  0  0  0  0  0  0  0  0  0  0
    3.8996   20.6938   40.7236 H   0  0  0  0  0  0  0  0  0  0  0  0
   -1.5478   16.7184   46.4338 H   0  0  0  0  0  0  0  0  0  0  0  0
   -1.9057   18.4305   46.7846 H   0  0  0  0  0  0  0  0  0  0  0  0
    2.3250   18.0580   39.8618 H   0  0  0  0  0  0  0  0  0  0  0  0
    3.4510   17.9118   39.0348 H   0  0  0  0  0  0  0  0  0  0  0  0
  2  7  2  0
  3  1  2  0
  3  4  1  0
  4 10  1  0
  6 14  2  0
  7 23  1  0
  8  6  1  0
  8 19  2  0
  9 13  1  0
 10 15  1  0
 10 13  2  0
 11 28  1  0
 12 11  2  0
 13  2  1  0
 14 26  1  0
 15 17  2  0
 16 27  2  0
 17  7  1  0
 18 21  2  0
 19 22  1  0
 19 26  1  0
 20  3  1  0
 21 20  1  0
 22 24  2  0
 24  5  1  0
 24 15  1  0
 25  4  2  0
 25 22  1  0
 26  5  2  0
 27 21  1  0
 28 16  1  0
 28 18  1  0
  5 29  1  0
  6 30  1  0
  9 31  1  0
  9 32  1  0
 11 33  1  0
 14 34  1  0
 17 35  1  0
 18 36  1  0
 20 37  1  0
 23 38  1  0
 23 39  1  0
 25 40  1  0
 27 41  1  0
M  END
>  <mol_id>  (77) 
2026-08-24-6tgu-s0-n100-seed1-0081

>  <rmsd_to_ref>  (77) 


$$$$

     RDKit          3D

108112  0  0  0  0  0  0  0  0999 V2000
    1.1881   19.6344   44.8933 O   0  0  0  0  0  0  0  0  0  0  0  0
    5.8056   13.8083   35.3579 C   0  0  0  0  0  0  0  0  0  0  0  0
    2.6424   12.6352   34.8943 C   0  0  0  0  0  0  0  0  0  0  0  0
    2.5203   18.7358   37.7136 C   0  0  2  0  0  0  0  0  0  0  0  0
    0.7216   16.0685   48.5793 C   0  0  0  0  0  0  0  0  0  0  0  0
    2.3719   20.2092   38.1119 C   0  0  1  0  0  0  0  0  0  0  0  0
    1.9853   21.2328   37.0500 O   0  0  0  0  0  0  0  0  0  0  0  0
    3.0906   12.2880   38.7384 C   0  0  0  0  0  0  0  0  0  0  0  0
   -0.6225   15.8619   48.7764 C   0  0  0  0  0  0  0  0  0  0  0  0
   -1.4955   17.1509   46.7791 C   0  0  0  0  0  0  0  0  0  0  0  0
    0.8377   17.4923   46.7232 C   0  0  0  0  0  0  0  0  0  0  0  0
   -1.2826   20.7581   43.0900 O   0  0  0  0  0  0  0  0  0  0  0  0
   -0.5792   18.4624   44.8971 C   0  0  0  0  0  0  0  0  0  0  0  0
    3.3691   13.7784   35.3134 C   0  0  2  0  0  0  0  0  0  0  0  0
   -1.5065   16.3567   47.9210 C   0  0  0  0  0  0  0  0  0  0  0  0
   -5.5380   22.1267   42.7607 C   0  0  0  0  0  0  0  0  0  0  0  0
   -6.7787   22.7039   43.3815 C   0  0  0  0  0  0  0  0  0  0  0  0
    4.5727   14.2221   34.5377 C   0  0  2  0  0  0  0  0  0  0  0  0
   -3.7183   22.8590   44.0613 C   0  0  1  0  0  0  0  0  0  0  0  0
    6.7827   14.1268   33.3104 O   0  0  0  0  0  0  0  0  0  0  0  0
    2.4696   14.3024   40.3449 C   0  0  0  0  0  0  0  0  0  0  0  0
    1.4441   20.3592   39.1665 C   0  0  2  0  0  0  0  0  0  0  0  0
    3.3510   13.4924   39.4359 O   0  0  0  0  0  0  0  0  0  0  0  0
   -4.6693   23.7851   44.5576 C   0  0  2  0  0  0  0  0  0  0  0  0
   -3.7945   24.9207   45.0504 C   0  0  0  0  0  0  0  0  0  0  0  0
    1.4356   15.8029   41.6098 C   0  0  0  0  0  0  0  0  0  0  0  0
    0.5753   20.2853   41.6491 C   0  0  1  0  0  0  0  0  0  0  0  0
    2.7667   21.3267   36.0988 C   0  0  0  0  0  0  0  0  0  0  0  0
    2.2371   13.6017   41.4617 N   0  0  0  0  0  0  0  0  0  0  0  0
    3.6415   12.3206   37.3516 C   0  0  0  0  0  0  0  0  0  0  0  0
    5.5056   13.4647   33.8416 C   0  0  1  0  0  0  0  0  0  0  0  0
    2.1850   16.6892   39.1774 C   0  0  0  0  0  0  0  0  0  0  0  0
    2.7207   14.8251   37.2311 C   0  0  0  0  0  0  0  0  0  0  0  0
   -0.3948   17.6990   46.1999 C   0  0  0  0  0  0  0  0  0  0  0  0
    1.5474   14.4887   42.1994 C   0  0  0  0  0  0  0  0  0  0  0  0
    1.0824   18.8727   41.2594 C   0  0  0  0  0  0  0  0  0  0  0  0
   -4.4610   21.7352   43.6423 C   0  0  0  0  0  0  0  0  0  0  0  0
    1.3358   16.8894   47.7069 C   0  0  0  0  0  0  0  0  0  0  0  0
    0.0255   20.9516   39.2070 C   0  0  0  0  0  0  0  0  0  0  0  0
   -0.3767   20.6837   40.6260 O   0  0  0  0  0  0  0  0  0  0  0  0
   -7.1665   23.8804   43.1317 O   0  0  0  0  0  0  0  0  0  0  0  0
    2.1648   21.5733   39.5893 F   0  0  0  0  0  0  0  0  0  0  0  0
    0.0728   20.3647   43.1000 C   0  0  2  0  0  0  0  0  0  0  0  0
    1.8985   18.3805   36.5674 F   0  0  0  0  0  0  0  0  0  0  0  0
   -7.4973   21.8751   43.9877 O   0  0  0  0  0  0  0  0  0  0  0  0
   -2.8294   23.3305   43.3490 F   0  0  0  0  0  0  0  0  0  0  0  0
    1.9478   15.6863   40.3014 C   0  0  1  0  0  0  0  0  0  0  0  0
    3.6231   13.6850   36.7390 C   0  0  2  0  0  0  0  0  0  0  0  0
    1.9701   18.0777   38.9819 C   0  0  0  0  0  0  0  0  0  0  0  0
    2.9546   16.1238   38.0352 C   0  0  0  0  0  0  0  0  0  0  0  0
    3.5618   21.5736   35.5081 O   0  0  0  0  0  0  0  0  0  0  0  0
    3.7197   20.4315   38.9132 F   0  0  0  0  0  0  0  0  0  0  0  0
    3.1427   20.5014   35.2513 O   0  0  0  0  0  0  0  0  0  0  0  0
   -5.2507   23.1648   45.6082 O   0  0  0  0  0  0  0  0  0  0  0  0
    1.3579   18.9369   39.8290 C   0  0  2  0  0  0  0  0  0  0  0  0
    4.3770   21.1610   38.1626 F   0  0  0  0  0  0  0  0  0  0  0  0
    0.2396   19.3649   44.3173 C   0  0  0  0  0  0  0  0  0  0  0  0
    6.5782   14.5415   35.6328 H   0  0  0  0  0  0  0  0  0  0  0  0
    6.0230   13.2680   36.2910 H   0  0  0  0  0  0  0  0  0  0  0  0
    2.4120   12.0068   35.7673 H   0  0  0  0  0  0  0  0  0  0  0  0
    1.7054   12.9525   34.4132 H   0  0  0  0  0  0  0  0  0  0  0  0
    3.2460   12.0595   34.1772 H   0  0  0  0  0  0  0  0  0  0  0  0
    3.5442   18.4361   37.4453 H   0  0  0  0  0  0  0  0  0  0  0  0
    1.3899   15.4804   49.2255 H   0  0  0  0  0  0  0  0  0  0  0  0
    3.4126   20.4437   38.3800 H   0  0  0  0  0  0  0  0  0  0  0  0
    3.5523   11.4527   39.2854 H   0  0  0  0  0  0  0  0  0  0  0  0
    2.0001   12.1612   38.6703 H   0  0  0  0  0  0  0  0  0  0  0  0
   -0.7758   14.7727   48.7951 H   0  0  0  0  0  0  0  0  0  0  0  0
   -0.8288   16.4209   49.7010 H   0  0  0  0  0  0  0  0  0  0  0  0
   -2.4655   17.3539   46.3016 H   0  0  0  0  0  0  0  0  0  0  0  0
    1.6149   17.9878   46.1229 H   0  0  0  0  0  0  0  0  0  0  0  0
   -1.6156   20.8184   44.0204 H   0  0  0  0  0  0  0  0  0  0  0  0
   -0.7037   17.6780   44.1361 H   0  0  0  0  0  0  0  0  0  0  0  0
   -1.3618   19.1578   45.2346 H   0  0  0  0  0  0  0  0  0  0  0  0
    2.6941   14.6115   35.0677 H   0  0  0  0  0  0  0  0  0  0  0  0
   -2.5306   16.0565   48.1878 H   0  0  0  0  0  0  0  0  0  0  0  0
   -5.8399   21.2330   42.1950 H   0  0  0  0  0  0  0  0  0  0  0  0
   -5.1200   22.9496   42.1622 H   0  0  0  0  0  0  0  0  0  0  0  0
    4.0491   15.0892   34.1086 H   0  0  0  0  0  0  0  0  0  0  0  0
   -3.0176   22.5071   44.8328 H   0  0  0  0  0  0  0  0  0  0  0  0
    7.3936   14.3187   34.0654 H   0  0  0  0  0  0  0  0  0  0  0  0
   -5.4389   24.1269   43.8499 H   0  0  0  0  0  0  0  0  0  0  0  0
   -3.6725   24.8430   46.1408 H   0  0  0  0  0  0  0  0  0  0  0  0
   -2.8087   24.8610   44.5659 H   0  0  0  0  0  0  0  0  0  0  0  0
   -4.2674   25.8823   44.8020 H   0  0  0  0  0  0  0  0  0  0  0  0
    1.0330   16.7096   42.0849 H   0  0  0  0  0  0  0  0  0  0  0  0
    1.3955   21.0182   41.6638 H   0  0  0  0  0  0  0  0  0  0  0  0
    2.1730   21.9867   36.7484 H   0  0  0  0  0  0  0  0  0  0  0  0
    4.6821   11.9652   37.3810 H   0  0  0  0  0  0  0  0  0  0  0  0
    3.0006   11.6768   36.7315 H   0  0  0  0  0  0  0  0  0  0  0  0
    5.2747   12.6777   33.1086 H   0  0  0  0  0  0  0  0  0  0  0  0
    1.9649   14.2978   37.8316 H   0  0  0  0  0  0  0  0  0  0  0  0
    2.6525   15.3254   36.2538 H   0  0  0  0  0  0  0  0  0  0  0  0
    1.1039   14.2346   43.1734 H   0  0  0  0  0  0  0  0  0  0  0  0
    1.9983   18.6262   41.8164 H   0  0  0  0  0  0  0  0  0  0  0  0
    0.3425   18.0942   41.4973 H   0  0  0  0  0  0  0  0  0  0  0  0
   -4.8830   21.2331   44.5254 H   0  0  0  0  0  0  0  0  0  0  0  0
   -3.7904   21.0549   43.0967 H   0  0  0  0  0  0  0  0  0  0  0  0
    2.4102   17.0533   47.8766 H   0  0  0  0  0  0  0  0  0  0  0  0
    0.0353   22.0299   38.9900 H   0  0  0  0  0  0  0  0  0  0  0  0
   -0.6588   20.5217   38.4607 H   0  0  0  0  0  0  0  0  0  0  0  0
    0.9153   21.0094   43.3909 H   0  0  0  0  0  0  0  0  0  0  0  0
    1.4617   16.3402   39.5624 H   0  0  0  0  0  0  0  0  0  0  0  0
    4.6567   13.8296   37.0864 H   0  0  0  0  0  0  0  0  0  0  0  0
    3.9777   16.0184   38.4254 H   0  0  0  0  0  0  0  0  0  0  0  0
    2.6199   16.8354   37.2659 H   0  0  0  0  0  0  0  0  0  0  0  0
   -4.7718   23.4063   46.4404 H   0  0  0  0  0  0  0  0  0  0  0  0
    0.4738   18.3090   40.0143 H   0  0  0  0  0  0  0  0  0  0  0  0
  4 44  1  0
  4  6  1  0
  4 49  1  0
  5  9  1  0
  6  7  1  0
  6 22  1  0
  8 23  1  0
 10 15  2  0
 11 38  1  0
 13 34  1  0
 14  3  1  0
 15  9  1  0
 16 17  1  0
 16 37  1  0
 17 45  1  0
 18 14  1  0
 18  2  1  0
 19 46  1  0
 19 24  1  0
 21 29  2  0
 22 42  1  1
 22 55  1  0
 23 21  1  0
 24 25  1  0
 24 54  1  0
 26 35  2  0
 27 43  1  0
 28  7  1  0
 29 35  1  0
 30  8  1  0
 31 20  1  0
 31 18  1  0
 31  2  1  0
 32 47  1  0
 33 50  1  0
 34 10  1  0
 34 11  2  0
 36 27  1  0
 37 19  1  0
 38  5  2  0
 39 22  1  0
 39 40  1  0
 40 27  1  0
 41 17  2  0
 43 12  1  0
 43 57  1  0
 47 21  1  0
 47 26  1  0
 48 14  1  0
 48 33  1  0
 48 30  1  0
 49 32  2  3
 49 55  1  0
 50 32  1  0
 51 28  1  0
 53 51  1  0
 53 28  1  0
 55 36  1  0
 56 52  1  0
 57 13  1  0
 57  1  2  0
  2 58  1  0
  2 59  1  0
  3 60  1  0
  3 61  1  0
  3 62  1  0
  4 63  1  6
  5 64  1  0
  6 65  1  1
  8 66  1  0
  8 67  1  0
  9 68  1  0
  9 69  1  0
 10 70  1  0
 11 71  1  0
 12 72  1  0
 13 73  1  0
 13 74  1  0
 14 75  1  1
 15 76  1  0
 16 77  1  0
 16 78  1  0
 18 79  1  6
 19 80  1  1
 20 81  1  0
 24 82  1  6
 25 83  1  0
 25 84  1  0
 25 85  1  0
 26 86  1  0
 27 87  1  1
 28 88  1  0
 30 89  1  0
 30 90  1  0
 31 91  1  1
 33 92  1  0
 33 93  1  0
 35 94  1  0
 36 95  1  0
 36 96  1  0
 37 97  1  0
 37 98  1  0
 38 99  1  0
 39100  1  0
 39101  1  0
 43102  1  1
 47103  1  6
 48104  1  6
 50105  1  0
 50106  1  0
 54107  1  0
 55108  1  6
M  CHG  1  45  -1
M  END
>  <mol_id>  (78) 
2026-08-24-6tgu-s0-n100-seed1-0082

>  <rmsd_to_ref>  (78) 


$$$$

     RDKit          3D

 29 30  0  0  0  0  0  0  0  0999 V2000
    2.0460   20.3840   39.4830 C   0  0  0  0  0  0  0  0  0  0  0  0
    1.8690   19.1110   39.9500 C   0  0  0  0  0  0  0  0  0  0  0  0
    1.9070   16.2230   41.4280 O   0  0  0  0  0  0  0  0  0  0  0  0
    1.2970   21.3230   40.3900 O   0  0  0  0  0  0  0  0  0  0  0  0
    0.1600   17.0080   42.6460 C   0  0  0  0  0  0  0  0  0  0  0  0
    0.9030   15.9320   42.1890 C   0  0  0  0  0  0  0  0  0  0  0  0
    2.9900   19.8100   37.4590 C   0  0  0  0  0  0  0  0  0  0  0  0
    0.8070   20.5100   41.4590 C   0  0  0  0  0  0  0  0  0  0  0  0
    0.5410   18.2870   42.2070 C   0  0  0  0  0  0  0  0  0  0  0  0
    3.1650   18.5090   37.8480 C   0  0  0  0  0  0  0  0  0  0  0  0
    0.4110   21.2900   42.5330 C   0  0  0  0  0  0  0  0  0  0  0  0
    2.5160   18.0550   39.1300 C   0  0  0  0  0  0  0  0  0  0  0  0
   -0.7460   16.8660   43.7680 N   0  0  0  0  0  0  0  0  0  0  0  0
    1.1810   19.1380   41.2180 C   0  0  0  0  0  0  0  0  0  0  0  0
    2.4750   20.8110   38.2470 C   0  0  0  0  0  0  0  0  0  0  0  0
    2.4799   15.5010   41.0667 H   0  0  0  0  0  0  0  0  0  0  0  0
    0.6544   14.8945   42.4568 H   0  0  0  0  0  0  0  0  0  0  0  0
    3.2854   20.0753   36.4332 H   0  0  0  0  0  0  0  0  0  0  0  0
   -0.4479   18.7684   42.2235 H   0  0  0  0  0  0  0  0  0  0  0  0
    1.5218   18.1354   42.6814 H   0  0  0  0  0  0  0  0  0  0  0  0
    3.7634   17.8137   37.2409 H   0  0  0  0  0  0  0  0  0  0  0  0
    0.6702   20.7795   43.4722 H   0  0  0  0  0  0  0  0  0  0  0  0
    0.9250   22.2616   42.4898 H   0  0  0  0  0  0  0  0  0  0  0  0
   -0.6767   21.4484   42.4898 H   0  0  0  0  0  0  0  0  0  0  0  0
    2.5211   17.0000   39.4413 H   0  0  0  0  0  0  0  0  0  0  0  0
   -0.2178   16.9488   44.6484 H   0  0  0  0  0  0  0  0  0  0  0  0
   -1.4623   17.6050   43.7266 H   0  0  0  0  0  0  0  0  0  0  0  0
   -1.2019   15.9433   43.7266 H   0  0  0  0  0  0  0  0  0  0  0  0
    2.4114   21.8592   37.9194 H   0  0  0  0  0  0  0  0  0  0  0  0
  1  2  1  0
  1  4  1  0
  2 14  1  0
  3  6  1  0
  4  8  1  0
  5 13  1  0
  6  5  2  3
  7 10  2  0
  7 15  1  0
  8 11  1  0
  9  5  1  0
 10 12  1  0
 12  2  2  0
 14  8  2  0
 14  9  1  0
 15  1  2  0
  3 16  1  0
  6 17  1  0
  7 18  1  0
  9 19  1  0
  9 20  1  0
 10 21  1  0
 11 22  1  0
 11 23  1  0
 11 24  1  0
 12 25  1  0
 13 26  1  0
 13 27  1  0
 13 28  1  0
 15 29  1  0
M  CHG  1  13   1
M  END
>  <mol_id>  (79) 
2026-08-24-6tgu-s0-n100-seed1-0083

>  <rmsd_to_ref>  (79) 


$$$$

     RDKit          3D

 39 43  0  0  0  0  0  0  0  0999 V2000
    4.0720   20.3970   35.5410 O   0  0  0  0  0  0  0  0  0  0  0  0
    1.9170   20.8580   38.8740 C   0  0  0  0  0  0  0  0  0  0  0  0
   -0.5100   19.2090   44.0240 N   0  0  0  0  0  0  0  0  0  0  0  0
    4.6550   16.6450   37.4180 C   0  0  1  0  0  0  0  0  0  0  0  0
   -0.8590   17.3360   47.0110 C   0  0  0  0  0  0  0  0  0  0  0  0
    2.6910   17.4270   40.3930 O   0  0  0  0  0  0  0  0  0  0  0  0
    1.0540   17.6870   42.6210 C   0  0  0  0  0  0  0  0  0  0  0  0
    3.2790   20.3920   36.4040 C   0  0  0  0  0  0  0  0  0  0  0  0
   -0.6790   17.8710   45.5870 C   0  0  0  0  0  0  0  0  0  0  0  0
    4.0580   18.1040   36.9970 O   0  0  0  0  0  0  0  0  0  0  0  0
    2.2150   19.6690   39.6780 C   0  0  1  0  0  0  0  0  0  0  0  0
    1.8960   21.5950   37.8560 C   0  0  0  0  0  0  0  0  0  0  0  0
   -1.0470   15.9110   47.0530 C   0  0  0  0  0  0  0  0  0  0  0  0
    3.3670   19.2980   37.5220 C   0  0  1  0  0  0  0  0  0  0  0  0
    3.9190   15.6150   37.7600 C   0  0  0  0  0  0  0  0  0  0  0  0
    5.1340   14.5510   36.4120 O   0  0  0  0  0  0  0  0  0  0  0  0
   -0.8730   19.1670   45.1820 N   0  0  0  0  0  0  0  0  0  0  0  0
    4.7210   15.3830   37.1020 C   0  0  0  0  0  0  0  0  0  0  0  0
    1.6210   16.6290   42.7020 O   0  0  0  0  0  0  0  0  0  0  0  0
   -0.0670   18.0310   43.6240 C   0  0  0  0  0  0  0  0  0  0  0  0
   -2.0080   16.8210   47.6850 C   0  0  0  0  0  0  0  0  0  0  0  0
   -0.1590   17.1310   44.6400 N   0  0  0  0  0  0  0  0  0  0  0  0
    1.2030   20.9510   40.1800 S   0  0  0  0  0  0  0  0  0  0  0  0
    2.0960   18.4680   40.6200 C   0  0  0  0  0  0  0  0  0  0  0  0
    3.3670   18.9970   38.8190 O   0  0  0  0  0  0  0  0  0  0  0  0
    1.3300   18.6270   41.7460 N   0  0  0  0  0  0  0  0  0  0  0  0
    2.5110   21.3760   36.4970 O   0  0  0  0  0  0  0  0  0  0  0  0
    5.4256   17.4012   37.6288 H   0  0  0  0  0  0  0  0  0  0  0  0
   -0.1989   18.1451   47.3569 H   0  0  0  0  0  0  0  0  0  0  0  0
    1.3470   22.5409   37.9743 H   0  0  0  0  0  0  0  0  0  0  0  0
   -1.3227   15.3624   46.1403 H   0  0  0  0  0  0  0  0  0  0  0  0
   -0.4474   15.0503   47.3841 H   0  0  0  0  0  0  0  0  0  0  0  0
    2.5286   19.9832   37.7157 H   0  0  0  0  0  0  0  0  0  0  0  0
    3.9578   15.2521   38.7977 H   0  0  0  0  0  0  0  0  0  0  0  0
    2.8368   15.4249   37.7091 H   0  0  0  0  0  0  0  0  0  0  0  0
   -2.0751   16.8770   48.7815 H   0  0  0  0  0  0  0  0  0  0  0  0
   -3.0935   16.9831   47.6121 H   0  0  0  0  0  0  0  0  0  0  0  0
    0.1081   16.1364   44.6592 H   0  0  0  0  0  0  0  0  0  0  0  0
    0.9376   19.5632   41.9206 H   0  0  0  0  0  0  0  0  0  0  0  0
  1  8  2  0
  2 11  1  0
  2 23  1  0
  3 17  1  0
  4 10  1  0
  4 15  1  0
  5 13  1  0
  5 21  1  0
  6 24  2  0
  7 19  2  0
  7 20  1  0
  8 27  1  0
  8 14  1  0
  9  5  1  0
 11 23  1  0
 11 24  1  6
 12  2  2  0
 13 21  1  0
 14 10  1  0
 14 25  1  0
 16 18  2  0
 17  9  2  0
 18  4  1  0
 18 15  1  0
 20  3  2  0
 20 22  1  0
 22  9  1  0
 24 26  1  0
 25 11  1  0
 26  7  1  0
 27 12  1  0
  4 28  1  1
  5 29  1  0
 12 30  1  0
 13 31  1  0
 13 32  1  0
 14 33  1  6
 15 34  1  0
 15 35  1  0
 21 36  1  0
 21 37  1  0
 22 38  1  0
 26 39  1  0
M  END
>  <mol_id>  (80) 
2026-08-24-6tgu-s0-n100-seed1-0084

>  <rmsd_to_ref>  (80) 


$$$$

     RDKit          3D

 28 31  0  0  0  0  0  0  0  0999 V2000
    2.0200   19.9021   39.4099 C   0  0  0  0  0  0  0  0  0  0  0  0
    1.3885   16.7107   42.5208 O   0  0  0  0  0  0  0  0  0  0  0  0
    1.8003   17.9684   40.8404 N   0  0  0  0  0  0  0  0  0  0  0  0
    2.2829   20.5423   38.2186 C   0  0  0  0  0  0  0  0  0  0  0  0
    2.8827   19.8392   37.1599 C   0  0  0  0  0  0  0  0  0  0  0  0
    1.5261   20.5037   40.6136 C   0  0  0  0  0  0  0  0  0  0  0  0
    3.0858   18.3734   37.3341 C   0  0  0  0  0  0  0  0  0  0  0  0
    1.2254   17.8496   42.0701 C   0  0  0  0  0  0  0  0  0  0  0  0
    1.1072   20.3106   41.8195 N   0  0  0  0  0  0  0  0  0  0  0  0
   -0.8600   19.3108   45.0662 C   0  0  0  0  0  0  0  0  0  0  0  0
    3.2371   20.4537   36.0505 O   0  0  0  0  0  0  0  0  0  0  0  0
   -0.7078   20.6237   44.3153 N   0  0  0  0  0  0  0  0  0  0  0  0
    2.2130   18.4510   39.5579 C   0  0  0  0  0  0  0  0  0  0  0  0
    0.5672   18.9638   42.9557 C   0  0  1  0  0  0  0  0  0  0  0  0
    0.0321   20.3222   42.9769 C   0  0  2  0  0  0  0  0  0  0  0  0
    2.7872   17.8130   38.6040 C   0  0  0  0  0  0  0  0  0  0  0  0
   -0.0200   18.2875   44.2748 C   0  0  0  0  0  0  0  0  0  0  0  0
    2.2856   17.0602   40.8178 H   0  0  0  0  0  0  0  0  0  0  0  0
    2.0233   21.6042   38.0960 H   0  0  0  0  0  0  0  0  0  0  0  0
    2.3449   21.2100   40.8148 H   0  0  0  0  0  0  0  0  0  0  0  0
    0.4961   20.4055   40.2400 H   0  0  0  0  0  0  0  0  0  0  0  0
    3.4541   17.7475   36.5080 H   0  0  0  0  0  0  0  0  0  0  0  0
   -1.4448   19.1292   45.9799 H   0  0  0  0  0  0  0  0  0  0  0  0
    3.0926   21.4286   35.9568 H   0  0  0  0  0  0  0  0  0  0  0  0
   -0.6338   21.1881   42.8471 H   0  0  0  0  0  0  0  0  0  0  0  0
    3.0661   16.7638   38.7818 H   0  0  0  0  0  0  0  0  0  0  0  0
   -0.6553   17.4345   43.9944 H   0  0  0  0  0  0  0  0  0  0  0  0
    0.8136   17.9425   44.9041 H   0  0  0  0  0  0  0  0  0  0  0  0
  1 13  2  0
  1  6  1  0
  3  8  1  0
  4  1  1  0
  5  7  1  0
  5  4  2  0
  7 16  2  0
  8  2  2  0
  8 14  1  0
  9  6  1  0
  9 15  1  0
  9 14  1  0
 11  5  1  0
 12 10  2  0
 13  3  1  0
 14 17  1  1
 15 14  1  0
 15 12  1  0
 16 13  1  0
 17 10  1  0
  3 18  1  0
  4 19  1  0
  6 20  1  0
  6 21  1  0
  7 22  1  0
 10 23  1  0
 11 24  1  0
 15 25  1  6
 16 26  1  0
 17 27  1  0
 17 28  1  0
M  END
>  <mol_id>  (81) 
2026-08-24-6tgu-s0-n100-seed1-0086

>  <rmsd_to_ref>  (81) 


$$$$

     RDKit          3D

 23 24  0  0  0  0  0  0  0  0999 V2000
   -0.0812   19.2863   43.3441 C   0  0  0  0  0  0  0  0  0  0  0  0
    1.3957   20.1429   41.1323 C   0  0  0  0  0  0  0  0  0  0  0  0
    3.3955   20.0158   37.8424 C   0  0  0  0  0  0  0  0  0  0  0  0
   -0.0713   20.6608   42.9315 C   0  0  0  0  0  0  0  0  0  0  0  0
    2.3331   17.8499   40.8348 C   0  0  0  0  0  0  0  0  0  0  0  0
    0.6855   18.3775   42.6553 C   0  0  0  0  0  0  0  0  0  0  0  0
    2.7494   21.1558   37.3391 O   0  0  0  0  0  0  0  0  0  0  0  0
    0.6951   21.1177   41.8890 C   0  0  0  0  0  0  0  0  0  0  0  0
    2.8381   19.5436   39.1013 C   0  0  0  0  0  0  0  0  0  0  0  0
    2.9812   18.1987   39.6083 C   0  0  0  0  0  0  0  0  0  0  0  0
   -0.7452   21.5855   43.6238 O   0  0  0  0  0  0  0  0  0  0  0  0
    1.5296   18.7316   41.5825 C   0  0  0  0  0  0  0  0  0  0  0  0
    2.0483   20.5247   39.8632 C   0  0  0  0  0  0  0  0  0  0  0  0
   -0.6937   18.9649   44.1994 H   0  0  0  0  0  0  0  0  0  0  0  0
    4.4570   20.2577   38.0000 H   0  0  0  0  0  0  0  0  0  0  0  0
    3.2573   19.2120   37.1044 H   0  0  0  0  0  0  0  0  0  0  0  0
    2.4712   16.8281   41.2181 H   0  0  0  0  0  0  0  0  0  0  0  0
    0.6384   17.3204   42.9558 H   0  0  0  0  0  0  0  0  0  0  0  0
    2.4271   21.7119   38.0921 H   0  0  0  0  0  0  0  0  0  0  0  0
    0.7633   22.1895   41.6510 H   0  0  0  0  0  0  0  0  0  0  0  0
    3.5785   17.4551   39.0604 H   0  0  0  0  0  0  0  0  0  0  0  0
   -0.7316   22.5309   43.3303 H   0  0  0  0  0  0  0  0  0  0  0  0
    1.9431   21.5519   39.4839 H   0  0  0  0  0  0  0  0  0  0  0  0
  2 12  1  0
  2  8  2  0
  3  9  1  0
  4  1  2  0
  4 11  1  0
  5 12  1  0
  6  1  1  0
  7  3  1  0
  8  4  1  0
  9 10  1  0
  9 13  2  0
 10  5  2  0
 12  6  2  0
 13  2  1  0
  1 14  1  0
  3 15  1  0
  3 16  1  0
  5 17  1  0
  6 18  1  0
  7 19  1  0
  8 20  1  0
 10 21  1  0
 11 22  1  0
 13 23  1  0
M  END
>  <mol_id>  (82) 
2026-08-24-6tgu-s0-n100-seed1-0087

>  <rmsd_to_ref>  (82) 


$$$$

     RDKit          3D

 42 44  0  0  0  0  0  0  0  0999 V2000
    2.4500   13.8600   40.9460 S   0  0  0  0  0  0  0  0  0  0  0  0
    2.2270   21.7260   36.1310 O   0  0  0  0  0  0  0  0  0  0  0  0
   -0.0610   17.4130   43.9610 C   0  0  0  0  0  0  0  0  0  0  0  0
    1.9250   18.9050   40.0330 C   0  0  0  0  0  0  0  0  0  0  0  0
    4.1450   20.6200   36.1170 O   0  0  0  0  0  0  0  0  0  0  0  0
    3.7510   16.0880   37.1400 C   0  0  0  0  0  0  0  0  0  0  0  0
    4.1820   15.1320   37.1700 O   0  0  0  0  0  0  0  0  0  0  0  0
    2.8520   19.0440   38.8030 C   0  0  0  0  0  0  0  0  0  0  0  0
    1.8520   15.3690   41.1500 C   0  0  0  0  0  0  0  0  0  0  0  0
    1.3930   21.3780   39.9350 C   0  0  0  0  0  0  0  0  0  0  0  0
    1.3410   20.0270   40.5320 C   0  0  0  0  0  0  0  0  0  0  0  0
   -0.5060   19.5900   42.8430 C   0  0  0  0  0  0  0  0  0  0  0  0
   -0.6260   17.9160   45.1800 C   0  0  0  0  0  0  0  0  0  0  0  0
   -1.0840   19.2070   45.1920 C   0  0  0  0  0  0  0  0  0  0  0  0
    3.7200   17.9040   38.6020 C   0  0  0  0  0  0  0  0  0  0  0  0
    3.1690   17.4060   37.2950 C   0  0  0  0  0  0  0  0  0  0  0  0
   -0.9650   20.0370   44.0870 N   0  0  0  0  0  0  0  0  0  0  0  0
    1.0450   17.3140   41.8510 C   0  0  0  0  0  0  0  0  0  0  0  0
    1.9260   21.4980   38.6800 C   0  0  0  0  0  0  0  0  0  0  0  0
    2.6150   20.3430   38.1150 C   0  0  0  0  0  0  0  0  0  0  0  0
    1.0490   15.8800   42.1440 N   0  0  0  0  0  0  0  0  0  0  0  0
    0.1900   18.0800   42.8230 C   0  0  0  0  0  0  0  0  0  0  0  0
    2.1760   16.3070   40.2060 O   0  0  0  0  0  0  0  0  0  0  0  0
    3.0490   20.7810   36.8100 C   0  0  0  0  0  0  0  0  0  0  0  0
   -0.7650   20.5510   41.9510 N   0  0  0  0  0  0  0  0  0  0  0  0
    1.6720   17.5620   40.7070 C   0  0  0  0  0  0  0  0  0  0  0  0
    0.1999   16.3444   43.9583 H   0  0  0  0  0  0  0  0  0  0  0  0
    4.5261   16.4633   36.4556 H   0  0  0  0  0  0  0  0  0  0  0  0
    2.9051   15.6857   37.7167 H   0  0  0  0  0  0  0  0  0  0  0  0
    4.3066   14.8556   38.1124 H   0  0  0  0  0  0  0  0  0  0  0  0
    1.0166   22.2562   40.4801 H   0  0  0  0  0  0  0  0  0  0  0  0
    0.7759   19.9188   41.4695 H   0  0  0  0  0  0  0  0  0  0  0  0
   -0.6895   17.2840   46.0781 H   0  0  0  0  0  0  0  0  0  0  0  0
   -1.5598   19.5966   46.1041 H   0  0  0  0  0  0  0  0  0  0  0  0
    4.7757   18.2011   38.5166 H   0  0  0  0  0  0  0  0  0  0  0  0
    3.7268   17.1685   39.4199 H   0  0  0  0  0  0  0  0  0  0  0  0
    3.4716   18.0653   36.4681 H   0  0  0  0  0  0  0  0  0  0  0  0
    2.0693   17.3838   37.2837 H   0  0  0  0  0  0  0  0  0  0  0  0
    1.8374   22.4373   38.1144 H   0  0  0  0  0  0  0  0  0  0  0  0
    0.5698   15.3780   42.9051 H   0  0  0  0  0  0  0  0  0  0  0  0
   -0.5037   20.4208   40.9632 H   0  0  0  0  0  0  0  0  0  0  0  0
   -1.2259   21.4218   42.2513 H   0  0  0  0  0  0  0  0  0  0  0  0
  1  9  2  0
  2 24  1  0
  3 13  2  0
  4 11  2  0
  4 26  1  0
  5 24  2  0
  6  7  1  0
  6 16  1  0
  8  4  1  0
  9 21  1  0
 10 11  1  0
 12 17  1  0
 13 14  1  0
 15  8  1  0
 16 15  1  0
 17 14  2  0
 18 21  1  0
 18 22  1  0
 19 10  2  0
 20 19  1  0
 20  8  2  0
 22 12  2  0
 22  3  1  0
 23 26  1  0
 23  9  1  0
 24 20  1  0
 25 12  1  0
 26 18  2  0
  3 27  1  0
  6 28  1  0
  6 29  1  0
  7 30  1  0
 10 31  1  0
 11 32  1  0
 13 33  1  0
 14 34  1  0
 15 35  1  0
 15 36  1  0
 16 37  1  0
 16 38  1  0
 19 39  1  0
 21 40  1  0
 25 41  1  0
 25 42  1  0
M  CHG  1   2  -1
M  END
>  <mol_id>  (83) 
2026-08-24-6tgu-s0-n100-seed1-0088

>  <rmsd_to_ref>  (83) 


$$$$

     RDKit          3D

 34 37  0  0  0  0  0  0  0  0999 V2000
    1.1210   21.5159   39.6463 C   0  0  0  0  0  0  0  0  0  0  0  0
    1.6453   19.1122   39.9311 C   0  0  0  0  0  0  0  0  0  0  0  0
    2.2339   18.4943   37.4620 C   0  0  0  0  0  0  0  0  0  0  0  0
    1.1280   16.8265   43.0855 C   0  0  0  0  0  0  0  0  0  0  0  0
    0.9360   19.2534   42.7109 C   0  0  0  0  0  0  0  0  0  0  0  0
    0.4318   18.3381   44.9015 C   0  0  0  0  0  0  0  0  0  0  0  0
    0.5543   15.9089   45.4064 C   0  0  0  0  0  0  0  0  0  0  0  0
    2.0939   16.6119   39.8181 C   0  0  1  0  0  0  0  0  0  0  0  0
    0.8795   20.5012   41.9299 C   0  0  0  0  0  0  0  0  0  0  0  0
    1.5364   20.8987   38.1063 S   0  0  0  0  0  0  0  0  0  0  0  0
    2.9236   14.8906   37.8837 C   0  0  0  0  0  0  0  0  0  0  0  0
    1.8517   19.3857   38.5183 C   0  0  0  0  0  0  0  0  0  0  0  0
    1.2629   17.9015   42.1642 C   0  0  0  0  0  0  0  0  0  0  0  0
    1.6050   17.7992   40.7528 C   0  0  0  0  0  0  0  0  0  0  0  0
    2.3811   16.0615   38.2944 C   0  0  0  0  0  0  0  0  0  0  0  0
    2.4175   17.2807   37.5388 N   0  0  0  0  0  0  0  0  0  0  0  0
    0.5800   19.4561   44.0786 C   0  0  0  0  0  0  0  0  0  0  0  0
    2.3206   15.4819   40.7129 O   0  0  0  0  0  0  0  0  0  0  0  0
    2.2796   19.1625   36.1590 O   0  0  0  0  0  0  0  0  0  0  0  0
    0.7289   17.0175   44.4485 C   0  0  0  0  0  0  0  0  0  0  0  0
    1.3111   20.3299   40.5574 C   0  0  0  0  0  0  0  0  0  0  0  0
    0.7940   22.5328   39.9088 H   0  0  0  0  0  0  0  0  0  0  0  0
    1.3390   15.8047   42.7369 H   0  0  0  0  0  0  0  0  0  0  0  0
    0.0745   18.4795   45.9322 H   0  0  0  0  0  0  0  0  0  0  0  0
    0.8706   16.2363   46.4077 H   0  0  0  0  0  0  0  0  0  0  0  0
   -0.5047   15.6124   45.4351 H   0  0  0  0  0  0  0  0  0  0  0  0
    1.1666   15.0515   45.0905 H   0  0  0  0  0  0  0  0  0  0  0  0
    1.0508   16.2922   39.6785 H   0  0  0  0  0  0  0  0  0  0  0  0
    0.5445   21.4630   42.3455 H   0  0  0  0  0  0  0  0  0  0  0  0
    3.4836   14.4348   38.7135 H   0  0  0  0  0  0  0  0  0  0  0  0
    2.1228   14.2080   37.5631 H   0  0  0  0  0  0  0  0  0  0  0  0
    3.6050   15.0780   37.0407 H   0  0  0  0  0  0  0  0  0  0  0  0
    0.4258   20.4705   44.4751 H   0  0  0  0  0  0  0  0  0  0  0  0
    2.5553   15.8168   41.6145 H   0  0  0  0  0  0  0  0  0  0  0  0
  1 21  2  0
  2 14  1  0
  2 21  1  0
  3 12  1  0
  4 20  2  0
  5 17  1  0
  8 18  1  0
  8 14  1  0
  9  5  2  0
 10 12  1  0
 10  1  1  0
 11 15  1  0
 12  2  2  0
 13  5  1  0
 13  4  1  0
 14 13  2  0
 15  8  1  0
 16  3  1  0
 16 15  2  0
 17  6  2  0
 19  3  2  0
 20  6  1  0
 20  7  1  0
 21  9  1  0
  1 22  1  0
  4 23  1  0
  6 24  1  0
  7 25  1  0
  7 26  1  0
  7 27  1  0
  8 28  1  1
  9 29  1  0
 11 30  1  0
 11 31  1  0
 11 32  1  0
 17 33  1  0
 18 34  1  0
M  END
>  <mol_id>  (84) 
2026-08-24-6tgu-s0-n100-seed1-0089

>  <rmsd_to_ref>  (84) 


$$$$

     RDKit          3D

 32 35  0  0  0  0  0  0  0  0999 V2000
    2.8180   17.6180   39.6720 N   0  0  0  0  0  0  0  0  0  0  0  0
    4.3980   16.7810   36.5060 O   0  0  0  0  0  0  0  0  0  0  0  0
    1.4690   19.1040   40.7720 C   0  0  0  0  0  0  0  0  0  0  0  0
    0.1610   16.8960   42.7880 N   0  0  0  0  0  0  0  0  0  0  0  0
    0.5410   19.3320   41.8850 C   0  0  0  0  0  0  0  0  0  0  0  0
    0.1590   20.5850   42.0770 C   0  0  0  0  0  0  0  0  0  0  0  0
    2.4820   19.6700   38.5760 C   0  0  0  0  0  0  0  0  0  0  0  0
    1.0920   15.7180   42.5460 O   0  0  0  0  0  0  0  0  0  0  0  0
    3.0850   21.4570   36.4360 C   0  0  0  0  0  0  0  0  0  0  0  0
    3.4750   17.9620   37.3760 C   0  0  0  0  0  0  0  0  0  0  0  0
   -0.4330   16.2450   43.8890 O   0  0  0  0  0  0  0  0  0  0  0  0
    3.0840   20.1120   37.1670 C   0  0  2  0  0  0  0  0  0  0  0  0
    3.7480   16.5760   37.6490 O   0  0  0  0  0  0  0  0  0  0  0  0
    3.5880   19.1260   36.5630 N   0  0  0  0  0  0  0  0  0  0  0  0
   -0.6530   20.8040   43.0740 C   0  0  0  0  0  0  0  0  0  0  0  0
    1.7110   20.1460   39.7360 C   0  0  0  0  0  0  0  0  0  0  0  0
    0.0610   18.2940   42.7460 C   0  0  0  0  0  0  0  0  0  0  0  0
   -0.9860   20.0340   44.0110 N   0  0  0  0  0  0  0  0  0  0  0  0
    2.9550   18.4350   38.5540 C   0  0  0  0  0  0  0  0  0  0  0  0
   -0.6780   18.7780   43.7950 C   0  0  0  0  0  0  0  0  0  0  0  0
    2.0840   17.9110   40.6530 C   0  0  0  0  0  0  0  0  0  0  0  0
    0.5091   21.4011   41.4278 H   0  0  0  0  0  0  0  0  0  0  0  0
    3.0856   22.2744   37.1721 H   0  0  0  0  0  0  0  0  0  0  0  0
    3.9832   21.5309   35.8053 H   0  0  0  0  0  0  0  0  0  0  0  0
    2.1869   21.5322   35.8053 H   0  0  0  0  0  0  0  0  0  0  0  0
    4.0332   20.3769   37.6557 H   0  0  0  0  0  0  0  0  0  0  0  0
    3.0875   18.9747   35.6756 H   0  0  0  0  0  0  0  0  0  0  0  0
    4.5820   19.3139   36.3692 H   0  0  0  0  0  0  0  0  0  0  0  0
   -1.1114   21.8036   43.0988 H   0  0  0  0  0  0  0  0  0  0  0  0
    1.3460   21.1795   39.8293 H   0  0  0  0  0  0  0  0  0  0  0  0
   -1.0475   18.0424   44.5246 H   0  0  0  0  0  0  0  0  0  0  0  0
    1.9391   17.1619   41.4453 H   0  0  0  0  0  0  0  0  0  0  0  0
  1 21  2  0
  2 10  1  0
  2 13  1  0
  3  5  1  0
  4 11  1  0
  5  6  2  0
  5 17  1  0
  6 15  1  0
  7 16  1  0
  8  4  2  0
 10 13  1  0
 10 19  1  0
 12  9  1  0
 12  7  1  0
 14 12  1  0
 14 10  1  0
 15 18  2  0
 16  3  2  0
 17  4  1  0
 17 20  2  0
 19  7  2  0
 19  1  1  0
 20 18  1  0
 21  3  1  0
  6 22  1  0
  9 23  1  0
  9 24  1  0
  9 25  1  0
 12 26  1  1
 14 27  1  0
 14 28  1  0
 15 29  1  0
 16 30  1  0
 20 31  1  0
 21 32  1  0
M  CHG  3   4   1  11  -1  14   1
M  END
>  <mol_id>  (85) 
2026-08-24-6tgu-s0-n100-seed1-0090

>  <rmsd_to_ref>  (85) 


$$$$

     RDKit          3D

 51 52  0  0  0  0  0  0  0  0999 V2000
    4.0395   19.4304   37.0418 O   0  0  0  0  0  0  0  0  0  0  0  0
    2.1732   19.1473   41.4216 C   0  0  1  0  0  0  0  0  0  0  0  0
    1.4934   18.2751   42.2247 C   0  0  2  0  0  0  0  0  0  0  0  0
    3.6676   22.0565   35.9767 O   0  0  0  0  0  0  0  0  0  0  0  0
    2.8607   15.1145   40.9068 C   0  0  0  0  0  0  0  0  0  0  0  0
    2.7717   18.2562   40.4453 N   0  0  0  0  0  0  0  0  0  0  0  0
    2.2637   20.8204   39.8488 C   0  0  0  0  0  0  0  0  0  0  0  0
    2.9847   20.0479   38.9569 C   0  0  0  0  0  0  0  0  0  0  0  0
    0.7339   17.7627   44.2637 O   0  0  0  0  0  0  0  0  0  0  0  0
    4.0574   17.8745   38.5904 O   0  0  0  0  0  0  0  0  0  0  0  0
   -0.3134   17.3463   44.1616 C   0  0  0  0  0  0  0  0  0  0  0  0
   -0.2356   18.5280   46.2697 N   0  0  0  0  0  0  0  0  0  0  0  0
    1.7643   20.4422   41.0663 C   0  0  0  0  0  0  0  0  0  0  0  0
    2.8898   15.9482   41.8866 N   0  0  0  0  0  0  0  0  0  0  0  0
    1.2780   18.8732   43.7447 C   0  0  0  0  0  0  0  0  0  0  0  0
    2.0181   22.3182   37.3418 O   0  0  0  0  0  0  0  0  0  0  0  0
    2.6437   15.6158   39.8144 O   0  0  0  0  0  0  0  0  0  0  0  0
    0.9442   18.7641   46.5280 C   0  0  0  0  0  0  0  0  0  0  0  0
    3.1293   13.8127   41.0432 N   0  0  0  0  0  0  0  0  0  0  0  0
    1.9776   16.8890   42.1941 C   0  0  0  0  0  0  0  0  0  0  0  0
   -0.9302   18.0937   45.1174 C   0  0  0  0  0  0  0  0  0  0  0  0
    0.9355   17.6645   48.2702 C   0  0  0  0  0  0  0  0  0  0  0  0
    0.5018   17.5514   46.8904 C   0  0  1  0  0  0  0  0  0  0  0  0
    3.6783   20.5714   37.6649 C   0  0  2  0  0  0  0  0  0  0  0  0
    3.2211   18.7735   39.3439 C   0  0  0  0  0  0  0  0  0  0  0  0
    3.0131   21.7215   37.0255 C   0  0  0  0  0  0  0  0  0  0  0  0
    4.3227   18.7620   37.7150 H   0  0  0  0  0  0  0  0  0  0  0  0
    2.8585   19.7478   42.0378 H   0  0  0  0  0  0  0  0  0  0  0  0
    0.4935   18.1928   41.7738 H   0  0  0  0  0  0  0  0  0  0  0  0
    2.8376   17.2435   40.6215 H   0  0  0  0  0  0  0  0  0  0  0  0
    2.0686   21.8594   39.5448 H   0  0  0  0  0  0  0  0  0  0  0  0
   -0.7338   17.5265   43.1612 H   0  0  0  0  0  0  0  0  0  0  0  0
   -0.4042   16.2564   44.2795 H   0  0  0  0  0  0  0  0  0  0  0  0
    2.1187   21.1492   41.8309 H   0  0  0  0  0  0  0  0  0  0  0  0
    0.6663   20.4464   41.0001 H   0  0  0  0  0  0  0  0  0  0  0  0
    3.7081   15.8884   42.5094 H   0  0  0  0  0  0  0  0  0  0  0  0
    2.2261   19.1474   44.2304 H   0  0  0  0  0  0  0  0  0  0  0  0
    0.6983   19.8034   43.8374 H   0  0  0  0  0  0  0  0  0  0  0  0
    1.6684   18.8481   45.7043 H   0  0  0  0  0  0  0  0  0  0  0  0
    1.4456   19.5756   47.0757 H   0  0  0  0  0  0  0  0  0  0  0  0
    3.0910   13.1903   40.2234 H   0  0  0  0  0  0  0  0  0  0  0  0
    3.3749   13.4317   41.9681 H   0  0  0  0  0  0  0  0  0  0  0  0
    1.9031   16.6799   43.2715 H   0  0  0  0  0  0  0  0  0  0  0  0
    1.6028   16.8158   41.1625 H   0  0  0  0  0  0  0  0  0  0  0  0
   -1.2979   19.0005   44.6149 H   0  0  0  0  0  0  0  0  0  0  0  0
   -1.6670   17.3905   45.5328 H   0  0  0  0  0  0  0  0  0  0  0  0
    0.2467   17.1027   48.9183 H   0  0  0  0  0  0  0  0  0  0  0  0
    1.9508   17.2532   48.3703 H   0  0  0  0  0  0  0  0  0  0  0  0
    0.9379   18.7234   48.5682 H   0  0  0  0  0  0  0  0  0  0  0  0
    0.4430   16.4628   46.7436 H   0  0  0  0  0  0  0  0  0  0  0  0
    4.6017   21.1613   37.7614 H   0  0  0  0  0  0  0  0  0  0  0  0
  2  3  1  0
  3 20  1  0
  3 15  1  0
  4 26  2  0
  5 19  1  0
  5 14  1  0
  6  2  1  0
  7 13  1  0
  8 25  1  0
  8  7  2  0
 10 25  2  0
 11  9  1  0
 11 21  1  0
 12 18  1  0
 12 23  1  0
 13  2  1  0
 14 20  1  0
 15  9  1  0
 17  5  2  0
 18 23  1  0
 21 12  1  0
 23 22  1  0
 24  1  1  0
 24  8  1  0
 25  6  1  0
 26 16  1  0
 26 24  1  0
  1 27  1  0
  2 28  1  1
  3 29  1  6
  6 30  1  0
  7 31  1  0
 11 32  1  0
 11 33  1  0
 13 34  1  0
 13 35  1  0
 14 36  1  0
 15 37  1  0
 15 38  1  0
 18 39  1  0
 18 40  1  0
 19 41  1  0
 19 42  1  0
 20 43  1  0
 20 44  1  0
 21 45  1  0
 21 46  1  0
 22 47  1  0
 22 48  1  0
 22 49  1  0
 23 50  1  6
 24 51  1  1
M  CHG  1  16  -1
M  END
>  <mol_id>  (86) 
2026-08-24-6tgu-s0-n100-seed1-0091

>  <rmsd_to_ref>  (86) 


$$$$

     RDKit          3D

 48 53  0  0  0  0  0  0  0  0999 V2000
    2.9985   14.5242   39.3751 C   0  0  0  0  0  0  0  0  0  0  0  0
    3.4029   19.7481   37.2431 C   0  0  0  0  0  0  0  0  0  0  0  0
    2.2998   18.9324   39.6898 C   0  0  0  0  0  0  0  0  0  0  0  0
    0.1079   14.8583   43.0803 C   0  0  0  0  0  0  0  0  0  0  0  0
    2.5380   22.0653   37.5604 C   0  0  0  0  0  0  0  0  0  0  0  0
   -0.8006   15.2989   44.0204 C   0  0  0  0  0  0  0  0  0  0  0  0
    2.7737   17.8863   38.7891 C   0  0  0  0  0  0  0  0  0  0  0  0
   -0.7514   18.8529   44.1497 C   0  0  1  0  0  0  0  0  0  0  0  0
    1.7039   15.1389   41.3362 O   0  0  0  0  0  0  0  0  0  0  0  0
    1.7310   18.8899   40.8922 N   0  0  0  0  0  0  0  0  0  0  0  0
   -0.8345   20.0351   43.8597 N   0  0  0  0  0  0  0  0  0  0  0  0
   -1.3664   19.3261   44.9243 N   0  0  0  0  0  0  0  0  0  0  0  0
    2.7735   20.7159   38.0076 C   0  0  0  0  0  0  0  0  0  0  0  0
    1.6128   20.3739   41.1645 C   0  0  0  0  0  0  0  0  0  0  0  0
    0.7680   20.8954   42.2289 C   0  0  0  0  0  0  0  0  0  0  0  0
    1.9209   21.1103   40.1438 N   0  0  0  0  0  0  0  0  0  0  0  0
   -0.0695   20.6634   42.9420 C   0  0  0  0  0  0  0  0  0  0  0  0
    0.7983   15.7571   42.2666 C   0  0  0  0  0  0  0  0  0  0  0  0
    4.0792   20.2588   36.0982 O   0  0  0  0  0  0  0  0  0  0  0  0
   -0.3239   17.5582   43.4948 C   0  0  0  0  0  0  0  0  0  0  0  0
   -0.9858   16.6408   44.2781 C   0  0  0  0  0  0  0  0  0  0  0  0
    3.3639   15.4068   38.3299 C   0  0  0  0  0  0  0  0  0  0  0  0
    2.3308   20.2261   39.2162 C   0  0  0  0  0  0  0  0  0  0  0  0
    2.6285   16.5100   39.1466 N   0  0  0  0  0  0  0  0  0  0  0  0
    3.3689   18.3782   37.5850 C   0  0  0  0  0  0  0  0  0  0  0  0
    2.4044   15.4927   40.1732 C   0  0  2  0  0  0  0  0  0  0  0  0
    0.6376   17.0726   42.3992 C   0  0  0  0  0  0  0  0  0  0  0  0
    2.2907   13.7477   39.0493 H   0  0  0  0  0  0  0  0  0  0  0  0
    3.7984   13.9193   39.8272 H   0  0  0  0  0  0  0  0  0  0  0  0
    0.2911   13.7793   42.9703 H   0  0  0  0  0  0  0  0  0  0  0  0
    2.3633   22.7148   38.4308 H   0  0  0  0  0  0  0  0  0  0  0  0
    3.4159   22.4257   37.0043 H   0  0  0  0  0  0  0  0  0  0  0  0
    1.6550   22.0854   36.9048 H   0  0  0  0  0  0  0  0  0  0  0  0
   -1.3932   14.5598   44.5794 H   0  0  0  0  0  0  0  0  0  0  0  0
   -0.1620   17.9262   44.0886 H   0  0  0  0  0  0  0  0  0  0  0  0
   -2.3782   19.1395   44.9729 H   0  0  0  0  0  0  0  0  0  0  0  0
    1.5404   21.2182   42.9426 H   0  0  0  0  0  0  0  0  0  0  0  0
    0.0441   21.2607   41.4856 H   0  0  0  0  0  0  0  0  0  0  0  0
    1.8648   22.1355   40.0615 H   0  0  0  0  0  0  0  0  0  0  0  0
   -0.8694   20.7602   42.1931 H   0  0  0  0  0  0  0  0  0  0  0  0
    0.6352   20.8830   43.7575 H   0  0  0  0  0  0  0  0  0  0  0  0
    4.0683   21.2306   35.9095 H   0  0  0  0  0  0  0  0  0  0  0  0
   -1.6481   16.9707   45.0920 H   0  0  0  0  0  0  0  0  0  0  0  0
    2.9163   15.1779   37.3516 H   0  0  0  0  0  0  0  0  0  0  0  0
    4.4036   15.5193   37.9887 H   0  0  0  0  0  0  0  0  0  0  0  0
    3.8221   17.6544   36.8916 H   0  0  0  0  0  0  0  0  0  0  0  0
    2.2317   16.0289   41.1180 H   0  0  0  0  0  0  0  0  0  0  0  0
    1.1716   17.7826   41.7507 H   0  0  0  0  0  0  0  0  0  0  0  0
  2 25  2  0
  2 13  1  0
  3 10  1  0
  4  6  2  0
  5 13  1  0
  6 21  1  0
  7 24  1  0
  7  3  2  0
  8 20  1  0
  8 12  1  0
  9 18  1  0
 10 14  2  0
 11 17  1  0
 11  8  1  0
 11 12  1  0
 13 23  2  0
 14 15  1  0
 15 17  1  0
 16 14  1  0
 18  4  1  0
 19  2  1  0
 20 21  2  0
 22 24  1  0
 22  1  1  0
 23  3  1  0
 23 16  1  0
 24 26  1  0
 25  7  1  0
 26  1  1  0
 26  9  1  0
 27 18  2  0
 27 20  1  0
  1 28  1  0
  1 29  1  0
  4 30  1  0
  5 31  1  0
  5 32  1  0
  5 33  1  0
  6 34  1  0
  8 35  1  1
 12 36  1  0
 15 37  1  0
 15 38  1  0
 16 39  1  0
 17 40  1  0
 17 41  1  0
 19 42  1  0
 21 43  1  0
 22 44  1  0
 22 45  1  0
 25 46  1  0
 26 47  1  1
 27 48  1  0
M  END
>  <mol_id>  (87) 
2026-08-24-6tgu-s0-n100-seed1-0092

>  <rmsd_to_ref>  (87) 


$$$$

     RDKit          3D

 31 33  0  0  0  0  0  0  0  0999 V2000
    3.3599   17.3282   37.6633 C   0  0  0  0  0  0  0  0  0  0  0  0
    2.4148   17.0057   39.4521 N   0  0  0  0  0  0  0  0  0  0  0  0
    0.6136   20.7413   40.3980 N   0  0  0  0  0  0  0  0  0  0  0  0
    2.6279   18.3673   37.7630 N   0  0  0  0  0  0  0  0  0  0  0  0
   -0.3383   16.2351   45.5835 C   0  0  0  0  0  0  0  0  0  0  0  0
    4.2664   16.7990   36.6915 N   0  0  0  0  0  0  0  0  0  0  0  0
    1.0334   21.1190   39.2342 O   0  0  0  0  0  0  0  0  0  0  0  0
    2.1168   18.1811   39.1426 C   0  0  0  0  0  0  0  0  0  0  0  0
   -0.9802   20.0028   43.3406 O   0  0  0  0  0  0  0  0  0  0  0  0
    0.3963   18.8419   41.9401 C   0  0  2  0  0  0  0  0  0  0  0  0
    3.1721   16.4482   38.5735 N   0  0  0  0  0  0  0  0  0  0  0  0
   -0.0668   17.9815   44.0010 N   0  0  0  0  0  0  0  0  0  0  0  0
    0.8666   19.5212   40.7155 C   0  0  0  0  0  0  0  0  0  0  0  0
    0.7203   17.0542   43.3428 C   0  0  0  0  0  0  0  0  0  0  0  0
    1.7755   20.1189   38.8510 C   0  0  0  0  0  0  0  0  0  0  0  0
    1.6351   19.2215   39.5920 C   0  0  0  0  0  0  0  0  0  0  0  0
   -0.5978   17.7312   45.3208 C   0  0  0  0  0  0  0  0  0  0  0  0
   -0.2869   19.0488   43.1506 C   0  0  0  0  0  0  0  0  0  0  0  0
    1.0715   17.5104   42.1142 C   0  0  0  0  0  0  0  0  0  0  0  0
   -0.2085   16.0696   46.6632 H   0  0  0  0  0  0  0  0  0  0  0  0
   -1.1939   15.6456   45.2225 H   0  0  0  0  0  0  0  0  0  0  0  0
    0.5727   15.9222   45.0525 H   0  0  0  0  0  0  0  0  0  0  0  0
    4.7451   15.9041   36.8674 H   0  0  0  0  0  0  0  0  0  0  0  0
    4.4404   17.3129   35.8160 H   0  0  0  0  0  0  0  0  0  0  0  0
   -0.3357   19.5668   41.5546 H   0  0  0  0  0  0  0  0  0  0  0  0
    3.5497   15.4902   38.5978 H   0  0  0  0  0  0  0  0  0  0  0  0
    1.0205   16.0809   43.7582 H   0  0  0  0  0  0  0  0  0  0  0  0
    2.4321   20.1169   37.9686 H   0  0  0  0  0  0  0  0  0  0  0  0
   -0.0799   18.3496   46.0687 H   0  0  0  0  0  0  0  0  0  0  0  0
   -1.6669   17.9810   45.3881 H   0  0  0  0  0  0  0  0  0  0  0  0
    1.7234   17.0043   41.3870 H   0  0  0  0  0  0  0  0  0  0  0  0
  1  4  2  0
  1 11  1  0
  3 13  2  0
  4  8  1  0
  6  1  1  0
  7  3  1  0
  8  2  2  0
  8 16  1  0
 10 13  1  0
 10 19  1  0
 10 18  1  0
 11  2  1  0
 12 17  1  0
 14 12  1  0
 15  7  1  0
 15 16  2  0
 16 13  1  0
 17  5  1  0
 18  9  2  0
 18 12  1  0
 19 14  2  0
  5 20  1  0
  5 21  1  0
  5 22  1  0
  6 23  1  0
  6 24  1  0
 10 25  1  6
 11 26  1  0
 14 27  1  0
 15 28  1  0
 17 29  1  0
 17 30  1  0
 19 31  1  0
M  END
>  <mol_id>  (88) 
2026-08-24-6tgu-s0-n100-seed1-0093

>  <rmsd_to_ref>  (88) 


$$$$

     RDKit          3D

 41 45  0  0  0  0  0  0  0  0999 V2000
    1.4080   18.1530   41.0510 C   0  0  0  0  0  0  0  0  0  0  0  0
   -0.3090   21.1260   42.5390 C   0  0  0  0  0  0  0  0  0  0  0  0
    0.3960   16.1340   43.1340 C   0  0  0  0  0  0  0  0  0  0  0  0
    3.2550   20.8690   36.0220 N   0  0  0  0  0  0  0  0  0  0  0  0
    0.0440   18.4880   43.1510 C   0  0  0  0  0  0  0  0  0  0  0  0
    0.0300   17.1340   43.8120 C   0  0  0  0  0  0  0  0  0  0  0  0
   -0.4060   19.3730   44.0100 N   0  0  0  0  0  0  0  0  0  0  0  0
    1.0670   15.7860   42.1640 C   0  0  0  0  0  0  0  0  0  0  0  0
    2.4120   19.5090   38.7470 C   0  0  0  0  0  0  0  0  0  0  0  0
    3.2460   18.9700   37.5900 C   0  0  0  0  0  0  0  0  0  0  0  0
    2.4800   21.3550   37.0730 C   0  0  0  0  0  0  0  0  0  0  0  0
    3.6180   19.7890   36.5970 C   0  0  0  0  0  0  0  0  0  0  0  0
    2.1920   20.9940   38.5110 C   0  0  0  0  0  0  0  0  0  0  0  0
    2.6170   17.1750   39.5430 C   0  0  0  0  0  0  0  0  0  0  0  0
   -0.7070   20.6570   43.8010 N   0  0  0  0  0  0  0  0  0  0  0  0
   -1.1280   17.7620   45.8070 N   0  0  0  0  0  0  0  0  0  0  0  0
    1.5440   16.7570   41.2870 C   0  0  0  0  0  0  0  0  0  0  0  0
    2.3440   16.1990   40.2850 N   0  0  0  0  0  0  0  0  0  0  0  0
    2.0250   18.5770   39.7310 C   0  0  0  0  0  0  0  0  0  0  0  0
    0.5960   18.9680   41.9700 C   0  0  0  0  0  0  0  0  0  0  0  0
   -0.4920   15.6950   45.4660 O   0  0  0  0  0  0  0  0  0  0  0  0
    0.3240   20.3080   41.6460 C   0  0  0  0  0  0  0  0  0  0  0  0
    3.4760   16.7850   38.4550 C   0  0  0  0  0  0  0  0  0  0  0  0
    3.6730   17.6990   37.4980 C   0  0  0  0  0  0  0  0  0  0  0  0
   -0.5670   16.7900   45.1120 C   0  0  0  0  0  0  0  0  0  0  0  0
   -0.5105   22.1718   42.2638 H   0  0  0  0  0  0  0  0  0  0  0  0
   -0.0556   15.2349   43.5785 H   0  0  0  0  0  0  0  0  0  0  0  0
    4.0497   21.4849   35.7983 H   0  0  0  0  0  0  0  0  0  0  0  0
    2.7919   20.7759   35.1067 H   0  0  0  0  0  0  0  0  0  0  0  0
    1.2875   14.7222   41.9914 H   0  0  0  0  0  0  0  0  0  0  0  0
    2.8427   22.3894   37.1652 H   0  0  0  0  0  0  0  0  0  0  0  0
    1.5573   20.8872   36.6992 H   0  0  0  0  0  0  0  0  0  0  0  0
    3.6496   19.0931   35.7457 H   0  0  0  0  0  0  0  0  0  0  0  0
    4.3314   20.3210   37.2436 H   0  0  0  0  0  0  0  0  0  0  0  0
    2.8624   21.5672   39.1683 H   0  0  0  0  0  0  0  0  0  0  0  0
    1.1419   21.2353   38.7324 H   0  0  0  0  0  0  0  0  0  0  0  0
   -1.5564   17.5601   46.7217 H   0  0  0  0  0  0  0  0  0  0  0  0
   -1.1373   18.7223   45.4346 H   0  0  0  0  0  0  0  0  0  0  0  0
    0.6236   20.7024   40.6638 H   0  0  0  0  0  0  0  0  0  0  0  0
    3.9443   15.7906   38.4130 H   0  0  0  0  0  0  0  0  0  0  0  0
    4.2123   17.3944   36.5889 H   0  0  0  0  0  0  0  0  0  0  0  0
  1 17  1  0
  1 20  2  0
  2 15  1  0
  3  6  1  0
  4 12  1  0
  4 11  1  0
  5  6  2  0
  5  7  1  0
  6 25  1  0
  8  3  2  0
  9 19  2  0
 10  9  1  0
 11 13  1  0
 12 10  1  0
 13  9  1  0
 14 19  1  0
 14 18  1  0
 15  7  2  0
 17  8  1  0
 18 17  2  0
 19  1  1  0
 20  5  1  0
 22 20  1  0
 22  2  2  0
 23 14  2  0
 24 10  2  0
 24 23  1  0
 25 21  2  0
 25 16  1  0
  2 26  1  0
  3 27  1  0
  4 28  1  0
  4 29  1  0
  8 30  1  0
 11 31  1  0
 11 32  1  0
 12 33  1  0
 12 34  1  0
 13 35  1  0
 13 36  1  0
 16 37  1  0
 16 38  1  0
 22 39  1  0
 23 40  1  0
 24 41  1  0
M  CHG  1   4   1
M  END
>  <mol_id>  (89) 
2026-08-24-6tgu-s0-n100-seed1-0094

>  <rmsd_to_ref>  (89) 


$$$$

     RDKit          3D

 42 44  0  0  0  0  0  0  0  0999 V2000
    2.6225   16.2160   39.0882 O   0  0  0  0  0  0  0  0  0  0  0  0
    0.6059   20.8523   42.3016 N   0  0  0  0  0  0  0  0  0  0  0  0
    1.7619   21.4448   40.1922 N   0  0  0  0  0  0  0  0  0  0  0  0
    0.6489   19.4705   42.1446 C   0  0  0  0  0  0  0  0  0  0  0  0
   -0.1419   21.0484   43.3896 N   0  0  0  0  0  0  0  0  0  0  0  0
    0.0051   18.8065   43.1646 C   0  0  1  0  0  0  0  0  0  0  0  0
    2.7963   21.0764   38.0991 C   0  0  0  0  0  0  0  0  0  0  0  0
    3.5346   20.0982   37.5198 C   0  0  0  0  0  0  0  0  0  0  0  0
    1.8215   16.0012   41.3101 C   0  0  1  0  0  0  0  0  0  0  0  0
    1.3087   16.5701   42.4732 N   0  0  0  0  0  0  0  0  0  0  0  0
    2.3996   19.0913   39.2409 C   0  0  2  0  0  0  0  0  0  0  0  0
   -0.6017   16.5959   44.0593 C   0  0  0  0  0  0  0  0  0  0  0  0
    2.2202   16.8032   40.0527 C   0  0  0  0  0  0  0  0  0  0  0  0
    0.5358   17.3828   43.4057 C   0  0  2  0  0  0  0  0  0  0  0  0
    2.1472   14.5959   41.2346 C   0  0  0  0  0  0  0  0  0  0  0  0
    2.2523   20.5950   39.3563 C   0  0  0  0  0  0  0  0  0  0  0  0
    1.4491   18.6690   41.2000 N   0  0  0  0  0  0  0  0  0  0  0  0
    1.9777   18.0918   40.1596 N   0  0  0  0  0  0  0  0  0  0  0  0
    2.5089   13.5634   40.7913 C   0  0  0  0  0  0  0  0  0  0  0  0
   -0.6212   19.9041   43.8132 C   0  0  0  0  0  0  0  0  0  0  0  0
    3.1266   18.7169   37.9575 C   0  0  0  0  0  0  0  0  0  0  0  0
    1.3722   21.1195   41.0883 H   0  0  0  0  0  0  0  0  0  0  0  0
   -0.3164   21.9626   43.8307 H   0  0  0  0  0  0  0  0  0  0  0  0
   -0.7920   18.0997   43.4381 H   0  0  0  0  0  0  0  0  0  0  0  0
    1.9721   21.3593   37.4278 H   0  0  0  0  0  0  0  0  0  0  0  0
    3.4341   21.9525   38.2881 H   0  0  0  0  0  0  0  0  0  0  0  0
    3.4166   20.1694   36.4285 H   0  0  0  0  0  0  0  0  0  0  0  0
    4.5795   20.2468   37.8300 H   0  0  0  0  0  0  0  0  0  0  0  0
    0.7996   15.7829   40.9664 H   0  0  0  0  0  0  0  0  0  0  0  0
    1.0454   15.6712   42.9016 H   0  0  0  0  0  0  0  0  0  0  0  0
    1.8060   17.4331   42.2109 H   0  0  0  0  0  0  0  0  0  0  0  0
    1.4355   19.0162   38.7165 H   0  0  0  0  0  0  0  0  0  0  0  0
   -0.4423   16.5562   45.1470 H   0  0  0  0  0  0  0  0  0  0  0  0
   -1.5601   17.0923   43.8470 H   0  0  0  0  0  0  0  0  0  0  0  0
   -0.6206   15.5735   43.6538 H   0  0  0  0  0  0  0  0  0  0  0  0
    1.4327   17.6173   43.9978 H   0  0  0  0  0  0  0  0  0  0  0  0
    2.0554   18.2246   41.9041 H   0  0  0  0  0  0  0  0  0  0  0  0
    2.8460   12.6012   40.3782 H   0  0  0  0  0  0  0  0  0  0  0  0
   -0.4505   19.8239   44.8969 H   0  0  0  0  0  0  0  0  0  0  0  0
   -1.6966   19.8734   43.5836 H   0  0  0  0  0  0  0  0  0  0  0  0
    2.4594   18.2319   37.2297 H   0  0  0  0  0  0  0  0  0  0  0  0
    3.9447   17.9898   38.0671 H   0  0  0  0  0  0  0  0  0  0  0  0
  1 13  2  0
  2  4  2  0
  2  5  1  0
  4  6  1  0
  5 20  1  0
  6 14  1  0
  6 20  1  0
  7 16  1  0
  8  7  1  0
  8 21  1  0
  9 15  1  0
  9 10  1  0
 10 14  1  0
 11 21  1  0
 11 18  1  0
 13  9  1  0
 14 12  1  0
 16 11  1  0
 16  3  2  3
 17  4  1  0
 18 13  1  0
 18 17  1  0
 19 15  3  0
  3 22  1  0
  5 23  1  0
  6 24  1  6
  7 25  1  0
  7 26  1  0
  8 27  1  0
  8 28  1  0
  9 29  1  6
 10 30  1  0
 10 31  1  0
 11 32  1  6
 12 33  1  0
 12 34  1  0
 12 35  1  0
 14 36  1  1
 17 37  1  0
 19 38  1  0
 20 39  1  0
 20 40  1  0
 21 41  1  0
 21 42  1  0
M  CHG  1  10   1
M  END
>  <mol_id>  (90) 
2026-08-24-6tgu-s0-n100-seed1-0095

>  <rmsd_to_ref>  (90) 


$$$$

     RDKit          3D

 49 52  0  0  0  0  0  0  0  0999 V2000
   -0.4094   15.3100   44.1651 C   0  0  0  0  0  0  0  0  0  0  0  0
    2.6471   20.7962   37.8942 C   0  0  0  0  0  0  0  0  0  0  0  0
    0.7723   16.5343   42.2130 C   0  0  0  0  0  0  0  0  0  0  0  0
    1.2461   14.1931   42.9600 O   0  0  0  0  0  0  0  0  0  0  0  0
    0.1899   21.5128   41.2716 C   0  0  0  0  0  0  0  0  0  0  0  0
    3.0461   18.6071   38.3681 C   0  0  0  0  0  0  0  0  0  0  0  0
    3.4922   20.2119   36.8425 C   0  0  0  0  0  0  0  0  0  0  0  0
    0.4396   19.0738   41.8595 C   0  0  0  0  0  0  0  0  0  0  0  0
   -1.7339   20.0053   43.8733 N   0  0  0  0  0  0  0  0  0  0  0  0
    3.8860   20.7697   35.7826 O   0  0  0  0  0  0  0  0  0  0  0  0
    2.0835   20.1182   40.3235 C   0  0  1  0  0  0  0  0  0  0  0  0
    0.5388   15.3517   43.0700 C   0  0  0  0  0  0  0  0  0  0  0  0
    0.0428   17.8260   42.6904 C   0  0  0  0  0  0  0  0  0  0  0  0
    3.7294   18.9070   37.2875 C   0  0  2  0  0  0  0  0  0  0  0  0
    1.4011   18.9529   40.8329 C   0  0  0  0  0  0  0  0  0  0  0  0
   -0.1498   20.3815   41.9975 C   0  0  0  0  0  0  0  0  0  0  0  0
    1.9270   13.6635   41.9667 C   0  0  0  0  0  0  0  0  0  0  0  0
    2.5205   19.8083   38.9115 N   0  0  0  0  0  0  0  0  0  0  0  0
    1.4256   21.4828   40.3500 C   0  0  0  0  0  0  0  0  0  0  0  0
    4.4472   17.9441   36.5786 O   0  0  0  0  0  0  0  0  0  0  0  0
   -1.0808   16.4020   44.5435 C   0  0  0  0  0  0  0  0  0  0  0  0
   -1.1761   20.5740   42.8908 C   0  0  0  0  0  0  0  0  0  0  0  0
   -0.8785   17.6742   43.8127 C   0  0  0  0  0  0  0  0  0  0  0  0
    4.3704   16.7188   37.4664 C   0  0  0  0  0  0  0  0  0  0  0  0
   -1.7151   18.7213   44.1678 C   0  0  0  0  0  0  0  0  0  0  0  0
   -0.5801   14.3612   44.6950 H   0  0  0  0  0  0  0  0  0  0  0  0
    3.1205   21.7017   38.3017 H   0  0  0  0  0  0  0  0  0  0  0  0
    1.6627   21.0844   37.4969 H   0  0  0  0  0  0  0  0  0  0  0  0
    1.4069   16.5046   41.3150 H   0  0  0  0  0  0  0  0  0  0  0  0
   -0.6754   21.7578   40.6381 H   0  0  0  0  0  0  0  0  0  0  0  0
    0.4645   22.2434   42.0467 H   0  0  0  0  0  0  0  0  0  0  0  0
    3.7065   18.1241   39.1034 H   0  0  0  0  0  0  0  0  0  0  0  0
    2.2286   17.9144   38.1191 H   0  0  0  0  0  0  0  0  0  0  0  0
    2.8883   20.2641   41.0590 H   0  0  0  0  0  0  0  0  0  0  0  0
    4.8257   18.8200   37.3094 H   0  0  0  0  0  0  0  0  0  0  0  0
    0.8904   18.4881   39.9767 H   0  0  0  0  0  0  0  0  0  0  0  0
    2.2098   18.3872   41.3188 H   0  0  0  0  0  0  0  0  0  0  0  0
    2.7359   13.0364   42.3699 H   0  0  0  0  0  0  0  0  0  0  0  0
    1.2567   13.0461   41.3507 H   0  0  0  0  0  0  0  0  0  0  0  0
    2.3579   14.4653   41.3490 H   0  0  0  0  0  0  0  0  0  0  0  0
    2.1558   22.2217   40.7115 H   0  0  0  0  0  0  0  0  0  0  0  0
    1.0923   21.7182   39.3284 H   0  0  0  0  0  0  0  0  0  0  0  0
   -2.1514   16.1595   44.4728 H   0  0  0  0  0  0  0  0  0  0  0  0
   -0.6820   16.6148   45.5463 H   0  0  0  0  0  0  0  0  0  0  0  0
   -1.6736   21.5332   42.6847 H   0  0  0  0  0  0  0  0  0  0  0  0
    4.2973   17.0321   38.5183 H   0  0  0  0  0  0  0  0  0  0  0  0
    3.4834   16.1263   37.1978 H   0  0  0  0  0  0  0  0  0  0  0  0
    5.2749   16.1082   37.3277 H   0  0  0  0  0  0  0  0  0  0  0  0
   -2.5346   18.4161   44.8350 H   0  0  0  0  0  0  0  0  0  0  0  0
  1 21  1  0
  3 13  2  0
  3 12  1  0
  4 12  1  0
  5 16  1  0
  6 18  1  0
  7 14  1  0
  7  2  1  0
  8 16  2  0
  8 13  1  0
  9 25  1  0
 10  7  2  0
 11 19  1  0
 11 15  1  0
 12  1  2  0
 13 23  1  0
 14 20  1  0
 14  6  1  0
 15  8  1  0
 16 22  1  0
 17  4  1  0
 18  2  1  0
 18 11  1  0
 19  5  1  0
 20 24  1  0
 22  9  2  0
 23 25  2  0
 23 21  1  0
  1 26  1  0
  2 27  1  0
  2 28  1  0
  3 29  1  0
  5 30  1  0
  5 31  1  0
  6 32  1  0
  6 33  1  0
 11 34  1  1
 14 35  1  1
 15 36  1  0
 15 37  1  0
 17 38  1  0
 17 39  1  0
 17 40  1  0
 19 41  1  0
 19 42  1  0
 21 43  1  0
 21 44  1  0
 22 45  1  0
 24 46  1  0
 24 47  1  0
 24 48  1  0
 25 49  1  0
M  END
>  <mol_id>  (91) 
2026-08-24-6tgu-s0-n100-seed1-0096

>  <rmsd_to_ref>  (91) 


$$$$

     RDKit          3D

 38 41  0  0  0  0  0  0  0  0999 V2000
    2.5172   19.1988   39.1755 C   0  0  0  0  0  0  0  0  0  0  0  0
    1.4971   14.2988   42.2341 N   0  0  0  0  0  0  0  0  0  0  0  0
    3.1036   20.3893   37.1086 N   0  0  0  0  0  0  0  0  0  0  0  0
    1.3043   20.3167   40.9177 C   0  0  0  0  0  0  0  0  0  0  0  0
    2.9252   21.6216   36.7358 C   0  0  0  0  0  0  0  0  0  0  0  0
    1.9169   19.0901   40.3980 C   0  0  0  0  0  0  0  0  0  0  0  0
   -0.7127   15.8310   44.7010 C   0  0  0  0  0  0  0  0  0  0  0  0
    1.3579   21.4216   39.9968 C   0  0  0  0  0  0  0  0  0  0  0  0
   -0.1185   21.5022   42.4183 C   0  0  0  0  0  0  0  0  0  0  0  0
    0.8344   15.4390   42.8787 C   0  0  0  0  0  0  0  0  0  0  0  0
   -0.1559   19.8956   44.3036 O   0  0  0  0  0  0  0  0  0  0  0  0
    2.5700   20.1193   38.3095 C   0  0  0  0  0  0  0  0  0  0  0  0
    0.9715   16.8480   42.5640 C   0  0  0  0  0  0  0  0  0  0  0  0
    0.1141   13.6035   43.9205 N   0  0  0  0  0  0  0  0  0  0  0  0
    1.2131   11.7184   42.5017 C   0  0  0  0  0  0  0  0  0  0  0  0
    1.9924   21.2836   38.7861 C   0  0  0  0  0  0  0  0  0  0  0  0
    0.1065   14.9570   43.8957 C   0  0  0  0  0  0  0  0  0  0  0  0
    0.3128   19.3112   43.3309 C   0  0  0  0  0  0  0  0  0  0  0  0
    0.6271   20.2469   42.1452 N   0  0  0  0  0  0  0  0  0  0  0  0
    0.1896   17.7560   43.4524 C   0  0  0  0  0  0  0  0  0  0  0  0
    0.9438   13.1588   42.8943 C   0  0  0  0  0  0  0  0  0  0  0  0
    3.1716   22.2642   35.7667 O   0  0  0  0  0  0  0  0  0  0  0  0
   -0.6352   17.1647   44.4239 C   0  0  0  0  0  0  0  0  0  0  0  0
    2.1774   22.2063   37.7789 O   0  0  0  0  0  0  0  0  0  0  0  0
    3.0717   18.2951   38.8824 H   0  0  0  0  0  0  0  0  0  0  0  0
    3.6037   19.6911   36.5399 H   0  0  0  0  0  0  0  0  0  0  0  0
    1.8945   18.1428   40.9567 H   0  0  0  0  0  0  0  0  0  0  0  0
   -1.3653   15.4422   45.4965 H   0  0  0  0  0  0  0  0  0  0  0  0
    0.8889   22.3803   40.2634 H   0  0  0  0  0  0  0  0  0  0  0  0
   -0.2265   21.6355   43.5048 H   0  0  0  0  0  0  0  0  0  0  0  0
    0.4334   22.3555   41.9973 H   0  0  0  0  0  0  0  0  0  0  0  0
   -1.1145   21.4452   41.9551 H   0  0  0  0  0  0  0  0  0  0  0  0
    1.5994   17.2162   41.7393 H   0  0  0  0  0  0  0  0  0  0  0  0
   -0.4030   13.0072   44.5822 H   0  0  0  0  0  0  0  0  0  0  0  0
    1.3292   11.1068   43.4086 H   0  0  0  0  0  0  0  0  0  0  0  0
    0.3700   11.3366   41.9073 H   0  0  0  0  0  0  0  0  0  0  0  0
    2.1355   11.6674   41.9046 H   0  0  0  0  0  0  0  0  0  0  0  0
   -1.2757   17.8370   45.0137 H   0  0  0  0  0  0  0  0  0  0  0  0
  1  6  1  0
  2 10  1  0
  2 21  2  0
  3 12  1  0
  4 19  1  0
  5  3  1  0
  5 24  1  0
  6  4  2  0
  8  4  1  0
 10 17  1  0
 12 16  1  0
 12  1  2  0
 13 10  2  0
 13 20  1  0
 15 21  1  0
 16  8  2  0
 17 14  1  0
 17  7  2  0
 18 20  1  0
 18 11  2  0
 19  9  1  0
 19 18  1  0
 20 23  2  0
 21 14  1  0
 22  5  2  0
 23  7  1  0
 24 16  1  0
  1 25  1  0
  3 26  1  0
  6 27  1  0
  7 28  1  0
  8 29  1  0
  9 30  1  0
  9 31  1  0
  9 32  1  0
 13 33  1  0
 14 34  1  0
 15 35  1  0
 15 36  1  0
 15 37  1  0
 23 38  1  0
M  END
>  <mol_id>  (92) 
2026-08-24-6tgu-s0-n100-seed1-0097

>  <rmsd_to_ref>  (92) 


$$$$

     RDKit          3D

 39 42  0  0  0  0  0  0  0  0999 V2000
    3.7228   19.2645   38.1898 C   0  0  0  0  0  0  0  0  0  0  0  0
    1.2812   18.8063   40.9965 N   0  0  0  0  0  0  0  0  0  0  0  0
   -0.2576   18.0682   42.8838 C   0  0  1  0  0  0  0  0  0  0  0  0
    2.8624   21.1453   37.3873 C   0  0  0  0  0  0  0  0  0  0  0  0
    2.0708   21.1557   38.4480 C   0  0  0  0  0  0  0  0  0  0  0  0
   -1.1592   14.8408   44.5626 C   0  0  0  0  0  0  0  0  0  0  0  0
    2.1092   20.2054   39.3513 C   0  0  0  0  0  0  0  0  0  0  0  0
   -0.6442   13.6967   44.2285 C   0  0  0  0  0  0  0  0  0  0  0  0
    0.5599   22.1879   40.9805 C   0  0  0  0  0  0  0  0  0  0  0  0
   -0.9684   16.1627   44.1119 C   0  0  0  0  0  0  0  0  0  0  0  0
    3.7488   20.1164   37.1760 N   0  0  0  0  0  0  0  0  0  0  0  0
   -0.1315   16.6326   43.1775 C   0  0  0  0  0  0  0  0  0  0  0  0
    0.4692   13.4883   43.4187 C   0  0  0  0  0  0  0  0  0  0  0  0
    2.9458   19.2457   39.2766 C   0  0  0  0  0  0  0  0  0  0  0  0
    2.9081   22.0447   36.4578 O   0  0  0  0  0  0  0  0  0  0  0  0
    0.8977   15.8087   42.6305 C   0  0  0  0  0  0  0  0  0  0  0  0
   -0.1020   20.2614   41.9925 C   0  0  0  0  0  0  0  0  0  0  0  0
    0.5756   20.9490   41.0423 C   0  0  0  0  0  0  0  0  0  0  0  0
   -1.1584   20.5020   42.7858 C   0  0  0  0  0  0  0  0  0  0  0  0
   -1.5174   19.0474   43.5941 S   0  0  0  0  0  0  0  0  0  0  0  0
    1.3591   19.9473   40.4213 C   0  0  0  0  0  0  0  0  0  0  0  0
    1.0862   14.4696   42.6882 C   0  0  0  0  0  0  0  0  0  0  0  0
    0.3409   18.9115   42.0338 C   0  0  0  0  0  0  0  0  0  0  0  0
    4.4544   18.4454   38.1274 H   0  0  0  0  0  0  0  0  0  0  0  0
   -0.9167   17.8364   42.0341 H   0  0  0  0  0  0  0  0  0  0  0  0
    2.2805   22.0954   38.9799 H   0  0  0  0  0  0  0  0  0  0  0  0
    1.0782   21.0077   37.9978 H   0  0  0  0  0  0  0  0  0  0  0  0
   -1.9028   14.7617   45.3692 H   0  0  0  0  0  0  0  0  0  0  0  0
   -0.3984   13.2061   45.1819 H   0  0  0  0  0  0  0  0  0  0  0  0
   -1.4305   13.3383   43.5478 H   0  0  0  0  0  0  0  0  0  0  0  0
    0.4870   22.6048   41.9959 H   0  0  0  0  0  0  0  0  0  0  0  0
    1.4855   22.5430   40.5039 H   0  0  0  0  0  0  0  0  0  0  0  0
   -0.3068   22.5144   40.3870 H   0  0  0  0  0  0  0  0  0  0  0  0
   -1.6000   16.9200   44.5994 H   0  0  0  0  0  0  0  0  0  0  0  0
    0.8800   12.4696   43.3615 H   0  0  0  0  0  0  0  0  0  0  0  0
    3.0217   18.4638   40.0465 H   0  0  0  0  0  0  0  0  0  0  0  0
    1.6683   16.3545   42.0665 H   0  0  0  0  0  0  0  0  0  0  0  0
   -1.6912   21.4583   42.8931 H   0  0  0  0  0  0  0  0  0  0  0  0
    1.8830   14.1007   42.0256 H   0  0  0  0  0  0  0  0  0  0  0  0
  1 14  1  0
  2 23  2  0
  3 12  1  0
  3 20  1  0
  4  5  1  0
  5  7  1  0
  7 21  1  0
  8  6  1  0
  9 18  1  0
 10  6  2  0
 11  4  1  0
 11  1  2  0
 12 10  1  0
 13  8  1  0
 14  7  2  0
 15  4  2  0
 16 22  1  0
 16 12  2  0
 17 23  1  0
 17 19  2  0
 18 17  1  0
 19 20  1  0
 21  2  1  0
 21 18  2  0
 22 13  2  0
 23  3  1  0
  1 24  1  0
  3 25  1  1
  5 26  1  0
  5 27  1  0
  6 28  1  0
  8 29  1  0
  8 30  1  0
  9 31  1  0
  9 32  1  0
  9 33  1  0
 10 34  1  0
 13 35  1  0
 14 36  1  0
 16 37  1  0
 19 38  1  0
 22 39  1  0
M  END
>  <mol_id>  (93) 
2026-08-24-6tgu-s0-n100-seed1-0098

>  <rmsd_to_ref>  (93) 


$$$$

     RDKit          3D

 46 50  0  0  0  0  0  0  0  0999 V2000
    0.2510   17.9220   43.6560 C   0  0  0  0  0  0  0  0  0  0  0  0
    2.0730   20.2600   39.3730 C   0  0  0  0  0  0  0  0  0  0  0  0
    1.7020   12.9390   42.2780 C   0  0  0  0  0  0  0  0  0  0  0  0
    0.1460   19.3920   43.1340 C   0  0  0  0  0  0  0  0  0  0  0  0
    2.4610   18.8310   39.5220 C   0  0  0  0  0  0  0  0  0  0  0  0
   -0.4760   18.0750   44.9680 C   0  0  0  0  0  0  0  0  0  0  0  0
    0.8840   20.6790   41.3560 C   0  0  0  0  0  0  0  0  0  0  0  0
    1.1140   15.7480   42.4640 C   0  0  0  0  0  0  0  0  0  0  0  0
    2.0450   15.1990   41.5200 C   0  0  0  0  0  0  0  0  0  0  0  0
    3.9340   20.6740   35.8400 N   0  0  0  0  0  0  0  0  0  0  0  0
    3.0720   20.9700   36.5090 C   0  0  0  0  0  0  0  0  0  0  0  0
    2.0960   21.7540   36.5890 O   0  0  0  0  0  0  0  0  0  0  0  0
   -0.3760   20.1710   44.0570 N   0  0  0  0  0  0  0  0  0  0  0  0
    2.3170   18.1770   40.7090 C   0  0  0  0  0  0  0  0  0  0  0  0
   -0.7490   19.4180   45.1620 N   0  0  0  0  0  0  0  0  0  0  0  0
    0.9200   19.4460   42.0500 C   0  0  0  0  0  0  0  0  0  0  0  0
    3.7070   20.0420   37.1360 C   0  0  1  0  0  0  0  0  0  0  0  0
    2.2610   13.8760   41.3880 C   0  0  0  0  0  0  0  0  0  0  0  0
    3.4790   18.5700   37.2050 C   0  0  0  0  0  0  0  0  0  0  0  0
   -0.8430   17.0380   45.9440 C   0  0  0  0  0  0  0  0  0  0  0  0
    0.8570   13.3920   43.2110 C   0  0  0  0  0  0  0  0  0  0  0  0
    1.4350   20.9180   40.2140 C   0  0  0  0  0  0  0  0  0  0  0  0
   -1.7030   17.3400   47.1040 C   0  0  0  0  0  0  0  0  0  0  0  0
    0.6070   14.8090   43.3750 C   0  0  0  0  0  0  0  0  0  0  0  0
    2.8270   17.9780   38.3570 C   0  0  0  0  0  0  0  0  0  0  0  0
    0.8270   17.1600   42.5570 C   0  0  0  0  0  0  0  0  0  0  0  0
    1.4510   18.3300   41.6710 C   0  0  0  0  0  0  0  0  0  0  0  0
    2.3735   20.7739   38.4480 H   0  0  0  0  0  0  0  0  0  0  0  0
    1.9518   11.8700   42.2085 H   0  0  0  0  0  0  0  0  0  0  0  0
    0.3380   21.5067   41.8323 H   0  0  0  0  0  0  0  0  0  0  0  0
    2.6077   15.8899   40.8750 H   0  0  0  0  0  0  0  0  0  0  0  0
    4.4744   20.7748   34.9690 H   0  0  0  0  0  0  0  0  0  0  0  0
    3.0588   17.3841   40.8854 H   0  0  0  0  0  0  0  0  0  0  0  0
    4.0854   19.9135   38.1608 H   0  0  0  0  0  0  0  0  0  0  0  0
    2.8920   13.5174   40.5614 H   0  0  0  0  0  0  0  0  0  0  0  0
    3.8082   17.9277   36.3749 H   0  0  0  0  0  0  0  0  0  0  0  0
   -1.3537   16.2455   45.3773 H   0  0  0  0  0  0  0  0  0  0  0  0
    0.1223   16.8088   46.4191 H   0  0  0  0  0  0  0  0  0  0  0  0
    0.3420   12.6742   43.8664 H   0  0  0  0  0  0  0  0  0  0  0  0
    2.1295   21.7372   40.4518 H   0  0  0  0  0  0  0  0  0  0  0  0
    0.4894   20.8778   39.6535 H   0  0  0  0  0  0  0  0  0  0  0  0
   -1.1473   17.1449   48.0331 H   0  0  0  0  0  0  0  0  0  0  0  0
   -2.0039   18.3976   47.0719 H   0  0  0  0  0  0  0  0  0  0  0  0
   -2.5990   16.7027   47.0719 H   0  0  0  0  0  0  0  0  0  0  0  0
    0.0082   15.1558   44.2301 H   0  0  0  0  0  0  0  0  0  0  0  0
    2.6031   16.9011   38.3705 H   0  0  0  0  0  0  0  0  0  0  0  0
  1  6  1  0
  2  5  2  0
  2 22  1  0
  3 21  1  0
  4  1  1  0
  4 13  2  0
  5 14  1  0
  6 15  2  0
  6 20  1  0
  7 16  2  0
  8 26  1  0
  8 24  1  0
  9  8  2  0
 10 11  1  0
 10 17  1  0
 11 12  2  0
 11 17  1  0
 13 15  1  0
 14 27  2  0
 16  4  1  0
 17 19  1  0
 18  9  1  0
 18  3  2  0
 19 25  2  3
 20 23  1  0
 21 24  2  0
 22  7  1  0
 25  5  1  0
 26  1  2  0
 27 16  1  0
 27 26  1  0
  2 28  1  0
  3 29  1  0
  7 30  1  0
  9 31  1  0
 10 32  1  0
 14 33  1  0
 17 34  1  1
 18 35  1  0
 19 36  1  0
 20 37  1  0
 20 38  1  0
 21 39  1  0
 22 40  1  0
 22 41  1  0
 23 42  1  0
 23 43  1  0
 23 44  1  0
 24 45  1  0
 25 46  1  0
M  END
>  <mol_id>  (94) 
2026-08-24-6tgu-s0-n100-seed1-0099

>  <rmsd_to_ref>  (94) 


$$$$

     RDKit          3D

 43 46  0  0  0  0  0  0  0  0999 V2000
   -1.0350   17.5270   44.4430 N   0  0  0  0  0  0  0  0  0  0  0  0
    2.3880   16.2350   40.5200 C   0  0  0  0  0  0  0  0  0  0  0  0
   -1.0580   19.9780   44.1650 N   0  0  0  0  0  0  0  0  0  0  0  0
    2.7580   18.1900   39.5880 O   0  0  0  0  0  0  0  0  0  0  0  0
   -0.5220   20.9020   43.3780 C   0  0  0  0  0  0  0  0  0  0  0  0
    3.6060   20.1950   36.9970 O   0  0  0  0  0  0  0  0  0  0  0  0
    2.9440   15.6380   39.3520 C   0  0  0  0  0  0  0  0  0  0  0  0
    3.8930   17.5090   37.5170 C   0  0  0  0  0  0  0  0  0  0  0  0
    2.9420   14.3080   39.6470 N   0  0  0  0  0  0  0  0  0  0  0  0
    2.0940   17.7670   40.6600 C   0  0  1  0  0  0  0  0  0  0  0  0
    3.6040   20.7730   35.9990 O   0  0  0  0  0  0  0  0  0  0  0  0
    4.1570   15.1390   37.2230 C   0  0  0  0  0  0  0  0  0  0  0  0
    1.4070   19.0570   40.8450 N   0  0  0  0  0  0  0  0  0  0  0  0
    2.0950   15.1650   41.3950 C   0  0  0  0  0  0  0  0  0  0  0  0
   -0.4680   16.5520   43.7830 C   0  0  0  0  0  0  0  0  0  0  0  0
   -0.6680   18.7170   43.8630 C   0  0  0  0  0  0  0  0  0  0  0  0
    3.3640   18.8030   37.0930 C   0  0  1  0  0  0  0  0  0  0  0  0
    2.8730   19.0620   38.8150 C   0  0  0  0  0  0  0  0  0  0  0  0
    3.4930   16.1910   38.1060 C   0  0  1  0  0  0  0  0  0  0  0  0
    0.2820   16.9870   42.7480 N   0  0  0  0  0  0  0  0  0  0  0  0
    0.3160   20.7320   42.2990 C   0  0  0  0  0  0  0  0  0  0  0  0
    2.4650   14.0920   40.8630 N   0  0  0  0  0  0  0  0  0  0  0  0
    0.1770   18.3870   42.7380 C   0  0  0  0  0  0  0  0  0  0  0  0
    0.6270   19.3970   41.9140 C   0  0  0  0  0  0  0  0  0  0  0  0
   -0.7819   21.9431   43.6200 H   0  0  0  0  0  0  0  0  0  0  0  0
    4.6578   17.8299   38.2395 H   0  0  0  0  0  0  0  0  0  0  0  0
    3.8041   17.1091   36.4961 H   0  0  0  0  0  0  0  0  0  0  0  0
    1.8014   17.4811   41.6811 H   0  0  0  0  0  0  0  0  0  0  0  0
    3.6006   21.7461   36.1812 H   0  0  0  0  0  0  0  0  0  0  0  0
    4.6370   14.3785   37.8565 H   0  0  0  0  0  0  0  0  0  0  0  0
    3.3969   14.6606   36.5879 H   0  0  0  0  0  0  0  0  0  0  0  0
    4.9159   15.6193   36.5879 H   0  0  0  0  0  0  0  0  0  0  0  0
    2.1515   19.7682   40.8147 H   0  0  0  0  0  0  0  0  0  0  0  0
    0.6859   18.9828   40.1132 H   0  0  0  0  0  0  0  0  0  0  0  0
    2.6289   15.3089   42.3459 H   0  0  0  0  0  0  0  0  0  0  0  0
    1.0132   15.1298   41.5913 H   0  0  0  0  0  0  0  0  0  0  0  0
   -0.5889   15.4900   44.0430 H   0  0  0  0  0  0  0  0  0  0  0  0
    3.1294   18.5875   36.0401 H   0  0  0  0  0  0  0  0  0  0  0  0
    3.6200   19.7473   39.2420 H   0  0  0  0  0  0  0  0  0  0  0  0
    1.8286   19.3865   38.6967 H   0  0  0  0  0  0  0  0  0  0  0  0
    2.5836   16.7057   38.4495 H   0  0  0  0  0  0  0  0  0  0  0  0
   -0.1552   21.2232   41.4349 H   0  0  0  0  0  0  0  0  0  0  0  0
    1.2762   21.1632   42.6183 H   0  0  0  0  0  0  0  0  0  0  0  0
  2 10  1  0
  2 14  1  0
  4 10  1  0
  5  3  2  0
  7  9  1  0
  7  2  2  0
  8 19  1  0
  9 22  2  0
 10 13  1  0
 11  6  1  0
 13 24  1  0
 15  1  1  0
 16  3  1  0
 16  1  2  0
 17  6  1  0
 17  8  1  0
 17 18  1  0
 18  4  1  0
 19 12  1  0
 19  7  1  0
 20 15  2  0
 21  5  1  0
 22 14  1  0
 23 20  1  0
 23 16  1  0
 24 21  1  0
 24 23  2  0
  5 25  1  0
  8 26  1  0
  8 27  1  0
 10 28  1  1
 11 29  1  0
 12 30  1  0
 12 31  1  0
 12 32  1  0
 13 33  1  0
 13 34  1  0
 14 35  1  0
 14 36  1  0
 15 37  1  0
 17 38  1  6
 18 39  1  0
 18 40  1  0
 19 41  1  6
 21 42  1  0
 21 43  1  0
M  CHG  1  13   1
M  END
>  <mol_id>  (95) 
2026-08-24-6tgu-s0-n100-seed1-0100

>  <rmsd_to_ref>  (95) 


$$$$
