
     RDKit          3D

 61 64  0  0  0  0  0  0  0  0999 V2000
    2.0520   18.3096   40.8584 C   0  0  0  0  0  0  0  0  0  0  0  0
    1.3672   15.8200   41.5264 C   0  0  0  0  0  0  0  0  0  0  0  0
    2.9960   17.4875   37.4377 C   0  0  0  0  0  0  0  0  0  0  0  0
   -0.5404   11.8706   45.5316 C   0  0  0  0  0  0  0  0  0  0  0  0
    0.9230   16.8995   42.4581 C   0  0  0  0  0  0  0  0  0  0  0  0
    1.2701   18.0834   42.0446 C   0  0  0  0  0  0  0  0  0  0  0  0
   -0.4819   14.2355   44.8907 N   0  0  0  0  0  0  0  0  0  0  0  0
    3.8920   19.7593   35.4858 N   0  0  0  0  0  0  0  0  0  0  0  0
    0.4133   14.1714   43.9937 O   0  0  0  0  0  0  0  0  0  0  0  0
    2.0210   20.4996   38.6166 C   0  0  0  0  0  0  0  0  0  0  0  0
    3.0614   20.1993   36.3497 C   0  0  0  0  0  0  0  0  0  0  0  0
   -1.3649   13.0059   44.9017 C   0  0  0  0  0  0  0  0  0  0  0  0
    2.6046   19.8195   37.4887 C   0  0  1  0  0  0  0  0  0  0  0  0
    0.0965   19.4723   43.5391 C   0  0  0  0  0  0  0  0  0  0  0  0
   -0.3274   18.4149   44.3769 C   0  0  0  0  0  0  0  0  0  0  0  0
   -0.1380   17.1557   47.2854 S   0  0  0  0  0  0  0  0  0  0  0  0
   -0.8669   15.5811   49.4928 C   0  0  0  0  0  0  0  0  0  0  0  0
    0.0417   16.9600   44.2255 C   0  0  0  0  0  0  0  0  0  0  0  0
    2.1290   16.0493   40.4670 C   0  0  0  0  0  0  0  0  0  0  0  0
   -0.8775   14.7524   47.1479 N   0  0  0  0  0  0  0  0  0  0  0  0
    2.4940   21.2152   36.0014 N   0  0  0  0  0  0  0  0  0  0  0  0
   -0.6789   18.8512   45.5039 O   0  0  0  0  0  0  0  0  0  0  0  0
   -2.2649   15.1896   49.9219 C   0  0  0  0  0  0  0  0  0  0  0  0
    2.5429   17.3648   40.1020 C   0  0  0  0  0  0  0  0  0  0  0  0
   -0.5494   15.1662   45.9163 C   0  0  1  0  0  0  0  0  0  0  0  0
    2.7524   19.0956   38.7029 C   0  0  2  0  0  0  0  0  0  0  0  0
    2.9654   21.6207   34.9104 O   0  0  0  0  0  0  0  0  0  0  0  0
   -0.2752   16.4471   45.7091 N   0  0  0  0  0  0  0  0  0  0  0  0
   -0.6951   15.6631   48.0648 C   0  0  0  0  0  0  0  0  0  0  0  0
    0.8699   19.2716   42.5474 C   0  0  0  0  0  0  0  0  0  0  0  0
    3.8790   20.7495   34.5638 N   0  0  0  0  0  0  0  0  0  0  0  0
    2.9098   17.7594   38.7210 N   0  0  0  0  0  0  0  0  0  0  0  0
    2.2503   19.3519   40.5680 H   0  0  0  0  0  0  0  0  0  0  0  0
    1.0472   14.7873   41.7290 H   0  0  0  0  0  0  0  0  0  0  0  0
    3.5786   16.5652   37.2967 H   0  0  0  0  0  0  0  0  0  0  0  0
    1.9863   17.3504   37.0234 H   0  0  0  0  0  0  0  0  0  0  0  0
    3.4952   18.3194   36.9194 H   0  0  0  0  0  0  0  0  0  0  0  0
   -0.5424   11.9797   46.6262 H   0  0  0  0  0  0  0  0  0  0  0  0
   -0.9831   10.9012   45.2590 H   0  0  0  0  0  0  0  0  0  0  0  0
    0.4939   11.9188   45.1602 H   0  0  0  0  0  0  0  0  0  0  0  0
    0.3657   16.7148   43.3883 H   0  0  0  0  0  0  0  0  0  0  0  0
    1.3004   14.0640   44.4199 H   0  0  0  0  0  0  0  0  0  0  0  0
    0.9287   20.5711   38.7253 H   0  0  0  0  0  0  0  0  0  0  0  0
    2.1174   21.4846   39.0966 H   0  0  0  0  0  0  0  0  0  0  0  0
   -2.2686   13.1942   45.4998 H   0  0  0  0  0  0  0  0  0  0  0  0
   -1.6853   12.7418   43.8830 H   0  0  0  0  0  0  0  0  0  0  0  0
    2.5292   19.4622   36.4511 H   0  0  0  0  0  0  0  0  0  0  0  0
   -0.2506   20.4947   43.7495 H   0  0  0  0  0  0  0  0  0  0  0  0
   -0.6345   16.5649   49.9265 H   0  0  0  0  0  0  0  0  0  0  0  0
   -0.1905   14.7908   49.8504 H   0  0  0  0  0  0  0  0  0  0  0  0
   -0.5837   16.4545   43.4749 H   0  0  0  0  0  0  0  0  0  0  0  0
    1.0677   16.7726   43.8760 H   0  0  0  0  0  0  0  0  0  0  0  0
    2.4525   15.1985   39.8493 H   0  0  0  0  0  0  0  0  0  0  0  0
    1.7365   21.6768   36.5247 H   0  0  0  0  0  0  0  0  0  0  0  0
   -2.3017   15.1049   51.0181 H   0  0  0  0  0  0  0  0  0  0  0  0
   -2.9791   15.9573   49.5893 H   0  0  0  0  0  0  0  0  0  0  0  0
   -2.5297   14.2222   49.4703 H   0  0  0  0  0  0  0  0  0  0  0  0
   -1.6122   15.3377   45.6907 H   0  0  0  0  0  0  0  0  0  0  0  0
    3.2096   18.6859   39.6156 H   0  0  0  0  0  0  0  0  0  0  0  0
    1.2564   20.1689   42.0420 H   0  0  0  0  0  0  0  0  0  0  0  0
    4.4839   20.8078   33.7322 H   0  0  0  0  0  0  0  0  0  0  0  0
  1  6  2  0
  2  5  2  0
  3 32  1  0
  6 30  1  0
  6  5  1  0
  8 11  2  0
  9  7  1  0
 10 26  1  0
 12  7  1  0
 12  4  1  0
 13 11  1  0
 13 10  1  0
 13 26  1  0
 14 15  1  0
 15 22  2  0
 16 29  1  0
 17 23  1  0
 18 15  1  0
 18 28  1  0
 19  2  1  0
 20 29  2  0
 21 11  1  0
 24 19  2  0
 24  1  1  0
 25  7  1  0
 25 20  1  0
 26 32  1  0
 27 21  1  0
 28 25  1  0
 28 16  1  0
 29 17  1  0
 30 14  2  3
 31 27  1  0
 31  8  1  0
 32 24  1  0
  1 33  1  0
  2 34  1  0
  3 35  1  0
  3 36  1  0
  3 37  1  0
  4 38  1  0
  4 39  1  0
  4 40  1  0
  5 41  1  0
  9 42  1  0
 10 43  1  0
 10 44  1  0
 12 45  1  0
 12 46  1  0
 13 47  1  6
 14 48  1  0
 17 49  1  0
 17 50  1  0
 18 51  1  0
 18 52  1  0
 19 53  1  0
 21 54  1  0
 23 55  1  0
 23 56  1  0
 23 57  1  0
 25 58  1  6
 26 59  1  1
 30 60  1  0
 31 61  1  0
M  END
>  <mol_id>  (1) 
2026-08-23-6tgu-s0-n100-prep-0001

>  <rmsd_to_ref>  (1) 


$$$$

     RDKit          3D

 35 38  0  0  0  0  0  0  0  0999 V2000
   -0.3894   16.7630   44.9654 C   0  0  0  0  0  0  0  0  0  0  0  0
    0.4112   19.8789   41.7939 N   0  0  0  0  0  0  0  0  0  0  0  0
    1.6910   16.3603   41.0424 C   0  0  0  0  0  0  0  0  0  0  0  0
    1.0453   16.2257   42.4307 C   0  0  0  0  0  0  0  0  0  0  0  0
   -0.9576   15.6257   44.2187 N   0  0  0  0  0  0  0  0  0  0  0  0
    2.8346   16.0276   38.3598 O   0  0  0  0  0  0  0  0  0  0  0  0
    0.7634   20.7346   40.9005 C   0  0  0  0  0  0  0  0  0  0  0  0
    3.3404   17.8944   37.1947 C   0  0  0  0  0  0  0  0  0  0  0  0
    3.8166   16.9248   36.3716 N   0  0  0  0  0  0  0  0  0  0  0  0
    1.4857   20.7020   39.7517 C   0  0  0  0  0  0  0  0  0  0  0  0
    0.8763   18.5637   41.7577 C   0  0  0  0  0  0  0  0  0  0  0  0
    2.7211   17.3689   38.3865 C   0  0  0  0  0  0  0  0  0  0  0  0
    3.4418   15.8165   37.0382 C   0  0  0  0  0  0  0  0  0  0  0  0
   -0.4631   19.0388   44.3245 O   0  0  0  0  0  0  0  0  0  0  0  0
    2.0764   18.1921   39.3702 C   0  0  0  0  0  0  0  0  0  0  0  0
    2.6968   20.0637   37.6913 C   0  0  0  0  0  0  0  0  0  0  0  0
    3.3149   19.3011   36.8329 N   0  0  0  0  0  0  0  0  0  0  0  0
    2.1227   19.6685   38.9640 C   0  0  0  0  0  0  0  0  0  0  0  0
    1.5454   17.8540   40.6657 C   0  0  0  0  0  0  0  0  0  0  0  0
   -0.0815   17.9634   44.0243 C   0  0  0  0  0  0  0  0  0  0  0  0
    3.4383   14.3960   36.5044 C   0  0  0  0  0  0  0  0  0  0  0  0
    0.5992   17.7199   42.8192 C   0  0  0  0  0  0  0  0  0  0  0  0
   -1.1106   17.0845   45.7312 H   0  0  0  0  0  0  0  0  0  0  0  0
    0.5530   16.4363   45.4292 H   0  0  0  0  0  0  0  0  0  0  0  0
    2.1574   15.5639   40.4438 H   0  0  0  0  0  0  0  0  0  0  0  0
    0.9168   15.3098   43.0262 H   0  0  0  0  0  0  0  0  0  0  0  0
   -1.2352   14.8857   44.8792 H   0  0  0  0  0  0  0  0  0  0  0  0
   -1.7831   15.9407   43.6893 H   0  0  0  0  0  0  0  0  0  0  0  0
   -0.2516   15.2563   43.5661 H   0  0  0  0  0  0  0  0  0  0  0  0
    0.3855   21.7435   41.1226 H   0  0  0  0  0  0  0  0  0  0  0  0
    1.6190   21.7023   39.3140 H   0  0  0  0  0  0  0  0  0  0  0  0
    2.5997   21.1254   37.4203 H   0  0  0  0  0  0  0  0  0  0  0  0
    3.5175   13.6888   37.3433 H   0  0  0  0  0  0  0  0  0  0  0  0
    2.5020   14.2122   35.9572 H   0  0  0  0  0  0  0  0  0  0  0  0
    4.2929   14.2572   35.8259 H   0  0  0  0  0  0  0  0  0  0  0  0
  2 11  1  0
  3  4  2  0
  4 22  1  0
  5  1  1  0
  7  2  2  0
  8 12  2  0
  9 13  2  0
  9  8  1  0
 10  7  1  0
 11 22  2  0
 12  6  1  0
 12 15  1  0
 13  6  1  0
 15 19  2  0
 16 18  1  0
 17  8  1  0
 17 16  2  0
 18 15  1  0
 18 10  2  0
 19  3  1  0
 19 11  1  0
 20 14  2  0
 20  1  1  0
 21 13  1  0
 22 20  1  0
  1 23  1  0
  1 24  1  0
  3 25  1  0
  4 26  1  0
  5 27  1  0
  5 28  1  0
  5 29  1  0
  7 30  1  0
 10 31  1  0
 16 32  1  0
 21 33  1  0
 21 34  1  0
 21 35  1  0
M  CHG  1   5   1
M  END
>  <mol_id>  (2) 
2026-08-23-6tgu-s0-n100-prep-0002

>  <rmsd_to_ref>  (2) 


$$$$

     RDKit          3D

 35 38  0  0  0  0  0  0  0  0999 V2000
    3.0886   20.8039   37.8615 C   0  0  2  0  0  0  0  0  0  0  0  0
   -0.5566   16.6709   43.0347 C   0  0  0  0  0  0  0  0  0  0  0  0
   -1.3582   17.6355   43.4316 N   0  0  0  0  0  0  0  0  0  0  0  0
    3.0198   17.7020   38.3697 C   0  0  0  0  0  0  0  0  0  0  0  0
    1.7946   19.4247   39.6027 C   0  0  1  0  0  0  0  0  0  0  0  0
    3.9219   18.6842   37.6520 C   0  0  0  0  0  0  0  0  0  0  0  0
    1.8061   16.0118   39.7081 N   0  0  0  0  0  0  0  0  0  0  0  0
    1.5563   20.6347   39.8593 C   0  0  0  0  0  0  0  0  0  0  0  0
    2.1638   13.3822   39.3095 Cl  0  0  0  0  0  0  0  0  0  0  0  0
    3.6313   16.5845   37.5542 C   0  0  0  0  0  0  0  0  0  0  0  0
    2.4698   15.0612   38.9541 C   0  0  0  0  0  0  0  0  0  0  0  0
    2.3944   21.8872   37.3556 O   0  0  0  0  0  0  0  0  0  0  0  0
    0.4128   17.9596   41.2096 C   0  0  0  0  0  0  0  0  0  0  0  0
    1.3187   18.3304   40.1625 C   0  0  1  0  0  0  0  0  0  0  0  0
   -1.2720   18.7526   42.7587 C   0  0  0  0  0  0  0  0  0  0  0  0
    2.0198   17.1643   39.4250 C   0  0  0  0  0  0  0  0  0  0  0  0
    3.4496   19.7899   36.9562 O   0  0  0  0  0  0  0  0  0  0  0  0
   -0.4669   18.9384   41.6674 C   0  0  0  0  0  0  0  0  0  0  0  0
    2.2307   20.1583   38.8130 N   0  0  0  0  0  0  0  0  0  0  0  0
    0.3149   16.7796   42.0197 C   0  0  0  0  0  0  0  0  0  0  0  0
    3.2869   15.3503   37.8550 C   0  0  0  0  0  0  0  0  0  0  0  0
    4.0251   21.2340   38.2460 H   0  0  0  0  0  0  0  0  0  0  0  0
   -0.6036   15.7114   43.5704 H   0  0  0  0  0  0  0  0  0  0  0  0
    2.0409   18.3551   39.6742 H   0  0  0  0  0  0  0  0  0  0  0  0
    4.6053   19.0800   38.4177 H   0  0  0  0  0  0  0  0  0  0  0  0
    4.3077   18.0620   36.8310 H   0  0  0  0  0  0  0  0  0  0  0  0
    0.5453   21.0518   39.7411 H   0  0  0  0  0  0  0  0  0  0  0  0
    1.7250   21.3418   40.6848 H   0  0  0  0  0  0  0  0  0  0  0  0
    4.3387   16.7958   36.7388 H   0  0  0  0  0  0  0  0  0  0  0  0
    1.8200   22.2714   38.0646 H   0  0  0  0  0  0  0  0  0  0  0  0
    2.1492   18.3381   40.8838 H   0  0  0  0  0  0  0  0  0  0  0  0
   -1.8881   19.6008   43.0918 H   0  0  0  0  0  0  0  0  0  0  0  0
   -0.5163   19.8975   41.1311 H   0  0  0  0  0  0  0  0  0  0  0  0
    0.9797   15.9311   41.8005 H   0  0  0  0  0  0  0  0  0  0  0  0
    3.6506   14.5244   37.2261 H   0  0  0  0  0  0  0  0  0  0  0  0
  1 12  1  0
  1 19  1  0
  2  3  2  0
  4 16  2  0
  5  8  1  0
  5 14  1  0
  6  4  1  0
 10  4  1  0
 10 21  2  0
 11  7  2  0
 11  9  1  0
 13 18  1  0
 13 20  2  0
 14 13  1  0
 15  3  1  0
 16 14  1  0
 16  7  1  0
 17  1  1  0
 17  6  1  0
 18 15  2  0
 19  8  1  0
 19  5  1  0
 20  2  1  0
 21 11  1  0
  1 22  1  1
  2 23  1  0
  5 24  1  1
  6 25  1  0
  6 26  1  0
  8 27  1  0
  8 28  1  0
 10 29  1  0
 12 30  1  0
 14 31  1  1
 15 32  1  0
 18 33  1  0
 20 34  1  0
 21 35  1  0
M  END
>  <mol_id>  (3) 
2026-08-23-6tgu-s0-n100-prep-0003

>  <rmsd_to_ref>  (3) 


$$$$

     RDKit          3D

 24 25  0  0  0  0  0  0  0  0999 V2000
    2.5973   20.5140   37.7736 C   0  0  0  0  0  0  0  0  0  0  0  0
   -0.6878   17.1593   43.3032 C   0  0  0  0  0  0  0  0  0  0  0  0
    1.8767   18.0183   40.3791 C   0  0  0  0  0  0  0  0  0  0  0  0
    3.9030   18.4175   36.7297 C   0  0  0  0  0  0  0  0  0  0  0  0
    3.8207   19.5567   36.0752 N   0  0  0  0  0  0  0  0  0  0  0  0
    2.7213   19.3808   38.5838 C   0  0  0  0  0  0  0  0  0  0  0  0
    1.4380   20.3523   40.5100 C   0  0  0  0  0  0  0  0  0  0  0  0
    0.6696   20.1854   41.6279 C   0  0  0  0  0  0  0  0  0  0  0  0
   -0.3496   18.6015   43.1104 O   0  0  0  0  0  0  0  0  0  0  0  0
    0.5097   18.8920   42.1044 C   0  0  0  0  0  0  0  0  0  0  0  0
    2.0015   19.2570   39.8089 C   0  0  0  0  0  0  0  0  0  0  0  0
    1.1574   17.7810   41.5797 C   0  0  0  0  0  0  0  0  0  0  0  0
    3.1699   20.6112   36.5850 N   0  0  0  0  0  0  0  0  0  0  0  0
    3.3765   18.3067   38.0206 C   0  0  0  0  0  0  0  0  0  0  0  0
    1.9983   21.3606   38.1404 H   0  0  0  0  0  0  0  0  0  0  0  0
   -0.7863   16.9463   44.3780 H   0  0  0  0  0  0  0  0  0  0  0  0
   -1.6377   16.9344   42.7963 H   0  0  0  0  0  0  0  0  0  0  0  0
    0.1117   16.5351   42.8776 H   0  0  0  0  0  0  0  0  0  0  0  0
    2.3582   17.1636   39.8815 H   0  0  0  0  0  0  0  0  0  0  0  0
    4.3879   17.5494   36.2594 H   0  0  0  0  0  0  0  0  0  0  0  0
    1.6255   21.3718   40.1417 H   0  0  0  0  0  0  0  0  0  0  0  0
    0.1967   21.0422   42.1299 H   0  0  0  0  0  0  0  0  0  0  0  0
    1.1161   16.7915   42.0586 H   0  0  0  0  0  0  0  0  0  0  0  0
    3.4846   17.3678   38.5833 H   0  0  0  0  0  0  0  0  0  0  0  0
  1  6  2  0
  3 12  1  0
  4 14  2  0
  5 13  2  0
  5  4  1  0
  6 11  1  0
  7  8  2  0
  8 10  1  0
  9  2  1  0
 10  9  1  0
 11  3  2  0
 11  7  1  0
 12 10  2  0
 13  1  1  0
 14  6  1  0
  1 15  1  0
  2 16  1  0
  2 17  1  0
  2 18  1  0
  3 19  1  0
  4 20  1  0
  7 21  1  0
  8 22  1  0
 12 23  1  0
 14 24  1  0
M  END
>  <mol_id>  (4) 
2026-08-23-6tgu-s0-n100-prep-0004

>  <rmsd_to_ref>  (4) 


$$$$

     RDKit          3D

 30 32  0  0  0  0  0  0  0  0999 V2000
    0.3706   16.9786   42.9950 C   0  0  0  0  0  0  0  0  0  0  0  0
   -0.0751   19.1996   42.7421 C   0  0  0  0  0  0  0  0  0  0  0  0
    1.5207   19.5958   40.5020 C   0  0  0  0  0  0  0  0  0  0  0  0
    3.9007   19.2928   37.4424 C   0  0  0  0  0  0  0  0  0  0  0  0
    1.8404   20.8490   38.3610 C   0  0  0  0  0  0  0  0  0  0  0  0
    1.4194   18.2893   41.0667 C   0  0  0  0  0  0  0  0  0  0  0  0
    0.9629   15.6109   42.7244 C   0  0  0  0  0  0  0  0  0  0  0  0
    0.4681   14.6680   43.6664 N   0  0  0  0  0  0  0  0  0  0  0  0
   -0.5430   17.4053   43.9926 C   0  0  0  0  0  0  0  0  0  0  0  0
    0.6721   18.0996   42.1989 C   0  0  0  0  0  0  0  0  0  0  0  0
    3.6011   20.3764   36.7636 N   0  0  0  0  0  0  0  0  0  0  0  0
    0.8839   20.5956   41.1132 C   0  0  0  0  0  0  0  0  0  0  0  0
    3.1439   18.9363   38.6097 C   0  0  0  0  0  0  0  0  0  0  0  0
   -0.7578   18.8033   43.7796 N   0  0  0  0  0  0  0  0  0  0  0  0
    2.5582   21.1347   37.1692 C   0  0  0  0  0  0  0  0  0  0  0  0
    0.0844   20.4089   42.2300 N   0  0  0  0  0  0  0  0  0  0  0  0
    2.2451   19.7410   39.1615 C   0  0  0  0  0  0  0  0  0  0  0  0
    4.7352   18.6551   37.1153 H   0  0  0  0  0  0  0  0  0  0  0  0
    0.9857   21.4728   38.6617 H   0  0  0  0  0  0  0  0  0  0  0  0
    1.9376   17.4406   40.5962 H   0  0  0  0  0  0  0  0  0  0  0  0
    0.6871   15.2897   41.7091 H   0  0  0  0  0  0  0  0  0  0  0  0
    2.0577   15.6689   42.8147 H   0  0  0  0  0  0  0  0  0  0  0  0
    0.5702   15.0477   44.6183 H   0  0  0  0  0  0  0  0  0  0  0  0
   -0.5269   14.4820   43.4758 H   0  0  0  0  0  0  0  0  0  0  0  0
    1.0025   13.7910   43.5874 H   0  0  0  0  0  0  0  0  0  0  0  0
   -0.9978   16.7826   44.7771 H   0  0  0  0  0  0  0  0  0  0  0  0
    0.9983   21.6139   40.7132 H   0  0  0  0  0  0  0  0  0  0  0  0
    3.3173   17.9511   39.0672 H   0  0  0  0  0  0  0  0  0  0  0  0
    2.2565   21.9983   36.5583 H   0  0  0  0  0  0  0  0  0  0  0  0
   -0.3878   21.2153   42.6630 H   0  0  0  0  0  0  0  0  0  0  0  0
  1  9  2  0
  2 14  2  0
  3  6  1  0
  3 12  2  0
  4 13  1  0
  5 17  1  0
  6 10  2  0
  7  1  1  0
  7  8  1  0
 10  2  1  0
 10  1  1  0
 11 15  1  0
 11  4  2  0
 12 16  1  0
 13 17  2  0
 14  9  1  0
 15  5  2  0
 16  2  1  0
 17  3  1  0
  4 18  1  0
  5 19  1  0
  6 20  1  0
  7 21  1  0
  7 22  1  0
  8 23  1  0
  8 24  1  0
  8 25  1  0
  9 26  1  0
 12 27  1  0
 13 28  1  0
 15 29  1  0
 16 30  1  0
M  CHG  1   8   1
M  END
>  <mol_id>  (5) 
2026-08-23-6tgu-s0-n100-prep-0005

>  <rmsd_to_ref>  (5) 


$$$$

     RDKit          3D

 52 56  0  0  0  0  0  0  0  0999 V2000
   -1.2209   19.8919   44.0139 N   0  0  0  0  0  0  0  0  0  0  0  0
    2.9597   19.0278   38.8950 C   0  0  2  0  0  0  0  0  0  0  0  0
   -1.4123   13.8940   44.4367 C   0  0  0  0  0  0  0  0  0  0  0  0
    1.9332   18.9878   39.9978 C   0  0  0  0  0  0  0  0  0  0  0  0
    3.3198   16.8887   37.8013 C   0  0  1  0  0  0  0  0  0  0  0  0
   -0.6550   19.4029   41.7629 C   0  0  2  0  0  0  0  0  0  0  0  0
    2.4274   21.5328   36.5751 C   0  0  0  0  0  0  0  0  0  0  0  0
    1.4738   17.8088   40.5137 N   0  0  0  0  0  0  0  0  0  0  0  0
    3.4168   20.8282   36.1672 N   0  0  0  0  0  0  0  0  0  0  0  0
   -0.9677   20.3262   42.7537 C   0  0  0  0  0  0  0  0  0  0  0  0
    3.8792   16.0744   36.7818 C   0  0  0  0  0  0  0  0  0  0  0  0
   -1.9780   13.5731   45.7707 C   0  0  0  0  0  0  0  0  0  0  0  0
   -0.3222   15.4533   42.4928 C   0  0  0  0  0  0  0  0  0  0  0  0
    0.4756   15.9671   41.5044 C   0  0  0  0  0  0  0  0  0  0  0  0
    2.0059   15.5912   39.4716 C   0  0  0  0  0  0  0  0  0  0  0  0
    2.2879   14.3937   38.7220 O   0  0  0  0  0  0  0  0  0  0  0  0
   -1.0473   18.5307   44.3096 C   0  0  0  0  0  0  0  0  0  0  0  0
   -0.2133   18.1394   42.1102 C   0  0  0  0  0  0  0  0  0  0  0  0
    3.7049   19.8557   37.0343 N   0  0  0  0  0  0  0  0  0  0  0  0
   -0.7212   17.6807   43.4000 C   0  0  0  0  0  0  0  0  0  0  0  0
   -0.9100   21.5810   42.4503 O   0  0  0  0  0  0  0  0  0  0  0  0
    2.4199   16.7483   38.3714 O   0  0  0  0  0  0  0  0  0  0  0  0
    0.5898   17.3298   41.3778 C   0  0  0  0  0  0  0  0  0  0  0  0
    2.8830   20.0336   37.9663 C   0  0  0  0  0  0  0  0  0  0  0  0
   -1.2946   15.3284   44.4938 C   0  0  0  0  0  0  0  0  0  0  0  0
    1.1552   15.0373   40.6174 C   0  0  0  0  0  0  0  0  0  0  0  0
    2.0838   21.0963   37.8043 C   0  0  0  0  0  0  0  0  0  0  0  0
    4.0428   17.9910   38.4251 C   0  0  0  0  0  0  0  0  0  0  0  0
   -1.6735   15.8792   45.7076 N   0  0  0  0  0  0  0  0  0  0  0  0
   -2.1218   14.7315   46.4478 N   0  0  0  0  0  0  0  0  0  0  0  0
    1.7343   20.1507   40.5179 O   0  0  0  0  0  0  0  0  0  0  0  0
   -0.7854   16.1688   43.4558 C   0  0  0  0  0  0  0  0  0  0  0  0
   -0.8748   19.7992   40.5246 F   0  0  0  0  0  0  0  0  0  0  0  0
    3.1672   18.8232   39.9558 H   0  0  0  0  0  0  0  0  0  0  0  0
   -1.1500   13.2114   43.6149 H   0  0  0  0  0  0  0  0  0  0  0  0
    3.0907   16.6629   36.7494 H   0  0  0  0  0  0  0  0  0  0  0  0
   -1.6972   19.0593   41.8380 H   0  0  0  0  0  0  0  0  0  0  0  0
    1.9432   22.3500   36.0204 H   0  0  0  0  0  0  0  0  0  0  0  0
    1.9896   17.0265   40.0859 H   0  0  0  0  0  0  0  0  0  0  0  0
    4.2986   15.1617   37.2303 H   0  0  0  0  0  0  0  0  0  0  0  0
    3.0959   15.8015   36.0594 H   0  0  0  0  0  0  0  0  0  0  0  0
    4.6767   16.6291   36.2658 H   0  0  0  0  0  0  0  0  0  0  0  0
   -2.9563   13.0839   45.6543 H   0  0  0  0  0  0  0  0  0  0  0  0
   -1.3110   12.8896   46.3164 H   0  0  0  0  0  0  0  0  0  0  0  0
   -0.5772   14.3838   42.4613 H   0  0  0  0  0  0  0  0  0  0  0  0
   -1.1933   18.1824   45.3428 H   0  0  0  0  0  0  0  0  0  0  0  0
    0.3816   14.3994   40.1652 H   0  0  0  0  0  0  0  0  0  0  0  0
    1.8858   14.5367   41.2698 H   0  0  0  0  0  0  0  0  0  0  0  0
    2.2813   21.8627   38.5683 H   0  0  0  0  0  0  0  0  0  0  0  0
    1.0140   20.8606   37.9038 H   0  0  0  0  0  0  0  0  0  0  0  0
    4.6194   17.6267   39.2881 H   0  0  0  0  0  0  0  0  0  0  0  0
    4.7524   18.4496   37.7208 H   0  0  0  0  0  0  0  0  0  0  0  0
  1 17  2  0
  2 24  1  0
  2  4  1  0
  3 12  1  0
  4 31  2  0
  4  8  1  0
  5 11  1  0
  5 28  1  0
  5 22  1  0
  6 33  1  0
  6 18  1  0
  6 10  1  0
  7 27  1  0
  8 23  1  0
  9  7  2  0
  9 19  1  0
 10  1  1  0
 12 30  1  0
 13 32  2  0
 14 13  1  0
 15 26  1  0
 16 15  2  0
 18 20  2  0
 19 24  2  0
 20 32  1  0
 20 17  1  0
 21 10  2  0
 22 15  1  0
 23 14  2  0
 23 18  1  0
 25  3  2  0
 25 29  1  0
 26 14  1  0
 27 24  1  0
 28  2  1  0
 29 30  2  0
 32 25  1  0
  2 34  1  1
  3 35  1  0
  5 36  1  6
  6 37  1  6
  7 38  1  0
  8 39  1  0
 11 40  1  0
 11 41  1  0
 11 42  1  0
 12 43  1  0
 12 44  1  0
 13 45  1  0
 17 46  1  0
 26 47  1  0
 26 48  1  0
 27 49  1  0
 27 50  1  0
 28 51  1  0
 28 52  1  0
M  END
>  <mol_id>  (6) 
2026-08-23-6tgu-s0-n100-prep-0006

>  <rmsd_to_ref>  (6) 


$$$$

     RDKit          3D

 46 48  0  0  0  0  0  0  0  0999 V2000
   -0.4114   20.0214   41.8728 C   0  0  0  0  0  0  0  0  0  0  0  0
    2.9213   20.7599   36.9238 O   0  0  0  0  0  0  0  0  0  0  0  0
    3.9915   18.3834   39.7719 C   0  0  0  0  0  0  0  0  0  0  0  0
   -0.9329   18.0164   43.1907 C   0  0  0  0  0  0  0  0  0  0  0  0
   -0.1918   18.5635   42.2059 C   0  0  0  0  0  0  0  0  0  0  0  0
    3.1251   20.4203   38.3740 C   0  0  0  0  0  0  0  0  0  0  0  0
    1.5862   18.2573   40.4539 C   0  0  0  0  0  0  0  0  0  0  0  0
    3.9728   21.3889   36.1893 C   0  0  0  0  0  0  0  0  0  0  0  0
    2.1285   14.2956   41.7001 C   0  0  0  0  0  0  0  0  0  0  0  0
   -0.9176   16.6755   43.5607 C   0  0  0  0  0  0  0  0  0  0  0  0
    4.4489   18.5223   37.3977 C   0  0  0  0  0  0  0  0  0  0  0  0
    4.4911   17.3809   37.7201 C   0  0  0  0  0  0  0  0  0  0  0  0
    0.1054   15.8151   42.9494 C   0  0  0  0  0  0  0  0  0  0  0  0
    2.0581   15.6944   41.4225 C   0  0  0  0  0  0  0  0  0  0  0  0
    0.8000   17.7226   41.6141 C   0  0  0  0  0  0  0  0  0  0  0  0
    4.9013   20.9392   35.3898 N   0  0  0  0  0  0  0  0  0  0  0  0
    2.9645   16.2540   40.5845 N   0  0  0  0  0  0  0  0  0  0  0  0
    3.9556   19.1511   38.4558 C   0  0  2  0  0  0  0  0  0  0  0  0
    1.2386   13.7188   42.6344 C   0  0  0  0  0  0  0  0  0  0  0  0
    0.9474   16.4208   41.9566 C   0  0  0  0  0  0  0  0  0  0  0  0
    2.8370   17.5085   40.2163 C   0  0  2  0  0  0  0  0  0  0  0  0
    0.2324   14.4874   43.2363 C   0  0  0  0  0  0  0  0  0  0  0  0
    1.2044   19.0807   39.7529 O   0  0  0  0  0  0  0  0  0  0  0  0
   -1.8934   18.8127   43.7123 O   0  0  0  0  0  0  0  0  0  0  0  0
   -0.7405   20.5581   42.7749 H   0  0  0  0  0  0  0  0  0  0  0  0
    0.5290   20.4599   41.5079 H   0  0  0  0  0  0  0  0  0  0  0  0
   -1.1829   20.1073   41.0933 H   0  0  0  0  0  0  0  0  0  0  0  0
    4.8746   17.7293   39.7242 H   0  0  0  0  0  0  0  0  0  0  0  0
    3.9706   19.1936   40.5157 H   0  0  0  0  0  0  0  0  0  0  0  0
    3.6532   21.2433   38.8779 H   0  0  0  0  0  0  0  0  0  0  0  0
    2.1536   20.2695   38.8674 H   0  0  0  0  0  0  0  0  0  0  0  0
    4.0071   22.4798   36.3259 H   0  0  0  0  0  0  0  0  0  0  0  0
    2.8734   13.6686   41.1881 H   0  0  0  0  0  0  0  0  0  0  0  0
   -1.6434   16.2744   44.2833 H   0  0  0  0  0  0  0  0  0  0  0  0
    5.4556   18.8957   37.1586 H   0  0  0  0  0  0  0  0  0  0  0  0
    3.8374   18.6789   36.4968 H   0  0  0  0  0  0  0  0  0  0  0  0
    4.2432   17.2921   38.7882 H   0  0  0  0  0  0  0  0  0  0  0  0
    3.7660   16.8050   37.1264 H   0  0  0  0  0  0  0  0  0  0  0  0
    5.5033   16.9875   37.5448 H   0  0  0  0  0  0  0  0  0  0  0  0
    5.5714   21.5926   34.9597 H   0  0  0  0  0  0  0  0  0  0  0  0
    3.7554   15.6941   40.2354 H   0  0  0  0  0  0  0  0  0  0  0  0
    4.7552   19.9039   38.3938 H   0  0  0  0  0  0  0  0  0  0  0  0
    1.3367   12.6540   42.8925 H   0  0  0  0  0  0  0  0  0  0  0  0
    2.7690   16.7853   39.3903 H   0  0  0  0  0  0  0  0  0  0  0  0
   -0.4617   14.0152   43.9470 H   0  0  0  0  0  0  0  0  0  0  0  0
   -1.9289   19.7712   43.4669 H   0  0  0  0  0  0  0  0  0  0  0  0
  1  5  1  0
  2  6  1  0
  4 10  2  0
  4 24  1  0
  5  4  1  0
  7 15  1  0
  8  2  1  0
  9 19  2  0
 11 12  1  0
 13 22  2  0
 13 10  1  0
 14  9  1  0
 14 20  2  0
 15 20  1  0
 15  5  2  0
 16  8  2  3
 17 14  1  0
 18 11  1  0
 18  6  1  0
 18  3  1  0
 19 22  1  0
 20 13  1  0
 21  3  1  0
 21 17  1  0
 21  7  1  0
 23  7  2  0
  1 25  1  0
  1 26  1  0
  1 27  1  0
  3 28  1  0
  3 29  1  0
  6 30  1  0
  6 31  1  0
  8 32  1  0
  9 33  1  0
 10 34  1  0
 11 35  1  0
 11 36  1  0
 12 37  1  0
 12 38  1  0
 12 39  1  0
 16 40  1  0
 17 41  1  0
 18 42  1  1
 19 43  1  0
 21 44  1  6
 22 45  1  0
 24 46  1  0
M  END
>  <mol_id>  (7) 
2026-08-23-6tgu-s0-n100-prep-0007

>  <rmsd_to_ref>  (7) 


$$$$

     RDKit          3D

 40 43  0  0  0  0  0  0  0  0999 V2000
    0.7185   19.9430   42.1327 C   0  0  0  0  0  0  0  0  0  0  0  0
    3.7752   19.4485   35.8466 N   0  0  0  0  0  0  0  0  0  0  0  0
    0.7934   18.5914   41.8537 N   0  0  0  0  0  0  0  0  0  0  0  0
    2.7015   20.4000   37.4896 C   0  0  0  0  0  0  0  0  0  0  0  0
    3.5126   18.4579   36.6333 C   0  0  0  0  0  0  0  0  0  0  0  0
    1.1757   20.8229   41.6494 C   0  0  0  0  0  0  0  0  0  0  0  0
    3.9125   16.9296   36.3163 C   0  0  0  0  0  0  0  0  0  0  0  0
    0.6673   16.0432   42.2019 S   0  0  0  0  0  0  0  0  0  0  0  0
    0.0614   14.7396   43.1522 C   0  0  0  0  0  0  0  0  0  0  0  0
    2.9903   18.9977   37.7399 C   0  0  0  0  0  0  0  0  0  0  0  0
   -0.0678   17.6862   44.1678 C   0  0  0  0  0  0  0  0  0  0  0  0
    3.2788   20.6090   36.3936 N   0  0  0  0  0  0  0  0  0  0  0  0
    1.4138   18.6053   41.0927 N   0  0  0  0  0  0  0  0  0  0  0  0
   -0.8606   16.4995   44.6786 C   0  0  0  0  0  0  0  0  0  0  0  0
   -0.3106   15.1572   44.5048 C   0  0  0  0  0  0  0  0  0  0  0  0
    1.3778   19.9231   40.5607 C   0  0  2  0  0  0  0  0  0  0  0  0
    2.5021   18.5403   38.9397 C   0  0  0  0  0  0  0  0  0  0  0  0
    2.1731   20.9891   38.5360 C   0  0  0  0  0  0  0  0  0  0  0  0
   -0.0292   17.5153   42.6594 C   0  0  1  0  0  0  0  0  0  0  0  0
    2.0595   19.8201   39.5112 C   0  0  0  0  0  0  0  0  0  0  0  0
   -0.3597   20.1562   42.0903 H   0  0  0  0  0  0  0  0  0  0  0  0
    1.3808   19.9256   43.0109 H   0  0  0  0  0  0  0  0  0  0  0  0
    0.4923   21.6614   41.4496 H   0  0  0  0  0  0  0  0  0  0  0  0
    1.9788   21.4213   42.1044 H   0  0  0  0  0  0  0  0  0  0  0  0
    4.0917   16.3942   37.2602 H   0  0  0  0  0  0  0  0  0  0  0  0
    3.0926   16.4422   35.7683 H   0  0  0  0  0  0  0  0  0  0  0  0
    4.8260   16.9091   35.7039 H   0  0  0  0  0  0  0  0  0  0  0  0
   -0.8271   14.3236   42.6546 H   0  0  0  0  0  0  0  0  0  0  0  0
    0.8624   13.9911   43.2420 H   0  0  0  0  0  0  0  0  0  0  0  0
   -0.5667   18.6289   44.4372 H   0  0  0  0  0  0  0  0  0  0  0  0
    0.9410   17.7270   44.6043 H   0  0  0  0  0  0  0  0  0  0  0  0
    2.3672   18.3755   41.4076 H   0  0  0  0  0  0  0  0  0  0  0  0
   -1.0091   16.6506   45.7580 H   0  0  0  0  0  0  0  0  0  0  0  0
   -1.7671   16.4978   44.0556 H   0  0  0  0  0  0  0  0  0  0  0  0
   -1.0637   14.4444   44.8722 H   0  0  0  0  0  0  0  0  0  0  0  0
    0.6392   15.1741   45.0594 H   0  0  0  0  0  0  0  0  0  0  0  0
    0.6503   20.5683   40.0466 H   0  0  0  0  0  0  0  0  0  0  0  0
    2.4561   17.5208   39.3502 H   0  0  0  0  0  0  0  0  0  0  0  0
    1.8884   22.0426   38.6738 H   0  0  0  0  0  0  0  0  0  0  0  0
   -1.0970   17.6035   42.4106 H   0  0  0  0  0  0  0  0  0  0  0  0
  2 12  2  0
  2  5  1  0
  3  1  1  0
  3 19  1  0
  4 10  1  0
  4 18  2  0
  5 10  2  0
  6  1  1  0
  7  5  1  0
  8 19  1  0
  8  9  1  0
  9 15  1  0
 10 17  1  0
 11 14  1  0
 12  4  1  0
 13  3  1  0
 14 15  1  0
 16 20  1  0
 16 13  1  0
 16  6  1  0
 17 20  2  0
 18 20  1  0
 19 11  1  0
  1 21  1  0
  1 22  1  0
  6 23  1  0
  6 24  1  0
  7 25  1  0
  7 26  1  0
  7 27  1  0
  9 28  1  0
  9 29  1  0
 11 30  1  0
 11 31  1  0
 13 32  1  0
 14 33  1  0
 14 34  1  0
 15 35  1  0
 15 36  1  0
 16 37  1  6
 17 38  1  0
 18 39  1  0
 19 40  1  6
M  END
>  <mol_id>  (8) 
2026-08-23-6tgu-s0-n100-prep-0008

>  <rmsd_to_ref>  (8) 


$$$$

     RDKit          3D

 35 38  0  0  0  0  0  0  0  0999 V2000
    0.6450   20.7052   41.0212 C   0  0  0  0  0  0  0  0  0  0  0  0
    0.2168   14.5847   42.7964 C   0  0  0  0  0  0  0  0  0  0  0  0
    3.7881   18.6165   36.7411 C   0  0  0  0  0  0  0  0  0  0  0  0
    1.1466   18.2005   40.5693 O   0  0  0  0  0  0  0  0  0  0  0  0
    2.2693   20.0454   38.6571 C   0  0  0  0  0  0  0  0  0  0  0  0
    2.3610   18.0163   39.9525 O   0  0  0  0  0  0  0  0  0  0  0  0
    3.3600   17.9912   37.8484 C   0  0  0  0  0  0  0  0  0  0  0  0
    0.3666   19.5385   41.9875 C   0  0  0  0  0  0  0  0  0  0  0  0
    3.3803   19.9585   36.5294 C   0  0  0  0  0  0  0  0  0  0  0  0
    0.7043   18.1821   41.6355 C   0  0  0  0  0  0  0  0  0  0  0  0
    2.6010   18.7010   38.8248 C   0  0  0  0  0  0  0  0  0  0  0  0
    2.6596   20.6565   37.4828 C   0  0  0  0  0  0  0  0  0  0  0  0
    0.7549   15.5936   42.1072 C   0  0  0  0  0  0  0  0  0  0  0  0
   -0.4224   19.7346   43.0697 N   0  0  0  0  0  0  0  0  0  0  0  0
    3.7408   20.5821   35.4482 O   0  0  0  0  0  0  0  0  0  0  0  0
   -0.7305   14.9325   43.8447 C   0  0  0  0  0  0  0  0  0  0  0  0
   -0.5111   17.2441   43.4159 C   0  0  0  0  0  0  0  0  0  0  0  0
    0.3334   16.9891   42.2594 C   0  0  0  0  0  0  0  0  0  0  0  0
   -0.8059   18.6111   43.6968 C   0  0  0  0  0  0  0  0  0  0  0  0
    1.4880   20.7674   39.7687 C   0  0  0  0  0  0  0  0  0  0  0  0
   -0.9889   16.2063   44.1359 N   0  0  0  0  0  0  0  0  0  0  0  0
    1.7127   15.1398   41.0194 C   0  0  0  0  0  0  0  0  0  0  0  0
   -1.2753   14.0352   44.4406 O   0  0  0  0  0  0  0  0  0  0  0  0
    0.1478   21.6497   41.2871 H   0  0  0  0  0  0  0  0  0  0  0  0
    0.4776   13.5380   42.5814 H   0  0  0  0  0  0  0  0  0  0  0  0
    4.4375   18.1024   36.0173 H   0  0  0  0  0  0  0  0  0  0  0  0
    3.5952   16.9279   38.0035 H   0  0  0  0  0  0  0  0  0  0  0  0
    2.3952   21.7090   37.3028 H   0  0  0  0  0  0  0  0  0  0  0  0
    3.4570   21.5187   35.2989 H   0  0  0  0  0  0  0  0  0  0  0  0
   -1.4541   18.7711   44.5710 H   0  0  0  0  0  0  0  0  0  0  0  0
    1.5932   21.8393   39.5451 H   0  0  0  0  0  0  0  0  0  0  0  0
   -1.5836   16.4102   44.9517 H   0  0  0  0  0  0  0  0  0  0  0  0
    2.5907   14.6628   41.4794 H   0  0  0  0  0  0  0  0  0  0  0  0
    1.2057   14.4180   40.3621 H   0  0  0  0  0  0  0  0  0  0  0  0
    2.0355   16.0098   40.4287 H   0  0  0  0  0  0  0  0  0  0  0  0
  1  8  1  0
  2 16  1  0
  3  7  1  0
  4 10  1  0
  5 11  1  0
  5 20  1  0
  6  4  1  0
  7 11  2  0
  8 14  1  0
  9  3  2  0
  9 12  1  0
 10  8  2  0
 10 18  1  0
 11  6  1  0
 12  5  2  0
 13 18  1  0
 13  2  2  0
 14 19  2  0
 15  9  1  0
 16 21  1  0
 16 23  2  0
 17 19  1  0
 17 21  1  0
 18 17  2  0
 20  1  2  0
 22 13  1  0
  1 24  1  0
  2 25  1  0
  3 26  1  0
  7 27  1  0
 12 28  1  0
 15 29  1  0
 19 30  1  0
 20 31  1  0
 21 32  1  0
 22 33  1  0
 22 34  1  0
 22 35  1  0
M  END
>  <mol_id>  (9) 
2026-08-23-6tgu-s0-n100-prep-0009

>  <rmsd_to_ref>  (9) 


$$$$

     RDKit          3D

 16 15  0  0  0  0  0  0  0  0999 V2000
    0.5922   21.1883   40.4229 O   0  0  0  0  0  0  0  0  0  0  0  0
    3.5257   19.7407   37.8851 C   0  0  0  0  0  0  0  0  0  0  0  0
    0.6586   19.1379   41.5540 C   0  0  0  0  0  0  0  0  0  0  0  0
    1.9944   17.4444   40.7105 O   0  0  0  0  0  0  0  0  0  0  0  0
    3.4631   19.7334   36.6277 O   0  0  0  0  0  0  0  0  0  0  0  0
    1.1878   17.8802   41.6525 C   0  0  0  0  0  0  0  0  0  0  0  0
    1.0911   17.0549   42.5928 O   0  0  0  0  0  0  0  0  0  0  0  0
    0.9895   20.0494   40.4654 C   0  0  0  0  0  0  0  0  0  0  0  0
    4.5225   19.2042   38.6217 O   0  0  0  0  0  0  0  0  0  0  0  0
    2.3460   20.3853   38.4921 C   0  0  0  0  0  0  0  0  0  0  0  0
    1.7957   19.5217   39.5265 N   0  0  0  0  0  0  0  0  0  0  0  0
   -0.4331   19.0070   41.5201 H   0  0  0  0  0  0  0  0  0  0  0  0
    1.1208   19.6423   42.4154 H   0  0  0  0  0  0  0  0  0  0  0  0
    2.6425   21.3465   38.9373 H   0  0  0  0  0  0  0  0  0  0  0  0
    1.5848   20.5576   37.7171 H   0  0  0  0  0  0  0  0  0  0  0  0
    2.0212   18.5167   39.5395 H   0  0  0  0  0  0  0  0  0  0  0  0
  2  9  1  0
  2 10  1  0
  4  6  2  0
  5  2  2  0
  6  3  1  0
  6  7  1  0
  8  1  2  0
  8  3  1  0
 10 11  1  0
 11  8  1  0
  3 12  1  0
  3 13  1  0
 10 14  1  0
 10 15  1  0
 11 16  1  0
M  CHG  2   7  -1   9  -1
M  END
>  <mol_id>  (10) 
2026-08-23-6tgu-s0-n100-prep-0010

>  <rmsd_to_ref>  (10) 


$$$$

     RDKit          3D

 29 31  0  0  0  0  0  0  0  0999 V2000
    0.5385   20.0643   42.0510 N   0  0  0  0  0  0  0  0  0  0  0  0
    3.2284   17.1456   38.9132 F   0  0  0  0  0  0  0  0  0  0  0  0
    3.0983   18.3689   38.4921 C   0  0  0  0  0  0  0  0  0  0  0  0
    2.1053   20.5449   38.6118 C   0  0  0  0  0  0  0  0  0  0  0  0
    1.2621   18.0352   41.3009 C   0  0  0  0  0  0  0  0  0  0  0  0
    0.8343   15.7044   42.2387 C   0  0  0  0  0  0  0  0  0  0  0  0
    1.2575   20.1753   41.0456 N   0  0  0  0  0  0  0  0  0  0  0  0
    3.5120   20.0777   36.7245 N   0  0  0  0  0  0  0  0  0  0  0  0
   -0.1545   15.7578   43.0988 C   0  0  0  0  0  0  0  0  0  0  0  0
   -0.8419   16.9237   43.3046 C   0  0  0  0  0  0  0  0  0  0  0  0
    1.7193   19.0533   40.4228 C   0  0  0  0  0  0  0  0  0  0  0  0
    0.3711   18.7651   42.1053 C   0  0  1  0  0  0  0  0  0  0  0  0
    3.6533   18.8016   37.2227 C   0  0  0  0  0  0  0  0  0  0  0  0
    4.5161   17.9593   36.5982 N   0  0  0  0  0  0  0  0  0  0  0  0
   -0.6650   18.1022   42.7833 C   0  0  0  0  0  0  0  0  0  0  0  0
    1.4314   16.7203   41.5449 C   0  0  0  0  0  0  0  0  0  0  0  0
    2.7907   20.8503   37.4850 C   0  0  0  0  0  0  0  0  0  0  0  0
    2.3372   19.3032   39.1715 C   0  0  0  0  0  0  0  0  0  0  0  0
    0.1717   20.7966   42.6755 H   0  0  0  0  0  0  0  0  0  0  0  0
    1.3951   21.2541   39.0620 H   0  0  0  0  0  0  0  0  0  0  0  0
    1.2409   14.7001   42.0485 H   0  0  0  0  0  0  0  0  0  0  0  0
   -0.4348   14.8550   43.6614 H   0  0  0  0  0  0  0  0  0  0  0  0
   -1.6727   16.8529   44.0221 H   0  0  0  0  0  0  0  0  0  0  0  0
   -0.3392   18.8216   41.2673 H   0  0  0  0  0  0  0  0  0  0  0  0
    4.6425   16.9989   36.9484 H   0  0  0  0  0  0  0  0  0  0  0  0
    5.0441   18.2807   35.7744 H   0  0  0  0  0  0  0  0  0  0  0  0
   -1.5518   18.7418   42.9039 H   0  0  0  0  0  0  0  0  0  0  0  0
    2.3270   16.3498   41.0247 H   0  0  0  0  0  0  0  0  0  0  0  0
    2.7295   21.9014   37.1663 H   0  0  0  0  0  0  0  0  0  0  0  0
  1 12  1  0
  3 18  1  0
  3  2  1  0
  4 18  2  0
  5 16  2  0
  5 12  1  0
  6  9  2  0
  7  1  1  0
  8 17  2  0
  8 13  1  0
 10  9  1  0
 11  7  2  0
 11  5  1  0
 12 15  1  0
 13  3  2  0
 14 13  1  0
 15 10  2  0
 16  6  1  0
 17  4  1  0
 18 11  1  0
  1 19  1  0
  4 20  1  0
  6 21  1  0
  9 22  1  0
 10 23  1  0
 12 24  1  1
 14 25  1  0
 14 26  1  0
 15 27  1  0
 16 28  1  0
 17 29  1  0
M  END
>  <mol_id>  (11) 
2026-08-23-6tgu-s0-n100-prep-0011

>  <rmsd_to_ref>  (11) 


$$$$

     RDKit          3D

 49 51  0  0  0  0  0  0  0  0999 V2000
    0.4389   19.7793   41.8664 C   0  0  0  0  0  0  0  0  0  0  0  0
    1.7506   14.6673   41.9304 C   0  0  0  0  0  0  0  0  0  0  0  0
   -0.5538   15.8974   44.6442 C   0  0  0  0  0  0  0  0  0  0  0  0
    4.0445   18.9937   38.4741 C   0  0  0  0  0  0  0  0  0  0  0  0
    3.8367   18.9616   35.9957 N   0  0  0  0  0  0  0  0  0  0  0  0
    1.5366   18.5940   40.2053 C   0  0  0  0  0  0  0  0  0  0  0  0
    0.3170   15.4586   43.5206 C   0  0  0  0  0  0  0  0  0  0  0  0
    2.8666   19.9571   38.5191 N   0  0  0  0  0  0  0  0  0  0  0  0
    0.8856   18.5684   41.4857 C   0  0  2  0  0  0  0  0  0  0  0  0
    0.9636   14.1995   42.9205 N   0  0  0  0  0  0  0  0  0  0  0  0
    2.0545   19.8808   39.6778 C   0  0  0  0  0  0  0  0  0  0  0  0
    3.1513   20.9316   35.0521 O   0  0  0  0  0  0  0  0  0  0  0  0
    1.5954   15.9546   41.6947 N   0  0  0  0  0  0  0  0  0  0  0  0
   -0.1617   20.3344   42.8452 O   0  0  0  0  0  0  0  0  0  0  0  0
    3.7488   18.1677   37.2371 C   0  0  0  0  0  0  0  0  0  0  0  0
    2.6091   20.4881   37.3180 C   0  0  0  0  0  0  0  0  0  0  0  0
    1.6606   21.0768   40.3138 C   0  0  0  0  0  0  0  0  0  0  0  0
    0.1273   17.7101   42.6683 C   0  0  0  0  0  0  0  0  0  0  0  0
    0.8171   21.0074   41.3398 C   0  0  0  0  0  0  0  0  0  0  0  0
   -0.0242   12.7178   44.9682 C   0  0  0  0  0  0  0  0  0  0  0  0
    0.6998   16.4068   42.6386 C   0  0  0  0  0  0  0  0  0  0  0  0
   -0.9574   12.4323   43.8302 C   0  0  0  0  0  0  0  0  0  0  0  0
   -1.1819   17.1781   44.7103 C   0  0  0  0  0  0  0  0  0  0  0  0
    2.6534   13.7185   41.1862 C   0  0  0  0  0  0  0  0  0  0  0  0
    3.1804   20.1977   36.1237 C   0  0  0  0  0  0  0  0  0  0  0  0
   -0.8453   18.1053   43.6835 N   0  0  0  0  0  0  0  0  0  0  0  0
   -0.7237   15.1940   45.4727 H   0  0  0  0  0  0  0  0  0  0  0  0
    4.9966   19.5349   38.3719 H   0  0  0  0  0  0  0  0  0  0  0  0
    4.1517   18.3905   39.3878 H   0  0  0  0  0  0  0  0  0  0  0  0
    4.3193   18.6484   35.1415 H   0  0  0  0  0  0  0  0  0  0  0  0
    1.6501   17.6687   39.6214 H   0  0  0  0  0  0  0  0  0  0  0  0
    1.5856   17.7508   41.2589 H   0  0  0  0  0  0  0  0  0  0  0  0
    2.0507   16.5093   40.9558 H   0  0  0  0  0  0  0  0  0  0  0  0
    2.7322   17.7562   37.3219 H   0  0  0  0  0  0  0  0  0  0  0  0
    4.5033   17.3695   37.1787 H   0  0  0  0  0  0  0  0  0  0  0  0
    1.5357   20.3059   37.1610 H   0  0  0  0  0  0  0  0  0  0  0  0
    3.0687   21.4746   37.4785 H   0  0  0  0  0  0  0  0  0  0  0  0
    2.0436   22.0481   39.9677 H   0  0  0  0  0  0  0  0  0  0  0  0
    0.4146   21.9334   41.7763 H   0  0  0  0  0  0  0  0  0  0  0  0
   -0.5435   12.5405   45.9216 H   0  0  0  0  0  0  0  0  0  0  0  0
    0.8516   12.0559   44.8991 H   0  0  0  0  0  0  0  0  0  0  0  0
    0.3040   13.7665   44.9190 H   0  0  0  0  0  0  0  0  0  0  0  0
   -1.9332   12.1153   44.2268 H   0  0  0  0  0  0  0  0  0  0  0  0
   -1.0857   13.3414   43.2242 H   0  0  0  0  0  0  0  0  0  0  0  0
   -0.5381   11.6307   43.2044 H   0  0  0  0  0  0  0  0  0  0  0  0
   -1.8890   17.4349   45.5127 H   0  0  0  0  0  0  0  0  0  0  0  0
    3.2277   13.1176   41.9068 H   0  0  0  0  0  0  0  0  0  0  0  0
    2.0458   13.0528   40.5557 H   0  0  0  0  0  0  0  0  0  0  0  0
    3.3460   14.2922   40.5529 H   0  0  0  0  0  0  0  0  0  0  0  0
  1 14  2  0
  2 10  2  0
  3 23  1  0
  4  8  1  0
  5 25  1  0
  5 15  1  0
  6  9  1  0
  7  3  2  0
  8 11  1  0
  9  1  1  0
  9 18  1  0
 10  7  1  0
 11  6  2  0
 11 17  1  0
 12 25  2  0
 13  2  1  0
 13 21  1  0
 15  4  1  0
 16  8  1  0
 17 19  2  0
 18 26  1  0
 19  1  1  0
 21 18  2  0
 21  7  1  0
 22 20  1  0
 24  2  1  0
 25 16  1  0
 26 23  2  0
  3 27  1  0
  4 28  1  0
  4 29  1  0
  5 30  1  0
  6 31  1  0
  9 32  1  1
 13 33  1  0
 15 34  1  0
 15 35  1  0
 16 36  1  0
 16 37  1  0
 17 38  1  0
 19 39  1  0
 20 40  1  0
 20 41  1  0
 20 42  1  0
 22 43  1  0
 22 44  1  0
 22 45  1  0
 23 46  1  0
 24 47  1  0
 24 48  1  0
 24 49  1  0
M  END
>  <mol_id>  (12) 
2026-08-23-6tgu-s0-n100-prep-0012

>  <rmsd_to_ref>  (12) 


$$$$

     RDKit          3D

 31 34  0  0  0  0  0  0  0  0999 V2000
   -1.1944   19.5378   44.1461 C   0  0  0  0  0  0  0  0  0  0  0  0
    1.4485   17.9154   41.3788 N   0  0  0  0  0  0  0  0  0  0  0  0
   -0.3852   17.5819   43.3671 C   0  0  0  0  0  0  0  0  0  0  0  0
    3.3120   18.0182   39.1034 C   0  0  0  0  0  0  0  0  0  0  0  0
    3.9756   18.8641   37.0426 C   0  0  0  0  0  0  0  0  0  0  0  0
    1.7603   19.0963   40.6689 C   0  0  0  0  0  0  0  0  0  0  0  0
    2.5967   19.0713   39.5178 C   0  0  0  0  0  0  0  0  0  0  0  0
    3.9630   17.8454   37.9700 C   0  0  0  0  0  0  0  0  0  0  0  0
    3.5376   20.0640   37.3484 C   0  0  0  0  0  0  0  0  0  0  0  0
    1.2475   21.8025   40.9338 Cl  0  0  0  0  0  0  0  0  0  0  0  0
    1.0230   20.2237   41.3293 C   0  0  0  0  0  0  0  0  0  0  0  0
    0.2304   19.7396   42.3579 C   0  0  0  0  0  0  0  0  0  0  0  0
    3.8800   20.4251   36.3500 O   0  0  0  0  0  0  0  0  0  0  0  0
    3.0810   14.9814   38.2832 C   0  0  0  0  0  0  0  0  0  0  0  0
    4.0732   15.5369   37.6845 C   0  0  0  0  0  0  0  0  0  0  0  0
   -0.3786   15.8784   43.2810 S   0  0  0  0  0  0  0  0  0  0  0  0
    4.6944   16.6038   37.5466 O   0  0  0  0  0  0  0  0  0  0  0  0
   -0.5867   20.3320   43.2213 N   0  0  0  0  0  0  0  0  0  0  0  0
    3.8459   14.4527   37.3535 N   0  0  0  0  0  0  0  0  0  0  0  0
   -1.1493   18.1705   44.2491 N   0  0  0  0  0  0  0  0  0  0  0  0
    0.4650   18.3488   42.3223 C   0  0  2  0  0  0  0  0  0  0  0  0
    2.7577   20.1657   38.5455 C   0  0  0  0  0  0  0  0  0  0  0  0
   -1.7967   20.0578   44.9055 H   0  0  0  0  0  0  0  0  0  0  0  0
    3.3641   17.1765   39.8097 H   0  0  0  0  0  0  0  0  0  0  0  0
    4.3587   18.6695   36.0300 H   0  0  0  0  0  0  0  0  0  0  0  0
    3.1571   14.6609   39.3327 H   0  0  0  0  0  0  0  0  0  0  0  0
    2.0112   15.1780   38.4478 H   0  0  0  0  0  0  0  0  0  0  0  0
   -0.7537   21.3479   43.1928 H   0  0  0  0  0  0  0  0  0  0  0  0
    1.2480   18.4613   43.0867 H   0  0  0  0  0  0  0  0  0  0  0  0
    3.1868   21.0062   39.1107 H   0  0  0  0  0  0  0  0  0  0  0  0
    1.7415   20.2273   38.1291 H   0  0  0  0  0  0  0  0  0  0  0  0
  3 20  1  0
  4  7  2  0
  5  9  1  0
  5  8  2  0
  6  2  2  0
  6 11  1  0
  7  6  1  0
  8  4  1  0
  9 22  1  0
 10 11  1  0
 11 12  2  0
 12 18  1  0
 13  9  2  0
 15 14  1  0
 16  3  2  0
 17 15  1  0
 17  8  1  0
 18  1  1  0
 19 15  2  0
 19 14  1  0
 20  1  2  0
 21  2  1  0
 21 12  1  0
 21  3  1  0
 22  7  1  0
  1 23  1  0
  4 24  1  0
  5 25  1  0
 14 26  1  0
 14 27  1  0
 18 28  1  0
 21 29  1  1
 22 30  1  0
 22 31  1  0
M  END
>  <mol_id>  (13) 
2026-08-23-6tgu-s0-n100-prep-0013

>  <rmsd_to_ref>  (13) 


$$$$

     RDKit          3D

 31 32  0  0  0  0  0  0  0  0999 V2000
    1.7615   17.6579   41.4681 C   0  0  0  0  0  0  0  0  0  0  0  0
    0.9238   18.7130   41.4896 C   0  0  0  0  0  0  0  0  0  0  0  0
    2.4681   18.8897   39.6065 C   0  0  1  0  0  0  0  0  0  0  0  0
    0.3063   15.9795   44.3306 N   0  0  0  0  0  0  0  0  0  0  0  0
   -1.0128   18.3566   44.7023 C   0  0  0  0  0  0  0  0  0  0  0  0
    0.5141   16.9314   43.4494 C   0  0  0  0  0  0  0  0  0  0  0  0
    2.0207   21.1134   37.1418 O   0  0  0  0  0  0  0  0  0  0  0  0
    2.8120   19.0325   38.1779 C   0  0  0  0  0  0  0  0  0  0  0  0
    1.2978   19.9196   40.3086 S   0  0  0  0  0  0  0  0  0  0  0  0
    3.8470   21.1443   35.9727 O   0  0  0  0  0  0  0  0  0  0  0  0
    3.2114   20.6428   36.9722 C   0  0  0  0  0  0  0  0  0  0  0  0
   -0.3322   18.9083   42.2366 C   0  0  1  0  0  0  0  0  0  0  0  0
    3.8169   19.8100   37.8747 C   0  0  0  0  0  0  0  0  0  0  0  0
   -0.2142   18.0780   43.5407 N   0  0  0  0  0  0  0  0  0  0  0  0
    1.4654   16.6755   42.5053 N   0  0  0  0  0  0  0  0  0  0  0  0
   -0.9436   20.2799   42.4625 C   0  0  0  0  0  0  0  0  0  0  0  0
    2.9331   17.4942   40.3541 S   0  0  0  0  0  0  0  0  0  0  0  0
    3.2233   19.5423   40.0688 H   0  0  0  0  0  0  0  0  0  0  0  0
    0.8463   15.1040   44.2799 H   0  0  0  0  0  0  0  0  0  0  0  0
   -0.3968   16.1088   45.0722 H   0  0  0  0  0  0  0  0  0  0  0  0
   -0.4146   18.1826   45.6088 H   0  0  0  0  0  0  0  0  0  0  0  0
   -1.3435   19.4054   44.6768 H   0  0  0  0  0  0  0  0  0  0  0  0
   -1.8916   17.6951   44.7103 H   0  0  0  0  0  0  0  0  0  0  0  0
    3.0442   18.0286   37.7928 H   0  0  0  0  0  0  0  0  0  0  0  0
    1.9349   19.5184   37.7254 H   0  0  0  0  0  0  0  0  0  0  0  0
   -1.1012   18.5640   41.5294 H   0  0  0  0  0  0  0  0  0  0  0  0
    4.6450   19.2474   37.4188 H   0  0  0  0  0  0  0  0  0  0  0  0
    4.2840   20.3176   38.7316 H   0  0  0  0  0  0  0  0  0  0  0  0
   -1.1062   20.4361   43.5391 H   0  0  0  0  0  0  0  0  0  0  0  0
   -0.2617   21.0530   42.0788 H   0  0  0  0  0  0  0  0  0  0  0  0
   -1.9058   20.3442   41.9334 H   0  0  0  0  0  0  0  0  0  0  0  0
  1  2  2  0
  1 15  1  0
  2 12  1  0
  3  8  1  0
  3 17  1  0
  3  9  1  0
  6 14  1  0
  6  4  1  0
  9  2  1  0
 10 11  2  0
 11  7  1  0
 11 13  1  0
 12 16  1  0
 12 14  1  0
 13  8  1  0
 14  5  1  0
 15  6  2  0
 17  1  1  0
  3 18  1  1
  4 19  1  0
  4 20  1  0
  5 21  1  0
  5 22  1  0
  5 23  1  0
  8 24  1  0
  8 25  1  0
 12 26  1  6
 13 27  1  0
 13 28  1  0
 16 29  1  0
 16 30  1  0
 16 31  1  0
M  CHG  1   7  -1
M  END
>  <mol_id>  (14) 
2026-08-23-6tgu-s0-n100-prep-0014

>  <rmsd_to_ref>  (14) 


$$$$

     RDKit          3D

 44 47  0  0  0  0  0  0  0  0999 V2000
   -1.1209   18.1026   45.6980 C   0  0  2  0  0  0  0  0  0  0  0  0
    1.3058   18.1738   41.2193 C   0  0  0  0  0  0  0  0  0  0  0  0
    0.8714   15.7493   42.2836 S   0  0  0  0  0  0  0  0  0  0  0  0
   -0.1886   17.9586   43.3429 C   0  0  0  0  0  0  0  0  0  0  0  0
    3.4624   18.3665   38.6455 C   0  0  2  0  0  0  0  0  0  0  0  0
    1.9895   17.1124   40.3545 C   0  0  0  0  0  0  0  0  0  0  0  0
    1.7941   20.0261   39.6613 C   0  0  0  0  0  0  0  0  0  0  0  0
    1.3426   19.5414   40.7321 C   0  0  0  0  0  0  0  0  0  0  0  0
    4.1430   18.7911   36.1979 C   0  0  0  0  0  0  0  0  0  0  0  0
    3.5183   20.1128   36.1149 C   0  0  0  0  0  0  0  0  0  0  0  0
    3.9162   17.9348   37.2114 C   0  0  0  0  0  0  0  0  0  0  0  0
   -0.2309   19.2231   43.3612 N   0  0  0  0  0  0  0  0  0  0  0  0
    1.6785   15.7409   40.8488 C   0  0  0  0  0  0  0  0  0  0  0  0
   -0.8840   17.2211   44.4659 C   0  0  0  0  0  0  0  0  0  0  0  0
    2.7984   17.2472   39.2111 C   0  0  0  0  0  0  0  0  0  0  0  0
   -2.2148   17.7547   46.5110 O   0  0  0  0  0  0  0  0  0  0  0  0
    2.8192   20.5784   37.4332 C   0  0  0  0  0  0  0  0  0  0  0  0
    0.6355   17.3315   42.2857 C   0  0  0  0  0  0  0  0  0  0  0  0
   -0.9241   21.2990   43.8759 O   0  0  0  0  0  0  0  0  0  0  0  0
    2.6595   19.5686   38.5443 C   0  0  1  0  0  0  0  0  0  0  0  0
   -1.4523   19.4974   45.2048 N   0  0  0  0  0  0  0  0  0  0  0  0
   -0.8585   19.9586   44.1641 C   0  0  0  0  0  0  0  0  0  0  0  0
    3.4612   20.8436   35.1564 O   0  0  0  0  0  0  0  0  0  0  0  0
    4.3355   18.9017   39.8626 C   0  0  0  0  0  0  0  0  0  0  0  0
   -0.2047   17.9961   46.2975 H   0  0  0  0  0  0  0  0  0  0  0  0
    1.4588   21.0633   39.5141 H   0  0  0  0  0  0  0  0  0  0  0  0
    0.9001   20.2808   41.4159 H   0  0  0  0  0  0  0  0  0  0  0  0
    3.8498   18.2594   35.2807 H   0  0  0  0  0  0  0  0  0  0  0  0
    5.1972   19.0564   36.3661 H   0  0  0  0  0  0  0  0  0  0  0  0
    3.1393   17.2455   36.8492 H   0  0  0  0  0  0  0  0  0  0  0  0
    4.9380   17.5825   37.4161 H   0  0  0  0  0  0  0  0  0  0  0  0
    1.9582   14.8220   40.3125 H   0  0  0  0  0  0  0  0  0  0  0  0
   -1.8564   16.8598   44.0999 H   0  0  0  0  0  0  0  0  0  0  0  0
   -0.2298   16.3917   44.7727 H   0  0  0  0  0  0  0  0  0  0  0  0
    2.1540   16.8891   38.3948 H   0  0  0  0  0  0  0  0  0  0  0  0
    3.6950   16.7719   39.6358 H   0  0  0  0  0  0  0  0  0  0  0  0
   -2.0190   17.9993   47.4501 H   0  0  0  0  0  0  0  0  0  0  0  0
    3.4051   21.4179   37.8356 H   0  0  0  0  0  0  0  0  0  0  0  0
    1.7896   20.8180   37.1289 H   0  0  0  0  0  0  0  0  0  0  0  0
    2.2059   18.7033   38.0387 H   0  0  0  0  0  0  0  0  0  0  0  0
   -2.1491   20.0710   45.7012 H   0  0  0  0  0  0  0  0  0  0  0  0
    3.7515   18.8305   40.7920 H   0  0  0  0  0  0  0  0  0  0  0  0
    5.2473   18.2934   39.9550 H   0  0  0  0  0  0  0  0  0  0  0  0
    4.6115   19.9511   39.6824 H   0  0  0  0  0  0  0  0  0  0  0  0
  1 16  1  0
  2 18  2  0
  3 18  1  0
  4 12  2  0
  4 14  1  0
  5 20  1  0
  5 15  1  0
  5 24  1  1
  6 13  2  0
  6  2  1  0
  7  8  2  0
  8  2  1  0
  9 10  1  0
  9 11  1  0
 10 17  1  0
 11  5  1  0
 12 22  1  0
 13  3  1  0
 14  1  1  0
 15  6  1  0
 18  4  1  0
 19 22  2  0
 20 17  1  0
 20  7  1  0
 21  1  1  0
 22 21  1  0
 23 10  2  0
  1 25  1  1
  7 26  1  0
  8 27  1  0
  9 28  1  0
  9 29  1  0
 11 30  1  0
 11 31  1  0
 13 32  1  0
 14 33  1  0
 14 34  1  0
 15 35  1  0
 15 36  1  0
 16 37  1  0
 17 38  1  0
 17 39  1  0
 20 40  1  6
 21 41  1  0
 24 42  1  0
 24 43  1  0
 24 44  1  0
M  END
>  <mol_id>  (15) 
2026-08-23-6tgu-s0-n100-prep-0015

>  <rmsd_to_ref>  (15) 


$$$$

     RDKit          3D

 49 49  0  0  0  0  0  0  0  0999 V2000
    1.8280   21.0840   39.5400 F   0  0  0  0  0  0  0  0  0  0  0  0
    1.1660   15.7340   42.2150 C   0  0  0  0  0  0  0  0  0  0  0  0
    3.0280   20.4800   37.0190 C   0  0  0  0  0  0  0  0  0  0  0  0
   -0.9210   19.4790   44.6600 O   0  0  0  0  0  0  0  0  0  0  0  0
   -0.0760   18.2200   46.2680 C   0  0  0  0  0  0  0  0  0  0  0  0
    3.1250   18.5290   38.5040 C   0  0  0  0  0  0  0  0  0  0  0  0
   -0.0610   20.6910   42.8100 C   0  0  0  0  0  0  0  0  0  0  0  0
   -1.2230   18.2130   45.3020 C   0  0  0  0  0  0  0  0  0  0  0  0
    0.6160   18.9150   41.3280 C   0  0  0  0  0  0  0  0  0  0  0  0
   -0.2190   19.5360   43.5610 C   0  0  2  0  0  0  0  0  0  0  0  0
   -0.2870   14.6830   44.1170 S   0  0  0  0  0  0  0  0  0  0  0  0
   -0.0550   18.2590   42.3760 C   0  0  2  0  0  0  0  0  0  0  0  0
    2.2640   13.6460   41.4440 C   0  0  0  0  0  0  0  0  0  0  0  0
    2.3310   15.3040   40.9950 S   0  0  0  0  0  0  0  0  0  0  0  0
   -0.2810   13.1210   44.6640 C   0  0  0  0  0  0  0  0  0  0  0  0
    0.7200   17.0490   42.6040 N   0  0  0  0  0  0  0  0  0  0  0  0
    1.9660   20.1290   39.1490 N   0  0  0  0  0  0  0  0  0  0  0  0
    3.7060   20.4020   36.1740 O   0  0  0  0  0  0  0  0  0  0  0  0
    2.4040   21.5200   36.7760 O   0  0  0  0  0  0  0  0  0  0  0  0
    3.1000   17.7080   39.2780 O   0  0  0  0  0  0  0  0  0  0  0  0
    1.4860   13.4320   42.4140 N   0  0  0  0  0  0  0  0  0  0  0  0
    2.7670   19.7050   38.1870 C   0  0  1  0  0  0  0  0  0  0  0  0
    0.5170   20.3810   41.5770 C   0  0  0  0  0  0  0  0  0  0  0  0
    3.7600   17.6710   37.3290 C   0  0  0  0  0  0  0  0  0  0  0  0
    3.6760   17.6020   36.3510 N   0  0  0  0  0  0  0  0  0  0  0  0
    0.8490   14.6560   42.8540 C   0  0  0  0  0  0  0  0  0  0  0  0
    4.6560   17.0140   37.8100 O   0  0  0  0  0  0  0  0  0  0  0  0
   -0.4636   18.2176   47.2974 H   0  0  0  0  0  0  0  0  0  0  0  0
    0.5440   17.3256   46.1076 H   0  0  0  0  0  0  0  0  0  0  0  0
    0.5330   19.1219   46.1076 H   0  0  0  0  0  0  0  0  0  0  0  0
   -1.0441   21.1563   42.6453 H   0  0  0  0  0  0  0  0  0  0  0  0
    0.5945   21.3885   43.3520 H   0  0  0  0  0  0  0  0  0  0  0  0
   -2.1996   18.2202   45.8082 H   0  0  0  0  0  0  0  0  0  0  0  0
   -1.3076   17.3353   44.6444 H   0  0  0  0  0  0  0  0  0  0  0  0
    0.1442   18.6653   40.3662 H   0  0  0  0  0  0  0  0  0  0  0  0
    1.6693   18.6005   41.2871 H   0  0  0  0  0  0  0  0  0  0  0  0
    0.5008   19.4064   44.3826 H   0  0  0  0  0  0  0  0  0  0  0  0
   -1.0729   17.8540   42.2772 H   0  0  0  0  0  0  0  0  0  0  0  0
    2.8385   12.8554   40.9392 H   0  0  0  0  0  0  0  0  0  0  0  0
   -0.2810   13.1177   45.7640 H   0  0  0  0  0  0  0  0  0  0  0  0
   -1.1772   12.6001   44.2958 H   0  0  0  0  0  0  0  0  0  0  0  0
    0.6191   12.6070   44.2958 H   0  0  0  0  0  0  0  0  0  0  0  0
    1.1914   17.2183   43.5040 H   0  0  0  0  0  0  0  0  0  0  0  0
    2.2346   19.5615   39.9655 H   0  0  0  0  0  0  0  0  0  0  0  0
    1.8584   19.3015   37.7162 H   0  0  0  0  0  0  0  0  0  0  0  0
    1.5295   20.8099   41.5476 H   0  0  0  0  0  0  0  0  0  0  0  0
   -0.1326   20.8025   40.7958 H   0  0  0  0  0  0  0  0  0  0  0  0
    2.9399   18.1282   35.8589 H   0  0  0  0  0  0  0  0  0  0  0  0
    4.3242   17.0036   35.8194 H   0  0  0  0  0  0  0  0  0  0  0  0
  2 16  1  0
  2 26  2  0
  4  8  1  0
  6 20  2  0
  7 10  1  0
  8  5  1  0
  9 23  1  0
  9 12  1  0
 10  4  1  0
 11 15  1  0
 12 16  1  0
 12 10  1  0
 13 21  2  0
 14 13  1  0
 14  2  1  0
 17  1  1  0
 18  3  2  0
 19  3  1  0
 21 26  1  0
 22  3  1  0
 22  6  1  0
 22 17  1  0
 23  7  1  0
 24 27  2  0
 24  6  1  0
 25 24  1  0
 26 11  1  0
  5 28  1  0
  5 29  1  0
  5 30  1  0
  7 31  1  0
  7 32  1  0
  8 33  1  0
  8 34  1  0
  9 35  1  0
  9 36  1  0
 10 37  1  1
 12 38  1  6
 13 39  1  0
 15 40  1  0
 15 41  1  0
 15 42  1  0
 16 43  1  0
 17 44  1  0
 22 45  1  1
 23 46  1  0
 23 47  1  0
 25 48  1  0
 25 49  1  0
M  CHG  1  19  -1
M  END
>  <mol_id>  (16) 
2026-08-23-6tgu-s0-n100-prep-0016

>  <rmsd_to_ref>  (16) 


$$$$

     RDKit          3D

 64 67  0  0  0  0  0  0  0  0999 V2000
    4.8261   14.0091   35.8640 C   0  0  0  0  0  0  0  0  0  0  0  0
   -1.0019   16.5426   45.2778 O   0  0  0  0  0  0  0  0  0  0  0  0
    4.3496   10.4982   36.2738 O   0  0  0  0  0  0  0  0  0  0  0  0
    3.6703   16.6482   38.0116 C   0  0  0  0  0  0  0  0  0  0  0  0
    4.1865   11.6974   37.7361 O   0  0  0  0  0  0  0  0  0  0  0  0
   -1.4640   20.0987   45.2780 F   0  0  0  0  0  0  0  0  0  0  0  0
    3.8412   20.3548   40.3709 C   0  0  0  0  0  0  0  0  0  0  0  0
    3.2293   20.9414   36.7132 O   0  0  0  0  0  0  0  0  0  0  0  0
    4.9034   12.7038   35.6313 C   0  0  2  0  0  0  0  0  0  0  0  0
    0.0841   19.4770   43.6904 C   0  0  0  0  0  0  0  0  0  0  0  0
    4.4189   11.8867   36.5498 C   0  0  1  0  0  0  0  0  0  0  0  0
    3.7138   12.6423   38.5214 C   0  0  0  0  0  0  0  0  0  0  0  0
    4.3362   15.8632   37.1244 N   0  0  0  0  0  0  0  0  0  0  0  0
    3.1492   16.1607   39.1676 N   0  0  0  0  0  0  0  0  0  0  0  0
    4.2705   10.1900   35.4979 O   0  0  0  0  0  0  0  0  0  0  0  0
    6.0602   12.2599   34.2888 S   0  0  0  0  0  0  0  0  0  0  0  0
    4.3956   14.5260   37.0596 C   0  0  0  0  0  0  0  0  0  0  0  0
   -0.5990   18.9395   44.9398 C   0  0  0  0  0  0  0  0  0  0  0  0
    1.5051   19.1470   40.7272 C   0  0  1  0  0  0  0  0  0  0  0  0
   -0.7902   20.4382   43.2727 C   0  0  0  0  0  0  0  0  0  0  0  0
    4.0702   20.0636   36.3656 C   0  0  0  0  0  0  0  0  0  0  0  0
   -1.2645   17.6229   44.4608 C   0  0  1  0  0  0  0  0  0  0  0  0
    2.5651   17.3516   39.8248 C   0  0  0  0  0  0  0  0  0  0  0  0
    5.0317   20.2768   35.6499 O   0  0  0  0  0  0  0  0  0  0  0  0
    2.5531   19.7229   39.8419 C   0  0  2  0  0  0  0  0  0  0  0  0
    1.6625   17.5851   40.9797 C   0  0  0  0  0  0  0  0  0  0  0  0
    3.5479   18.1558   37.9067 C   0  0  0  0  0  0  0  0  0  0  0  0
   -0.7472   17.3125   43.1850 O   0  0  0  0  0  0  0  0  0  0  0  0
    0.2838   18.7331   45.8594 F   0  0  0  0  0  0  0  0  0  0  0  0
    1.1393   20.2320   41.6605 C   0  0  1  0  0  0  0  0  0  0  0  0
    4.0432   13.8783   38.0768 C   0  0  0  0  0  0  0  0  0  0  0  0
    2.9469   18.4564   39.0494 C   0  0  0  0  0  0  0  0  0  0  0  0
    1.7964   20.9906   39.5251 O   0  0  0  0  0  0  0  0  0  0  0  0
   -0.7023   15.2911   44.7579 C   0  0  0  0  0  0  0  0  0  0  0  0
   -0.3451   21.7035   43.1521 O   0  0  0  0  0  0  0  0  0  0  0  0
   -1.7115   20.0487   42.5274 O   0  0  0  0  0  0  0  0  0  0  0  0
    1.1158   19.4714   42.7561 N   0  0  0  0  0  0  0  0  0  0  0  0
    1.5428   21.5039   40.9190 C   0  0  0  0  0  0  0  0  0  0  0  0
    4.0766   18.7948   36.6880 C   0  0  0  0  0  0  0  0  0  0  0  0
    4.1512   14.4155   35.0963 H   0  0  0  0  0  0  0  0  0  0  0  0
    5.8875   14.2981   35.8660 H   0  0  0  0  0  0  0  0  0  0  0  0
    3.8067   20.3928   41.4697 H   0  0  0  0  0  0  0  0  0  0  0  0
    4.7037   19.7512   40.0518 H   0  0  0  0  0  0  0  0  0  0  0  0
    3.9399   21.3751   39.9717 H   0  0  0  0  0  0  0  0  0  0  0  0
    4.0748   12.2208   35.0925 H   0  0  0  0  0  0  0  0  0  0  0  0
    4.1572   12.9425   36.3866 H   0  0  0  0  0  0  0  0  0  0  0  0
    2.6177   12.5582   38.5594 H   0  0  0  0  0  0  0  0  0  0  0  0
    4.1557   12.5094   39.5199 H   0  0  0  0  0  0  0  0  0  0  0  0
    4.8696   16.3661   36.4009 H   0  0  0  0  0  0  0  0  0  0  0  0
    3.8758    9.2832   35.5416 H   0  0  0  0  0  0  0  0  0  0  0  0
    7.2338   11.8043   34.8292 H   0  0  0  0  0  0  0  0  0  0  0  0
    0.4953   18.8941   40.3719 H   0  0  0  0  0  0  0  0  0  0  0  0
   -2.3513   17.7928   44.4642 H   0  0  0  0  0  0  0  0  0  0  0  0
    2.1346   17.3530   41.9458 H   0  0  0  0  0  0  0  0  0  0  0  0
    0.7433   16.9836   41.0371 H   0  0  0  0  0  0  0  0  0  0  0  0
    0.0794   16.7771   43.2853 H   0  0  0  0  0  0  0  0  0  0  0  0
    0.4090   20.9285   42.0980 H   0  0  0  0  0  0  0  0  0  0  0  0
    3.9777   14.5772   38.9238 H   0  0  0  0  0  0  0  0  0  0  0  0
   -0.5925   14.5691   45.5804 H   0  0  0  0  0  0  0  0  0  0  0  0
   -1.5151   14.9668   44.0913 H   0  0  0  0  0  0  0  0  0  0  0  0
    0.2381   15.3455   44.1898 H   0  0  0  0  0  0  0  0  0  0  0  0
    2.4513   21.9475   41.3525 H   0  0  0  0  0  0  0  0  0  0  0  0
    0.7870   22.3018   40.9659 H   0  0  0  0  0  0  0  0  0  0  0  0
    4.5366   18.1172   35.9537 H   0  0  0  0  0  0  0  0  0  0  0  0
  1 17  1  0
  4 14  2  0
  5 12  1  0
  9 16  1  0
  9  1  1  0
  9 11  1  0
 10 18  1  0
 11  3  1  0
 11  5  1  0
 13  4  1  0
 14 23  1  0
 15  3  1  0
 17 13  1  0
 17 31  2  0
 18  6  1  0
 18 29  1  0
 19 26  1  0
 19 30  1  0
 20 10  1  0
 21 39  1  0
 21  8  1  0
 22 28  1  0
 22 18  1  0
 22  2  1  0
 23 26  1  0
 24 21  2  0
 25  7  1  1
 25 19  1  0
 27  4  1  0
 27 32  1  0
 30 37  1  0
 31 12  1  0
 32 23  2  0
 32 25  1  0
 33 25  1  0
 33 38  1  0
 34  2  1  0
 35 20  1  0
 36 20  2  0
 37 10  2  3
 38 30  1  0
 39 27  2  3
  1 40  1  0
  1 41  1  0
  7 42  1  0
  7 43  1  0
  7 44  1  0
  9 45  1  6
 11 46  1  6
 12 47  1  0
 12 48  1  0
 13 49  1  0
 15 50  1  0
 16 51  1  0
 19 52  1  6
 22 53  1  6
 26 54  1  0
 26 55  1  0
 28 56  1  0
 30 57  1  6
 31 58  1  0
 34 59  1  0
 34 60  1  0
 34 61  1  0
 38 62  1  0
 38 63  1  0
 39 64  1  0
M  CHG  2   8  -1  35  -1
M  END
>  <mol_id>  (17) 
2026-08-23-6tgu-s0-n100-prep-0017

>  <rmsd_to_ref>  (17) 


$$$$

     RDKit          3D

 31 34  0  0  0  0  0  0  0  0999 V2000
   -0.9874   19.1821   43.0458 C   0  0  0  0  0  0  0  0  0  0  0  0
    1.2287   20.1567   40.5101 C   0  0  0  0  0  0  0  0  0  0  0  0
    4.7953   17.0396   37.5689 N   0  0  0  0  0  0  0  0  0  0  0  0
    0.9840   17.2249   42.6095 C   0  0  0  0  0  0  0  0  0  0  0  0
    0.2284   20.4600   41.2896 N   0  0  0  0  0  0  0  0  0  0  0  0
    3.8318   19.1075   36.8534 N   0  0  0  0  0  0  0  0  0  0  0  0
    1.0073   18.4332   41.8486 C   0  0  0  0  0  0  0  0  0  0  0  0
    1.7726   18.9103   40.7464 C   0  0  0  0  0  0  0  0  0  0  0  0
    2.7789   18.1620   40.0302 C   0  0  0  0  0  0  0  0  0  0  0  0
    2.4542   20.6751   37.5825 O   0  0  0  0  0  0  0  0  0  0  0  0
    3.8750   18.0850   37.6650 C   0  0  1  0  0  0  0  0  0  0  0  0
    3.1872   18.3573   38.7452 C   0  0  2  0  0  0  0  0  0  0  0  0
    0.0443   17.0459   43.5925 C   0  0  0  0  0  0  0  0  0  0  0  0
    3.0474   19.4996   37.9038 C   0  0  2  0  0  0  0  0  0  0  0  0
    0.0013   19.3820   42.0878 C   0  0  0  0  0  0  0  0  0  0  0  0
   -0.9591   18.0186   43.7875 C   0  0  0  0  0  0  0  0  0  0  0  0
   -1.7736   19.9341   43.2084 H   0  0  0  0  0  0  0  0  0  0  0  0
    1.6066   20.8356   39.7314 H   0  0  0  0  0  0  0  0  0  0  0  0
    5.0346   16.7049   38.5131 H   0  0  0  0  0  0  0  0  0  0  0  0
    4.3828   16.2680   37.0255 H   0  0  0  0  0  0  0  0  0  0  0  0
    5.6474   17.3746   37.0972 H   0  0  0  0  0  0  0  0  0  0  0  0
    1.7222   16.4351   42.4066 H   0  0  0  0  0  0  0  0  0  0  0  0
    4.7100   19.6254   36.7074 H   0  0  0  0  0  0  0  0  0  0  0  0
    3.5814   19.1022   35.8543 H   0  0  0  0  0  0  0  0  0  0  0  0
    3.6916   18.2633   40.6358 H   0  0  0  0  0  0  0  0  0  0  0  0
    2.2352   17.2148   39.9003 H   0  0  0  0  0  0  0  0  0  0  0  0
    2.1540   21.1300   38.4090 H   0  0  0  0  0  0  0  0  0  0  0  0
    2.3706   17.7128   38.3878 H   0  0  0  0  0  0  0  0  0  0  0  0
    0.0729   16.1474   44.2264 H   0  0  0  0  0  0  0  0  0  0  0  0
   -0.8948   18.3242   44.8423 H   0  0  0  0  0  0  0  0  0  0  0  0
   -1.8649   17.4970   43.4450 H   0  0  0  0  0  0  0  0  0  0  0  0
  1 16  1  0
  2  8  1  0
  2  5  2  0
  4 13  2  0
  5 15  1  0
  6 11  1  0
  6 14  1  0
  7 15  1  0
  7  4  1  0
  8  7  2  0
  9  8  1  0
 11  3  1  1
 11 14  1  0
 11 12  1  0
 12  9  1  0
 13 16  1  0
 14 10  1  6
 14 12  1  0
 15  1  2  0
  1 17  1  0
  2 18  1  0
  3 19  1  0
  3 20  1  0
  3 21  1  0
  4 22  1  0
  6 23  1  0
  6 24  1  0
  9 25  1  0
  9 26  1  0
 10 27  1  0
 12 28  1  6
 13 29  1  0
 16 30  1  0
 16 31  1  0
M  CHG  2   3   1   6   1
M  END
>  <mol_id>  (18) 
2026-08-23-6tgu-s0-n100-prep-0018

>  <rmsd_to_ref>  (18) 


$$$$

     RDKit          3D

 32 34  0  0  0  0  0  0  0  0999 V2000
    3.6288   19.8870   36.7823 C   0  0  0  0  0  0  0  0  0  0  0  0
    1.2915   13.0727   42.8723 C   0  0  0  0  0  0  0  0  0  0  0  0
    2.8072   20.2321   37.9342 C   0  0  1  0  0  0  0  0  0  0  0  0
    1.4185   18.6412   41.3301 C   0  0  0  0  0  0  0  0  0  0  0  0
    0.7709   15.5767   43.3426 O   0  0  0  0  0  0  0  0  0  0  0  0
    1.2353   14.4199   42.6779 C   0  0  0  0  0  0  0  0  0  0  0  0
    0.8579   16.9540   42.7264 C   0  0  0  0  0  0  0  0  0  0  0  0
    1.3243   20.7849   40.5014 C   0  0  0  0  0  0  0  0  0  0  0  0
    0.7347   19.4467   42.1027 N   0  0  0  0  0  0  0  0  0  0  0  0
    3.1746   17.9304   38.6648 C   0  0  0  0  0  0  0  0  0  0  0  0
    1.4957   17.2804   41.6318 N   0  0  0  0  0  0  0  0  0  0  0  0
    3.9214   17.6519   37.5511 C   0  0  0  0  0  0  0  0  0  0  0  0
    4.1180   18.5987   36.6133 N   0  0  0  0  0  0  0  0  0  0  0  0
    2.2200   21.4811   37.9293 Cl  0  0  0  0  0  0  0  0  0  0  0  0
   -0.5346   17.3593   44.8476 C   0  0  0  0  0  0  0  0  0  0  0  0
   -0.4641   19.9227   43.9585 O   0  0  0  0  0  0  0  0  0  0  0  0
    1.8116   19.5222   40.1596 C   0  0  0  0  0  0  0  0  0  0  0  0
    2.6279   19.2094   38.9234 C   0  0  0  0  0  0  0  0  0  0  0  0
    3.8158   20.7605   35.9327 O   0  0  0  0  0  0  0  0  0  0  0  0
    0.6848   20.7624   41.6696 N   0  0  0  0  0  0  0  0  0  0  0  0
    0.0709   19.0962   43.2677 C   0  0  0  0  0  0  0  0  0  0  0  0
    0.1418   17.8211   43.5929 N   0  0  0  0  0  0  0  0  0  0  0  0
    1.7474   12.4254   42.1086 H   0  0  0  0  0  0  0  0  0  0  0  0
    0.8810   12.6323   43.7929 H   0  0  0  0  0  0  0  0  0  0  0  0
    3.6907   20.6494   38.4394 H   0  0  0  0  0  0  0  0  0  0  0  0
    1.6882   14.6877   41.7119 H   0  0  0  0  0  0  0  0  0  0  0  0
    1.4523   21.6857   39.8832 H   0  0  0  0  0  0  0  0  0  0  0  0
    2.9919   17.1240   39.3904 H   0  0  0  0  0  0  0  0  0  0  0  0
    4.3619   16.6522   37.4221 H   0  0  0  0  0  0  0  0  0  0  0  0
    0.0457   17.6922   45.7208 H   0  0  0  0  0  0  0  0  0  0  0  0
   -1.5475   17.7855   44.8962 H   0  0  0  0  0  0  0  0  0  0  0  0
   -0.5985   16.2612   44.8468 H   0  0  0  0  0  0  0  0  0  0  0  0
  1  3  1  0
  3 14  1  0
  3 18  1  0
  4 11  1  0
  4  9  1  0
  6  2  2  3
  6  5  1  0
  7  5  1  0
  7 22  1  0
  8 20  2  0
  9 21  1  0
 10 18  2  0
 11  7  2  0
 12 10  1  0
 13  1  1  0
 13 12  2  0
 17  8  1  0
 17  4  2  0
 18 17  1  0
 19  1  2  0
 20  9  1  0
 21 22  1  0
 21 16  2  0
 22 15  1  0
  2 23  1  0
  2 24  1  0
  3 25  1  1
  6 26  1  0
  8 27  1  0
 10 28  1  0
 12 29  1  0
 15 30  1  0
 15 31  1  0
 15 32  1  0
M  END
>  <mol_id>  (19) 
2026-08-23-6tgu-s0-n100-prep-0019

>  <rmsd_to_ref>  (19) 


$$$$

     RDKit          3D

 38 41  0  0  0  0  0  0  0  0999 V2000
    2.2815   15.7069   40.8816 C   0  0  2  0  0  0  0  0  0  0  0  0
   -0.2505   20.3722   41.3839 C   0  0  0  0  0  0  0  0  0  0  0  0
   -1.4360   20.3662   43.0979 N   0  0  0  0  0  0  0  0  0  0  0  0
   -0.1665   19.1223   41.8867 C   0  0  0  0  0  0  0  0  0  0  0  0
    1.8636   18.8523   38.9023 C   0  0  0  0  0  0  0  0  0  0  0  0
    1.4127   15.9723   42.1642 C   0  0  0  0  0  0  0  0  0  0  0  0
    2.8976   14.4920   40.8500 N   0  0  0  0  0  0  0  0  0  0  0  0
    3.3824   17.2830   37.9306 C   0  0  0  0  0  0  0  0  0  0  0  0
    3.0685   19.4419   36.9221 C   0  0  0  0  0  0  0  0  0  0  0  0
    3.6562   18.2204   36.9301 C   0  0  0  0  0  0  0  0  0  0  0  0
    0.5135   20.4956   40.1905 C   0  0  0  0  0  0  0  0  0  0  0  0
   -1.0878   18.0110   44.0630 C   0  0  0  0  0  0  0  0  0  0  0  0
    2.1799   19.7360   37.8594 C   0  0  0  0  0  0  0  0  0  0  0  0
    0.7209   18.2981   41.1274 C   0  0  0  0  0  0  0  0  0  0  0  0
    0.7613   17.1241   41.7771 N   0  0  0  0  0  0  0  0  0  0  0  0
    2.3948   16.6329   40.0016 N   0  0  0  0  0  0  0  0  0  0  0  0
   -0.9403   19.1246   43.0583 C   0  0  0  0  0  0  0  0  0  0  0  0
    2.5070   17.6008   38.9891 C   0  0  0  0  0  0  0  0  0  0  0  0
    3.3804   20.3264   36.0135 O   0  0  0  0  0  0  0  0  0  0  0  0
    1.0520   19.2296   40.0480 C   0  0  0  0  0  0  0  0  0  0  0  0
   -1.0983   21.1329   42.1216 N   0  0  0  0  0  0  0  0  0  0  0  0
    1.4046   15.2753   40.3769 H   0  0  0  0  0  0  0  0  0  0  0  0
    0.7081   15.1500   42.3574 H   0  0  0  0  0  0  0  0  0  0  0  0
    1.9827   16.0547   43.1014 H   0  0  0  0  0  0  0  0  0  0  0  0
    3.0385   14.1533   41.8124 H   0  0  0  0  0  0  0  0  0  0  0  0
    2.3100   13.8224   40.3329 H   0  0  0  0  0  0  0  0  0  0  0  0
    3.8100   14.5819   40.3805 H   0  0  0  0  0  0  0  0  0  0  0  0
    3.8536   16.2898   37.8916 H   0  0  0  0  0  0  0  0  0  0  0  0
    4.3654   17.9606   36.1303 H   0  0  0  0  0  0  0  0  0  0  0  0
    0.6434   21.3761   39.5440 H   0  0  0  0  0  0  0  0  0  0  0  0
   -1.2067   18.4387   45.0695 H   0  0  0  0  0  0  0  0  0  0  0  0
   -1.9733   17.4076   43.8141 H   0  0  0  0  0  0  0  0  0  0  0  0
   -0.1913   17.3741   44.0387 H   0  0  0  0  0  0  0  0  0  0  0  0
    1.6705   20.7101   37.8185 H   0  0  0  0  0  0  0  0  0  0  0  0
    0.5047   17.4675   42.7137 H   0  0  0  0  0  0  0  0  0  0  0  0
    0.5191   16.6569   40.8917 H   0  0  0  0  0  0  0  0  0  0  0  0
    2.5764   17.3378   40.7303 H   0  0  0  0  0  0  0  0  0  0  0  0
    4.0448   20.1044   35.3139 H   0  0  0  0  0  0  0  0  0  0  0  0
  1  7  1  0
  1  6  1  0
  2  4  1  0
  2 21  1  0
  4 17  2  0
  5 20  1  0
  8 18  1  0
  9 13  2  0
 10  9  1  0
 10  8  2  0
 11  2  2  0
 13  5  1  0
 14 15  1  0
 14  4  1  0
 15  6  1  0
 16  1  1  0
 17  3  1  0
 17 12  1  0
 18  5  2  0
 18 16  1  0
 19  9  1  0
 20 11  1  0
 20 14  2  0
 21  3  2  0
  1 22  1  6
  6 23  1  0
  6 24  1  0
  7 25  1  0
  7 26  1  0
  7 27  1  0
  8 28  1  0
 10 29  1  0
 11 30  1  0
 12 31  1  0
 12 32  1  0
 12 33  1  0
 13 34  1  0
 15 35  1  0
 15 36  1  0
 16 37  1  0
 19 38  1  0
M  CHG  2   7   1  15   1
M  END
>  <mol_id>  (20) 
2026-08-23-6tgu-s0-n100-prep-0020

>  <rmsd_to_ref>  (20) 


$$$$

     RDKit          3D

 40 44  0  0  0  0  0  0  0  0999 V2000
    2.4210   15.5520   40.7220 C   0  0  0  0  0  0  0  0  0  0  0  0
    2.2420   19.1490   39.2410 C   0  0  0  0  0  0  0  0  0  0  0  0
   -0.5440   16.8240   44.7240 C   0  0  0  0  0  0  0  0  0  0  0  0
    1.5140   18.8770   40.4450 C   0  0  0  0  0  0  0  0  0  0  0  0
   -1.3160   20.4070   43.9790 N   0  0  0  0  0  0  0  0  0  0  0  0
    1.6760   13.3820   42.3060 C   0  0  0  0  0  0  0  0  0  0  0  0
   -1.1450   19.1830   44.5630 N   0  0  0  0  0  0  0  0  0  0  0  0
    3.8660   20.5970   35.7100 O   0  0  0  0  0  0  0  0  0  0  0  0
    1.2040   21.1150   40.0750 C   0  0  0  0  0  0  0  0  0  0  0  0
    0.9350   17.2900   41.9840 C   0  0  0  0  0  0  0  0  0  0  0  0
    3.2600   20.1610   36.8370 C   0  0  0  0  0  0  0  0  0  0  0  0
    0.1850   18.3380   42.7360 C   0  0  0  0  0  0  0  0  0  0  0  0
   -0.4830   18.1610   44.0030 C   0  0  0  0  0  0  0  0  0  0  0  0
    2.6030   13.2410   41.2460 C   0  0  0  0  0  0  0  0  0  0  0  0
    1.1320   14.6240   42.6080 C   0  0  0  0  0  0  0  0  0  0  0  0
    2.0410   20.5020   38.9270 C   0  0  0  0  0  0  0  0  0  0  0  0
    0.9660   19.9110   40.9440 C   0  0  0  0  0  0  0  0  0  0  0  0
    2.9190   14.2830   40.4360 C   0  0  0  0  0  0  0  0  0  0  0  0
    2.5640   20.9660   37.6730 C   0  0  0  0  0  0  0  0  0  0  0  0
    0.1580   19.6380   42.0930 C   0  0  0  0  0  0  0  0  0  0  0  0
    3.1110   18.3840   38.3890 C   0  0  0  0  0  0  0  0  0  0  0  0
   -0.6310   20.6550   42.8480 C   0  0  0  0  0  0  0  0  0  0  0  0
    1.4360   17.8060   40.8050 N   0  0  0  0  0  0  0  0  0  0  0  0
    1.4930   15.8150   41.7980 C   0  0  0  0  0  0  0  0  0  0  0  0
    3.5530   18.7790   37.2220 C   0  0  0  0  0  0  0  0  0  0  0  0
    2.7505   16.3957   40.0979 H   0  0  0  0  0  0  0  0  0  0  0  0
   -0.5363   16.9929   45.8109 H   0  0  0  0  0  0  0  0  0  0  0  0
   -1.4671   16.2968   44.4414 H   0  0  0  0  0  0  0  0  0  0  0  0
    0.3273   16.2149   44.4414 H   0  0  0  0  0  0  0  0  0  0  0  0
    1.3838   12.5006   42.8958 H   0  0  0  0  0  0  0  0  0  0  0  0
    3.7124   21.5216   35.3914 H   0  0  0  0  0  0  0  0  0  0  0  0
    0.8718   22.1539   40.2174 H   0  0  0  0  0  0  0  0  0  0  0  0
    3.0785   12.2640   41.0746 H   0  0  0  0  0  0  0  0  0  0  0  0
    0.4315   14.7255   43.4500 H   0  0  0  0  0  0  0  0  0  0  0  0
    3.5644   14.1264   39.5591 H   0  0  0  0  0  0  0  0  0  0  0  0
    2.3929   22.0128   37.3815 H   0  0  0  0  0  0  0  0  0  0  0  0
    3.4283   17.3925   38.7443 H   0  0  0  0  0  0  0  0  0  0  0  0
   -0.6542   21.6808   42.4514 H   0  0  0  0  0  0  0  0  0  0  0  0
    1.7976   17.1022   40.1457 H   0  0  0  0  0  0  0  0  0  0  0  0
    4.1179   18.1046   36.5617 H   0  0  0  0  0  0  0  0  0  0  0  0
  1 24  1  0
  2  4  2  0
  4 23  1  0
  4 17  1  0
  5  7  1  0
  6 15  1  0
  8 11  1  0
  9 17  1  0
 10 12  2  0
 11 25  1  0
 11 19  2  0
 12 13  1  0
 13  7  2  0
 13  3  1  0
 14  6  2  0
 16  2  1  0
 16  9  2  0
 17 20  2  0
 18  1  2  0
 18 14  1  0
 19 16  1  0
 20 12  1  0
 20 22  1  0
 21  2  1  0
 22  5  2  0
 23 10  1  0
 24 10  1  0
 24 15  2  0
 25 21  2  0
  1 26  1  0
  3 27  1  0
  3 28  1  0
  3 29  1  0
  6 30  1  0
  8 31  1  0
  9 32  1  0
 14 33  1  0
 15 34  1  0
 18 35  1  0
 19 36  1  0
 21 37  1  0
 22 38  1  0
 23 39  1  0
 25 40  1  0
M  END
>  <mol_id>  (21) 
2026-08-23-6tgu-s0-n100-prep-0021

>  <rmsd_to_ref>  (21) 


$$$$

     RDKit          3D

 57 58  0  0  0  0  0  0  0  0999 V2000
    3.1833   18.1473   38.0412 C   0  0  0  0  0  0  0  0  0  0  0  0
   -1.6273   16.8848   46.2028 C   0  0  2  0  0  0  0  0  0  0  0  0
    1.2915   19.1755   41.0758 C   0  0  0  0  0  0  0  0  0  0  0  0
   -1.2612   14.4076   46.4400 C   0  0  0  0  0  0  0  0  0  0  0  0
    3.8076   17.2904   37.2224 C   0  0  0  0  0  0  0  0  0  0  0  0
    3.0253   19.5726   37.4212 C   0  0  0  0  0  0  0  0  0  0  0  0
   -0.4141   20.6701   41.8898 C   0  0  0  0  0  0  0  0  0  0  0  0
    3.6301   20.8809   35.6150 C   0  0  0  0  0  0  0  0  0  0  0  0
    2.7001   17.9549   39.2770 C   0  0  0  0  0  0  0  0  0  0  0  0
    3.4275   13.4489   40.0518 C   0  0  0  0  0  0  0  0  0  0  0  0
    2.6706   16.5144   39.6244 C   0  0  0  0  0  0  0  0  0  0  0  0
    2.8868   12.2703   40.0521 O   0  0  0  0  0  0  0  0  0  0  0  0
   -0.6603   19.7805   42.9782 C   0  0  0  0  0  0  0  0  0  0  0  0
    4.5055   20.8911   34.7324 O   0  0  0  0  0  0  0  0  0  0  0  0
    2.2068   16.1694   40.6660 O   0  0  0  0  0  0  0  0  0  0  0  0
    3.7263   15.9299   37.5579 C   0  0  0  0  0  0  0  0  0  0  0  0
    2.8613   12.2218   37.4969 O   0  0  0  0  0  0  0  0  0  0  0  0
    0.5913   20.4289   40.9484 C   0  0  0  0  0  0  0  0  0  0  0  0
   -0.9398   15.6449   45.6834 C   0  0  0  0  0  0  0  0  0  0  0  0
    3.6472   13.3264   37.5714 C   0  0  0  0  0  0  0  0  0  0  0  0
    1.0771   18.2651   42.1569 C   0  0  0  0  0  0  0  0  0  0  0  0
    3.1139   15.5015   38.7104 N   0  0  0  0  0  0  0  0  0  0  0  0
    2.2568   20.5149   37.7892 O   0  0  0  0  0  0  0  0  0  0  0  0
    2.5744   21.4664   35.6806 O   0  0  0  0  0  0  0  0  0  0  0  0
    3.0265   14.0465   38.7459 C   0  0  0  0  0  0  0  0  0  0  0  0
   -1.4968   17.7909   45.1187 N   0  0  0  0  0  0  0  0  0  0  0  0
   -1.7881   14.8127   47.6399 O   0  0  0  0  0  0  0  0  0  0  0  0
    3.8504   19.8923   36.5410 O   0  0  0  0  0  0  0  0  0  0  0  0
    0.0523   18.5057   43.0890 C   0  0  0  0  0  0  0  0  0  0  0  0
    2.2966   19.0147   40.0846 N   0  0  0  0  0  0  0  0  0  0  0  0
   -0.7561   18.3065   46.3530 C   0  0  0  0  0  0  0  0  0  0  0  0
   -1.5556   20.0605   43.7797 O   0  0  0  0  0  0  0  0  0  0  0  0
   -2.3526   16.4319   46.8947 H   0  0  0  0  0  0  0  0  0  0  0  0
    0.5870   18.6033   40.4543 H   0  0  0  0  0  0  0  0  0  0  0  0
   -0.3491   13.8153   46.6056 H   0  0  0  0  0  0  0  0  0  0  0  0
   -1.9707   13.7748   45.8864 H   0  0  0  0  0  0  0  0  0  0  0  0
    4.3555   17.6352   36.3330 H   0  0  0  0  0  0  0  0  0  0  0  0
   -1.0341   21.5730   41.7883 H   0  0  0  0  0  0  0  0  0  0  0  0
    3.0450   14.0518   40.8885 H   0  0  0  0  0  0  0  0  0  0  0  0
    4.5200   13.4066   40.1733 H   0  0  0  0  0  0  0  0  0  0  0  0
    2.6900   11.9977   40.9833 H   0  0  0  0  0  0  0  0  0  0  0  0
    4.1659   15.1850   36.8781 H   0  0  0  0  0  0  0  0  0  0  0  0
    2.5878   11.9494   38.4086 H   0  0  0  0  0  0  0  0  0  0  0  0
    0.8336   21.1533   40.1569 H   0  0  0  0  0  0  0  0  0  0  0  0
   -1.2411   15.4968   44.6358 H   0  0  0  0  0  0  0  0  0  0  0  0
    0.1415   15.8124   45.7965 H   0  0  0  0  0  0  0  0  0  0  0  0
    4.6967   13.0624   37.7687 H   0  0  0  0  0  0  0  0  0  0  0  0
    3.6837   13.9189   36.6454 H   0  0  0  0  0  0  0  0  0  0  0  0
    1.7150   17.3748   42.2596 H   0  0  0  0  0  0  0  0  0  0  0  0
    1.9461   13.8704   38.6376 H   0  0  0  0  0  0  0  0  0  0  0  0
   -0.9424   17.4997   44.3009 H   0  0  0  0  0  0  0  0  0  0  0  0
   -2.2090   18.2380   44.5240 H   0  0  0  0  0  0  0  0  0  0  0  0
   -1.2825   14.3936   48.3807 H   0  0  0  0  0  0  0  0  0  0  0  0
   -0.2026   17.7700   43.8662 H   0  0  0  0  0  0  0  0  0  0  0  0
    2.8482   19.8705   39.9293 H   0  0  0  0  0  0  0  0  0  0  0  0
   -1.1439   19.1535   46.9380 H   0  0  0  0  0  0  0  0  0  0  0  0
    0.2624   18.6189   46.6271 H   0  0  0  0  0  0  0  0  0  0  0  0
  1  9  2  0
  2 19  1  0
  2 31  1  0
  3 30  1  0
  3 21  1  0
  4 27  1  0
  5 16  2  0
  5  1  1  0
  6 23  2  0
  6  1  1  0
  7 13  1  0
  8 24  1  0
  8 28  1  0
  9 11  1  0
  9 30  1  0
 11 15  2  0
 12 10  1  0
 13 29  1  0
 13 32  2  0
 14  8  2  0
 16 22  1  0
 17 20  1  0
 18  3  1  0
 18  7  2  0
 19  4  1  0
 20 25  1  0
 21 29  2  0
 22 11  1  0
 25 22  1  0
 25 10  1  0
 26  2  1  0
 26 31  1  0
 28  6  1  0
  2 33  1  1
  3 34  1  0
  4 35  1  0
  4 36  1  0
  5 37  1  0
  7 38  1  0
 10 39  1  0
 10 40  1  0
 12 41  1  0
 16 42  1  0
 17 43  1  0
 18 44  1  0
 19 45  1  0
 19 46  1  0
 20 47  1  0
 20 48  1  0
 21 49  1  0
 25 50  1  0
 26 51  1  0
 26 52  1  0
 27 53  1  0
 29 54  1  0
 30 55  1  0
 31 56  1  0
 31 57  1  0
M  CHG  2  24  -1  26   1
M  END
>  <mol_id>  (22) 
2026-08-23-6tgu-s0-n100-prep-0022

>  <rmsd_to_ref>  (22) 


$$$$

     RDKit          3D

 26 26  0  0  0  0  0  0  0  0999 V2000
    3.6570   20.0120   38.7910 C   0  0  0  0  0  0  0  0  0  0  0  0
    3.7450   18.9570   36.7490 O   0  0  0  0  0  0  0  0  0  0  0  0
    0.4290   18.0860   43.2230 C   0  0  0  0  0  0  0  0  0  0  0  0
    2.5730   18.3520   40.1750 C   0  0  0  0  0  0  0  0  0  0  0  0
    0.9980   20.0810   41.5060 C   0  0  0  0  0  0  0  0  0  0  0  0
    1.5190   17.8560   41.0700 C   0  0  0  0  0  0  0  0  0  0  0  0
    2.6170   19.6000   39.8070 C   0  0  0  0  0  0  0  0  0  0  0  0
    0.9990   18.7570   41.9390 C   0  0  0  0  0  0  0  0  0  0  0  0
    2.4650   20.6290   36.9000 O   0  0  0  0  0  0  0  0  0  0  0  0
   -1.0520   18.3730   43.4950 C   0  0  0  0  0  0  0  0  0  0  0  0
    1.7620   20.4610   40.4290 C   0  0  0  0  0  0  0  0  0  0  0  0
    3.2400   19.8550   37.4100 C   0  0  0  0  0  0  0  0  0  0  0  0
   -1.4640   17.9110   44.7980 N   0  0  0  0  0  0  0  0  0  0  0  0
    3.9011   21.0714   38.9585 H   0  0  0  0  0  0  0  0  0  0  0  0
    4.5198   19.3454   38.9365 H   0  0  0  0  0  0  0  0  0  0  0  0
    1.0111   18.4457   44.0843 H   0  0  0  0  0  0  0  0  0  0  0  0
    0.5104   17.0001   43.0671 H   0  0  0  0  0  0  0  0  0  0  0  0
    3.3407   17.6547   39.8083 H   0  0  0  0  0  0  0  0  0  0  0  0
    0.3818   20.8269   42.0295 H   0  0  0  0  0  0  0  0  0  0  0  0
    1.1715   16.8128   41.0369 H   0  0  0  0  0  0  0  0  0  0  0  0
   -1.2199   19.4584   43.4341 H   0  0  0  0  0  0  0  0  0  0  0  0
   -1.6453   17.8344   42.7415 H   0  0  0  0  0  0  0  0  0  0  0  0
    1.6813   21.4929   40.0566 H   0  0  0  0  0  0  0  0  0  0  0  0
   -0.9783   18.4557   45.5248 H   0  0  0  0  0  0  0  0  0  0  0  0
   -2.4816   18.0335   44.8998 H   0  0  0  0  0  0  0  0  0  0  0  0
   -1.2263   16.9140   44.8998 H   0  0  0  0  0  0  0  0  0  0  0  0
  1  7  1  0
  2 12  2  0
  3 10  1  0
  4  6  2  0
  5  8  2  0
  6  8  1  0
  7  4  1  0
  7 11  2  0
  8  3  1  0
  9 12  1  0
 10 13  1  0
 11  5  1  0
 12  1  1  0
  1 14  1  0
  1 15  1  0
  3 16  1  0
  3 17  1  0
  4 18  1  0
  5 19  1  0
  6 20  1  0
 10 21  1  0
 10 22  1  0
 11 23  1  0
 13 24  1  0
 13 25  1  0
 13 26  1  0
M  CHG  2   9  -1  13   1
M  END
>  <mol_id>  (23) 
2026-08-23-6tgu-s0-n100-prep-0023

>  <rmsd_to_ref>  (23) 


$$$$

     RDKit          3D

 38 40  0  0  0  0  0  0  0  0999 V2000
    4.7680   16.5110   36.3190 C   0  0  0  0  0  0  0  0  0  0  0  0
    3.5790   17.1440   38.1980 O   0  0  0  0  0  0  0  0  0  0  0  0
    0.3530   18.5560   42.4870 C   0  0  1  0  0  0  0  0  0  0  0  0
    3.4720   20.6430   36.5460 O   0  0  0  0  0  0  0  0  0  0  0  0
   -0.1650   16.9300   43.8440 C   0  0  0  0  0  0  0  0  0  0  0  0
    0.6340   20.7930   41.6140 C   0  0  0  0  0  0  0  0  0  0  0  0
    2.7440   20.5030   37.5000 C   0  0  0  0  0  0  0  0  0  0  0  0
    1.6650   18.9320   40.4880 C   0  0  0  0  0  0  0  0  0  0  0  0
    0.9110   19.4550   41.4940 C   0  0  0  0  0  0  0  0  0  0  0  0
    0.4730   17.2230   42.6350 N   0  0  0  0  0  0  0  0  0  0  0  0
   -1.4540   18.1740   45.5970 N   0  0  0  0  0  0  0  0  0  0  0  0
   -0.7410   18.1030   44.3890 C   0  0  0  0  0  0  0  0  0  0  0  0
    1.8280   21.6870   37.7240 C   0  0  0  0  0  0  0  0  0  0  0  0
    4.0940   17.3820   37.0590 C   0  0  0  0  0  0  0  0  0  0  0  0
   -0.3810   19.1820   43.5590 C   0  0  0  0  0  0  0  0  0  0  0  0
    4.1470   18.4090   36.4160 N   0  0  0  0  0  0  0  0  0  0  0  0
   -0.1710   21.2340   42.6830 C   0  0  0  0  0  0  0  0  0  0  0  0
    2.0350   19.6150   39.4810 N   0  0  0  0  0  0  0  0  0  0  0  0
    2.1380   17.6640   40.1460 C   0  0  0  0  0  0  0  0  0  0  0  0
    2.8550   17.9560   38.9530 C   0  0  0  0  0  0  0  0  0  0  0  0
   -0.6220   20.4390   43.6380 N   0  0  0  0  0  0  0  0  0  0  0  0
    2.6410   19.3480   38.5450 C   0  0  0  0  0  0  0  0  0  0  0  0
    5.3082   15.8129   36.9753 H   0  0  0  0  0  0  0  0  0  0  0  0
    4.0670   15.9494   35.6841 H   0  0  0  0  0  0  0  0  0  0  0  0
    5.4876   17.0487   35.6841 H   0  0  0  0  0  0  0  0  0  0  0  0
   -0.5333   18.4058   41.8530 H   0  0  0  0  0  0  0  0  0  0  0  0
   -0.2126   15.9325   44.3051 H   0  0  0  0  0  0  0  0  0  0  0  0
    1.0352   21.5125   40.8850 H   0  0  0  0  0  0  0  0  0  0  0  0
   -0.7972   18.1086   46.3877 H   0  0  0  0  0  0  0  0  0  0  0  0
   -1.9605   19.0696   45.6446 H   0  0  0  0  0  0  0  0  0  0  0  0
   -2.1272   17.3959   45.6446 H   0  0  0  0  0  0  0  0  0  0  0  0
    1.7000   21.8524   38.8039 H   0  0  0  0  0  0  0  0  0  0  0  0
    2.2695   22.5841   37.2654 H   0  0  0  0  0  0  0  0  0  0  0  0
    0.8488   21.4849   37.2654 H   0  0  0  0  0  0  0  0  0  0  0  0
    3.6934   19.2629   36.7710 H   0  0  0  0  0  0  0  0  0  0  0  0
   -0.4393   22.2999   42.7253 H   0  0  0  0  0  0  0  0  0  0  0  0
    2.7986   17.2554   40.9249 H   0  0  0  0  0  0  0  0  0  0  0  0
    1.3526   16.9028   40.0289 H   0  0  0  0  0  0  0  0  0  0  0  0
  1 14  1  0
  2 20  1  0
  3  9  1  0
  3 10  1  0
  3 15  1  0
  4  7  2  0
  5 12  1  0
  6 17  1  0
  7 13  1  0
  7 22  1  0
  8  9  1  0
  9  6  2  0
 10  5  2  0
 12 11  1  0
 14  2  1  0
 15 21  1  0
 15 12  2  0
 16 14  2  3
 17 21  2  0
 18  8  2  0
 19  8  1  0
 20 19  1  0
 22 20  2  0
 22 18  1  0
  1 23  1  0
  1 24  1  0
  1 25  1  0
  3 26  1  6
  5 27  1  0
  6 28  1  0
 11 29  1  0
 11 30  1  0
 11 31  1  0
 13 32  1  0
 13 33  1  0
 13 34  1  0
 16 35  1  0
 17 36  1  0
 19 37  1  0
 19 38  1  0
M  CHG  1  11   1
M  END
>  <mol_id>  (24) 
2026-08-23-6tgu-s0-n100-prep-0024

>  <rmsd_to_ref>  (24) 


$$$$

     RDKit          3D

 25 27  0  0  0  0  0  0  0  0999 V2000
    2.1314   16.2835   40.7332 F   0  0  0  0  0  0  0  0  0  0  0  0
   -0.8715   17.0987   43.1317 C   0  0  0  0  0  0  0  0  0  0  0  0
    2.3066   17.3613   40.0218 C   0  0  0  0  0  0  0  0  0  0  0  0
    2.9741   20.5843   37.4053 N   0  0  0  0  0  0  0  0  0  0  0  0
    1.5359   18.4895   40.3665 C   0  0  0  0  0  0  0  0  0  0  0  0
    2.6291   19.6778   38.3681 C   0  0  0  0  0  0  0  0  0  0  0  0
   -0.3794   19.4027   41.6483 C   0  0  0  0  0  0  0  0  0  0  0  0
    1.7807   19.7168   39.5199 C   0  0  0  0  0  0  0  0  0  0  0  0
    0.4369   18.3020   41.4451 C   0  0  0  0  0  0  0  0  0  0  0  0
    3.3352   18.5033   38.1267 C   0  0  0  0  0  0  0  0  0  0  0  0
    4.1071   18.6576   36.9679 O   0  0  0  0  0  0  0  0  0  0  0  0
   -1.6746   18.1433   43.3152 N   0  0  0  0  0  0  0  0  0  0  0  0
    3.8530   20.0208   36.5602 N   0  0  0  0  0  0  0  0  0  0  0  0
    3.1908   17.3665   38.9010 C   0  0  0  0  0  0  0  0  0  0  0  0
   -1.3590   19.2396   42.6071 C   0  0  0  0  0  0  0  0  0  0  0  0
    1.1431   21.0325   39.7496 C   0  0  0  0  0  0  0  0  0  0  0  0
    0.1682   17.0936   42.1778 C   0  0  0  0  0  0  0  0  0  0  0  0
   -1.0244   16.2014   43.7494 H   0  0  0  0  0  0  0  0  0  0  0  0
   -0.2558   20.3398   41.0857 H   0  0  0  0  0  0  0  0  0  0  0  0
    3.7614   16.4598   38.6514 H   0  0  0  0  0  0  0  0  0  0  0  0
   -1.9654   20.1320   42.8209 H   0  0  0  0  0  0  0  0  0  0  0  0
    0.9191   21.1494   40.8202 H   0  0  0  0  0  0  0  0  0  0  0  0
    1.8268   21.8322   39.4285 H   0  0  0  0  0  0  0  0  0  0  0  0
    0.2097   21.0936   39.1709 H   0  0  0  0  0  0  0  0  0  0  0  0
    0.7608   16.1845   41.9981 H   0  0  0  0  0  0  0  0  0  0  0  0
  2 12  2  0
  3  5  2  0
  3  1  1  0
  4  6  1  0
  5  9  1  0
  6  8  2  0
  7 15  2  0
  8 16  1  0
  8  5  1  0
  9  7  1  0
  9 17  2  0
 10  6  1  0
 10 14  2  0
 11 10  1  0
 13 11  1  0
 13  4  2  0
 14  3  1  0
 15 12  1  0
 17  2  1  0
  2 18  1  0
  7 19  1  0
 14 20  1  0
 15 21  1  0
 16 22  1  0
 16 23  1  0
 16 24  1  0
 17 25  1  0
M  END
>  <mol_id>  (25) 
2026-08-23-6tgu-s0-n100-prep-0026

>  <rmsd_to_ref>  (25) 


$$$$

     RDKit          3D

 29 30  0  0  0  0  0  0  0  0999 V2000
    2.2842   20.0753   38.8468 C   0  0  0  0  0  0  0  0  0  0  0  0
    3.5815   21.3187   35.6639 O   0  0  0  0  0  0  0  0  0  0  0  0
    0.6707   17.0187   41.6174 C   0  0  0  0  0  0  0  0  0  0  0  0
   -0.2000   16.0165   43.3229 C   0  0  0  0  0  0  0  0  0  0  0  0
   -0.0672   18.0892   42.5746 C   0  0  0  0  0  0  0  0  0  0  0  0
    3.9353   19.3272   36.8508 C   0  0  0  0  0  0  0  0  0  0  0  0
    0.2392   19.4610   42.1778 C   0  0  0  0  0  0  0  0  0  0  0  0
    1.0714   19.2264   40.9738 C   0  0  0  0  0  0  0  0  0  0  0  0
    1.1854   17.9067   40.8030 C   0  0  0  0  0  0  0  0  0  0  0  0
    2.5356   20.9685   37.8435 C   0  0  0  0  0  0  0  0  0  0  0  0
    0.6693   16.0402   42.4416 C   0  0  0  0  0  0  0  0  0  0  0  0
    1.0720   20.7370   40.1496 S   0  0  0  0  0  0  0  0  0  0  0  0
    2.8213   18.8022   38.8856 C   0  0  0  0  0  0  0  0  0  0  0  0
    3.3518   20.6541   36.7469 C   0  0  0  0  0  0  0  0  0  0  0  0
   -0.9481   15.4282   44.0574 N   0  0  0  0  0  0  0  0  0  0  0  0
    3.7055   18.4495   37.8474 C   0  0  0  0  0  0  0  0  0  0  0  0
    3.2034   22.2267   35.5507 H   0  0  0  0  0  0  0  0  0  0  0  0
   -0.3799   17.0775   43.5506 H   0  0  0  0  0  0  0  0  0  0  0  0
   -1.1544   17.9336   42.5136 H   0  0  0  0  0  0  0  0  0  0  0  0
    0.2924   17.9385   43.6031 H   0  0  0  0  0  0  0  0  0  0  0  0
    4.6212   19.0134   36.0501 H   0  0  0  0  0  0  0  0  0  0  0  0
   -0.0648   20.4094   42.6448 H   0  0  0  0  0  0  0  0  0  0  0  0
    1.7440   17.5441   39.9275 H   0  0  0  0  0  0  0  0  0  0  0  0
    2.0820   21.9691   37.8978 H   0  0  0  0  0  0  0  0  0  0  0  0
    0.5606   15.1180   41.8520 H   0  0  0  0  0  0  0  0  0  0  0  0
    1.6138   16.1498   42.9947 H   0  0  0  0  0  0  0  0  0  0  0  0
    2.5696   18.0964   39.6909 H   0  0  0  0  0  0  0  0  0  0  0  0
   -1.5586   15.9537   44.6993 H   0  0  0  0  0  0  0  0  0  0  0  0
    4.2030   17.4685   37.8499 H   0  0  0  0  0  0  0  0  0  0  0  0
  1 12  1  0
  2 14  1  0
  3 11  1  0
  3  5  1  0
  4 15  2  3
  6 14  1  0
  6 16  2  0
  7  5  1  0
  8  7  2  0
  9  8  1  0
  9  3  2  0
 10  1  1  0
 11  4  1  0
 12  8  1  0
 13  1  2  0
 14 10  2  0
 16 13  1  0
  2 17  1  0
  4 18  1  0
  5 19  1  0
  5 20  1  0
  6 21  1  0
  7 22  1  0
  9 23  1  0
 10 24  1  0
 11 25  1  0
 11 26  1  0
 13 27  1  0
 15 28  1  0
 16 29  1  0
M  END
>  <mol_id>  (26) 
2026-08-23-6tgu-s0-n100-prep-0027

>  <rmsd_to_ref>  (26) 


$$$$

     RDKit          3D

 59 63  0  0  0  0  0  0  0  0999 V2000
   -0.5556   17.4866   44.1375 C   0  0  0  0  0  0  0  0  0  0  0  0
    3.2140   23.8449   34.4847 O   0  0  0  0  0  0  0  0  0  0  0  0
   -0.9398   18.3830   45.1869 C   0  0  0  0  0  0  0  0  0  0  0  0
    1.6775   20.7575   39.5560 C   0  0  0  0  0  0  0  0  0  0  0  0
    2.5678   18.6251   38.7241 C   0  0  0  0  0  0  0  0  0  0  0  0
    3.8244   23.0425   35.1357 C   0  0  0  0  0  0  0  0  0  0  0  0
    1.3058   18.6050   41.0407 C   0  0  0  0  0  0  0  0  0  0  0  0
   -1.2131   17.8314   46.4639 C   0  0  0  0  0  0  0  0  0  0  0  0
    0.0347   18.1293   42.9562 C   0  0  0  0  0  0  0  0  0  0  0  0
   -2.3889   15.2432   49.9834 C   0  0  0  0  0  0  0  0  0  0  0  0
   -1.3522   16.4133   46.5708 C   0  0  0  0  0  0  0  0  0  0  0  0
   -0.8499   16.0735   44.1838 C   0  0  0  0  0  0  0  0  0  0  0  0
    1.0263   20.2090   40.7149 C   0  0  0  0  0  0  0  0  0  0  0  0
   -1.1917   15.5626   45.4631 C   0  0  0  0  0  0  0  0  0  0  0  0
    3.0941   18.2873   37.4968 C   0  0  0  0  0  0  0  0  0  0  0  0
    1.8235   22.6001   38.0116 C   0  0  0  0  0  0  0  0  0  0  0  0
    2.0688   18.0500   40.0168 C   0  0  0  0  0  0  0  0  0  0  0  0
    2.3775   20.0128   38.6028 C   0  0  1  0  0  0  0  0  0  0  0  0
    1.1167   16.0640   41.5698 C   0  0  0  0  0  0  0  0  0  0  0  0
    3.3395   19.3719   36.6475 O   0  0  0  0  0  0  0  0  0  0  0  0
   -1.8750   16.2906   49.0553 C   0  0  0  0  0  0  0  0  0  0  0  0
    2.6348   21.8312   37.0156 C   0  0  0  0  0  0  0  0  0  0  0  0
    3.2921   21.9750   35.6869 N   0  0  0  0  0  0  0  0  0  0  0  0
    2.8166   20.4855   37.3358 C   0  0  0  0  0  0  0  0  0  0  0  0
   -0.9653   19.8321   45.0738 N   0  0  0  0  0  0  0  0  0  0  0  0
    5.4053   22.9632   35.2165 C   0  0  0  0  0  0  0  0  0  0  0  0
   -0.0887   19.6215   42.8323 C   0  0  0  0  0  0  0  0  0  0  0  0
   -0.9387   21.7661   43.7318 O   0  0  0  0  0  0  0  0  0  0  0  0
   -1.1017   20.3288   43.6190 C   0  0  2  0  0  0  0  0  0  0  0  0
    1.5033   22.2107   39.2250 C   0  0  0  0  0  0  0  0  0  0  0  0
   -1.7061   15.8139   47.7523 N   0  0  0  0  0  0  0  0  0  0  0  0
    0.7049   17.4565   41.9050 C   0  0  0  0  0  0  0  0  0  0  0  0
   -1.3153   18.4774   47.3484 H   0  0  0  0  0  0  0  0  0  0  0  0
   -2.1403   15.5173   51.0193 H   0  0  0  0  0  0  0  0  0  0  0  0
   -3.4809   15.1631   49.8773 H   0  0  0  0  0  0  0  0  0  0  0  0
   -1.9247   14.2765   49.7385 H   0  0  0  0  0  0  0  0  0  0  0  0
   -0.8118   15.4361   43.2881 H   0  0  0  0  0  0  0  0  0  0  0  0
    0.3746   20.8223   41.3546 H   0  0  0  0  0  0  0  0  0  0  0  0
   -1.3340   14.4793   45.5904 H   0  0  0  0  0  0  0  0  0  0  0  0
    3.3049   17.2473   37.2073 H   0  0  0  0  0  0  0  0  0  0  0  0
    1.4594   23.5891   37.6964 H   0  0  0  0  0  0  0  0  0  0  0  0
    2.3576   17.0021   40.1861 H   0  0  0  0  0  0  0  0  0  0  0  0
    2.7208   20.7483   39.3453 H   0  0  0  0  0  0  0  0  0  0  0  0
    1.2799   15.4965   42.4979 H   0  0  0  0  0  0  0  0  0  0  0  0
    0.3256   15.5800   40.9784 H   0  0  0  0  0  0  0  0  0  0  0  0
    2.0486   16.0876   40.9859 H   0  0  0  0  0  0  0  0  0  0  0  0
   -2.5900   17.1263   49.0354 H   0  0  0  0  0  0  0  0  0  0  0  0
   -0.8896   16.6108   49.4248 H   0  0  0  0  0  0  0  0  0  0  0  0
    3.3356   21.1162   35.1198 H   0  0  0  0  0  0  0  0  0  0  0  0
   -0.8990   20.4645   45.8841 H   0  0  0  0  0  0  0  0  0  0  0  0
    5.7129   22.8372   36.2650 H   0  0  0  0  0  0  0  0  0  0  0  0
    5.7601   22.1066   34.6248 H   0  0  0  0  0  0  0  0  0  0  0  0
    5.8398   23.8909   34.8157 H   0  0  0  0  0  0  0  0  0  0  0  0
    0.8868   20.0475   43.1098 H   0  0  0  0  0  0  0  0  0  0  0  0
   -0.4192   19.7683   41.7934 H   0  0  0  0  0  0  0  0  0  0  0  0
   -0.8734   22.0169   44.6873 H   0  0  0  0  0  0  0  0  0  0  0  0
   -2.0531   20.1305   43.1037 H   0  0  0  0  0  0  0  0  0  0  0  0
    1.1216   22.9237   39.9707 H   0  0  0  0  0  0  0  0  0  0  0  0
   -1.8843   14.8036   47.6606 H   0  0  0  0  0  0  0  0  0  0  0  0
  1 12  1  0
  1  3  2  0
  2  6  2  0
  3  8  1  0
  4 13  2  0
  5 17  1  0
  6 26  1  0
  6 23  1  0
  7 32  1  0
  8 11  2  0
  9  1  1  0
 11 31  1  0
 12 14  2  0
 13  7  1  0
 14 11  1  0
 15  5  2  0
 16 30  2  0
 17  7  2  0
 18 24  1  0
 18  5  1  0
 18  4  1  0
 19 32  1  0
 20 24  1  0
 20 15  1  0
 21 10  1  0
 22 24  2  0
 22 16  1  0
 23 22  1  0
 25  3  1  0
 27  9  1  0
 27 29  1  0
 29 28  1  0
 29 25  1  0
 30  4  1  0
 31 21  1  0
 32  9  2  3
  8 33  1  0
 10 34  1  0
 10 35  1  0
 10 36  1  0
 12 37  1  0
 13 38  1  0
 14 39  1  0
 15 40  1  0
 16 41  1  0
 17 42  1  0
 18 43  1  1
 19 44  1  0
 19 45  1  0
 19 46  1  0
 21 47  1  0
 21 48  1  0
 23 49  1  0
 25 50  1  0
 26 51  1  0
 26 52  1  0
 26 53  1  0
 27 54  1  0
 27 55  1  0
 28 56  1  0
 29 57  1  6
 30 58  1  0
 31 59  1  0
M  END
>  <mol_id>  (27) 
2026-08-23-6tgu-s0-n100-prep-0028

>  <rmsd_to_ref>  (27) 


$$$$

     RDKit          3D

 51 54  0  0  0  0  0  0  0  0999 V2000
    2.2746   12.5545   42.1811 C   0  0  0  0  0  0  0  0  0  0  0  0
    4.0369   16.0183   37.4716 O   0  0  0  0  0  0  0  0  0  0  0  0
    0.4766   17.8896   42.3409 C   0  0  0  0  0  0  0  0  0  0  0  0
    0.8291   14.7363   43.1806 C   0  0  0  0  0  0  0  0  0  0  0  0
    1.6424   17.9416   40.0522 C   0  0  0  0  0  0  0  0  0  0  0  0
    4.8583   19.6118   34.8389 O   0  0  0  0  0  0  0  0  0  0  0  0
   -1.2769   21.0548   42.7949 O   0  0  0  0  0  0  0  0  0  0  0  0
    4.5962   17.5357   35.9564 N   0  0  0  0  0  0  0  0  0  0  0  0
    2.0158   16.1019   41.4943 C   0  0  0  0  0  0  0  0  0  0  0  0
    1.3573   17.3014   41.3639 C   0  0  0  0  0  0  0  0  0  0  0  0
    1.6312   20.1106   37.7327 O   0  0  0  0  0  0  0  0  0  0  0  0
   -0.0168   19.2491   42.0000 C   0  0  0  0  0  0  0  0  0  0  0  0
    1.7955   14.8996   42.1416 C   0  0  0  0  0  0  0  0  0  0  0  0
    2.9292   18.0401   37.7493 C   0  0  0  0  0  0  0  0  0  0  0  0
    0.1294   15.8785   43.8298 C   0  0  0  0  0  0  0  0  0  0  0  0
    3.2532   20.8625   34.0774 C   0  0  0  0  0  0  0  0  0  0  0  0
   -0.0119   17.2450   43.5036 C   0  0  0  0  0  0  0  0  0  0  0  0
    3.0196   19.8710   36.0478 C   0  0  0  0  0  0  0  0  0  0  0  0
    3.8440   17.2075   37.0457 C   0  0  0  0  0  0  0  0  0  0  0  0
    1.1702   12.3387   42.9967 C   0  0  0  0  0  0  0  0  0  0  0  0
    3.7333   20.0952   34.9415 C   0  0  0  0  0  0  0  0  0  0  0  0
   -1.1813   19.3073   44.1040 N   0  0  0  0  0  0  0  0  0  0  0  0
    0.4862   13.4160   43.4747 C   0  0  0  0  0  0  0  0  0  0  0  0
    2.5231   19.3329   37.1630 C   0  0  0  0  0  0  0  0  0  0  0  0
   -0.8713   18.0241   44.3526 C   0  0  0  0  0  0  0  0  0  0  0  0
    0.2816   21.3022   40.4414 C   0  0  0  0  0  0  0  0  0  0  0  0
   -1.5223   17.3276   45.3361 N   0  0  0  0  0  0  0  0  0  0  0  0
    1.0407   19.0827   39.8565 O   0  0  0  0  0  0  0  0  0  0  0  0
    2.4710   17.4232   39.0126 C   0  0  0  0  0  0  0  0  0  0  0  0
    0.4433   19.8497   40.8018 C   0  0  0  0  0  0  0  0  0  0  0  0
    2.6658   13.8635   41.7896 C   0  0  0  0  0  0  0  0  0  0  0  0
   -0.8224   19.9302   42.9891 C   0  0  0  0  0  0  0  0  0  0  0  0
    2.8597   11.6916   41.8302 H   0  0  0  0  0  0  0  0  0  0  0  0
    5.2040   19.0085   35.5435 H   0  0  0  0  0  0  0  0  0  0  0  0
    4.5137   18.4729   35.5369 H   0  0  0  0  0  0  0  0  0  0  0  0
    5.2469   16.8465   35.5532 H   0  0  0  0  0  0  0  0  0  0  0  0
    2.9654   16.0968   40.9392 H   0  0  0  0  0  0  0  0  0  0  0  0
    1.1873   19.8241   38.5699 H   0  0  0  0  0  0  0  0  0  0  0  0
   -0.3867   15.5990   44.7601 H   0  0  0  0  0  0  0  0  0  0  0  0
    2.7986   21.7334   34.5723 H   0  0  0  0  0  0  0  0  0  0  0  0
    4.0530   21.2006   33.4021 H   0  0  0  0  0  0  0  0  0  0  0  0
    2.4858   20.3280   33.4981 H   0  0  0  0  0  0  0  0  0  0  0  0
    0.8539   11.3164   43.2518 H   0  0  0  0  0  0  0  0  0  0  0  0
   -0.3815   13.2355   44.1262 H   0  0  0  0  0  0  0  0  0  0  0  0
    0.2290   21.9044   41.3605 H   0  0  0  0  0  0  0  0  0  0  0  0
    1.1418   21.6282   39.8381 H   0  0  0  0  0  0  0  0  0  0  0  0
   -0.6440   21.4354   39.8622 H   0  0  0  0  0  0  0  0  0  0  0  0
   -2.1551   17.8196   45.9829 H   0  0  0  0  0  0  0  0  0  0  0  0
   -1.3789   16.3118   45.4288 H   0  0  0  0  0  0  0  0  0  0  0  0
    2.8276   16.3959   39.1783 H   0  0  0  0  0  0  0  0  0  0  0  0
    3.6004   14.0509   41.2406 H   0  0  0  0  0  0  0  0  0  0  0  0
  1 20  1  0
  3 17  2  0
  4 23  1  0
  4 15  2  0
  5 10  2  0
  6 21  1  0
  7 32  2  0
  8 19  1  0
  9 13  2  0
 10  9  1  0
 10  3  1  0
 12  3  1  0
 12 32  1  0
 13  4  1  0
 14 29  2  3
 16 21  1  0
 17 15  1  0
 17 25  1  0
 18 24  2  0
 19  2  2  0
 19 14  1  0
 20 23  2  0
 21 18  2  0
 22 25  2  0
 24 14  1  0
 24 11  1  0
 25 27  1  0
 26 30  1  0
 28  5  1  0
 28 30  1  0
 29  5  1  0
 30 12  2  0
 31  1  2  0
 31 13  1  0
 32 22  1  0
  1 33  1  0
  6 34  1  0
  8 35  1  0
  8 36  1  0
  9 37  1  0
 11 38  1  0
 15 39  1  0
 16 40  1  0
 16 41  1  0
 16 42  1  0
 20 43  1  0
 23 44  1  0
 26 45  1  0
 26 46  1  0
 26 47  1  0
 27 48  1  0
 27 49  1  0
 29 50  1  0
 31 51  1  0
M  END
>  <mol_id>  (28) 
2026-08-23-6tgu-s0-n100-prep-0029

>  <rmsd_to_ref>  (28) 


$$$$

     RDKit          3D

 60 65  0  0  0  0  0  0  0  0999 V2000
    3.1280   20.2264   36.8039 C   0  0  1  0  0  0  0  0  0  0  0  0
    4.4123   19.0551   34.8507 O   0  0  0  0  0  0  0  0  0  0  0  0
    2.5971   15.0956   39.7645 C   0  0  0  0  0  0  0  0  0  0  0  0
    3.0722   13.7658   39.9024 C   0  0  0  0  0  0  0  0  0  0  0  0
    4.5863   14.1540   38.1251 C   0  0  0  0  0  0  0  0  0  0  0  0
    3.3089   20.3027   39.2497 C   0  0  0  0  0  0  0  0  0  0  0  0
    2.8810   18.2506   37.7435 C   0  0  1  0  0  0  0  0  0  0  0  0
   -1.2989   17.5067   45.4171 C   0  0  0  0  0  0  0  0  0  0  0  0
   -0.6304   17.2989   44.2038 C   0  0  0  0  0  0  0  0  0  0  0  0
    4.0408   13.3073   39.0530 C   0  0  0  0  0  0  0  0  0  0  0  0
    2.4515   17.3648   38.6461 C   0  0  2  0  0  0  0  0  0  0  0  0
   -0.0210   20.7009   41.7528 C   0  0  0  0  0  0  0  0  0  0  0  0
    1.1269   19.2211   39.9288 C   0  0  1  0  0  0  0  0  0  0  0  0
    1.0898   21.2564   39.1445 C   0  0  0  0  0  0  0  0  0  0  0  0
    3.8869   21.5691   36.8621 C   0  0  0  0  0  0  0  0  0  0  0  0
   -2.0185   16.3354   48.3938 C   0  0  0  0  0  0  0  0  0  0  0  0
   -0.2138   18.5026   43.4088 C   0  0  0  0  0  0  0  0  0  0  0  0
    2.0236   20.2079   39.0663 C   0  0  1  0  0  0  0  0  0  0  0  0
   -0.6174   20.8293   43.0526 C   0  0  0  0  0  0  0  0  0  0  0  0
   -1.4199   18.7088   45.9563 C   0  0  0  0  0  0  0  0  0  0  0  0
    3.4378   17.9098   36.4896 O   0  0  0  0  0  0  0  0  0  0  0  0
    1.8567   17.8659   39.9138 C   0  0  0  0  0  0  0  0  0  0  0  0
    3.4995   19.1747   35.8412 C   0  0  0  0  0  0  0  0  0  0  0  0
   -0.6832   19.7459   43.8916 C   0  0  0  0  0  0  0  0  0  0  0  0
   -1.4528   15.9600   49.4064 O   0  0  0  0  0  0  0  0  0  0  0  0
    4.2229   15.4964   38.0429 C   0  0  0  0  0  0  0  0  0  0  0  0
   -1.2182   19.8832   45.2182 N   0  0  0  0  0  0  0  0  0  0  0  0
   -2.8685   17.2211   48.2445 O   0  0  0  0  0  0  0  0  0  0  0  0
    0.4193   18.3948   42.2545 C   0  0  0  0  0  0  0  0  0  0  0  0
   -1.9033   16.3872   45.9218 O   0  0  0  0  0  0  0  0  0  0  0  0
    0.5677   19.5077   41.2795 C   0  0  0  0  0  0  0  0  0  0  0  0
   -1.4669   15.7320   47.1908 C   0  0  0  0  0  0  0  0  0  0  0  0
    2.7696   19.6554   38.0531 C   0  0  2  0  0  0  0  0  0  0  0  0
    3.2166   15.9727   38.8217 C   0  0  0  0  0  0  0  0  0  0  0  0
    2.2417   20.6703   36.3270 H   0  0  0  0  0  0  0  0  0  0  0  0
    1.7568   15.4493   40.3799 H   0  0  0  0  0  0  0  0  0  0  0  0
    2.6651   13.1095   40.6856 H   0  0  0  0  0  0  0  0  0  0  0  0
    5.3357   13.7614   37.4220 H   0  0  0  0  0  0  0  0  0  0  0  0
    3.8072   21.2803   39.1714 H   0  0  0  0  0  0  0  0  0  0  0  0
    4.0086   20.0132   40.0475 H   0  0  0  0  0  0  0  0  0  0  0  0
    3.8842   18.2308   38.1943 H   0  0  0  0  0  0  0  0  0  0  0  0
   -0.4165   16.2819   43.8433 H   0  0  0  0  0  0  0  0  0  0  0  0
    4.3803   12.2629   39.1148 H   0  0  0  0  0  0  0  0  0  0  0  0
    1.5862   17.0858   38.0269 H   0  0  0  0  0  0  0  0  0  0  0  0
   -0.0228   21.5789   41.0902 H   0  0  0  0  0  0  0  0  0  0  0  0
    0.1602   19.3181   39.4131 H   0  0  0  0  0  0  0  0  0  0  0  0
    0.9151   21.5138   40.1996 H   0  0  0  0  0  0  0  0  0  0  0  0
    1.4810   22.1361   38.6124 H   0  0  0  0  0  0  0  0  0  0  0  0
    0.1431   20.9395   38.6826 H   0  0  0  0  0  0  0  0  0  0  0  0
    3.9932   21.8850   37.9104 H   0  0  0  0  0  0  0  0  0  0  0  0
    4.8837   21.4468   36.4132 H   0  0  0  0  0  0  0  0  0  0  0  0
    3.3247   22.3326   36.3043 H   0  0  0  0  0  0  0  0  0  0  0  0
   -1.0227   21.7992   43.3766 H   0  0  0  0  0  0  0  0  0  0  0  0
   -1.6879   18.7894   47.0201 H   0  0  0  0  0  0  0  0  0  0  0  0
    1.1314   17.1090   40.2472 H   0  0  0  0  0  0  0  0  0  0  0  0
    2.7317   18.0383   40.5576 H   0  0  0  0  0  0  0  0  0  0  0  0
    4.7491   16.1688   37.3494 H   0  0  0  0  0  0  0  0  0  0  0  0
    0.8641   17.4217   41.9988 H   0  0  0  0  0  0  0  0  0  0  0  0
   -1.7788   14.6776   47.1596 H   0  0  0  0  0  0  0  0  0  0  0  0
   -0.3750   15.8519   47.2492 H   0  0  0  0  0  0  0  0  0  0  0  0
  1 15  1  0
  1 33  1  0
  2 23  2  0
  3  4  1  0
  5 26  2  0
  5 10  1  0
  7 21  1  0
  7 33  1  0
  7 11  1  0
  8 30  1  0
  8 20  1  0
  9  8  2  0
 10  4  2  0
 11 34  1  0
 11 22  1  0
 12 19  1  0
 13 31  1  0
 16 25  1  0
 17 24  1  0
 17  9  1  0
 18  6  1  0
 18 14  1  6
 18 13  1  0
 19 24  2  0
 22 13  1  0
 23 21  1  0
 23  1  1  0
 24 27  1  0
 26 34  1  0
 27 20  2  0
 28 16  2  0
 29 17  2  0
 30 32  1  0
 31 12  2  0
 31 29  1  0
 32 16  1  0
 33 18  1  0
 33  6  1  1
 34  3  2  0
  1 35  1  6
  3 36  1  0
  4 37  1  0
  5 38  1  0
  6 39  1  0
  6 40  1  0
  7 41  1  1
  9 42  1  0
 10 43  1  0
 11 44  1  6
 12 45  1  0
 13 46  1  6
 14 47  1  0
 14 48  1  0
 14 49  1  0
 15 50  1  0
 15 51  1  0
 15 52  1  0
 19 53  1  0
 20 54  1  0
 22 55  1  0
 22 56  1  0
 26 57  1  0
 29 58  1  0
 32 59  1  0
 32 60  1  0
M  CHG  1  25  -1
M  END
>  <mol_id>  (29) 
2026-08-23-6tgu-s0-n100-prep-0030

>  <rmsd_to_ref>  (29) 


$$$$

     RDKit          3D

 22 23  0  0  0  0  0  0  0  0999 V2000
   -0.4701   19.5548   41.3546 N   0  0  0  0  0  0  0  0  0  0  0  0
    3.1391   19.5333   37.8921 C   0  0  0  0  0  0  0  0  0  0  0  0
   -1.1480   18.2758   43.2717 C   0  0  0  0  0  0  0  0  0  0  0  0
    1.1872   20.1368   39.3677 C   0  0  0  0  0  0  0  0  0  0  0  0
    0.6873   18.7748   41.2916 C   0  0  0  0  0  0  0  0  0  0  0  0
    1.9885   20.3658   38.2002 C   0  0  0  0  0  0  0  0  0  0  0  0
    1.5393   19.0905   40.1468 C   0  0  0  0  0  0  0  0  0  0  0  0
    3.4572   18.4595   38.7955 C   0  0  0  0  0  0  0  0  0  0  0  0
   -1.3255   19.3319   42.2875 C   0  0  0  0  0  0  0  0  0  0  0  0
    0.9324   17.8133   42.2288 C   0  0  0  0  0  0  0  0  0  0  0  0
   -2.4707   20.0995   42.5479 N   0  0  0  0  0  0  0  0  0  0  0  0
    0.0274   17.5061   43.2383 N   0  0  0  0  0  0  0  0  0  0  0  0
    2.7435   18.3076   39.9041 C   0  0  0  0  0  0  0  0  0  0  0  0
    3.7485   19.7186   36.9952 H   0  0  0  0  0  0  0  0  0  0  0  0
   -1.9212   18.0828   44.0300 H   0  0  0  0  0  0  0  0  0  0  0  0
    0.3301   20.7800   39.6160 H   0  0  0  0  0  0  0  0  0  0  0  0
    1.7257   21.1911   37.5221 H   0  0  0  0  0  0  0  0  0  0  0  0
    4.2845   17.7707   38.5692 H   0  0  0  0  0  0  0  0  0  0  0  0
    1.8822   17.2603   42.1836 H   0  0  0  0  0  0  0  0  0  0  0  0
   -3.0993   19.8405   43.3217 H   0  0  0  0  0  0  0  0  0  0  0  0
   -2.6829   20.9219   41.9652 H   0  0  0  0  0  0  0  0  0  0  0  0
    3.0686   17.5740   40.6566 H   0  0  0  0  0  0  0  0  0  0  0  0
  1  9  1  0
  2  8  1  0
  2  6  2  0
  4  7  2  0
  5 10  1  0
  5  1  2  0
  6  4  1  0
  7  5  1  0
  8 13  2  0
  9  3  2  0
  9 11  1  0
 10 12  2  0
 12  3  1  0
 13  7  1  0
  2 14  1  0
  3 15  1  0
  4 16  1  0
  6 17  1  0
  8 18  1  0
 10 19  1  0
 11 20  1  0
 11 21  1  0
 13 22  1  0
M  END
>  <mol_id>  (30) 
2026-08-23-6tgu-s0-n100-prep-0031

>  <rmsd_to_ref>  (30) 


$$$$

     RDKit          3D

 29 29  0  0  0  0  0  0  0  0999 V2000
    3.4272   18.7097   36.2105 O   0  0  0  0  0  0  0  0  0  0  0  0
    0.3692   18.0957   42.1067 C   0  0  1  0  0  0  0  0  0  0  0  0
   -0.6248   17.2849   42.9235 C   0  0  0  0  0  0  0  0  0  0  0  0
    0.4165   15.3284   41.3762 C   0  0  0  0  0  0  0  0  0  0  0  0
    1.3401   19.7661   39.9060 N   0  0  0  0  0  0  0  0  0  0  0  0
    1.9443   20.3023   38.8847 C   0  0  0  0  0  0  0  0  0  0  0  0
    2.7446   19.4667   38.1544 C   0  0  2  0  0  0  0  0  0  0  0  0
    3.3638   20.9001   36.6615 O   0  0  0  0  0  0  0  0  0  0  0  0
    3.2114   19.6325   36.9047 C   0  0  0  0  0  0  0  0  0  0  0  0
    2.8736   17.9914   39.1971 S   0  0  0  0  0  0  0  0  0  0  0  0
    0.5590   19.4881   42.5190 C   0  0  0  0  0  0  0  0  0  0  0  0
    1.6238   18.5125   40.1867 C   0  0  1  0  0  0  0  0  0  0  0  0
    0.9719   17.6676   41.0651 C   0  0  1  0  0  0  0  0  0  0  0  0
    1.0404   16.1610   40.6817 C   0  0  0  0  0  0  0  0  0  0  0  0
   -0.4739   19.8440   43.4544 O   0  0  0  0  0  0  0  0  0  0  0  0
   -0.4404   18.4064   41.4300 H   0  0  0  0  0  0  0  0  0  0  0  0
   -0.1821   17.0378   43.8997 H   0  0  0  0  0  0  0  0  0  0  0  0
   -1.5415   17.8738   43.0752 H   0  0  0  0  0  0  0  0  0  0  0  0
   -0.8699   16.3567   42.3866 H   0  0  0  0  0  0  0  0  0  0  0  0
    0.4541   14.2595   41.1192 H   0  0  0  0  0  0  0  0  0  0  0  0
   -0.1697   15.6651   42.2439 H   0  0  0  0  0  0  0  0  0  0  0  0
    1.8189   21.3637   38.6247 H   0  0  0  0  0  0  0  0  0  0  0  0
    3.6365   19.9712   38.5545 H   0  0  0  0  0  0  0  0  0  0  0  0
    1.5436   19.6006   42.9963 H   0  0  0  0  0  0  0  0  0  0  0  0
    0.5071   20.1467   41.6394 H   0  0  0  0  0  0  0  0  0  0  0  0
    0.8911   18.1789   39.4372 H   0  0  0  0  0  0  0  0  0  0  0  0
    0.0461   17.7743   40.4806 H   0  0  0  0  0  0  0  0  0  0  0  0
    1.6290   15.8329   39.8123 H   0  0  0  0  0  0  0  0  0  0  0  0
   -0.3019   19.3982   44.3215 H   0  0  0  0  0  0  0  0  0  0  0  0
  1  9  1  0
  2  3  1  0
  5 12  1  0
  6  5  2  0
  7  9  1  0
  7  6  1  0
  7 10  1  0
  8  9  2  0
 10 12  1  0
 11  2  1  0
 11 15  1  0
 12 13  1  0
 13 14  1  0
 13  2  1  0
 14  4  2  3
  2 16  1  1
  3 17  1  0
  3 18  1  0
  3 19  1  0
  4 20  1  0
  4 21  1  0
  6 22  1  0
  7 23  1  1
 11 24  1  0
 11 25  1  0
 12 26  1  1
 13 27  1  6
 14 28  1  0
 15 29  1  0
M  CHG  1   1  -1
M  END
>  <mol_id>  (31) 
2026-08-23-6tgu-s0-n100-prep-0032

>  <rmsd_to_ref>  (31) 


$$$$

     RDKit          3D

 23 24  0  0  0  0  0  0  0  0999 V2000
   -0.4564   17.6938   42.8975 C   0  0  0  0  0  0  0  0  0  0  0  0
    1.3391   20.2680   40.7983 C   0  0  0  0  0  0  0  0  0  0  0  0
    3.3924   19.9320   39.2420 C   0  0  0  0  0  0  0  0  0  0  0  0
    0.6162   15.5591   42.4106 C   0  0  0  0  0  0  0  0  0  0  0  0
    1.4612   16.0687   41.4898 C   0  0  0  0  0  0  0  0  0  0  0  0
    1.8935   21.1212   37.9197 O   0  0  0  0  0  0  0  0  0  0  0  0
    2.2975   19.3741   40.1268 C   0  0  0  0  0  0  0  0  0  0  0  0
    1.3640   17.4640   41.2480 C   0  0  0  0  0  0  0  0  0  0  0  0
   -0.9601   14.7660   43.6928 Cl  0  0  0  0  0  0  0  0  0  0  0  0
    0.4550   19.7366   41.6888 C   0  0  0  0  0  0  0  0  0  0  0  0
    2.9242   20.3537   37.8923 C   0  0  0  0  0  0  0  0  0  0  0  0
    3.5192   20.1978   36.8306 O   0  0  0  0  0  0  0  0  0  0  0  0
   -0.5355   16.2245   42.9975 C   0  0  0  0  0  0  0  0  0  0  0  0
    0.4703   18.2929   42.0164 C   0  0  0  0  0  0  0  0  0  0  0  0
    2.2572   18.0289   40.3216 C   0  0  0  0  0  0  0  0  0  0  0  0
   -1.1194   18.3231   43.5094 H   0  0  0  0  0  0  0  0  0  0  0  0
    1.3369   21.3471   40.5846 H   0  0  0  0  0  0  0  0  0  0  0  0
    3.8314   20.8065   39.7446 H   0  0  0  0  0  0  0  0  0  0  0  0
    4.1208   19.1223   39.0878 H   0  0  0  0  0  0  0  0  0  0  0  0
    0.8201   14.5337   42.7525 H   0  0  0  0  0  0  0  0  0  0  0  0
    2.1861   15.4370   40.9555 H   0  0  0  0  0  0  0  0  0  0  0  0
   -0.2835   20.3924   42.1731 H   0  0  0  0  0  0  0  0  0  0  0  0
    2.9311   17.3757   39.7479 H   0  0  0  0  0  0  0  0  0  0  0  0
  1 13  2  0
  2 10  1  0
  3  7  1  0
  4 13  1  0
  5  4  2  0
  7 15  1  0
  7  2  2  0
  8  5  1  0
  8 14  1  0
 10 14  2  0
 11  6  1  0
 11  3  1  0
 12 11  2  0
 13  9  1  0
 14  1  1  0
 15  8  2  0
  1 16  1  0
  2 17  1  0
  3 18  1  0
  3 19  1  0
  4 20  1  0
  5 21  1  0
 10 22  1  0
 15 23  1  0
M  CHG  1   6  -1
M  END
>  <mol_id>  (32) 
2026-08-23-6tgu-s0-n100-prep-0033

>  <rmsd_to_ref>  (32) 


$$$$

     RDKit          3D

 25 27  0  0  0  0  0  0  0  0999 V2000
    3.6254   19.8291   36.7027 O   0  0  0  0  0  0  0  0  0  0  0  0
    1.3544   20.4311   39.4171 C   0  0  0  0  0  0  0  0  0  0  0  0
    1.4511   16.8528   41.0207 C   0  0  0  0  0  0  0  0  0  0  0  0
   -0.7917   15.3790   43.2712 O   0  0  0  0  0  0  0  0  0  0  0  0
    3.0993   19.4520   37.9156 C   0  0  0  0  0  0  0  0  0  0  0  0
    2.8310   17.5448   39.3098 C   0  0  0  0  0  0  0  0  0  0  0  0
    0.3974   16.9678   41.7806 C   0  0  0  0  0  0  0  0  0  0  0  0
    0.2806   19.5237   41.2684 C   0  0  0  0  0  0  0  0  0  0  0  0
   -0.6069   16.5468   42.8663 C   0  0  0  0  0  0  0  0  0  0  0  0
    2.3104   20.3882   38.4781 C   0  0  0  0  0  0  0  0  0  0  0  0
    1.9400   18.0255   40.1284 C   0  0  0  0  0  0  0  0  0  0  0  0
   -0.8710   17.6995   43.1717 C   0  0  0  0  0  0  0  0  0  0  0  0
    3.3915   18.1676   38.2945 C   0  0  0  0  0  0  0  0  0  0  0  0
    1.2195   19.2647   40.1899 C   0  0  1  0  0  0  0  0  0  0  0  0
   -0.2306   18.5905   42.1579 C   0  0  0  0  0  0  0  0  0  0  0  0
    3.4620   20.7412   36.3544 H   0  0  0  0  0  0  0  0  0  0  0  0
    0.7204   21.3166   39.5719 H   0  0  0  0  0  0  0  0  0  0  0  0
    2.0061   15.9032   41.0118 H   0  0  0  0  0  0  0  0  0  0  0  0
    3.1497   16.5068   39.4855 H   0  0  0  0  0  0  0  0  0  0  0  0
   -0.0583   20.5629   41.3914 H   0  0  0  0  0  0  0  0  0  0  0  0
    2.5020   21.3844   38.0529 H   0  0  0  0  0  0  0  0  0  0  0  0
   -1.9609   17.8488   43.1679 H   0  0  0  0  0  0  0  0  0  0  0  0
   -0.4969   17.9286   44.1804 H   0  0  0  0  0  0  0  0  0  0  0  0
    4.1457   17.6199   37.7104 H   0  0  0  0  0  0  0  0  0  0  0  0
    1.9541   19.6562   40.9090 H   0  0  0  0  0  0  0  0  0  0  0  0
  1  5  1  0
  3  7  2  0
  5 13  2  0
  5 10  1  0
  6 11  2  0
  7 15  1  0
  7  9  1  0
  8 15  2  0
  9 12  1  0
  9  4  2  0
 10  2  2  0
 11 14  1  0
 11  3  1  0
 13  6  1  0
 14  2  1  0
 14  8  1  0
 15 12  1  0
  1 16  1  0
  2 17  1  0
  3 18  1  0
  6 19  1  0
  8 20  1  0
 10 21  1  0
 12 22  1  0
 12 23  1  0
 13 24  1  0
 14 25  1  6
M  END
>  <mol_id>  (33) 
2026-08-23-6tgu-s0-n100-prep-0034

>  <rmsd_to_ref>  (33) 


$$$$

     RDKit          3D

 35 37  0  0  0  0  0  0  0  0999 V2000
    3.9250   16.2938   37.8647 O   0  0  0  0  0  0  0  0  0  0  0  0
    2.8038   18.5381   38.8002 C   0  0  0  0  0  0  0  0  0  0  0  0
    3.4270   14.8586   39.4403 C   0  0  0  0  0  0  0  0  0  0  0  0
    1.9564   17.4856   40.8118 N   0  0  0  0  0  0  0  0  0  0  0  0
    0.2879   18.9652   41.8019 C   0  0  0  0  0  0  0  0  0  0  0  0
    4.3906   15.0928   37.4982 N   0  0  0  0  0  0  0  0  0  0  0  0
    2.2821   20.9092   38.3526 C   0  0  0  0  0  0  0  0  0  0  0  0
    2.7970   14.1501   40.6445 C   0  0  0  0  0  0  0  0  0  0  0  0
    3.0034   20.8612   37.1770 C   0  0  0  0  0  0  0  0  0  0  0  0
   -1.5372   17.9455   42.9498 C   0  0  0  0  0  0  0  0  0  0  0  0
    3.6210   19.7349   36.8111 N   0  0  0  0  0  0  0  0  0  0  0  0
    2.6960   17.3930   39.7271 C   0  0  1  0  0  0  0  0  0  0  0  0
   -0.9433   19.0782   42.6086 C   0  0  0  0  0  0  0  0  0  0  0  0
   -1.5018   20.3234   42.8356 O   0  0  0  0  0  0  0  0  0  0  0  0
    2.1095   19.7016   39.1527 C   0  0  0  0  0  0  0  0  0  0  0  0
    0.2867   16.5620   42.2076 C   0  0  0  0  0  0  0  0  0  0  0  0
   -0.9345   16.6558   42.9293 C   0  0  0  0  0  0  0  0  0  0  0  0
    3.4671   18.5922   37.6025 C   0  0  0  0  0  0  0  0  0  0  0  0
    0.8496   17.6202   41.6214 C   0  0  0  0  0  0  0  0  0  0  0  0
    3.2763   16.2123   39.0260 C   0  0  0  0  0  0  0  0  0  0  0  0
    4.1116   14.1597   38.4483 N   0  0  0  0  0  0  0  0  0  0  0  0
    2.6894   17.4024   41.5305 H   0  0  0  0  0  0  0  0  0  0  0  0
    0.7642   19.8504   41.3551 H   0  0  0  0  0  0  0  0  0  0  0  0
    1.8372   21.8583   38.6864 H   0  0  0  0  0  0  0  0  0  0  0  0
    3.3328   14.4381   41.5609 H   0  0  0  0  0  0  0  0  0  0  0  0
    1.7401   14.4426   40.7305 H   0  0  0  0  0  0  0  0  0  0  0  0
    2.8659   13.0609   40.5065 H   0  0  0  0  0  0  0  0  0  0  0  0
    3.0699   21.7544   36.5385 H   0  0  0  0  0  0  0  0  0  0  0  0
   -2.5857   18.0059   43.2771 H   0  0  0  0  0  0  0  0  0  0  0  0
    3.0668   17.1942   40.7434 H   0  0  0  0  0  0  0  0  0  0  0  0
   -2.3273   20.4046   43.3760 H   0  0  0  0  0  0  0  0  0  0  0  0
    1.4396   19.7052   40.0252 H   0  0  0  0  0  0  0  0  0  0  0  0
    0.7843   15.5840   42.1299 H   0  0  0  0  0  0  0  0  0  0  0  0
   -1.3836   15.7900   43.4378 H   0  0  0  0  0  0  0  0  0  0  0  0
    3.9162   17.6587   37.2325 H   0  0  0  0  0  0  0  0  0  0  0  0
  1 20  1  0
  2 15  1  0
  2 12  1  0
  3  8  1  0
  4 19  1  0
  5 19  1  0
  5 13  2  0
  6  1  1  0
  6 21  2  0
  7 15  2  0
  9  7  1  0
 10 17  2  0
 11  9  2  0
 11 18  1  0
 12  4  1  0
 13 14  1  0
 13 10  1  0
 16 17  1  0
 18  2  2  0
 19 16  2  0
 20 12  1  0
 20  3  2  0
 21  3  1  0
  4 22  1  0
  5 23  1  0
  7 24  1  0
  8 25  1  0
  8 26  1  0
  8 27  1  0
  9 28  1  0
 10 29  1  0
 12 30  1  1
 14 31  1  0
 15 32  1  0
 16 33  1  0
 17 34  1  0
 18 35  1  0
M  END
>  <mol_id>  (34) 
2026-08-23-6tgu-s0-n100-prep-0035

>  <rmsd_to_ref>  (34) 


$$$$

     RDKit          3D

 46 49  0  0  0  0  0  0  0  0999 V2000
    0.7476   16.9152   41.9031 C   0  0  0  0  0  0  0  0  0  0  0  0
   -1.1809   11.6706   45.5758 C   0  0  0  0  0  0  0  0  0  0  0  0
    2.1168   21.3523   39.9127 C   0  0  0  0  0  0  0  0  0  0  0  0
    3.2126   19.2540   38.0982 C   0  0  0  0  0  0  0  0  0  0  0  0
   -0.6785   12.3765   43.3775 C   0  0  0  0  0  0  0  0  0  0  0  0
   -0.6405   18.7896   43.7743 C   0  0  0  0  0  0  0  0  0  0  0  0
    2.4137   17.7299   40.1285 C   0  0  0  0  0  0  0  0  0  0  0  0
    0.3504   19.6580   43.1924 C   0  0  0  0  0  0  0  0  0  0  0  0
    4.3519   20.8517   35.8824 O   0  0  0  0  0  0  0  0  0  0  0  0
   -1.2516   12.9418   45.9684 N   0  0  0  0  0  0  0  0  0  0  0  0
   -0.6385   13.7929   43.8253 C   0  0  0  0  0  0  0  0  0  0  0  0
   -0.9457   13.9526   45.1903 C   0  0  0  0  0  0  0  0  0  0  0  0
    3.0205   20.6393   37.6949 C   0  0  0  0  0  0  0  0  0  0  0  0
    2.7646   22.3728   36.0299 O   0  0  0  0  0  0  0  0  0  0  0  0
   -0.9890   11.2604   44.2580 C   0  0  0  0  0  0  0  0  0  0  0  0
    2.2924   20.2061   39.7301 C   0  0  1  0  0  0  0  0  0  0  0  0
    3.3822   21.2618   36.5051 C   0  0  0  0  0  0  0  0  0  0  0  0
    1.5174   18.0082   41.3907 C   0  0  0  0  0  0  0  0  0  0  0  0
    1.3069   19.2273   42.2201 C   0  0  0  0  0  0  0  0  0  0  0  0
   -0.0755   16.3183   42.7975 C   0  0  2  0  0  0  0  0  0  0  0  0
    2.4023   21.3418   38.6131 C   0  0  1  0  0  0  0  0  0  0  0  0
    2.6441   18.9664   39.3599 C   0  0  2  0  0  0  0  0  0  0  0  0
   -0.7210   17.3175   43.7581 C   0  0  0  0  0  0  0  0  0  0  0  0
   -0.3144   14.8476   42.9360 N   0  0  0  0  0  0  0  0  0  0  0  0
    3.8341   18.0709   37.2485 C   0  0  0  0  0  0  0  0  0  0  0  0
    0.9199   16.1227   41.1599 H   0  0  0  0  0  0  0  0  0  0  0  0
   -1.2810   10.8909   46.3452 H   0  0  0  0  0  0  0  0  0  0  0  0
    1.0954   21.6541   40.1878 H   0  0  0  0  0  0  0  0  0  0  0  0
    2.6075   21.9695   40.6796 H   0  0  0  0  0  0  0  0  0  0  0  0
   -0.4613   12.1596   42.3213 H   0  0  0  0  0  0  0  0  0  0  0  0
   -1.4560   19.2988   44.3086 H   0  0  0  0  0  0  0  0  0  0  0  0
    3.3822   17.3252   40.4575 H   0  0  0  0  0  0  0  0  0  0  0  0
    1.8934   17.0078   39.4821 H   0  0  0  0  0  0  0  0  0  0  0  0
    0.3728   20.7099   43.5132 H   0  0  0  0  0  0  0  0  0  0  0  0
   -0.9284   14.9646   45.6211 H   0  0  0  0  0  0  0  0  0  0  0  0
   -1.0635   10.2153   43.9227 H   0  0  0  0  0  0  0  0  0  0  0  0
    1.2249   20.0798   39.4965 H   0  0  0  0  0  0  0  0  0  0  0  0
    2.0816   19.9871   42.0397 H   0  0  0  0  0  0  0  0  0  0  0  0
   -0.9053   16.3854   42.0785 H   0  0  0  0  0  0  0  0  0  0  0  0
    2.2720   22.2000   37.9374 H   0  0  0  0  0  0  0  0  0  0  0  0
    3.6271   19.1037   39.8341 H   0  0  0  0  0  0  0  0  0  0  0  0
   -1.3359   16.8726   44.5543 H   0  0  0  0  0  0  0  0  0  0  0  0
   -0.1938   14.4308   42.0017 H   0  0  0  0  0  0  0  0  0  0  0  0
    4.1896   17.2804   37.9259 H   0  0  0  0  0  0  0  0  0  0  0  0
    3.0667   17.6600   36.5761 H   0  0  0  0  0  0  0  0  0  0  0  0
    4.6777   18.4507   36.6535 H   0  0  0  0  0  0  0  0  0  0  0  0
  1 20  1  0
  2 10  2  0
  4 22  1  0
  5 11  1  0
  5 15  2  0
  6 23  2  0
  7 18  1  0
  8  6  1  0
  9 17  2  0
 11 12  2  0
 12 10  1  0
 13  4  2  0
 13 21  1  0
 14 17  1  0
 15  2  1  0
 16  3  1  0
 17 13  1  0
 18  1  2  0
 18 19  1  0
 19  8  2  0
 20 24  1  0
 20 23  1  0
 21 16  1  0
 21  3  1  0
 22 16  1  0
 22  7  1  0
 24 11  1  0
 25  4  1  0
  1 26  1  0
  2 27  1  0
  3 28  1  0
  3 29  1  0
  5 30  1  0
  6 31  1  0
  7 32  1  0
  7 33  1  0
  8 34  1  0
 12 35  1  0
 15 36  1  0
 16 37  1  6
 19 38  1  0
 20 39  1  6
 21 40  1  6
 22 41  1  1
 23 42  1  0
 24 43  1  0
 25 44  1  0
 25 45  1  0
 25 46  1  0
M  CHG  1  14  -1
M  END
>  <mol_id>  (35) 
2026-08-23-6tgu-s0-n100-prep-0036

>  <rmsd_to_ref>  (35) 


$$$$

     RDKit          3D

 69 74  0  0  0  0  0  0  0  0999 V2000
    1.9091   16.8019   40.3775 C   0  0  0  0  0  0  0  0  0  0  0  0
   -0.2528   12.4224   45.1535 C   0  0  0  0  0  0  0  0  0  0  0  0
    3.2882   18.3453   38.1197 C   0  0  0  0  0  0  0  0  0  0  0  0
    0.5778   15.7372   43.3828 C   0  0  0  0  0  0  0  0  0  0  0  0
    5.5848   14.7777   36.7162 C   0  0  0  0  0  0  0  0  0  0  0  0
    3.8955   16.5115   36.9322 C   0  0  0  0  0  0  0  0  0  0  0  0
    0.9400   20.3216   41.1565 C   0  0  0  0  0  0  0  0  0  0  0  0
    0.1471   21.3063   41.8947 C   0  0  0  0  0  0  0  0  0  0  0  0
    4.0230   19.8857   36.1491 N   0  0  0  0  0  0  0  0  0  0  0  0
    2.7377   20.7431   37.7235 C   0  0  0  0  0  0  0  0  0  0  0  0
   -2.1732   18.0734   44.7554 N   0  0  0  0  0  0  0  0  0  0  0  0
   -0.8770   17.3468   44.7362 C   0  0  1  0  0  0  0  0  0  0  0  0
    0.1467   14.7720   44.3253 C   0  0  0  0  0  0  0  0  0  0  0  0
    4.0802   21.7546   34.5542 C   0  0  0  0  0  0  0  0  0  0  0  0
    1.6601   20.6508   39.9772 C   0  0  0  0  0  0  0  0  0  0  0  0
    1.1290   19.0125   41.7465 C   0  0  0  0  0  0  0  0  0  0  0  0
    1.5187   15.3001   42.3730 C   0  0  0  0  0  0  0  0  0  0  0  0
    1.1088   12.9081   42.9917 C   0  0  0  0  0  0  0  0  0  0  0  0
    3.7019   21.0381   35.7216 C   0  0  0  0  0  0  0  0  0  0  0  0
    3.3546   19.6314   37.3842 C   0  0  1  0  0  0  0  0  0  0  0  0
    2.3704   23.3375   35.1297 C   0  0  0  0  0  0  0  0  0  0  0  0
    2.2421   18.1446   41.0357 C   0  0  1  0  0  0  0  0  0  0  0  0
    4.3032   15.2191   37.2723 O   0  0  0  0  0  0  0  0  0  0  0  0
    0.5650   18.8437   45.9144 N   0  0  0  0  0  0  0  0  0  0  0  0
   -0.0572   17.2128   43.4677 C   0  0  1  0  0  0  0  0  0  0  0  0
    2.1271   22.6115   36.3058 C   0  0  0  0  0  0  0  0  0  0  0  0
   -0.4115   19.7001   43.6622 N   0  0  0  0  0  0  0  0  0  0  0  0
   -0.4580   21.0802   43.1161 C   0  0  0  0  0  0  0  0  0  0  0  0
   -0.1256   16.9704   46.9455 O   0  0  0  0  0  0  0  0  0  0  0  0
    3.4228   22.9478   34.2914 C   0  0  0  0  0  0  0  0  0  0  0  0
    2.1323   20.8091   38.9553 C   0  0  0  0  0  0  0  0  0  0  0  0
    3.0291   17.0907   37.7356 N   0  0  0  0  0  0  0  0  0  0  0  0
   -0.1359   17.7558   45.9631 C   0  0  0  0  0  0  0  0  0  0  0  0
    0.3118   18.6032   42.8610 C   0  0  0  0  0  0  0  0  0  0  0  0
    0.3802   13.3801   44.1091 C   0  0  0  0  0  0  0  0  0  0  0  0
    2.2934   16.6391   41.8452 C   0  0  2  0  0  0  0  0  0  0  0  0
    1.6877   13.9245   42.1419 C   0  0  0  0  0  0  0  0  0  0  0  0
    4.4499   17.0126   35.9303 O   0  0  0  0  0  0  0  0  0  0  0  0
    2.8275   21.5554   36.6182 C   0  0  0  0  0  0  0  0  0  0  0  0
    0.8684   16.6046   40.0808 H   0  0  0  0  0  0  0  0  0  0  0  0
    2.2965   16.3222   39.4666 H   0  0  0  0  0  0  0  0  0  0  0  0
    0.0672   12.7182   46.1635 H   0  0  0  0  0  0  0  0  0  0  0  0
   -1.3492   12.4784   45.0851 H   0  0  0  0  0  0  0  0  0  0  0  0
    0.0750   11.3919   44.9520 H   0  0  0  0  0  0  0  0  0  0  0  0
    4.2811   18.2680   38.5869 H   0  0  0  0  0  0  0  0  0  0  0  0
    2.3087   18.5285   38.5857 H   0  0  0  0  0  0  0  0  0  0  0  0
    6.2645   14.5015   37.5359 H   0  0  0  0  0  0  0  0  0  0  0  0
    5.4215   13.9057   36.0658 H   0  0  0  0  0  0  0  0  0  0  0  0
    6.0308   15.5943   36.1296 H   0  0  0  0  0  0  0  0  0  0  0  0
    0.0237   22.3016   41.4427 H   0  0  0  0  0  0  0  0  0  0  0  0
   -2.4731   18.2147   45.7305 H   0  0  0  0  0  0  0  0  0  0  0  0
   -2.0610   18.9878   44.2947 H   0  0  0  0  0  0  0  0  0  0  0  0
   -2.8838   17.5214   44.2542 H   0  0  0  0  0  0  0  0  0  0  0  0
   -1.1392   16.2785   44.7371 H   0  0  0  0  0  0  0  0  0  0  0  0
   -0.3753   15.0993   45.2366 H   0  0  0  0  0  0  0  0  0  0  0  0
    4.8658   21.3770   33.8832 H   0  0  0  0  0  0  0  0  0  0  0  0
    1.2275   11.8347   42.7826 H   0  0  0  0  0  0  0  0  0  0  0  0
    4.2484   19.9591   37.9353 H   0  0  0  0  0  0  0  0  0  0  0  0
    1.7421   24.2021   34.8694 H   0  0  0  0  0  0  0  0  0  0  0  0
    2.8628   18.9852   40.6921 H   0  0  0  0  0  0  0  0  0  0  0  0
    1.0896   19.1558   46.7439 H   0  0  0  0  0  0  0  0  0  0  0  0
    0.5978   19.3967   45.0461 H   0  0  0  0  0  0  0  0  0  0  0  0
   -0.2998   17.0474   42.4076 H   0  0  0  0  0  0  0  0  0  0  0  0
    1.3249   22.9414   36.9823 H   0  0  0  0  0  0  0  0  0  0  0  0
   -0.9562   21.8934   43.6643 H   0  0  0  0  0  0  0  0  0  0  0  0
    3.7227   23.5765   33.4400 H   0  0  0  0  0  0  0  0  0  0  0  0
    2.1839   16.5968   38.0562 H   0  0  0  0  0  0  0  0  0  0  0  0
    2.9068   16.5029   42.7481 H   0  0  0  0  0  0  0  0  0  0  0  0
    2.2871   13.6068   41.2760 H   0  0  0  0  0  0  0  0  0  0  0  0
  4 13  1  0
  5 23  1  0
  6 23  1  0
  6 32  1  0
  7  8  2  0
  7 16  1  0
  8 28  1  0
  9 20  1  0
 10 31  1  0
 12 11  1  0
 12 33  1  0
 14 19  1  0
 15  7  1  0
 16 34  2  0
 17  4  2  0
 18 35  1  0
 19  9  2  0
 19 39  1  0
 20 10  1  0
 20  3  1  0
 21 26  2  0
 22  1  1  0
 22 16  1  0
 22 36  1  0
 24 33  1  0
 25  4  1  0
 25 12  1  0
 26 39  1  0
 28 27  2  0
 30 14  2  0
 30 21  1  0
 31 15  3  0
 32  3  1  0
 33 29  2  0
 34 25  1  0
 34 27  1  0
 35 13  2  0
 35  2  1  0
 36  1  1  0
 36 17  1  0
 37 17  1  0
 37 18  2  0
 38  6  2  0
 39 10  2  0
  1 40  1  0
  1 41  1  0
  2 42  1  0
  2 43  1  0
  2 44  1  0
  3 45  1  0
  3 46  1  0
  5 47  1  0
  5 48  1  0
  5 49  1  0
  8 50  1  0
 11 51  1  0
 11 52  1  0
 11 53  1  0
 12 54  1  1
 13 55  1  0
 14 56  1  0
 18 57  1  0
 20 58  1  1
 21 59  1  0
 22 60  1  6
 24 61  1  0
 24 62  1  0
 25 63  1  6
 26 64  1  0
 28 65  1  0
 30 66  1  0
 32 67  1  0
 36 68  1  6
 37 69  1  0
M  CHG  1  11   1
M  END
>  <mol_id>  (36) 
2026-08-23-6tgu-s0-n100-prep-0037

>  <rmsd_to_ref>  (36) 


$$$$

     RDKit          3D

 26 27  0  0  0  0  0  0  0  0999 V2000
    0.4280   17.2719   41.6922 C   0  0  0  0  0  0  0  0  0  0  0  0
   -0.1137   18.4885   42.0934 N   0  0  0  0  0  0  0  0  0  0  0  0
    2.4275   18.2867   40.4268 C   0  0  0  0  0  0  0  0  0  0  0  0
    1.7659   17.0846   41.0533 C   0  0  1  0  0  0  0  0  0  0  0  0
    1.8681   19.5741   40.1513 C   0  0  0  0  0  0  0  0  0  0  0  0
    3.3544   20.2403   38.0505 C   0  0  0  0  0  0  0  0  0  0  0  0
    2.4445   15.7527   41.0685 C   0  0  0  0  0  0  0  0  0  0  0  0
    2.4023   20.4506   39.0375 C   0  0  0  0  0  0  0  0  0  0  0  0
    0.1139   19.7052   41.8843 C   0  0  0  0  0  0  0  0  0  0  0  0
    3.6583   17.9522   39.8767 O   0  0  0  0  0  0  0  0  0  0  0  0
    2.4675   14.6110   41.6803 C   0  0  0  0  0  0  0  0  0  0  0  0
    4.1842   19.0557   37.7063 C   0  0  0  0  0  0  0  0  0  0  0  0
    0.9607   20.2504   40.9929 C   0  0  0  0  0  0  0  0  0  0  0  0
    3.9640   17.8306   38.4724 C   0  0  0  0  0  0  0  0  0  0  0  0
   -0.2517   16.1851   41.9360 O   0  0  0  0  0  0  0  0  0  0  0  0
    1.3013   16.8369   40.0875 H   0  0  0  0  0  0  0  0  0  0  0  0
    3.5274   21.1119   37.4022 H   0  0  0  0  0  0  0  0  0  0  0  0
    3.1995   15.7359   40.2686 H   0  0  0  0  0  0  0  0  0  0  0  0
    1.9454   21.4507   39.0046 H   0  0  0  0  0  0  0  0  0  0  0  0
   -0.4500   20.4142   42.5082 H   0  0  0  0  0  0  0  0  0  0  0  0
    3.1724   13.8297   41.3603 H   0  0  0  0  0  0  0  0  0  0  0  0
    1.7821   14.4230   42.5198 H   0  0  0  0  0  0  0  0  0  0  0  0
    4.9361   19.0997   36.9047 H   0  0  0  0  0  0  0  0  0  0  0  0
    1.5830   20.9408   41.5812 H   0  0  0  0  0  0  0  0  0  0  0  0
    0.2309   20.5743   40.2363 H   0  0  0  0  0  0  0  0  0  0  0  0
    4.0295   16.8435   37.9914 H   0  0  0  0  0  0  0  0  0  0  0  0
  1  2  1  0
  1 15  2  0
  3  4  1  0
  4  7  1  0
  4  1  1  0
  5  3  2  0
  5 13  1  0
  6  8  2  0
  7 11  2  3
  8  5  1  0
  9  2  2  0
 10  3  1  0
 12  6  1  0
 12 14  2  0
 13  9  1  0
 14 10  1  0
  4 16  1  6
  6 17  1  0
  7 18  1  0
  8 19  1  0
  9 20  1  0
 11 21  1  0
 11 22  1  0
 12 23  1  0
 13 24  1  0
 13 25  1  0
 14 26  1  0
M  END
>  <mol_id>  (37) 
2026-08-23-6tgu-s0-n100-prep-0038

>  <rmsd_to_ref>  (37) 


$$$$

     RDKit          3D

 32 35  0  0  0  0  0  0  0  0999 V2000
    2.2799   15.2372   40.8294 C   0  0  0  0  0  0  0  0  0  0  0  0
    0.5504   16.0635   42.3961 C   0  0  0  0  0  0  0  0  0  0  0  0
    2.4007   17.6879   39.4848 C   0  0  0  0  0  0  0  0  0  0  0  0
   -0.3039   17.2542   42.8188 C   0  0  0  0  0  0  0  0  0  0  0  0
    1.0349   20.0465   40.4828 C   0  0  0  0  0  0  0  0  0  0  0  0
    3.3196   18.9413   37.5853 C   0  0  0  0  0  0  0  0  0  0  0  0
    2.5271   18.9602   38.8315 C   0  0  0  0  0  0  0  0  0  0  0  0
   -0.8136   19.6199   42.7133 C   0  0  0  0  0  0  0  0  0  0  0  0
    1.6459   17.6141   40.6654 C   0  0  0  0  0  0  0  0  0  0  0  0
   -1.9990   18.3545   44.2289 C   0  0  0  0  0  0  0  0  0  0  0  0
    1.8683   20.0799   39.3758 C   0  0  0  0  0  0  0  0  0  0  0  0
    2.9967   16.6165   39.0202 O   0  0  0  0  0  0  0  0  0  0  0  0
    2.1065   13.9523   41.4752 C   0  0  0  0  0  0  0  0  0  0  0  0
    1.4536   16.3118   41.3246 C   0  0  0  0  0  0  0  0  0  0  0  0
   -1.2986   17.1756   43.8532 C   0  0  0  0  0  0  0  0  0  0  0  0
    3.4564   19.8717   36.8696 O   0  0  0  0  0  0  0  0  0  0  0  0
    0.8843   18.7338   41.1613 C   0  0  0  0  0  0  0  0  0  0  0  0
   -0.0693   18.5565   42.2713 C   0  0  0  0  0  0  0  0  0  0  0  0
    0.4811   14.8407   42.9529 C   0  0  0  0  0  0  0  0  0  0  0  0
    1.2302   13.7359   42.4767 C   0  0  0  0  0  0  0  0  0  0  0  0
   -1.7602   19.5193   43.7155 N   0  0  0  0  0  0  0  0  0  0  0  0
    2.9989   15.3851   40.0101 H   0  0  0  0  0  0  0  0  0  0  0  0
    0.5120   20.9457   40.8404 H   0  0  0  0  0  0  0  0  0  0  0  0
    3.8148   17.9999   37.3051 H   0  0  0  0  0  0  0  0  0  0  0  0
   -0.6491   20.6024   42.2469 H   0  0  0  0  0  0  0  0  0  0  0  0
   -2.7842   18.2730   44.9950 H   0  0  0  0  0  0  0  0  0  0  0  0
    2.0269   21.0522   38.8863 H   0  0  0  0  0  0  0  0  0  0  0  0
    3.5294   16.6682   38.1872 H   0  0  0  0  0  0  0  0  0  0  0  0
    2.7223   13.1086   41.1303 H   0  0  0  0  0  0  0  0  0  0  0  0
   -1.5149   16.2169   44.3472 H   0  0  0  0  0  0  0  0  0  0  0  0
   -0.1857   14.6920   43.8150 H   0  0  0  0  0  0  0  0  0  0  0  0
    1.1008   12.7334   42.9104 H   0  0  0  0  0  0  0  0  0  0  0  0
  1 14  2  0
  1 13  1  0
  2  4  1  0
  2 19  2  0
  3  9  2  0
  4 15  2  0
  5 17  2  0
  6  7  1  0
  7 11  2  0
  7  3  1  0
  8 21  1  0
  9 17  1  0
  9 14  1  0
 11  5  1  0
 12  3  1  0
 13 20  2  0
 14  2  1  0
 15 10  1  0
 16  6  2  0
 17 18  1  0
 18  8  2  0
 18  4  1  0
 20 19  1  0
 21 10  2  0
  1 22  1  0
  5 23  1  0
  6 24  1  0
  8 25  1  0
 10 26  1  0
 11 27  1  0
 12 28  1  0
 13 29  1  0
 15 30  1  0
 19 31  1  0
 20 32  1  0
M  END
>  <mol_id>  (38) 
2026-08-23-6tgu-s0-n100-prep-0039

>  <rmsd_to_ref>  (38) 


$$$$

     RDKit          3D

 50 54  0  0  0  0  0  0  0  0999 V2000
    1.1600   16.1770   42.9070 C   0  0  0  0  0  0  0  0  0  0  0  0
    3.6480   15.8450   38.7220 O   0  0  0  0  0  0  0  0  0  0  0  0
    1.5930   16.4600   41.5130 C   0  0  0  0  0  0  0  0  0  0  0  0
    0.1820   18.9560   42.3390 C   0  0  0  0  0  0  0  0  0  0  0  0
    3.1140   20.6830   37.1450 C   0  0  1  0  0  0  0  0  0  0  0  0
    0.9990   18.9160   41.2250 C   0  0  0  0  0  0  0  0  0  0  0  0
    2.1110   20.7980   38.1280 N   0  0  0  0  0  0  0  0  0  0  0  0
    2.0140   20.0010   39.2220 C   0  0  0  0  0  0  0  0  0  0  0  0
   -0.6940   17.8810   43.0290 C   0  0  2  0  0  0  0  0  0  0  0  0
   -0.7190   14.1090   46.4530 C   0  0  0  0  0  0  0  0  0  0  0  0
    2.6190   21.9310   35.3010 O   0  0  0  0  0  0  0  0  0  0  0  0
   -0.6950   15.8820   44.6930 C   0  0  0  0  0  0  0  0  0  0  0  0
    4.0150   20.2460   36.3190 O   0  0  0  0  0  0  0  0  0  0  0  0
   -0.1330   20.4190   42.4270 C   0  0  0  0  0  0  0  0  0  0  0  0
    3.3110   21.2690   36.0600 C   0  0  0  0  0  0  0  0  0  0  0  0
    2.2810   15.5880   40.6980 C   0  0  0  0  0  0  0  0  0  0  0  0
    2.3920   17.6410   39.7690 C   0  0  0  0  0  0  0  0  0  0  0  0
    0.5250   21.1410   41.4520 C   0  0  0  0  0  0  0  0  0  0  0  0
    1.2450   20.1230   40.6130 C   0  0  0  0  0  0  0  0  0  0  0  0
   -1.2990   18.4370   44.1590 O   0  0  0  0  0  0  0  0  0  0  0  0
   -0.0510   16.5960   43.5880 N   0  0  0  0  0  0  0  0  0  0  0  0
    2.6520   18.7460   39.0100 C   0  0  0  0  0  0  0  0  0  0  0  0
    1.6000   17.6500   40.9000 C   0  0  0  0  0  0  0  0  0  0  0  0
    3.7260   16.3810   37.4090 C   0  0  0  0  0  0  0  0  0  0  0  0
    2.8040   16.3530   39.6970 N   0  0  0  0  0  0  0  0  0  0  0  0
   -0.3590   14.4810   44.9440 C   0  0  0  0  0  0  0  0  0  0  0  0
    2.4210   14.1020   40.7830 C   0  0  0  0  0  0  0  0  0  0  0  0
    1.9756   16.5695   43.5321 H   0  0  0  0  0  0  0  0  0  0  0  0
    0.9080   15.1138   42.7797 H   0  0  0  0  0  0  0  0  0  0  0  0
    2.9322   20.4048   38.1936 H   0  0  0  0  0  0  0  0  0  0  0  0
    1.4036   21.5370   38.0081 H   0  0  0  0  0  0  0  0  0  0  0  0
   -1.3327   17.5805   42.1854 H   0  0  0  0  0  0  0  0  0  0  0  0
   -0.1196   14.7284   47.1364 H   0  0  0  0  0  0  0  0  0  0  0  0
   -1.7882   14.2956   46.6316 H   0  0  0  0  0  0  0  0  0  0  0  0
   -0.4974   13.0464   46.6316 H   0  0  0  0  0  0  0  0  0  0  0  0
   -1.7789   15.9223   44.5101 H   0  0  0  0  0  0  0  0  0  0  0  0
   -0.3178   16.4000   45.5871 H   0  0  0  0  0  0  0  0  0  0  0  0
   -1.2171   20.5586   42.3037 H   0  0  0  0  0  0  0  0  0  0  0  0
    0.2015   20.7840   43.4093 H   0  0  0  0  0  0  0  0  0  0  0  0
    0.5229   22.2327   41.3173 H   0  0  0  0  0  0  0  0  0  0  0  0
   -0.8861   18.0575   44.9748 H   0  0  0  0  0  0  0  0  0  0  0  0
    3.3885   18.6626   38.1972 H   0  0  0  0  0  0  0  0  0  0  0  0
    3.8842   17.4681   37.4655 H   0  0  0  0  0  0  0  0  0  0  0  0
    4.5659   15.9157   36.8723 H   0  0  0  0  0  0  0  0  0  0  0  0
    2.7883   16.1743   36.8723 H   0  0  0  0  0  0  0  0  0  0  0  0
   -0.9337   13.8382   44.2610 H   0  0  0  0  0  0  0  0  0  0  0  0
    0.7169   14.3264   44.7753 H   0  0  0  0  0  0  0  0  0  0  0  0
    2.4498   13.7962   41.8393 H   0  0  0  0  0  0  0  0  0  0  0  0
    1.5639   13.6239   40.2861 H   0  0  0  0  0  0  0  0  0  0  0  0
    3.3523   13.7924   40.2861 H   0  0  0  0  0  0  0  0  0  0  0  0
  1 21  1  0
  2 25  1  0
  3  1  1  0
  4 14  1  0
  4  9  1  0
  5  7  1  0
  6  4  2  0
  7  8  1  0
  8 19  1  0
  9 21  1  0
  9 20  1  0
 11 15  2  0
 12 26  1  0
 13  5  1  0
 15 13  1  0
 15  5  1  0
 16 27  1  0
 16  3  2  0
 17 23  2  0
 18 14  1  0
 19  6  1  0
 19 18  2  0
 21 12  1  0
 22  8  2  0
 22 17  1  0
 23  6  1  0
 23  3  1  0
 24  2  1  0
 25 17  1  0
 25 16  1  0
 26 10  1  0
  1 28  1  0
  1 29  1  0
  5 30  1  1
  7 31  1  0
  9 32  1  6
 10 33  1  0
 10 34  1  0
 10 35  1  0
 12 36  1  0
 12 37  1  0
 14 38  1  0
 14 39  1  0
 18 40  1  0
 20 41  1  0
 22 42  1  0
 24 43  1  0
 24 44  1  0
 24 45  1  0
 26 46  1  0
 26 47  1  0
 27 48  1  0
 27 49  1  0
 27 50  1  0
M  END
>  <mol_id>  (39) 
2026-08-23-6tgu-s0-n100-prep-0040

>  <rmsd_to_ref>  (39) 


$$$$

     RDKit          3D

 40 44  0  0  0  0  0  0  0  0999 V2000
   -0.5545   13.1417   45.1531 C   0  0  0  0  0  0  0  0  0  0  0  0
    2.4205   19.6115   38.0516 C   0  0  0  0  0  0  0  0  0  0  0  0
    1.4989   18.9360   40.3230 C   0  0  0  0  0  0  0  0  0  0  0  0
    1.1823   15.1730   42.5004 C   0  0  0  0  0  0  0  0  0  0  0  0
    0.3468   19.6324   42.3916 C   0  0  0  0  0  0  0  0  0  0  0  0
    1.4180   20.2249   39.8971 C   0  0  0  0  0  0  0  0  0  0  0  0
    0.4799   20.9256   42.0382 C   0  0  0  0  0  0  0  0  0  0  0  0
    3.0313   19.3511   36.8573 C   0  0  0  0  0  0  0  0  0  0  0  0
    0.8247   12.5095   43.1149 C   0  0  0  0  0  0  0  0  0  0  0  0
    0.2812   14.8887   43.4818 C   0  0  0  0  0  0  0  0  0  0  0  0
   -0.5680   15.8842   44.0608 N   0  0  0  0  0  0  0  0  0  0  0  0
    3.6719   18.2124   36.4845 N   0  0  0  0  0  0  0  0  0  0  0  0
    2.0231   14.3187   41.9736 C   0  0  0  0  0  0  0  0  0  0  0  0
    3.0272   20.4207   35.7577 O   0  0  0  0  0  0  0  0  0  0  0  0
   -0.3961   17.1241   43.4699 C   0  0  0  0  0  0  0  0  0  0  0  0
    2.3747   18.6218   39.0923 C   0  0  0  0  0  0  0  0  0  0  0  0
    3.2088   17.5546   38.7813 C   0  0  0  0  0  0  0  0  0  0  0  0
    3.6169   17.3938   37.5168 C   0  0  0  0  0  0  0  0  0  0  0  0
    0.7477   18.6097   41.6693 C   0  0  0  0  0  0  0  0  0  0  0  0
    1.7117   12.9478   42.1158 C   0  0  0  0  0  0  0  0  0  0  0  0
    0.5350   17.3145   42.4167 C   0  0  0  0  0  0  0  0  0  0  0  0
    1.3274   16.4018   41.8754 N   0  0  0  0  0  0  0  0  0  0  0  0
    0.1608   13.5081   43.8830 C   0  0  0  0  0  0  0  0  0  0  0  0
    1.8005   20.6886   38.5743 C   0  0  0  0  0  0  0  0  0  0  0  0
    1.0556   21.2185   40.7575 C   0  0  0  0  0  0  0  0  0  0  0  0
    0.0647   13.4243   46.0172 H   0  0  0  0  0  0  0  0  0  0  0  0
   -1.5152   13.6755   45.2000 H   0  0  0  0  0  0  0  0  0  0  0  0
   -0.7366   12.0570   45.1716 H   0  0  0  0  0  0  0  0  0  0  0  0
   -0.1335   19.4159   43.3573 H   0  0  0  0  0  0  0  0  0  0  0  0
    0.1566   21.7330   42.7118 H   0  0  0  0  0  0  0  0  0  0  0  0
    0.6506   11.4386   43.2959 H   0  0  0  0  0  0  0  0  0  0  0  0
    2.9287   14.6521   41.4456 H   0  0  0  0  0  0  0  0  0  0  0  0
   -0.9928   17.9779   43.8236 H   0  0  0  0  0  0  0  0  0  0  0  0
    4.1121   17.6615   39.3998 H   0  0  0  0  0  0  0  0  0  0  0  0
    2.5837   16.6694   38.9700 H   0  0  0  0  0  0  0  0  0  0  0  0
    3.9777   16.3786   37.2950 H   0  0  0  0  0  0  0  0  0  0  0  0
    2.1690   12.2139   41.4359 H   0  0  0  0  0  0  0  0  0  0  0  0
    2.4840   21.5481   38.6375 H   0  0  0  0  0  0  0  0  0  0  0  0
    0.9500   21.0388   37.9711 H   0  0  0  0  0  0  0  0  0  0  0  0
    1.2080   22.2674   40.4631 H   0  0  0  0  0  0  0  0  0  0  0  0
  2 24  1  0
  2 16  2  0
  3 19  2  0
  4 10  1  0
  6  3  1  0
  6 25  2  0
  7  5  2  0
  8  2  1  0
  9 23  1  0
 10 23  2  0
 10 11  1  0
 12  8  1  0
 12 18  2  0
 13 20  1  0
 13  4  2  0
 14  8  2  0
 15 11  2  0
 16  3  1  0
 17 16  1  0
 18 17  1  0
 19 21  1  0
 19  5  1  0
 20  9  2  0
 21 15  1  0
 22 21  2  0
 22  4  1  0
 23  1  1  0
 24  6  1  0
 25  7  1  0
  1 26  1  0
  1 27  1  0
  1 28  1  0
  5 29  1  0
  7 30  1  0
  9 31  1  0
 13 32  1  0
 15 33  1  0
 17 34  1  0
 17 35  1  0
 18 36  1  0
 20 37  1  0
 24 38  1  0
 24 39  1  0
 25 40  1  0
M  END
>  <mol_id>  (40) 
2026-08-23-6tgu-s0-n100-prep-0041

>  <rmsd_to_ref>  (40) 


$$$$

     RDKit          3D

 42 46  0  0  0  0  0  0  0  0999 V2000
    3.5447   14.2891   40.1412 S   0  0  0  0  0  0  0  0  0  0  0  0
    1.8219   14.4250   42.3442 N   0  0  0  0  0  0  0  0  0  0  0  0
    3.4794   20.2832   35.9042 O   0  0  0  0  0  0  0  0  0  0  0  0
    0.3698   15.5268   44.1474 C   0  0  0  0  0  0  0  0  0  0  0  0
    1.4061   16.6798   42.3157 C   0  0  0  0  0  0  0  0  0  0  0  0
   -0.2579   16.7312   44.5347 C   0  0  0  0  0  0  0  0  0  0  0  0
    2.3090   16.3847   41.2348 O   0  0  0  0  0  0  0  0  0  0  0  0
    2.8060   20.2046   36.8827 C   0  0  0  0  0  0  0  0  0  0  0  0
    3.3356   15.5852   37.8271 C   0  0  0  0  0  0  0  0  0  0  0  0
    1.8884   20.6694   40.3315 C   0  0  0  0  0  0  0  0  0  0  0  0
    1.7812   20.9788   38.9417 O   0  0  0  0  0  0  0  0  0  0  0  0
    2.0141   20.0024   37.9869 C   0  0  2  0  0  0  0  0  0  0  0  0
    2.4922   14.9938   41.3053 C   0  0  0  0  0  0  0  0  0  0  0  0
    0.7252   19.2223   42.0895 C   0  0  0  0  0  0  0  0  0  0  0  0
    3.7256   18.0596   37.9669 N   0  0  0  0  0  0  0  0  0  0  0  0
   -0.5430   19.1535   43.9119 N   0  0  0  0  0  0  0  0  0  0  0  0
    2.7592   14.6592   38.6691 C   0  0  0  0  0  0  0  0  0  0  0  0
    4.0799   16.9167   37.7500 C   0  0  0  0  0  0  0  0  0  0  0  0
    0.7961   17.9102   42.7029 C   0  0  0  0  0  0  0  0  0  0  0  0
   -0.0900   19.9615   42.9781 C   0  0  0  0  0  0  0  0  0  0  0  0
   -0.0380   17.9112   43.8128 C   0  0  0  0  0  0  0  0  0  0  0  0
    3.2274   19.1803   38.0328 C   0  0  1  0  0  0  0  0  0  0  0  0
    1.4057   19.5661   40.9125 C   0  0  0  0  0  0  0  0  0  0  0  0
    1.1641   15.5208   42.9995 C   0  0  0  0  0  0  0  0  0  0  0  0
    0.2351   14.6098   44.7397 H   0  0  0  0  0  0  0  0  0  0  0  0
   -1.3415   16.5439   44.5102 H   0  0  0  0  0  0  0  0  0  0  0  0
    0.2030   16.9480   45.5097 H   0  0  0  0  0  0  0  0  0  0  0  0
    2.4787   15.8081   37.1744 H   0  0  0  0  0  0  0  0  0  0  0  0
    4.2918   15.0432   37.8714 H   0  0  0  0  0  0  0  0  0  0  0  0
    1.4105   21.5098   40.8564 H   0  0  0  0  0  0  0  0  0  0  0  0
    2.9686   20.4764   40.4081 H   0  0  0  0  0  0  0  0  0  0  0  0
    0.9457   19.7506   38.0589 H   0  0  0  0  0  0  0  0  0  0  0  0
    4.6755   18.4340   37.8314 H   0  0  0  0  0  0  0  0  0  0  0  0
    2.8129   17.6800   38.2565 H   0  0  0  0  0  0  0  0  0  0  0  0
    1.7557   15.0319   38.9223 H   0  0  0  0  0  0  0  0  0  0  0  0
    2.7999   13.7185   38.1003 H   0  0  0  0  0  0  0  0  0  0  0  0
    4.9322   16.7764   38.4311 H   0  0  0  0  0  0  0  0  0  0  0  0
    4.0847   16.9936   36.6526 H   0  0  0  0  0  0  0  0  0  0  0  0
   -0.3094   21.0366   42.9008 H   0  0  0  0  0  0  0  0  0  0  0  0
    3.9152   18.8897   38.8405 H   0  0  0  0  0  0  0  0  0  0  0  0
    0.7303   19.1766   40.1366 H   0  0  0  0  0  0  0  0  0  0  0  0
    2.3859   19.2662   41.3117 H   0  0  0  0  0  0  0  0  0  0  0  0
  1 13  1  0
  2 24  1  0
  3  8  2  0
  4  6  1  0
  5 19  2  0
  5 24  1  0
  7 13  1  0
  7  5  1  0
  9 18  1  0
  9 17  1  0
 10 23  1  0
 11 10  1  0
 12  8  1  0
 12 22  1  0
 12 11  1  0
 13  2  2  0
 14 19  1  0
 14 20  2  0
 15 22  1  0
 17  1  1  0
 18 15  1  0
 19 21  1  0
 20 16  1  0
 21 16  2  0
 21  6  1  0
 22  8  1  0
 23 14  1  0
 24  4  2  0
  4 25  1  0
  6 26  1  0
  6 27  1  0
  9 28  1  0
  9 29  1  0
 10 30  1  0
 10 31  1  0
 12 32  1  6
 15 33  1  0
 15 34  1  0
 17 35  1  0
 17 36  1  0
 18 37  1  0
 18 38  1  0
 20 39  1  0
 22 40  1  1
 23 41  1  0
 23 42  1  0
M  CHG  1  15   1
M  END
>  <mol_id>  (41) 
2026-08-23-6tgu-s0-n100-prep-0042

>  <rmsd_to_ref>  (41) 


$$$$

     RDKit          3D

 57 61  0  0  0  0  0  0  0  0999 V2000
    2.3555   20.7595   37.4714 C   0  0  0  0  0  0  0  0  0  0  0  0
    0.5565   14.5428   42.6894 C   0  0  0  0  0  0  0  0  0  0  0  0
    1.9162   13.3575   41.5152 C   0  0  0  0  0  0  0  0  0  0  0  0
   -1.3175   13.5836   47.4063 C   0  0  0  0  0  0  0  0  0  0  0  0
   -1.0348   14.2830   48.4789 O   0  0  0  0  0  0  0  0  0  0  0  0
   -0.5774   16.8062   43.7673 C   0  0  0  0  0  0  0  0  0  0  0  0
    1.4693   20.1553   39.5860 C   0  0  0  0  0  0  0  0  0  0  0  0
    2.1398   16.4356   40.1431 N   0  0  0  0  0  0  0  0  0  0  0  0
    3.7927   14.5551   37.1873 O   0  0  0  0  0  0  0  0  0  0  0  0
   -0.2640   14.2778   43.7492 C   0  0  0  0  0  0  0  0  0  0  0  0
    4.2554   18.0760   36.5889 N   0  0  0  0  0  0  0  0  0  0  0  0
    2.2736   19.0495   39.4134 C   0  0  0  0  0  0  0  0  0  0  0  0
    5.5623   15.4140   36.4648 N   0  0  0  0  0  0  0  0  0  0  0  0
   -1.3816   15.0575   45.3723 N   0  0  0  0  0  0  0  0  0  0  0  0
    3.5387   21.2789   35.5258 C   0  0  0  0  0  0  0  0  0  0  0  0
    2.1740   14.2927   40.6226 C   0  0  0  0  0  0  0  0  0  0  0  0
    3.5986   16.4135   38.0033 C   0  0  0  0  0  0  0  0  0  0  0  0
    2.5205   21.4680   36.4104 C   0  0  0  0  0  0  0  0  0  0  0  0
    0.9400   13.4118   42.4311 C   0  0  0  0  0  0  0  0  0  0  0  0
    4.3215   20.1418   35.6437 C   0  0  0  0  0  0  0  0  0  0  0  0
    2.9772   19.5847   37.4085 C   0  0  0  0  0  0  0  0  0  0  0  0
    4.3221   15.4074   37.2865 C   0  0  0  0  0  0  0  0  0  0  0  0
   -0.9027   15.6908   44.5066 C   0  0  0  0  0  0  0  0  0  0  0  0
   -0.9918   13.9800   46.2685 C   0  0  0  0  0  0  0  0  0  0  0  0
    0.9547   15.7187   42.1110 C   0  0  0  0  0  0  0  0  0  0  0  0
    1.7581   15.5443   40.9454 C   0  0  0  0  0  0  0  0  0  0  0  0
    2.9965   16.0943   39.1511 N   0  0  0  0  0  0  0  0  0  0  0  0
    2.8796   18.7654   38.3397 C   0  0  0  0  0  0  0  0  0  0  0  0
    6.0014   13.9990   35.9650 C   0  0  0  0  0  0  0  0  0  0  0  0
    3.8774   19.2860   36.6208 C   0  0  0  0  0  0  0  0  0  0  0  0
    0.2685   16.8416   42.6763 N   0  0  0  0  0  0  0  0  0  0  0  0
    3.4867   17.6749   37.6855 C   0  0  0  0  0  0  0  0  0  0  0  0
    1.4940   20.9511   38.5093 C   0  0  0  0  0  0  0  0  0  0  0  0
   -1.6854   12.3037   47.1736 O   0  0  0  0  0  0  0  0  0  0  0  0
    2.8475   13.2354   42.0877 H   0  0  0  0  0  0  0  0  0  0  0  0
    1.5268   12.5638   40.8606 H   0  0  0  0  0  0  0  0  0  0  0  0
   -1.0344   17.7584   44.0746 H   0  0  0  0  0  0  0  0  0  0  0  0
    0.8815   20.3585   40.4933 H   0  0  0  0  0  0  0  0  0  0  0  0
   -0.4963   13.2575   44.0884 H   0  0  0  0  0  0  0  0  0  0  0  0
    4.9029   17.5664   35.9708 H   0  0  0  0  0  0  0  0  0  0  0  0
    2.3971   18.3673   40.2674 H   0  0  0  0  0  0  0  0  0  0  0  0
    6.0850   16.2739   36.2449 H   0  0  0  0  0  0  0  0  0  0  0  0
   -2.3544   15.3478   45.5463 H   0  0  0  0  0  0  0  0  0  0  0  0
    3.7358   22.0152   34.7327 H   0  0  0  0  0  0  0  0  0  0  0  0
    1.6832   14.0057   39.6808 H   0  0  0  0  0  0  0  0  0  0  0  0
    3.2705   14.3488   40.5546 H   0  0  0  0  0  0  0  0  0  0  0  0
    1.7983   22.2721   36.2060 H   0  0  0  0  0  0  0  0  0  0  0  0
    0.0824   12.8344   42.0554 H   0  0  0  0  0  0  0  0  0  0  0  0
    1.3572   12.9998   43.3617 H   0  0  0  0  0  0  0  0  0  0  0  0
    5.2061   19.9455   35.0199 H   0  0  0  0  0  0  0  0  0  0  0  0
   -1.1646   13.0866   45.6503 H   0  0  0  0  0  0  0  0  0  0  0  0
   -0.0854   14.4942   46.6205 H   0  0  0  0  0  0  0  0  0  0  0  0
    3.3433   15.1555   39.3946 H   0  0  0  0  0  0  0  0  0  0  0  0
    6.1072   13.3226   36.8260 H   0  0  0  0  0  0  0  0  0  0  0  0
    5.2409   13.6008   35.2771 H   0  0  0  0  0  0  0  0  0  0  0  0
    6.9650   14.0782   35.4403 H   0  0  0  0  0  0  0  0  0  0  0  0
    0.7895   21.7945   38.4608 H   0  0  0  0  0  0  0  0  0  0  0  0
  1 21  1  0
  1 33  1  0
  2 10  1  0
  3 19  1  0
  4  5  1  0
  6 23  1  0
  8 26  2  3
 10 23  2  0
 11 32  1  0
 12  7  1  0
 13 22  1  0
 14 24  1  0
 15 20  2  0
 15 18  1  0
 16 26  1  0
 16  3  1  0
 17 27  1  0
 18  1  2  0
 19  2  1  0
 20 30  1  0
 21 28  1  0
 22  9  2  0
 22 17  1  0
 23 14  1  0
 24  4  1  0
 25 31  1  0
 25  2  2  0
 26 25  1  0
 27  8  1  0
 28 12  2  0
 29 13  1  0
 30 11  1  0
 30 21  2  0
 31  6  2  0
 32 17  2  3
 32 28  1  0
 33  7  2  0
 34  4  2  0
  3 35  1  0
  3 36  1  0
  6 37  1  0
  7 38  1  0
 10 39  1  0
 11 40  1  0
 12 41  1  0
 13 42  1  0
 14 43  1  0
 15 44  1  0
 16 45  1  0
 16 46  1  0
 18 47  1  0
 19 48  1  0
 19 49  1  0
 20 50  1  0
 24 51  1  0
 24 52  1  0
 27 53  1  0
 29 54  1  0
 29 55  1  0
 29 56  1  0
 33 57  1  0
M  CHG  1   5  -1
M  END
>  <mol_id>  (42) 
2026-08-23-6tgu-s0-n100-prep-0043

>  <rmsd_to_ref>  (42) 


$$$$

     RDKit          3D

 32 34  0  0  0  0  0  0  0  0999 V2000
   -0.0220   20.4381   41.1951 C   0  0  0  0  0  0  0  0  0  0  0  0
    3.1301   18.3749   38.0795 C   0  0  0  0  0  0  0  0  0  0  0  0
    1.9419   17.9629   40.1490 N   0  0  0  0  0  0  0  0  0  0  0  0
    3.4799   18.9644   36.8743 C   0  0  0  0  0  0  0  0  0  0  0  0
    2.2536   18.9863   38.9192 C   0  0  0  0  0  0  0  0  0  0  0  0
    2.0973   20.7391   37.2106 C   0  0  0  0  0  0  0  0  0  0  0  0
    1.2050   18.6467   40.6441 C   0  0  0  0  0  0  0  0  0  0  0  0
    2.8591   20.0123   36.4031 N   0  0  0  0  0  0  0  0  0  0  0  0
    0.4068   17.2681   42.1635 C   0  0  0  0  0  0  0  0  0  0  0  0
    0.1879   15.3484   43.0701 C   0  0  0  0  0  0  0  0  0  0  0  0
    0.4198   18.3984   41.6097 C   0  0  2  0  0  0  0  0  0  0  0  0
    1.7488   20.2127   38.4584 C   0  0  0  0  0  0  0  0  0  0  0  0
    0.3926   13.7254   43.4509 Cl  0  0  0  0  0  0  0  0  0  0  0  0
   -0.5613   17.4795   43.2899 C   0  0  0  0  0  0  0  0  0  0  0  0
    1.7148   21.8478   36.7479 O   0  0  0  0  0  0  0  0  0  0  0  0
    0.8219   16.0485   42.0053 C   0  0  0  0  0  0  0  0  0  0  0  0
   -0.2318   19.3142   42.0132 C   0  0  0  0  0  0  0  0  0  0  0  0
   -0.5460   16.2550   43.6814 N   0  0  0  0  0  0  0  0  0  0  0  0
    4.3742   18.4034   36.1590 O   0  0  0  0  0  0  0  0  0  0  0  0
    0.7599   19.8896   40.6252 N   0  0  0  0  0  0  0  0  0  0  0  0
   -1.2763   19.7178   42.7168 O   0  0  0  0  0  0  0  0  0  0  0  0
   -0.4546   21.4481   41.1408 H   0  0  0  0  0  0  0  0  0  0  0  0
    3.5655   17.4040   38.3583 H   0  0  0  0  0  0  0  0  0  0  0  0
    2.2953   17.0249   40.3858 H   0  0  0  0  0  0  0  0  0  0  0  0
    2.9600   20.2727   35.4117 H   0  0  0  0  0  0  0  0  0  0  0  0
    1.2175   18.6515   42.3235 H   0  0  0  0  0  0  0  0  0  0  0  0
    2.0449   20.9661   39.2032 H   0  0  0  0  0  0  0  0  0  0  0  0
    0.6816   19.9843   38.3209 H   0  0  0  0  0  0  0  0  0  0  0  0
   -0.1867   18.1785   44.0522 H   0  0  0  0  0  0  0  0  0  0  0  0
   -1.5367   17.9272   43.0487 H   0  0  0  0  0  0  0  0  0  0  0  0
    1.4997   15.6519   41.2349 H   0  0  0  0  0  0  0  0  0  0  0  0
   -1.6710   19.1229   43.4025 H   0  0  0  0  0  0  0  0  0  0  0  0
  1 17  2  0
  2  5  2  0
  3  7  1  0
  4  2  1  0
  5  3  1  0
  6 12  1  0
  7 11  1  0
  8  6  1  0
  8  4  1  0
  9 16  2  0
  9 14  1  0
 10 18  2  0
 10 13  1  0
 11 17  1  0
 11  9  1  0
 12  5  1  0
 14 18  1  0
 15  6  2  0
 16 10  1  0
 17 21  1  0
 19  4  2  0
 20  7  2  0
 20  1  1  0
  1 22  1  0
  2 23  1  0
  3 24  1  0
  8 25  1  0
 11 26  1  6
 12 27  1  0
 12 28  1  0
 14 29  1  0
 14 30  1  0
 16 31  1  0
 21 32  1  0
M  END
>  <mol_id>  (43) 
2026-08-23-6tgu-s0-n100-prep-0044

>  <rmsd_to_ref>  (43) 


$$$$

     RDKit          3D

 55 58  0  0  0  0  0  0  0  0999 V2000
   -0.5592   13.9854   46.1608 C   0  0  0  0  0  0  0  0  0  0  0  0
   -1.5592   13.1195   46.9194 C   0  0  0  0  0  0  0  0  0  0  0  0
    1.8766   19.9909   40.1053 C   0  0  0  0  0  0  0  0  0  0  0  0
    2.5041   19.4205   39.0112 C   0  0  1  0  0  0  0  0  0  0  0  0
    3.1918   15.0442   38.3758 C   0  0  0  0  0  0  0  0  0  0  0  0
   -1.7511   18.4349   43.2340 C   0  0  0  0  0  0  0  0  0  0  0  0
   -0.6702   15.5715   44.6039 N   0  0  0  0  0  0  0  0  0  0  0  0
    3.8549   13.9692   37.8885 O   0  0  0  0  0  0  0  0  0  0  0  0
   -0.4518   17.6828   43.6883 C   0  0  2  0  0  0  0  0  0  0  0  0
   -1.2752   14.4642   44.9221 N   0  0  0  0  0  0  0  0  0  0  0  0
    2.9514   20.1459   37.7685 C   0  0  0  0  0  0  0  0  0  0  0  0
    2.7387   18.0973   39.0055 N   0  0  0  0  0  0  0  0  0  0  0  0
    2.6552   21.5080   37.6377 N   0  0  0  0  0  0  0  0  0  0  0  0
    3.7100   16.1245   37.8034 C   0  0  0  0  0  0  0  0  0  0  0  0
   -2.6110   12.4345   44.8277 C   0  0  0  0  0  0  0  0  0  0  0  0
    0.9213   19.2495   42.1305 N   0  0  0  0  0  0  0  0  0  0  0  0
    0.7163   18.0672   42.7864 C   0  0  0  0  0  0  0  0  0  0  0  0
    4.6673   15.7621   36.9327 N   0  0  0  0  0  0  0  0  0  0  0  0
   -1.4547   13.2458   44.1732 C   0  0  0  0  0  0  0  0  0  0  0  0
    4.8068   14.4285   36.9624 C   0  0  0  0  0  0  0  0  0  0  0  0
    1.5423   17.1706   42.4354 O   0  0  0  0  0  0  0  0  0  0  0  0
    3.3107   17.5325   37.8899 C   0  0  0  0  0  0  0  0  0  0  0  0
    3.7362   18.1706   36.8572 N   0  0  0  0  0  0  0  0  0  0  0  0
   -2.0045   11.9491   46.0718 O   0  0  0  0  0  0  0  0  0  0  0  0
    1.5143   19.0215   41.0376 C   0  0  0  0  0  0  0  0  0  0  0  0
    1.5689   21.2970   40.3967 C   0  0  0  0  0  0  0  0  0  0  0  0
   -0.7681   16.2266   43.5291 N   0  0  0  0  0  0  0  0  0  0  0  0
    0.7719   21.5357   41.5114 C   0  0  0  0  0  0  0  0  0  0  0  0
    0.4773   20.5111   42.4037 C   0  0  0  0  0  0  0  0  0  0  0  0
    3.5546   19.5089   36.7540 N   0  0  0  0  0  0  0  0  0  0  0  0
   -0.2502   14.8418   46.7782 H   0  0  0  0  0  0  0  0  0  0  0  0
    0.3496   13.4204   45.9064 H   0  0  0  0  0  0  0  0  0  0  0  0
   -1.0856   12.7410   47.8373 H   0  0  0  0  0  0  0  0  0  0  0  0
   -2.4392   13.7310   47.1679 H   0  0  0  0  0  0  0  0  0  0  0  0
    1.5254   19.2491   38.5393 H   0  0  0  0  0  0  0  0  0  0  0  0
    2.3737   15.0261   39.1109 H   0  0  0  0  0  0  0  0  0  0  0  0
   -2.3340   18.7277   44.1197 H   0  0  0  0  0  0  0  0  0  0  0  0
   -1.4741   19.3338   42.6638 H   0  0  0  0  0  0  0  0  0  0  0  0
   -2.3566   17.7706   42.5999 H   0  0  0  0  0  0  0  0  0  0  0  0
   -0.9397   16.2379   45.3417 H   0  0  0  0  0  0  0  0  0  0  0  0
   -0.1660   17.9339   44.7205 H   0  0  0  0  0  0  0  0  0  0  0  0
    2.9525   22.0211   36.7955 H   0  0  0  0  0  0  0  0  0  0  0  0
    2.1399   21.9970   38.3836 H   0  0  0  0  0  0  0  0  0  0  0  0
   -2.9207   11.5973   44.1849 H   0  0  0  0  0  0  0  0  0  0  0  0
   -3.5219   13.0291   44.9907 H   0  0  0  0  0  0  0  0  0  0  0  0
   -0.5270   12.6552   44.1960 H   0  0  0  0  0  0  0  0  0  0  0  0
   -1.7002   13.4776   43.1263 H   0  0  0  0  0  0  0  0  0  0  0  0
    5.5178   13.8212   36.3830 H   0  0  0  0  0  0  0  0  0  0  0  0
    4.2183   17.6602   36.1034 H   0  0  0  0  0  0  0  0  0  0  0  0
    0.8652   18.3199   40.4932 H   0  0  0  0  0  0  0  0  0  0  0  0
    2.5062   18.7254   41.4096 H   0  0  0  0  0  0  0  0  0  0  0  0
    1.9387   22.1235   39.7720 H   0  0  0  0  0  0  0  0  0  0  0  0
   -1.7330   16.1385   43.1798 H   0  0  0  0  0  0  0  0  0  0  0  0
    0.3710   22.5446   41.6886 H   0  0  0  0  0  0  0  0  0  0  0  0
   -0.1042   20.7138   43.3152 H   0  0  0  0  0  0  0  0  0  0  0  0
  1  2  1  0
  3 26  2  0
  3 25  1  0
  4 12  1  0
  4  3  1  0
  7 10  1  0
  8  5  1  0
  9  6  1  0
 10  1  1  0
 11  4  1  0
 13 11  1  0
 14 22  1  0
 14  5  2  0
 15 24  1  0
 16 29  1  0
 16 17  1  0
 17  9  1  0
 18 20  2  0
 18 14  1  0
 19 15  1  0
 19 10  1  0
 20  8  1  0
 21 17  2  0
 22 12  2  0
 23 22  1  0
 24  2  1  0
 25 16  1  0
 26 28  1  0
 27  9  1  0
 27  7  1  0
 28 29  2  0
 30 23  1  0
 30 11  2  0
  1 31  1  0
  1 32  1  0
  2 33  1  0
  2 34  1  0
  4 35  1  6
  5 36  1  0
  6 37  1  0
  6 38  1  0
  6 39  1  0
  7 40  1  0
  9 41  1  1
 13 42  1  0
 13 43  1  0
 15 44  1  0
 15 45  1  0
 19 46  1  0
 19 47  1  0
 20 48  1  0
 23 49  1  0
 25 50  1  0
 25 51  1  0
 26 52  1  0
 27 53  1  0
 28 54  1  0
 29 55  1  0
M  END
>  <mol_id>  (44) 
2026-08-23-6tgu-s0-n100-prep-0045

>  <rmsd_to_ref>  (44) 


$$$$

     RDKit          3D

 59 65  0  0  0  0  0  0  0  0999 V2000
   -0.3717   13.6762   44.7021 C   0  0  0  0  0  0  0  0  0  0  0  0
    0.6712   21.1920   41.5753 C   0  0  0  0  0  0  0  0  0  0  0  0
   -0.4088   19.1606   42.9736 C   0  0  0  0  0  0  0  0  0  0  0  0
   -1.2777   19.8167   43.4223 O   0  0  0  0  0  0  0  0  0  0  0  0
    1.4381   21.1786   40.2851 O   0  0  0  0  0  0  0  0  0  0  0  0
    4.5384   17.1272   37.6312 C   0  0  0  0  0  0  0  0  0  0  0  0
    1.8710   21.3491   37.5132 O   0  0  0  0  0  0  0  0  0  0  0  0
    3.6370   20.3246   36.6592 C   0  0  0  0  0  0  0  0  0  0  0  0
    2.6935   22.3407   35.5697 C   0  0  0  0  0  0  0  0  0  0  0  0
    2.8955   15.2292   40.0153 O   0  0  0  0  0  0  0  0  0  0  0  0
    1.9909   17.2850   40.2840 C   0  0  2  0  0  0  0  0  0  0  0  0
    0.4471   19.7570   41.9283 C   0  0  0  0  0  0  0  0  0  0  0  0
    2.3809   19.3198   38.8551 C   0  0  2  0  0  0  0  0  0  0  0  0
   -0.6468   16.0008   45.1159 C   0  0  0  0  0  0  0  0  0  0  0  0
    5.2018   15.1118   37.1912 C   0  0  0  0  0  0  0  0  0  0  0  0
    2.8805   16.6583   39.5009 C   0  0  2  0  0  0  0  0  0  0  0  0
    5.3913   16.4102   36.8425 C   0  0  0  0  0  0  0  0  0  0  0  0
   -0.2338   14.9531   44.3418 C   0  0  0  0  0  0  0  0  0  0  0  0
    2.7430   21.2950   36.6288 C   0  0  0  0  0  0  0  0  0  0  0  0
    2.3835   17.8444   39.1126 C   0  0  1  0  0  0  0  0  0  0  0  0
    0.8629   17.1137   42.4026 C   0  0  0  0  0  0  0  0  0  0  0  0
    3.9442   16.2573   38.5135 C   0  0  1  0  0  0  0  0  0  0  0  0
   -0.2072   17.7262   43.4053 C   0  0  0  0  0  0  0  0  0  0  0  0
   -0.8354   13.3796   46.0130 C   0  0  0  0  0  0  0  0  0  0  0  0
   -1.2172   15.7355   46.3748 C   0  0  0  0  0  0  0  0  0  0  0  0
    3.6674   19.5328   37.9916 C   0  0  1  0  0  0  0  0  0  0  0  0
    1.2978   17.7156   41.2793 C   0  0  1  0  0  0  0  0  0  0  0  0
   -0.8149   12.1779   46.3957 O   0  0  0  0  0  0  0  0  0  0  0  0
    2.3784   23.7281   35.9859 C   0  0  0  0  0  0  0  0  0  0  0  0
   -0.5410   17.3436   44.7083 N   0  0  0  0  0  0  0  0  0  0  0  0
    1.1707   19.0778   41.0772 C   0  0  0  0  0  0  0  0  0  0  0  0
    0.3143   15.0214   43.1255 F   0  0  0  0  0  0  0  0  0  0  0  0
    3.0589   22.0796   34.3758 O   0  0  0  0  0  0  0  0  0  0  0  0
    4.3064   15.0069   38.1881 C   0  0  0  0  0  0  0  0  0  0  0  0
    4.2203   18.3660   37.4534 O   0  0  0  0  0  0  0  0  0  0  0  0
    2.0281   19.8669   40.2556 C   0  0  2  0  0  0  0  0  0  0  0  0
   -1.3306   14.3733   46.7850 C   0  0  0  0  0  0  0  0  0  0  0  0
   -0.1309   12.8668   43.9972 H   0  0  0  0  0  0  0  0  0  0  0  0
   -0.2906   21.7094   41.4442 H   0  0  0  0  0  0  0  0  0  0  0  0
    1.2189   21.7239   42.3672 H   0  0  0  0  0  0  0  0  0  0  0  0
    4.6314   20.7660   36.4970 H   0  0  0  0  0  0  0  0  0  0  0  0
    3.3558   19.6098   35.8718 H   0  0  0  0  0  0  0  0  0  0  0  0
    2.8254   15.2332   41.0028 H   0  0  0  0  0  0  0  0  0  0  0  0
    1.4479   16.9188   41.1677 H   0  0  0  0  0  0  0  0  0  0  0  0
    1.6809   19.9008   38.2365 H   0  0  0  0  0  0  0  0  0  0  0  0
    5.7132   14.2592   36.7205 H   0  0  0  0  0  0  0  0  0  0  0  0
    6.0855   16.8018   36.0845 H   0  0  0  0  0  0  0  0  0  0  0  0
    2.2996   18.1752   38.0669 H   0  0  0  0  0  0  0  0  0  0  0  0
    1.2793   16.1247   42.6442 H   0  0  0  0  0  0  0  0  0  0  0  0
    3.9642   16.4118   39.6024 H   0  0  0  0  0  0  0  0  0  0  0  0
   -1.5652   16.5533   47.0230 H   0  0  0  0  0  0  0  0  0  0  0  0
    4.1885   20.0687   38.7986 H   0  0  0  0  0  0  0  0  0  0  0  0
    0.3726   17.4202   40.7628 H   0  0  0  0  0  0  0  0  0  0  0  0
    2.2839   23.7698   37.0810 H   0  0  0  0  0  0  0  0  0  0  0  0
    3.1862   24.4006   35.6616 H   0  0  0  0  0  0  0  0  0  0  0  0
    1.4312   24.0433   35.5238 H   0  0  0  0  0  0  0  0  0  0  0  0
    3.9414   14.0767   38.6479 H   0  0  0  0  0  0  0  0  0  0  0  0
    3.0509   19.8615   40.6606 H   0  0  0  0  0  0  0  0  0  0  0  0
   -1.8249   14.1296   47.7371 H   0  0  0  0  0  0  0  0  0  0  0  0
  1 24  1  0
  2 12  1  0
  3  4  2  0
  3 23  1  0
  5  2  1  0
  6 22  1  0
  8 26  1  0
  9 29  1  0
  9 19  1  0
 11 27  1  0
 12  3  1  0
 13 20  1  0
 13 36  1  0
 14 25  1  0
 15 34  2  0
 16 10  1  6
 16 11  1  0
 17 15  1  0
 17  6  2  0
 18  1  2  0
 18 14  1  0
 19  8  1  0
 19  7  2  0
 20 16  1  0
 20 11  1  0
 21 23  2  0
 22 16  1  0
 23 30  1  0
 24 28  2  0
 24 37  1  0
 25 37  2  0
 26 13  1  0
 27 21  1  0
 30 14  2  3
 31 27  1  0
 31 12  2  0
 32 18  1  0
 33  9  2  0
 34 22  1  0
 35  6  1  0
 35 26  1  0
 36  5  1  0
 36 31  1  0
  1 38  1  0
  2 39  1  0
  2 40  1  0
  8 41  1  0
  8 42  1  0
 10 43  1  0
 11 44  1  6
 13 45  1  6
 15 46  1  0
 17 47  1  0
 20 48  1  6
 21 49  1  0
 22 50  1  1
 25 51  1  0
 26 52  1  1
 27 53  1  6
 29 54  1  0
 29 55  1  0
 29 56  1  0
 34 57  1  0
 36 58  1  1
 37 59  1  0
M  END
>  <mol_id>  (45) 
2026-08-23-6tgu-s0-n100-prep-0046

>  <rmsd_to_ref>  (45) 


$$$$

     RDKit          3D

 43 46  0  0  0  0  0  0  0  0999 V2000
   -0.4043   19.0759   43.1730 C   0  0  0  0  0  0  0  0  0  0  0  0
    1.7419   15.2460   41.1600 C   0  0  0  0  0  0  0  0  0  0  0  0
    3.8139   15.0245   38.1290 C   0  0  0  0  0  0  0  0  0  0  0  0
    2.1746   13.8190   41.0746 C   0  0  1  0  0  0  0  0  0  0  0  0
    2.3712   22.1501   36.6763 F   0  0  0  0  0  0  0  0  0  0  0  0
    2.1577   15.9373   40.1444 C   0  0  0  0  0  0  0  0  0  0  0  0
    0.3782   20.2286   41.4272 C   0  0  0  0  0  0  0  0  0  0  0  0
    1.7333   12.6844   41.9645 C   0  0  0  0  0  0  0  0  0  0  0  0
    2.7095   18.3023   37.8767 C   0  0  0  0  0  0  0  0  0  0  0  0
   -1.2455   17.8318   45.0200 O   0  0  0  0  0  0  0  0  0  0  0  0
    1.7174   17.3879   40.2633 C   0  0  0  0  0  0  0  0  0  0  0  0
    1.8992   20.6686   38.3667 C   0  0  0  0  0  0  0  0  0  0  0  0
    2.5872   17.3216   38.2943 O   0  0  0  0  0  0  0  0  0  0  0  0
    0.6290   16.6298   42.1795 N   0  0  0  0  0  0  0  0  0  0  0  0
    3.2899   20.0719   36.3678 C   0  0  0  0  0  0  0  0  0  0  0  0
   -0.6341   17.8984   43.9133 C   0  0  0  0  0  0  0  0  0  0  0  0
    1.9088   18.5128   39.6734 C   0  0  0  0  0  0  0  0  0  0  0  0
    2.9792   14.9269   39.4012 C   0  0  0  0  0  0  0  0  0  0  0  0
    3.3905   18.7102   36.7323 C   0  0  0  0  0  0  0  0  0  0  0  0
   -0.8410   20.2728   43.4455 N   0  0  0  0  0  0  0  0  0  0  0  0
    1.9722   19.3706   38.7431 C   0  0  0  0  0  0  0  0  0  0  0  0
   -0.1317   16.5903   43.3676 C   0  0  0  0  0  0  0  0  0  0  0  0
    2.9533   13.6270   40.1746 N   0  0  0  0  0  0  0  0  0  0  0  0
   -0.4275   20.9834   42.4931 C   0  0  0  0  0  0  0  0  0  0  0  0
    0.3611   18.9170   42.0165 C   0  0  0  0  0  0  0  0  0  0  0  0
    0.8983   17.6725   41.5936 C   0  0  0  0  0  0  0  0  0  0  0  0
    2.4883   20.9393   37.1237 C   0  0  0  0  0  0  0  0  0  0  0  0
    1.1431   15.6604   41.9845 H   0  0  0  0  0  0  0  0  0  0  0  0
    4.8820   15.0399   38.3915 H   0  0  0  0  0  0  0  0  0  0  0  0
    3.6066   14.1558   37.4869 H   0  0  0  0  0  0  0  0  0  0  0  0
    3.5553   15.9483   37.5908 H   0  0  0  0  0  0  0  0  0  0  0  0
    3.0093   14.0311   41.7589 H   0  0  0  0  0  0  0  0  0  0  0  0
    0.8333   20.5848   40.4911 H   0  0  0  0  0  0  0  0  0  0  0  0
    1.8790   12.9665   43.0177 H   0  0  0  0  0  0  0  0  0  0  0  0
    0.6692   12.4708   41.7859 H   0  0  0  0  0  0  0  0  0  0  0  0
    2.3300   11.7882   41.7391 H   0  0  0  0  0  0  0  0  0  0  0  0
    1.4193   21.4436   38.9824 H   0  0  0  0  0  0  0  0  0  0  0  0
    3.8392   20.4505   35.4931 H   0  0  0  0  0  0  0  0  0  0  0  0
    3.9830   18.0007   36.1360 H   0  0  0  0  0  0  0  0  0  0  0  0
   -1.3993   20.5706   44.2582 H   0  0  0  0  0  0  0  0  0  0  0  0
   -1.0086   15.9543   43.1766 H   0  0  0  0  0  0  0  0  0  0  0  0
    0.5633   16.2153   44.1334 H   0  0  0  0  0  0  0  0  0  0  0  0
   -0.6281   22.0630   42.4293 H   0  0  0  0  0  0  0  0  0  0  0  0
  1 20  1  0
  1 16  1  0
  3 18  1  0
  4  2  1  0
  4  8  1  0
  5 27  1  0
  6 11  1  0
  6  2  2  0
  7 25  1  0
  7 24  2  0
  9 13  2  0
  9 21  1  0
 11 26  1  0
 12 21  1  0
 14 22  1  0
 15 19  2  0
 15 27  1  0
 16 10  2  0
 17 11  2  0
 18  6  1  0
 18 23  2  0
 19  9  1  0
 21 17  2  0
 22 16  1  0
 23  4  1  0
 24 20  1  0
 25  1  2  0
 26 25  1  0
 26 14  2  0
 27 12  2  0
  2 28  1  0
  3 29  1  0
  3 30  1  0
  3 31  1  0
  4 32  1  1
  7 33  1  0
  8 34  1  0
  8 35  1  0
  8 36  1  0
 12 37  1  0
 15 38  1  0
 19 39  1  0
 20 40  1  0
 22 41  1  0
 22 42  1  0
 24 43  1  0
M  END
>  <mol_id>  (46) 
2026-08-23-6tgu-s0-n100-prep-0047

>  <rmsd_to_ref>  (46) 


$$$$

     RDKit          3D

 59 62  0  0  0  0  0  0  0  0999 V2000
    3.0060   18.1368   38.4701 C   0  0  0  0  0  0  0  0  0  0  0  0
    3.5832   15.6373   37.6188 C   0  0  0  0  0  0  0  0  0  0  0  0
   -0.4966   13.7749   44.7605 N   0  0  0  0  0  0  0  0  0  0  0  0
    0.2638   11.5885   43.0471 S   0  0  0  0  0  4  0  0  0  0  0  0
    2.7153   17.0156   39.3009 N   0  0  0  0  0  0  0  0  0  0  0  0
   -0.9053   13.6588   47.0552 O   0  0  0  0  0  0  0  0  0  0  0  0
    1.5312   14.0916   42.0239 C   0  0  0  0  0  0  0  0  0  0  0  0
    3.1344   12.2697   40.3134 C   0  0  0  0  0  0  0  0  0  0  0  0
    1.3218   12.6763   42.1395 C   0  0  2  0  0  0  0  0  0  0  0  0
    3.8841   18.9241   36.2366 N   0  0  0  0  0  0  0  0  0  0  0  0
   -0.0735   18.6634   42.9397 C   0  0  2  0  0  0  0  0  0  0  0  0
    2.4931   20.1137   38.3420 C   0  0  0  0  0  0  0  0  0  0  0  0
   -0.4139   17.6795   44.3375 S   0  0  0  0  0  0  0  0  0  0  0  0
    2.5542   20.5831   37.1957 C   0  0  0  0  0  0  0  0  0  0  0  0
    3.7977   16.7113   36.8757 C   0  0  0  0  0  0  0  0  0  0  0  0
   -0.7498   14.4302   46.0336 C   0  0  0  0  0  0  0  0  0  0  0  0
   -0.6220   12.3091   44.5314 C   0  0  0  0  0  0  0  0  0  0  0  0
    0.2626   16.9556   42.9446 C   0  0  0  0  0  0  0  0  0  0  0  0
   -0.8059   15.8141   46.0941 O   0  0  0  0  0  0  0  0  0  0  0  0
    0.6005   19.3042   41.7945 C   0  0  0  0  0  0  0  0  0  0  0  0
    1.9653   19.7496   39.7220 C   0  0  0  0  0  0  0  0  0  0  0  0
    3.3962   13.3259   39.4824 C   0  0  0  0  0  0  0  0  0  0  0  0
   -1.7813   11.6066   45.1401 C   0  0  0  0  0  0  0  0  0  0  0  0
    2.1159   14.7732   40.9534 C   0  0  0  0  0  0  0  0  0  0  0  0
   -0.9432   16.8759   46.9880 C   0  0  0  0  0  0  0  0  0  0  0  0
    3.9079   20.9404   35.1901 O   0  0  0  0  0  0  0  0  0  0  0  0
    1.3320   18.6980   40.7339 N   0  0  0  0  0  0  0  0  0  0  0  0
    2.2926   12.0299   41.3316 C   0  0  0  0  0  0  0  0  0  0  0  0
    2.8694   14.5281   39.8373 C   0  0  0  0  0  0  0  0  0  0  0  0
    3.4456   20.2030   36.1349 C   0  0  0  0  0  0  0  0  0  0  0  0
    3.0363   15.7733   38.9133 C   0  0  0  0  0  0  0  0  0  0  0  0
    0.6224   20.5815   41.5551 N   0  0  0  0  0  0  0  0  0  0  0  0
    3.5146   18.0656   37.2675 C   0  0  0  0  0  0  0  0  0  0  0  0
    1.2287   20.7804   40.3721 C   0  0  0  0  0  0  0  0  0  0  0  0
    2.7860   19.1373   38.8708 H   0  0  0  0  0  0  0  0  0  0  0  0
    3.8309   14.6393   37.2280 H   0  0  0  0  0  0  0  0  0  0  0  0
   -0.2118   14.3636   43.9648 H   0  0  0  0  0  0  0  0  0  0  0  0
    0.0997   10.2785   42.6812 H   0  0  0  0  0  0  0  0  0  0  0  0
    1.1944   14.7071   42.8710 H   0  0  0  0  0  0  0  0  0  0  0  0
    3.7726   11.4016   40.0917 H   0  0  0  0  0  0  0  0  0  0  0  0
    2.0627   12.6330   42.9514 H   0  0  0  0  0  0  0  0  0  0  0  0
    4.5248   18.5692   35.5124 H   0  0  0  0  0  0  0  0  0  0  0  0
   -0.4899   19.6813   42.9136 H   0  0  0  0  0  0  0  0  0  0  0  0
    1.8402   21.3870   36.9633 H   0  0  0  0  0  0  0  0  0  0  0  0
    4.2281   16.5550   35.8756 H   0  0  0  0  0  0  0  0  0  0  0  0
   -0.3455   16.2756   42.3300 H   0  0  0  0  0  0  0  0  0  0  0  0
    1.1538   16.3418   42.7469 H   0  0  0  0  0  0  0  0  0  0  0  0
    4.0029   13.2077   38.5724 H   0  0  0  0  0  0  0  0  0  0  0  0
   -1.7043   11.6539   46.2364 H   0  0  0  0  0  0  0  0  0  0  0  0
   -2.7145   12.0910   44.8169 H   0  0  0  0  0  0  0  0  0  0  0  0
   -1.7833   10.5549   44.8177 H   0  0  0  0  0  0  0  0  0  0  0  0
    1.9029   15.8495   41.0330 H   0  0  0  0  0  0  0  0  0  0  0  0
   -0.8982   16.4954   48.0191 H   0  0  0  0  0  0  0  0  0  0  0  0
   -0.1289   17.5978   46.8277 H   0  0  0  0  0  0  0  0  0  0  0  0
   -1.9109   17.3720   46.8221 H   0  0  0  0  0  0  0  0  0  0  0  0
    2.3875   10.9796   41.6444 H   0  0  0  0  0  0  0  0  0  0  0  0
    0.2402   21.3162   42.1675 H   0  0  0  0  0  0  0  0  0  0  0  0
    1.9307   21.6140   40.5215 H   0  0  0  0  0  0  0  0  0  0  0  0
    0.3741   20.9186   39.6934 H   0  0  0  0  0  0  0  0  0  0  0  0
  1  5  2  0
  2 31  2  0
  3 16  1  0
  4 17  2  3
  7  9  1  0
  8 28  2  0
  9  4  1  0
 10 33  1  0
 11 20  1  0
 11 18  1  0
 11 13  1  0
 12 21  2  0
 14 12  2  0
 15 33  2  0
 15  2  1  0
 16 19  1  0
 16  6  2  0
 17  3  1  0
 17 23  1  0
 18 13  1  0
 19 25  1  0
 21 34  1  0
 21 27  1  0
 22 29  2  0
 22  8  1  0
 24  7  2  0
 26 30  2  0
 27 20  2  0
 28  9  1  0
 29 24  1  0
 30 10  1  0
 30 14  1  0
 31  5  1  0
 31 29  1  0
 32 20  1  0
 33  1  1  0
 34 32  1  0
  1 35  1  0
  2 36  1  0
  3 37  1  0
  4 38  1  0
  7 39  1  0
  8 40  1  0
  9 41  1  6
 10 42  1  0
 11 43  1  6
 14 44  1  0
 15 45  1  0
 18 46  1  0
 18 47  1  0
 22 48  1  0
 23 49  1  0
 23 50  1  0
 23 51  1  0
 24 52  1  0
 25 53  1  0
 25 54  1  0
 25 55  1  0
 28 56  1  0
 32 57  1  0
 34 58  1  0
 34 59  1  0
M  END
>  <mol_id>  (47) 
2026-08-23-6tgu-s0-n100-prep-0048

>  <rmsd_to_ref>  (47) 


$$$$

     RDKit          3D

 30 32  0  0  0  0  0  0  0  0999 V2000
    0.5627   20.7183   41.7015 C   0  0  0  0  0  0  0  0  0  0  0  0
    1.3748   18.3860   41.1877 C   0  0  0  0  0  0  0  0  0  0  0  0
    0.6049   18.0133   42.4401 C   0  0  0  0  0  0  0  0  0  0  0  0
    2.9853   19.6824   37.4280 C   0  0  0  0  0  0  0  0  0  0  0  0
    3.8318   19.1803   36.7648 O   0  0  0  0  0  0  0  0  0  0  0  0
    2.3488   20.7182   37.0144 O   0  0  0  0  0  0  0  0  0  0  0  0
   -0.1335   20.2646   42.7820 N   0  0  0  0  0  0  0  0  0  0  0  0
    4.1763   13.3242   38.5998 C   0  0  0  0  0  0  0  0  0  0  0  0
    1.2590   19.7710   40.8216 C   0  0  0  0  0  0  0  0  0  0  0  0
    1.9292   20.1084   39.6665 C   0  0  0  0  0  0  0  0  0  0  0  0
    2.5900   19.2105   38.8350 C   0  0  0  0  0  0  0  0  0  0  0  0
    2.3724   16.0549   40.5995 C   0  0  0  0  0  0  0  0  0  0  0  0
    3.5906   14.0263   39.6888 C   0  0  0  0  0  0  0  0  0  0  0  0
    0.7477   16.7507   42.7951 O   0  0  0  0  0  0  0  0  0  0  0  0
    0.5772   21.9000   41.4191 O   0  0  0  0  0  0  0  0  0  0  0  0
    3.8623   16.5627   38.5486 S   0  0  0  0  0  0  0  0  0  0  0  0
   -0.1254   18.9467   43.1298 C   0  0  0  0  0  0  0  0  0  0  0  0
    2.8271   17.8637   39.2284 C   0  0  0  0  0  0  0  0  0  0  0  0
    3.1682   15.4560   39.6965 C   0  0  0  0  0  0  0  0  0  0  0  0
    2.1629   17.4717   40.3953 C   0  0  0  0  0  0  0  0  0  0  0  0
   -0.6772   20.9318   43.3476 H   0  0  0  0  0  0  0  0  0  0  0  0
    4.9238   12.6130   38.9815 H   0  0  0  0  0  0  0  0  0  0  0  0
    3.3944   12.7764   38.0536 H   0  0  0  0  0  0  0  0  0  0  0  0
    4.6641   14.0401   37.9218 H   0  0  0  0  0  0  0  0  0  0  0  0
    1.9429   21.1702   39.3796 H   0  0  0  0  0  0  0  0  0  0  0  0
    1.9128   15.5062   41.4348 H   0  0  0  0  0  0  0  0  0  0  0  0
    2.6828   13.4584   39.9402 H   0  0  0  0  0  0  0  0  0  0  0  0
    4.4634   14.0903   40.3553 H   0  0  0  0  0  0  0  0  0  0  0  0
    0.2851   16.4075   43.6002 H   0  0  0  0  0  0  0  0  0  0  0  0
   -0.7249   18.6210   43.9927 H   0  0  0  0  0  0  0  0  0  0  0  0
  1  7  1  0
  2  3  1  0
  3 14  1  0
  3 17  2  0
  4 11  1  0
  5  4  2  0
  6  4  1  0
  7 17  1  0
  8 13  1  0
  9  2  1  0
  9  1  1  0
 10  9  2  0
 11 18  2  0
 11 10  1  0
 12 20  1  0
 13 19  1  0
 15  1  2  0
 16 18  1  0
 16 19  1  0
 18 20  1  0
 19 12  2  0
 20  2  2  0
  7 21  1  0
  8 22  1  0
  8 23  1  0
  8 24  1  0
 10 25  1  0
 12 26  1  0
 13 27  1  0
 13 28  1  0
 14 29  1  0
 17 30  1  0
M  CHG  1   6  -1
M  END
>  <mol_id>  (48) 
2026-08-23-6tgu-s0-n100-prep-0049

>  <rmsd_to_ref>  (48) 


$$$$

     RDKit          3D

 46 48  0  0  0  0  0  0  0  0999 V2000
    1.1430   16.4300   42.5930 O   0  0  0  0  0  0  0  0  0  0  0  0
    3.4890   20.8760   36.0490 O   0  0  0  0  0  0  0  0  0  0  0  0
    1.3360   18.4990   41.4800 C   0  0  0  0  0  0  0  0  0  0  0  0
    1.4810   20.8090   40.2090 C   0  0  0  0  0  0  0  0  0  0  0  0
    1.6630   15.2580   42.2670 C   0  0  2  0  0  0  0  0  0  0  0  0
    2.8150   19.4130   39.9710 C   0  0  2  0  0  0  0  0  0  0  0  0
    1.8070   21.2020   38.8900 C   0  0  0  0  0  0  0  0  0  0  0  0
    3.7900   18.2060   36.5450 O   0  0  0  0  0  0  0  0  0  0  0  0
   -0.2790   14.7710   43.2510 C   0  0  1  0  0  0  0  0  0  0  0  0
    3.1610   17.9700   39.9300 C   0  0  0  0  0  0  0  0  0  0  0  0
    0.0680   13.9590   44.3920 O   0  0  0  0  0  0  0  0  0  0  0  0
    2.7300   20.0640   38.1230 C   0  0  0  0  0  0  0  0  0  0  0  0
   -0.2630   19.2780   43.5010 C   0  0  0  0  0  0  0  0  0  0  0  0
    3.1890   20.4940   36.9050 C   0  0  0  0  0  0  0  0  0  0  0  0
    3.3030   18.2450   37.9470 C   0  0  0  0  0  0  0  0  0  0  0  0
   -0.5530   16.9580   44.6340 C   0  0  0  0  0  0  0  0  0  0  0  0
    2.1410   18.4910   40.0160 C   0  0  1  0  0  0  0  0  0  0  0  0
    2.9280   14.6130   41.1960 C   0  0  0  0  0  0  0  0  0  0  0  0
   -0.9120   16.2890   45.8260 O   0  0  0  0  0  0  0  0  0  0  0  0
   -0.0950   16.1400   43.3940 C   0  0  1  0  0  0  0  0  0  0  0  0
   -0.8330   18.3660   44.4650 N   0  0  0  0  0  0  0  0  0  0  0  0
    0.5140   14.3060   42.0810 C   0  0  0  0  0  0  0  0  0  0  0  0
    0.6060   18.9470   42.4770 C   0  0  0  0  0  0  0  0  0  0  0  0
    4.0910   21.6425   36.2226 H   0  0  0  0  0  0  0  0  0  0  0  0
    0.4506   20.4492   40.3459 H   0  0  0  0  0  0  0  0  0  0  0  0
    1.4998   21.5085   41.0578 H   0  0  0  0  0  0  0  0  0  0  0  0
    2.4018   15.4400   43.0614 H   0  0  0  0  0  0  0  0  0  0  0  0
    0.8768   21.3487   38.3215 H   0  0  0  0  0  0  0  0  0  0  0  0
    2.3875   22.1348   38.9438 H   0  0  0  0  0  0  0  0  0  0  0  0
    4.7768   18.1270   36.5405 H   0  0  0  0  0  0  0  0  0  0  0  0
   -1.3634   14.6387   43.1223 H   0  0  0  0  0  0  0  0  0  0  0  0
    3.4817   17.4799   38.9989 H   0  0  0  0  0  0  0  0  0  0  0  0
    3.7759   17.2435   40.4814 H   0  0  0  0  0  0  0  0  0  0  0  0
   -0.1427   14.4520   45.2242 H   0  0  0  0  0  0  0  0  0  0  0  0
   -0.5471   20.3370   43.5896 H   0  0  0  0  0  0  0  0  0  0  0  0
    2.6348   19.6982   36.3858 H   0  0  0  0  0  0  0  0  0  0  0  0
    4.1510   20.7662   37.3637 H   0  0  0  0  0  0  0  0  0  0  0  0
    2.4668   17.5466   38.0987 H   0  0  0  0  0  0  0  0  0  0  0  0
    4.0602   17.9462   38.6868 H   0  0  0  0  0  0  0  0  0  0  0  0
    1.3009   18.1891   39.3732 H   0  0  0  0  0  0  0  0  0  0  0  0
    3.7451   14.1964   41.8032 H   0  0  0  0  0  0  0  0  0  0  0  0
    2.5026   13.8217   40.5612 H   0  0  0  0  0  0  0  0  0  0  0  0
    3.3186   15.4220   40.5612 H   0  0  0  0  0  0  0  0  0  0  0  0
   -0.9598   16.7213   43.0415 H   0  0  0  0  0  0  0  0  0  0  0  0
   -0.0112   14.4580   41.1265 H   0  0  0  0  0  0  0  0  0  0  0  0
    0.7576   13.2341   42.0392 H   0  0  0  0  0  0  0  0  0  0  0  0
  1 20  1  0
  2 14  1  0
  3 23  3  0
  5 18  1  0
  5  1  1  0
  6 10  1  1
  6 17  1  0
  6  4  1  0
  7  4  1  0
  8 15  1  0
  9 20  1  0
  9 11  1  0
 10 17  1  0
 12  7  1  0
 12  6  1  0
 13 21  2  3
 14 12  1  0
 15 12  1  0
 16 19  2  0
 17  3  1  0
 20 16  1  0
 21 16  1  0
 22  5  1  0
 22  9  1  0
 23 13  1  0
  2 24  1  0
  4 25  1  0
  4 26  1  0
  5 27  1  1
  7 28  1  0
  7 29  1  0
  8 30  1  0
  9 31  1  6
 10 32  1  0
 10 33  1  0
 11 34  1  0
 13 35  1  0
 14 36  1  0
 14 37  1  0
 15 38  1  0
 15 39  1  0
 17 40  1  6
 18 41  1  0
 18 42  1  0
 18 43  1  0
 20 44  1  6
 22 45  1  0
 22 46  1  0
M  END
>  <mol_id>  (49) 
2026-08-23-6tgu-s0-n100-prep-0050

>  <rmsd_to_ref>  (49) 


$$$$

     RDKit          3D

 15 15  0  0  0  0  0  0  0  0999 V2000
    1.5491   18.6134   41.3249 N   0  0  0  0  0  0  0  0  0  0  0  0
    1.9400   17.7713   42.0574 O   0  0  0  0  0  0  0  0  0  0  0  0
    2.2654   19.0538   40.2038 C   0  0  0  0  0  0  0  0  0  0  0  0
    2.9526   18.1030   39.5602 C   0  0  0  0  0  0  0  0  0  0  0  0
    0.4388   19.0855   41.5639 O   0  0  0  0  0  0  0  0  0  0  0  0
    2.5851   20.6599   38.4623 C   0  0  0  0  0  0  0  0  0  0  0  0
    2.0437   20.3515   39.7237 C   0  0  0  0  0  0  0  0  0  0  0  0
    3.2421   19.5918   37.7150 C   0  0  0  0  0  0  0  0  0  0  0  0
    3.4544   18.4159   38.2015 C   0  0  0  0  0  0  0  0  0  0  0  0
    3.4911   19.8615   36.3905 O   0  0  0  0  0  0  0  0  0  0  0  0
    3.1386   17.1229   40.0238 H   0  0  0  0  0  0  0  0  0  0  0  0
    2.5153   21.6776   38.0507 H   0  0  0  0  0  0  0  0  0  0  0  0
    1.4745   21.0923   40.3043 H   0  0  0  0  0  0  0  0  0  0  0  0
    3.9984   17.6588   37.6179 H   0  0  0  0  0  0  0  0  0  0  0  0
    3.3238   20.7682   36.0299 H   0  0  0  0  0  0  0  0  0  0  0  0
  1  5  1  0
  1  2  2  0
  3  1  1  0
  4  3  2  0
  6  7  2  0
  7  3  1  0
  8  9  2  0
  8  6  1  0
  9  4  1  0
 10  8  1  0
  4 11  1  0
  6 12  1  0
  7 13  1  0
  9 14  1  0
 10 15  1  0
M  CHG  2   1   1   5  -1
M  END
>  <mol_id>  (50) 
2026-08-23-6tgu-s0-n100-prep-0051

>  <rmsd_to_ref>  (50) 


$$$$

     RDKit          3D

 36 39  0  0  0  0  0  0  0  0999 V2000
    2.1156   21.4624   37.8966 O   0  0  0  0  0  0  0  0  0  0  0  0
    2.8031   20.0425   39.3434 C   0  0  0  0  0  0  0  0  0  0  0  0
    2.6872   16.9168   40.3841 N   0  0  0  0  0  0  0  0  0  0  0  0
    3.2194   20.7977   37.4164 C   0  0  0  0  0  0  0  0  0  0  0  0
    3.6233   19.8938   38.3247 N   0  0  0  0  0  0  0  0  0  0  0  0
    3.7523   14.6498   39.9330 N   0  0  0  0  0  0  0  0  0  0  0  0
   -0.0410   19.7500   42.7320 C   0  0  0  0  0  0  0  0  0  0  0  0
    1.1145   18.2572   41.8160 C   0  0  0  0  0  0  0  0  0  0  0  0
   -0.6484   19.3846   43.7558 C   0  0  0  0  0  0  0  0  0  0  0  0
   -0.7014   18.0965   44.2522 C   0  0  0  0  0  0  0  0  0  0  0  0
    1.7930   20.9940   39.1888 C   0  0  0  0  0  0  0  0  0  0  0  0
    3.3685   13.5037   40.2327 C   0  0  0  0  0  0  0  0  0  0  0  0
    2.2103   18.0964   40.9046 C   0  0  0  0  0  0  0  0  0  0  0  0
    0.5409   17.1980   42.5179 C   0  0  0  0  0  0  0  0  0  0  0  0
    4.0112   12.4240   40.2664 O   0  0  0  0  0  0  0  0  0  0  0  0
    1.1541   15.9994   42.0003 N   0  0  0  0  0  0  0  0  0  0  0  0
    2.8524   15.8677   40.0504 C   0  0  1  0  0  0  0  0  0  0  0  0
   -0.1909   17.0558   43.6614 N   0  0  0  0  0  0  0  0  0  0  0  0
   -1.4070   18.0683   45.2261 O   0  0  0  0  0  0  0  0  0  0  0  0
    3.6615   21.0284   36.3544 O   0  0  0  0  0  0  0  0  0  0  0  0
    2.2499   13.3129   41.0303 O   0  0  0  0  0  0  0  0  0  0  0  0
    2.8380   19.3075   40.5766 O   0  0  0  0  0  0  0  0  0  0  0  0
    2.0317   15.9523   41.1259 C   0  0  2  0  0  0  0  0  0  0  0  0
    0.8490   19.4520   41.8508 N   0  0  0  0  0  0  0  0  0  0  0  0
    4.7161   14.7766   39.5927 H   0  0  0  0  0  0  0  0  0  0  0  0
   -0.8974   19.9456   42.0698 H   0  0  0  0  0  0  0  0  0  0  0  0
    0.7337   20.2177   43.3574 H   0  0  0  0  0  0  0  0  0  0  0  0
   -0.2287   19.9911   44.5720 H   0  0  0  0  0  0  0  0  0  0  0  0
   -1.6860   19.4941   43.4073 H   0  0  0  0  0  0  0  0  0  0  0  0
    1.8603   21.7913   39.9437 H   0  0  0  0  0  0  0  0  0  0  0  0
    0.7675   20.6144   39.3086 H   0  0  0  0  0  0  0  0  0  0  0  0
    3.0219   15.6548   38.9846 H   0  0  0  0  0  0  0  0  0  0  0  0
   -0.3402   16.1176   44.0595 H   0  0  0  0  0  0  0  0  0  0  0  0
    1.1622   16.0283   40.4563 H   0  0  0  0  0  0  0  0  0  0  0  0
    1.7110   19.9724   42.0676 H   0  0  0  0  0  0  0  0  0  0  0  0
    0.4639   19.7061   40.9299 H   0  0  0  0  0  0  0  0  0  0  0  0
  1 11  1  0
  2 22  1  0
  3 13  1  0
  3 23  1  0
  4  1  1  0
  4  5  1  0
  5  2  2  0
  6 12  1  0
  7  9  1  0
  8 14  1  0
  9 10  1  0
 10 19  2  0
 11  2  1  0
 12 15  2  0
 12 21  1  0
 13  8  2  0
 14 18  1  0
 16 14  2  0
 17  6  1  0
 17  3  1  0
 17 23  1  0
 18 10  1  0
 20  4  2  0
 22 13  1  0
 23 16  1  0
 24  8  1  0
 24  7  1  0
  6 25  1  0
  7 26  1  0
  7 27  1  0
  9 28  1  0
  9 29  1  0
 11 30  1  0
 11 31  1  0
 17 32  1  6
 18 33  1  0
 23 34  1  1
 24 35  1  0
 24 36  1  0
M  CHG  2  21  -1  24   1
M  END
>  <mol_id>  (51) 
2026-08-23-6tgu-s0-n100-prep-0052

>  <rmsd_to_ref>  (51) 


$$$$

     RDKit          3D

 37 40  0  0  0  0  0  0  0  0999 V2000
    0.9310   19.1713   40.6246 C   0  0  0  0  0  0  0  0  0  0  0  0
    1.4176   13.5387   42.3589 N   0  0  0  0  0  0  0  0  0  0  0  0
    0.7662   12.7533   43.1993 C   0  0  0  0  0  0  0  0  0  0  0  0
   -0.1245   18.7101   41.3687 C   0  0  0  0  0  0  0  0  0  0  0  0
   -0.5038   16.6352   42.7356 C   0  0  0  0  0  0  0  0  0  0  0  0
    3.2576   20.8362   36.5751 C   0  0  0  0  0  0  0  0  0  0  0  0
   -0.4075   21.1083   41.1033 S   0  0  0  0  0  0  0  0  0  0  0  0
    0.0213   13.1557   44.0520 O   0  0  0  0  0  0  0  0  0  0  0  0
    1.7383   18.0723   40.3841 O   0  0  0  0  0  0  0  0  0  0  0  0
    2.9107   15.3114   40.7034 O   0  0  0  0  0  0  0  0  0  0  0  0
    0.1488   17.4303   41.7817 C   0  0  0  0  0  0  0  0  0  0  0  0
    1.2696   21.4036   37.8228 C   0  0  0  0  0  0  0  0  0  0  0  0
    1.0676   14.8502   42.2067 C   0  0  0  0  0  0  0  0  0  0  0  0
    1.8054   15.7220   41.3142 C   0  0  0  0  0  0  0  0  0  0  0  0
    2.0749   21.5135   36.6921 N   0  0  0  0  0  0  0  0  0  0  0  0
    0.7982   20.5710   40.1381 C   0  0  2  0  0  0  0  0  0  0  0  0
   -0.0632   15.3472   42.9457 C   0  0  0  0  0  0  0  0  0  0  0  0
    1.2766   17.0039   41.1874 C   0  0  0  0  0  0  0  0  0  0  0  0
    3.6256   19.9195   37.5983 C   0  0  0  0  0  0  0  0  0  0  0  0
   -1.0169   19.8191   41.7634 C   0  0  0  0  0  0  0  0  0  0  0  0
    2.8038   19.7575   38.7880 C   0  0  0  0  0  0  0  0  0  0  0  0
    1.6558   20.5701   38.8224 C   0  0  0  0  0  0  0  0  0  0  0  0
    0.8629   11.2102   43.0068 C   0  0  0  0  0  0  0  0  0  0  0  0
    2.2010   13.1559   41.8105 H   0  0  0  0  0  0  0  0  0  0  0  0
   -1.3546   17.0344   43.3073 H   0  0  0  0  0  0  0  0  0  0  0  0
    3.9119   20.9975   35.7056 H   0  0  0  0  0  0  0  0  0  0  0  0
    3.2343   14.3852   40.8356 H   0  0  0  0  0  0  0  0  0  0  0  0
    0.3373   21.9816   37.9046 H   0  0  0  0  0  0  0  0  0  0  0  0
    0.9772   21.6473   39.9987 H   0  0  0  0  0  0  0  0  0  0  0  0
   -0.5735   14.7011   43.6751 H   0  0  0  0  0  0  0  0  0  0  0  0
    4.5444   19.3246   37.4888 H   0  0  0  0  0  0  0  0  0  0  0  0
   -2.0366   19.6425   41.3908 H   0  0  0  0  0  0  0  0  0  0  0  0
   -1.0860   19.9160   42.8570 H   0  0  0  0  0  0  0  0  0  0  0  0
    3.0596   19.0560   39.5958 H   0  0  0  0  0  0  0  0  0  0  0  0
    0.6276   10.7069   43.9561 H   0  0  0  0  0  0  0  0  0  0  0  0
    0.1467   10.8914   42.2354 H   0  0  0  0  0  0  0  0  0  0  0  0
    1.8828   10.9431   42.6931 H   0  0  0  0  0  0  0  0  0  0  0  0
  1  4  2  0
  2  3  1  0
  3  8  2  0
  4 11  1  0
  4 20  1  0
  5 17  1  0
  6 15  2  0
  6 19  1  0
  7 20  1  0
  9  1  1  0
  9 18  1  0
 10 14  1  0
 11  5  2  0
 12 22  2  0
 13  2  1  0
 13 17  2  0
 14 18  2  0
 14 13  1  0
 15 12  1  0
 16 22  1  0
 16  1  1  0
 16  7  1  0
 18 11  1  0
 19 21  2  0
 21 22  1  0
 23  3  1  0
  2 24  1  0
  5 25  1  0
  6 26  1  0
 10 27  1  0
 12 28  1  0
 16 29  1  1
 17 30  1  0
 19 31  1  0
 20 32  1  0
 20 33  1  0
 21 34  1  0
 23 35  1  0
 23 36  1  0
 23 37  1  0
M  END
>  <mol_id>  (52) 
2026-08-23-6tgu-s0-n100-prep-0053

>  <rmsd_to_ref>  (52) 


$$$$

     RDKit          3D

 25 25  0  0  0  0  0  0  0  0999 V2000
    3.1572   20.0953   36.8937 F   0  0  0  0  0  0  0  0  0  0  0  0
    2.3205   17.6882   39.3347 C   0  0  0  0  0  0  0  0  0  0  0  0
    2.4923   19.7350   38.1384 C   0  0  0  0  0  0  0  0  0  0  0  0
    1.8024   20.7133   38.6169 C   0  0  0  0  0  0  0  0  0  0  0  0
    0.9560   19.3422   40.5424 C   0  0  0  0  0  0  0  0  0  0  0  0
    1.1539   20.4633   39.8207 C   0  0  0  0  0  0  0  0  0  0  0  0
    0.3089   19.4714   41.6587 O   0  0  0  0  0  0  0  0  0  0  0  0
    1.4070   18.1577   40.0972 C   0  0  1  0  0  0  0  0  0  0  0  0
    0.5198   16.5083   41.9260 C   0  0  0  0  0  0  0  0  0  0  0  0
    2.9060   18.5124   38.4454 C   0  0  0  0  0  0  0  0  0  0  0  0
    0.4990   17.0056   40.5991 N   0  0  0  0  0  0  0  0  0  0  0  0
   -0.8287   15.8599   42.2832 C   0  0  0  0  0  0  0  0  0  0  0  0
    2.6216   16.6325   39.4042 H   0  0  0  0  0  0  0  0  0  0  0  0
    1.7314   21.6844   38.1049 H   0  0  0  0  0  0  0  0  0  0  0  0
    0.7130   21.3622   40.2765 H   0  0  0  0  0  0  0  0  0  0  0  0
    0.1372   18.6785   42.2260 H   0  0  0  0  0  0  0  0  0  0  0  0
    2.0918   18.0958   40.9558 H   0  0  0  0  0  0  0  0  0  0  0  0
    0.7167   17.3386   42.6201 H   0  0  0  0  0  0  0  0  0  0  0  0
    1.3109   15.7483   42.0072 H   0  0  0  0  0  0  0  0  0  0  0  0
    3.8036   18.1405   37.9296 H   0  0  0  0  0  0  0  0  0  0  0  0
   -0.4682   17.3177   40.4317 H   0  0  0  0  0  0  0  0  0  0  0  0
    0.8889   16.2053   40.0810 H   0  0  0  0  0  0  0  0  0  0  0  0
   -0.8259   15.5685   43.3439 H   0  0  0  0  0  0  0  0  0  0  0  0
   -1.6408   16.5797   42.1029 H   0  0  0  0  0  0  0  0  0  0  0  0
   -0.9837   14.9681   41.6583 H   0  0  0  0  0  0  0  0  0  0  0  0
  1  3  1  0
  2  8  1  0
  3  4  2  0
  3 10  1  0
  4  6  1  0
  5  7  1  0
  6  5  2  0
  8  5  1  0
  8 11  1  0
  9 12  1  0
 10  2  2  0
 11  9  1  0
  2 13  1  0
  4 14  1  0
  6 15  1  0
  7 16  1  0
  8 17  1  1
  9 18  1  0
  9 19  1  0
 10 20  1  0
 11 21  1  0
 11 22  1  0
 12 23  1  0
 12 24  1  0
 12 25  1  0
M  CHG  1  11   1
M  END
>  <mol_id>  (53) 
2026-08-23-6tgu-s0-n100-prep-0054

>  <rmsd_to_ref>  (53) 


$$$$

     RDKit          3D

 23 23  0  0  0  0  0  0  0  0999 V2000
    2.5543   20.6719   36.5475 O   0  0  0  0  0  0  0  0  0  0  0  0
    1.4604   21.2300   38.9736 C   0  0  0  0  0  0  0  0  0  0  0  0
    1.0281   16.9860   41.5085 C   0  0  0  0  0  0  0  0  0  0  0  0
    0.3870   20.5242   41.0130 C   0  0  0  0  0  0  0  0  0  0  0  0
    0.6266   21.4848   40.0977 C   0  0  0  0  0  0  0  0  0  0  0  0
    3.0220   17.4517   38.7697 O   0  0  0  0  0  0  0  0  0  0  0  0
    2.4063   17.8317   39.7314 N   0  0  0  0  0  0  0  0  0  0  0  0
    3.8687   19.2013   37.4461 O   0  0  0  0  0  0  0  0  0  0  0  0
    2.0470   20.0442   38.7715 C   0  0  0  0  0  0  0  0  0  0  0  0
    0.2748   15.6502   42.3027 S   0  0  0  0  0  0  0  0  0  0  0  0
   -0.5100   20.5950   42.0083 O   0  0  0  0  0  0  0  0  0  0  0  0
    1.9901   19.1207   39.8066 C   0  0  0  0  0  0  0  0  0  0  0  0
    2.6938   19.6969   37.3435 C   0  0  0  0  0  0  0  0  0  0  0  0
    1.0256   19.3169   40.8323 C   0  0  0  0  0  0  0  0  0  0  0  0
    0.6716   18.2299   41.6357 N   0  0  0  0  0  0  0  0  0  0  0  0
    2.3807   21.4980   37.0647 H   0  0  0  0  0  0  0  0  0  0  0  0
    1.6290   22.0364   38.2446 H   0  0  0  0  0  0  0  0  0  0  0  0
    1.8760   16.7674   40.8428 H   0  0  0  0  0  0  0  0  0  0  0  0
    0.1714   22.4785   40.2217 H   0  0  0  0  0  0  0  0  0  0  0  0
    4.0862   19.0632   38.4020 H   0  0  0  0  0  0  0  0  0  0  0  0
    0.3422   15.8283   43.6593 H   0  0  0  0  0  0  0  0  0  0  0  0
   -0.6156   19.8356   42.6345 H   0  0  0  0  0  0  0  0  0  0  0  0
    2.1361   18.8730   36.8744 H   0  0  0  0  0  0  0  0  0  0  0  0
  1 13  1  0
  2  5  2  0
  3 15  2  3
  3 10  1  0
  4 11  1  0
  5  4  1  0
  6  7  2  0
  7 12  1  0
  9  2  1  0
  9 12  2  0
 12 14  1  0
 13  8  1  0
 13  9  1  0
 14  4  2  0
 14 15  1  0
  1 16  1  0
  2 17  1  0
  3 18  1  0
  5 19  1  0
  8 20  1  0
 10 21  1  0
 11 22  1  0
 13 23  1  0
M  END
>  <mol_id>  (54) 
2026-08-23-6tgu-s0-n100-prep-0055

>  <rmsd_to_ref>  (54) 


$$$$

     RDKit          3D

 30 30  0  0  0  0  0  0  0  0999 V2000
   -0.5550   19.8286   42.3331 C   0  0  0  0  0  0  0  0  0  0  0  0
    1.0714   20.7355   39.7907 C   0  0  0  0  0  0  0  0  0  0  0  0
    0.2338   17.4293   43.7920 O   0  0  0  0  0  0  0  0  0  0  0  0
    1.9908   18.5244   39.9067 C   0  0  0  0  0  0  0  0  0  0  0  0
    1.7647   20.9832   38.6334 C   0  0  0  0  0  0  0  0  0  0  0  0
    3.7750   17.5592   38.1607 S   0  0  0  0  0  4  0  0  0  0  0  0
    3.5471   16.1036   37.6610 O   0  0  0  0  0  0  0  0  0  0  0  0
    4.0071   18.1104   37.1658 O   0  0  0  0  0  0  0  0  0  0  0  0
    2.6932   18.7744   38.7259 C   0  0  0  0  0  0  0  0  0  0  0  0
    0.4874   19.2189   41.6904 C   0  0  0  0  0  0  0  0  0  0  0  0
   -0.8003   18.0413   44.1797 C   0  0  0  0  0  0  0  0  0  0  0  0
    2.6039   20.0254   38.0867 C   0  0  0  0  0  0  0  0  0  0  0  0
    3.3236   20.3167   37.0082 O   0  0  0  0  0  0  0  0  0  0  0  0
   -1.2419   19.2433   43.5072 C   0  0  0  0  0  0  0  0  0  0  0  0
   -1.5948   17.3582   45.0808 N   0  0  0  0  0  0  0  0  0  0  0  0
    1.1719   19.5174   40.4307 C   0  0  0  0  0  0  0  0  0  0  0  0
    4.7959   17.4970   39.1059 O   0  0  0  0  0  0  0  0  0  0  0  0
   -0.9007   20.8034   41.9586 H   0  0  0  0  0  0  0  0  0  0  0  0
    0.4261   21.5191   40.2146 H   0  0  0  0  0  0  0  0  0  0  0  0
    2.0845   17.5537   40.4156 H   0  0  0  0  0  0  0  0  0  0  0  0
    1.6529   21.9559   38.1321 H   0  0  0  0  0  0  0  0  0  0  0  0
    3.3987   15.5075   38.4374 H   0  0  0  0  0  0  0  0  0  0  0  0
    4.2939   19.0375   37.3614 H   0  0  0  0  0  0  0  0  0  0  0  0
    0.8859   18.3401   42.2186 H   0  0  0  0  0  0  0  0  0  0  0  0
    3.9242   19.6350   36.6150 H   0  0  0  0  0  0  0  0  0  0  0  0
   -1.2468   20.0312   44.2749 H   0  0  0  0  0  0  0  0  0  0  0  0
   -2.1822   18.8984   43.0524 H   0  0  0  0  0  0  0  0  0  0  0  0
   -2.4554   17.7939   45.4421 H   0  0  0  0  0  0  0  0  0  0  0  0
   -1.3262   16.4135   45.3912 H   0  0  0  0  0  0  0  0  0  0  0  0
    4.4049   17.5109   40.0153 H   0  0  0  0  0  0  0  0  0  0  0  0
  1 14  1  0
  2 16  1  0
  3 11  2  0
  4 16  2  0
  5  2  2  0
  6  9  1  0
  6 17  1  0
  7  6  1  0
  8  6  1  0
  9  4  1  0
 10  1  2  3
 11 15  1  0
 12  5  1  0
 12  9  2  0
 13 12  1  0
 14 11  1  0
 16 10  1  0
  1 18  1  0
  2 19  1  0
  4 20  1  0
  5 21  1  0
  7 22  1  0
  8 23  1  0
 10 24  1  0
 13 25  1  0
 14 26  1  0
 14 27  1  0
 15 28  1  0
 15 29  1  0
 17 30  1  0
M  END
>  <mol_id>  (55) 
2026-08-23-6tgu-s0-n100-prep-0056

>  <rmsd_to_ref>  (55) 


$$$$

     RDKit          3D

 35 37  0  0  0  0  0  0  0  0999 V2000
    3.9881   20.3428   36.2483 O   0  0  0  0  0  0  0  0  0  0  0  0
    1.2622   20.3199   40.6210 C   0  0  0  0  0  0  0  0  0  0  0  0
    2.9150   17.5225   38.6014 C   0  0  0  0  0  0  0  0  0  0  0  0
    2.8186   16.2239   39.1171 N   0  0  0  0  0  0  0  0  0  0  0  0
    2.4779   18.6758   39.2546 N   0  0  0  0  0  0  0  0  0  0  0  0
   -0.1521   19.7961   42.4840 C   0  0  0  0  0  0  0  0  0  0  0  0
    1.0731   15.3753   42.2795 S   0  0  0  0  0  0  0  0  0  0  0  0
   -0.9418   20.2749   43.5096 O   0  0  0  0  0  0  0  0  0  0  0  0
    1.0487   17.9830   41.2421 C   0  0  0  0  0  0  0  0  0  0  0  0
   -0.8130   17.5410   43.1295 C   0  0  0  0  0  0  0  0  0  0  0  0
    1.8390   14.0833   41.7506 C   0  0  0  0  0  0  0  0  0  0  0  0
    2.4623   20.8706   37.9836 C   0  0  0  0  0  0  0  0  0  0  0  0
    1.6104   18.9445   40.4219 C   0  0  0  0  0  0  0  0  0  0  0  0
    3.3500   17.4324   37.3935 O   0  0  0  0  0  0  0  0  0  0  0  0
    2.8557   22.2559   36.1070 O   0  0  0  0  0  0  0  0  0  0  0  0
    0.0706   18.4033   42.2985 C   0  0  0  0  0  0  0  0  0  0  0  0
    2.3929   14.3301   40.5631 C   0  0  0  0  0  0  0  0  0  0  0  0
    3.1383   21.1878   36.7222 C   0  0  0  0  0  0  0  0  0  0  0  0
    0.4313   20.7026   41.5669 C   0  0  0  0  0  0  0  0  0  0  0  0
    3.2451   19.8014   38.6869 C   0  0  0  0  0  0  0  0  0  0  0  0
    2.2222   15.7233   40.2383 C   0  0  0  0  0  0  0  0  0  0  0  0
    1.4509   16.4231   41.2150 C   0  0  0  0  0  0  0  0  0  0  0  0
    1.7042   21.0813   39.9615 H   0  0  0  0  0  0  0  0  0  0  0  0
    3.2869   15.5105   38.5403 H   0  0  0  0  0  0  0  0  0  0  0  0
   -1.0793   21.2497   43.6148 H   0  0  0  0  0  0  0  0  0  0  0  0
   -0.5510   17.6627   44.1909 H   0  0  0  0  0  0  0  0  0  0  0  0
   -1.8619   17.8340   42.9748 H   0  0  0  0  0  0  0  0  0  0  0  0
   -0.6791   16.4891   42.8370 H   0  0  0  0  0  0  0  0  0  0  0  0
    1.9022   13.1254   42.2876 H   0  0  0  0  0  0  0  0  0  0  0  0
    1.4435   20.5102   37.7783 H   0  0  0  0  0  0  0  0  0  0  0  0
    2.4004   21.7694   38.6147 H   0  0  0  0  0  0  0  0  0  0  0  0
    2.9004   13.5868   39.9307 H   0  0  0  0  0  0  0  0  0  0  0  0
    0.1799   21.7704   41.6480 H   0  0  0  0  0  0  0  0  0  0  0  0
    3.9614   19.3841   37.9638 H   0  0  0  0  0  0  0  0  0  0  0  0
    3.7014   20.3030   39.5530 H   0  0  0  0  0  0  0  0  0  0  0  0
  1 18  1  0
  2 19  2  0
  3  5  1  0
  3  4  1  0
  4 21  1  0
  5 13  1  0
  6 16  2  0
  6  8  1  0
  9 22  1  0
  9 16  1  0
 11  7  1  0
 12 20  1  0
 13  2  1  0
 13  9  2  0
 14  3  2  0
 15 18  2  0
 16 10  1  0
 17 11  2  0
 18 12  1  0
 19  6  1  0
 20  5  1  0
 21 17  1  0
 21 22  2  0
 22  7  1  0
  2 23  1  0
  4 24  1  0
  8 25  1  0
 10 26  1  0
 10 27  1  0
 10 28  1  0
 11 29  1  0
 12 30  1  0
 12 31  1  0
 17 32  1  0
 19 33  1  0
 20 34  1  0
 20 35  1  0
M  CHG  1   1  -1
M  END
>  <mol_id>  (56) 
2026-08-23-6tgu-s0-n100-prep-0057

>  <rmsd_to_ref>  (56) 


$$$$

     RDKit          3D

 41 43  0  0  0  0  0  0  0  0999 V2000
   -1.8467   18.9507   43.3716 S   0  0  0  0  0  6  0  0  0  0  0  0
    3.1788   20.3192   36.2499 C   0  0  0  0  0  0  0  0  0  0  0  0
    0.0999   19.2270   41.3004 C   0  0  0  0  0  0  0  0  0  0  0  0
    3.6482   21.2646   35.5924 O   0  0  0  0  0  0  0  0  0  0  0  0
    2.4253   18.2390   38.4294 C   0  0  0  0  0  0  0  0  0  0  0  0
    0.5883   15.8192   41.8225 C   0  0  0  0  0  0  0  0  0  0  0  0
    2.1677   19.6597   38.3932 C   0  0  1  0  0  0  0  0  0  0  0  0
   -0.7182   20.4238   41.9113 C   0  0  0  0  0  0  0  0  0  0  0  0
   -1.1680   19.5549   44.5385 O   0  0  0  0  0  0  0  0  0  0  0  0
   -2.1582   20.2790   42.2594 C   0  0  0  0  0  0  0  0  0  0  0  0
   -2.9534   17.7350   43.7631 O   0  0  0  0  0  0  0  0  0  0  0  0
    1.6790   20.2776   39.7302 S   0  0  0  0  0  0  0  0  0  0  0  0
    0.0196   21.5216   41.9990 N   0  0  0  0  0  0  0  0  0  0  0  0
    2.3519   20.5359   37.3604 C   0  0  0  0  0  0  0  0  0  0  0  0
    1.0974   14.4573   41.7085 C   0  0  0  0  0  0  0  0  0  0  0  0
    1.1104   16.7257   40.6700 C   0  0  0  0  0  0  0  0  0  0  0  0
   -0.1629   16.6858   42.7373 C   0  0  0  0  0  0  0  0  0  0  0  0
    3.1031   17.3910   37.4861 C   0  0  0  0  0  0  0  0  0  0  0  0
    3.5013   17.9093   36.3419 C   0  0  0  0  0  0  0  0  0  0  0  0
    1.3058   18.0255   40.7057 C   0  0  0  0  0  0  0  0  0  0  0  0
   -0.5864   18.1328   42.3865 C   0  0  0  0  0  0  0  0  0  0  0  0
    1.0440   19.2724   40.6620 C   0  0  0  0  0  0  0  0  0  0  0  0
    1.8916   13.3804   41.2447 C   0  0  0  0  0  0  0  0  0  0  0  0
    3.5286   18.9686   35.8027 C   0  0  0  0  0  0  0  0  0  0  0  0
    3.3864   15.7072   37.8160 Cl  0  0  0  0  0  0  0  0  0  0  0  0
    2.0413   17.7227   39.3216 H   0  0  0  0  0  0  0  0  0  0  0  0
    1.1251   19.4632   38.1029 H   0  0  0  0  0  0  0  0  0  0  0  0
   -2.5821   21.1688   42.7480 H   0  0  0  0  0  0  0  0  0  0  0  0
   -2.8882   20.1333   41.4495 H   0  0  0  0  0  0  0  0  0  0  0  0
   -0.3877   22.3867   42.3822 H   0  0  0  0  0  0  0  0  0  0  0  0
    2.7252   21.4602   37.8257 H   0  0  0  0  0  0  0  0  0  0  0  0
    1.3638   20.4805   36.8803 H   0  0  0  0  0  0  0  0  0  0  0  0
    1.3423   14.3337   42.7738 H   0  0  0  0  0  0  0  0  0  0  0  0
    0.5302   14.3776   40.7694 H   0  0  0  0  0  0  0  0  0  0  0  0
    1.3417   16.2228   39.7195 H   0  0  0  0  0  0  0  0  0  0  0  0
   -0.4396   16.2865   43.7243 H   0  0  0  0  0  0  0  0  0  0  0  0
    3.9367   17.1334   35.6951 H   0  0  0  0  0  0  0  0  0  0  0  0
    2.2507   12.7935   42.1029 H   0  0  0  0  0  0  0  0  0  0  0  0
    1.2889   12.7370   40.5868 H   0  0  0  0  0  0  0  0  0  0  0  0
    2.7522   13.7743   40.6841 H   0  0  0  0  0  0  0  0  0  0  0  0
    3.8871   18.9263   34.7636 H   0  0  0  0  0  0  0  0  0  0  0  0
  1 11  2  0
  1  9  2  0
  2 14  1  0
  3  8  1  0
  3 21  2  0
  4  2  2  0
  6 17  2  0
  7  5  1  0
  7 12  1  0
  8 13  2  3
  8 10  1  0
 10  1  1  0
 12 22  1  0
 14  7  1  0
 15  6  1  0
 16  6  1  0
 18 25  1  0
 18  5  2  0
 19 18  1  0
 20 16  2  0
 21 17  1  0
 21  1  1  0
 22 20  2  0
 22  3  1  0
 23 15  1  0
 24  2  1  0
 24 19  2  0
  5 26  1  0
  7 27  1  6
 10 28  1  0
 10 29  1  0
 13 30  1  0
 14 31  1  0
 14 32  1  0
 15 33  1  0
 15 34  1  0
 16 35  1  0
 17 36  1  0
 19 37  1  0
 23 38  1  0
 23 39  1  0
 23 40  1  0
 24 41  1  0
M  END
>  <mol_id>  (57) 
2026-08-23-6tgu-s0-n100-prep-0058

>  <rmsd_to_ref>  (57) 


$$$$

     RDKit          3D

 32 34  0  0  0  0  0  0  0  0999 V2000
    1.5865   21.2545   39.6456 C   0  0  0  0  0  0  0  0  0  0  0  0
   -0.0908   20.3262   43.3195 N   0  0  0  0  0  0  0  0  0  0  0  0
    3.5055   18.8868   36.7157 C   0  0  0  0  0  0  0  0  0  0  0  0
   -0.3632   16.6383   43.7072 C   0  0  0  0  0  0  0  0  0  0  0  0
    0.8330   18.2301   41.8658 C   0  0  0  0  0  0  0  0  0  0  0  0
    1.6862   19.8217   40.0364 C   0  0  0  0  0  0  0  0  0  0  0  0
    2.6762   20.8295   37.5520 C   0  0  0  0  0  0  0  0  0  0  0  0
   -1.0765   18.9179   44.8427 O   0  0  0  0  0  0  0  0  0  0  0  0
    3.7154   21.3112   35.3371 O   0  0  0  0  0  0  0  0  0  0  0  0
   -0.4434   19.0829   43.7592 C   0  0  0  0  0  0  0  0  0  0  0  0
    3.3005   20.4568   36.3624 N   0  0  0  0  0  0  0  0  0  0  0  0
    2.9227   19.4012   37.9999 C   0  0  0  0  0  0  0  0  0  0  0  0
    2.3963   18.9593   39.1839 C   0  0  0  0  0  0  0  0  0  0  0  0
    0.0452   17.9532   42.9979 C   0  0  2  0  0  0  0  0  0  0  0  0
    1.0516   19.4751   41.3331 C   0  0  0  0  0  0  0  0  0  0  0  0
    1.3979   17.0393   41.2062 N   0  0  0  0  0  0  0  0  0  0  0  0
    0.5214   20.5563   42.1617 C   0  0  0  0  0  0  0  0  0  0  0  0
    2.0574   21.8003   38.4051 C   0  0  0  0  0  0  0  0  0  0  0  0
    1.1171   21.9460   40.3608 H   0  0  0  0  0  0  0  0  0  0  0  0
    4.5433   18.5247   36.7580 H   0  0  0  0  0  0  0  0  0  0  0  0
    3.1330   18.0346   36.1285 H   0  0  0  0  0  0  0  0  0  0  0  0
   -0.2867   16.7703   44.7965 H   0  0  0  0  0  0  0  0  0  0  0  0
   -1.3997   16.3845   43.4404 H   0  0  0  0  0  0  0  0  0  0  0  0
    0.3068   15.8263   43.3883 H   0  0  0  0  0  0  0  0  0  0  0  0
    4.1362   22.1170   35.7292 H   0  0  0  0  0  0  0  0  0  0  0  0
    2.5321   17.9070   39.4741 H   0  0  0  0  0  0  0  0  0  0  0  0
   -0.8484   17.8865   42.3598 H   0  0  0  0  0  0  0  0  0  0  0  0
    1.7770   16.3994   41.9188 H   0  0  0  0  0  0  0  0  0  0  0  0
    0.6590   16.5596   40.6724 H   0  0  0  0  0  0  0  0  0  0  0  0
    2.1523   17.3265   40.5666 H   0  0  0  0  0  0  0  0  0  0  0  0
    0.6325   21.5947   41.8161 H   0  0  0  0  0  0  0  0  0  0  0  0
    1.9534   22.8615   38.1350 H   0  0  0  0  0  0  0  0  0  0  0  0
  1  6  1  0
  2 10  1  0
  3 12  1  0
  5 14  1  0
  6 15  1  0
  7 12  2  0
  7 18  1  0
  9 11  1  0
 10  8  2  0
 11  3  1  0
 11  7  1  0
 12 13  1  0
 13  6  2  0
 14  4  1  0
 14 10  1  0
 15  5  2  0
 15 17  1  0
 16  5  1  0
 17  2  2  0
 18  1  2  0
  1 19  1  0
  3 20  1  0
  3 21  1  0
  4 22  1  0
  4 23  1  0
  4 24  1  0
  9 25  1  0
 13 26  1  0
 14 27  1  6
 16 28  1  0
 16 29  1  0
 16 30  1  0
 17 31  1  0
 18 32  1  0
M  CHG  1  16   1
M  END
>  <mol_id>  (58) 
2026-08-23-6tgu-s0-n100-prep-0059

>  <rmsd_to_ref>  (58) 


$$$$

     RDKit          3D

 49 51  0  0  0  0  0  0  0  0999 V2000
    2.7961   15.8623   40.7341 N   0  0  0  0  0  0  0  0  0  0  0  0
    3.9432   18.5524   37.4965 C   0  0  0  0  0  0  0  0  0  0  0  0
    3.3748   14.6230   38.8610 O   0  0  0  0  0  0  0  0  0  0  0  0
    2.4212   20.3934   37.8370 C   0  0  0  0  0  0  0  0  0  0  0  0
    1.9346   15.3807   41.6686 C   0  0  0  0  0  0  0  0  0  0  0  0
   -0.6773   12.3888   44.4964 C   0  0  0  0  0  0  0  0  0  0  0  0
    0.1894   15.8820   43.2560 C   0  0  0  0  0  0  0  0  0  0  0  0
    4.4831   19.1224   36.3712 C   0  0  0  0  0  0  0  0  0  0  0  0
    3.9914   20.3502   36.0202 C   0  0  0  0  0  0  0  0  0  0  0  0
    0.2504   14.5078   43.6783 C   0  0  0  0  0  0  0  0  0  0  0  0
    2.9647   19.1494   38.2180 C   0  0  0  0  0  0  0  0  0  0  0  0
    0.5029   11.7286   45.1192 C   0  0  0  0  0  0  0  0  0  0  0  0
   -0.6205   16.7263   43.9578 C   0  0  0  0  0  0  0  0  0  0  0  0
    4.2996   17.1872   37.8928 N   0  0  0  0  0  0  0  0  0  0  0  0
    1.9033   14.0953   42.0157 C   0  0  0  0  0  0  0  0  0  0  0  0
    3.5876   16.8197   38.7172 N   0  0  0  0  0  0  0  0  0  0  0  0
    2.3761   22.0929   36.2280 N   0  0  0  0  0  0  0  0  0  0  0  0
    1.0787   16.3247   42.2754 C   0  0  0  0  0  0  0  0  0  0  0  0
    3.2710   15.7056   39.4556 C   0  0  0  0  0  0  0  0  0  0  0  0
    0.2365   18.5582   42.6311 C   0  0  0  0  0  0  0  0  0  0  0  0
    0.2870   19.9639   42.5215 O   0  0  0  0  0  0  0  0  0  0  0  0
   -0.5927   18.0956   43.6181 C   0  0  0  0  0  0  0  0  0  0  0  0
    1.0412   13.7059   42.9532 N   0  0  0  0  0  0  0  0  0  0  0  0
    1.0828   17.7183   41.9346 C   0  0  0  0  0  0  0  0  0  0  0  0
    2.9173   20.9548   36.6897 C   0  0  0  0  0  0  0  0  0  0  0  0
    1.1617   20.6447   41.5999 C   0  0  0  0  0  0  0  0  0  0  0  0
   -0.5976   13.8700   44.6046 N   0  0  0  0  0  0  0  0  0  0  0  0
    3.2891   16.6645   41.1516 H   0  0  0  0  0  0  0  0  0  0  0  0
    1.6385   20.8882   38.4308 H   0  0  0  0  0  0  0  0  0  0  0  0
   -1.5893   12.0425   45.0045 H   0  0  0  0  0  0  0  0  0  0  0  0
   -0.6965   12.1228   43.4291 H   0  0  0  0  0  0  0  0  0  0  0  0
    5.2667   18.6207   35.7845 H   0  0  0  0  0  0  0  0  0  0  0  0
    4.4573   20.8847   35.1791 H   0  0  0  0  0  0  0  0  0  0  0  0
    2.5850   18.6519   39.1227 H   0  0  0  0  0  0  0  0  0  0  0  0
    0.3779   11.7093   46.2119 H   0  0  0  0  0  0  0  0  0  0  0  0
    0.5887   10.6990   44.7417 H   0  0  0  0  0  0  0  0  0  0  0  0
    1.4139   12.2899   44.8643 H   0  0  0  0  0  0  0  0  0  0  0  0
   -1.2726   16.3525   44.7608 H   0  0  0  0  0  0  0  0  0  0  0  0
    5.0735   16.6383   37.4921 H   0  0  0  0  0  0  0  0  0  0  0  0
    2.5768   13.3691   41.5373 H   0  0  0  0  0  0  0  0  0  0  0  0
    2.9731   17.5961   39.0007 H   0  0  0  0  0  0  0  0  0  0  0  0
    1.5876   22.5279   36.7279 H   0  0  0  0  0  0  0  0  0  0  0  0
    2.7492   22.5312   35.3739 H   0  0  0  0  0  0  0  0  0  0  0  0
   -1.2457   18.8008   44.1532 H   0  0  0  0  0  0  0  0  0  0  0  0
    1.7401   18.1060   41.1423 H   0  0  0  0  0  0  0  0  0  0  0  0
    1.8843   21.2541   42.1623 H   0  0  0  0  0  0  0  0  0  0  0  0
    1.7017   19.9040   40.9917 H   0  0  0  0  0  0  0  0  0  0  0  0
    0.5667   21.2954   40.9422 H   0  0  0  0  0  0  0  0  0  0  0  0
   -1.1292   14.3964   45.3127 H   0  0  0  0  0  0  0  0  0  0  0  0
  1  5  1  0
  2 14  1  0
  2 11  1  0
  3 19  2  0
  4 11  2  0
  5 15  1  0
  5 18  2  0
  6 27  1  0
  6 12  1  0
  7 10  2  0
  7 13  1  0
  8  2  2  0
  9  8  1  0
  9 25  2  0
 10 27  1  0
 14 16  1  0
 15 23  2  0
 16 19  1  0
 17 25  1  0
 18  7  1  0
 19  1  1  0
 20 22  1  0
 21 20  1  0
 22 13  2  0
 23 10  1  0
 24 18  1  0
 24 20  2  0
 25  4  1  0
 26 21  1  0
  1 28  1  0
  4 29  1  0
  6 30  1  0
  6 31  1  0
  8 32  1  0
  9 33  1  0
 11 34  1  0
 12 35  1  0
 12 36  1  0
 12 37  1  0
 13 38  1  0
 14 39  1  0
 15 40  1  0
 16 41  1  0
 17 42  1  0
 17 43  1  0
 22 44  1  0
 24 45  1  0
 26 46  1  0
 26 47  1  0
 26 48  1  0
 27 49  1  0
M  END
>  <mol_id>  (59) 
2026-08-23-6tgu-s0-n100-prep-0060

>  <rmsd_to_ref>  (59) 


$$$$

     RDKit          3D

 24 25  0  0  0  0  0  0  0  0999 V2000
    3.2121   22.1599   36.5988 O   0  0  0  0  0  0  0  0  0  0  0  0
    2.9978   19.1442   38.2552 N   0  0  0  0  0  0  0  0  0  0  0  0
    1.0691   18.8552   41.3024 C   0  0  0  0  0  0  0  0  0  0  0  0
    3.8835   20.1553   35.9810 O   0  0  0  0  0  0  0  0  0  0  0  0
   -0.4542   16.0152   42.9271 C   0  0  0  0  0  0  0  0  0  0  0  0
    2.9337   20.4863   38.1144 C   0  0  0  0  0  0  0  0  0  0  0  0
    1.2346   16.6637   40.3823 C   0  0  0  0  0  0  0  0  0  0  0  0
   -0.3411   18.4746   43.1475 N   0  0  0  0  0  0  0  0  0  0  0  0
    0.8091   17.5359   41.3170 C   0  0  0  0  0  0  0  0  0  0  0  0
    2.3788   21.3008   38.9295 O   0  0  0  0  0  0  0  0  0  0  0  0
    2.0270   17.1146   39.2422 C   0  0  0  0  0  0  0  0  0  0  0  0
    0.4398   19.4664   42.4882 C   0  0  0  0  0  0  0  0  0  0  0  0
    3.4007   20.9778   36.7894 C   0  0  0  0  0  0  0  0  0  0  0  0
    1.8864   19.3716   40.2063 C   0  0  0  0  0  0  0  0  0  0  0  0
    0.0850   17.2918   42.4048 N   0  0  0  0  0  0  0  0  0  0  0  0
    2.2973   18.4948   39.2462 C   0  0  0  0  0  0  0  0  0  0  0  0
    3.5824   18.5961   37.6082 H   0  0  0  0  0  0  0  0  0  0  0  0
   -0.2258   15.9323   44.0000 H   0  0  0  0  0  0  0  0  0  0  0  0
   -1.5442   15.9906   42.7813 H   0  0  0  0  0  0  0  0  0  0  0  0
    0.0070   15.1746   42.3881 H   0  0  0  0  0  0  0  0  0  0  0  0
    0.9814   15.5976   40.4796 H   0  0  0  0  0  0  0  0  0  0  0  0
    2.3806   16.4364   38.4517 H   0  0  0  0  0  0  0  0  0  0  0  0
    0.5544   20.5123   42.8092 H   0  0  0  0  0  0  0  0  0  0  0  0
    2.1616   20.4355   40.1572 H   0  0  0  0  0  0  0  0  0  0  0  0
  1 13  2  0
  2 16  1  0
  3  9  1  0
  3 12  1  0
  4 13  1  0
  6 10  2  0
  6  2  1  0
  7  9  2  0
  9 15  1  0
 11  7  1  0
 12  8  2  0
 13  6  1  0
 14  3  2  0
 15  8  1  0
 15  5  1  0
 16 11  2  0
 16 14  1  0
  2 17  1  0
  5 18  1  0
  5 19  1  0
  5 20  1  0
  7 21  1  0
 11 22  1  0
 12 23  1  0
 14 24  1  0
M  CHG  1   4  -1
M  END
>  <mol_id>  (60) 
2026-08-23-6tgu-s0-n100-prep-0061

>  <rmsd_to_ref>  (60) 


$$$$

     RDKit          3D

 47 50  0  0  0  0  0  0  0  0999 V2000
    4.0330   14.5310   37.2720 C   0  0  0  0  0  0  0  0  0  0  0  0
    3.2220   14.4470   38.3540 C   0  0  0  0  0  0  0  0  0  0  0  0
    2.8470   15.6860   39.0180 C   0  0  0  0  0  0  0  0  0  0  0  0
    3.6460   20.6090   36.4770 O   0  0  0  0  0  0  0  0  0  0  0  0
   -0.4770   18.0130   44.3620 C   0  0  0  0  0  0  0  0  0  0  0  0
   -1.3350   19.7660   44.9000 N   0  0  0  0  0  0  0  0  0  0  0  0
    2.3590   20.4140   38.4870 C   0  0  1  0  0  0  0  0  0  0  0  0
    2.5560   18.0410   39.3400 C   0  0  0  0  0  0  0  0  0  0  0  0
    3.0970   16.9570   38.6010 C   0  0  0  0  0  0  0  0  0  0  0  0
   -1.7550   18.9200   46.0940 C   0  0  0  0  0  0  0  0  0  0  0  0
    0.6300   19.2230   42.0020 C   0  0  0  0  0  0  0  0  0  0  0  0
    2.0850   18.5910   40.2670 N   0  0  0  0  0  0  0  0  0  0  0  0
   -1.6760   16.9130   47.0630 C   0  0  0  0  0  0  0  0  0  0  0  0
   -0.0200   17.3080   43.3920 C   0  0  0  0  0  0  0  0  0  0  0  0
    2.8230   19.2020   38.5780 N   0  0  0  0  0  0  0  0  0  0  0  0
   -0.0270   19.9460   42.9510 C   0  0  0  0  0  0  0  0  0  0  0  0
    1.5570   20.7040   39.5720 C   0  0  0  0  0  0  0  0  0  0  0  0
    1.4800   19.6830   40.5400 C   0  0  1  0  0  0  0  0  0  0  0  0
    4.5050   15.7770   36.8080 C   0  0  0  0  0  0  0  0  0  0  0  0
    3.9570   16.9370   37.3640 C   0  0  0  0  0  0  0  0  0  0  0  0
    0.7350   17.8480   42.2150 C   0  0  0  0  0  0  0  0  0  0  0  0
    2.6740   21.0840   37.2370 C   0  0  0  0  0  0  0  0  0  0  0  0
   -1.2170   17.5860   45.7060 C   0  0  2  0  0  0  0  0  0  0  0  0
    4.3000   13.4750   36.5780 O   0  0  0  0  0  0  0  0  0  0  0  0
   -0.4270   19.2830   43.9820 C   0  0  0  0  0  0  0  0  0  0  0  0
    3.9650   18.0590   36.6650 O   0  0  0  0  0  0  0  0  0  0  0  0
    2.0850   22.0190   36.7510 O   0  0  0  0  0  0  0  0  0  0  0  0
    2.8592   13.4745   38.7183 H   0  0  0  0  0  0  0  0  0  0  0  0
    2.2984   15.5836   39.9659 H   0  0  0  0  0  0  0  0  0  0  0  0
   -1.7330   20.7080   44.7769 H   0  0  0  0  0  0  0  0  0  0  0  0
    1.4300   20.0251   38.0445 H   0  0  0  0  0  0  0  0  0  0  0  0
   -1.2982   19.2834   47.0263 H   0  0  0  0  0  0  0  0  0  0  0  0
   -2.8361   18.9296   46.2965 H   0  0  0  0  0  0  0  0  0  0  0  0
   -1.2813   17.4917   47.9112 H   0  0  0  0  0  0  0  0  0  0  0  0
   -2.7748   16.8959   47.1105 H   0  0  0  0  0  0  0  0  0  0  0  0
   -1.2908   15.8837   47.1105 H   0  0  0  0  0  0  0  0  0  0  0  0
   -0.1960   16.2227   43.4270 H   0  0  0  0  0  0  0  0  0  0  0  0
    3.5950   19.0454   37.9144 H   0  0  0  0  0  0  0  0  0  0  0  0
   -0.2050   21.0263   42.8447 H   0  0  0  0  0  0  0  0  0  0  0  0
    1.9532   21.6075   40.0585 H   0  0  0  0  0  0  0  0  0  0  0  0
    0.5383   20.8342   39.1779 H   0  0  0  0  0  0  0  0  0  0  0  0
    1.3616   20.7613   40.7225 H   0  0  0  0  0  0  0  0  0  0  0  0
    5.2817   15.8342   36.0312 H   0  0  0  0  0  0  0  0  0  0  0  0
    1.3351   17.2000   41.5593 H   0  0  0  0  0  0  0  0  0  0  0  0
   -0.9635   16.5824   45.3337 H   0  0  0  0  0  0  0  0  0  0  0  0
    4.8929   13.5389   35.7877 H   0  0  0  0  0  0  0  0  0  0  0  0
    3.5792   18.8852   37.0506 H   0  0  0  0  0  0  0  0  0  0  0  0
  1  2  1  0
  2  3  2  0
  4 22  2  0
  5 23  1  0
  6 10  1  0
  7 22  1  0
  7 15  1  0
  7 17  1  0
  8 12  2  0
  9  3  1  0
  9  8  1  0
 11 21  1  0
 11 16  2  0
 12 18  1  0
 14  5  1  0
 15  8  1  0
 16 25  1  0
 17 18  1  0
 18 11  1  0
 19  1  2  0
 19 20  1  0
 20  9  2  0
 21 14  2  0
 23 10  1  0
 23 13  1  0
 24  1  1  0
 25  5  2  0
 25  6  1  0
 26 20  1  0
 27 22  1  0
  2 28  1  0
  3 29  1  0
  6 30  1  0
  7 31  1  1
 10 32  1  0
 10 33  1  0
 13 34  1  0
 13 35  1  0
 13 36  1  0
 14 37  1  0
 15 38  1  0
 16 39  1  0
 17 40  1  0
 17 41  1  0
 18 42  1  1
 19 43  1  0
 21 44  1  0
 23 45  1  6
 24 46  1  0
 26 47  1  0
M  CHG  1  27  -1
M  END
>  <mol_id>  (61) 
2026-08-23-6tgu-s0-n100-prep-0062

>  <rmsd_to_ref>  (61) 


$$$$

     RDKit          3D

 46 49  0  0  0  0  0  0  0  0999 V2000
    3.0952   20.2169   35.5965 O   0  0  0  0  0  0  0  0  0  0  0  0
    1.6748   17.2290   40.5596 C   0  0  0  0  0  0  0  0  0  0  0  0
    2.5713   20.0512   36.7688 C   0  0  0  0  0  0  0  0  0  0  0  0
    3.0047   16.8234   38.3010 C   0  0  0  0  0  0  0  0  0  0  0  0
    1.4329   19.9489   39.2280 N   0  0  0  0  0  0  0  0  0  0  0  0
    0.9396   18.1211   41.1330 N   0  0  0  0  0  0  0  0  0  0  0  0
    3.5874   14.8455   36.8944 C   0  0  0  0  0  0  0  0  0  0  0  0
   -0.3372   19.1363   42.7369 C   0  0  0  0  0  0  0  0  0  0  0  0
    2.2937   17.5695   39.2668 C   0  0  2  0  0  0  0  0  0  0  0  0
    3.6254   15.3822   38.1749 C   0  0  0  0  0  0  0  0  0  0  0  0
    0.6107   14.2862   44.2771 C   0  0  0  0  0  0  0  0  0  0  0  0
    1.8995   21.1629   37.2593 C   0  0  0  0  0  0  0  0  0  0  0  0
    0.4362   16.7389   42.9930 C   0  0  1  0  0  0  0  0  0  0  0  0
    2.6029   15.0551   40.6845 O   0  0  0  0  0  0  0  0  0  0  0  0
    0.4048   17.9617   42.2533 N   0  0  0  0  0  0  0  0  0  0  0  0
    1.1598   14.4667   43.0224 C   0  0  0  0  0  0  0  0  0  0  0  0
    1.1317   15.6857   42.4297 C   0  0  0  0  0  0  0  0  0  0  0  0
   -0.0822   15.4131   44.8544 C   0  0  0  0  0  0  0  0  0  0  0  0
    2.1013   18.8294   38.8015 C   0  0  0  0  0  0  0  0  0  0  0  0
   -0.1148   16.6187   44.2119 C   0  0  0  0  0  0  0  0  0  0  0  0
    2.6066   18.8808   37.5511 C   0  0  0  0  0  0  0  0  0  0  0  0
    3.0098   17.6699   37.2976 C   0  0  0  0  0  0  0  0  0  0  0  0
    1.3284   21.1068   38.5062 C   0  0  0  0  0  0  0  0  0  0  0  0
    1.8574   15.9694   41.1887 C   0  0  0  0  0  0  0  0  0  0  0  0
    0.2975   20.3313   42.0638 C   0  0  0  0  0  0  0  0  0  0  0  0
    3.5935   19.4765   35.1681 H   0  0  0  0  0  0  0  0  0  0  0  0
    3.7174   13.7545   36.9501 H   0  0  0  0  0  0  0  0  0  0  0  0
    2.6177   15.0759   36.4289 H   0  0  0  0  0  0  0  0  0  0  0  0
    4.3969   15.2808   36.2901 H   0  0  0  0  0  0  0  0  0  0  0  0
   -1.3989   19.0596   42.4591 H   0  0  0  0  0  0  0  0  0  0  0  0
   -0.2939   19.2191   43.8329 H   0  0  0  0  0  0  0  0  0  0  0  0
    1.3498   17.3350   38.7530 H   0  0  0  0  0  0  0  0  0  0  0  0
    4.6767   15.4323   38.4947 H   0  0  0  0  0  0  0  0  0  0  0  0
    3.0127   14.7228   38.8073 H   0  0  0  0  0  0  0  0  0  0  0  0
    0.6974   13.3284   44.8112 H   0  0  0  0  0  0  0  0  0  0  0  0
    1.8257   22.0791   36.6550 H   0  0  0  0  0  0  0  0  0  0  0  0
   -0.5158   16.4360   42.5327 H   0  0  0  0  0  0  0  0  0  0  0  0
    2.7072   14.1882   41.1512 H   0  0  0  0  0  0  0  0  0  0  0  0
    1.6228   13.6160   42.5009 H   0  0  0  0  0  0  0  0  0  0  0  0
   -0.5902   15.3001   45.8235 H   0  0  0  0  0  0  0  0  0  0  0  0
   -0.5904   17.4872   44.6910 H   0  0  0  0  0  0  0  0  0  0  0  0
    3.3389   17.3702   36.2917 H   0  0  0  0  0  0  0  0  0  0  0  0
    0.7962   21.9771   38.9179 H   0  0  0  0  0  0  0  0  0  0  0  0
    0.8114   20.9463   42.8172 H   0  0  0  0  0  0  0  0  0  0  0  0
    1.0246   19.9864   41.3140 H   0  0  0  0  0  0  0  0  0  0  0  0
   -0.4816   20.9309   41.5704 H   0  0  0  0  0  0  0  0  0  0  0  0
  1  3  1  0
  2  6  2  0
  2 24  1  0
  3 12  2  0
  3 21  1  0
  4 10  1  0
  4  9  1  0
  6 15  1  0
  7 10  1  0
  9  2  1  0
 11 18  1  0
 12 23  1  0
 13 20  1  0
 14 24  1  0
 15  8  1  0
 15 13  1  0
 16 11  2  0
 17 13  1  0
 17 16  1  0
 19  5  1  0
 19  9  1  0
 20 18  2  0
 21 19  2  0
 22 21  1  0
 22  4  2  0
 23  5  2  0
 24 17  2  0
 25  8  1  0
  1 26  1  0
  7 27  1  0
  7 28  1  0
  7 29  1  0
  8 30  1  0
  8 31  1  0
  9 32  1  1
 10 33  1  0
 10 34  1  0
 11 35  1  0
 12 36  1  0
 13 37  1  6
 14 38  1  0
 16 39  1  0
 18 40  1  0
 20 41  1  0
 22 42  1  0
 23 43  1  0
 25 44  1  0
 25 45  1  0
 25 46  1  0
M  END
>  <mol_id>  (62) 
2026-08-23-6tgu-s0-n100-prep-0063

>  <rmsd_to_ref>  (62) 


$$$$

     RDKit          3D

 62 67  0  0  0  0  0  0  0  0999 V2000
    2.1700   20.2300   39.5800 C   0  0  0  0  0  0  0  0  0  0  0  0
    2.3940   14.3410   41.4900 C   0  0  0  0  0  0  0  0  0  0  0  0
    0.4960   21.1660   41.2540 C   0  0  0  0  0  0  0  0  0  0  0  0
   -0.3640   14.4120   44.9500 O   0  0  0  0  0  0  0  0  0  0  0  0
    0.0320   18.4030   43.7670 C   0  0  1  0  0  0  0  0  0  0  0  0
    3.6830   20.6820   35.6640 C   0  0  0  0  0  0  0  0  0  0  0  0
   -1.8100   17.7010   47.0460 C   0  0  0  0  0  0  0  0  0  0  0  0
   -0.7780   12.9560   44.9110 C   0  0  0  0  0  0  0  0  0  0  0  0
    1.2500   18.7750   41.3500 C   0  0  0  0  0  0  0  0  0  0  0  0
   -1.1120   17.3350   45.9430 C   0  0  1  0  0  0  0  0  0  0  0  0
    2.7290   20.3820   38.2760 N   0  0  0  0  0  0  0  0  0  0  0  0
    0.7130   15.8970   43.3880 C   0  0  1  0  0  0  0  0  0  0  0  0
    3.5690   18.7130   36.9130 C   0  0  0  0  0  0  0  0  0  0  0  0
    3.9980   19.3480   35.8840 C   0  0  0  0  0  0  0  0  0  0  0  0
   -0.6730   17.4480   44.7550 C   0  0  2  0  0  0  0  0  0  0  0  0
    1.3180   15.1390   41.0720 O   0  0  0  0  0  0  0  0  0  0  0  0
    2.3450   21.5360   36.4660 C   0  0  0  0  0  0  0  0  0  0  0  0
   -2.2020   18.9260   45.7730 O   0  0  0  0  0  0  0  0  0  0  0  0
   -0.8360   20.4800   43.8160 O   0  0  0  0  0  0  0  0  0  0  0  0
    1.0580   16.2080   41.8850 C   0  0  0  0  0  0  0  0  0  0  0  0
    1.0480   17.6040   41.5720 N   0  0  0  0  0  0  0  0  0  0  0  0
    0.0180   17.1830   43.8060 N   0  0  0  0  0  0  0  0  0  0  0  0
   -2.1130   12.9940   44.2890 O   0  0  0  0  0  0  0  0  0  0  0  0
    3.9400   17.5240   37.2870 N   0  0  0  0  0  0  0  0  0  0  0  0
    2.5600   20.8250   37.4370 C   0  0  0  0  0  0  0  0  0  0  0  0
    2.1800   18.9710   40.2680 C   0  0  0  0  0  0  0  0  0  0  0  0
    1.4210   21.2910   40.1570 C   0  0  0  0  0  0  0  0  0  0  0  0
   -0.0650   19.6300   43.1280 C   0  0  1  0  0  0  0  0  0  0  0  0
    3.0350   19.4110   37.7970 C   0  0  0  0  0  0  0  0  0  0  0  0
   -1.2430   18.5960   45.7460 C   0  0  2  0  0  0  0  0  0  0  0  0
    0.5760   19.9060   41.8330 C   0  0  0  0  0  0  0  0  0  0  0  0
   -0.4000   14.8590   43.6470 C   0  0  0  0  0  0  0  0  0  0  0  0
    4.1510   21.3240   34.7620 O   0  0  0  0  0  0  0  0  0  0  0  0
    2.4270   14.3165   42.5892 H   0  0  0  0  0  0  0  0  0  0  0  0
    2.2642   13.3191   41.1042 H   0  0  0  0  0  0  0  0  0  0  0  0
    3.3342   14.7619   41.1042 H   0  0  0  0  0  0  0  0  0  0  0  0
   -0.1840   21.9631   41.5890 H   0  0  0  0  0  0  0  0  0  0  0  0
    0.6659   19.2669   43.5184 H   0  0  0  0  0  0  0  0  0  0  0  0
   -2.8772   17.4607   47.1617 H   0  0  0  0  0  0  0  0  0  0  0  0
   -1.7234   17.6676   48.1421 H   0  0  0  0  0  0  0  0  0  0  0  0
   -0.0778   12.3644   44.3030 H   0  0  0  0  0  0  0  0  0  0  0  0
   -0.7820   12.4852   45.9051 H   0  0  0  0  0  0  0  0  0  0  0  0
   -0.8979   16.2779   46.1590 H   0  0  0  0  0  0  0  0  0  0  0  0
    1.6310   15.5416   43.8789 H   0  0  0  0  0  0  0  0  0  0  0  0
    4.6327   18.8211   35.1563 H   0  0  0  0  0  0  0  0  0  0  0  0
    2.5178   22.6094   36.6334 H   0  0  0  0  0  0  0  0  0  0  0  0
    1.3469   21.6151   36.0104 H   0  0  0  0  0  0  0  0  0  0  0  0
   -2.4904   19.0253   46.7148 H   0  0  0  0  0  0  0  0  0  0  0  0
   -0.7037   20.3342   44.7862 H   0  0  0  0  0  0  0  0  0  0  0  0
   -2.8059   13.0137   44.9958 H   0  0  0  0  0  0  0  0  0  0  0  0
    3.9548   17.4767   38.3158 H   0  0  0  0  0  0  0  0  0  0  0  0
    3.2767   16.8263   36.9207 H   0  0  0  0  0  0  0  0  0  0  0  0
    4.8824   17.3273   36.9207 H   0  0  0  0  0  0  0  0  0  0  0  0
    1.6781   20.2002   37.2323 H   0  0  0  0  0  0  0  0  0  0  0  0
    3.5146   21.3558   37.5676 H   0  0  0  0  0  0  0  0  0  0  0  0
    2.8808   18.1750   39.9762 H   0  0  0  0  0  0  0  0  0  0  0  0
    1.5597   22.2947   39.7287 H   0  0  0  0  0  0  0  0  0  0  0  0
   -0.9485   19.2737   42.5780 H   0  0  0  0  0  0  0  0  0  0  0  0
    2.0349   18.9552   37.7513 H   0  0  0  0  0  0  0  0  0  0  0  0
    4.0357   19.5590   38.2290 H   0  0  0  0  0  0  0  0  0  0  0  0
   -1.3779   15.3239   43.4529 H   0  0  0  0  0  0  0  0  0  0  0  0
   -0.2420   14.0008   42.9773 H   0  0  0  0  0  0  0  0  0  0  0  0
  1 27  1  0
  1 26  2  0
  3 31  1  0
  5 22  1  0
  5 15  1  0
  6 14  1  0
  6 17  1  0
  8  4  1  0
  9 21  1  0
  9 31  2  0
 10  7  1  0
 11  1  1  0
 12 32  1  0
 12 22  1  0
 13 24  1  0
 13 29  1  0
 14 13  2  0
 15 30  1  0
 15 10  1  0
 16  2  1  0
 16 20  1  0
 17 25  1  0
 20 12  1  0
 21 20  2  0
 15 22  1  6
 23  8  1  0
 25 11  1  0
 26  9  1  0
 27  3  2  0
 28  5  1  0
 28 19  1  0
 29 11  1  0
 30 18  1  6
 30 10  1  0
 30  7  1  0
 31 28  1  0
 32  4  1  0
 33  6  2  0
  2 34  1  0
  2 35  1  0
  2 36  1  0
  3 37  1  0
  5 38  1  1
  7 39  1  0
  7 40  1  0
  8 41  1  0
  8 42  1  0
 10 43  1  1
 12 44  1  1
 14 45  1  0
 17 46  1  0
 17 47  1  0
 18 48  1  0
 19 49  1  0
 23 50  1  0
 24 51  1  0
 24 52  1  0
 24 53  1  0
 25 54  1  0
 25 55  1  0
 26 56  1  0
 27 57  1  0
 28 58  1  6
 29 59  1  0
 29 60  1  0
 32 61  1  0
 32 62  1  0
M  CHG  1  24   1
M  END
>  <mol_id>  (63) 
2026-08-23-6tgu-s0-n100-prep-0064

>  <rmsd_to_ref>  (63) 


$$$$

     RDKit          3D

 39 40  0  0  0  0  0  0  0  0999 V2000
   -0.7159   17.7754   43.4052 C   0  0  0  0  0  0  0  0  0  0  0  0
    0.1922   17.4708   42.4136 C   0  0  0  0  0  0  0  0  0  0  0  0
    3.1414   17.2963   38.6258 C   0  0  0  0  0  0  0  0  0  0  0  0
    2.8193   19.1104   40.0630 C   0  0  1  0  0  0  0  0  0  0  0  0
    2.7039   19.7934   39.0744 O   0  0  0  0  0  0  0  0  0  0  0  0
   -1.1516   19.0931   43.4731 C   0  0  0  0  0  0  0  0  0  0  0  0
    0.7760   18.4891   41.5001 C   0  0  2  0  0  0  0  0  0  0  0  0
    0.1694   19.7754   41.6338 C   0  0  0  0  0  0  0  0  0  0  0  0
    0.5190   16.2590   42.3726 O   0  0  0  0  0  0  0  0  0  0  0  0
    2.9182   20.3147   40.4553 O   0  0  0  0  0  0  0  0  0  0  0  0
    1.8833   18.0710   40.7087 C   0  0  1  0  0  0  0  0  0  0  0  0
    2.4277   16.7204   39.8993 C   0  0  0  0  0  0  0  0  0  0  0  0
    3.6823   19.9458   37.3943 C   0  0  1  0  0  0  0  0  0  0  0  0
    3.0763   20.9642   38.3237 C   0  0  0  0  0  0  0  0  0  0  0  0
   -0.7579   20.1049   42.5422 C   0  0  0  0  0  0  0  0  0  0  0  0
    4.4824   17.6533   36.6878 O   0  0  0  0  0  0  0  0  0  0  0  0
    3.9696   20.4784   36.1602 O   0  0  0  0  0  0  0  0  0  0  0  0
    3.8645   18.4109   37.6164 C   0  0  0  0  0  0  0  0  0  0  0  0
   -1.7933   19.2595   44.4880 O   0  0  0  0  0  0  0  0  0  0  0  0
    4.7111   16.3877   36.9274 C   0  0  0  0  0  0  0  0  0  0  0  0
    2.0519   15.3299   39.9530 C   0  0  0  0  0  0  0  0  0  0  0  0
   -1.6007   17.1399   43.2527 H   0  0  0  0  0  0  0  0  0  0  0  0
   -0.1798   17.6006   44.3497 H   0  0  0  0  0  0  0  0  0  0  0  0
    3.4742   18.2318   40.1584 H   0  0  0  0  0  0  0  0  0  0  0  0
    1.5140   18.7571   42.2705 H   0  0  0  0  0  0  0  0  0  0  0  0
    0.4904   20.5599   40.9328 H   0  0  0  0  0  0  0  0  0  0  0  0
    2.8682   20.3451   41.4435 H   0  0  0  0  0  0  0  0  0  0  0  0
    1.4670   17.6521   41.6367 H   0  0  0  0  0  0  0  0  0  0  0  0
    2.6421   19.7767   37.0791 H   0  0  0  0  0  0  0  0  0  0  0  0
    3.7887   21.6405   38.8187 H   0  0  0  0  0  0  0  0  0  0  0  0
    2.3694   21.7453   38.0073 H   0  0  0  0  0  0  0  0  0  0  0  0
   -1.1985   21.1124   42.5711 H   0  0  0  0  0  0  0  0  0  0  0  0
    4.5378   21.2814   36.2715 H   0  0  0  0  0  0  0  0  0  0  0  0
    4.6251   16.1976   38.0075 H   0  0  0  0  0  0  0  0  0  0  0  0
    3.9756   15.7735   36.3872 H   0  0  0  0  0  0  0  0  0  0  0  0
    5.7251   16.1279   36.5890 H   0  0  0  0  0  0  0  0  0  0  0  0
    1.9480   15.0184   41.0029 H   0  0  0  0  0  0  0  0  0  0  0  0
    1.0934   15.1888   39.4321 H   0  0  0  0  0  0  0  0  0  0  0  0
    2.8275   14.7213   39.4650 H   0  0  0  0  0  0  0  0  0  0  0  0
  2  9  2  0
  2  1  1  0
  3 12  2  0
  4 10  1  0
  4 11  1  0
  5  4  1  0
  6  1  1  0
  6 19  2  0
  7  8  1  0
  7  2  1  0
  8 15  2  0
 11 12  1  0
 11  7  1  0
 12 21  1  0
 13 17  1  0
 13 18  1  0
 13 14  1  0
 14  5  1  0
 15  6  1  0
 16 20  1  0
 16 18  1  0
 18  3  2  0
  1 22  1  0
  1 23  1  0
  4 24  1  6
  7 25  1  6
  8 26  1  0
 10 27  1  0
 11 28  1  1
 13 29  1  1
 14 30  1  0
 14 31  1  0
 15 32  1  0
 17 33  1  0
 20 34  1  0
 20 35  1  0
 20 36  1  0
 21 37  1  0
 21 38  1  0
 21 39  1  0
M  END
>  <mol_id>  (64) 
2026-08-23-6tgu-s0-n100-prep-0065

>  <rmsd_to_ref>  (64) 


$$$$

     RDKit          3D

 22 23  0  0  0  0  0  0  0  0999 V2000
    1.3990   16.9124   41.8070 N   0  0  0  0  0  0  0  0  0  0  0  0
    2.0759   20.3838   38.2871 C   0  0  0  0  0  0  0  0  0  0  0  0
   -0.4657   17.5277   43.0162 C   0  0  0  0  0  0  0  0  0  0  0  0
    1.0805   18.1373   41.2302 C   0  0  0  0  0  0  0  0  0  0  0  0
    0.6049   15.3524   43.4645 N   0  0  0  0  0  0  0  0  0  0  0  0
    3.2860   18.3193   38.1610 C   0  0  0  0  0  0  0  0  0  0  0  0
    0.4551   16.6134   42.7701 N   0  0  0  0  0  0  0  0  0  0  0  0
    2.7504   17.8988   39.3747 C   0  0  0  0  0  0  0  0  0  0  0  0
    2.9671   19.4994   37.5912 C   0  0  0  0  0  0  0  0  0  0  0  0
    1.7756   18.6492   40.0413 C   0  0  0  0  0  0  0  0  0  0  0  0
    3.3647   19.9088   36.3496 O   0  0  0  0  0  0  0  0  0  0  0  0
   -0.3291   18.8435   41.9372 S   0  0  0  0  0  0  0  0  0  0  0  0
    1.4929   19.8688   39.4870 C   0  0  0  0  0  0  0  0  0  0  0  0
    1.8549   21.3967   37.9195 H   0  0  0  0  0  0  0  0  0  0  0  0
   -1.4615   17.0737   42.9049 H   0  0  0  0  0  0  0  0  0  0  0  0
   -0.3230   17.9002   44.0413 H   0  0  0  0  0  0  0  0  0  0  0  0
    0.4189   15.4889   44.4683 H   0  0  0  0  0  0  0  0  0  0  0  0
   -0.0630   14.6682   43.0815 H   0  0  0  0  0  0  0  0  0  0  0  0
    3.9999   17.6610   37.6443 H   0  0  0  0  0  0  0  0  0  0  0  0
    3.1011   16.9559   39.8196 H   0  0  0  0  0  0  0  0  0  0  0  0
    3.0842   20.7942   36.0069 H   0  0  0  0  0  0  0  0  0  0  0  0
    0.7588   20.5029   40.0058 H   0  0  0  0  0  0  0  0  0  0  0  0
  1  7  1  0
  2 13  2  0
  4  1  2  0
  4 12  1  0
  6  8  1  0
  7  5  1  0
  7  3  1  0
  8 10  2  0
  9  6  2  0
  9  2  1  0
 10  4  1  0
 11  9  1  0
 12  3  1  0
 13 10  1  0
  2 14  1  0
  3 15  1  0
  3 16  1  0
  5 17  1  0
  5 18  1  0
  6 19  1  0
  8 20  1  0
 11 21  1  0
 13 22  1  0
M  END
>  <mol_id>  (65) 
2026-08-23-6tgu-s0-n100-prep-0066

>  <rmsd_to_ref>  (65) 


$$$$

     RDKit          3D

 41 45  0  0  0  0  0  0  0  0999 V2000
    0.8197   15.5691   42.6794 C   0  0  0  0  0  0  0  0  0  0  0  0
   -0.4988   14.6012   44.6303 N   0  0  0  0  0  0  0  0  0  0  0  0
    0.3079   13.5494   44.2464 C   0  0  0  0  0  0  0  0  0  0  0  0
    2.8887   18.9110   37.9744 C   0  0  0  0  0  0  0  0  0  0  0  0
    1.3301   18.7835   40.1738 C   0  0  0  0  0  0  0  0  0  0  0  0
    2.1816   16.0108   40.5468 C   0  0  0  0  0  0  0  0  0  0  0  0
    1.9594   13.6119   41.7088 C   0  0  0  0  0  0  0  0  0  0  0  0
    2.6060   20.3528   37.7627 C   0  0  0  0  0  0  0  0  0  0  0  0
   -0.9875   17.1918   43.6516 C   0  0  0  0  0  0  0  0  0  0  0  0
    1.2219   16.4088   41.6134 C   0  0  0  0  0  0  0  0  0  0  0  0
    3.9589   16.6684   37.3004 C   0  0  0  0  0  0  0  0  0  0  0  0
    3.4463   16.0541   38.4543 C   0  0  0  0  0  0  0  0  0  0  0  0
   -0.2030   15.8114   43.7586 C   0  0  0  0  0  0  0  0  0  0  0  0
    3.0430   21.0148   36.7319 O   0  0  0  0  0  0  0  0  0  0  0  0
    1.6631   21.0349   38.7780 C   0  0  0  0  0  0  0  0  0  0  0  0
    1.0492   14.0341   42.9172 C   0  0  2  0  0  0  0  0  0  0  0  0
    0.6501   20.7899   40.9220 O   0  0  0  0  0  0  0  0  0  0  0  0
    1.1796   20.2797   39.9281 C   0  0  0  0  0  0  0  0  0  0  0  0
   -0.1695   18.2711   42.7082 C   0  0  0  0  0  0  0  0  0  0  0  0
    4.0350   18.6444   35.7898 O   0  0  0  0  0  0  0  0  0  0  0  0
    3.6836   18.0518   37.0366 C   0  0  0  0  0  0  0  0  0  0  0  0
    0.2731   12.5049   44.7059 O   0  0  0  0  0  0  0  0  0  0  0  0
    0.7453   17.9878   41.4755 C   0  0  0  0  0  0  0  0  0  0  0  0
    2.6794   16.7782   39.3546 C   0  0  0  0  0  0  0  0  0  0  0  0
    2.3142   18.2172   39.1593 C   0  0  0  0  0  0  0  0  0  0  0  0
    3.7688   14.7377   38.7541 O   0  0  0  0  0  0  0  0  0  0  0  0
   -1.1937   14.5711   45.3900 H   0  0  0  0  0  0  0  0  0  0  0  0
    2.5907   14.9946   40.6474 H   0  0  0  0  0  0  0  0  0  0  0  0
    2.8392   13.0689   42.0846 H   0  0  0  0  0  0  0  0  0  0  0  0
    1.3890   12.9608   41.0300 H   0  0  0  0  0  0  0  0  0  0  0  0
    2.2876   14.5103   41.1655 H   0  0  0  0  0  0  0  0  0  0  0  0
   -1.9783   17.0082   43.2104 H   0  0  0  0  0  0  0  0  0  0  0  0
   -1.0857   17.6161   44.6618 H   0  0  0  0  0  0  0  0  0  0  0  0
    4.5733   16.0877   36.5968 H   0  0  0  0  0  0  0  0  0  0  0  0
    2.8284   21.9762   36.6338 H   0  0  0  0  0  0  0  0  0  0  0  0
    1.3585   22.0822   38.6348 H   0  0  0  0  0  0  0  0  0  0  0  0
    0.1529   13.8078   42.3211 H   0  0  0  0  0  0  0  0  0  0  0  0
   -0.9478   18.9470   42.3244 H   0  0  0  0  0  0  0  0  0  0  0  0
    0.6138   18.5514   43.4279 H   0  0  0  0  0  0  0  0  0  0  0  0
    3.8383   19.6002   35.6232 H   0  0  0  0  0  0  0  0  0  0  0  0
    3.4031   14.3119   39.5696 H   0  0  0  0  0  0  0  0  0  0  0  0
  1 16  1  0
  1 13  2  0
  3  2  1  0
  3 22  2  0
  4 25  2  0
  5 23  2  0
  6 10  2  0
  8  4  1  0
  8 15  2  0
  9 13  1  0
 10  1  1  0
 11 12  1  0
 12 26  1  0
 12 24  2  0
 13  2  1  0
 14  8  1  0
 15 18  1  0
 16  7  1  0
 16  3  1  0
 18  5  1  0
 18 17  2  0
 19  9  1  0
 20 21  1  0
 21 11  2  0
 21  4  1  0
 23 10  1  0
 23 19  1  0
 24  6  1  0
 25 24  1  0
 25  5  1  0
  2 27  1  0
  6 28  1  0
  7 29  1  0
  7 30  1  0
  7 31  1  0
  9 32  1  0
  9 33  1  0
 11 34  1  0
 14 35  1  0
 15 36  1  0
 16 37  1  6
 19 38  1  0
 19 39  1  0
 20 40  1  0
 26 41  1  0
M  END
>  <mol_id>  (66) 
2026-08-23-6tgu-s0-n100-prep-0067

>  <rmsd_to_ref>  (66) 


$$$$

     RDKit          3D

 23 25  0  0  0  0  0  0  0  0999 V2000
    2.5434   20.8828   38.0968 N   0  0  0  0  0  0  0  0  0  0  0  0
    0.4866   20.4436   41.2498 C   0  0  0  0  0  0  0  0  0  0  0  0
   -0.7613   17.7191   43.4159 C   0  0  0  0  0  0  0  0  0  0  0  0
    1.6560   18.3206   40.7753 C   0  0  0  0  0  0  0  0  0  0  0  0
    3.0728   18.1730   38.8439 O   0  0  0  0  0  0  0  0  0  0  0  0
    3.8900   19.2882   36.9116 O   0  0  0  0  0  0  0  0  0  0  0  0
    0.2244   15.7693   42.9176 C   0  0  0  0  0  0  0  0  0  0  0  0
    3.3738   20.4855   37.0149 C   0  0  0  0  0  0  0  0  0  0  0  0
    1.7568   16.9633   41.1291 N   0  0  0  0  0  0  0  0  0  0  0  0
    0.1277   18.0027   42.3786 C   0  0  0  0  0  0  0  0  0  0  0  0
   -0.6893   16.4359   43.6005 N   0  0  0  0  0  0  0  0  0  0  0  0
    3.5897   21.3165   36.1101 O   0  0  0  0  0  0  0  0  0  0  0  0
    1.1442   21.0273   40.1821 C   0  0  0  0  0  0  0  0  0  0  0  0
    0.7337   19.0465   41.5121 C   0  0  0  0  0  0  0  0  0  0  0  0
    1.9724   20.2778   39.2804 C   0  0  0  0  0  0  0  0  0  0  0  0
    0.7744   16.7803   42.1069 C   0  0  0  0  0  0  0  0  0  0  0  0
    2.2501   18.9483   39.5595 C   0  0  0  0  0  0  0  0  0  0  0  0
    2.2737   21.8737   38.0164 H   0  0  0  0  0  0  0  0  0  0  0  0
   -0.2027   21.0259   41.8789 H   0  0  0  0  0  0  0  0  0  0  0  0
   -1.3924   18.4344   43.9638 H   0  0  0  0  0  0  0  0  0  0  0  0
    3.2196   17.2303   39.1085 H   0  0  0  0  0  0  0  0  0  0  0  0
    0.4869   14.7024   42.9690 H   0  0  0  0  0  0  0  0  0  0  0  0
    1.0280   22.1086   40.0175 H   0  0  0  0  0  0  0  0  0  0  0  0
  1 15  1  0
  2 14  1  0
  3 11  1  0
  4  9  1  0
  4 14  2  0
  5 17  1  0
  7 11  2  0
  8  6  1  0
  8  1  1  0
  9 16  2  0
 10  3  2  0
 12  8  2  0
 13  2  2  0
 14 10  1  0
 15 17  2  0
 15 13  1  0
 16 10  1  0
 16  7  1  0
 17  4  1  0
  1 18  1  0
  2 19  1  0
  3 20  1  0
  5 21  1  0
  7 22  1  0
 13 23  1  0
M  CHG  1   6  -1
M  END
>  <mol_id>  (67) 
2026-08-23-6tgu-s0-n100-prep-0068

>  <rmsd_to_ref>  (67) 


$$$$

     RDKit          3D

 32 33  0  0  0  0  0  0  0  0999 V2000
    3.1107   20.0704   38.2161 C   0  0  0  0  0  0  0  0  0  0  0  0
    1.2134   16.9266   41.7445 N   0  0  0  0  0  0  0  0  0  0  0  0
    3.6489   18.7445   38.3551 C   0  0  0  0  0  0  0  0  0  0  0  0
   -0.8388   17.0064   44.3432 N   0  0  0  0  0  0  0  0  0  0  0  0
    4.2786   21.3462   36.5873 O   0  0  0  0  0  0  0  0  0  0  0  0
   -0.2803   17.6595   43.4800 N   0  0  0  0  0  0  0  0  0  0  0  0
    1.7703   19.8528   40.1641 C   0  0  0  0  0  0  0  0  0  0  0  0
   -1.7117   14.7405   45.0184 N   0  0  0  0  0  0  0  0  0  0  0  0
   -0.8217   15.5907   44.1487 C   0  0  0  0  0  0  0  0  0  0  0  0
    0.3052   16.8191   42.6804 C   0  0  0  0  0  0  0  0  0  0  0  0
    0.0808   15.4433   43.1593 C   0  0  1  0  0  0  0  0  0  0  0  0
    3.2634   21.0748   37.0832 C   0  0  0  0  0  0  0  0  0  0  0  0
    2.2782   21.8099   36.9109 O   0  0  0  0  0  0  0  0  0  0  0  0
    0.8769   14.2077   42.7593 C   0  0  0  0  0  0  0  0  0  0  0  0
    2.1810   20.6140   39.1090 C   0  0  0  0  0  0  0  0  0  0  0  0
    4.6988   18.1862   37.4001 C   0  0  0  0  0  0  0  0  0  0  0  0
    3.0666   17.9952   39.3549 C   0  0  0  0  0  0  0  0  0  0  0  0
    1.4924   17.8727   41.1806 C   0  0  0  0  0  0  0  0  0  0  0  0
    2.2420   18.5181   40.2432 C   0  0  0  0  0  0  0  0  0  0  0  0
    1.0944   20.2617   40.9294 H   0  0  0  0  0  0  0  0  0  0  0  0
   -1.7207   13.7172   44.9012 H   0  0  0  0  0  0  0  0  0  0  0  0
   -2.3109   15.1827   45.7300 H   0  0  0  0  0  0  0  0  0  0  0  0
    0.0608   14.5142   42.5706 H   0  0  0  0  0  0  0  0  0  0  0  0
    1.0343   13.5712   43.6425 H   0  0  0  0  0  0  0  0  0  0  0  0
    0.3205   13.6443   41.9957 H   0  0  0  0  0  0  0  0  0  0  0  0
    1.8508   14.5154   42.3508 H   0  0  0  0  0  0  0  0  0  0  0  0
    1.7901   21.6318   38.9638 H   0  0  0  0  0  0  0  0  0  0  0  0
    5.3742   17.5143   37.9500 H   0  0  0  0  0  0  0  0  0  0  0  0
    4.2011   17.6266   36.5944 H   0  0  0  0  0  0  0  0  0  0  0  0
    5.2784   19.0148   36.9673 H   0  0  0  0  0  0  0  0  0  0  0  0
    3.2977   16.9214   39.4148 H   0  0  0  0  0  0  0  0  0  0  0  0
    0.8335   18.6499   41.5952 H   0  0  0  0  0  0  0  0  0  0  0  0
  1  3  2  0
  1 15  1  0
  2 10  1  0
  3 17  1  0
  4  9  2  0
  5 12  2  0
  6  4  1  0
  7 19  1  0
  9  8  1  0
 10 11  1  0
 10  6  2  0
 11 14  1  0
 11  9  1  0
 12  1  1  0
 13 12  1  0
 15  7  2  0
 16  3  1  0
 17 19  2  0
 18  2  2  3
 19 18  1  0
  7 20  1  0
  8 21  1  0
  8 22  1  0
 11 23  1  6
 14 24  1  0
 14 25  1  0
 14 26  1  0
 15 27  1  0
 16 28  1  0
 16 29  1  0
 16 30  1  0
 17 31  1  0
 18 32  1  0
M  CHG  1  13  -1
M  END
>  <mol_id>  (68) 
2026-08-23-6tgu-s0-n100-prep-0069

>  <rmsd_to_ref>  (68) 


$$$$

     RDKit          3D

 46 47  0  0  0  0  0  0  0  0999 V2000
    0.0750   18.5120   46.3180 F   0  0  0  0  0  0  0  0  0  0  0  0
    3.7440   12.8690   39.9110 C   0  0  0  0  0  0  0  0  0  0  0  0
    2.1360   20.8840   39.1770 N   0  0  0  0  0  0  0  0  0  0  0  0
    3.0820   16.7620   38.2530 C   0  0  0  0  0  0  0  0  0  0  0  0
   -0.1250   20.9810   42.1190 C   0  0  0  0  0  0  0  0  0  0  0  0
    3.7050   11.8240   39.5100 F   0  0  0  0  0  0  0  0  0  0  0  0
    2.7810   15.1660   40.0470 C   0  0  0  0  0  0  0  0  0  0  0  0
   -0.9290   17.3540   44.7840 F   0  0  0  0  0  0  0  0  0  0  0  0
    2.5340   16.4710   39.6270 C   0  0  0  0  0  0  0  0  0  0  0  0
    3.7090   19.2380   38.5350 C   0  0  0  0  0  0  0  0  0  0  0  0
   -0.2560   19.6280   42.4030 C   0  0  0  0  0  0  0  0  0  0  0  0
    0.7290   21.3390   41.0750 C   0  0  0  0  0  0  0  0  0  0  0  0
   -0.6150   18.5270   45.2710 C   0  0  0  0  0  0  0  0  0  0  0  0
   -2.4760   18.8410   43.2030 C   0  0  0  0  0  0  0  0  0  0  0  0
    4.2960   13.6310   37.3220 O   0  0  0  0  0  0  0  0  0  0  0  0
    3.2120   18.1230   37.6200 C   0  0  1  0  0  0  0  0  0  0  0  0
    1.4500   20.4220   40.3730 C   0  0  0  0  0  0  0  0  0  0  0  0
   -0.8680   19.6840   44.6990 N   0  0  0  0  0  0  0  0  0  0  0  0
    1.4400   19.0610   40.7220 C   0  0  0  0  0  0  0  0  0  0  0  0
    3.6780   15.7970   37.5320 N   0  0  0  0  0  0  0  0  0  0  0  0
    2.7510   20.7400   37.0510 O   0  0  0  0  0  0  0  0  0  0  0  0
    0.5300   18.6960   41.7240 C   0  0  0  0  0  0  0  0  0  0  0  0
    2.7720   20.4100   38.1470 C   0  0  0  0  0  0  0  0  0  0  0  0
   -1.1940   19.3820   43.3960 N   0  0  0  0  0  0  0  0  0  0  0  0
    3.7310   14.5510   38.0050 C   0  0  0  0  0  0  0  0  0  0  0  0
    5.1350   12.8910   39.8880 F   0  0  0  0  0  0  0  0  0  0  0  0
    3.1950   12.7350   41.0580 F   0  0  0  0  0  0  0  0  0  0  0  0
    3.4050   14.2090   39.2810 C   0  0  0  0  0  0  0  0  0  0  0  0
    4.0700   17.9510   36.5820 O   0  0  0  0  0  0  0  0  0  0  0  0
    2.1097   21.9127   39.1315 H   0  0  0  0  0  0  0  0  0  0  0  0
   -0.6732   21.7412   42.6948 H   0  0  0  0  0  0  0  0  0  0  0  0
    2.4554   14.8819   41.0586 H   0  0  0  0  0  0  0  0  0  0  0  0
    2.9992   17.1637   40.3437 H   0  0  0  0  0  0  0  0  0  0  0  0
    1.4426   16.6001   39.5798 H   0  0  0  0  0  0  0  0  0  0  0  0
    3.5936   18.9673   39.5949 H   0  0  0  0  0  0  0  0  0  0  0  0
    4.7787   19.4661   38.4178 H   0  0  0  0  0  0  0  0  0  0  0  0
    0.8232   22.4022   40.8092 H   0  0  0  0  0  0  0  0  0  0  0  0
   -1.5335   18.5216   45.8762 H   0  0  0  0  0  0  0  0  0  0  0  0
   -2.9419   18.6444   44.1799 H   0  0  0  0  0  0  0  0  0  0  0  0
   -3.0942   19.5550   42.6390 H   0  0  0  0  0  0  0  0  0  0  0  0
   -2.3958   17.9000   42.6390 H   0  0  0  0  0  0  0  0  0  0  0  0
    2.2094   18.4672   37.3262 H   0  0  0  0  0  0  0  0  0  0  0  0
   -1.6554   20.1538   45.1682 H   0  0  0  0  0  0  0  0  0  0  0  0
    2.1040   18.3285   40.2397 H   0  0  0  0  0  0  0  0  0  0  0  0
    0.4316   17.6321   41.9855 H   0  0  0  0  0  0  0  0  0  0  0  0
    4.9783   17.7689   36.9313 H   0  0  0  0  0  0  0  0  0  0  0  0
  2 27  1  0
  3 17  1  0
  4  9  1  0
  5 11  1  0
  6  2  1  0
  8 13  1  0
  9  7  1  0
 11 24  1  0
 12  5  2  0
 13  1  1  0
 14 24  1  0
 15 25  2  0
 16 29  1  0
 16  4  1  0
 16 10  1  0
 17 19  2  0
 17 12  1  0
 18 13  1  0
 19 22  1  0
 20 25  1  0
 20  4  2  0
 21 23  2  0
 22 11  2  0
 23 10  1  0
 23  3  1  0
 24 18  1  0
 25 28  1  0
 26  2  1  0
 28  2  1  0
 28  7  2  0
  3 30  1  0
  5 31  1  0
  7 32  1  0
  9 33  1  0
  9 34  1  0
 10 35  1  0
 10 36  1  0
 12 37  1  0
 13 38  1  0
 14 39  1  0
 14 40  1  0
 14 41  1  0
 16 42  1  6
 18 43  1  0
 19 44  1  0
 22 45  1  0
 29 46  1  0
M  END
>  <mol_id>  (69) 
2026-08-23-6tgu-s0-n100-prep-0070

>  <rmsd_to_ref>  (69) 


$$$$

     RDKit          3D

 48 50  0  0  0  0  0  0  0  0999 V2000
   -0.2153   14.8176   44.8867 O   0  0  0  0  0  0  0  0  0  0  0  0
   -0.8288   17.1658   43.6393 N   0  0  0  0  0  0  0  0  0  0  0  0
    0.0224   16.2306   43.0773 C   0  0  1  0  0  0  0  0  0  0  0  0
    0.6130   20.6160   40.9371 C   0  0  0  0  0  0  0  0  0  0  0  0
    1.1129   11.5966   43.4322 C   0  0  0  0  0  0  0  0  0  0  0  0
   -1.6434   18.0490   43.5489 C   0  0  0  0  0  0  0  0  0  0  0  0
    3.6307   18.3759   36.7768 N   0  0  0  0  0  0  0  0  0  0  0  0
    0.2079   14.9044   43.7073 C   0  0  0  0  0  0  0  0  0  0  0  0
    1.7273   20.3450   40.2374 C   0  0  0  0  0  0  0  0  0  0  0  0
    1.0731   18.1809   40.1434 C   0  0  0  0  0  0  0  0  0  0  0  0
    2.9716   18.5786   38.3172 C   0  0  2  0  0  0  0  0  0  0  0  0
    0.6774   16.4284   42.0192 C   0  0  0  0  0  0  0  0  0  0  0  0
    2.7654   20.6426   37.1162 N   0  0  0  0  0  0  0  0  0  0  0  0
    1.9488   19.0004   39.7409 C   0  0  0  0  0  0  0  0  0  0  0  0
    3.1072   20.1915   35.8821 C   0  0  0  0  0  0  0  0  0  0  0  0
    3.5273   19.8231   38.1655 C   0  0  0  0  0  0  0  0  0  0  0  0
   -0.9909   20.1899   42.5768 C   0  0  0  0  0  0  0  0  0  0  0  0
   -0.0076   19.6604   41.5927 C   0  0  0  0  0  0  0  0  0  0  0  0
    0.4069   12.6288   43.3243 C   0  0  0  0  0  0  0  0  0  0  0  0
    0.7629   13.9370   43.1170 N   0  0  0  0  0  0  0  0  0  0  0  0
    3.0229   21.2374   34.8520 O   0  0  0  0  0  0  0  0  0  0  0  0
   -1.6220   19.3765   43.5707 N   0  0  0  0  0  0  0  0  0  0  0  0
    3.4670   19.0612   35.8810 N   0  0  0  0  0  0  0  0  0  0  0  0
    0.4276   18.1414   41.5403 C   0  0  0  0  0  0  0  0  0  0  0  0
   -1.3732   16.5266   44.2358 H   0  0  0  0  0  0  0  0  0  0  0  0
   -0.0895   17.8724   43.5163 H   0  0  0  0  0  0  0  0  0  0  0  0
    0.8556   16.6306   43.6738 H   0  0  0  0  0  0  0  0  0  0  0  0
    0.2182   21.6424   40.9618 H   0  0  0  0  0  0  0  0  0  0  0  0
    0.6364   10.6193   43.5989 H   0  0  0  0  0  0  0  0  0  0  0  0
    2.2082   11.6693   43.3601 H   0  0  0  0  0  0  0  0  0  0  0  0
   -2.1188   17.8352   42.5803 H   0  0  0  0  0  0  0  0  0  0  0  0
   -1.9865   17.9536   44.5896 H   0  0  0  0  0  0  0  0  0  0  0  0
    4.6506   18.3587   36.9201 H   0  0  0  0  0  0  0  0  0  0  0  0
    2.4658   21.1366   40.0425 H   0  0  0  0  0  0  0  0  0  0  0  0
    0.7393   17.4200   39.4225 H   0  0  0  0  0  0  0  0  0  0  0  0
    2.7371   17.5309   38.5569 H   0  0  0  0  0  0  0  0  0  0  0  0
    1.7464   16.2409   42.1988 H   0  0  0  0  0  0  0  0  0  0  0  0
    0.3388   15.7504   41.2219 H   0  0  0  0  0  0  0  0  0  0  0  0
    2.1048   21.4074   37.3147 H   0  0  0  0  0  0  0  0  0  0  0  0
    4.5738   19.7128   37.8451 H   0  0  0  0  0  0  0  0  0  0  0  0
    3.4722   20.3507   39.1291 H   0  0  0  0  0  0  0  0  0  0  0  0
   -1.8065   20.6278   41.9827 H   0  0  0  0  0  0  0  0  0  0  0  0
   -0.3514   20.8346   43.1976 H   0  0  0  0  0  0  0  0  0  0  0  0
   -0.6760   12.4556   43.4101 H   0  0  0  0  0  0  0  0  0  0  0  0
    1.5192   14.1393   42.4477 H   0  0  0  0  0  0  0  0  0  0  0  0
   -1.1758   19.6324   44.4632 H   0  0  0  0  0  0  0  0  0  0  0  0
   -2.6139   19.5880   43.3910 H   0  0  0  0  0  0  0  0  0  0  0  0
    3.6546   18.6481   34.9563 H   0  0  0  0  0  0  0  0  0  0  0  0
  3  2  1  0
  3  8  1  0
  4 18  1  0
  6  2  1  0
  7 11  1  0
  8  1  2  0
  9  4  2  0
 10 24  1  0
 11 14  1  0
 12  3  1  0
 13 16  1  0
 14  9  1  0
 14 10  2  0
 15 23  1  0
 15 13  1  0
 16 11  1  0
 17 22  1  0
 18 24  2  0
 18 17  1  0
 19  5  2  3
 20 19  1  0
 20  8  1  0
 21 15  2  0
 22  6  1  0
 23  7  1  0
 24 12  1  0
  2 25  1  0
  2 26  1  0
  3 27  1  1
  4 28  1  0
  5 29  1  0
  5 30  1  0
  6 31  1  0
  6 32  1  0
  7 33  1  0
  9 34  1  0
 10 35  1  0
 11 36  1  1
 12 37  1  0
 12 38  1  0
 13 39  1  0
 16 40  1  0
 16 41  1  0
 17 42  1  0
 17 43  1  0
 19 44  1  0
 20 45  1  0
 22 46  1  0
 22 47  1  0
 23 48  1  0
M  CHG  2   2   1  22   1
M  END
>  <mol_id>  (70) 
2026-08-23-6tgu-s0-n100-prep-0071

>  <rmsd_to_ref>  (70) 


$$$$

     RDKit          3D

 39 40  0  0  0  0  0  0  0  0999 V2000
    3.4495   20.0959   35.5003 O   0  0  0  0  0  0  0  0  0  0  0  0
    0.2760   18.4194   41.8760 C   0  0  0  0  0  0  0  0  0  0  0  0
    3.2715   19.8774   36.6479 C   0  0  0  0  0  0  0  0  0  0  0  0
   -0.3666   19.4054   42.3994 N   0  0  0  0  0  0  0  0  0  0  0  0
    2.3756   14.6296   39.3511 O   0  0  0  0  0  0  0  0  0  0  0  0
    2.5203   18.7247   38.7094 C   0  0  0  0  0  0  0  0  0  0  0  0
    4.0092   15.1110   37.5684 C   0  0  0  0  0  0  0  0  0  0  0  0
    1.0101   16.1233   41.1386 N   0  0  0  0  0  0  0  0  0  0  0  0
    0.9109   18.8800   40.6588 C   0  0  0  0  0  0  0  0  0  0  0  0
   -1.1142   19.3016   43.6090 C   0  0  0  0  0  0  0  0  0  0  0  0
   -0.1805   20.4979   41.5923 C   0  0  0  0  0  0  0  0  0  0  0  0
    0.3280   16.9813   42.1169 C   0  0  0  0  0  0  0  0  0  0  0  0
    3.1018   18.3088   39.0909 C   0  0  0  0  0  0  0  0  0  0  0  0
    2.4533   21.0183   37.0534 O   0  0  0  0  0  0  0  0  0  0  0  0
    0.6964   20.2554   40.5875 C   0  0  0  0  0  0  0  0  0  0  0  0
    3.4888   16.2628   38.3762 N   0  0  0  0  0  0  0  0  0  0  0  0
    1.8782   16.6553   40.2086 C   0  0  0  0  0  0  0  0  0  0  0  0
    3.6987   17.5396   38.3300 C   0  0  0  0  0  0  0  0  0  0  0  0
    1.9811   17.9029   39.9950 C   0  0  0  0  0  0  0  0  0  0  0  0
    3.9070   19.2035   37.2775 C   0  0  0  0  0  0  0  0  0  0  0  0
    2.5712   15.8078   39.3217 C   0  0  0  0  0  0  0  0  0  0  0  0
   -0.2973   16.1434   43.1163 N   0  0  0  0  0  0  0  0  0  0  0  0
    2.7656   19.3232   37.8196 H   0  0  0  0  0  0  0  0  0  0  0  0
    1.4856   18.6908   39.0813 H   0  0  0  0  0  0  0  0  0  0  0  0
    4.3079   14.2952   38.2431 H   0  0  0  0  0  0  0  0  0  0  0  0
    3.2214   14.7545   36.8884 H   0  0  0  0  0  0  0  0  0  0  0  0
    4.8798   15.4385   36.9812 H   0  0  0  0  0  0  0  0  0  0  0  0
   -0.5452   19.7584   44.4320 H   0  0  0  0  0  0  0  0  0  0  0  0
   -2.0747   19.8251   43.4924 H   0  0  0  0  0  0  0  0  0  0  0  0
   -1.2997   18.2413   43.8356 H   0  0  0  0  0  0  0  0  0  0  0  0
   -0.6862   21.4631   41.7432 H   0  0  0  0  0  0  0  0  0  0  0  0
    1.1359   20.9753   39.8814 H   0  0  0  0  0  0  0  0  0  0  0  0
    4.7730   17.6873   38.5147 H   0  0  0  0  0  0  0  0  0  0  0  0
    3.2994   17.8159   37.3429 H   0  0  0  0  0  0  0  0  0  0  0  0
    3.7313   19.4221   38.3411 H   0  0  0  0  0  0  0  0  0  0  0  0
    3.6461   18.1551   37.0707 H   0  0  0  0  0  0  0  0  0  0  0  0
    4.9676   19.3713   37.0390 H   0  0  0  0  0  0  0  0  0  0  0  0
   -0.1293   15.1272   43.1147 H   0  0  0  0  0  0  0  0  0  0  0  0
   -0.9105   16.5629   43.8297 H   0  0  0  0  0  0  0  0  0  0  0  0
  1  3  2  0
  2 12  2  0
  2  4  1  0
  3 20  1  0
  3 14  1  0
  4 10  1  0
  5 21  2  0
  6 13  2  3
  7 16  1  0
  8 12  1  0
  9 15  1  0
  9  2  1  0
 11  4  1  0
 12 22  1  0
 13 19  1  0
 15 11  2  0
 16 18  1  0
 16 21  1  0
 17  8  2  0
 18 13  1  0
 19 17  1  0
 19  9  2  0
 21 17  1  0
  6 23  1  0
  6 24  1  0
  7 25  1  0
  7 26  1  0
  7 27  1  0
 10 28  1  0
 10 29  1  0
 10 30  1  0
 11 31  1  0
 15 32  1  0
 18 33  1  0
 18 34  1  0
 20 35  1  0
 20 36  1  0
 20 37  1  0
 22 38  1  0
 22 39  1  0
M  CHG  1  14  -1
M  END
>  <mol_id>  (71) 
2026-08-23-6tgu-s0-n100-prep-0072

>  <rmsd_to_ref>  (71) 


$$$$

     RDKit          3D

 23 25  0  0  0  0  0  0  0  0999 V2000
   -1.0609   20.0068   43.1496 N   0  0  0  0  0  0  0  0  0  0  0  0
    2.6252   17.4287   40.3996 S   0  0  0  0  0  0  0  0  0  0  0  0
    1.8778   18.8597   40.2788 C   0  0  0  0  0  0  0  0  0  0  0  0
   -0.3825   18.7936   43.2774 C   0  0  0  0  0  0  0  0  0  0  0  0
    3.1895   20.1045   36.2228 O   0  0  0  0  0  0  0  0  0  0  0  0
   -0.6779   18.0517   44.3198 N   0  0  0  0  0  0  0  0  0  0  0  0
    2.9615   18.7752   38.3660 C   0  0  0  0  0  0  0  0  0  0  0  0
    0.6711   18.4819   42.3573 N   0  0  0  0  0  0  0  0  0  0  0  0
    0.9292   19.2870   41.3258 C   0  0  0  0  0  0  0  0  0  0  0  0
    4.3547   17.1597   37.7253 C   0  0  0  0  0  0  0  0  0  0  0  0
    3.4604   19.0953   37.0119 C   0  0  0  0  0  0  0  0  0  0  0  0
    3.4426   17.6391   38.8622 C   0  0  0  0  0  0  0  0  0  0  0  0
    0.2383   20.5633   41.2109 C   0  0  0  0  0  0  0  0  0  0  0  0
    1.7531   20.7063   38.8263 F   0  0  0  0  0  0  0  0  0  0  0  0
   -0.7109   20.8404   42.1227 C   0  0  0  0  0  0  0  0  0  0  0  0
    2.1774   19.5167   39.2169 N   0  0  0  0  0  0  0  0  0  0  0  0
    4.2961   18.0193   36.6421 N   0  0  0  0  0  0  0  0  0  0  0  0
   -0.2046   17.1475   44.4590 H   0  0  0  0  0  0  0  0  0  0  0  0
   -1.3827   18.3738   44.9982 H   0  0  0  0  0  0  0  0  0  0  0  0
    1.2333   17.6297   42.4936 H   0  0  0  0  0  0  0  0  0  0  0  0
    4.9742   16.2516   37.7659 H   0  0  0  0  0  0  0  0  0  0  0  0
    0.4834   21.2744   40.4082 H   0  0  0  0  0  0  0  0  0  0  0  0
   -1.2406   21.8007   42.0371 H   0  0  0  0  0  0  0  0  0  0  0  0
  2  3  1  0
  3  9  2  3
  4  1  2  0
  4  6  1  0
  5 11  2  0
  7 12  2  0
  7 16  1  0
  8  4  1  0
  9 13  1  0
  9  8  1  0
 10 12  1  0
 11  7  1  0
 12  2  1  0
 13 15  2  0
 14 16  1  0
 15  1  1  0
 16  3  1  0
 17 11  1  0
 17 10  2  0
  6 18  1  0
  6 19  1  0
  8 20  1  0
 10 21  1  0
 13 22  1  0
 15 23  1  0
M  END
>  <mol_id>  (72) 
2026-08-23-6tgu-s0-n100-prep-0073

>  <rmsd_to_ref>  (72) 


$$$$

     RDKit          3D

 38 41  0  0  0  0  0  0  0  0999 V2000
    2.6239   15.5286   38.5359 C   0  0  0  0  0  0  0  0  0  0  0  0
   -0.3741   20.1427   42.9129 C   0  0  0  0  0  0  0  0  0  0  0  0
   -0.8455   16.6137   44.0552 C   0  0  0  0  0  0  0  0  0  0  0  0
    1.5988   16.1519   41.3616 O   0  0  0  0  0  0  0  0  0  0  0  0
    3.7930   21.0834   35.2375 O   0  0  0  0  0  0  0  0  0  0  0  0
    2.0652   18.9022   39.1796 C   0  0  0  0  0  0  0  0  0  0  0  0
   -1.1044   17.9403   44.0059 C   0  0  0  0  0  0  0  0  0  0  0  0
   -0.4148   18.7316   43.0291 C   0  0  0  0  0  0  0  0  0  0  0  0
    2.0053   17.6499   39.5518 N   0  0  0  0  0  0  0  0  0  0  0  0
    0.0773   16.0151   43.0805 C   0  0  0  0  0  0  0  0  0  0  0  0
    3.5861   17.4736   36.3030 C   0  0  0  0  0  0  0  0  0  0  0  0
    2.8476   20.2251   37.0936 C   0  0  0  0  0  0  0  0  0  0  0  0
    0.8860   19.3200   41.2124 N   0  0  0  0  0  0  0  0  0  0  0  0
    3.9192   18.7122   35.5045 C   0  0  0  0  0  0  0  0  0  0  0  0
    0.3790   20.4707   41.7291 C   0  0  0  0  0  0  0  0  0  0  0  0
    0.7629   16.7516   42.0913 C   0  0  0  0  0  0  0  0  0  0  0  0
    2.6240   19.0434   37.9412 C   0  0  0  0  0  0  0  0  0  0  0  0
    2.9737   17.7895   37.5110 C   0  0  0  0  0  0  0  0  0  0  0  0
    2.6401   16.9948   38.5059 C   0  0  0  0  0  0  0  0  0  0  0  0
    1.5544   19.8648   39.8866 N   0  0  0  0  0  0  0  0  0  0  0  0
    0.4435   18.2390   42.0629 C   0  0  0  0  0  0  0  0  0  0  0  0
    0.6591   21.7277   41.3371 N   0  0  0  0  0  0  0  0  0  0  0  0
    3.5649   20.0877   35.8540 C   0  0  0  0  0  0  0  0  0  0  0  0
   -0.8557   21.0618   43.6799 O   0  0  0  0  0  0  0  0  0  0  0  0
    2.6432   15.1830   39.5800 H   0  0  0  0  0  0  0  0  0  0  0  0
    1.7103   15.1619   38.0452 H   0  0  0  0  0  0  0  0  0  0  0  0
    3.5061   15.1412   38.0051 H   0  0  0  0  0  0  0  0  0  0  0  0
   -1.3236   15.9856   44.8213 H   0  0  0  0  0  0  0  0  0  0  0  0
   -1.8255   18.4004   44.6975 H   0  0  0  0  0  0  0  0  0  0  0  0
    0.8565   15.5154   43.6747 H   0  0  0  0  0  0  0  0  0  0  0  0
   -0.6198   15.4304   42.4623 H   0  0  0  0  0  0  0  0  0  0  0  0
    3.8015   16.4476   35.9697 H   0  0  0  0  0  0  0  0  0  0  0  0
    2.4680   21.2091   37.4062 H   0  0  0  0  0  0  0  0  0  0  0  0
    4.4820   18.5655   34.5709 H   0  0  0  0  0  0  0  0  0  0  0  0
    1.5813   20.8587   39.6173 H   0  0  0  0  0  0  0  0  0  0  0  0
    0.2096   22.5262   41.8076 H   0  0  0  0  0  0  0  0  0  0  0  0
    1.3229   21.8910   40.5666 H   0  0  0  0  0  0  0  0  0  0  0  0
   -0.7342   22.0159   43.4455 H   0  0  0  0  0  0  0  0  0  0  0  0
  2  8  1  0
  2 24  1  0
  4 16  2  0
  5 23  2  0
  6  9  2  0
  6 20  1  0
  7  3  2  0
  8  7  1  0
 10  3  1  0
 11 18  1  0
 12 17  2  0
 13 15  1  0
 13 21  1  0
 14 23  1  0
 14 11  2  0
 15  2  2  0
 16 10  1  0
 17  6  1  0
 18 17  1  0
 18 19  2  0
 19  1  1  0
 19  9  1  0
 20 13  1  0
 21 16  1  0
 21  8  2  0
 22 15  1  0
 23 12  1  0
  1 25  1  0
  1 26  1  0
  1 27  1  0
  3 28  1  0
  7 29  1  0
 10 30  1  0
 10 31  1  0
 11 32  1  0
 12 33  1  0
 14 34  1  0
 20 35  1  0
 22 36  1  0
 22 37  1  0
 24 38  1  0
M  END
>  <mol_id>  (73) 
2026-08-23-6tgu-s0-n100-prep-0074

>  <rmsd_to_ref>  (73) 


$$$$

     RDKit          3D

 35 38  0  0  0  0  0  0  0  0999 V2000
    0.0722   17.7820   42.6873 C   0  0  0  0  0  0  0  0  0  0  0  0
    0.8162   15.7176   41.5483 C   0  0  0  0  0  0  0  0  0  0  0  0
    3.7788   18.4812   35.7862 O   0  0  0  0  0  0  0  0  0  0  0  0
    3.4203   19.7633   36.4004 N   0  0  0  0  0  0  0  0  0  0  0  0
    2.8333   19.8463   37.6481 C   0  0  0  0  0  0  0  0  0  0  0  0
   -0.4619   18.4575   43.7475 N   0  0  0  0  0  0  0  0  0  0  0  0
   -0.3736   13.0905   43.0414 C   0  0  0  0  0  0  0  0  0  0  0  0
    2.4319   21.1073   38.1097 C   0  0  0  0  0  0  0  0  0  0  0  0
   -0.9646   17.7047   44.7689 C   0  0  0  0  0  0  0  0  0  0  0  0
    1.4941   16.4416   40.6021 C   0  0  0  0  0  0  0  0  0  0  0  0
    1.5555   20.0727   40.1440 C   0  0  0  0  0  0  0  0  0  0  0  0
    0.8352   19.9344   41.3534 C   0  0  0  0  0  0  0  0  0  0  0  0
    3.8743   20.9558   35.8233 O   0  0  0  0  0  0  0  0  0  0  0  0
    1.8787   21.2005   39.4310 C   0  0  0  0  0  0  0  0  0  0  0  0
    0.1799   16.3364   42.6332 C   0  0  0  0  0  0  0  0  0  0  0  0
   -1.0105   16.2918   44.8210 C   0  0  0  0  0  0  0  0  0  0  0  0
    2.6042   18.6755   38.4007 C   0  0  2  0  0  0  0  0  0  0  0  0
    1.4171   17.8425   40.5886 C   0  0  0  0  0  0  0  0  0  0  0  0
    1.8896   18.7928   39.6636 C   0  0  0  0  0  0  0  0  0  0  0  0
    0.7422   18.5652   41.6469 C   0  0  0  0  0  0  0  0  0  0  0  0
   -0.3962   15.5744   43.6968 C   0  0  0  0  0  0  0  0  0  0  0  0
    2.8732   17.4587   38.0366 O   0  0  0  0  0  0  0  0  0  0  0  0
   -0.3871   14.1982   43.8161 O   0  0  0  0  0  0  0  0  0  0  0  0
    0.7705   14.6227   41.4538 H   0  0  0  0  0  0  0  0  0  0  0  0
   -0.3181   12.1968   43.6804 H   0  0  0  0  0  0  0  0  0  0  0  0
   -1.2928   13.0536   42.4384 H   0  0  0  0  0  0  0  0  0  0  0  0
    0.5011   13.1197   42.3751 H   0  0  0  0  0  0  0  0  0  0  0  0
    2.5378   22.0009   37.4771 H   0  0  0  0  0  0  0  0  0  0  0  0
   -1.3728   18.2483   45.6338 H   0  0  0  0  0  0  0  0  0  0  0  0
    2.1026   15.9207   39.8482 H   0  0  0  0  0  0  0  0  0  0  0  0
    0.4209   20.7551   41.9573 H   0  0  0  0  0  0  0  0  0  0  0  0
    1.7112   22.1910   39.8793 H   0  0  0  0  0  0  0  0  0  0  0  0
   -1.4818   15.7585   45.6598 H   0  0  0  0  0  0  0  0  0  0  0  0
    1.6015   18.5865   37.9570 H   0  0  0  0  0  0  0  0  0  0  0  0
    2.9933   16.8929   38.8401 H   0  0  0  0  0  0  0  0  0  0  0  0
  1 15  2  0
  1  6  1  0
  2 15  1  0
  3  4  1  0
  4  5  1  0
  5  8  2  0
  5 17  1  0
  6  9  2  0
  7 23  1  0
  8 14  1  0
  9 16  1  0
 10  2  2  0
 11 12  1  0
 12 20  2  0
 13  4  2  0
 14 11  2  0
 15 21  1  0
 17 22  1  0
 17 19  1  0
 18 10  1  0
 18 20  1  0
 19 11  1  0
 19 18  2  0
 20  1  1  0
 21 23  1  0
 21 16  2  0
  2 24  1  0
  7 25  1  0
  7 26  1  0
  7 27  1  0
  8 28  1  0
  9 29  1  0
 10 30  1  0
 12 31  1  0
 14 32  1  0
 16 33  1  0
 17 34  1  1
 22 35  1  0
M  CHG  2   3  -1   4   1
M  END
>  <mol_id>  (74) 
2026-08-23-6tgu-s0-n100-prep-0075

>  <rmsd_to_ref>  (74) 


$$$$

     RDKit          3D

 47 50  0  0  0  0  0  0  0  0999 V2000
    0.9947   18.3782   41.2373 O   0  0  0  0  0  0  0  0  0  0  0  0
    2.8996   21.3038   35.2992 O   0  0  0  0  0  0  0  0  0  0  0  0
   -0.2210   13.9592   44.2807 C   0  0  0  0  0  0  0  0  0  0  0  0
    2.5545   19.9915   37.2563 C   0  0  0  0  0  0  0  0  0  0  0  0
    0.0823   15.2040   43.6538 C   0  0  0  0  0  0  0  0  0  0  0  0
    5.1181   14.8572   37.6123 F   0  0  0  0  0  0  0  0  0  0  0  0
    1.0094   15.4164   42.7345 N   0  0  0  0  0  0  0  0  0  0  0  0
    0.1350   20.4281   41.6257 C   0  0  0  0  0  0  0  0  0  0  0  0
    2.2427   21.1807   36.4761 C   0  0  0  0  0  0  0  0  0  0  0  0
   -0.4945   16.4983   44.1374 C   0  0  0  0  0  0  0  0  0  0  0  0
    2.7367   18.0699   38.5326 C   0  0  0  0  0  0  0  0  0  0  0  0
    0.3401   12.8406   43.7373 C   0  0  0  0  0  0  0  0  0  0  0  0
    3.4535   15.8102   39.0432 C   0  0  0  0  0  0  0  0  0  0  0  0
    0.1174   18.3606   42.3115 C   0  0  2  0  0  0  0  0  0  0  0  0
    0.8966   19.6508   40.7028 C   0  0  2  0  0  0  0  0  0  0  0  0
    2.6720   16.9785   39.3692 C   0  0  0  0  0  0  0  0  0  0  0  0
    2.1528   19.4594   38.4847 C   0  0  0  0  0  0  0  0  0  0  0  0
    0.7762   21.2278   39.1822 O   0  0  0  0  0  0  0  0  0  0  0  0
    1.4587   22.0404   36.7166 O   0  0  0  0  0  0  0  0  0  0  0  0
   -0.2442   17.4377   43.2222 N   0  0  0  0  0  0  0  0  0  0  0  0
    3.2086   13.9770   41.0953 Cl  0  0  0  0  0  0  0  0  0  0  0  0
    3.5458   17.9251   37.3184 C   0  0  2  0  0  0  0  0  0  0  0  0
    1.2124   12.9797   42.5931 C   0  0  0  0  0  0  0  0  0  0  0  0
    1.6912   14.2203   42.0947 C   0  0  0  0  0  0  0  0  0  0  0  0
    1.2614   20.1284   39.4360 C   0  0  0  0  0  0  0  0  0  0  0  0
    4.2301   15.7781   37.9073 C   0  0  0  0  0  0  0  0  0  0  0  0
   -0.4415   19.5080   42.5393 C   0  0  0  0  0  0  0  0  0  0  0  0
    4.2109   16.8165   36.9288 C   0  0  0  0  0  0  0  0  0  0  0  0
   -1.0964   13.8614   45.4782 C   0  0  0  0  0  0  0  0  0  0  0  0
    3.4644   19.1236   36.6832 N   0  0  0  0  0  0  0  0  0  0  0  0
   -1.0636   16.6703   45.1661 O   0  0  0  0  0  0  0  0  0  0  0  0
   -0.6530   20.9839   41.0964 H   0  0  0  0  0  0  0  0  0  0  0  0
    0.7658   21.1650   42.1445 H   0  0  0  0  0  0  0  0  0  0  0  0
    0.1318   11.8481   44.1633 H   0  0  0  0  0  0  0  0  0  0  0  0
    3.4285   14.9355   39.7097 H   0  0  0  0  0  0  0  0  0  0  0  0
    0.9417   18.6276   42.9891 H   0  0  0  0  0  0  0  0  0  0  0  0
    1.8142   19.8060   40.1161 H   0  0  0  0  0  0  0  0  0  0  0  0
    2.0376   16.9967   40.2677 H   0  0  0  0  0  0  0  0  0  0  0  0
   -1.2443   17.6585   43.1126 H   0  0  0  0  0  0  0  0  0  0  0  0
    2.6569   17.5858   36.7665 H   0  0  0  0  0  0  0  0  0  0  0  0
    1.5266   12.0625   42.0733 H   0  0  0  0  0  0  0  0  0  0  0  0
   -0.2457   19.8270   43.5736 H   0  0  0  0  0  0  0  0  0  0  0  0
   -1.5324   19.4508   42.4094 H   0  0  0  0  0  0  0  0  0  0  0  0
    4.6946   16.7223   35.9454 H   0  0  0  0  0  0  0  0  0  0  0  0
   -0.4742   13.7929   46.3827 H   0  0  0  0  0  0  0  0  0  0  0  0
   -1.7352   14.7549   45.5393 H   0  0  0  0  0  0  0  0  0  0  0  0
   -1.7276   12.9641   45.3986 H   0  0  0  0  0  0  0  0  0  0  0  0
  1 14  1  0
  2  9  2  0
  3 29  1  0
  4 17  1  0
  5 10  1  0
  5  3  2  0
  6 26  1  0
  7  5  1  0
  8 27  1  0
  9 19  1  0
  9  4  1  0
 10 31  2  0
 11 16  1  0
 12  3  1  0
 13 16  2  0
 14 27  1  0
 14 20  1  0
 15 25  1  0
 15  1  1  0
 15  8  1  0
 17 11  2  0
 17 25  1  0
 18 25  2  0
 20 10  1  0
 21 24  1  0
 22 28  1  0
 22 11  1  0
 23 12  2  0
 24  7  2  0
 24 23  1  0
 26 13  1  0
 28 26  2  0
 30  4  2  0
 30 22  1  0
  8 32  1  0
  8 33  1  0
 12 34  1  0
 13 35  1  0
 14 36  1  6
 15 37  1  1
 16 38  1  0
 20 39  1  0
 22 40  1  6
 23 41  1  0
 27 42  1  0
 27 43  1  0
 28 44  1  0
 29 45  1  0
 29 46  1  0
 29 47  1  0
M  CHG  1  19  -1
M  END
>  <mol_id>  (75) 
2026-08-23-6tgu-s0-n100-prep-0076

>  <rmsd_to_ref>  (75) 


$$$$

     RDKit          3D

 38 41  0  0  0  0  0  0  0  0999 V2000
    1.6731   20.9501   38.2785 C   0  0  0  0  0  0  0  0  0  0  0  0
    0.4971   18.0968   41.9177 C   0  0  0  0  0  0  0  0  0  0  0  0
    2.7140   12.9097   43.1986 O   0  0  0  0  0  0  0  0  0  0  0  0
    1.1972   20.3614   39.3853 C   0  0  0  0  0  0  0  0  0  0  0  0
   -0.8746   17.9900   44.8290 C   0  0  0  0  0  0  0  0  0  0  0  0
    3.2860   19.1457   37.9113 C   0  0  0  0  0  0  0  0  0  0  0  0
    3.1378   20.9783   36.3765 C   0  0  0  0  0  0  0  0  0  0  0  0
    3.2966   14.5088   40.9703 O   0  0  0  0  0  0  0  0  0  0  0  0
    2.3845   14.7605   41.8162 C   0  0  0  0  0  0  0  0  0  0  0  0
    1.9282   13.7373   42.8405 C   0  0  0  0  0  0  0  0  0  0  0  0
   -0.4778   19.0742   42.3880 C   0  0  0  0  0  0  0  0  0  0  0  0
   -2.2784   19.7841   43.6789 N   0  0  0  0  0  0  0  0  0  0  0  0
   -1.2407   18.8855   43.6845 C   0  0  1  0  0  0  0  0  0  0  0  0
    2.7408   18.4903   39.0219 C   0  0  0  0  0  0  0  0  0  0  0  0
   -2.2523   20.4888   42.5167 C   0  0  0  0  0  0  0  0  0  0  0  0
    1.7376   19.0639   39.8030 C   0  0  0  0  0  0  0  0  0  0  0  0
   -1.1395   20.1123   41.8025 C   0  0  0  0  0  0  0  0  0  0  0  0
    3.5771   21.3386   35.4782 N   0  0  0  0  0  0  0  0  0  0  0  0
    2.2217   17.0868   40.6535 C   0  0  0  0  0  0  0  0  0  0  0  0
    3.0290   17.1474   39.6013 N   0  0  0  0  0  0  0  0  0  0  0  0
    0.5278   13.6886   43.3127 C   0  0  0  0  0  0  0  0  0  0  0  0
    1.3886   18.2760   40.8291 C   0  0  0  0  0  0  0  0  0  0  0  0
    0.8041   16.7729   42.4667 C   0  0  0  0  0  0  0  0  0  0  0  0
    2.7387   20.4158   37.5274 C   0  0  0  0  0  0  0  0  0  0  0  0
    1.8103   16.1323   41.7117 C   0  0  0  0  0  0  0  0  0  0  0  0
    1.2117   21.8904   37.9425 H   0  0  0  0  0  0  0  0  0  0  0  0
    0.4071   20.8484   39.9757 H   0  0  0  0  0  0  0  0  0  0  0  0
   -1.2427   18.4272   45.7688 H   0  0  0  0  0  0  0  0  0  0  0  0
   -1.3316   17.0004   44.6811 H   0  0  0  0  0  0  0  0  0  0  0  0
    0.2194   17.8852   44.8771 H   0  0  0  0  0  0  0  0  0  0  0  0
    4.1158   18.6971   37.3454 H   0  0  0  0  0  0  0  0  0  0  0  0
   -0.5967   19.6321   44.1721 H   0  0  0  0  0  0  0  0  0  0  0  0
   -2.9964   21.2348   42.2009 H   0  0  0  0  0  0  0  0  0  0  0  0
   -0.8199   20.5934   40.8663 H   0  0  0  0  0  0  0  0  0  0  0  0
    0.5086   13.7522   44.4107 H   0  0  0  0  0  0  0  0  0  0  0  0
   -0.0324   14.5340   42.8867 H   0  0  0  0  0  0  0  0  0  0  0  0
    0.0654   12.7435   42.9920 H   0  0  0  0  0  0  0  0  0  0  0  0
    0.3151   16.3363   43.3500 H   0  0  0  0  0  0  0  0  0  0  0  0
  1  4  2  0
  2 23  1  0
  2 11  1  0
  4 16  1  0
  6 14  1  0
  7 24  1  0
  8  9  2  0
  9 25  1  0
  9 10  1  0
 10  3  2  0
 10 21  1  0
 11 13  1  0
 13 12  1  0
 13  5  1  0
 14 20  1  0
 14 16  2  0
 15 12  2  0
 16 22  1  0
 17 11  2  0
 17 15  1  0
 18  7  3  0
 19 22  1  0
 19 25  1  0
 20 19  2  0
 22  2  2  0
 24  6  2  0
 24  1  1  0
 25 23  2  0
  1 26  1  0
  4 27  1  0
  5 28  1  0
  5 29  1  0
  5 30  1  0
  6 31  1  0
 13 32  1  6
 15 33  1  0
 17 34  1  0
 21 35  1  0
 21 36  1  0
 21 37  1  0
 23 38  1  0
M  END
>  <mol_id>  (76) 
2026-08-23-6tgu-s0-n100-prep-0077

>  <rmsd_to_ref>  (76) 


$$$$

     RDKit          3D

 27 28  0  0  0  0  0  0  0  0999 V2000
    3.6430   19.9442   37.0789 C   0  0  0  0  0  0  0  0  0  0  0  0
    3.1726   19.4139   38.2198 C   0  0  0  0  0  0  0  0  0  0  0  0
    1.8962   18.9405   40.3043 C   0  0  0  0  0  0  0  0  0  0  0  0
   -0.3246   18.0872   42.8050 C   0  0  0  0  0  0  0  0  0  0  0  0
    2.8124   15.4371   39.6888 C   0  0  0  0  0  0  0  0  0  0  0  0
   -1.7211   20.4774   42.5775 C   0  0  0  0  0  0  0  0  0  0  0  0
    1.4268   19.0102   41.5035 N   0  0  0  0  0  0  0  0  0  0  0  0
    3.3225   18.0651   38.7007 C   0  0  0  0  0  0  0  0  0  0  0  0
    4.7806   19.6735   36.6442 O   0  0  0  0  0  0  0  0  0  0  0  0
    2.8296   20.8214   36.4842 O   0  0  0  0  0  0  0  0  0  0  0  0
    2.5871   17.7842   39.8465 C   0  0  0  0  0  0  0  0  0  0  0  0
   -0.5786   20.2811   41.8568 C   0  0  0  0  0  0  0  0  0  0  0  0
   -1.4887   18.2613   43.5769 C   0  0  0  0  0  0  0  0  0  0  0  0
    2.0026   20.2517   39.2363 S   0  0  0  0  0  0  0  0  0  0  0  0
    2.4849   16.6246   40.4779 O   0  0  0  0  0  0  0  0  0  0  0  0
   -2.1950   19.5088   43.4568 C   0  0  0  0  0  0  0  0  0  0  0  0
    0.2167   19.1325   42.0774 C   0  0  0  0  0  0  0  0  0  0  0  0
    0.1639   17.1020   42.7798 H   0  0  0  0  0  0  0  0  0  0  0  0
    2.7774   14.5470   40.3341 H   0  0  0  0  0  0  0  0  0  0  0  0
    2.0835   15.3270   38.8723 H   0  0  0  0  0  0  0  0  0  0  0  0
    3.8224   15.5446   39.2666 H   0  0  0  0  0  0  0  0  0  0  0  0
   -2.2776   21.4191   42.4610 H   0  0  0  0  0  0  0  0  0  0  0  0
    2.1767   18.9585   42.2077 H   0  0  0  0  0  0  0  0  0  0  0  0
    3.9634   17.3213   38.2045 H   0  0  0  0  0  0  0  0  0  0  0  0
   -0.2749   21.0200   41.1006 H   0  0  0  0  0  0  0  0  0  0  0  0
   -1.8470   17.4688   44.2504 H   0  0  0  0  0  0  0  0  0  0  0  0
   -3.1000   19.6949   44.0537 H   0  0  0  0  0  0  0  0  0  0  0  0
  1  2  1  0
  2  8  2  0
  2 14  1  0
  3  7  1  0
  4 13  2  0
  5 15  1  0
  6 16  2  0
  7 17  1  0
  8 11  1  0
  9  1  2  0
 10  1  1  0
 11 15  1  0
 11  3  2  0
 12  6  1  0
 13 16  1  0
 14  3  1  0
 17 12  2  0
 17  4  1  0
  4 18  1  0
  5 19  1  0
  5 20  1  0
  5 21  1  0
  6 22  1  0
  7 23  1  0
  8 24  1  0
 12 25  1  0
 13 26  1  0
 16 27  1  0
M  CHG  1  10  -1
M  END
>  <mol_id>  (77) 
2026-08-23-6tgu-s0-n100-prep-0078

>  <rmsd_to_ref>  (77) 


$$$$

     RDKit          3D

 30 31  0  0  0  0  0  0  0  0999 V2000
    2.9779   19.0048   39.0182 C   0  0  0  0  0  0  0  0  0  0  0  0
   -0.1438   18.9499   41.5813 C   0  0  0  0  0  0  0  0  0  0  0  0
   -1.8098   18.6844   43.2832 O   0  0  0  0  0  0  0  0  0  0  0  0
   -0.3966   16.7915   42.8756 C   0  0  1  0  0  0  0  0  0  0  0  0
   -1.1297   16.1126   44.0224 C   0  0  0  0  0  0  0  0  0  0  0  0
    1.2707   20.9451   39.7273 S   0  0  0  0  0  0  0  0  0  0  0  0
    3.6823   17.8230   39.2281 C   0  0  0  0  0  0  0  0  0  0  0  0
    1.7014   19.4240   39.7864 C   0  0  0  0  0  0  0  0  0  0  0  0
    4.7315   18.8997   37.6829 N   0  0  0  0  0  0  0  0  0  0  0  0
   -0.8222   15.7140   45.1482 C   0  0  0  0  0  0  0  0  0  0  0  0
    3.3433   20.7796   37.1086 C   0  0  0  0  0  0  0  0  0  0  0  0
    0.4492   16.2222   42.0302 C   0  0  0  0  0  0  0  0  0  0  0  0
    4.7395   17.8128   38.4448 O   0  0  0  0  0  0  0  0  0  0  0  0
    1.0479   18.4264   40.8170 C   0  0  0  0  0  0  0  0  0  0  0  0
    4.3165   21.3513   36.5059 O   0  0  0  0  0  0  0  0  0  0  0  0
   -0.8718   18.1845   42.6755 C   0  0  0  0  0  0  0  0  0  0  0  0
    1.3798   17.0744   41.2265 C   0  0  0  0  0  0  0  0  0  0  0  0
    2.2477   21.2640   36.8619 O   0  0  0  0  0  0  0  0  0  0  0  0
   -0.6484   20.1598   41.2683 O   0  0  0  0  0  0  0  0  0  0  0  0
    3.5956   19.6042   37.9247 C   0  0  0  0  0  0  0  0  0  0  0  0
    0.4386   17.0299   43.5506 H   0  0  0  0  0  0  0  0  0  0  0  0
   -2.1904   15.9340   43.7919 H   0  0  0  0  0  0  0  0  0  0  0  0
    3.4012   17.0274   39.9337 H   0  0  0  0  0  0  0  0  0  0  0  0
   -1.5804   15.2429   45.7910 H   0  0  0  0  0  0  0  0  0  0  0  0
    0.2102   15.8296   45.5097 H   0  0  0  0  0  0  0  0  0  0  0  0
    1.0744   15.5347   42.6189 H   0  0  0  0  0  0  0  0  0  0  0  0
   -0.2093   15.7752   41.2710 H   0  0  0  0  0  0  0  0  0  0  0  0
    1.5804   16.5162   40.3001 H   0  0  0  0  0  0  0  0  0  0  0  0
    2.1954   17.2518   41.9429 H   0  0  0  0  0  0  0  0  0  0  0  0
   -0.2197   20.7078   40.5640 H   0  0  0  0  0  0  0  0  0  0  0  0
  1  7  2  0
  1  8  1  0
  2 16  1  0
  4  5  1  0
  5 10  2  3
  6  8  2  0
  8 14  1  0
  9 20  2  0
  9 13  1  0
 11 20  1  0
 12  4  1  0
 13  7  1  0
 14 17  1  0
 14  2  2  0
 15 11  2  0
 16  4  1  0
 16  3  2  0
 17 12  1  0
 18 11  1  0
 19  2  1  0
 20  1  1  0
  4 21  1  1
  5 22  1  0
  7 23  1  0
 10 24  1  0
 10 25  1  0
 12 26  1  0
 12 27  1  0
 17 28  1  0
 17 29  1  0
 19 30  1  0
M  CHG  1  18  -1
M  END
>  <mol_id>  (78) 
2026-08-23-6tgu-s0-n100-prep-0079

>  <rmsd_to_ref>  (78) 


$$$$

     RDKit          3D

 26 27  0  0  0  0  0  0  0  0999 V2000
    3.7107   20.3443   36.2227 O   0  0  0  0  0  0  0  0  0  0  0  0
    0.0116   19.3313   42.1808 C   0  0  0  0  0  0  0  0  0  0  0  0
    1.9368   19.7333   39.2251 C   0  0  2  0  0  0  0  0  0  0  0  0
    2.6760   18.7516   38.0653 S   0  0  0  0  0  0  0  0  0  0  0  0
    1.6952   19.1476   40.4592 C   0  0  0  0  0  0  0  0  0  0  0  0
   -0.6617   17.7888   43.8529 C   0  0  0  0  0  0  0  0  0  0  0  0
    0.1202   18.0799   42.7473 C   0  0  0  0  0  0  0  0  0  0  0  0
    0.7859   19.8252   41.1502 N   0  0  0  0  0  0  0  0  0  0  0  0
    1.5309   20.9889   38.7699 C   0  0  0  0  0  0  0  0  0  0  0  0
    2.9170   20.2495   37.1252 C   0  0  0  0  0  0  0  0  0  0  0  0
   -1.5541   18.7629   44.3457 C   0  0  0  0  0  0  0  0  0  0  0  0
   -0.9782   20.2806   42.6634 C   0  0  0  0  0  0  0  0  0  0  0  0
    2.0270   21.2470   37.5613 C   0  0  0  0  0  0  0  0  0  0  0  0
   -1.6984   19.9653   43.6860 N   0  0  0  0  0  0  0  0  0  0  0  0
    2.9257   20.0638   39.5756 H   0  0  0  0  0  0  0  0  0  0  0  0
    1.3330   18.1208   40.3027 H   0  0  0  0  0  0  0  0  0  0  0  0
    2.6346   19.1488   41.0314 H   0  0  0  0  0  0  0  0  0  0  0  0
   -0.5872   16.8064   44.3422 H   0  0  0  0  0  0  0  0  0  0  0  0
    0.8104   17.3309   42.3319 H   0  0  0  0  0  0  0  0  0  0  0  0
    0.6451   20.8125   40.8929 H   0  0  0  0  0  0  0  0  0  0  0  0
    0.4324   21.0144   38.7197 H   0  0  0  0  0  0  0  0  0  0  0  0
    1.9052   21.7506   39.4697 H   0  0  0  0  0  0  0  0  0  0  0  0
   -2.1360   18.5635   45.2576 H   0  0  0  0  0  0  0  0  0  0  0  0
   -1.1107   21.2519   42.1645 H   0  0  0  0  0  0  0  0  0  0  0  0
    2.5619   22.2075   37.5964 H   0  0  0  0  0  0  0  0  0  0  0  0
    1.1863   21.2807   36.8528 H   0  0  0  0  0  0  0  0  0  0  0  0
  1 10  2  0
  2 12  2  0
  2  7  1  0
  3  5  1  0
  4  3  1  0
  5  8  1  0
  6 11  1  0
  7  6  2  0
  8  2  1  0
  9  3  1  0
 10 13  1  0
 10  4  1  0
 12 14  1  0
 13  9  1  0
 14 11  2  0
  3 15  1  1
  5 16  1  0
  5 17  1  0
  6 18  1  0
  7 19  1  0
  8 20  1  0
  9 21  1  0
  9 22  1  0
 11 23  1  0
 12 24  1  0
 13 25  1  0
 13 26  1  0
M  END
>  <mol_id>  (79) 
2026-08-23-6tgu-s0-n100-prep-0080

>  <rmsd_to_ref>  (79) 


$$$$

     RDKit          3D

 29 30  0  0  0  0  0  0  0  0999 V2000
    3.2700   18.9063   37.1953 C   0  0  0  0  0  0  0  0  0  0  0  0
   -0.4030   17.4310   42.6217 C   0  0  0  0  0  0  0  0  0  0  0  0
   -1.1912   19.6097   44.1929 N   0  0  0  0  0  0  0  0  0  0  0  0
    0.9973   20.2176   40.8142 C   0  0  0  0  0  0  0  0  0  0  0  0
   -1.0925   17.2489   43.8819 C   0  0  0  0  0  0  0  0  0  0  0  0
    1.9653   17.7018   39.2979 C   0  0  0  0  0  0  0  0  0  0  0  0
    2.1468   16.3025   38.8031 C   0  0  0  0  0  0  0  0  0  0  0  0
    1.8077   15.3548   39.5367 O   0  0  0  0  0  0  0  0  0  0  0  0
    1.1231   17.8725   40.4191 C   0  0  0  0  0  0  0  0  0  0  0  0
   -1.4125   18.3383   44.6306 C   0  0  0  0  0  0  0  0  0  0  0  0
   -0.1141   18.6651   42.2671 C   0  0  0  0  0  0  0  0  0  0  0  0
    0.6724   18.8985   41.1332 C   0  0  1  0  0  0  0  0  0  0  0  0
    1.6955   20.7365   39.8579 C   0  0  0  0  0  0  0  0  0  0  0  0
   -1.4086   16.1052   44.3826 O   0  0  0  0  0  0  0  0  0  0  0  0
    3.6440   20.0343   36.8119 O   0  0  0  0  0  0  0  0  0  0  0  0
    3.4648   17.8129   36.5622 O   0  0  0  0  0  0  0  0  0  0  0  0
    2.3038   20.1324   38.8505 C   0  0  0  0  0  0  0  0  0  0  0  0
    2.5196   16.0528   37.6363 O   0  0  0  0  0  0  0  0  0  0  0  0
   -0.5243   19.7430   43.0330 C   0  0  0  0  0  0  0  0  0  0  0  0
    2.4798   18.7969   38.4877 C   0  0  0  0  0  0  0  0  0  0  0  0
   -0.1322   16.5740   41.9875 H   0  0  0  0  0  0  0  0  0  0  0  0
    0.5784   20.9588   41.5107 H   0  0  0  0  0  0  0  0  0  0  0  0
    0.7438   16.9116   40.7972 H   0  0  0  0  0  0  0  0  0  0  0  0
   -1.8649   18.1881   45.6220 H   0  0  0  0  0  0  0  0  0  0  0  0
   -0.2143   18.9601   40.4850 H   0  0  0  0  0  0  0  0  0  0  0  0
    1.7977   21.8314   39.8857 H   0  0  0  0  0  0  0  0  0  0  0  0
   -1.8809   16.0588   45.2515 H   0  0  0  0  0  0  0  0  0  0  0  0
    2.7727   20.8355   38.1463 H   0  0  0  0  0  0  0  0  0  0  0  0
   -0.2935   20.7573   42.6754 H   0  0  0  0  0  0  0  0  0  0  0  0
  1 20  1  0
  2  5  2  0
  3 10  2  0
  4 12  1  0
  5 10  1  0
  5 14  1  0
  6  9  2  0
  7  6  1  0
  7  8  1  0
  9 12  1  0
 11 19  2  0
 11  2  1  0
 12 11  1  0
 13  4  2  0
 15  1  2  0
 16  1  1  0
 17 13  1  0
 18  7  2  0
 19  3  1  0
 20 17  2  0
 20  6  1  0
  2 21  1  0
  4 22  1  0
  9 23  1  0
 10 24  1  0
 12 25  1  6
 13 26  1  0
 14 27  1  0
 17 28  1  0
 19 29  1  0
M  CHG  2   8  -1  16  -1
M  END
>  <mol_id>  (80) 
2026-08-23-6tgu-s0-n100-prep-0081

>  <rmsd_to_ref>  (80) 


$$$$

     RDKit          3D

 45 49  0  0  0  0  0  0  0  0999 V2000
    2.8326   14.2586   40.3862 C   0  0  1  0  0  0  0  0  0  0  0  0
    2.3837   20.1089   38.5236 C   0  0  0  0  0  0  0  0  0  0  0  0
   -0.9678   18.8356   43.9562 C   0  0  0  0  0  0  0  0  0  0  0  0
   -0.4242   17.5833   43.7198 C   0  0  0  0  0  0  0  0  0  0  0  0
    1.9919   17.9757   39.8103 C   0  0  1  0  0  0  0  0  0  0  0  0
    0.6209   18.5285   41.8813 C   0  0  0  0  0  0  0  0  0  0  0  0
   -0.7659   16.4131   44.7610 C   0  0  0  0  0  0  0  0  0  0  0  0
    1.3197   18.2947   40.7628 N   0  0  0  0  0  0  0  0  0  0  0  0
    2.3605   15.4589   40.5312 C   0  0  2  0  0  0  0  0  0  0  0  0
    0.3300   17.4153   42.6660 C   0  0  0  0  0  0  0  0  0  0  0  0
    2.5282   18.7551   38.6323 C   0  0  0  0  0  0  0  0  0  0  0  0
    3.5992   14.2500   39.3379 C   0  0  2  0  0  0  0  0  0  0  0  0
    0.2975   19.7788   42.2136 C   0  0  0  0  0  0  0  0  0  0  0  0
    3.3924   19.3783   36.6567 O   0  0  0  0  0  0  0  0  0  0  0  0
    2.4563   13.1775   41.2191 F   0  0  0  0  0  0  0  0  0  0  0  0
   -0.7991   21.2365   43.8519 O   0  0  0  0  0  0  0  0  0  0  0  0
   -0.4395   19.9625   43.3784 C   0  0  0  0  0  0  0  0  0  0  0  0
    3.1403   18.3175   37.4511 N   0  0  0  0  0  0  0  0  0  0  0  0
    1.8668   21.0975   39.3554 C   0  0  0  0  0  0  0  0  0  0  0  0
    4.6458   13.3836   38.8945 F   0  0  0  0  0  0  0  0  0  0  0  0
    2.6116   22.8601   37.8317 C   0  0  0  0  0  0  0  0  0  0  0  0
    3.5014   15.2892   38.5112 C   0  0  0  0  0  0  0  0  0  0  0  0
    3.0700   21.9446   36.9263 C   0  0  0  0  0  0  0  0  0  0  0  0
    2.8423   15.9287   39.2918 C   0  0  0  0  0  0  0  0  0  0  0  0
    2.0693   22.5064   39.1215 C   0  0  0  0  0  0  0  0  0  0  0  0
    2.2612   16.6748   39.8336 C   0  0  0  0  0  0  0  0  0  0  0  0
    2.9836   20.5398   37.3031 C   0  0  0  0  0  0  0  0  0  0  0  0
    2.0075   14.0170   39.6999 H   0  0  0  0  0  0  0  0  0  0  0  0
   -1.8399   18.9283   44.6202 H   0  0  0  0  0  0  0  0  0  0  0  0
    1.0778   17.7760   39.2320 H   0  0  0  0  0  0  0  0  0  0  0  0
   -0.5046   16.7397   45.7784 H   0  0  0  0  0  0  0  0  0  0  0  0
   -1.8406   16.1831   44.7144 H   0  0  0  0  0  0  0  0  0  0  0  0
   -0.1869   15.5136   44.5046 H   0  0  0  0  0  0  0  0  0  0  0  0
    0.9873   19.1576   40.3089 H   0  0  0  0  0  0  0  0  0  0  0  0
    1.4221   15.1481   40.0486 H   0  0  0  0  0  0  0  0  0  0  0  0
    0.7243   16.4219   42.4058 H   0  0  0  0  0  0  0  0  0  0  0  0
    2.8618   13.6328   38.8037 H   0  0  0  0  0  0  0  0  0  0  0  0
    0.6022   20.6323   41.5901 H   0  0  0  0  0  0  0  0  0  0  0  0
   -1.3248   21.3243   44.6861 H   0  0  0  0  0  0  0  0  0  0  0  0
    1.2768   20.7905   40.2316 H   0  0  0  0  0  0  0  0  0  0  0  0
    2.6587   23.9256   37.5624 H   0  0  0  0  0  0  0  0  0  0  0  0
    2.9688   15.0562   37.5773 H   0  0  0  0  0  0  0  0  0  0  0  0
    4.4230   15.7335   38.1073 H   0  0  0  0  0  0  0  0  0  0  0  0
    3.4857   22.2546   35.9562 H   0  0  0  0  0  0  0  0  0  0  0  0
    1.8251   23.2649   39.8799 H   0  0  0  0  0  0  0  0  0  0  0  0
  1 15  1  0
  2 11  1  0
  2 19  2  0
  3  4  2  0
  4  7  1  0
  5 26  1  0
  5  8  1  0
  6 13  1  0
  6 10  2  0
  8  6  1  0
  9 24  1  0
  9  1  1  0
 10  4  1  0
 11  5  1  0
 12 20  1  0
 12  1  1  0
 13 17  2  0
 14 27  1  0
 14 18  1  0
 17 16  1  0
 17  3  1  0
 18 11  2  0
 21 25  2  0
 22 24  1  0
 22 12  1  0
 23 21  1  0
 23 27  2  0
 24 26  2  0
 25 19  1  0
 26  9  1  0
 27  2  1  0
  1 28  1  1
  3 29  1  0
  5 30  1  6
  7 31  1  0
  7 32  1  0
  7 33  1  0
  8 34  1  0
  9 35  1  6
 10 36  1  0
 12 37  1  6
 13 38  1  0
 16 39  1  0
 19 40  1  0
 21 41  1  0
 22 42  1  0
 22 43  1  0
 23 44  1  0
 25 45  1  0
M  END
>  <mol_id>  (81) 
2026-08-23-6tgu-s0-n100-prep-0082

>  <rmsd_to_ref>  (81) 


$$$$

     RDKit          3D

 76 75  0  0  0  0  0  0  0  0999 V2000
   -0.8900   25.3590   45.0590 C   0  0  0  0  0  0  0  0  0  0  0  0
    4.5080   11.3920   34.5430 C   0  0  0  0  0  0  0  0  0  0  0  0
    1.2770   16.1800   41.6770 C   0  0  0  0  0  0  0  0  0  0  0  0
    5.5380   12.9450   36.2650 C   0  0  0  0  0  0  0  0  0  0  0  0
    3.4150   14.2400   39.9020 S   0  0  0  0  0  0  0  0  0  0  0  0
   -1.1760   25.5990   43.5730 C   0  0  0  0  0  0  0  0  0  0  0  0
    4.0360   15.9010   37.3810 N   0  0  0  0  0  0  0  0  0  0  0  0
    0.8840   22.3790   42.4800 C   0  0  0  0  0  0  0  0  0  0  0  0
    5.2500   14.3050   36.1590 C   0  0  0  0  0  0  0  0  0  0  0  0
    3.1940   18.1130   38.1220 C   0  0  0  0  0  0  0  0  0  0  0  0
    0.7720   18.4120   41.7330 C   0  0  0  0  0  0  0  0  0  0  0  0
    5.7570   12.0530   35.0560 C   0  0  0  0  0  0  0  0  0  0  0  0
    0.5150   20.5910   40.7040 O   0  0  0  0  0  0  0  0  0  0  0  0
   -0.1360   17.8690   42.5990 N   0  0  0  0  0  0  0  0  0  0  0  0
    1.6540   14.7860   41.9710 C   0  0  0  0  0  0  0  0  0  0  0  0
   -0.6780   15.6320   44.8260 C   0  0  0  0  0  0  0  0  0  0  0  0
   -0.3970   21.6810   42.6040 C   0  0  0  0  0  0  0  0  0  0  0  0
    1.2860   21.3880   39.9220 C   0  0  0  0  0  0  0  0  0  0  0  0
    2.8880   15.9540   39.7470 O   0  0  0  0  0  0  0  0  0  0  0  0
    0.7650   23.8860   44.4500 O   0  0  0  0  0  0  0  0  0  0  0  0
   -0.5590   20.9080   41.3090 C   0  0  0  0  0  0  0  0  0  0  0  0
    2.6140   18.3910   38.8800 C   0  0  0  0  0  0  0  0  0  0  0  0
    0.7850   24.7120   42.1790 O   0  0  0  0  0  0  0  0  0  0  0  0
    1.7020   17.2980   41.1090 C   0  0  1  0  0  0  0  0  0  0  0  0
    0.5130   16.5000   42.6210 C   0  0  0  0  0  0  0  0  0  0  0  0
    0.7910   14.0140   43.1480 S   0  0  0  0  0  0  0  0  0  0  0  0
   -1.0800   21.5450   43.5380 O   0  0  0  0  0  0  0  0  0  0  0  0
    4.1510   13.5710   38.4900 C   0  0  0  0  0  0  0  0  0  0  0  0
    4.5250   14.7980   37.2110 C   0  0  0  0  0  0  0  0  0  0  0  0
    0.0160   15.5220   43.6650 N   0  0  0  0  0  0  0  0  0  0  0  0
    0.7090   23.8080   43.1230 C   0  0  0  0  0  0  0  0  0  0  0  0
    3.0970   16.1400   38.5360 C   0  0  0  0  0  0  0  0  0  0  0  0
    2.5900   17.7970   40.2910 C   0  0  0  0  0  0  0  0  0  0  0  0
   -2.0300   24.7680   43.7540 C   0  0  0  0  0  0  0  0  0  0  0  0
    1.9070   21.7130   39.1290 N   0  0  0  0  0  0  0  0  0  0  0  0
    3.5970   18.4710   36.8350 O   0  0  0  0  0  0  0  0  0  0  0  0
   -1.5920   25.9481   45.6673 H   0  0  0  0  0  0  0  0  0  0  0  0
   -1.0137   24.2903   45.2883 H   0  0  0  0  0  0  0  0  0  0  0  0
    0.1410   25.6663   45.2883 H   0  0  0  0  0  0  0  0  0  0  0  0
    3.8906   11.0652   35.3927 H   0  0  0  0  0  0  0  0  0  0  0  0
    3.9397   12.1074   33.9305 H   0  0  0  0  0  0  0  0  0  0  0  0
    4.7799   10.5197   33.9305 H   0  0  0  0  0  0  0  0  0  0  0  0
    6.4575   12.8750   36.8647 H   0  0  0  0  0  0  0  0  0  0  0  0
    4.5929   12.5487   36.6646 H   0  0  0  0  0  0  0  0  0  0  0  0
   -0.3709   25.3106   42.8811 H   0  0  0  0  0  0  0  0  0  0  0  0
   -1.3638   26.5899   43.1339 H   0  0  0  0  0  0  0  0  0  0  0  0
    1.6687   21.8212   43.0121 H   0  0  0  0  0  0  0  0  0  0  0  0
    1.1789   22.4629   41.4236 H   0  0  0  0  0  0  0  0  0  0  0  0
    6.1994   14.8576   36.1023 H   0  0  0  0  0  0  0  0  0  0  0  0
    4.6348   14.4338   35.2563 H   0  0  0  0  0  0  0  0  0  0  0  0
    3.7065   17.1803   38.4001 H   0  0  0  0  0  0  0  0  0  0  0  0
    0.2330   18.9249   40.9228 H   0  0  0  0  0  0  0  0  0  0  0  0
    1.4026   19.1216   42.2887 H   0  0  0  0  0  0  0  0  0  0  0  0
    6.4745   11.2666   35.3331 H   0  0  0  0  0  0  0  0  0  0  0  0
    6.1261   12.7014   34.2477 H   0  0  0  0  0  0  0  0  0  0  0  0
   -0.1377   18.3285   43.5208 H   0  0  0  0  0  0  0  0  0  0  0  0
   -1.1331   17.9240   42.3466 H   0  0  0  0  0  0  0  0  0  0  0  0
    1.5411   14.2077   41.0421 H   0  0  0  0  0  0  0  0  0  0  0  0
    2.6824   14.8413   42.3574 H   0  0  0  0  0  0  0  0  0  0  0  0
    0.0108   15.5228   45.6767 H   0  0  0  0  0  0  0  0  0  0  0  0
   -1.1631   16.6182   44.8712 H   0  0  0  0  0  0  0  0  0  0  0  0
   -1.4443   14.8441   44.8712 H   0  0  0  0  0  0  0  0  0  0  0  0
   -1.1605   21.5237   40.6240 H   0  0  0  0  0  0  0  0  0  0  0  0
   -1.0284   19.9546   41.5929 H   0  0  0  0  0  0  0  0  0  0  0  0
    1.9128   19.2155   38.6836 H   0  0  0  0  0  0  0  0  0  0  0  0
    1.0188   17.1283   40.2638 H   0  0  0  0  0  0  0  0  0  0  0  0
    5.0905   13.0819   38.7870 H   0  0  0  0  0  0  0  0  0  0  0  0
    3.4283   12.8646   38.0555 H   0  0  0  0  0  0  0  0  0  0  0  0
    3.0359   17.2378   38.5026 H   0  0  0  0  0  0  0  0  0  0  0  0
    2.5594   15.2107   38.2964 H   0  0  0  0  0  0  0  0  0  0  0  0
    3.3149   16.9739   40.2073 H   0  0  0  0  0  0  0  0  0  0  0  0
    2.5967   18.7807   40.7833 H   0  0  0  0  0  0  0  0  0  0  0  0
   -2.1782   24.6238   44.8344 H   0  0  0  0  0  0  0  0  0  0  0  0
   -2.9720   25.1046   43.2964 H   0  0  0  0  0  0  0  0  0  0  0  0
   -1.7193   23.8172   43.2964 H   0  0  0  0  0  0  0  0  0  0  0  0
    4.2435   17.9050   36.3433 H   0  0  0  0  0  0  0  0  0  0  0  0
  2 12  1  0
  3 15  1  0
  3 25  2  0
  6 34  1  0
  6  1  1  0
  7 32  1  0
  8 17  1  0
  8 31  1  0
  9  4  1  0
  9 29  1  0
 10 22  2  3
 11 14  1  0
 12  4  1  0
 13 21  1  0
 14 25  1  0
 15 26  1  0
 17 27  2  0
 18 13  1  0
 19  5  1  0
 21 17  1  0
 22 33  1  0
 23 31  2  0
 24 33  1  0
 24  3  1  0
 24 11  1  0
 25 30  1  0
 26 30  1  0
 28  5  1  0
 29  7  2  0
 29 28  1  0
 30 16  1  0
 31 20  1  0
 32 19  1  0
 35 18  3  0
 36 10  1  0
  1 37  1  0
  1 38  1  0
  1 39  1  0
  2 40  1  0
  2 41  1  0
  2 42  1  0
  4 43  1  0
  4 44  1  0
  6 45  1  0
  6 46  1  0
  8 47  1  0
  8 48  1  0
  9 49  1  0
  9 50  1  0
 10 51  1  0
 11 52  1  0
 11 53  1  0
 12 54  1  0
 12 55  1  0
 14 56  1  0
 14 57  1  0
 15 58  1  0
 15 59  1  0
 16 60  1  0
 16 61  1  0
 16 62  1  0
 21 63  1  0
 21 64  1  0
 22 65  1  0
 24 66  1  6
 28 67  1  0
 28 68  1  0
 32 69  1  0
 32 70  1  0
 33 71  1  0
 33 72  1  0
 34 73  1  0
 34 74  1  0
 34 75  1  0
 36 76  1  0
M  CHG  2  14   1  20  -1
M  END
>  <mol_id>  (82) 
2026-08-23-6tgu-s0-n100-prep-0083

>  <rmsd_to_ref>  (82) 


$$$$

     RDKit          3D

 56 59  0  0  0  0  0  0  0  0999 V2000
    0.9560   19.2530   40.8040 C   0  0  0  0  0  0  0  0  0  0  0  0
    0.1570   17.7750   43.0410 C   0  0  0  0  0  0  0  0  0  0  0  0
   -0.5340   15.4960   45.1330 C   0  0  0  0  0  0  0  0  0  0  0  0
    1.3270   21.9860   40.1770 O   0  0  0  0  0  0  0  0  0  0  0  0
   -0.6580   19.7500   44.3120 C   0  0  0  0  0  0  0  0  0  0  0  0
    3.5470   21.0090   35.3730 C   0  0  0  0  0  0  0  0  0  0  0  0
    3.8570   20.2590   36.3420 O   0  0  0  0  0  0  0  0  0  0  0  0
    2.9160   16.6070   38.7750 C   0  0  2  0  0  0  0  0  0  0  0  0
    2.8330   17.6580   39.4640 N   0  0  0  0  0  0  0  0  0  0  0  0
    3.0830   20.1070   37.3970 C   0  0  0  0  0  0  0  0  0  0  0  0
    3.1450   14.0910   39.7030 C   0  0  0  0  0  0  0  0  0  0  0  0
   -1.0170   20.9270   44.3310 O   0  0  0  0  0  0  0  0  0  0  0  0
    0.8360   15.5860   42.9370 C   0  0  1  0  0  0  0  0  0  0  0  0
    0.0870   19.8050   41.7410 C   0  0  0  0  0  0  0  0  0  0  0  0
    2.3630   18.6010   39.0290 N   0  0  0  0  0  0  0  0  0  0  0  0
    1.8460   19.7270   39.7190 C   0  0  0  0  0  0  0  0  0  0  0  0
    2.0430   13.7330   41.8750 C   0  0  0  0  0  0  0  0  0  0  0  0
    3.7830   13.5290   38.5670 C   0  0  0  0  0  0  0  0  0  0  0  0
   -0.5160   19.0330   45.4660 N   0  0  0  0  0  0  0  0  0  0  0  0
    1.5700   15.0440   41.8550 C   0  0  0  0  0  0  0  0  0  0  0  0
    0.4790   15.0380   44.0780 C   0  0  0  0  0  0  0  0  0  0  0  0
    1.8550   21.0710   39.4300 C   0  0  0  0  0  0  0  0  0  0  0  0
    3.1410   17.2830   37.4860 C   0  0  0  0  0  0  0  0  0  0  0  0
    2.4610   21.1540   38.1100 C   0  0  0  0  0  0  0  0  0  0  0  0
    2.6700   15.4260   39.7960 C   0  0  0  0  0  0  0  0  0  0  0  0
    0.5990   16.9100   42.9780 C   0  0  0  0  0  0  0  0  0  0  0  0
    1.9160   15.8350   40.8490 N   0  0  0  0  0  0  0  0  0  0  0  0
   -0.2680   19.1530   43.0380 C   0  0  1  0  0  0  0  0  0  0  0  0
    2.9080   18.6610   37.8330 C   0  0  0  0  0  0  0  0  0  0  0  0
    2.7950   13.1510   40.8330 C   0  0  0  0  0  0  0  0  0  0  0  0
    0.9918   18.1573   40.8948 H   0  0  0  0  0  0  0  0  0  0  0  0
   -0.1259   15.3115   46.1377 H   0  0  0  0  0  0  0  0  0  0  0  0
   -0.7316   16.5710   45.0093 H   0  0  0  0  0  0  0  0  0  0  0  0
   -1.4716   14.9342   45.0093 H   0  0  0  0  0  0  0  0  0  0  0  0
    1.3729   22.9362   39.9029 H   0  0  0  0  0  0  0  0  0  0  0  0
    3.1534   21.9614   35.7578 H   0  0  0  0  0  0  0  0  0  0  0  0
    4.4390   21.2023   34.7590 H   0  0  0  0  0  0  0  0  0  0  0  0
    2.7789   20.5161   34.7590 H   0  0  0  0  0  0  0  0  0  0  0  0
    4.0017   16.5784   38.9495 H   0  0  0  0  0  0  0  0  0  0  0  0
    2.2877   17.4174   40.3040 H   0  0  0  0  0  0  0  0  0  0  0  0
    0.5083   14.7358   42.3207 H   0  0  0  0  0  0  0  0  0  0  0  0
    0.5165   20.7823   42.0064 H   0  0  0  0  0  0  0  0  0  0  0  0
   -0.8704   19.7365   41.2038 H   0  0  0  0  0  0  0  0  0  0  0  0
    1.8163   13.1150   42.7563 H   0  0  0  0  0  0  0  0  0  0  0  0
    4.5709   12.8350   38.8949 H   0  0  0  0  0  0  0  0  0  0  0  0
    3.0427   12.9842   37.9627 H   0  0  0  0  0  0  0  0  0  0  0  0
    4.2300   14.3321   37.9627 H   0  0  0  0  0  0  0  0  0  0  0  0
   -0.2143   18.0489   45.4271 H   0  0  0  0  0  0  0  0  0  0  0  0
   -0.7106   19.4764   46.3751 H   0  0  0  0  0  0  0  0  0  0  0  0
    0.1286   14.0353   43.7921 H   0  0  0  0  0  0  0  0  0  0  0  0
    1.3889   15.2900   44.6424 H   0  0  0  0  0  0  0  0  0  0  0  0
    4.1691   17.1286   37.1266 H   0  0  0  0  0  0  0  0  0  0  0  0
    2.5009   16.9139   36.6711 H   0  0  0  0  0  0  0  0  0  0  0  0
    2.4312   22.1362   37.6157 H   0  0  0  0  0  0  0  0  0  0  0  0
   -1.2832   19.5757   43.0120 H   0  0  0  0  0  0  0  0  0  0  0  0
    3.1027   12.0949   40.8424 H   0  0  0  0  0  0  0  0  0  0  0  0
  1 14  1  0
  5 12  2  0
  5 19  1  0
  6  7  1  0
  7 10  1  0
  8 23  1  0
  8  9  1  0
  8 25  1  0
 10 29  2  0
 10 24  1  0
 11 25  2  0
 11 30  1  0
 13 26  1  0
 13 21  1  0
 14 28  1  0
 15  9  1  0
 15 16  1  0
 16  1  2  0
 18 11  1  0
 20 17  1  0
 20 13  1  0
 21  3  1  0
 22 16  1  0
 22  4  1  0
 23 29  1  0
 24 22  2  0
 25 27  1  0
 26  2  3  0
 27 20  2  0
 28  2  1  0
 28  5  1  0
 29 15  1  0
 30 17  2  0
  1 31  1  0
  3 32  1  0
  3 33  1  0
  3 34  1  0
  4 35  1  0
  6 36  1  0
  6 37  1  0
  6 38  1  0
  8 39  1  1
  9 40  1  0
 13 41  1  6
 14 42  1  0
 14 43  1  0
 17 44  1  0
 18 45  1  0
 18 46  1  0
 18 47  1  0
 19 48  1  0
 19 49  1  0
 21 50  1  0
 21 51  1  0
 23 52  1  0
 23 53  1  0
 24 54  1  0
 28 55  1  6
 30 56  1  0
M  END
>  <mol_id>  (83) 
2026-08-23-6tgu-s0-n100-prep-0084

>  <rmsd_to_ref>  (83) 


$$$$

     RDKit          3D

 41 43  0  0  0  0  0  0  0  0999 V2000
    2.4635   15.0089   40.1023 C   0  0  0  0  0  0  0  0  0  0  0  0
    1.9837   21.9191   35.8076 O   0  0  0  0  0  0  0  0  0  0  0  0
    0.6894   18.3616   40.5710 C   0  0  0  0  0  0  0  0  0  0  0  0
   -0.1901   16.8768   43.8781 C   0  0  0  0  0  0  0  0  0  0  0  0
   -0.9778   17.7887   44.5879 C   0  0  0  0  0  0  0  0  0  0  0  0
    2.3203   21.0274   36.6686 C   0  0  0  0  0  0  0  0  0  0  0  0
    2.9409   19.9638   36.2681 C   0  0  0  0  0  0  0  0  0  0  0  0
    0.3540   17.0528   42.4744 C   0  0  0  0  0  0  0  0  0  0  0  0
    0.0208   15.7800   44.4159 O   0  0  0  0  0  0  0  0  0  0  0  0
    1.6791   16.1163   40.6732 C   0  0  0  0  0  0  0  0  0  0  0  0
    1.5377   17.3983   40.0304 C   0  0  0  0  0  0  0  0  0  0  0  0
   -0.9306   19.2684   42.1800 C   0  0  0  0  0  0  0  0  0  0  0  0
    3.6295   17.7555   36.4913 O   0  0  0  0  0  0  0  0  0  0  0  0
    1.8726   20.1028   38.7218 C   0  0  0  0  0  0  0  0  0  0  0  0
   -0.6297   19.9295   43.5034 C   0  0  0  0  0  0  0  0  0  0  0  0
    2.2306   17.6708   38.9163 O   0  0  0  0  0  0  0  0  0  0  0  0
    2.3551   13.6775   40.7438 C   0  0  0  0  0  0  0  0  0  0  0  0
   -1.1561   19.1416   44.6523 O   0  0  0  0  0  0  0  0  0  0  0  0
    3.0357   18.8953   37.0285 C   0  0  0  0  0  0  0  0  0  0  0  0
    2.3793   18.9127   38.3076 C   0  0  0  0  0  0  0  0  0  0  0  0
    1.8890   21.2399   37.9337 C   0  0  0  0  0  0  0  0  0  0  0  0
    0.0532   18.1816   41.7629 C   0  0  0  0  0  0  0  0  0  0  0  0
    1.0579   16.0555   41.9213 C   0  0  0  0  0  0  0  0  0  0  0  0
    2.1514   14.8934   39.0538 H   0  0  0  0  0  0  0  0  0  0  0  0
    3.5114   15.3049   40.2583 H   0  0  0  0  0  0  0  0  0  0  0  0
    2.2656   21.8266   34.8631 H   0  0  0  0  0  0  0  0  0  0  0  0
    0.5275   19.2985   40.0179 H   0  0  0  0  0  0  0  0  0  0  0  0
   -1.9947   17.4356   44.3614 H   0  0  0  0  0  0  0  0  0  0  0  0
   -0.3249   17.7655   45.4729 H   0  0  0  0  0  0  0  0  0  0  0  0
    3.3994   19.9540   35.2683 H   0  0  0  0  0  0  0  0  0  0  0  0
   -1.9312   18.8160   42.2445 H   0  0  0  0  0  0  0  0  0  0  0  0
   -0.8560   20.0586   41.4184 H   0  0  0  0  0  0  0  0  0  0  0  0
    3.7147   16.9361   37.0403 H   0  0  0  0  0  0  0  0  0  0  0  0
    1.4302   20.1653   39.7270 H   0  0  0  0  0  0  0  0  0  0  0  0
    0.4605   20.0294   43.6109 H   0  0  0  0  0  0  0  0  0  0  0  0
   -1.1219   20.9132   43.5118 H   0  0  0  0  0  0  0  0  0  0  0  0
    2.4925   13.7817   41.8302 H   0  0  0  0  0  0  0  0  0  0  0  0
    1.3618   13.2515   40.5390 H   0  0  0  0  0  0  0  0  0  0  0  0
    3.1306   13.0109   40.3384 H   0  0  0  0  0  0  0  0  0  0  0  0
    1.5790   22.2287   38.3026 H   0  0  0  0  0  0  0  0  0  0  0  0
    1.1530   15.1205   42.4930 H   0  0  0  0  0  0  0  0  0  0  0  0
  1 10  1  0
  1 17  1  0
  2  6  1  0
  3 22  2  0
  4  5  1  0
  4  9  2  0
  6 21  1  0
  7  6  2  0
  7 19  1  0
  8  4  1  0
 10 23  1  0
 11  3  1  0
 11 10  2  0
 12 15  1  0
 13 19  1  0
 15 18  1  0
 16 11  1  0
 18  5  1  0
 19 20  2  0
 20 14  1  0
 20 16  1  0
 21 14  2  0
 22 12  1  0
 22  8  1  0
 23  8  2  0
  1 24  1  0
  1 25  1  0
  2 26  1  0
  3 27  1  0
  5 28  1  0
  5 29  1  0
  7 30  1  0
 12 31  1  0
 12 32  1  0
 13 33  1  0
 14 34  1  0
 15 35  1  0
 15 36  1  0
 17 37  1  0
 17 38  1  0
 17 39  1  0
 21 40  1  0
 23 41  1  0
M  END
>  <mol_id>  (84) 
2026-08-23-6tgu-s0-n100-prep-0085

>  <rmsd_to_ref>  (84) 


$$$$

     RDKit          3D

 46 47  0  0  0  0  0  0  0  0999 V2000
   -0.9890   16.3090   44.2150 C   0  0  0  0  0  0  0  0  0  0  0  0
    3.0220   18.3910   37.9820 C   0  0  0  0  0  0  0  0  0  0  0  0
    1.5960   14.2460   42.1470 C   0  0  0  0  0  0  0  0  0  0  0  0
    2.7890   20.8390   37.5130 C   0  0  0  0  0  0  0  0  0  0  0  0
    3.1930   14.7940   39.5070 C   0  0  0  0  0  0  0  0  0  0  0  0
    1.0130   13.9240   43.1640 O   0  0  0  0  0  0  0  0  0  0  0  0
    0.0840   19.3140   42.6670 C   0  0  0  0  0  0  0  0  0  0  0  0
    2.3830   12.1700   41.8910 O   0  0  0  0  0  0  0  0  0  0  0  0
    1.8800   20.9660   38.7340 C   0  0  0  0  0  0  0  0  0  0  0  0
    3.5690   17.5310   37.4490 O   0  0  0  0  0  0  0  0  0  0  0  0
    0.5260   21.3200   41.5420 S   0  0  0  0  0  0  0  0  0  0  0  0
    0.8910   18.9830   41.5620 C   0  0  0  0  0  0  0  0  0  0  0  0
   -0.8710   20.9260   43.8680 O   0  0  0  0  0  0  0  0  0  0  0  0
    3.8780   20.3790   36.0820 O   0  0  0  0  0  0  0  0  0  0  0  0
    1.2010   20.0430   40.7690 C   0  0  1  0  0  0  0  0  0  0  0  0
    2.4690   18.7000   39.1570 C   0  0  0  0  0  0  0  0  0  0  0  0
   -0.2030   20.5940   42.7870 C   0  0  0  0  0  0  0  0  0  0  0  0
   -0.5840   18.6420   43.6790 O   0  0  0  0  0  0  0  0  0  0  0  0
    2.0530   16.1550   40.7300 C   0  0  0  0  0  0  0  0  0  0  0  0
    2.7110   16.0010   39.6020 N   0  0  0  0  0  0  0  0  0  0  0  0
    2.4050   13.3930   41.4070 C   0  0  2  0  0  0  0  0  0  0  0  0
    1.7630   19.9020   39.4950 C   0  0  0  0  0  0  0  0  0  0  0  0
    0.0320   17.5120   44.2710 C   0  0  0  0  0  0  0  0  0  0  0  0
    3.3990   19.7930   37.1920 C   0  0  0  0  0  0  0  0  0  0  0  0
    1.4940   15.5070   41.7440 C   0  0  0  0  0  0  0  0  0  0  0  0
    3.1620   13.6890   40.3280 C   0  0  0  0  0  0  0  0  0  0  0  0
   -1.2499   16.0016   45.2384 H   0  0  0  0  0  0  0  0  0  0  0  0
   -1.8990   16.6248   43.6838 H   0  0  0  0  0  0  0  0  0  0  0  0
   -0.5294   15.4625   43.6838 H   0  0  0  0  0  0  0  0  0  0  0  0
    2.9164   21.7247   36.8732 H   0  0  0  0  0  0  0  0  0  0  0  0
    3.7425   14.6207   38.5700 H   0  0  0  0  0  0  0  0  0  0  0  0
    2.3837   12.2066   42.8803 H   0  0  0  0  0  0  0  0  0  0  0  0
    1.3499   21.9019   38.9644 H   0  0  0  0  0  0  0  0  0  0  0  0
    1.2392   17.9596   41.3586 H   0  0  0  0  0  0  0  0  0  0  0  0
    4.4656   19.8710   35.4682 H   0  0  0  0  0  0  0  0  0  0  0  0
    2.0852   20.4171   40.2321 H   0  0  0  0  0  0  0  0  0  0  0  0
    1.7540   17.8878   39.3546 H   0  0  0  0  0  0  0  0  0  0  0  0
    3.3854   18.8660   39.7423 H   0  0  0  0  0  0  0  0  0  0  0  0
    1.9121   17.2331   40.8967 H   0  0  0  0  0  0  0  0  0  0  0  0
    3.4868   16.6777   39.5688 H   0  0  0  0  0  0  0  0  0  0  0  0
    2.0623   16.1595   38.8178 H   0  0  0  0  0  0  0  0  0  0  0  0
    1.5529   13.1503   40.7551 H   0  0  0  0  0  0  0  0  0  0  0  0
    0.2897   17.7335   45.3172 H   0  0  0  0  0  0  0  0  0  0  0  0
    0.9540   17.2540   43.7294 H   0  0  0  0  0  0  0  0  0  0  0  0
    0.8262   16.1255   42.3616 H   0  0  0  0  0  0  0  0  0  0  0  0
    3.8845   12.9054   40.0560 H   0  0  0  0  0  0  0  0  0  0  0  0
  1 23  1  0
  2 16  1  0
  3  6  2  0
  4  9  1  0
  5 20  1  0
  5 26  2  0
  7 17  1  0
  7 18  1  0
  9 22  2  0
 10  2  2  0
 11 17  1  0
 12  7  2  0
 14 24  1  0
 15 22  1  0
 15 11  1  0
 15 12  1  0
 16 22  1  0
 17 13  2  0
 18 23  1  0
 19 25  2  0
 20 19  1  0
 21  8  1  0
 21  3  1  0
 24  4  2  0
 24  2  1  0
 25  3  1  0
 26 21  1  0
  1 27  1  0
  1 28  1  0
  1 29  1  0
  4 30  1  0
  5 31  1  0
  8 32  1  0
  9 33  1  0
 12 34  1  0
 14 35  1  0
 15 36  1  1
 16 37  1  0
 16 38  1  0
 19 39  1  0
 20 40  1  0
 20 41  1  0
 21 42  1  6
 23 43  1  0
 23 44  1  0
 25 45  1  0
 26 46  1  0
M  CHG  1  20   1
M  END
>  <mol_id>  (85) 
2026-08-23-6tgu-s0-n100-prep-0086

>  <rmsd_to_ref>  (85) 


$$$$

     RDKit          3D

 49 52  0  0  0  0  0  0  0  0999 V2000
    2.1205   15.8472   41.9512 C   0  0  1  0  0  0  0  0  0  0  0  0
    2.6185   13.5007   41.6460 C   0  0  0  0  0  0  0  0  0  0  0  0
    3.0305   19.3410   36.7068 C   0  0  0  0  0  0  0  0  0  0  0  0
    2.4689   19.8424   37.8304 C   0  0  0  0  0  0  0  0  0  0  0  0
   -1.0695   18.5841   44.8892 F   0  0  0  0  0  0  0  0  0  0  0  0
    2.7161   17.6666   38.9014 C   0  0  0  0  0  0  0  0  0  0  0  0
    2.2486   21.2413   36.1633 N   0  0  0  0  0  0  0  0  0  0  0  0
    2.4237   19.0847   39.0572 C   0  0  2  0  0  0  0  0  0  0  0  0
    0.5857   20.2594   42.3048 C   0  0  0  0  0  0  0  0  0  0  0  0
    1.8884   13.6195   42.8185 C   0  0  0  0  0  0  0  0  0  0  0  0
    1.7613   19.8980   40.2093 C   0  0  0  0  0  0  0  0  0  0  0  0
    0.1865   19.5642   43.5650 C   0  0  1  0  0  0  0  0  0  0  0  0
    0.7727   22.1098   40.8084 C   0  0  0  0  0  0  0  0  0  0  0  0
    3.2747   14.9211   39.8898 O   0  0  0  0  0  0  0  0  0  0  0  0
    1.3198   18.1468   42.2477 C   0  0  0  0  0  0  0  0  0  0  0  0
    3.4903   18.0861   36.6091 C   0  0  0  0  0  0  0  0  0  0  0  0
    0.6980   18.2512   43.4278 C   0  0  0  0  0  0  0  0  0  0  0  0
    0.2833   21.5870   41.9926 C   0  0  0  0  0  0  0  0  0  0  0  0
    3.0571   12.2841   41.2029 C   0  0  0  0  0  0  0  0  0  0  0  0
    2.0477   17.1071   41.7997 N   0  0  0  0  0  0  0  0  0  0  0  0
    1.2863   19.4262   41.4945 C   0  0  0  0  0  0  0  0  0  0  0  0
    3.3030   17.2199   37.6700 C   0  0  0  0  0  0  0  0  0  0  0  0
    1.2333   15.1310   43.2708 S   0  0  0  0  0  0  0  0  0  0  0  0
   -0.3998   20.5353   44.4620 O   0  0  0  0  0  0  0  0  0  0  0  0
    3.7696   15.5822   37.4044 Cl  0  0  0  0  0  0  0  0  0  0  0  0
    3.0007   20.2669   35.7270 N   0  0  0  0  0  0  0  0  0  0  0  0
    2.0101   21.0750   37.4640 C   0  0  0  0  0  0  0  0  0  0  0  0
    1.5379   21.2888   40.0117 C   0  0  0  0  0  0  0  0  0  0  0  0
    2.6573   14.8126   41.0170 C   0  0  0  0  0  0  0  0  0  0  0  0
    3.0862   16.3709   41.8952 H   0  0  0  0  0  0  0  0  0  0  0  0
   -0.9596   18.6644   45.8203 H   0  0  0  0  0  0  0  0  0  0  0  0
    2.4922   16.9540   39.7089 H   0  0  0  0  0  0  0  0  0  0  0  0
    3.1309   18.8155   39.8556 H   0  0  0  0  0  0  0  0  0  0  0  0
    1.0438   12.9193   42.7384 H   0  0  0  0  0  0  0  0  0  0  0  0
    2.6361   13.4250   43.6014 H   0  0  0  0  0  0  0  0  0  0  0  0
   -0.3677   19.0439   44.3601 H   0  0  0  0  0  0  0  0  0  0  0  0
    0.5572   23.1474   40.5135 H   0  0  0  0  0  0  0  0  0  0  0  0
    3.3211   15.7983   39.4332 H   0  0  0  0  0  0  0  0  0  0  0  0
    4.0087   17.7505   35.6988 H   0  0  0  0  0  0  0  0  0  0  0  0
    0.6000   17.4467   44.1715 H   0  0  0  0  0  0  0  0  0  0  0  0
   -0.3280   22.2009   42.6704 H   0  0  0  0  0  0  0  0  0  0  0  0
    3.4326   11.6975   42.0543 H   0  0  0  0  0  0  0  0  0  0  0  0
    2.2251   11.7460   40.7254 H   0  0  0  0  0  0  0  0  0  0  0  0
    3.8667   12.4301   40.4727 H   0  0  0  0  0  0  0  0  0  0  0  0
    3.0034   17.4012   42.0470 H   0  0  0  0  0  0  0  0  0  0  0  0
    1.4932   17.0236   40.9357 H   0  0  0  0  0  0  0  0  0  0  0  0
   -0.0922   20.3586   45.3863 H   0  0  0  0  0  0  0  0  0  0  0  0
    1.5264   21.8059   38.1286 H   0  0  0  0  0  0  0  0  0  0  0  0
    2.0227   21.7520   39.1396 H   0  0  0  0  0  0  0  0  0  0  0  0
  1 20  1  0
  1 23  1  0
  2 10  1  0
  3  4  1  0
  4  8  1  0
  6  8  1  0
  7 27  1  0
  8 11  1  0
  9 12  1  0
 10 23  1  0
 11 21  2  0
 12 24  1  0
 13 18  1  0
 14 29  1  0
 15 17  2  0
 16  3  2  0
 16 22  1  0
 17 12  1  0
 18  9  2  0
 19  2  1  0
 20 15  1  0
 21 15  1  0
 21  9  1  0
 22  6  2  0
 25 22  1  0
 26  7  2  0
 26  3  1  0
 27  4  2  0
 28 11  1  0
 28 13  2  0
 29  2  2  0
 29  1  1  0
  1 30  1  1
  5 31  1  0
  6 32  1  0
  8 33  1  1
 10 34  1  0
 10 35  1  0
 12 36  1  6
 13 37  1  0
 14 38  1  0
 16 39  1  0
 17 40  1  0
 18 41  1  0
 19 42  1  0
 19 43  1  0
 19 44  1  0
 20 45  1  0
 20 46  1  0
 24 47  1  0
 27 48  1  0
 28 49  1  0
M  CHG  1  20   1
M  END
>  <mol_id>  (86) 
2026-08-23-6tgu-s0-n100-prep-0087

>  <rmsd_to_ref>  (86) 


$$$$

     RDKit          3D

 31 32  0  0  0  0  0  0  0  0999 V2000
    2.3645   14.1331   41.4796 C   0  0  0  0  0  0  0  0  0  0  0  0
    2.3368   21.2937   39.0628 C   0  0  0  0  0  0  0  0  0  0  0  0
    3.2120   19.0342   38.2558 C   0  0  0  0  0  0  0  0  0  0  0  0
    0.3844   17.5157   42.0914 S   0  0  0  0  0  0  0  0  0  0  0  0
    2.3763   19.7470   39.1675 C   0  0  1  0  0  0  0  0  0  0  0  0
    3.1288   16.5876   39.2833 C   0  0  0  0  0  0  0  0  0  0  0  0
    0.7534   15.8330   42.2984 C   0  0  0  0  0  0  0  0  0  0  0  0
    3.4804   20.7680   36.4768 O   0  0  0  0  0  0  0  0  0  0  0  0
    1.3819   13.0272   41.9272 C   0  0  0  0  0  0  0  0  0  0  0  0
    3.5450   13.7609   41.2650 O   0  0  0  0  0  0  0  0  0  0  0  0
    0.9473   20.2926   41.1485 C   0  0  0  0  0  0  0  0  0  0  0  0
    1.5666   17.8807   40.8839 C   0  0  0  0  0  0  0  0  0  0  0  0
    1.8431   15.4462   41.3689 C   0  0  0  0  0  0  0  0  0  0  0  0
    3.5139   17.6596   38.4399 C   0  0  0  0  0  0  0  0  0  0  0  0
    3.8541   19.6691   36.9307 C   0  0  0  0  0  0  0  0  0  0  0  0
    1.6881   19.2409   40.3378 C   0  0  0  0  0  0  0  0  0  0  0  0
    4.7617   18.9918   36.3497 O   0  0  0  0  0  0  0  0  0  0  0  0
    2.2649   16.6467   40.4385 C   0  0  0  0  0  0  0  0  0  0  0  0
    2.2065   21.7258   40.0660 H   0  0  0  0  0  0  0  0  0  0  0  0
    3.2797   21.6558   38.6272 H   0  0  0  0  0  0  0  0  0  0  0  0
    1.4962   21.5965   38.4211 H   0  0  0  0  0  0  0  0  0  0  0  0
    1.9066   18.9253   38.6069 H   0  0  0  0  0  0  0  0  0  0  0  0
    3.5347   15.5975   39.0287 H   0  0  0  0  0  0  0  0  0  0  0  0
    0.2559   15.1571   43.0094 H   0  0  0  0  0  0  0  0  0  0  0  0
    1.2962   13.0347   43.0238 H   0  0  0  0  0  0  0  0  0  0  0  0
    0.3936   13.2121   41.4809 H   0  0  0  0  0  0  0  0  0  0  0  0
    1.7565   12.0476   41.5954 H   0  0  0  0  0  0  0  0  0  0  0  0
    0.9683   20.0168   42.2132 H   0  0  0  0  0  0  0  0  0  0  0  0
    1.4339   21.2698   41.0132 H   0  0  0  0  0  0  0  0  0  0  0  0
   -0.0962   20.3519   40.8056 H   0  0  0  0  0  0  0  0  0  0  0  0
    4.2703   17.3284   37.7131 H   0  0  0  0  0  0  0  0  0  0  0  0
  1  9  1  0
  3 14  2  0
  3  5  1  0
  4  7  1  0
  5  2  1  0
  5 16  1  0
  6 18  2  0
  8 15  1  0
 10  1  2  0
 12  4  1  0
 13  1  1  0
 13  7  2  0
 14  6  1  0
 15  3  1  0
 16 12  2  0
 16 11  1  0
 17 15  2  0
 18 12  1  0
 18 13  1  0
  2 19  1  0
  2 20  1  0
  2 21  1  0
  5 22  1  6
  6 23  1  0
  7 24  1  0
  9 25  1  0
  9 26  1  0
  9 27  1  0
 11 28  1  0
 11 29  1  0
 11 30  1  0
 14 31  1  0
M  CHG  1   8  -1
M  END
>  <mol_id>  (87) 
2026-08-23-6tgu-s0-n100-prep-0088

>  <rmsd_to_ref>  (87) 


$$$$

     RDKit          3D

 67 72  0  0  0  0  0  0  0  0999 V2000
    1.1156   21.0297   42.3470 O   0  0  0  0  0  0  0  0  0  0  0  0
    0.2987   17.9007   41.7862 N   0  0  0  0  0  0  0  0  0  0  0  0
   -1.2815   14.1572   48.3124 C   0  0  0  0  0  0  0  0  0  0  0  0
    0.0161   17.1443   42.8644 C   0  0  1  0  0  0  0  0  0  0  0  0
    4.6063   15.8092   38.6512 C   0  0  0  0  0  0  0  0  0  0  0  0
   -1.2352   15.0153   47.1088 C   0  0  0  0  0  0  0  0  0  0  0  0
   -0.6209   19.0462   44.2882 O   0  0  0  0  0  0  0  0  0  0  0  0
   -0.6428   15.5860   44.8299 C   0  0  0  0  0  0  0  0  0  0  0  0
    2.9148   14.2152   41.9829 N   0  0  0  0  0  0  0  0  0  0  0  0
    4.2504   14.5785   39.8570 S   0  0  0  0  0  0  0  0  0  0  0  0
    1.0525   20.5049   39.9885 C   0  0  0  0  0  0  0  0  0  0  0  0
    3.3003   20.7876   35.1447 C   0  0  0  0  0  0  0  0  0  0  0  0
    1.9714   14.1594   42.9304 N   0  0  0  0  0  0  0  0  0  0  0  0
   -1.0337   12.9509   48.0721 O   0  0  0  0  0  0  0  0  0  0  0  0
    0.0563   14.4635   44.7211 C   0  0  0  0  0  0  0  0  0  0  0  0
   -0.6732   14.5413   45.8963 C   0  0  0  0  0  0  0  0  0  0  0  0
   -1.7556   17.1712   46.2274 C   0  0  0  0  0  0  0  0  0  0  0  0
    3.2406   19.0112   37.2892 C   0  0  0  0  0  0  0  0  0  0  0  0
    2.3009   21.3534   37.3245 C   0  0  0  0  0  0  0  0  0  0  0  0
    1.8364   16.2331   41.3527 C   0  0  0  0  0  0  0  0  0  0  0  0
    3.7065   20.5270   36.0039 O   0  0  0  0  0  0  0  0  0  0  0  0
    1.3392   14.9050   42.6187 C   0  0  0  0  0  0  0  0  0  0  0  0
    0.6828   18.9191   41.6993 N   0  0  0  0  0  0  0  0  0  0  0  0
   -1.3015   14.6465   49.4987 O   0  0  0  0  0  0  0  0  0  0  0  0
    0.9706   16.1373   42.4982 C   0  0  0  0  0  0  0  0  0  0  0  0
    3.8909   18.0946   38.3699 C   0  0  0  0  0  0  0  0  0  0  0  0
    3.4684   16.7512   38.6068 C   0  0  0  0  0  0  0  0  0  0  0  0
   -0.6187   17.8380   44.0941 C   0  0  0  0  0  0  0  0  0  0  0  0
    0.5866   20.2541   41.3429 C   0  0  1  0  0  0  0  0  0  0  0  0
    1.4483   19.7594   39.0482 C   0  0  0  0  0  0  0  0  0  0  0  0
    2.8666   21.0388   35.7633 C   0  0  1  0  0  0  0  0  0  0  0  0
   -0.3431   21.1764   41.7414 C   0  0  0  0  0  0  0  0  0  0  0  0
   -1.9267   16.2954   47.2891 C   0  0  0  0  0  0  0  0  0  0  0  0
    2.8790   15.0901   41.0368 C   0  0  0  0  0  0  0  0  0  0  0  0
    2.7033   20.2939   38.2178 C   0  0  1  0  0  0  0  0  0  0  0  0
   -1.0603   16.8230   45.1017 C   0  0  0  0  0  0  0  0  0  0  0  0
    0.9829   17.3355   41.2632 H   0  0  0  0  0  0  0  0  0  0  0  0
   -0.8144   16.5943   43.3310 H   0  0  0  0  0  0  0  0  0  0  0  0
    4.7392   15.3385   37.6659 H   0  0  0  0  0  0  0  0  0  0  0  0
    5.5323   16.3423   38.9125 H   0  0  0  0  0  0  0  0  0  0  0  0
    0.2151   21.0553   39.5347 H   0  0  0  0  0  0  0  0  0  0  0  0
    2.0557   20.8471   40.2825 H   0  0  0  0  0  0  0  0  0  0  0  0
    2.8869   19.9993   34.4984 H   0  0  0  0  0  0  0  0  0  0  0  0
    3.7141   21.3291   34.2812 H   0  0  0  0  0  0  0  0  0  0  0  0
    1.8996   13.5380   43.7487 H   0  0  0  0  0  0  0  0  0  0  0  0
   -0.2400   13.7259   43.9608 H   0  0  0  0  0  0  0  0  0  0  0  0
    1.1230   14.2770   44.5283 H   0  0  0  0  0  0  0  0  0  0  0  0
   -2.1932   18.1783   46.2925 H   0  0  0  0  0  0  0  0  0  0  0  0
    3.9792   19.3378   36.5423 H   0  0  0  0  0  0  0  0  0  0  0  0
    2.4500   18.5207   36.7024 H   0  0  0  0  0  0  0  0  0  0  0  0
    2.7196   22.3070   37.6784 H   0  0  0  0  0  0  0  0  0  0  0  0
    1.2027   21.4123   37.3056 H   0  0  0  0  0  0  0  0  0  0  0  0
    1.7713   17.1099   40.6917 H   0  0  0  0  0  0  0  0  0  0  0  0
    1.3274   14.6461   41.5496 H   0  0  0  0  0  0  0  0  0  0  0  0
    0.9128   14.9159   43.6326 H   0  0  0  0  0  0  0  0  0  0  0  0
    0.9216   19.0597   42.6912 H   0  0  0  0  0  0  0  0  0  0  0  0
    4.9592   18.0357   38.1144 H   0  0  0  0  0  0  0  0  0  0  0  0
    3.5750   18.5916   39.2990 H   0  0  0  0  0  0  0  0  0  0  0  0
    2.7870   16.4461   37.7989 H   0  0  0  0  0  0  0  0  0  0  0  0
    2.9665   16.7219   39.5852 H   0  0  0  0  0  0  0  0  0  0  0  0
    1.7205   18.7857   39.4815 H   0  0  0  0  0  0  0  0  0  0  0  0
    0.6144   19.7137   38.3324 H   0  0  0  0  0  0  0  0  0  0  0  0
    2.2978   20.0974   35.7467 H   0  0  0  0  0  0  0  0  0  0  0  0
   -0.6029   22.0295   41.0974 H   0  0  0  0  0  0  0  0  0  0  0  0
   -1.3770   21.1693   42.1168 H   0  0  0  0  0  0  0  0  0  0  0  0
   -2.5237   16.5379   48.1806 H   0  0  0  0  0  0  0  0  0  0  0  0
    3.4773   20.6767   38.8992 H   0  0  0  0  0  0  0  0  0  0  0  0
  2  4  1  0
  3 24  1  0
  4 28  1  0
  5 27  1  0
  5 10  1  0
  6 33  1  0
  6  3  1  0
  8 36  2  0
  8 16  1  0
  9 13  1  0
 10 34  1  0
 12 31  1  0
 12 21  1  0
 14  3  2  0
 15  8  1  0
 15 16  1  0
 16  6  2  0
 17 33  2  0
 18 26  1  0
 18 35  1  0
 20 25  2  0
 22 13  1  0
 23  2  1  0
 25 22  1  0
 25  4  1  0
 26 27  1  0
 28  7  2  0
 28 36  1  0
 29 11  1  0
 29 23  1  0
 29 32  1  0
 29  1  1  1
 30 11  1  0
 31 21  1  0
 31 19  1  0
 32  1  1  0
 34 20  1  0
 34  9  2  0
 35 19  1  0
 35 30  1  0
 36 17  1  0
  2 37  1  0
  4 38  1  6
  5 39  1  0
  5 40  1  0
 11 41  1  0
 11 42  1  0
 12 43  1  0
 12 44  1  0
 13 45  1  0
 15 46  1  0
 15 47  1  0
 17 48  1  0
 18 49  1  0
 18 50  1  0
 19 51  1  0
 19 52  1  0
 20 53  1  0
 22 54  1  0
 22 55  1  0
 23 56  1  0
 26 57  1  0
 26 58  1  0
 27 59  1  0
 27 60  1  0
 30 61  1  0
 30 62  1  0
 31 63  1  6
 32 64  1  0
 32 65  1  0
 33 66  1  0
 35 67  1  1
M  CHG  1  24  -1
M  END
>  <mol_id>  (88) 
2026-08-23-6tgu-s0-n100-prep-0089

>  <rmsd_to_ref>  (88) 


$$$$

     RDKit          3D

 36 37  0  0  0  0  0  0  0  0999 V2000
    0.5277   20.6520   41.0153 C   0  0  0  0  0  0  0  0  0  0  0  0
    1.2691   14.6641   41.8560 Cl  0  0  0  0  0  0  0  0  0  0  0  0
    0.4383   16.0606   42.2216 C   0  0  0  0  0  0  0  0  0  0  0  0
    3.5308   20.0784   37.4882 C   0  0  0  0  0  0  0  0  0  0  0  0
   -1.2791   18.1107   43.2473 C   0  0  0  0  0  0  0  0  0  0  0  0
    0.5327   17.4443   41.6577 C   0  0  2  0  0  0  0  0  0  0  0  0
    3.0827   19.3477   38.8870 C   0  0  2  0  0  0  0  0  0  0  0  0
    1.5717   17.8801   40.5107 C   0  0  0  0  0  0  0  0  0  0  0  0
    4.8879   17.9091   39.0129 C   0  0  0  0  0  0  0  0  0  0  0  0
    2.8034   20.9857   37.2980 O   0  0  0  0  0  0  0  0  0  0  0  0
   -0.2833   18.4653   42.2611 C   0  0  0  0  0  0  0  0  0  0  0  0
    4.5037   19.7978   36.6563 N   0  0  0  0  0  0  0  0  0  0  0  0
   -1.3930   16.7982   43.6902 C   0  0  0  0  0  0  0  0  0  0  0  0
   -0.1287   19.9200   41.8106 C   0  0  0  0  0  0  0  0  0  0  0  0
    1.9532   16.6267   40.3487 O   0  0  0  0  0  0  0  0  0  0  0  0
    1.8399   19.0899   39.6751 C   0  0  0  0  0  0  0  0  0  0  0  0
    1.2968   20.3204   39.7510 C   0  0  0  0  0  0  0  0  0  0  0  0
    3.8059   19.0032   39.7023 C   0  0  0  0  0  0  0  0  0  0  0  0
    4.4962   20.5886   35.5490 O   0  0  0  0  0  0  0  0  0  0  0  0
   -0.6297   15.7532   43.2237 C   0  0  0  0  0  0  0  0  0  0  0  0
    0.5436   21.7173   41.2887 H   0  0  0  0  0  0  0  0  0  0  0  0
   -1.9503   18.8839   43.6493 H   0  0  0  0  0  0  0  0  0  0  0  0
   -0.2071   17.1808   40.8874 H   0  0  0  0  0  0  0  0  0  0  0  0
    2.8773   19.4267   37.8092 H   0  0  0  0  0  0  0  0  0  0  0  0
    5.2852   17.2445   39.7942 H   0  0  0  0  0  0  0  0  0  0  0  0
    4.3677   17.3096   38.2513 H   0  0  0  0  0  0  0  0  0  0  0  0
    5.7165   18.4593   38.5433 H   0  0  0  0  0  0  0  0  0  0  0  0
    5.2001   19.0573   36.8229 H   0  0  0  0  0  0  0  0  0  0  0  0
   -2.1432   16.5807   44.4649 H   0  0  0  0  0  0  0  0  0  0  0  0
   -0.8343   20.5471   42.3753 H   0  0  0  0  0  0  0  0  0  0  0  0
    2.6462   16.4030   39.6780 H   0  0  0  0  0  0  0  0  0  0  0  0
    1.4061   21.0498   38.9350 H   0  0  0  0  0  0  0  0  0  0  0  0
    4.3547   19.8679   40.1038 H   0  0  0  0  0  0  0  0  0  0  0  0
    3.2538   18.5265   40.5256 H   0  0  0  0  0  0  0  0  0  0  0  0
    4.1689   21.4912   35.7903 H   0  0  0  0  0  0  0  0  0  0  0  0
   -0.7989   14.7249   43.5758 H   0  0  0  0  0  0  0  0  0  0  0  0
  1 14  1  0
  2  3  1  0
  3 20  2  0
  4  7  1  0
  5 13  2  0
  6  8  1  0
  6  3  1  0
  6 11  1  0
  7 18  1  0
  7 16  1  0
  9 18  1  0
 10  4  2  0
 11  5  1  0
 12  4  1  0
 14 11  2  0
 15  8  1  0
 16 17  1  0
 16  8  2  0
 17  1  2  0
 19 12  1  0
 20 13  1  0
  1 21  1  0
  5 22  1  0
  6 23  1  6
  7 24  1  6
  9 25  1  0
  9 26  1  0
  9 27  1  0
 12 28  1  0
 13 29  1  0
 14 30  1  0
 15 31  1  0
 17 32  1  0
 18 33  1  0
 18 34  1  0
 19 35  1  0
 20 36  1  0
M  END
>  <mol_id>  (89) 
2026-08-23-6tgu-s0-n100-prep-0090

>  <rmsd_to_ref>  (89) 


$$$$

     RDKit          3D

 52 55  0  0  0  0  0  0  0  0999 V2000
    2.8670   20.7670   37.2790 C   0  0  0  0  0  0  0  0  0  0  0  0
    1.4830   15.8100   41.9350 C   0  0  0  0  0  0  0  0  0  0  0  0
    4.6800   17.1190   36.6280 C   0  0  0  0  0  0  0  0  0  0  0  0
    1.6530   20.3630   40.3370 C   0  0  1  0  0  0  0  0  0  0  0  0
    2.6590   16.2860   39.6340 C   0  0  0  0  0  0  0  0  0  0  0  0
    1.8660   21.2810   38.1840 C   0  0  0  0  0  0  0  0  0  0  0  0
    0.4800   19.5550   42.3820 C   0  0  1  0  0  0  0  0  0  0  0  0
    3.6700   15.2350   37.8710 C   0  0  0  0  0  0  0  0  0  0  0  0
    0.1460   21.6050   41.7310 O   0  0  0  0  0  0  0  0  0  0  0  0
   -1.0120   15.7010   44.4600 C   0  0  0  0  0  0  0  0  0  0  0  0
    1.0760   16.8720   42.9590 C   0  0  0  0  0  0  0  0  0  0  0  0
    0.9530   18.1880   42.1630 N   0  0  0  0  0  0  0  0  0  0  0  0
    1.9950   16.5940   40.7800 C   0  0  0  0  0  0  0  0  0  0  0  0
    3.0100   18.6780   39.0770 C   0  0  0  0  0  0  0  0  0  0  0  0
    3.5290   20.4770   36.4080 N   0  0  0  0  0  0  0  0  0  0  0  0
    3.2320   17.2730   38.7660 C   0  0  0  0  0  0  0  0  0  0  0  0
    2.0460   21.3820   39.5680 O   0  0  0  0  0  0  0  0  0  0  0  0
    0.7580   20.5600   41.5110 C   0  0  0  0  0  0  0  0  0  0  0  0
   -0.5110   18.1030   45.3400 C   0  0  0  0  0  0  0  0  0  0  0  0
   -0.3340   19.8660   43.6130 C   0  0  0  0  0  0  0  0  0  0  0  0
   -0.1210   14.6090   44.6630 O   0  0  0  0  0  0  0  0  0  0  0  0
   -1.0940   16.6900   45.6110 C   0  0  0  0  0  0  0  0  0  0  0  0
    2.9800   14.9970   38.9680 C   0  0  0  0  0  0  0  0  0  0  0  0
    3.8310   16.5660   37.7560 N   0  0  0  0  0  0  0  0  0  0  0  0
   -1.1980   18.8400   44.2400 N   0  0  0  0  0  0  0  0  0  0  0  0
    1.7360   17.9870   40.9770 C   0  0  0  0  0  0  0  0  0  0  0  0
    2.1450   18.9840   40.0910 C   0  0  0  0  0  0  0  0  0  0  0  0
    2.2688   15.1566   42.3420 H   0  0  0  0  0  0  0  0  0  0  0  0
    0.6480   15.1494   41.6587 H   0  0  0  0  0  0  0  0  0  0  0  0
    5.5318   17.6738   37.0483 H   0  0  0  0  0  0  0  0  0  0  0  0
    5.0523   16.2896   36.0087 H   0  0  0  0  0  0  0  0  0  0  0  0
    4.0719   17.7948   36.0087 H   0  0  0  0  0  0  0  0  0  0  0  0
    2.5317   20.5109   40.9820 H   0  0  0  0  0  0  0  0  0  0  0  0
    1.6435   22.3006   37.8361 H   0  0  0  0  0  0  0  0  0  0  0  0
    1.1038   20.4899   38.1273 H   0  0  0  0  0  0  0  0  0  0  0  0
    1.4030   19.7859   42.9340 H   0  0  0  0  0  0  0  0  0  0  0  0
    4.0490   14.4766   37.1702 H   0  0  0  0  0  0  0  0  0  0  0  0
   -0.6823   16.2476   43.5642 H   0  0  0  0  0  0  0  0  0  0  0  0
   -2.0159   15.2624   44.3615 H   0  0  0  0  0  0  0  0  0  0  0  0
    0.1125   16.6109   43.4211 H   0  0  0  0  0  0  0  0  0  0  0  0
    1.8105   16.9554   43.7736 H   0  0  0  0  0  0  0  0  0  0  0  0
    3.5233   19.4705   38.5126 H   0  0  0  0  0  0  0  0  0  0  0  0
   -0.5988   18.6965   46.2620 H   0  0  0  0  0  0  0  0  0  0  0  0
    0.5338   17.9623   45.0259 H   0  0  0  0  0  0  0  0  0  0  0  0
    0.3797   20.1874   44.3859 H   0  0  0  0  0  0  0  0  0  0  0  0
   -1.0643   20.5987   43.2390 H   0  0  0  0  0  0  0  0  0  0  0  0
    0.0014   14.4590   45.6339 H   0  0  0  0  0  0  0  0  0  0  0  0
   -2.1547   16.8094   45.8766 H   0  0  0  0  0  0  0  0  0  0  0  0
   -0.4732   16.2629   46.4124 H   0  0  0  0  0  0  0  0  0  0  0  0
    2.6877   14.0014   39.3331 H   0  0  0  0  0  0  0  0  0  0  0  0
   -2.0333   19.3033   44.6253 H   0  0  0  0  0  0  0  0  0  0  0  0
   -1.4445   18.1539   43.5124 H   0  0  0  0  0  0  0  0  0  0  0  0
  1  6  1  0
  2 11  1  0
  3 24  1  0
  4 17  1  0
  4 18  1  0
  5 13  2  0
  6 17  1  0
  7 20  1  0
  8 23  2  0
 10 21  1  0
 10 22  1  0
 12  7  1  0
 12 11  1  0
 13 26  1  0
 13  2  1  0
 14 27  1  0
 15  1  3  0
 16 14  2  0
 16  5  1  0
 18  9  2  0
 18  7  1  0
 19 22  1  0
 20 25  1  0
 23  5  1  0
 24  8  1  0
 24 16  1  0
 25 19  1  0
 26 12  1  0
 27  4  1  0
 27 26  2  0
  2 28  1  0
  2 29  1  0
  3 30  1  0
  3 31  1  0
  3 32  1  0
  4 33  1  6
  6 34  1  0
  6 35  1  0
  7 36  1  1
  8 37  1  0
 10 38  1  0
 10 39  1  0
 11 40  1  0
 11 41  1  0
 14 42  1  0
 19 43  1  0
 19 44  1  0
 20 45  1  0
 20 46  1  0
 21 47  1  0
 22 48  1  0
 22 49  1  0
 23 50  1  0
 25 51  1  0
 25 52  1  0
M  CHG  1  25   1
M  END
>  <mol_id>  (90) 
2026-08-23-6tgu-s0-n100-prep-0092

>  <rmsd_to_ref>  (90) 


$$$$

     RDKit          3D

 40 42  0  0  0  0  0  0  0  0999 V2000
   -0.4409   16.1347   45.7435 C   0  0  0  0  0  0  0  0  0  0  0  0
    4.0578   15.7816   38.0833 C   0  0  0  0  0  0  0  0  0  0  0  0
    3.1945   20.8512   36.9336 C   0  0  0  0  0  0  0  0  0  0  0  0
    3.0561   16.4330   39.0183 O   0  0  0  0  0  0  0  0  0  0  0  0
   -0.7134   17.4349   46.0816 C   0  0  0  0  0  0  0  0  0  0  0  0
    1.0810   19.5015   42.2787 N   0  0  0  0  0  0  0  0  0  0  0  0
    2.3037   18.2823   40.1909 C   0  0  0  0  0  0  0  0  0  0  0  0
    0.2964   19.4216   43.3281 C   0  0  0  0  0  0  0  0  0  0  0  0
    2.7818   17.7754   39.0187 C   0  0  0  0  0  0  0  0  0  0  0  0
    3.4818   21.5095   36.0181 N   0  0  0  0  0  0  0  0  0  0  0  0
    1.4910   20.2526   41.4249 N   0  0  0  0  0  0  0  0  0  0  0  0
    2.0399   19.7238   40.2470 C   0  0  0  0  0  0  0  0  0  0  0  0
    0.3224   16.9150   43.5718 C   0  0  0  0  0  0  0  0  0  0  0  0
    0.1109   15.8602   44.4502 C   0  0  0  0  0  0  0  0  0  0  0  0
   -0.2313   20.3781   44.0416 C   0  0  0  0  0  0  0  0  0  0  0  0
    2.8561   19.9585   38.0484 C   0  0  0  0  0  0  0  0  0  0  0  0
    3.0616   18.5306   37.8534 C   0  0  0  0  0  0  0  0  0  0  0  0
    3.6439   18.0851   36.7823 O   0  0  0  0  0  0  0  0  0  0  0  0
    0.1063   18.1777   43.9475 C   0  0  0  0  0  0  0  0  0  0  0  0
    3.3514   13.4295   36.8334 C   0  0  0  0  0  0  0  0  0  0  0  0
    2.3489   20.5610   39.1276 C   0  0  0  0  0  0  0  0  0  0  0  0
   -0.6474   19.7749   45.1964 N   0  0  0  0  0  0  0  0  0  0  0  0
    3.6321   14.5531   37.4443 C   0  0  0  0  0  0  0  0  0  0  0  0
   -0.4581   18.5213   45.2050 C   0  0  0  0  0  0  0  0  0  0  0  0
   -0.6420   15.3175   46.4519 H   0  0  0  0  0  0  0  0  0  0  0  0
    4.2977   16.5061   37.2912 H   0  0  0  0  0  0  0  0  0  0  0  0
    4.9129   15.5027   38.7165 H   0  0  0  0  0  0  0  0  0  0  0  0
   -1.7891   17.4722   46.3086 H   0  0  0  0  0  0  0  0  0  0  0  0
    0.0170   17.6166   46.8838 H   0  0  0  0  0  0  0  0  0  0  0  0
    2.1227   17.6345   41.0613 H   0  0  0  0  0  0  0  0  0  0  0  0
    0.6736   16.7067   42.5504 H   0  0  0  0  0  0  0  0  0  0  0  0
    0.3631   14.8302   44.1576 H   0  0  0  0  0  0  0  0  0  0  0  0
   -0.3220   21.4408   43.7724 H   0  0  0  0  0  0  0  0  0  0  0  0
    3.7783   17.1118   36.6603 H   0  0  0  0  0  0  0  0  0  0  0  0
    3.1975   12.6354   37.5789 H   0  0  0  0  0  0  0  0  0  0  0  0
    2.4357   13.5551   36.2371 H   0  0  0  0  0  0  0  0  0  0  0  0
    4.1854   13.1540   36.1712 H   0  0  0  0  0  0  0  0  0  0  0  0
    2.1771   21.6472   39.1547 H   0  0  0  0  0  0  0  0  0  0  0  0
    2.8487   15.0845   36.8840 H   0  0  0  0  0  0  0  0  0  0  0  0
    3.8562   13.9961   38.3660 H   0  0  0  0  0  0  0  0  0  0  0  0
  1  5  1  0
  2  4  1  0
  3 16  1  0
  6  8  1  0
  7 12  2  0
  8 19  1  0
  8 15  2  0
  9  4  1  0
  9  7  1  0
 10  3  3  0
 11  6  2  3
 12 11  1  0
 13 19  2  0
 13 14  1  0
 14  1  2  0
 15 22  1  0
 16 21  2  0
 17 16  1  0
 17  9  2  0
 18 17  1  0
 19 24  1  0
 20 23  1  0
 21 12  1  0
 22 24  2  0
 23  2  1  0
 24  5  1  0
  1 25  1  0
  2 26  1  0
  2 27  1  0
  5 28  1  0
  5 29  1  0
  7 30  1  0
 13 31  1  0
 14 32  1  0
 15 33  1  0
 18 34  1  0
 20 35  1  0
 20 36  1  0
 20 37  1  0
 21 38  1  0
 23 39  1  0
 23 40  1  0
M  END
>  <mol_id>  (91) 
2026-08-23-6tgu-s0-n100-prep-0093

>  <rmsd_to_ref>  (91) 


$$$$

     RDKit          3D

 33 34  0  0  0  0  0  0  0  0999 V2000
    0.1646   13.7566   43.1021 C   0  0  0  0  0  0  0  0  0  0  0  0
    2.9825   18.1255   38.9547 N   0  0  0  0  0  0  0  0  0  0  0  0
   -2.2194   18.8872   42.9840 O   0  0  0  0  0  0  0  0  0  0  0  0
    3.2423   19.7744   37.3417 C   0  0  0  0  0  0  0  0  0  0  0  0
    0.1161   15.2749   42.4734 O   0  0  0  0  0  0  0  0  0  0  0  0
    4.0268   21.1656   35.5513 C   0  0  0  0  0  0  0  0  0  0  0  0
    1.7238   20.0382   39.0639 N   0  0  0  0  0  0  0  0  0  0  0  0
    0.1967   16.5549   42.1241 C   0  0  0  0  0  0  0  0  0  0  0  0
    2.3284   20.5060   37.9963 C   0  0  0  0  0  0  0  0  0  0  0  0
    3.5863   18.5763   37.9530 C   0  0  0  0  0  0  0  0  0  0  0  0
    1.9888   18.8568   39.5005 C   0  0  0  0  0  0  0  0  0  0  0  0
   -0.7793   19.2943   41.5295 C   0  0  0  0  0  0  0  0  0  0  0  0
    3.9399   20.1707   36.2504 O   0  0  0  0  0  0  0  0  0  0  0  0
    1.0790   18.3202   40.6027 C   0  0  0  0  0  0  0  0  0  0  0  0
   -1.0884   18.4186   42.3899 C   0  0  0  0  0  0  0  0  0  0  0  0
   -0.7540   14.0525   43.9994 O   0  0  0  0  0  0  0  0  0  0  0  0
   -0.0374   19.0633   40.7939 C   0  0  0  0  0  0  0  0  0  0  0  0
    1.1122   17.0963   41.1897 C   0  0  0  0  0  0  0  0  0  0  0  0
   -0.6499   17.3332   42.8897 C   0  0  0  0  0  0  0  0  0  0  0  0
    1.1385   13.4901   43.5385 H   0  0  0  0  0  0  0  0  0  0  0  0
    0.0129   12.8923   42.4389 H   0  0  0  0  0  0  0  0  0  0  0  0
   -2.6546   18.3633   43.7025 H   0  0  0  0  0  0  0  0  0  0  0  0
    3.8675   22.0623   36.1681 H   0  0  0  0  0  0  0  0  0  0  0  0
    5.0270   21.2072   35.0953 H   0  0  0  0  0  0  0  0  0  0  0  0
    3.2643   21.1250   34.7594 H   0  0  0  0  0  0  0  0  0  0  0  0
    2.0812   21.5143   37.6327 H   0  0  0  0  0  0  0  0  0  0  0  0
    4.4255   17.9972   37.5402 H   0  0  0  0  0  0  0  0  0  0  0  0
   -1.2673   20.2801   41.5380 H   0  0  0  0  0  0  0  0  0  0  0  0
   -0.4494   13.7563   44.8935 H   0  0  0  0  0  0  0  0  0  0  0  0
   -0.2578   19.6238   39.8733 H   0  0  0  0  0  0  0  0  0  0  0  0
    1.9526   16.4463   40.9044 H   0  0  0  0  0  0  0  0  0  0  0  0
   -1.5237   16.7140   43.1409 H   0  0  0  0  0  0  0  0  0  0  0  0
   -0.0289   17.6563   43.7382 H   0  0  0  0  0  0  0  0  0  0  0  0
  1 16  1  0
  2 11  1  0
  4 10  1  0
  4  9  2  0
  5  1  1  0
  6 13  1  0
  7 11  2  0
  8  5  1  0
  8 19  1  0
  9  7  1  0
 10  2  2  0
 11 14  1  0
 12 15  2  0
 13  4  1  0
 14 17  2  0
 14 18  1  0
 15 19  1  0
 15  3  1  0
 17 12  1  0
 18  8  2  0
  1 20  1  0
  1 21  1  0
  3 22  1  0
  6 23  1  0
  6 24  1  0
  6 25  1  0
  9 26  1  0
 10 27  1  0
 12 28  1  0
 16 29  1  0
 17 30  1  0
 18 31  1  0
 19 32  1  0
 19 33  1  0
M  END
>  <mol_id>  (92) 
2026-08-23-6tgu-s0-n100-prep-0094

>  <rmsd_to_ref>  (92) 


$$$$

     RDKit          3D

 29 31  0  0  0  0  0  0  0  0999 V2000
    3.0064   18.7887   38.4429 C   0  0  0  0  0  0  0  0  0  0  0  0
    1.4246   18.6760   40.7702 C   0  0  0  0  0  0  0  0  0  0  0  0
    1.5254   20.1973   38.9804 C   0  0  0  0  0  0  0  0  0  0  0  0
    3.6402   14.7112   39.8580 C   0  0  0  0  0  0  0  0  0  0  0  0
    1.9600   19.0470   39.4843 C   0  0  0  0  0  0  0  0  0  0  0  0
    2.3703   15.2552   41.7515 C   0  0  0  0  0  0  0  0  0  0  0  0
    3.6103   20.1579   36.5561 O   0  0  0  0  0  0  0  0  0  0  0  0
    0.6784   17.3190   42.6158 N   0  0  0  0  0  0  0  0  0  0  0  0
    3.6532   15.9535   39.5310 N   0  0  0  0  0  0  0  0  0  0  0  0
    2.3111   16.4720   41.1902 N   0  0  0  0  0  0  0  0  0  0  0  0
    3.0586   16.7191   40.0864 C   0  0  0  0  0  0  0  0  0  0  0  0
    3.0811   14.2623   41.0777 C   0  0  0  0  0  0  0  0  0  0  0  0
    1.7507   14.9705   42.7052 O   0  0  0  0  0  0  0  0  0  0  0  0
    2.9729   19.9046   37.5390 C   0  0  0  0  0  0  0  0  0  0  0  0
    4.2341   13.9096   39.0075 N   0  0  0  0  0  0  0  0  0  0  0  0
    0.6460   19.6654   41.3754 C   0  0  0  0  0  0  0  0  0  0  0  0
   -0.1142   19.5403   42.6265 C   0  0  0  0  0  0  0  0  0  0  0  0
    2.0156   20.7463   38.0689 N   0  0  0  0  0  0  0  0  0  0  0  0
    1.5192   17.4649   41.4648 C   0  0  0  0  0  0  0  0  0  0  0  0
   -0.1545   18.2430   43.1342 C   0  0  0  0  0  0  0  0  0  0  0  0
    3.6710   17.9143   38.3825 H   0  0  0  0  0  0  0  0  0  0  0  0
    0.6474   20.6649   39.4500 H   0  0  0  0  0  0  0  0  0  0  0  0
    3.0814   17.7520   39.7089 H   0  0  0  0  0  0  0  0  0  0  0  0
    2.3982   13.4270   40.8634 H   0  0  0  0  0  0  0  0  0  0  0  0
    3.9141   13.9566   41.7277 H   0  0  0  0  0  0  0  0  0  0  0  0
    4.6253   14.2860   38.1322 H   0  0  0  0  0  0  0  0  0  0  0  0
    0.5972   20.6375   40.8631 H   0  0  0  0  0  0  0  0  0  0  0  0
   -0.6065   20.3927   43.1175 H   0  0  0  0  0  0  0  0  0  0  0  0
   -0.8524   17.9784   43.9422 H   0  0  0  0  0  0  0  0  0  0  0  0
  1  5  2  0
  2 16  1  0
  2 19  2  0
  3  5  1  0
  4 12  1  0
  5  2  1  0
  6 13  2  0
  7 14  2  0
  8 20  2  0
  9 11  2  0
  9  4  1  0
 10 19  1  0
 10  6  1  0
 11 10  1  0
 12  6  1  0
 14 18  1  0
 14  1  1  0
 15  4  2  3
 16 17  2  0
 17 20  1  0
 18  3  2  0
 19  8  1  0
  1 21  1  0
  3 22  1  0
 11 23  1  0
 12 24  1  0
 12 25  1  0
 15 26  1  0
 16 27  1  0
 17 28  1  0
 20 29  1  0
M  END
>  <mol_id>  (93) 
2026-08-23-6tgu-s0-n100-prep-0095

>  <rmsd_to_ref>  (93) 


$$$$

     RDKit          3D

 36 39  0  0  0  0  0  0  0  0999 V2000
    2.4818   18.3182   39.0978 C   0  0  1  0  0  0  0  0  0  0  0  0
   -0.1052   16.6009   43.9092 N   0  0  0  0  0  0  0  0  0  0  0  0
    0.6774   16.2438   41.6592 C   0  0  0  0  0  0  0  0  0  0  0  0
    0.9169   18.5136   42.5006 C   0  0  0  0  0  0  0  0  0  0  0  0
    2.7816   20.7551   37.1267 O   0  0  0  0  0  0  0  0  0  0  0  0
    4.1821   19.1175   36.8432 C   0  0  0  0  0  0  0  0  0  0  0  0
    0.5343   15.1096   42.0094 O   0  0  0  0  0  0  0  0  0  0  0  0
    4.2280   21.0345   35.4316 O   0  0  0  0  0  0  0  0  0  0  0  0
   -0.5599   17.2326   44.9852 C   0  0  0  0  0  0  0  0  0  0  0  0
    1.3750   19.0225   41.2276 C   0  0  1  0  0  0  0  0  0  0  0  0
    3.7012   20.3706   36.5669 N   0  0  0  0  0  0  0  0  0  0  0  0
    0.1474   17.2152   42.5740 C   0  0  2  0  0  0  0  0  0  0  0  0
   -1.0533   16.5739   46.0113 N   0  0  0  0  0  0  0  0  0  0  0  0
    1.7529   18.1022   40.2040 C   0  0  2  0  0  0  0  0  0  0  0  0
    1.4735   20.3517   40.8483 C   0  0  0  0  0  0  0  0  0  0  0  0
    2.7950   20.0358   38.5686 C   0  0  1  0  0  0  0  0  0  0  0  0
    1.2327   16.7734   40.4472 O   0  0  0  0  0  0  0  0  0  0  0  0
    2.1060   20.7630   39.7272 C   0  0  0  0  0  0  0  0  0  0  0  0
   -0.6335   18.6042   45.0302 N   0  0  0  0  0  0  0  0  0  0  0  0
    3.4782   18.6898   38.1038 C   0  0  1  0  0  0  0  0  0  0  0  0
    2.1664   17.2751   39.2478 H   0  0  0  0  0  0  0  0  0  0  0  0
    0.2693   19.2890   42.9358 H   0  0  0  0  0  0  0  0  0  0  0  0
    1.8545   18.2762   43.0248 H   0  0  0  0  0  0  0  0  0  0  0  0
    5.2702   19.1487   37.0014 H   0  0  0  0  0  0  0  0  0  0  0  0
    4.0005   18.4170   36.0148 H   0  0  0  0  0  0  0  0  0  0  0  0
    4.9580   21.6411   35.7132 H   0  0  0  0  0  0  0  0  0  0  0  0
    2.4090   19.0299   41.6027 H   0  0  0  0  0  0  0  0  0  0  0  0
   -0.8602   17.5410   42.2761 H   0  0  0  0  0  0  0  0  0  0  0  0
   -1.3997   17.0872   46.8344 H   0  0  0  0  0  0  0  0  0  0  0  0
   -1.0932   15.5449   45.9918 H   0  0  0  0  0  0  0  0  0  0  0  0
    0.8374   18.3593   39.6509 H   0  0  0  0  0  0  0  0  0  0  0  0
    1.0120   21.1129   41.4945 H   0  0  0  0  0  0  0  0  0  0  0  0
    2.1317   21.8578   39.6243 H   0  0  0  0  0  0  0  0  0  0  0  0
   -0.9895   19.0733   45.8752 H   0  0  0  0  0  0  0  0  0  0  0  0
   -0.3326   19.1631   44.2190 H   0  0  0  0  0  0  0  0  0  0  0  0
    4.1257   17.8116   37.9641 H   0  0  0  0  0  0  0  0  0  0  0  0
  1 14  1  0
  2  9  2  3
  3  7  2  0
  3 12  1  0
  4 12  1  0
 16  5  1  6
  6 20  1  0
  8 11  1  0
  9 13  1  0
 10  4  1  0
 11  6  1  0
 11  5  1  0
 12  2  1  0
 14 17  1  0
 14 10  1  0
 15 10  1  0
 16  1  1  0
 16 18  1  0
 17  3  1  0
 18 15  2  0
 19  9  1  0
 20 16  1  0
 20  1  1  0
  1 21  1  6
  4 22  1  0
  4 23  1  0
  6 24  1  0
  6 25  1  0
  8 26  1  0
 10 27  1  1
 12 28  1  6
 13 29  1  0
 13 30  1  0
 14 31  1  6
 15 32  1  0
 18 33  1  0
 19 34  1  0
 19 35  1  0
 20 36  1  1
M  END
>  <mol_id>  (94) 
2026-08-23-6tgu-s0-n100-prep-0096

>  <rmsd_to_ref>  (94) 


$$$$

     RDKit          3D

 36 38  0  0  0  0  0  0  0  0999 V2000
    1.4800   16.2610   41.4740 C   0  0  0  0  0  0  0  0  0  0  0  0
    0.5170   19.1950   42.2710 C   0  0  0  0  0  0  0  0  0  0  0  0
    1.9330   20.7860   39.3270 C   0  0  0  0  0  0  0  0  0  0  0  0
    2.3560   19.3840   39.1020 C   0  0  0  0  0  0  0  0  0  0  0  0
    0.7270   16.6840   42.6460 C   0  0  2  0  0  0  0  0  0  0  0  0
    1.2870   20.8220   40.6270 C   0  0  0  0  0  0  0  0  0  0  0  0
    3.1950   17.8750   37.6050 O   0  0  0  0  0  0  0  0  0  0  0  0
   -0.0290   20.1750   42.7900 O   0  0  0  0  0  0  0  0  0  0  0  0
    1.5610   14.9470   41.5680 C   0  0  0  0  0  0  0  0  0  0  0  0
    1.2420   19.4070   41.0300 C   0  0  0  0  0  0  0  0  0  0  0  0
    2.8810   16.0650   39.8310 C   0  0  0  0  0  0  0  0  0  0  0  0
    0.4950   15.5440   43.4470 O   0  0  0  0  0  0  0  0  0  0  0  0
   -0.9340   17.8510   43.9030 C   0  0  0  0  0  0  0  0  0  0  0  0
    2.0870   17.0070   40.4790 C   0  0  0  0  0  0  0  0  0  0  0  0
    2.9760   19.0740   37.8680 C   0  0  0  0  0  0  0  0  0  0  0  0
    0.3550   17.9230   43.0900 C   0  0  2  0  0  0  0  0  0  0  0  0
    3.7870   20.1670   36.0850 O   0  0  0  0  0  0  0  0  0  0  0  0
    3.2710   20.0290   37.0500 N   0  0  0  0  0  0  0  0  0  0  0  0
    1.9300   18.4670   40.2540 C   0  0  0  0  0  0  0  0  0  0  0  0
    3.0100   14.7690   40.2280 C   0  0  0  0  0  0  0  0  0  0  0  0
    2.4030   13.9830   41.2290 C   0  0  0  0  0  0  0  0  0  0  0  0
    2.0797   21.6345   38.6425 H   0  0  0  0  0  0  0  0  0  0  0  0
    1.6624   16.7592   43.2199 H   0  0  0  0  0  0  0  0  0  0  0  0
    1.8758   21.4155   41.3419 H   0  0  0  0  0  0  0  0  0  0  0  0
    0.2919   21.2899   40.5972 H   0  0  0  0  0  0  0  0  0  0  0  0
    1.4629   14.7910   42.6525 H   0  0  0  0  0  0  0  0  0  0  0  0
    0.9160   14.7799   40.6927 H   0  0  0  0  0  0  0  0  0  0  0  0
    3.4403   16.3885   38.9408 H   0  0  0  0  0  0  0  0  0  0  0  0
    0.5464   15.7963   44.4029 H   0  0  0  0  0  0  0  0  0  0  0  0
   -0.6920   17.8645   44.9760 H   0  0  0  0  0  0  0  0  0  0  0  0
   -1.5698   18.7150   43.6596 H   0  0  0  0  0  0  0  0  0  0  0  0
   -1.4696   16.9215   43.6596 H   0  0  0  0  0  0  0  0  0  0  0  0
    1.2347   18.1438   43.7124 H   0  0  0  0  0  0  0  0  0  0  0  0
    3.7519   14.2119   39.6371 H   0  0  0  0  0  0  0  0  0  0  0  0
    1.9045   13.0840   40.8375 H   0  0  0  0  0  0  0  0  0  0  0  0
    3.0363   13.5328   42.0077 H   0  0  0  0  0  0  0  0  0  0  0  0
  1  9  1  0
  1  5  1  0
  2  8  2  0
  2 16  1  0
  3  6  1  0
  4  3  2  0
  4 19  1  0
  5 16  1  0
  5 12  1  0
  6 10  1  0
  7 15  2  0
 10  2  1  0
 11 20  2  0
 11 14  1  0
 14  1  2  0
 15  4  1  0
 16 13  1  0
 17 18  2  0
 18 15  1  0
 19 14  1  0
 19 10  2  0
 20 21  1  0
 21  9  1  0
  3 22  1  0
  5 23  1  6
  6 24  1  0
  6 25  1  0
  9 26  1  0
  9 27  1  0
 11 28  1  0
 12 29  1  0
 13 30  1  0
 13 31  1  0
 13 32  1  0
 16 33  1  1
 20 34  1  0
 21 35  1  0
 21 36  1  0
M  END
>  <mol_id>  (95) 
2026-08-23-6tgu-s0-n100-prep-0097

>  <rmsd_to_ref>  (95) 


$$$$

     RDKit          3D

 30 32  0  0  0  0  0  0  0  0999 V2000
    2.0433   16.0390   40.4373 C   0  0  0  0  0  0  0  0  0  0  0  0
    0.9154   17.5020   41.4734 C   0  0  0  0  0  0  0  0  0  0  0  0
    1.4082   15.4122   41.4660 N   0  0  0  0  0  0  0  0  0  0  0  0
    1.8582   17.3423   40.4189 C   0  0  0  0  0  0  0  0  0  0  0  0
    2.2445   18.3002   39.4807 C   0  0  1  0  0  0  0  0  0  0  0  0
   -0.2763   16.0177   43.1013 C   0  0  0  0  0  0  0  0  0  0  0  0
   -0.4638   19.1111   42.8353 C   0  0  0  0  0  0  0  0  0  0  0  0
    2.8404   15.2456   39.7903 C   0  0  0  0  0  0  0  0  0  0  0  0
    3.7154   19.6008   36.4054 O   0  0  0  0  0  0  0  0  0  0  0  0
    2.4513   20.2328   38.2350 C   0  0  0  0  0  0  0  0  0  0  0  0
    3.1882   19.4296   37.4890 C   0  0  0  0  0  0  0  0  0  0  0  0
    0.4774   18.8243   41.8150 N   0  0  0  0  0  0  0  0  0  0  0  0
   -0.6016   19.7461   41.4700 C   0  0  0  0  0  0  0  0  0  0  0  0
    2.0221   19.6513   39.3905 C   0  0  0  0  0  0  0  0  0  0  0  0
    0.7252   16.2851   42.0335 C   0  0  0  0  0  0  0  0  0  0  0  0
    3.2688   17.9550   38.2297 S   0  0  0  0  0  0  0  0  0  0  0  0
    1.4786   14.4172   41.7226 H   0  0  0  0  0  0  0  0  0  0  0  0
    1.3245   18.1105   38.9082 H   0  0  0  0  0  0  0  0  0  0  0  0
    0.1973   16.1387   44.0867 H   0  0  0  0  0  0  0  0  0  0  0  0
   -1.1117   16.7269   43.0064 H   0  0  0  0  0  0  0  0  0  0  0  0
   -0.6545   14.9898   43.0000 H   0  0  0  0  0  0  0  0  0  0  0  0
   -1.1780   18.3395   43.1586 H   0  0  0  0  0  0  0  0  0  0  0  0
   -0.4044   19.4869   43.8674 H   0  0  0  0  0  0  0  0  0  0  0  0
    3.3494   14.5778   40.5008 H   0  0  0  0  0  0  0  0  0  0  0  0
    2.2591   14.6452   39.0750 H   0  0  0  0  0  0  0  0  0  0  0  0
    3.5884   15.8411   39.2464 H   0  0  0  0  0  0  0  0  0  0  0  0
    2.2082   21.2675   37.9520 H   0  0  0  0  0  0  0  0  0  0  0  0
   -0.3969   20.8177   41.3294 H   0  0  0  0  0  0  0  0  0  0  0  0
   -1.3801   19.8050   40.6951 H   0  0  0  0  0  0  0  0  0  0  0  0
    1.5330   20.2234   40.1926 H   0  0  0  0  0  0  0  0  0  0  0  0
  1  3  1  0
  2 12  1  0
  2 15  2  0
  3 15  1  0
  4  1  2  0
  4  2  1  0
  5  4  1  0
  8  1  1  0
  9 11  2  0
 10 14  2  0
 11 16  1  0
 11 10  1  0
 12  7  1  0
 13 12  1  0
 13  7  1  0
 14  5  1  0
 15  6  1  0
 16  5  1  0
  3 17  1  0
  5 18  1  6
  6 19  1  0
  6 20  1  0
  6 21  1  0
  7 22  1  0
  7 23  1  0
  8 24  1  0
  8 25  1  0
  8 26  1  0
 10 27  1  0
 13 28  1  0
 13 29  1  0
 14 30  1  0
M  END
>  <mol_id>  (96) 
2026-08-23-6tgu-s0-n100-prep-0098

>  <rmsd_to_ref>  (96) 


$$$$

     RDKit          3D

 24 26  0  0  0  0  0  0  0  0999 V2000
    3.5899   19.0835   36.5513 N   0  0  0  0  0  0  0  0  0  0  0  0
    2.2814   16.4349   39.4043 C   0  0  0  0  0  0  0  0  0  0  0  0
    0.3266   18.2804   41.8707 C   0  0  0  0  0  0  0  0  0  0  0  0
    1.3033   21.2603   40.2433 O   0  0  0  0  0  0  0  0  0  0  0  0
    2.3612   18.7995   38.7789 C   0  0  0  0  0  0  0  0  0  0  0  0
   -0.7005   18.0262   43.8668 C   0  0  0  0  0  0  0  0  0  0  0  0
    2.7108   17.4575   38.5707 C   0  0  0  0  0  0  0  0  0  0  0  0
    2.5588   20.7739   37.3563 O   0  0  0  0  0  0  0  0  0  0  0  0
    1.0964   17.9525   40.7413 C   0  0  0  0  0  0  0  0  0  0  0  0
    1.5744   18.9771   40.0115 C   0  0  0  0  0  0  0  0  0  0  0  0
    1.4480   16.6434   40.5052 C   0  0  0  0  0  0  0  0  0  0  0  0
   -1.0119   19.3989   43.7744 N   0  0  0  0  0  0  0  0  0  0  0  0
    0.9482   20.1688   40.7491 C   0  0  0  0  0  0  0  0  0  0  0  0
    2.8161   19.6271   37.5052 C   0  0  0  0  0  0  0  0  0  0  0  0
    0.2413   19.6255   41.8764 C   0  0  0  0  0  0  0  0  0  0  0  0
   -0.0812   17.3988   42.8376 N   0  0  0  0  0  0  0  0  0  0  0  0
   -0.5088   20.2500   42.8600 C   0  0  0  0  0  0  0  0  0  0  0  0
    3.8578   18.0907   36.6093 H   0  0  0  0  0  0  0  0  0  0  0  0
    3.9153   19.6595   35.7619 H   0  0  0  0  0  0  0  0  0  0  0  0
    2.6140   15.4091   39.1873 H   0  0  0  0  0  0  0  0  0  0  0  0
   -0.9608   17.4641   44.7757 H   0  0  0  0  0  0  0  0  0  0  0  0
    3.3510   17.2056   37.7123 H   0  0  0  0  0  0  0  0  0  0  0  0
    1.0964   15.8171   41.1406 H   0  0  0  0  0  0  0  0  0  0  0  0
   -0.6773   21.3366   42.8909 H   0  0  0  0  0  0  0  0  0  0  0  0
  1 14  1  0
  2 11  1  0
  3 16  2  0
  4 13  2  0
  5 10  2  0
  7  5  1  0
  7  2  2  0
  8 14  2  0
  9  3  1  0
 10 13  1  0
 10  9  1  0
 11  9  2  0
 12  6  2  0
 13 15  1  0
 14  5  1  0
 15  3  1  0
 15 17  2  0
 16  6  1  0
 17 12  1  0
  1 18  1  0
  1 19  1  0
  2 20  1  0
  6 21  1  0
  7 22  1  0
 11 23  1  0
 17 24  1  0
M  END
>  <mol_id>  (97) 
2026-08-23-6tgu-s0-n100-prep-0099

>  <rmsd_to_ref>  (97) 


$$$$

     RDKit          3D

 25 25  0  0  0  0  0  0  0  0999 V2000
    2.2120   18.9800   40.0810 C   0  0  0  0  0  0  0  0  0  0  0  0
    1.7400   18.1440   41.1890 C   0  0  0  0  0  0  0  0  0  0  0  0
    2.9880   18.5560   38.8870 C   0  0  0  0  0  0  0  0  0  0  0  0
    3.7780   18.8950   36.7790 O   0  0  0  0  0  0  0  0  0  0  0  0
    2.4690   20.5000   37.4440 O   0  0  0  0  0  0  0  0  0  0  0  0
    3.0940   19.4270   37.6820 C   0  0  0  0  0  0  0  0  0  0  0  0
    0.9250   20.8190   41.0150 C   0  0  0  0  0  0  0  0  0  0  0  0
   -0.8240   21.6890   43.2540 O   0  0  0  0  0  0  0  0  0  0  0  0
   -0.8160   17.8020   44.0080 C   0  0  0  0  0  0  0  0  0  0  0  0
    0.7940   18.6540   42.1250 C   0  0  0  0  0  0  0  0  0  0  0  0
   -1.0390   20.5110   42.5270 C   0  0  0  0  0  0  0  0  0  0  0  0
    0.3690   17.8540   43.1760 O   0  0  0  0  0  0  0  0  0  0  0  0
    0.2870   19.9920   41.9340 C   0  0  0  0  0  0  0  0  0  0  0  0
    1.9310   20.3770   40.0950 C   0  0  0  0  0  0  0  0  0  0  0  0
    2.1183   17.1169   41.2986 H   0  0  0  0  0  0  0  0  0  0  0  0
    4.0168   18.3761   39.2323 H   0  0  0  0  0  0  0  0  0  0  0  0
    2.4030   17.7026   38.5134 H   0  0  0  0  0  0  0  0  0  0  0  0
    0.6387   21.8809   40.9931 H   0  0  0  0  0  0  0  0  0  0  0  0
   -0.8603   21.4900   44.2231 H   0  0  0  0  0  0  0  0  0  0  0  0
   -0.5209   17.8149   45.0676 H   0  0  0  0  0  0  0  0  0  0  0  0
   -1.4528   18.6731   43.7940 H   0  0  0  0  0  0  0  0  0  0  0  0
   -1.3740   16.8785   43.7940 H   0  0  0  0  0  0  0  0  0  0  0  0
   -1.4610   19.7455   43.1948 H   0  0  0  0  0  0  0  0  0  0  0  0
   -1.7374   20.7234   41.7042 H   0  0  0  0  0  0  0  0  0  0  0  0
    2.4590   21.0798   39.4338 H   0  0  0  0  0  0  0  0  0  0  0  0
  1 14  1  0
  1  2  2  0
  2 10  1  0
  3  1  1  0
  4  6  2  0
  5  6  1  0
  6  3  1  0
  7 13  1  0
 10 12  1  0
 11  8  1  0
 12  9  1  0
 13 10  2  0
 13 11  1  0
 14  7  2  0
  2 15  1  0
  3 16  1  0
  3 17  1  0
  7 18  1  0
  8 19  1  0
  9 20  1  0
  9 21  1  0
  9 22  1  0
 11 23  1  0
 11 24  1  0
 14 25  1  0
M  CHG  1   5  -1
M  END
>  <mol_id>  (98) 
2026-08-23-6tgu-s0-n100-prep-0100

>  <rmsd_to_ref>  (98) 


$$$$
