
     RDKit          3D

 25 25  0  0  0  0  0  0  0  0999 V2000
    4.0931   22.8051   33.2421 F   0  0  0  0  0  0  0  0  0  0  0  0
    2.7763   17.5475   40.1708 F   0  0  0  0  0  0  0  0  0  0  0  0
    1.7652   24.2761   34.9172 C   0  0  0  0  0  0  0  0  0  0  0  0
    3.7287   16.9075   38.4818 F   0  0  0  0  0  0  0  0  0  0  0  0
    2.6701   17.5123   38.8766 C   0  0  0  0  0  0  0  0  0  0  0  0
    3.8131   20.8739   34.9080 C   0  0  0  0  0  0  0  0  0  0  0  0
    2.5582   22.9550   35.2740 C   0  0  0  0  0  0  0  0  0  0  0  0
    1.7349   16.6791   38.5794 F   0  0  0  0  0  0  0  0  0  0  0  0
    1.5425   20.0993   40.5073 N   0  0  0  0  0  0  0  0  0  0  0  0
    2.0150   20.2127   39.1080 C   0  0  0  0  0  0  0  0  0  0  0  0
    3.1851   20.5195   36.2113 C   0  0  0  0  0  0  0  0  0  0  0  0
    2.5986   18.9966   38.2830 C   0  0  0  0  0  0  0  0  0  0  0  0
    3.1566   19.2837   37.0143 C   0  0  0  0  0  0  0  0  0  0  0  0
    3.4933   22.1888   34.3931 C   0  0  0  0  0  0  0  0  0  0  0  0
    2.2108   22.0098   36.5934 S   0  0  0  0  0  0  0  0  0  0  0  0
    1.4243   24.7608   35.8439 H   0  0  0  0  0  0  0  0  0  0  0  0
    2.4250   24.9622   34.3659 H   0  0  0  0  0  0  0  0  0  0  0  0
    0.8948   24.0241   34.2936 H   0  0  0  0  0  0  0  0  0  0  0  0
    4.4776   20.1809   34.3710 H   0  0  0  0  0  0  0  0  0  0  0  0
    2.3467   20.1635   41.1476 H   0  0  0  0  0  0  0  0  0  0  0  0
    0.8811   20.8625   40.7092 H   0  0  0  0  0  0  0  0  0  0  0  0
    1.0711   19.1929   40.6380 H   0  0  0  0  0  0  0  0  0  0  0  0
    1.1560   20.5837   38.5297 H   0  0  0  0  0  0  0  0  0  0  0  0
    2.9121   20.8368   39.2342 H   0  0  0  0  0  0  0  0  0  0  0  0
    3.6610   18.4284   36.5412 H   0  0  0  0  0  0  0  0  0  0  0  0
  1 14  1  0
  3  7  1  0
  4  5  1  0
  5  2  1  0
  6 11  2  0
  7 15  1  0
  8  5  1  0
 10  9  1  0
 11 15  1  0
 11 13  1  0
 12  5  1  0
 12 10  1  0
 13 12  2  3
 14  6  1  0
 14  7  2  0
  3 16  1  0
  3 17  1  0
  3 18  1  0
  6 19  1  0
  9 20  1  0
  9 21  1  0
  9 22  1  0
 10 23  1  0
 10 24  1  0
 13 25  1  0
M  CHG  1   9   1
M  END
>  <mol_id>  (1) 
2026-09-16-6tgu-s0-n100-0001

>  <rmsd_to_ref>  (1) 


$$$$

     RDKit          3D

 49 49  0  0  0  0  0  0  0  0999 V2000
    5.4635   20.6835   33.4217 O   0  0  0  0  0  0  0  0  0  0  0  0
    2.8822   18.0902   38.0127 C   0  0  0  0  0  0  0  0  0  0  0  0
    0.5199   19.4582   42.0442 C   0  0  0  0  0  0  0  0  0  0  0  0
    4.2024   22.4456   31.3892 C   0  0  0  0  0  0  0  0  0  0  0  0
    2.1577   16.4134   39.2366 C   0  0  0  0  0  0  0  0  0  0  0  0
    4.6040   22.0203   34.9082 O   0  0  0  0  0  0  0  0  0  0  0  0
    1.8808   21.0069   40.8120 C   0  0  0  0  0  0  0  0  0  0  0  0
    2.2258   17.7131   39.2853 C   0  0  1  0  0  0  0  0  0  0  0  0
    1.0195   20.7440   41.8571 C   0  0  0  0  0  0  0  0  0  0  0  0
    3.7048   25.4395   29.5417 C   0  0  0  0  0  0  0  0  0  0  0  0
    1.6434   13.6585   38.2472 O   0  0  0  0  0  0  0  0  0  0  0  0
    4.7311   23.4922   29.0227 C   0  0  0  0  0  0  0  0  0  0  0  0
    2.5738   15.9173   38.0469 C   0  0  0  0  0  0  0  0  0  0  0  0
    2.4867   14.4921   37.4939 C   0  0  0  0  0  0  0  0  0  0  0  0
    3.1051   19.5149   37.5852 C   0  0  0  0  0  0  0  0  0  0  0  0
    4.5550   22.6583   32.6023 C   0  0  2  0  0  0  0  0  0  0  0  0
    4.6277   24.5678   30.3279 C   0  0  0  0  0  0  0  0  0  0  0  0
    3.1186   16.9770   37.4088 N   0  0  0  0  0  0  0  0  0  0  0  0
    2.3143   19.9498   40.0716 C   0  0  0  0  0  0  0  0  0  0  0  0
    0.9622   18.4303   41.3124 C   0  0  0  0  0  0  0  0  0  0  0  0
    5.6272   23.6708   31.4905 C   0  0  0  0  0  0  0  0  0  0  0  0
    4.9614   21.7721   33.5701 C   0  0  0  0  0  0  0  0  0  0  0  0
    1.8371   18.6774   40.2587 C   0  0  0  0  0  0  0  0  0  0  0  0
   -0.2527   19.2847   42.8077 H   0  0  0  0  0  0  0  0  0  0  0  0
    3.4052   21.6881   31.3665 H   0  0  0  0  0  0  0  0  0  0  0  0
    3.8317   23.3815   30.9457 H   0  0  0  0  0  0  0  0  0  0  0  0
    5.0677   22.0847   30.8139 H   0  0  0  0  0  0  0  0  0  0  0  0
    1.8020   15.7883   40.0689 H   0  0  0  0  0  0  0  0  0  0  0  0
    2.2055   22.0331   40.5852 H   0  0  0  0  0  0  0  0  0  0  0  0
    1.2419   17.7829   38.7984 H   0  0  0  0  0  0  0  0  0  0  0  0
    0.7270   21.5519   42.5439 H   0  0  0  0  0  0  0  0  0  0  0  0
    3.0300   25.9720   30.2280 H   0  0  0  0  0  0  0  0  0  0  0  0
    4.2920   26.1694   28.9651 H   0  0  0  0  0  0  0  0  0  0  0  0
    3.1126   24.8193   28.8528 H   0  0  0  0  0  0  0  0  0  0  0  0
    1.8582   13.7542   39.2089 H   0  0  0  0  0  0  0  0  0  0  0  0
    4.8318   22.4644   29.4016 H   0  0  0  0  0  0  0  0  0  0  0  0
    3.8204   23.5698   28.4106 H   0  0  0  0  0  0  0  0  0  0  0  0
    5.6081   23.7441   28.4085 H   0  0  0  0  0  0  0  0  0  0  0  0
    2.1031   14.5392   36.4640 H   0  0  0  0  0  0  0  0  0  0  0  0
    3.4979   14.0611   37.5378 H   0  0  0  0  0  0  0  0  0  0  0  0
    3.2316   20.1492   38.4749 H   0  0  0  0  0  0  0  0  0  0  0  0
    4.0094   19.5734   36.9616 H   0  0  0  0  0  0  0  0  0  0  0  0
    2.2373   19.8641   37.0064 H   0  0  0  0  0  0  0  0  0  0  0  0
    3.9365   22.9286   33.4709 H   0  0  0  0  0  0  0  0  0  0  0  0
    3.7654   24.0088   30.7202 H   0  0  0  0  0  0  0  0  0  0  0  0
    3.0745   20.1223   39.2955 H   0  0  0  0  0  0  0  0  0  0  0  0
    0.6391   17.4037   41.5400 H   0  0  0  0  0  0  0  0  0  0  0  0
    6.3136   23.0072   30.9440 H   0  0  0  0  0  0  0  0  0  0  0  0
    6.2015   24.3858   32.0980 H   0  0  0  0  0  0  0  0  0  0  0  0
  1 22  2  0
  2  8  1  0
  7  9  1  0
  8  5  1  0
  8 23  1  0
  9  3  2  0
 10 17  1  0
 12 17  1  0
 13  5  2  0
 14 13  1  0
 14 11  1  0
 15  2  1  0
 16  4  1  0
 16 22  1  0
 17 21  1  0
 18  2  2  0
 18 13  1  0
 19 23  1  0
 19  7  2  0
 20  3  1  0
 21 16  1  0
 22  6  1  0
 23 20  2  0
  3 24  1  0
  4 25  1  0
  4 26  1  0
  4 27  1  0
  5 28  1  0
  7 29  1  0
  8 30  1  6
  9 31  1  0
 10 32  1  0
 10 33  1  0
 10 34  1  0
 11 35  1  0
 12 36  1  0
 12 37  1  0
 12 38  1  0
 14 39  1  0
 14 40  1  0
 15 41  1  0
 15 42  1  0
 15 43  1  0
 16 44  1  1
 17 45  1  0
 19 46  1  0
 20 47  1  0
 21 48  1  0
 21 49  1  0
M  CHG  1   6  -1
M  END
>  <mol_id>  (2) 
2026-09-16-6tgu-s0-n100-0002

>  <rmsd_to_ref>  (2) 


$$$$

     RDKit          3D

 63 65  0  0  0  0  0  0  0  0999 V2000
    1.4871   21.6138   36.4670 C   0  0  0  0  0  0  0  0  0  0  0  0
    3.2010   16.8994   37.7807 C   0  0  0  0  0  0  0  0  0  0  0  0
    1.1887   26.1090   32.4964 C   0  0  0  0  0  0  0  0  0  0  0  0
    1.6280   21.2735   39.3696 C   0  0  0  0  0  0  0  0  0  0  0  0
    0.8771   27.1305   33.3647 C   0  0  0  0  0  0  0  0  0  0  0  0
    2.3248   20.8341   36.9166 N   0  0  0  0  0  0  0  0  0  0  0  0
    2.4450   24.1831   31.8661 C   0  0  0  0  0  0  0  0  0  0  0  0
    2.2202   20.5249   38.2718 C   0  0  0  0  0  0  0  0  0  0  0  0
    2.6010   19.1692   40.3703 S   0  0  0  0  0  0  0  0  0  0  0  0
    3.3507   11.7660   38.7090 C   0  0  0  0  0  0  0  0  0  0  0  0
    0.2013   27.8894   31.3568 C   0  0  0  0  0  0  0  0  0  0  0  0
    2.0802   12.3990   36.6579 C   0  0  0  0  0  0  0  0  0  0  0  0
    4.6811   16.3519   37.5917 C   0  0  0  0  0  0  0  0  0  0  0  0
    2.7955   13.5709   36.6252 C   0  0  0  0  0  0  0  0  0  0  0  0
    3.3967   18.4982   37.7969 C   0  0  0  0  0  0  0  0  0  0  0  0
    1.2921   27.0890   34.6878 C   0  0  0  0  0  0  0  0  0  0  0  0
    1.8631   20.7103   40.6264 C   0  0  0  0  0  0  0  0  0  0  0  0
   -1.0402   29.2512   34.3899 C   0  0  0  0  0  0  0  0  0  0  0  0
    0.3377   28.0720   32.8124 N   0  0  0  0  0  0  0  0  0  0  0  0
    2.7151   19.4063   38.6649 C   0  0  0  0  0  0  0  0  0  0  0  0
    1.7061   24.9129   32.9177 C   0  0  1  0  0  0  0  0  0  0  0  0
    1.1508   12.1323   35.7028 O   0  0  0  0  0  0  0  0  0  0  0  0
    3.5507   14.0389   37.7757 C   0  0  0  0  0  0  0  0  0  0  0  0
    3.8689   13.0399   38.7226 C   0  0  0  0  0  0  0  0  0  0  0  0
    2.0189   22.9160   36.0906 C   0  0  0  0  0  0  0  0  0  0  0  0
    0.8197   26.6180   31.1176 C   0  0  0  0  0  0  0  0  0  0  0  0
   -0.2289   29.0298   33.5115 C   0  0  0  0  0  0  0  0  0  0  0  0
    2.2524   23.2103   34.7696 C   0  0  0  0  0  0  0  0  0  0  0  0
    1.6076   24.2671   34.1601 C   0  0  0  0  0  0  0  0  0  0  0  0
    2.4125   11.4535   37.5459 C   0  0  0  0  0  0  0  0  0  0  0  0
    4.6009   14.9138   37.5347 O   0  0  0  0  0  0  0  0  0  0  0  0
    1.0346   21.1560   35.5750 H   0  0  0  0  0  0  0  0  0  0  0  0
    0.7599   21.7925   37.2728 H   0  0  0  0  0  0  0  0  0  0  0  0
    2.7679   16.5457   38.7280 H   0  0  0  0  0  0  0  0  0  0  0  0
    2.5119   16.5579   36.9942 H   0  0  0  0  0  0  0  0  0  0  0  0
    1.0489   22.1972   39.2237 H   0  0  0  0  0  0  0  0  0  0  0  0
    3.0643   20.4310   36.3237 H   0  0  0  0  0  0  0  0  0  0  0  0
    3.2019   23.5351   32.3323 H   0  0  0  0  0  0  0  0  0  0  0  0
    1.7430   23.5673   31.2847 H   0  0  0  0  0  0  0  0  0  0  0  0
    2.9402   24.9038   31.1986 H   0  0  0  0  0  0  0  0  0  0  0  0
    3.5954   11.0234   39.4828 H   0  0  0  0  0  0  0  0  0  0  0  0
   -0.2645   28.5675   30.6265 H   0  0  0  0  0  0  0  0  0  0  0  0
    5.1108   16.7425   36.6575 H   0  0  0  0  0  0  0  0  0  0  0  0
    5.3251   16.6739   38.4234 H   0  0  0  0  0  0  0  0  0  0  0  0
    2.7970   14.1716   35.7037 H   0  0  0  0  0  0  0  0  0  0  0  0
    4.4676   18.6587   37.9900 H   0  0  0  0  0  0  0  0  0  0  0  0
    2.9302   18.7607   36.8359 H   0  0  0  0  0  0  0  0  0  0  0  0
    0.4484   27.3462   35.3450 H   0  0  0  0  0  0  0  0  0  0  0  0
    1.6491   26.0768   34.9286 H   0  0  0  0  0  0  0  0  0  0  0  0
    2.1080   27.8111   34.8390 H   0  0  0  0  0  0  0  0  0  0  0  0
    1.6227   21.1642   41.5992 H   0  0  0  0  0  0  0  0  0  0  0  0
   -1.2376   30.2855   34.7082 H   0  0  0  0  0  0  0  0  0  0  0  0
   -1.5767   28.4173   34.8661 H   0  0  0  0  0  0  0  0  0  0  0  0
    0.7775   24.4055   32.6173 H   0  0  0  0  0  0  0  0  0  0  0  0
    0.6390   11.2853   35.7330 H   0  0  0  0  0  0  0  0  0  0  0  0
    4.5775   13.2979   39.5234 H   0  0  0  0  0  0  0  0  0  0  0  0
    1.3072   23.6682   36.4617 H   0  0  0  0  0  0  0  0  0  0  0  0
    3.0277   22.9116   36.5290 H   0  0  0  0  0  0  0  0  0  0  0  0
    0.9885   26.1230   30.1499 H   0  0  0  0  0  0  0  0  0  0  0  0
    0.1864   29.9918   33.1767 H   0  0  0  0  0  0  0  0  0  0  0  0
    2.9603   22.5977   34.1919 H   0  0  0  0  0  0  0  0  0  0  0  0
    0.8306   24.7093   34.8012 H   0  0  0  0  0  0  0  0  0  0  0  0
    2.0041   10.4381   37.4360 H   0  0  0  0  0  0  0  0  0  0  0  0
  1  6  1  0
  2 15  1  0
  3 21  1  0
  3  5  2  0
  4 17  2  0
  5 16  1  0
  6  8  1  0
  8 20  2  0
  8  4  1  0
  9 17  1  0
 10 24  1  0
 11 19  1  0
 12 14  2  0
 12 30  1  0
 13  2  1  0
 14 23  1  0
 15 20  1  0
 19  5  1  0
 19 27  1  0
 20  9  1  0
 21  7  1  0
 21 29  1  0
 22 12  1  0
 23 24  2  0
 25  1  1  0
 26 11  2  0
 26  3  1  0
 27 18  2  3
 28 25  1  0
 29 28  2  3
 30 10  2  0
 31 13  1  0
 31 23  1  0
  1 32  1  0
  1 33  1  0
  2 34  1  0
  2 35  1  0
  4 36  1  0
  6 37  1  0
  7 38  1  0
  7 39  1  0
  7 40  1  0
 10 41  1  0
 11 42  1  0
 13 43  1  0
 13 44  1  0
 14 45  1  0
 15 46  1  0
 15 47  1  0
 16 48  1  0
 16 49  1  0
 16 50  1  0
 17 51  1  0
 18 52  1  0
 18 53  1  0
 21 54  1  6
 22 55  1  0
 24 56  1  0
 25 57  1  0
 25 58  1  0
 26 59  1  0
 27 60  1  0
 28 61  1  0
 29 62  1  0
 30 63  1  0
M  END
>  <mol_id>  (3) 
2026-09-16-6tgu-s0-n100-0003

>  <rmsd_to_ref>  (3) 


$$$$

     RDKit          3D

 37 35  0  0  0  0  0  0  0  0999 V2000
    3.6912   20.7693   35.4435 O   0  0  0  0  0  0  0  0  0  0  0  0
    2.3734   15.8928   38.4571 C   0  0  0  0  0  0  0  0  0  0  0  0
    2.6115   24.4054   31.6254 O   0  0  0  0  0  0  0  0  0  0  0  0
    3.0501   21.0255   40.7115 C   0  0  0  0  0  0  0  0  0  0  0  0
    3.0551   16.7588   40.5918 O   0  0  0  0  0  0  0  0  0  0  0  0
    3.6068   17.9076   38.7041 N   0  0  0  0  0  0  0  0  0  0  0  0
    4.1389   23.0761   33.6513 O   0  0  0  0  0  0  0  0  0  0  0  0
    3.0342   20.2106   39.4305 C   0  0  0  0  0  0  0  0  0  0  0  0
    1.2367   25.4391   33.2904 C   0  0  0  0  0  0  0  0  0  0  0  0
    2.6006   21.4152   34.8469 C   0  0  0  0  0  0  0  0  0  0  0  0
    3.9955   19.1312   39.2397 C   0  0  0  0  0  0  0  0  0  0  0  0
    5.0816   19.2358   39.8628 O   0  0  0  0  0  0  0  0  0  0  0  0
    3.0272   16.8321   39.3792 C   0  0  0  0  0  0  0  0  0  0  0  0
    2.3972   24.5740   32.9338 C   0  0  1  0  0  0  0  0  0  0  0  0
    0.3274   25.7502   32.3282 O   0  0  0  0  0  0  0  0  0  0  0  0
    2.7241   23.0621   35.1413 C   0  0  0  0  0  0  0  0  0  0  0  0
    1.9727   14.7329   38.9612 O   0  0  0  0  0  0  0  0  0  0  0  0
    2.8777   23.6945   33.9252 C   0  0  2  0  0  0  0  0  0  0  0  0
    0.9833   25.7657   34.4364 O   0  0  0  0  0  0  0  0  0  0  0  0
    3.7451   21.0263   36.3981 H   0  0  0  0  0  0  0  0  0  0  0  0
    3.0846   15.6743   37.6469 H   0  0  0  0  0  0  0  0  0  0  0  0
    1.4503   16.4001   38.1403 H   0  0  0  0  0  0  0  0  0  0  0  0
    3.5725   24.2263   31.4688 H   0  0  0  0  0  0  0  0  0  0  0  0
    3.6437   20.4991   41.4736 H   0  0  0  0  0  0  0  0  0  0  0  0
    3.4979   22.0105   40.5139 H   0  0  0  0  0  0  0  0  0  0  0  0
    2.0204   21.1570   41.0751 H   0  0  0  0  0  0  0  0  0  0  0  0
    3.7647   17.7807   37.6942 H   0  0  0  0  0  0  0  0  0  0  0  0
    4.6625   23.0094   34.4889 H   0  0  0  0  0  0  0  0  0  0  0  0
    3.1838   20.9187   38.6021 H   0  0  0  0  0  0  0  0  0  0  0  0
    2.0698   19.6838   39.4786 H   0  0  0  0  0  0  0  0  0  0  0  0
    1.6632   21.0317   35.2761 H   0  0  0  0  0  0  0  0  0  0  0  0
    2.6009   21.2271   33.7631 H   0  0  0  0  0  0  0  0  0  0  0  0
    3.3295   25.1446   33.0568 H   0  0  0  0  0  0  0  0  0  0  0  0
    1.8119   23.4233   35.6388 H   0  0  0  0  0  0  0  0  0  0  0  0
    3.5817   23.2735   35.7968 H   0  0  0  0  0  0  0  0  0  0  0  0
    2.2589   14.6675   39.9067 H   0  0  0  0  0  0  0  0  0  0  0  0
    2.3606   22.8574   33.4334 H   0  0  0  0  0  0  0  0  0  0  0  0
  2 17  1  0
  2 13  1  0
  6 13  1  0
  6 11  1  0
  8 11  1  0
  8  4  1  0
  9 14  1  0
  9 19  1  0
 10 16  1  0
 10  1  1  0
 11 12  2  0
 13  5  2  0
 14  3  1  0
 14 18  1  0
 15  9  2  0
 18  7  1  0
 18 16  1  0
  1 20  1  0
  2 21  1  0
  2 22  1  0
  3 23  1  0
  4 24  1  0
  4 25  1  0
  4 26  1  0
  6 27  1  0
  7 28  1  0
  8 29  1  0
  8 30  1  0
 10 31  1  0
 10 32  1  0
 14 33  1  1
 16 34  1  0
 16 35  1  0
 17 36  1  0
 18 37  1  6
M  CHG  1  19  -1
M  END
>  <mol_id>  (4) 
2026-09-16-6tgu-s0-n100-0004

>  <rmsd_to_ref>  (4) 


$$$$

     RDKit          3D

 62 62  0  0  0  0  0  0  0  0999 V2000
    0.1926   20.5082   42.0478 C   0  0  0  0  0  0  0  0  0  0  0  0
    1.8820   22.1206   35.4819 C   0  0  0  0  0  0  0  0  0  0  0  0
    2.4405   17.3617   39.7904 N   0  0  0  0  0  0  0  0  0  0  0  0
    2.3367   18.5746   39.2845 C   0  0  0  0  0  0  0  0  0  0  0  0
    1.9021   20.9705   37.8397 C   0  0  0  0  0  0  0  0  0  0  0  0
    3.5108   15.3183   38.7161 C   0  0  0  0  0  0  0  0  0  0  0  0
    4.2340   14.4425   37.7856 C   0  0  0  0  0  0  0  0  0  0  0  0
    1.7124   28.7034   31.0935 C   0  0  0  0  0  0  0  0  0  0  0  0
    5.1519   15.2417   36.9288 O   0  0  0  0  0  0  0  0  0  0  0  0
    1.4127   19.6441   40.0382 C   0  0  0  0  0  0  0  0  0  0  0  0
    3.2375   16.8886   38.6697 N   0  0  0  0  0  0  0  0  0  0  0  0
    0.9607   25.6863   31.8210 C   0  0  0  0  0  0  0  0  0  0  0  0
    2.8210   18.9133   37.9506 C   0  0  0  0  0  0  0  0  0  0  0  0
    0.8615   19.2885   41.4269 C   0  0  0  0  0  0  0  0  0  0  0  0
    2.9875   27.8507   30.5738 C   0  0  0  0  0  0  0  0  0  0  0  0
    1.5552   22.2053   37.0013 C   0  0  0  0  0  0  0  0  0  0  0  0
    2.7783   20.0118   37.3194 N   0  0  0  0  0  0  0  0  0  0  0  0
    2.4793   25.3970   31.5054 C   0  0  0  0  0  0  0  0  0  0  0  0
    1.2799   20.8896   39.2639 C   0  0  0  0  0  0  0  0  0  0  0  0
    2.0643   15.4113   41.3550 C   0  0  0  0  0  0  0  0  0  0  0  0
    3.6346   24.4528   31.5799 C   0  0  0  0  0  0  0  0  0  0  0  0
    1.9532   16.5847   40.7391 C   0  0  0  0  0  0  0  0  0  0  0  0
    0.6572   28.2099   32.4229 C   0  0  0  0  0  0  0  0  0  0  0  0
    0.4397   26.7047   32.9661 C   0  0  0  0  0  0  0  0  0  0  0  0
    3.0863   26.3115   30.4012 C   0  0  0  0  0  0  0  0  0  0  0  0
    0.2680   20.4497   43.1436 H   0  0  0  0  0  0  0  0  0  0  0  0
    0.6938   21.4212   41.6940 H   0  0  0  0  0  0  0  0  0  0  0  0
   -0.8671   20.5345   41.7541 H   0  0  0  0  0  0  0  0  0  0  0  0
    2.9577   22.2919   35.3281 H   0  0  0  0  0  0  0  0  0  0  0  0
    1.6116   21.1237   35.1037 H   0  0  0  0  0  0  0  0  0  0  0  0
    1.3076   22.8865   34.9401 H   0  0  0  0  0  0  0  0  0  0  0  0
    4.0267   15.1680   39.6758 H   0  0  0  0  0  0  0  0  0  0  0  0
    2.4946   14.9948   38.4464 H   0  0  0  0  0  0  0  0  0  0  0  0
    4.8199   13.7092   38.3591 H   0  0  0  0  0  0  0  0  0  0  0  0
    3.5061   13.9251   37.1434 H   0  0  0  0  0  0  0  0  0  0  0  0
    1.0547   28.8159   30.2190 H   0  0  0  0  0  0  0  0  0  0  0  0
    2.2158   29.5722   31.5428 H   0  0  0  0  0  0  0  0  0  0  0  0
    5.7035   15.8339   37.4990 H   0  0  0  0  0  0  0  0  0  0  0  0
    4.1430   17.3795   38.6809 H   0  0  0  0  0  0  0  0  0  0  0  0
    0.5194   24.7101   32.0706 H   0  0  0  0  0  0  0  0  0  0  0  0
    0.6648   26.2324   30.9131 H   0  0  0  0  0  0  0  0  0  0  0  0
    3.2986   18.0848   37.4070 H   0  0  0  0  0  0  0  0  0  0  0  0
    0.1241   18.4780   41.3300 H   0  0  0  0  0  0  0  0  0  0  0  0
    1.6902   18.9623   42.0725 H   0  0  0  0  0  0  0  0  0  0  0  0
    3.2127   28.2603   29.5780 H   0  0  0  0  0  0  0  0  0  0  0  0
    3.6415   27.9678   31.4504 H   0  0  0  0  0  0  0  0  0  0  0  0
    2.1105   23.0593   37.4166 H   0  0  0  0  0  0  0  0  0  0  0  0
    0.4612   22.3030   37.0613 H   0  0  0  0  0  0  0  0  0  0  0  0
    2.0548   25.1037   32.4769 H   0  0  0  0  0  0  0  0  0  0  0  0
    0.7467   21.7535   39.6875 H   0  0  0  0  0  0  0  0  0  0  0  0
    1.3784   15.1536   42.1754 H   0  0  0  0  0  0  0  0  0  0  0  0
    2.8422   14.6984   41.0440 H   0  0  0  0  0  0  0  0  0  0  0  0
    3.9187   24.3032   32.6320 H   0  0  0  0  0  0  0  0  0  0  0  0
    3.3486   23.4876   31.1366 H   0  0  0  0  0  0  0  0  0  0  0  0
    4.4874   24.8724   31.0260 H   0  0  0  0  0  0  0  0  0  0  0  0
    1.1192   17.1254   41.2104 H   0  0  0  0  0  0  0  0  0  0  0  0
    1.0090   28.7809   33.2948 H   0  0  0  0  0  0  0  0  0  0  0  0
   -0.3222   28.3774   31.9509 H   0  0  0  0  0  0  0  0  0  0  0  0
   -0.6277   26.5293   33.1656 H   0  0  0  0  0  0  0  0  0  0  0  0
    0.9970   26.5492   33.9017 H   0  0  0  0  0  0  0  0  0  0  0  0
    2.5820   26.0581   29.4570 H   0  0  0  0  0  0  0  0  0  0  0  0
    4.1659   26.1054   30.4460 H   0  0  0  0  0  0  0  0  0  0  0  0
  2 16  1  0
  3 22  1  0
  4  3  1  0
  4 10  2  0
  5 19  2  0
  6 11  1  0
  7  6  1  0
  8 23  1  0
  9  7  1  0
 10 14  1  0
 11  3  1  0
 12 24  1  0
 13  4  1  0
 14  1  1  0
 15  8  1  0
 16  5  1  0
 17 13  2  0
 17  5  1  0
 18 12  1  0
 19 10  1  0
 21 18  1  0
 22 20  2  3
 23 24  1  0
 25 15  1  0
 25 18  1  0
  1 26  1  0
  1 27  1  0
  1 28  1  0
  2 29  1  0
  2 30  1  0
  2 31  1  0
  6 32  1  0
  6 33  1  0
  7 34  1  0
  7 35  1  0
  8 36  1  0
  8 37  1  0
  9 38  1  0
 11 39  1  0
 12 40  1  0
 12 41  1  0
 13 42  1  0
 14 43  1  0
 14 44  1  0
 15 45  1  0
 15 46  1  0
 16 47  1  0
 16 48  1  0
 18 49  1  0
 19 50  1  0
 20 51  1  0
 20 52  1  0
 21 53  1  0
 21 54  1  0
 21 55  1  0
 22 56  1  0
 23 57  1  0
 23 58  1  0
 24 59  1  0
 24 60  1  0
 25 61  1  0
 25 62  1  0
M  END
>  <mol_id>  (5) 
2026-09-16-6tgu-s0-n100-0005

>  <rmsd_to_ref>  (5) 


$$$$

     RDKit          3D

 39 39  0  0  0  0  0  0  0  0999 V2000
    3.0170   20.4301   37.0571 C   0  0  0  0  0  0  0  0  0  0  0  0
    2.3360   24.8831   32.1421 C   0  0  0  0  0  0  0  0  0  0  0  0
    4.0717   20.8440   34.4928 C   0  0  0  0  0  0  0  0  0  0  0  0
    2.7881   18.2041   39.5000 C   0  0  0  0  0  0  0  0  0  0  0  0
    2.3090   18.3873   40.6939 C   0  0  0  0  0  0  0  0  0  0  0  0
    3.2866   21.2388   35.7555 C   0  0  0  0  0  0  0  0  0  0  0  0
    1.9881   17.0960   41.4101 C   0  0  0  0  0  0  0  0  0  0  0  0
    3.1459   19.6302   39.2134 C   0  0  0  0  0  0  0  0  0  0  0  0
    2.9495   22.4617   32.6075 C   0  0  2  0  0  0  0  0  0  0  0  0
    2.4974   22.9700   33.7924 O   0  0  0  0  0  0  0  0  0  0  0  0
    4.2793   21.4163   33.0020 C   0  0  0  0  0  0  0  0  0  0  0  0
    3.0387   16.9588   38.8838 C   0  0  0  0  0  0  0  0  0  0  0  0
    3.4898   19.2579   37.6937 C   0  0  2  0  0  0  0  0  0  0  0  0
    4.3708   18.1987   37.3362 O   0  0  0  0  0  0  0  0  0  0  0  0
    3.1573   23.7106   31.8231 C   0  0  0  0  0  0  0  0  0  0  0  0
    2.6711   15.8248   39.6682 C   0  0  0  0  0  0  0  0  0  0  0  0
    2.1479   15.8553   40.9214 C   0  0  0  0  0  0  0  0  0  0  0  0
    3.6474   16.2708   37.4954 F   0  0  0  0  0  0  0  0  0  0  0  0
    2.2293   20.9089   37.6573 H   0  0  0  0  0  0  0  0  0  0  0  0
    2.2822   25.0070   33.2338 H   0  0  0  0  0  0  0  0  0  0  0  0
    2.7873   25.7801   31.6930 H   0  0  0  0  0  0  0  0  0  0  0  0
    1.3224   24.7415   31.7388 H   0  0  0  0  0  0  0  0  0  0  0  0
    5.1045   20.7959   34.8681 H   0  0  0  0  0  0  0  0  0  0  0  0
    3.3330   20.0914   34.1799 H   0  0  0  0  0  0  0  0  0  0  0  0
    2.1529   19.3815   41.1381 H   0  0  0  0  0  0  0  0  0  0  0  0
    2.8487   22.2476   35.7351 H   0  0  0  0  0  0  0  0  0  0  0  0
    1.5846   17.1803   42.4299 H   0  0  0  0  0  0  0  0  0  0  0  0
    2.3058   20.3318   39.3221 H   0  0  0  0  0  0  0  0  0  0  0  0
    3.8911   20.1469   39.8361 H   0  0  0  0  0  0  0  0  0  0  0  0
    2.3248   21.7995   31.9899 H   0  0  0  0  0  0  0  0  0  0  0  0
    2.9493   22.5092   34.5431 H   0  0  0  0  0  0  0  0  0  0  0  0
    4.3158   20.5804   32.2879 H   0  0  0  0  0  0  0  0  0  0  0  0
    5.2230   21.9788   32.9478 H   0  0  0  0  0  0  0  0  0  0  0  0
    3.3006   18.4045   37.0258 H   0  0  0  0  0  0  0  0  0  0  0  0
    4.7400   17.7855   38.1566 H   0  0  0  0  0  0  0  0  0  0  0  0
    2.9751   23.4644   30.7666 H   0  0  0  0  0  0  0  0  0  0  0  0
    4.1810   24.0217   32.0789 H   0  0  0  0  0  0  0  0  0  0  0  0
    2.8257   14.8340   39.2161 H   0  0  0  0  0  0  0  0  0  0  0  0
    1.8802   14.9484   41.4836 H   0  0  0  0  0  0  0  0  0  0  0  0
  1 13  1  0
  3  6  1  0
  4  5  2  0
  5  7  1  0
  6  1  2  3
  8  4  1  0
  9 11  1  0
  9 10  1  0
 11  3  1  0
 12  4  1  0
 12 16  2  0
 13 14  1  0
 13  8  1  0
 15  2  1  0
 15  9  1  0
 16 17  1  0
 17  7  2  0
 18 12  1  0
  1 19  1  0
  2 20  1  0
  2 21  1  0
  2 22  1  0
  3 23  1  0
  3 24  1  0
  5 25  1  0
  6 26  1  0
  7 27  1  0
  8 28  1  0
  8 29  1  0
  9 30  1  6
 10 31  1  0
 11 32  1  0
 11 33  1  0
 13 34  1  6
 14 35  1  0
 15 36  1  0
 15 37  1  0
 16 38  1  0
 17 39  1  0
M  END
>  <mol_id>  (6) 
2026-09-16-6tgu-s0-n100-0006

>  <rmsd_to_ref>  (6) 


$$$$

     RDKit          3D

 62 62  0  0  0  0  0  0  0  0999 V2000
    2.4062   25.0943   32.6743 C   0  0  0  0  0  0  0  0  0  0  0  0
   -0.1054   16.2448   44.3666 C   0  0  0  0  0  0  0  0  0  0  0  0
    1.4327   26.2579   32.1401 C   0  0  0  0  0  0  0  0  0  0  0  0
    1.2590   17.8858   42.2385 C   0  0  0  0  0  0  0  0  0  0  0  0
    3.1414   22.9184   32.5051 O   0  0  0  0  0  0  0  0  0  0  0  0
    3.6528   17.7409   37.9556 C   0  0  0  0  0  0  0  0  0  0  0  0
   -0.0193   19.7161   43.0493 O   0  0  0  0  0  0  0  0  0  0  0  0
   -0.2190   17.5566   44.1203 C   0  0  0  0  0  0  0  0  0  0  0  0
    1.2857   22.7378   33.9803 C   0  0  0  0  0  0  0  0  0  0  0  0
    3.5071   20.2567   34.5473 C   0  0  0  0  0  0  0  0  0  0  0  0
    1.8474   16.6861   41.9846 C   0  0  0  0  0  0  0  0  0  0  0  0
    1.5411   15.5084   42.6798 C   0  0  0  0  0  0  0  0  0  0  0  0
   -0.8470   19.9483   41.9208 C   0  0  0  0  0  0  0  0  0  0  0  0
    3.2270   17.8971   40.4177 C   0  0  0  0  0  0  0  0  0  0  0  0
    2.1900   14.3444   42.3115 F   0  0  0  0  0  0  0  0  0  0  0  0
    3.0131   19.1271   37.9581 C   0  0  0  0  0  0  0  0  0  0  0  0
    2.7422   16.6539   40.9868 O   0  0  0  0  0  0  0  0  0  0  0  0
    0.3341   18.3453   43.1189 C   0  0  0  0  0  0  0  0  0  0  0  0
    3.1780   21.2176   34.0524 C   0  0  0  0  0  0  0  0  0  0  0  0
    2.5167   23.7699   30.3440 C   0  0  0  0  0  0  0  0  0  0  0  0
    2.2138   23.7206   31.7747 C   0  0  0  0  0  0  0  0  0  0  0  0
    2.7089   22.4157   33.5844 C   0  0  1  0  0  0  0  0  0  0  0  0
    1.7181   22.8366   29.5385 C   0  0  0  0  0  0  0  0  0  0  0  0
    4.1509   17.4321   39.2855 C   0  0  0  0  0  0  0  0  0  0  0  0
    2.8971   19.7190   36.6628 C   0  0  0  0  0  0  0  0  0  0  0  0
    0.6465   15.2561   43.7035 C   0  0  0  0  0  0  0  0  0  0  0  0
    3.6875   19.3577   35.6276 C   0  0  0  0  0  0  0  0  0  0  0  0
    3.4502   25.4328   32.5994 H   0  0  0  0  0  0  0  0  0  0  0  0
    2.1540   24.8721   33.7217 H   0  0  0  0  0  0  0  0  0  0  0  0
   -0.6929   15.8823   45.2230 H   0  0  0  0  0  0  0  0  0  0  0  0
    1.0713   26.8532   32.9915 H   0  0  0  0  0  0  0  0  0  0  0  0
    1.9852   26.9084   31.4461 H   0  0  0  0  0  0  0  0  0  0  0  0
    0.5758   25.8079   31.6174 H   0  0  0  0  0  0  0  0  0  0  0  0
    1.6216   18.6770   41.5659 H   0  0  0  0  0  0  0  0  0  0  0  0
    2.9025   16.9918   37.6624 H   0  0  0  0  0  0  0  0  0  0  0  0
    4.4878   17.7248   37.2396 H   0  0  0  0  0  0  0  0  0  0  0  0
   -1.3024   17.7117   44.0102 H   0  0  0  0  0  0  0  0  0  0  0  0
    0.4269   17.9050   44.9398 H   0  0  0  0  0  0  0  0  0  0  0  0
    1.2189   22.8177   35.0753 H   0  0  0  0  0  0  0  0  0  0  0  0
    0.9853   23.6926   33.5239 H   0  0  0  0  0  0  0  0  0  0  0  0
    0.6174   21.9375   33.6295 H   0  0  0  0  0  0  0  0  0  0  0  0
   -1.8173   20.3459   42.2532 H   0  0  0  0  0  0  0  0  0  0  0  0
   -0.3617   20.6759   41.2537 H   0  0  0  0  0  0  0  0  0  0  0  0
   -1.0037   19.0031   41.3803 H   0  0  0  0  0  0  0  0  0  0  0  0
    2.3957   18.5010   40.0248 H   0  0  0  0  0  0  0  0  0  0  0  0
    3.7369   18.5366   41.1533 H   0  0  0  0  0  0  0  0  0  0  0  0
    2.0051   19.0415   38.3902 H   0  0  0  0  0  0  0  0  0  0  0  0
    3.6740   19.7801   38.5470 H   0  0  0  0  0  0  0  0  0  0  0  0
    2.3251   24.7914   29.9835 H   0  0  0  0  0  0  0  0  0  0  0  0
    3.5699   23.4743   30.2282 H   0  0  0  0  0  0  0  0  0  0  0  0
    1.1664   23.3951   31.6908 H   0  0  0  0  0  0  0  0  0  0  0  0
    3.3444   23.0711   34.1980 H   0  0  0  0  0  0  0  0  0  0  0  0
    1.1902   22.1372   30.2035 H   0  0  0  0  0  0  0  0  0  0  0  0
    0.9849   23.4006   28.9432 H   0  0  0  0  0  0  0  0  0  0  0  0
    2.3810   22.2730   28.8655 H   0  0  0  0  0  0  0  0  0  0  0  0
    4.2744   16.3420   39.3648 H   0  0  0  0  0  0  0  0  0  0  0  0
    5.1005   17.9742   39.4049 H   0  0  0  0  0  0  0  0  0  0  0  0
    1.8627   19.5381   36.3353 H   0  0  0  0  0  0  0  0  0  0  0  0
    3.2314   20.7494   36.8540 H   0  0  0  0  0  0  0  0  0  0  0  0
    0.5130   14.2117   44.0216 H   0  0  0  0  0  0  0  0  0  0  0  0
    3.4225   18.3404   35.3038 H   0  0  0  0  0  0  0  0  0  0  0  0
    4.7393   19.3832   35.9485 H   0  0  0  0  0  0  0  0  0  0  0  0
  3  1  1  0
  4 18  2  0
  5 22  1  0
  6 16  1  0
  6 24  1  0
  7 18  1  0
  8  2  1  0
 10 27  1  0
 11  4  1  0
 11 12  2  0
 12 26  1  0
 13  7  1  0
 14 17  1  0
 15 12  1  0
 17 11  1  0
 18  8  1  0
 19 10  3  0
 20 21  1  0
 21  5  1  0
 21  1  1  0
 22  9  1  0
 22 19  1  0
 23 20  1  0
 24 14  1  0
 25 16  1  0
 26  2  2  0
 27 25  1  0
  1 28  1  0
  1 29  1  0
  2 30  1  0
  3 31  1  0
  3 32  1  0
  3 33  1  0
  4 34  1  0
  6 35  1  0
  6 36  1  0
  8 37  1  0
  8 38  1  0
  9 39  1  0
  9 40  1  0
  9 41  1  0
 13 42  1  0
 13 43  1  0
 13 44  1  0
 14 45  1  0
 14 46  1  0
 16 47  1  0
 16 48  1  0
 20 49  1  0
 20 50  1  0
 21 51  1  0
 22 52  1  1
 23 53  1  0
 23 54  1  0
 23 55  1  0
 24 56  1  0
 24 57  1  0
 25 58  1  0
 25 59  1  0
 26 60  1  0
 27 61  1  0
 27 62  1  0
M  END
>  <mol_id>  (7) 
2026-09-16-6tgu-s0-n100-0007

>  <rmsd_to_ref>  (7) 


$$$$

     RDKit          3D

 72 74  0  0  0  0  0  0  0  0999 V2000
    1.6368   19.3595   40.8872 C   0  0  0  0  0  0  0  0  0  0  0  0
    2.6154   18.5653   40.1877 C   0  0  1  0  0  0  0  0  0  0  0  0
    4.9808   23.4798   33.1645 O   0  0  0  0  0  0  0  0  0  0  0  0
    1.4928   24.3460   33.6237 C   0  0  0  0  0  0  0  0  0  0  0  0
    2.7397   17.0706   40.3293 S   0  0  0  0  0  0  0  0  0  0  0  0
    2.5134   20.1061   38.0797 C   0  0  0  0  0  0  0  0  0  0  0  0
    4.2069   12.7160   36.6499 O   0  0  0  0  0  0  0  0  0  0  0  0
   -1.9290   18.7980   44.4682 C   0  0  0  0  0  0  0  0  0  0  0  0
   -0.7087   17.6931   42.7143 C   0  0  0  0  0  0  0  0  0  0  0  0
   -1.1108   17.7011   44.0866 C   0  0  0  0  0  0  0  0  0  0  0  0
    2.2621   24.9441   31.4229 C   0  0  0  0  0  0  0  0  0  0  0  0
    4.0169   15.2417   39.1248 C   0  0  2  0  0  0  0  0  0  0  0  0
    5.6276   13.7358   38.3664 C   0  0  2  0  0  0  0  0  0  0  0  0
    6.1384   16.0890   38.3370 O   0  0  0  0  0  0  0  0  0  0  0  0
    2.7200   23.6660   33.8779 C   0  0  0  0  0  0  0  0  0  0  0  0
   -1.2806   20.0996   42.6324 C   0  0  0  0  0  0  0  0  0  0  0  0
    4.3411   18.1466   37.4552 O   0  0  0  0  0  0  0  0  0  0  0  0
   -1.9655   19.9108   43.7459 N   0  0  0  0  0  0  0  0  0  0  0  0
    3.6462   16.6932   39.1854 N   0  0  0  0  0  0  0  0  0  0  0  0
    5.4807   15.0517   39.0605 C   0  0  1  0  0  0  0  0  0  0  0  0
    3.7338   23.8482   32.9315 C   0  0  0  0  0  0  0  0  0  0  0  0
    0.1717   26.9754   32.9704 C   0  0  0  0  0  0  0  0  0  0  0  0
    4.5619   24.5479   30.6179 C   0  0  0  0  0  0  0  0  0  0  0  0
    0.3350   18.9331   40.9771 C   0  0  0  0  0  0  0  0  0  0  0  0
    2.8435   22.8798   35.1007 C   0  0  0  0  0  0  0  0  0  0  0  0
   -0.4578   19.0598   42.0960 C   0  0  0  0  0  0  0  0  0  0  0  0
    1.3010   25.0115   32.4334 C   0  0  0  0  0  0  0  0  0  0  0  0
    3.2134   19.2003   39.0390 C   0  0  2  0  0  0  0  0  0  0  0  0
    4.3260   13.5085   37.6765 C   0  0  1  0  0  0  0  0  0  0  0  0
    0.1013   25.7497   32.1998 N   0  0  0  0  0  0  0  0  0  0  0  0
    3.7440   21.7340   35.3134 C   0  0  0  0  0  0  0  0  0  0  0  0
    3.4840   24.4275   31.6563 C   0  0  0  0  0  0  0  0  0  0  0  0
    3.3883   14.5964   37.9171 C   0  0  0  0  0  0  0  0  0  0  0  0
    6.0316   12.6659   39.0987 O   0  0  0  0  0  0  0  0  0  0  0  0
    3.7325   18.0182   38.3672 C   0  0  0  0  0  0  0  0  0  0  0  0
    1.6143   20.3415   40.3923 H   0  0  0  0  0  0  0  0  0  0  0  0
    1.9844   19.3220   41.9302 H   0  0  0  0  0  0  0  0  0  0  0  0
    3.3216   18.5689   41.0311 H   0  0  0  0  0  0  0  0  0  0  0  0
    5.6762   23.6222   32.4743 H   0  0  0  0  0  0  0  0  0  0  0  0
    0.6957   24.3390   34.3818 H   0  0  0  0  0  0  0  0  0  0  0  0
    1.8394   20.7762   38.6335 H   0  0  0  0  0  0  0  0  0  0  0  0
    3.2563   20.7042   37.5316 H   0  0  0  0  0  0  0  0  0  0  0  0
    1.9290   19.5050   37.3677 H   0  0  0  0  0  0  0  0  0  0  0  0
    3.7281   11.8934   36.9219 H   0  0  0  0  0  0  0  0  0  0  0  0
   -2.5429   18.7236   45.3779 H   0  0  0  0  0  0  0  0  0  0  0  0
   -0.5889   16.7603   42.1438 H   0  0  0  0  0  0  0  0  0  0  0  0
   -0.8086   16.9156   44.7949 H   0  0  0  0  0  0  0  0  0  0  0  0
    2.0172   25.3195   30.4184 H   0  0  0  0  0  0  0  0  0  0  0  0
    3.6433   14.7710   40.0461 H   0  0  0  0  0  0  0  0  0  0  0  0
    6.4835   13.8122   37.6797 H   0  0  0  0  0  0  0  0  0  0  0  0
    6.3231   16.8488   38.9443 H   0  0  0  0  0  0  0  0  0  0  0  0
   -1.3436   21.0667   42.1122 H   0  0  0  0  0  0  0  0  0  0  0  0
    5.9438   15.0774   40.0579 H   0  0  0  0  0  0  0  0  0  0  0  0
   -0.1166   26.7708   34.0120 H   0  0  0  0  0  0  0  0  0  0  0  0
    1.1996   27.3663   32.9445 H   0  0  0  0  0  0  0  0  0  0  0  0
   -0.5145   27.7193   32.5395 H   0  0  0  0  0  0  0  0  0  0  0  0
    5.4979   24.8713   31.0968 H   0  0  0  0  0  0  0  0  0  0  0  0
    4.7156   23.5720   30.1342 H   0  0  0  0  0  0  0  0  0  0  0  0
    4.2618   25.2885   29.8621 H   0  0  0  0  0  0  0  0  0  0  0  0
   -0.2029   19.4585   40.1743 H   0  0  0  0  0  0  0  0  0  0  0  0
    0.4791   17.8428   40.9560 H   0  0  0  0  0  0  0  0  0  0  0  0
    3.1131   23.6054   35.8822 H   0  0  0  0  0  0  0  0  0  0  0  0
    1.8777   22.3537   35.0797 H   0  0  0  0  0  0  0  0  0  0  0  0
    3.8656   20.0001   39.4196 H   0  0  0  0  0  0  0  0  0  0  0  0
    3.9044   12.6184   38.1663 H   0  0  0  0  0  0  0  0  0  0  0  0
   -0.6777   25.4616   31.5906 H   0  0  0  0  0  0  0  0  0  0  0  0
    3.7915   21.4993   36.3870 H   0  0  0  0  0  0  0  0  0  0  0  0
    3.3624   20.8609   34.7637 H   0  0  0  0  0  0  0  0  0  0  0  0
    4.7505   21.9860   34.9483 H   0  0  0  0  0  0  0  0  0  0  0  0
    2.3783   14.2203   38.1375 H   0  0  0  0  0  0  0  0  0  0  0  0
    3.2419   15.2721   37.0614 H   0  0  0  0  0  0  0  0  0  0  0  0
    5.8025   12.8121   40.0506 H   0  0  0  0  0  0  0  0  0  0  0  0
  1 24  1  0
  2  1  1  0
  3 21  1  0
  5  2  1  0
  9 10  2  0
 10  8  1  0
 11 27  2  0
 12 33  1  0
 12 19  1  0
 13 34  1  0
 13 20  1  0
 15  4  2  0
 15 25  1  0
 16 18  1  0
 17 35  2  0
 18  8  2  0
 19  5  1  0
 20 14  1  0
 20 12  1  0
 21 15  1  0
 23 32  1  0
 24 26  1  0
 26  9  1  0
 26 16  2  0
 27 30  1  0
 27  4  1  0
 28  6  1  0
 28  2  1  0
 29  7  1  0
 29 13  1  0
 29 33  1  0
 30 22  1  0
 31 25  1  0
 32 11  1  0
 32 21  2  0
 35 19  1  0
 35 28  1  0
  1 36  1  0
  1 37  1  0
  2 38  1  1
  3 39  1  0
  4 40  1  0
  6 41  1  0
  6 42  1  0
  6 43  1  0
  7 44  1  0
  8 45  1  0
  9 46  1  0
 10 47  1  0
 11 48  1  0
 12 49  1  1
 13 50  1  6
 14 51  1  0
 16 52  1  0
 20 53  1  1
 22 54  1  0
 22 55  1  0
 22 56  1  0
 23 57  1  0
 23 58  1  0
 23 59  1  0
 24 60  1  0
 24 61  1  0
 25 62  1  0
 25 63  1  0
 28 64  1  1
 29 65  1  1
 30 66  1  0
 31 67  1  0
 31 68  1  0
 31 69  1  0
 33 70  1  0
 33 71  1  0
 34 72  1  0
M  END
>  <mol_id>  (8) 
2026-09-16-6tgu-s0-n100-0008

>  <rmsd_to_ref>  (8) 


$$$$

     RDKit          3D

 68 70  0  0  0  0  0  0  0  0999 V2000
    3.5627   15.2222   36.5688 N   0  0  0  0  0  0  0  0  0  0  0  0
    1.1365   19.4418   40.2170 C   0  0  0  0  0  0  0  0  0  0  0  0
    1.3835   13.9848   33.4248 N   0  0  0  0  0  0  0  0  0  0  0  0
    2.6289   25.4379   34.2527 C   0  0  2  0  0  0  0  0  0  0  0  0
    1.7995   27.5445   35.1518 C   0  0  0  0  0  0  0  0  0  0  0  0
    4.9516   15.7654   36.3800 C   0  0  0  0  0  0  0  0  0  0  0  0
    2.8890   19.5829   37.5438 C   0  0  0  0  0  0  0  0  0  0  0  0
    1.2836   22.5835   35.7544 O   0  0  0  0  0  0  0  0  0  0  0  0
    2.0231   18.5356   39.7207 C   0  0  1  0  0  0  0  0  0  0  0  0
    2.9191   24.7383   35.4658 C   0  0  1  0  0  0  0  0  0  0  0  0
    0.0807   19.8588   42.1730 C   0  0  0  0  0  0  0  0  0  0  0  0
    3.5354   23.3582   34.7756 C   0  0  0  0  0  0  0  0  0  0  0  0
    0.7590   26.5327   33.0265 C   0  0  0  0  0  0  0  0  0  0  0  0
    3.7386   25.6522   35.1413 O   0  0  0  0  0  0  0  0  0  0  0  0
    4.0148   13.5109   33.6974 C   0  0  0  0  0  0  0  0  0  0  0  0
   -0.2375   27.4979   33.1379 C   0  0  0  0  0  0  0  0  0  0  0  0
    0.7862   19.2973   41.3560 C   0  0  1  0  0  0  0  0  0  0  0  0
    2.1527   15.1574   38.4676 O   0  0  0  0  0  0  0  0  0  0  0  0
    2.6918   15.8584   37.6612 C   0  0  0  0  0  0  0  0  0  0  0  0
    3.1279   20.9172   35.2355 S   0  0  0  0  0  0  0  0  0  0  0  0
    2.5834   13.1902   33.2375 C   0  0  0  0  0  0  0  0  0  0  0  0
    4.3066   13.1315   35.1698 C   0  0  0  0  0  0  0  0  0  0  0  0
    0.7274   28.4354   35.1647 C   0  0  0  0  0  0  0  0  0  0  0  0
    3.2983   13.7817   36.1152 C   0  0  0  0  0  0  0  0  0  0  0  0
   -2.1805   19.3641   42.7128 O   0  0  0  0  0  0  0  0  0  0  0  0
    2.4510   11.9830   33.1057 O   0  0  0  0  0  0  0  0  0  0  0  0
   -0.2947   28.3817   34.1777 C   0  0  0  0  0  0  0  0  0  0  0  0
   -0.9696   18.9848   42.6790 C   0  0  0  0  0  0  0  0  0  0  0  0
    2.8988   17.1942   37.6336 N   0  0  0  0  0  0  0  0  0  0  0  0
    2.4813   22.4718   35.0399 C   0  0  0  0  0  0  0  0  0  0  0  0
    2.6614   19.8618   36.6239 C   0  0  0  0  0  0  0  0  0  0  0  0
   -0.7438   17.6027   43.1807 C   0  0  0  0  0  0  0  0  0  0  0  0
    1.4556   17.7998   41.0820 S   0  0  0  0  0  0  0  0  0  0  0  0
    1.7377   26.5128   34.1957 C   0  0  0  0  0  0  0  0  0  0  0  0
    2.3424   18.1727   38.4371 C   0  0  2  0  0  0  0  0  0  0  0  0
    0.2361   19.4040   39.5862 H   0  0  0  0  0  0  0  0  0  0  0  0
    1.6736   20.4016   40.2042 H   0  0  0  0  0  0  0  0  0  0  0  0
    0.4805   13.6474   33.0618 H   0  0  0  0  0  0  0  0  0  0  0  0
    1.4349   14.8862   33.9205 H   0  0  0  0  0  0  0  0  0  0  0  0
    2.3860   25.1287   33.2253 H   0  0  0  0  0  0  0  0  0  0  0  0
    2.6452   27.6420   35.8485 H   0  0  0  0  0  0  0  0  0  0  0  0
    5.4444   15.8600   37.3588 H   0  0  0  0  0  0  0  0  0  0  0  0
    5.5299   15.0801   35.7429 H   0  0  0  0  0  0  0  0  0  0  0  0
    4.8966   16.7537   35.9001 H   0  0  0  0  0  0  0  0  0  0  0  0
    3.5802   20.2470   38.0832 H   0  0  0  0  0  0  0  0  0  0  0  0
    3.0649   18.5976   39.3730 H   0  0  0  0  0  0  0  0  0  0  0  0
    2.4120   24.5024   36.4130 H   0  0  0  0  0  0  0  0  0  0  0  0
   -0.3847   20.7350   41.6979 H   0  0  0  0  0  0  0  0  0  0  0  0
    0.7140   20.1560   43.0218 H   0  0  0  0  0  0  0  0  0  0  0  0
    3.7061   23.4812   33.6959 H   0  0  0  0  0  0  0  0  0  0  0  0
    4.5172   23.0432   35.1588 H   0  0  0  0  0  0  0  0  0  0  0  0
    0.8340   25.8453   32.1710 H   0  0  0  0  0  0  0  0  0  0  0  0
    4.1812   14.5919   33.5800 H   0  0  0  0  0  0  0  0  0  0  0  0
    4.6906   12.9064   33.0746 H   0  0  0  0  0  0  0  0  0  0  0  0
   -1.0104   27.5511   32.3569 H   0  0  0  0  0  0  0  0  0  0  0  0
    0.5603   19.9267   42.2294 H   0  0  0  0  0  0  0  0  0  0  0  0
    4.2472   12.0384   35.2777 H   0  0  0  0  0  0  0  0  0  0  0  0
    5.3127   13.4916   35.4307 H   0  0  0  0  0  0  0  0  0  0  0  0
    0.6708   29.1970   35.9564 H   0  0  0  0  0  0  0  0  0  0  0  0
    2.3218   13.7721   35.6089 H   0  0  0  0  0  0  0  0  0  0  0  0
    3.3633   13.1866   37.0380 H   0  0  0  0  0  0  0  0  0  0  0  0
   -1.1512   29.0677   34.2533 H   0  0  0  0  0  0  0  0  0  0  0  0
    3.5599   17.5281   36.9179 H   0  0  0  0  0  0  0  0  0  0  0  0
    1.7608   19.3051   36.3252 H   0  0  0  0  0  0  0  0  0  0  0  0
   -0.7061   17.6132   44.2800 H   0  0  0  0  0  0  0  0  0  0  0  0
   -1.5666   16.9529   42.8481 H   0  0  0  0  0  0  0  0  0  0  0  0
    0.2085   17.2200   42.7848 H   0  0  0  0  0  0  0  0  0  0  0  0
    1.4892   17.5341   38.7099 H   0  0  0  0  0  0  0  0  0  0  0  0
  1 19  1  0
  2 17  1  0
  4 34  1  0
  4 14  1  0
  4 10  1  0
  6  1  1  0
  9 35  1  0
  9  2  1  0
  9 33  1  0
 10 12  1  0
 11 28  1  0
 12 30  1  0
 13 34  2  0
 14 10  1  0
 15 22  1  0
 16 13  1  0
 16 27  2  0
 17 11  1  0
 19 18  2  0
 20 31  1  0
 21  3  1  0
 21 15  1  0
 22 24  1  0
 23  5  2  0
 24  1  1  0
 25 28  2  0
 26 21  2  0
 27 23  1  0
 28 32  1  0
 29 19  1  0
 29 35  1  0
 30 20  1  0
 30  8  2  0
 31  7  2  3
 33 17  1  0
 34  5  1  0
 35  7  1  0
  2 36  1  0
  2 37  1  0
  3 38  1  0
  3 39  1  0
  4 40  1  6
  5 41  1  0
  6 42  1  0
  6 43  1  0
  6 44  1  0
  7 45  1  0
  9 46  1  1
 10 47  1  1
 11 48  1  0
 11 49  1  0
 12 50  1  0
 12 51  1  0
 13 52  1  0
 15 53  1  0
 15 54  1  0
 16 55  1  0
 17 56  1  1
 22 57  1  0
 22 58  1  0
 23 59  1  0
 24 60  1  0
 24 61  1  0
 27 62  1  0
 29 63  1  0
 31 64  1  0
 32 65  1  0
 32 66  1  0
 32 67  1  0
 35 68  1  6
M  END
>  <mol_id>  (9) 
2026-09-16-6tgu-s0-n100-0009

>  <rmsd_to_ref>  (9) 


$$$$

     RDKit          3D

 49 50  0  0  0  0  0  0  0  0999 V2000
    3.5346   24.2692   30.9141 C   0  0  0  0  0  0  0  0  0  0  0  0
    3.9571   22.6525   33.3779 C   0  0  0  0  0  0  0  0  0  0  0  0
    4.4671   18.1732   37.3933 O   0  0  0  0  0  0  0  0  0  0  0  0
    2.5925   23.1960   33.0039 C   0  0  0  0  0  0  0  0  0  0  0  0
    3.2805   20.3494   37.0505 N   0  0  0  0  0  0  0  0  0  0  0  0
    2.5952   24.2726   31.9879 C   0  0  1  0  0  0  0  0  0  0  0  0
    1.8474   25.4811   32.1779 C   0  0  0  0  0  0  0  0  0  0  0  0
    3.4717   25.2916   29.8702 C   0  0  0  0  0  0  0  0  0  0  0  0
    2.4329   18.9128   39.1009 C   0  0  0  0  0  0  0  0  0  0  0  0
    0.5798   19.7079   40.2878 C   0  0  0  0  0  0  0  0  0  0  0  0
    2.6690   21.1608   34.8172 C   0  0  0  0  0  0  0  0  0  0  0  0
    4.6946   19.8120   39.1851 O   0  0  0  0  0  0  0  0  0  0  0  0
    2.8571   19.9221   35.7025 C   0  0  0  0  0  0  0  0  0  0  0  0
    1.3310   26.0836   30.9124 C   0  0  0  0  0  0  0  0  0  0  0  0
    2.4269   26.3650   29.9486 C   0  0  0  0  0  0  0  0  0  0  0  0
    3.8795   19.3472   38.1368 S   0  0  0  0  0  6  0  0  0  0  0  0
    2.2680   17.5168   39.1554 C   0  0  0  0  0  0  0  0  0  0  0  0
    0.2515   17.2954   40.4537 C   0  0  0  0  0  0  0  0  0  0  0  0
    3.8346   21.2696   33.9392 C   0  0  0  0  0  0  0  0  0  0  0  0
   -0.0843   18.5728   40.5940 C   0  0  0  0  0  0  0  0  0  0  0  0
    1.7902   19.9225   39.5571 C   0  0  0  0  0  0  0  0  0  0  0  0
    1.2724   16.8060   39.7695 C   0  0  0  0  0  0  0  0  0  0  0  0
    4.3118   23.4919   30.8711 H   0  0  0  0  0  0  0  0  0  0  0  0
    4.4145   23.3100   34.1318 H   0  0  0  0  0  0  0  0  0  0  0  0
    4.5851   22.6160   32.4756 H   0  0  0  0  0  0  0  0  0  0  0  0
    1.9903   22.3623   32.6136 H   0  0  0  0  0  0  0  0  0  0  0  0
    2.1833   23.6452   33.9208 H   0  0  0  0  0  0  0  0  0  0  0  0
    2.4498   20.7751   37.4860 H   0  0  0  0  0  0  0  0  0  0  0  0
    1.8058   23.6115   31.6008 H   0  0  0  0  0  0  0  0  0  0  0  0
    0.9898   25.2578   32.8295 H   0  0  0  0  0  0  0  0  0  0  0  0
    2.5373   26.2148   32.6203 H   0  0  0  0  0  0  0  0  0  0  0  0
    4.1856   25.2736   29.0335 H   0  0  0  0  0  0  0  0  0  0  0  0
    0.1080   20.6268   40.6659 H   0  0  0  0  0  0  0  0  0  0  0  0
    1.7556   21.0532   34.2137 H   0  0  0  0  0  0  0  0  0  0  0  0
    2.5724   22.0635   35.4382 H   0  0  0  0  0  0  0  0  0  0  0  0
    1.9071   19.3719   35.7722 H   0  0  0  0  0  0  0  0  0  0  0  0
    3.6246   19.2673   35.2641 H   0  0  0  0  0  0  0  0  0  0  0  0
    0.6200   25.3838   30.4490 H   0  0  0  0  0  0  0  0  0  0  0  0
    0.8416   27.0365   31.1619 H   0  0  0  0  0  0  0  0  0  0  0  0
    2.9178   27.3022   30.2495 H   0  0  0  0  0  0  0  0  0  0  0  0
    1.9626   26.4256   28.9532 H   0  0  0  0  0  0  0  0  0  0  0  0
    3.0358   16.9215   38.6396 H   0  0  0  0  0  0  0  0  0  0  0  0
   -0.3912   16.5626   40.9634 H   0  0  0  0  0  0  0  0  0  0  0  0
    3.7291   20.5534   33.1110 H   0  0  0  0  0  0  0  0  0  0  0  0
    4.7378   21.0490   34.5271 H   0  0  0  0  0  0  0  0  0  0  0  0
   -1.0778   18.7343   41.0376 H   0  0  0  0  0  0  0  0  0  0  0  0
    2.4761   20.4652   40.2240 H   0  0  0  0  0  0  0  0  0  0  0  0
    1.4584   20.4518   38.6516 H   0  0  0  0  0  0  0  0  0  0  0  0
    1.3270   15.7106   39.6849 H   0  0  0  0  0  0  0  0  0  0  0  0
  1  6  1  0
  2 19  1  0
  3 16  2  0
  4  2  1  0
  5 16  1  0
  6  4  1  0
  7  6  1  0
  8  1  2  0
  9 17  2  0
  9 21  1  0
 10 20  2  0
 11 13  1  0
 13  5  1  0
 14  7  1  0
 15  8  1  0
 15 14  1  0
 16  9  1  0
 16 12  2  0
 17 22  1  0
 19 11  1  0
 20 18  1  0
 21 10  1  0
 22 18  2  0
  1 23  1  0
  2 24  1  0
  2 25  1  0
  4 26  1  0
  4 27  1  0
  5 28  1  0
  6 29  1  6
  7 30  1  0
  7 31  1  0
  8 32  1  0
 10 33  1  0
 11 34  1  0
 11 35  1  0
 13 36  1  0
 13 37  1  0
 14 38  1  0
 14 39  1  0
 15 40  1  0
 15 41  1  0
 17 42  1  0
 18 43  1  0
 19 44  1  0
 19 45  1  0
 20 46  1  0
 21 47  1  0
 21 48  1  0
 22 49  1  0
M  END
>  <mol_id>  (10) 
2026-09-16-6tgu-s0-n100-0010

>  <rmsd_to_ref>  (10) 


$$$$

     RDKit          3D

 63 64  0  0  0  0  0  0  0  0999 V2000
    1.9162   20.7509   37.6129 O   0  0  0  0  0  0  0  0  0  0  0  0
    1.1164   13.9407   42.0709 C   0  0  0  0  0  0  0  0  0  0  0  0
    2.4002   14.3233   40.1205 C   0  0  0  0  0  0  0  0  0  0  0  0
    3.8183   25.5587   29.9558 S   0  0  0  0  0  0  0  0  0  0  0  0
    3.3621   23.0576   31.7413 C   0  0  0  0  0  0  0  0  0  0  0  0
    0.8743   15.5625   41.7846 S   0  0  0  0  0  0  0  0  0  0  0  0
    1.9909   20.1084   39.0818 C   0  0  0  0  0  0  0  0  0  0  0  0
    3.7733   20.6899   34.2540 C   0  0  0  0  0  0  0  0  0  0  0  0
    2.8015   18.2624   37.6813 C   0  0  0  0  0  0  0  0  0  0  0  0
    3.6904   18.7413   36.9136 C   0  0  0  0  0  0  0  0  0  0  0  0
    2.6033   21.4342   34.9811 C   0  0  0  0  0  0  0  0  0  0  0  0
   -1.2041   23.9348   25.4614 C   0  0  0  0  0  0  0  0  0  0  0  0
    2.0739   13.3336   41.0834 C   0  0  0  0  0  0  0  0  0  0  0  0
    3.2107   22.0170   33.8361 C   0  0  0  0  0  0  0  0  0  0  0  0
    3.2521   14.1003   38.7955 C   0  0  0  0  0  0  0  0  0  0  0  0
    1.5051   24.3544   25.9668 C   0  0  0  0  0  0  0  0  0  0  0  0
    1.1967   20.6279   40.0538 N   0  0  0  0  0  0  0  0  0  0  0  0
    2.1342   18.8432   38.8287 C   0  0  2  0  0  0  0  0  0  0  0  0
    2.4086   14.2216   37.6407 O   0  0  0  0  0  0  0  0  0  0  0  0
    1.6335   17.9309   39.7541 C   0  0  0  0  0  0  0  0  0  0  0  0
    4.5937   23.3257   28.6436 O   0  0  0  0  0  0  0  0  0  0  0  0
    0.5591   25.1041   26.6155 C   0  0  2  0  0  0  0  0  0  0  0  0
    2.1153   16.6076   39.6088 N   0  0  0  0  0  0  0  0  0  0  0  0
    3.6854   24.3653   28.7802 C   0  0  0  0  0  0  0  0  0  0  0  0
    2.8474   24.4558   27.8307 N   0  0  0  0  0  0  0  0  0  0  0  0
    1.5650   24.5956   27.4371 C   0  0  2  0  0  0  0  0  0  0  0  0
    0.6981   19.7785   40.9430 C   0  0  0  0  0  0  0  0  0  0  0  0
    1.9203   15.5234   40.3589 C   0  0  0  0  0  0  0  0  0  0  0  0
    0.8855   18.4376   40.7731 N   0  0  0  0  0  0  0  0  0  0  0  0
    2.9651   22.6066   33.1102 C   0  0  0  0  0  0  0  0  0  0  0  0
   -0.9217   25.0450   26.2381 C   0  0  0  0  0  0  0  0  0  0  0  0
    0.6337   13.3803   42.8851 H   0  0  0  0  0  0  0  0  0  0  0  0
    3.6122   25.0065   31.1925 H   0  0  0  0  0  0  0  0  0  0  0  0
    3.9407   23.9900   31.8160 H   0  0  0  0  0  0  0  0  0  0  0  0
    3.9777   22.2812   31.2637 H   0  0  0  0  0  0  0  0  0  0  0  0
    2.4598   23.2333   31.1371 H   0  0  0  0  0  0  0  0  0  0  0  0
    4.7694   20.6210   34.7155 H   0  0  0  0  0  0  0  0  0  0  0  0
    3.9379   19.7044   33.7940 H   0  0  0  0  0  0  0  0  0  0  0  0
    2.4852   17.2379   37.4355 H   0  0  0  0  0  0  0  0  0  0  0  0
    4.0815   18.1377   36.0812 H   0  0  0  0  0  0  0  0  0  0  0  0
    4.0702   19.7601   37.0802 H   0  0  0  0  0  0  0  0  0  0  0  0
    1.5782   21.0400   34.9189 H   0  0  0  0  0  0  0  0  0  0  0  0
    2.4143   21.7639   36.0133 H   0  0  0  0  0  0  0  0  0  0  0  0
   -1.5163   23.1033   26.1103 H   0  0  0  0  0  0  0  0  0  0  0  0
   -2.0151   24.1758   24.7584 H   0  0  0  0  0  0  0  0  0  0  0  0
   -0.3053   23.6430   24.8983 H   0  0  0  0  0  0  0  0  0  0  0  0
    2.4551   12.3019   41.1038 H   0  0  0  0  0  0  0  0  0  0  0  0
    3.6215   22.9345   33.3894 H   0  0  0  0  0  0  0  0  0  0  0  0
    4.0498   14.8561   38.7443 H   0  0  0  0  0  0  0  0  0  0  0  0
    3.6923   13.0924   38.8157 H   0  0  0  0  0  0  0  0  0  0  0  0
    1.2520   23.3571   25.5778 H   0  0  0  0  0  0  0  0  0  0  0  0
    2.1836   24.5067   25.1145 H   0  0  0  0  0  0  0  0  0  0  0  0
    3.0844   18.8399   39.3829 H   0  0  0  0  0  0  0  0  0  0  0  0
    1.4700   14.3472   37.9294 H   0  0  0  0  0  0  0  0  0  0  0  0
    0.0978   26.0934   26.7519 H   0  0  0  0  0  0  0  0  0  0  0  0
    2.7168   16.4578   38.7862 H   0  0  0  0  0  0  0  0  0  0  0  0
    3.4003   24.3943   26.9638 H   0  0  0  0  0  0  0  0  0  0  0  0
    1.4048   24.5117   28.5221 H   0  0  0  0  0  0  0  0  0  0  0  0
    0.1370   20.1531   41.8119 H   0  0  0  0  0  0  0  0  0  0  0  0
    2.9392   23.5715   33.6378 H   0  0  0  0  0  0  0  0  0  0  0  0
    2.2979   21.8412   32.6869 H   0  0  0  0  0  0  0  0  0  0  0  0
   -1.1829   25.9520   25.6732 H   0  0  0  0  0  0  0  0  0  0  0  0
   -1.5110   24.9766   27.1643 H   0  0  0  0  0  0  0  0  0  0  0  0
  1  7  2  0
  3 28  2  0
  3 13  1  0
  5 30  1  0
  6  2  1  0
  7 17  1  0
  8 11  1  0
 10  9  2  3
 12 31  1  0
 13  2  2  0
 14  8  1  0
 14 11  1  0
 15  3  1  0
 16 22  1  0
 16 26  1  0
 17 27  2  0
 18  9  1  0
 18  7  1  0
 18 20  1  0
 19 15  1  0
 20 29  2  0
 21 24  2  0
 22 31  1  0
 22 26  1  0
 23 20  1  0
 23 28  1  0
 24  4  1  0
 25 24  1  0
 26 25  1  0
 28  6  1  0
 29 27  1  0
 30 14  1  0
  2 32  1  0
  4 33  1  0
  5 34  1  0
  5 35  1  0
  5 36  1  0
  8 37  1  0
  8 38  1  0
  9 39  1  0
 10 40  1  0
 10 41  1  0
 11 42  1  0
 11 43  1  0
 12 44  1  0
 12 45  1  0
 12 46  1  0
 13 47  1  0
 14 48  1  0
 15 49  1  0
 15 50  1  0
 16 51  1  0
 16 52  1  0
 18 53  1  1
 19 54  1  0
 22 55  1  6
 23 56  1  0
 25 57  1  0
 26 58  1  1
 27 59  1  0
 30 60  1  0
 30 61  1  0
 31 62  1  0
 31 63  1  0
M  END
>  <mol_id>  (11) 
2026-09-16-6tgu-s0-n100-0011

>  <rmsd_to_ref>  (11) 


$$$$

     RDKit          3D

 39 40  0  0  0  0  0  0  0  0999 V2000
    3.2199   20.3822   38.0030 N   0  0  0  0  0  0  0  0  0  0  0  0
    3.1870   22.8025   35.0462 C   0  0  0  0  0  0  0  0  0  0  0  0
    3.7075   21.9270   35.8779 C   0  0  2  0  0  0  0  0  0  0  0  0
    4.4202   16.8709   41.1022 N   0  0  0  0  0  0  0  0  0  0  0  0
    2.3692   23.4784   33.0342 C   0  0  0  0  0  0  0  0  0  0  0  0
    2.2156   20.0913   40.2346 C   0  0  0  0  0  0  0  0  0  0  0  0
    4.1916   20.7030   35.5293 O   0  0  0  0  0  0  0  0  0  0  0  0
    1.9983   19.5179   41.4703 C   0  0  0  0  0  0  0  0  0  0  0  0
    3.7307   17.9255   40.7762 C   0  0  0  0  0  0  0  0  0  0  0  0
    1.5331   25.3504   31.3976 C   0  0  0  0  0  0  0  0  0  0  0  0
    3.8635   18.5781   39.6397 C   0  0  0  0  0  0  0  0  0  0  0  0
    3.3220   22.9102   33.7259 C   0  0  0  0  0  0  0  0  0  0  0  0
    3.0655   19.6683   39.3120 C   0  0  0  0  0  0  0  0  0  0  0  0
    2.7351   24.4110   31.8597 C   0  0  0  0  0  0  0  0  0  0  0  0
    2.7040   18.3961   41.7333 C   0  0  0  0  0  0  0  0  0  0  0  0
    2.2708   20.6895   37.6221 C   0  0  0  0  0  0  0  0  0  0  0  0
    3.4992   21.0261   36.4252 C   0  0  1  0  0  0  0  0  0  0  0  0
    2.1019   22.7067   35.1989 H   0  0  0  0  0  0  0  0  0  0  0  0
    3.8128   23.6621   35.3280 H   0  0  0  0  0  0  0  0  0  0  0  0
    3.9294   22.9427   36.2373 H   0  0  0  0  0  0  0  0  0  0  0  0
    5.1442   16.5112   40.4638 H   0  0  0  0  0  0  0  0  0  0  0  0
    4.2420   16.3959   41.9987 H   0  0  0  0  0  0  0  0  0  0  0  0
    1.7490   22.6700   32.6197 H   0  0  0  0  0  0  0  0  0  0  0  0
    1.8900   24.1523   33.7596 H   0  0  0  0  0  0  0  0  0  0  0  0
    1.6253   20.9873   39.9923 H   0  0  0  0  0  0  0  0  0  0  0  0
    1.2934   19.9478   42.1972 H   0  0  0  0  0  0  0  0  0  0  0  0
    0.9907   25.7140   32.2828 H   0  0  0  0  0  0  0  0  0  0  0  0
    1.9327   26.2070   30.8349 H   0  0  0  0  0  0  0  0  0  0  0  0
    0.8465   24.7786   30.7561 H   0  0  0  0  0  0  0  0  0  0  0  0
    4.6325   18.2492   38.9252 H   0  0  0  0  0  0  0  0  0  0  0  0
    3.4431   21.8909   33.3305 H   0  0  0  0  0  0  0  0  0  0  0  0
    4.1775   23.5907   33.6036 H   0  0  0  0  0  0  0  0  0  0  0  0
    3.0412   23.7905   31.0045 H   0  0  0  0  0  0  0  0  0  0  0  0
    3.5451   25.0686   32.2081 H   0  0  0  0  0  0  0  0  0  0  0  0
    2.5156   17.8323   42.6589 H   0  0  0  0  0  0  0  0  0  0  0  0
    1.5730   20.8446   38.4582 H   0  0  0  0  0  0  0  0  0  0  0  0
    2.3872   21.6293   37.0624 H   0  0  0  0  0  0  0  0  0  0  0  0
    1.8745   19.9112   36.9534 H   0  0  0  0  0  0  0  0  0  0  0  0
    2.5779   20.7421   36.9548 H   0  0  0  0  0  0  0  0  0  0  0  0
  1 13  1  0
  3  2  1  0
  3 17  1  0
  5 12  1  0
  6  8  1  0
  7  3  1  0
  7 17  1  0
  8 15  2  0
  9  4  1  0
  9 15  1  0
 10 14  1  0
 11  9  2  0
 12  2  1  0
 13 11  1  0
 13  6  2  0
 14  5  1  0
 16  1  1  0
 17  1  1  0
  2 18  1  0
  2 19  1  0
  3 20  1  1
  4 21  1  0
  4 22  1  0
  5 23  1  0
  5 24  1  0
  6 25  1  0
  8 26  1  0
 10 27  1  0
 10 28  1  0
 10 29  1  0
 11 30  1  0
 12 31  1  0
 12 32  1  0
 14 33  1  0
 14 34  1  0
 15 35  1  0
 16 36  1  0
 16 37  1  0
 16 38  1  0
 17 39  1  6
M  END
>  <mol_id>  (12) 
2026-09-16-6tgu-s0-n100-0012

>  <rmsd_to_ref>  (12) 


$$$$

     RDKit          3D

 56 58  0  0  0  0  0  0  0  0999 V2000
    2.0077   21.8006   36.9662 N   0  0  0  0  0  0  0  0  0  0  0  0
    2.3483   22.9525   34.5357 C   0  0  0  0  0  0  0  0  0  0  0  0
    0.5378   19.5046   42.2838 C   0  0  0  0  0  0  0  0  0  0  0  0
    1.3206   20.5715   39.9634 C   0  0  0  0  0  0  0  0  0  0  0  0
    0.4389   26.0706   34.2663 C   0  0  0  0  0  0  0  0  0  0  0  0
    2.5800   20.6432   37.5512 C   0  0  0  0  0  0  0  0  0  0  0  0
    3.1412   17.2719   37.6338 C   0  0  0  0  0  0  0  0  0  0  0  0
    2.1359   22.1570   35.7343 C   0  0  0  0  0  0  0  0  0  0  0  0
   -1.3193   27.3544   31.4133 C   0  0  0  0  0  0  0  0  0  0  0  0
    3.2880   13.7885   37.1329 O   0  0  0  0  0  0  0  0  0  0  0  0
   -1.8304   28.0750   32.4993 C   0  0  0  0  0  0  0  0  0  0  0  0
    1.4222   23.8875   34.4549 N   0  0  0  0  0  0  0  0  0  0  0  0
   -1.1715   27.8633   33.6980 N   0  0  0  0  0  0  0  0  0  0  0  0
   -0.2530   26.8992   33.4255 C   0  0  0  0  0  0  0  0  0  0  0  0
    3.5449   22.8985   33.6055 C   0  0  0  0  0  0  0  0  0  0  0  0
    3.5173   20.0304   36.7462 O   0  0  0  0  0  0  0  0  0  0  0  0
    0.7171   25.8497   31.4008 C   0  0  0  0  0  0  0  0  0  0  0  0
    1.1545   24.9922   33.6764 C   0  0  1  0  0  0  0  0  0  0  0  0
    1.3667   24.9325   32.3180 C   0  0  0  0  0  0  0  0  0  0  0  0
    2.8346   15.8581   38.1372 C   0  0  0  0  0  0  0  0  0  0  0  0
    4.3919   17.7463   38.1568 O   0  0  0  0  0  0  0  0  0  0  0  0
    3.1995   19.1609   39.7105 C   0  0  0  0  0  0  0  0  0  0  0  0
    0.4704   20.3679   43.4491 C   0  0  0  0  0  0  0  0  0  0  0  0
    2.5697   18.9308   40.9422 O   0  0  0  0  0  0  0  0  0  0  0  0
    2.4341   14.7487   37.2013 C   0  0  0  0  0  0  0  0  0  0  0  0
    2.3942   20.2302   39.0358 C   0  0  0  0  0  0  0  0  0  0  0  0
    0.7931   18.0663   42.6066 C   0  0  0  0  0  0  0  0  0  0  0  0
    4.4487   18.6122   39.3336 C   0  0  0  0  0  0  0  0  0  0  0  0
   -0.2221   26.6787   32.0352 C   0  0  0  0  0  0  0  0  0  0  0  0
    3.1102   15.4817   39.2735 O   0  0  0  0  0  0  0  0  0  0  0  0
    1.4000   14.7584   36.5469 O   0  0  0  0  0  0  0  0  0  0  0  0
    1.4285   19.7542   41.0891 C   0  0  0  0  0  0  0  0  0  0  0  0
    1.4422   22.4075   37.5766 H   0  0  0  0  0  0  0  0  0  0  0  0
   -0.4741   19.7905   41.9610 H   0  0  0  0  0  0  0  0  0  0  0  0
    0.5542   21.3439   39.8020 H   0  0  0  0  0  0  0  0  0  0  0  0
    0.4416   26.2320   35.3544 H   0  0  0  0  0  0  0  0  0  0  0  0
    3.1929   17.2589   36.5351 H   0  0  0  0  0  0  0  0  0  0  0  0
    2.3413   17.9457   37.9748 H   0  0  0  0  0  0  0  0  0  0  0  0
    1.1580   21.7649   35.4180 H   0  0  0  0  0  0  0  0  0  0  0  0
    3.2121   22.2668   35.9336 H   0  0  0  0  0  0  0  0  0  0  0  0
   -1.6655   27.3178   30.3698 H   0  0  0  0  0  0  0  0  0  0  0  0
   -2.6890   28.7564   32.4072 H   0  0  0  0  0  0  0  0  0  0  0  0
    4.4653   22.7894   34.1980 H   0  0  0  0  0  0  0  0  0  0  0  0
    3.4425   22.0398   32.9258 H   0  0  0  0  0  0  0  0  0  0  0  0
    3.5948   23.8272   33.0181 H   0  0  0  0  0  0  0  0  0  0  0  0
    0.9367   25.8914   30.3238 H   0  0  0  0  0  0  0  0  0  0  0  0
    2.1125   25.5309   33.7217 H   0  0  0  0  0  0  0  0  0  0  0  0
    2.0480   24.1679   31.9164 H   0  0  0  0  0  0  0  0  0  0  0  0
    0.7900   19.8071   44.3399 H   0  0  0  0  0  0  0  0  0  0  0  0
    1.1336   21.2333   43.3031 H   0  0  0  0  0  0  0  0  0  0  0  0
   -0.5634   20.7174   43.5872 H   0  0  0  0  0  0  0  0  0  0  0  0
    0.9994   17.9628   43.6822 H   0  0  0  0  0  0  0  0  0  0  0  0
   -0.0924   17.4688   42.3441 H   0  0  0  0  0  0  0  0  0  0  0  0
    1.6599   17.7095   42.0310 H   0  0  0  0  0  0  0  0  0  0  0  0
    4.8354   18.0224   40.1777 H   0  0  0  0  0  0  0  0  0  0  0  0
    5.1001   19.4591   39.0719 H   0  0  0  0  0  0  0  0  0  0  0  0
  1  6  1  0
  2  8  1  0
  3 27  1  0
  3 23  1  0
  4 32  2  0
  6 26  1  0
  7 20  1  0
  7 21  1  0
  8  1  1  0
  9 29  2  0
  9 11  1  0
 11 13  2  0
 12  2  2  3
 14 13  1  0
 14  5  2  0
 15  2  1  0
 16  6  2  0
 17 29  1  0
 17 19  2  0
 18  5  1  0
 18 12  1  0
 19 18  1  0
 20 30  2  0
 21 28  1  0
 22 24  1  0
 25 10  1  0
 25 20  1  0
 26  4  1  0
 26 22  2  0
 28 22  1  0
 29 14  1  0
 31 25  2  0
 32 24  1  0
 32  3  1  0
  1 33  1  0
  3 34  1  0
  4 35  1  0
  5 36  1  0
  7 37  1  0
  7 38  1  0
  8 39  1  0
  8 40  1  0
  9 41  1  0
 11 42  1  0
 15 43  1  0
 15 44  1  0
 15 45  1  0
 17 46  1  0
 18 47  1  1
 19 48  1  0
 23 49  1  0
 23 50  1  0
 23 51  1  0
 27 52  1  0
 27 53  1  0
 27 54  1  0
 28 55  1  0
 28 56  1  0
M  CHG  1  10  -1
M  END
>  <mol_id>  (13) 
2026-09-16-6tgu-s0-n100-0013

>  <rmsd_to_ref>  (13) 


$$$$

     RDKit          3D

 39 38  0  0  0  0  0  0  0  0999 V2000
    0.0862   18.1367   40.6970 C   0  0  0  0  0  0  0  0  0  0  0  0
    5.7499   23.9582   31.5974 C   0  0  0  0  0  0  0  0  0  0  0  0
    4.0264   17.3332   37.9141 C   0  0  0  0  0  0  0  0  0  0  0  0
    2.9489   18.6360   39.3235 N   0  0  0  0  0  0  0  0  0  0  0  0
    3.8231   21.5754   35.0260 N   0  0  0  0  0  0  0  0  0  0  0  0
    1.8350   20.4747   39.2410 O   0  0  0  0  0  0  0  0  0  0  0  0
    3.4220   24.3566   30.6125 C   0  0  0  0  0  0  0  0  0  0  0  0
    3.2596   18.5602   37.9442 C   0  0  0  0  0  0  0  0  0  0  0  0
    3.6379   16.3700   38.7418 O   0  0  0  0  0  0  0  0  0  0  0  0
    3.2083   24.1990   33.0283 N   0  0  0  0  0  0  0  0  0  0  0  0
    1.9190   18.4486   41.9284 O   0  0  0  0  0  0  0  0  0  0  0  0
    2.0172   25.6526   31.8925 F   0  0  0  0  0  0  0  0  0  0  0  0
    1.1122   19.0229   41.0327 C   0  0  0  0  0  0  0  0  0  0  0  0
    4.8441   23.9563   30.4313 C   0  0  0  0  0  0  0  0  0  0  0  0
    2.7519   24.9256   29.4395 C   0  0  0  0  0  0  0  0  0  0  0  0
    5.0226   17.3069   37.2488 O   0  0  0  0  0  0  0  0  0  0  0  0
    5.2124   23.5270   32.7559 C   0  0  0  0  0  0  0  0  0  0  0  0
    4.1001   23.3548   33.3633 C   0  0  0  0  0  0  0  0  0  0  0  0
    1.9994   19.3732   39.8054 C   0  0  0  0  0  0  0  0  0  0  0  0
    0.6864   20.3256   41.6760 C   0  0  0  0  0  0  0  0  0  0  0  0
    3.0165   24.7278   31.8349 C   0  0  0  0  0  0  0  0  0  0  0  0
    3.9822   22.4395   34.2278 C   0  0  0  0  0  0  0  0  0  0  0  0
   -0.4221   17.8005   41.6128 H   0  0  0  0  0  0  0  0  0  0  0  0
   -0.6368   18.6443   40.0416 H   0  0  0  0  0  0  0  0  0  0  0  0
    0.5095   17.2675   40.1724 H   0  0  0  0  0  0  0  0  0  0  0  0
    6.7961   24.2901   31.5254 H   0  0  0  0  0  0  0  0  0  0  0  0
    3.5089   18.0736   39.9801 H   0  0  0  0  0  0  0  0  0  0  0  0
    3.8589   19.4219   37.6150 H   0  0  0  0  0  0  0  0  0  0  0  0
    2.3859   18.5715   37.2761 H   0  0  0  0  0  0  0  0  0  0  0  0
    1.5493   18.5797   42.8374 H   0  0  0  0  0  0  0  0  0  0  0  0
    5.2164   23.6621   29.4390 H   0  0  0  0  0  0  0  0  0  0  0  0
    1.8582   25.4804   29.7611 H   0  0  0  0  0  0  0  0  0  0  0  0
    3.4400   25.6083   28.9194 H   0  0  0  0  0  0  0  0  0  0  0  0
    2.4548   24.1150   28.7578 H   0  0  0  0  0  0  0  0  0  0  0  0
    5.6289   22.5100   32.8054 H   0  0  0  0  0  0  0  0  0  0  0  0
    5.3363   24.5202   33.2120 H   0  0  0  0  0  0  0  0  0  0  0  0
    0.5714   20.1788   42.7601 H   0  0  0  0  0  0  0  0  0  0  0  0
    1.4510   21.0941   41.4891 H   0  0  0  0  0  0  0  0  0  0  0  0
   -0.2727   20.6505   41.2462 H   0  0  0  0  0  0  0  0  0  0  0  0
  1 13  1  0
  2 17  1  0
  3  8  1  0
  3  9  1  0
  4 19  1  0
  6 19  2  0
  7 21  2  0
  8  4  1  0
 10 18  2  0
 13 20  1  0
 13 11  1  0
 14  7  1  0
 14  2  2  0
 15  7  1  0
 16  3  2  0
 17 18  1  0
 18 22  1  0
 19 13  1  0
 21 12  1  0
 21 10  1  0
 22  5  3  0
  1 23  1  0
  1 24  1  0
  1 25  1  0
  2 26  1  0
  4 27  1  0
  8 28  1  0
  8 29  1  0
 11 30  1  0
 14 31  1  0
 15 32  1  0
 15 33  1  0
 15 34  1  0
 17 35  1  0
 17 36  1  0
 20 37  1  0
 20 38  1  0
 20 39  1  0
M  CHG  1   9  -1
M  END
>  <mol_id>  (14) 
2026-09-16-6tgu-s0-n100-0014

>  <rmsd_to_ref>  (14) 


$$$$

     RDKit          3D

 72 74  0  0  0  0  0  0  0  0999 V2000
    2.5780   22.5160   34.9620 C   0  0  0  0  0  0  0  0  0  0  0  0
    3.2360   23.7170   27.9190 C   0  0  0  0  0  0  0  0  0  0  0  0
    4.4610   23.4680   28.7770 C   0  0  0  0  0  0  0  0  0  0  0  0
    2.0530   18.9070   40.4280 N   0  0  0  0  0  0  0  0  0  0  0  0
    3.3020   17.2220   37.3730 C   0  0  0  0  0  0  0  0  0  0  0  0
    5.1690   19.9910   40.5130 C   0  0  0  0  0  0  0  0  0  0  0  0
    3.4490   19.5870   38.8540 C   0  0  0  0  0  0  0  0  0  0  0  0
    2.7100   20.9950   37.0520 C   0  0  0  0  0  0  0  0  0  0  0  0
    4.2630   19.7590   39.9430 C   0  0  0  0  0  0  0  0  0  0  0  0
    3.2010   20.7280   33.8760 C   0  0  0  0  0  0  0  0  0  0  0  0
    5.6160   22.7830   27.9920 C   0  0  0  0  0  0  0  0  0  0  0  0
   -1.1790   20.5150   41.4940 S   0  0  0  0  0  0  0  0  0  0  0  0
    2.2070   24.5120   28.4790 C   0  0  0  0  0  0  0  0  0  0  0  0
    4.8930   22.1430   34.1390 F   0  0  0  0  0  0  0  0  0  0  0  0
    3.3070   23.0360   26.5650 C   0  0  0  0  0  0  0  0  0  0  0  0
    3.4100   23.2620   33.0130 C   0  0  0  0  0  0  0  0  0  0  0  0
    2.7620   18.4330   39.4050 C   0  0  2  0  0  0  0  0  0  0  0  0
    1.2740   19.9560   40.9010 C   0  0  0  0  0  0  0  0  0  0  0  0
    0.1050   19.4170   41.7260 C   0  0  1  0  0  0  0  0  0  0  0  0
   -1.9970   19.6030   42.9010 C   0  0  0  0  0  0  0  0  0  0  0  0
    3.1930   23.6180   31.9720 C   0  0  0  0  0  0  0  0  0  0  0  0
    3.3070   24.1430   30.6460 C   0  0  0  0  0  0  0  0  0  0  0  0
    2.1770   21.3500   35.8190 C   0  0  0  0  0  0  0  0  0  0  0  0
    1.4840   21.2000   40.7630 O   0  0  0  0  0  0  0  0  0  0  0  0
    4.6590   24.1970   30.0770 C   0  0  0  0  0  0  0  0  0  0  0  0
    3.4890   22.1680   33.8630 C   0  0  2  0  0  0  0  0  0  0  0  0
    0.5680   18.1120   42.3440 C   0  0  0  0  0  0  0  0  0  0  0  0
    3.0650   19.7130   37.4810 C   0  0  0  0  0  0  0  0  0  0  0  0
    5.8690   21.2590   41.1410 C   0  0  0  0  0  0  0  0  0  0  0  0
   -0.1420   18.0410   43.6950 C   0  0  0  0  0  0  0  0  0  0  0  0
    3.1200   17.1790   38.7640 C   0  0  0  0  0  0  0  0  0  0  0  0
   -1.4390   18.4240   43.4850 C   0  0  0  0  0  0  0  0  0  0  0  0
    2.2810   24.7310   29.9290 C   0  0  0  0  0  0  0  0  0  0  0  0
    0.7120   24.9790   27.5580 Cl  0  0  0  0  0  0  0  0  0  0  0  0
    3.1140   18.5410   36.7090 C   0  0  0  0  0  0  0  0  0  0  0  0
    1.6673   22.9561   34.5295 H   0  0  0  0  0  0  0  0  0  0  0  0
    3.1205   23.2167   35.6137 H   0  0  0  0  0  0  0  0  0  0  0  0
    2.1027   18.2052   41.1803 H   0  0  0  0  0  0  0  0  0  0  0  0
    3.5712   16.3225   36.7999 H   0  0  0  0  0  0  0  0  0  0  0  0
    5.7590   19.0819   40.7015 H   0  0  0  0  0  0  0  0  0  0  0  0
    2.8703   21.8131   37.7697 H   0  0  0  0  0  0  0  0  0  0  0  0
    3.1309   20.3775   34.9163 H   0  0  0  0  0  0  0  0  0  0  0  0
    2.2475   20.5401   33.3607 H   0  0  0  0  0  0  0  0  0  0  0  0
    4.0089   20.1878   33.3607 H   0  0  0  0  0  0  0  0  0  0  0  0
    6.3384   22.3545   28.7023 H   0  0  0  0  0  0  0  0  0  0  0  0
    5.2050   21.9825   27.3593 H   0  0  0  0  0  0  0  0  0  0  0  0
    6.1213   23.5275   27.3593 H   0  0  0  0  0  0  0  0  0  0  0  0
    3.4201   21.9509   26.7058 H   0  0  0  0  0  0  0  0  0  0  0  0
    2.3829   23.2385   26.0038 H   0  0  0  0  0  0  0  0  0  0  0  0
    4.1695   23.4248   26.0038 H   0  0  0  0  0  0  0  0  0  0  0  0
    3.6676   24.1502   33.6086 H   0  0  0  0  0  0  0  0  0  0  0  0
    3.6116   18.2491   40.0791 H   0  0  0  0  0  0  0  0  0  0  0  0
   -0.2376   18.8331   40.8590 H   0  0  0  0  0  0  0  0  0  0  0  0
   -2.0952   20.3311   43.7196 H   0  0  0  0  0  0  0  0  0  0  0  0
   -2.8998   19.2053   42.4144 H   0  0  0  0  0  0  0  0  0  0  0  0
    1.1022   21.4920   36.0054 H   0  0  0  0  0  0  0  0  0  0  0  0
    2.5873   20.5327   35.2077 H   0  0  0  0  0  0  0  0  0  0  0  0
    5.3875   23.6821   30.7205 H   0  0  0  0  0  0  0  0  0  0  0  0
    5.0606   25.2150   29.9659 H   0  0  0  0  0  0  0  0  0  0  0  0
    0.2797   17.2603   41.7104 H   0  0  0  0  0  0  0  0  0  0  0  0
    1.6621   18.0697   42.4493 H   0  0  0  0  0  0  0  0  0  0  0  0
    5.8322   21.1923   42.2384 H   0  0  0  0  0  0  0  0  0  0  0  0
    6.9176   21.3000   40.8111 H   0  0  0  0  0  0  0  0  0  0  0  0
    5.3450   22.1682   40.8111 H   0  0  0  0  0  0  0  0  0  0  0  0
   -0.1099   17.0130   44.0852 H   0  0  0  0  0  0  0  0  0  0  0  0
    0.3470   18.6963   44.4308 H   0  0  0  0  0  0  0  0  0  0  0  0
    3.2416   16.2479   39.3370 H   0  0  0  0  0  0  0  0  0  0  0  0
   -1.8851   18.3950   44.4900 H   0  0  0  0  0  0  0  0  0  0  0  0
   -1.6349   17.7542   42.6347 H   0  0  0  0  0  0  0  0  0  0  0  0
    1.5308   25.3541   30.4379 H   0  0  0  0  0  0  0  0  0  0  0  0
    3.9465   18.6617   36.0002 H   0  0  0  0  0  0  0  0  0  0  0  0
    2.0998   18.4713   36.2888 H   0  0  0  0  0  0  0  0  0  0  0  0
  1 23  1  0
  2 13  1  0
  2  3  2  0
  3 25  1  0
  4 18  1  0
  5 31  2  0
  6 29  1  0
  7 17  1  0
  7  9  2  0
  8 28  2  3
  9  6  2  0
 11  3  1  0
 12 19  1  0
 12 20  1  0
 13 33  2  0
 15  2  1  0
 16 26  1  0
 17  4  1  0
 19 18  1  0
 19 27  1  0
 20 32  1  0
 21 16  2  0
 22 21  2  0
 23  8  1  0
 24 18  2  0
 25 22  1  0
 26 10  1  0
 26 14  1  1
 26  1  1  0
 27 30  1  0
 28  7  1  0
 31 17  1  0
 32 30  1  0
 33 22  1  0
 34 13  1  0
 35  5  1  0
 35 28  1  0
  1 36  1  0
  1 37  1  0
  4 38  1  0
  5 39  1  0
  6 40  1  0
  8 41  1  0
 10 42  1  0
 10 43  1  0
 10 44  1  0
 11 45  1  0
 11 46  1  0
 11 47  1  0
 15 48  1  0
 15 49  1  0
 15 50  1  0
 16 51  1  0
 17 52  1  6
 19 53  1  1
 20 54  1  0
 20 55  1  0
 23 56  1  0
 23 57  1  0
 25 58  1  0
 25 59  1  0
 27 60  1  0
 27 61  1  0
 29 62  1  0
 29 63  1  0
 29 64  1  0
 30 65  1  0
 30 66  1  0
 31 67  1  0
 32 68  1  0
 32 69  1  0
 33 70  1  0
 35 71  1  0
 35 72  1  0
M  END
>  <mol_id>  (15) 
2026-09-16-6tgu-s0-n100-0015

>  <rmsd_to_ref>  (15) 


$$$$

     RDKit          3D

 49 51  0  0  0  0  0  0  0  0999 V2000
    2.6067   19.5733   37.9005 C   0  0  1  0  0  0  0  0  0  0  0  0
    1.5568   25.5395   31.6073 C   0  0  0  0  0  0  0  0  0  0  0  0
    4.1942   13.5621   38.0007 N   0  0  0  0  0  0  0  0  0  0  0  0
    4.2873   22.7036   34.4092 C   0  0  0  0  0  0  0  0  0  0  0  0
    2.4590   24.4585   34.0590 C   0  0  1  0  0  0  0  0  0  0  0  0
    1.9579   17.4965   39.1790 C   0  0  0  0  0  0  0  0  0  0  0  0
    2.0155   23.3818   34.4418 C   0  0  0  0  0  0  0  0  0  0  0  0
    2.3288   21.2441   36.0078 C   0  0  0  0  0  0  0  0  0  0  0  0
    2.9017   16.8706   37.0727 C   0  0  0  0  0  0  0  0  0  0  0  0
    1.4388   20.4339   38.5699 C   0  0  0  0  0  0  0  0  0  0  0  0
    2.8130   21.9762   34.8619 N   0  0  0  0  0  0  0  0  0  0  0  0
    4.3132   24.4072   34.4901 S   0  0  0  0  0  0  0  0  0  0  0  0
    2.5240   17.9236   37.8058 C   0  0  0  0  0  0  0  0  0  0  0  0
    1.5661   25.2089   33.0509 C   0  0  1  0  0  0  0  0  0  0  0  0
    2.0175   16.0166   39.1099 N   0  0  0  0  0  0  0  0  0  0  0  0
    1.5945   20.0244   40.1936 S   0  0  0  0  0  0  0  0  0  0  0  0
    3.4377   14.4173   37.8566 C   0  0  0  0  0  0  0  0  0  0  0  0
    1.7801   26.7391   35.6237 O   0  0  0  0  0  0  0  0  0  0  0  0
    2.7639   19.8530   36.3948 C   0  0  0  0  0  0  0  0  0  0  0  0
    1.9565   27.8494   32.5272 C   0  0  0  0  0  0  0  0  0  0  0  0
    3.0670   25.7725   30.9463 C   0  0  0  0  0  0  0  0  0  0  0  0
    1.3814   18.2262   40.2775 C   0  0  0  0  0  0  0  0  0  0  0  0
    1.1598   27.0910   33.9059 S   0  0  0  0  0  4  0  0  0  0  0  0
    2.6439   15.6731   37.8776 C   0  0  0  0  0  0  0  0  0  0  0  0
    3.3864   19.8911   38.6083 H   0  0  0  0  0  0  0  0  0  0  0  0
    1.0687   24.7141   31.0683 H   0  0  0  0  0  0  0  0  0  0  0  0
    1.0193   26.4939   31.5069 H   0  0  0  0  0  0  0  0  0  0  0  0
    4.5077   22.4090   33.3726 H   0  0  0  0  0  0  0  0  0  0  0  0
    5.0356   22.3526   35.1351 H   0  0  0  0  0  0  0  0  0  0  0  0
    2.3764   25.5160   34.3503 H   0  0  0  0  0  0  0  0  0  0  0  0
    1.4318   23.6364   35.3387 H   0  0  0  0  0  0  0  0  0  0  0  0
    1.6197   23.0381   33.4747 H   0  0  0  0  0  0  0  0  0  0  0  0
    1.2382   21.1843   35.8776 H   0  0  0  0  0  0  0  0  0  0  0  0
    2.7850   21.8270   36.8215 H   0  0  0  0  0  0  0  0  0  0  0  0
    3.3254   16.8982   36.0579 H   0  0  0  0  0  0  0  0  0  0  0  0
    1.5948   21.5113   38.4121 H   0  0  0  0  0  0  0  0  0  0  0  0
    0.4413   20.2300   38.1534 H   0  0  0  0  0  0  0  0  0  0  0  0
    1.0015   24.2734   32.9247 H   0  0  0  0  0  0  0  0  0  0  0  0
    1.6701   15.3582   39.8218 H   0  0  0  0  0  0  0  0  0  0  0  0
    3.8225   19.7280   36.1232 H   0  0  0  0  0  0  0  0  0  0  0  0
    2.1170   19.1435   35.8579 H   0  0  0  0  0  0  0  0  0  0  0  0
    2.6522   28.6225   32.8855 H   0  0  0  0  0  0  0  0  0  0  0  0
    2.5138   27.0883   31.9616 H   0  0  0  0  0  0  0  0  0  0  0  0
    1.2003   28.3105   31.8748 H   0  0  0  0  0  0  0  0  0  0  0  0
    3.8048   25.8976   31.7525 H   0  0  0  0  0  0  0  0  0  0  0  0
    3.3377   24.8999   30.3337 H   0  0  0  0  0  0  0  0  0  0  0  0
    3.0563   26.6739   30.3160 H   0  0  0  0  0  0  0  0  0  0  0  0
    0.3031   18.0104   40.3028 H   0  0  0  0  0  0  0  0  0  0  0  0
    1.9128   17.8941   41.1816 H   0  0  0  0  0  0  0  0  0  0  0  0
  1 19  1  0
  1 10  1  0
  4 12  1  0
  4 11  1  0
  5 14  1  0
  5 12  1  0
  5  7  1  0
  6 22  1  0
  7 11  1  0
  8 19  1  0
  9 13  1  0
  9 24  2  0
 10 16  1  0
 11  8  1  0
 13  1  1  0
 13  6  2  0
 14  2  1  0
 14 23  1  0
 15  6  1  0
 16 22  1  0
 17 24  1  0
 17  3  3  0
 21  2  1  0
 23 20  1  6
 23 18  2  0
 24 15  1  0
  1 25  1  1
  2 26  1  0
  2 27  1  0
  4 28  1  0
  4 29  1  0
  5 30  1  1
  7 31  1  0
  7 32  1  0
  8 33  1  0
  8 34  1  0
  9 35  1  0
 10 36  1  0
 10 37  1  0
 14 38  1  6
 15 39  1  0
 19 40  1  0
 19 41  1  0
 20 42  1  0
 20 43  1  0
 20 44  1  0
 21 45  1  0
 21 46  1  0
 21 47  1  0
 22 48  1  0
 22 49  1  0
M  END
>  <mol_id>  (16) 
2026-09-16-6tgu-s0-n100-0016

>  <rmsd_to_ref>  (16) 


$$$$

     RDKit          3D

 64 64  0  0  0  0  0  0  0  0999 V2000
    0.2029   21.1213   42.3501 C   0  0  0  0  0  0  0  0  0  0  0  0
    1.9693   15.5036   41.2123 S   0  0  0  0  0  0  0  0  0  0  0  0
    3.3932   19.9160   41.2186 C   0  0  0  0  0  0  0  0  0  0  0  0
    1.5149   24.9357   35.3824 C   0  0  0  0  0  0  0  0  0  0  0  0
    3.2155   18.5978   38.4655 C   0  0  0  0  0  0  0  0  0  0  0  0
    2.3061   20.9849   37.7511 N   0  0  0  0  0  0  0  0  0  0  0  0
    1.8760   19.9767   40.8565 C   0  0  2  0  0  0  0  0  0  0  0  0
    0.9178   26.1255   33.0767 O   0  0  0  0  0  0  0  0  0  0  0  0
    5.3542   16.8632   39.1034 O   0  0  0  0  0  0  0  0  0  0  0  0
    2.3985   19.9159   38.5621 C   0  0  0  0  0  0  0  0  0  0  0  0
    2.8108   24.7109   29.9075 C   0  0  0  0  0  0  0  0  0  0  0  0
    1.7956   16.8420   39.9597 C   0  0  0  0  0  0  0  0  0  0  0  0
    2.9591   17.3373   39.0826 C   0  0  0  0  0  0  0  0  0  0  0  0
    1.5994   20.2005   39.5477 O   0  0  0  0  0  0  0  0  0  0  0  0
    1.9379   22.4550   35.7116 C   0  0  0  0  0  0  0  0  0  0  0  0
    0.6119   28.1047   34.3899 O   0  0  0  0  0  0  0  0  0  0  0  0
    0.8105   27.0261   34.0741 C   0  0  0  0  0  0  0  0  0  0  0  0
    3.5268   20.9298   36.2868 O   0  0  0  0  0  0  0  0  0  0  0  0
    3.9334   15.1240   39.1020 N   0  0  0  0  0  0  0  0  0  0  0  0
    1.2114   25.8920   34.3489 C   0  0  1  0  0  0  0  0  0  0  0  0
    2.4358   23.7312   35.0437 C   0  0  1  0  0  0  0  0  0  0  0  0
    3.9998   23.7746   29.4498 C   0  0  0  0  0  0  0  0  0  0  0  0
    5.0134   23.7717   30.5365 C   0  0  0  0  0  0  0  0  0  0  0  0
    4.9839   14.1829   38.6525 C   0  0  0  0  0  0  0  0  0  0  0  0
    4.1969   16.3990   39.1169 C   0  0  0  0  0  0  0  0  0  0  0  0
    2.7563   21.3745   36.5103 C   0  0  0  0  0  0  0  0  0  0  0  0
    3.0667   25.1995   31.3548 C   0  0  0  0  0  0  0  0  0  0  0  0
    2.8625   24.0657   32.3334 C   0  0  0  0  0  0  0  0  0  0  0  0
    2.3460   23.7238   33.5165 C   0  0  0  0  0  0  0  0  0  0  0  0
    0.8589   20.9602   41.3533 C   0  0  0  0  0  0  0  0  0  0  0  0
   -0.4876   21.9746   42.4223 H   0  0  0  0  0  0  0  0  0  0  0  0
    0.2941   20.4152   43.1887 H   0  0  0  0  0  0  0  0  0  0  0  0
    1.6846   16.0024   42.4561 H   0  0  0  0  0  0  0  0  0  0  0  0
    3.5110   19.9510   42.3117 H   0  0  0  0  0  0  0  0  0  0  0  0
    3.8251   18.9806   40.8330 H   0  0  0  0  0  0  0  0  0  0  0  0
    3.9128   20.7736   40.7662 H   0  0  0  0  0  0  0  0  0  0  0  0
    1.9955   25.4888   36.2030 H   0  0  0  0  0  0  0  0  0  0  0  0
    0.5434   24.4714   35.6074 H   0  0  0  0  0  0  0  0  0  0  0  0
    4.1154   18.6427   37.8345 H   0  0  0  0  0  0  0  0  0  0  0  0
    1.7644   19.0033   41.3565 H   0  0  0  0  0  0  0  0  0  0  0  0
    1.8663   24.1482   29.8720 H   0  0  0  0  0  0  0  0  0  0  0  0
    2.7464   25.5780   29.2337 H   0  0  0  0  0  0  0  0  0  0  0  0
    1.0161   16.5022   39.2621 H   0  0  0  0  0  0  0  0  0  0  0  0
    1.6220   17.7177   40.6024 H   0  0  0  0  0  0  0  0  0  0  0  0
    1.4577   21.8899   34.8991 H   0  0  0  0  0  0  0  0  0  0  0  0
    1.4159   22.9169   36.5626 H   0  0  0  0  0  0  0  0  0  0  0  0
    3.0101   14.7762   39.3978 H   0  0  0  0  0  0  0  0  0  0  0  0
    1.7262   25.2304   35.0612 H   0  0  0  0  0  0  0  0  0  0  0  0
    3.4720   23.8020   35.4059 H   0  0  0  0  0  0  0  0  0  0  0  0
    3.6288   22.7531   29.2802 H   0  0  0  0  0  0  0  0  0  0  0  0
    4.4408   24.1412   28.5112 H   0  0  0  0  0  0  0  0  0  0  0  0
    4.5065   23.8308   31.5109 H   0  0  0  0  0  0  0  0  0  0  0  0
    5.6029   22.8444   30.4855 H   0  0  0  0  0  0  0  0  0  0  0  0
    5.6812   24.6377   30.4174 H   0  0  0  0  0  0  0  0  0  0  0  0
    5.4326   13.6892   39.5270 H   0  0  0  0  0  0  0  0  0  0  0  0
    4.5386   13.4246   37.9916 H   0  0  0  0  0  0  0  0  0  0  0  0
    5.7613   14.7357   38.1046 H   0  0  0  0  0  0  0  0  0  0  0  0
    4.0999   25.5680   31.4364 H   0  0  0  0  0  0  0  0  0  0  0  0
    2.3593   26.0082   31.5905 H   0  0  0  0  0  0  0  0  0  0  0  0
    2.3488   23.3419   31.6837 H   0  0  0  0  0  0  0  0  0  0  0  0
    3.8301   24.2864   32.8076 H   0  0  0  0  0  0  0  0  0  0  0  0
    2.2684   22.6380   33.3582 H   0  0  0  0  0  0  0  0  0  0  0  0
    1.8417   24.7005   33.5589 H   0  0  0  0  0  0  0  0  0  0  0  0
    0.6585   21.7439   40.6079 H   0  0  0  0  0  0  0  0  0  0  0  0
  5 10  1  0
  5 13  2  3
  6 10  2  3
  7  3  1  0
  7 30  1  0
  8 17  1  0
  8 20  1  0
  9 25  2  0
 10 14  1  0
 11 27  1  0
 12  2  1  0
 13 12  1  0
 14  7  1  0
 15 26  1  0
 17 20  1  0
 17 16  2  0
 18 26  2  0
 19 25  1  0
 20  4  1  0
 21 29  1  0
 21  4  1  0
 21 15  1  0
 22 11  1  0
 22 23  1  0
 24 19  1  0
 25 13  1  0
 26  6  1  0
 27 28  1  0
 28 29  1  0
 30  1  2  3
  1 31  1  0
  1 32  1  0
  2 33  1  0
  3 34  1  0
  3 35  1  0
  3 36  1  0
  4 37  1  0
  4 38  1  0
  5 39  1  0
  7 40  1  1
 11 41  1  0
 11 42  1  0
 12 43  1  0
 12 44  1  0
 15 45  1  0
 15 46  1  0
 19 47  1  0
 20 48  1  6
 21 49  1  6
 22 50  1  0
 22 51  1  0
 23 52  1  0
 23 53  1  0
 23 54  1  0
 24 55  1  0
 24 56  1  0
 24 57  1  0
 27 58  1  0
 27 59  1  0
 28 60  1  0
 28 61  1  0
 29 62  1  0
 29 63  1  0
 30 64  1  0
M  END
>  <mol_id>  (17) 
2026-09-16-6tgu-s0-n100-0017

>  <rmsd_to_ref>  (17) 


$$$$

     RDKit          3D

 61 61  0  0  0  0  0  0  0  0999 V2000
    1.3031   20.3407   41.0038 N   0  0  0  0  0  0  0  0  0  0  0  0
    1.5351   15.1933   41.1114 O   0  0  0  0  0  0  0  0  0  0  0  0
    3.0717   20.3488   36.4272 C   0  0  0  0  0  0  0  0  0  0  0  0
    3.1929   15.0554   37.9757 C   0  0  0  0  0  0  0  0  0  0  0  0
    2.5309   24.3780   33.7433 C   0  0  0  0  0  0  0  0  0  0  0  0
    3.7783   22.3708   32.3926 C   0  0  0  0  0  0  0  0  0  0  0  0
    2.1684   19.5971   38.8096 C   0  0  0  0  0  0  0  0  0  0  0  0
    0.6389   28.0767   32.5575 N   0  0  0  0  0  0  0  0  0  0  0  0
    4.0223   20.7663   36.0747 O   0  0  0  0  0  0  0  0  0  0  0  0
    2.5695   14.7122   39.1347 N   0  0  0  0  0  0  0  0  0  0  0  0
    4.0936   22.8798   30.6770 C   0  0  2  0  0  0  0  0  0  0  0  0
    3.2742   24.1243   30.9542 C   0  0  2  0  0  0  0  0  0  0  0  0
    1.7447   19.3525   40.1528 C   0  0  0  0  0  0  0  0  0  0  0  0
    2.1157   15.5856   40.0172 C   0  0  0  0  0  0  0  0  0  0  0  0
    2.5090   24.7181   32.2138 C   0  0  2  0  0  0  0  0  0  0  0  0
    2.8935   18.6787   38.0464 C   0  0  0  0  0  0  0  0  0  0  0  0
    3.2219   23.7036   28.6062 C   0  0  0  0  0  0  0  0  0  0  0  0
    0.8882   20.0707   42.1695 O   0  0  0  0  0  0  0  0  0  0  0  0
    0.7680   26.6798   32.2833 C   0  0  2  0  0  0  0  0  0  0  0  0
    2.9394   17.3935   38.4697 C   0  0  0  0  0  0  0  0  0  0  0  0
    0.5514   28.3950   34.0420 C   0  0  0  0  0  0  0  0  0  0  0  0
    2.3256   17.1059   39.7239 C   0  0  0  0  0  0  0  0  0  0  0  0
   -0.3807   25.5769   32.1381 C   0  0  0  0  0  0  0  0  0  0  0  0
    1.8435   18.0576   40.5959 C   0  0  0  0  0  0  0  0  0  0  0  0
    2.2665   26.3197   32.1314 C   0  0  0  0  0  0  0  0  0  0  0  0
    3.4964   16.3178   37.6434 C   0  0  0  0  0  0  0  0  0  0  0  0
    4.2579   22.9498   29.1619 C   0  0  0  0  0  0  0  0  0  0  0  0
    1.9541   20.5100   36.2821 O   0  0  0  0  0  0  0  0  0  0  0  0
    2.5925   24.7315   29.6852 S   0  0  0  0  0  0  0  0  0  0  0  0
    1.3099   21.4712   40.5285 O   0  0  0  0  0  0  0  0  0  0  0  0
    3.2524   19.5260   37.1346 H   0  0  0  0  0  0  0  0  0  0  0  0
    3.4627   14.2534   37.2730 H   0  0  0  0  0  0  0  0  0  0  0  0
    2.4165   25.3036   34.3265 H   0  0  0  0  0  0  0  0  0  0  0  0
    1.7038   23.6920   33.9782 H   0  0  0  0  0  0  0  0  0  0  0  0
    3.4879   23.8996   33.9988 H   0  0  0  0  0  0  0  0  0  0  0  0
    4.1798   23.1300   33.0799 H   0  0  0  0  0  0  0  0  0  0  0  0
    2.6946   22.2687   32.5514 H   0  0  0  0  0  0  0  0  0  0  0  0
    4.2697   21.4056   32.5848 H   0  0  0  0  0  0  0  0  0  0  0  0
    1.9088   20.5628   38.3512 H   0  0  0  0  0  0  0  0  0  0  0  0
   -0.2162   28.4219   32.0986 H   0  0  0  0  0  0  0  0  0  0  0  0
    1.4869   28.5371   32.1972 H   0  0  0  0  0  0  0  0  0  0  0  0
    2.4432   13.7103   39.3372 H   0  0  0  0  0  0  0  0  0  0  0  0
    4.8743   22.1244   30.5047 H   0  0  0  0  0  0  0  0  0  0  0  0
    4.2348   24.2747   31.4688 H   0  0  0  0  0  0  0  0  0  0  0  0
    1.8077   23.9143   31.9452 H   0  0  0  0  0  0  0  0  0  0  0  0
    3.4123   18.9908   37.1279 H   0  0  0  0  0  0  0  0  0  0  0  0
    3.6145   24.2767   27.7532 H   0  0  0  0  0  0  0  0  0  0  0  0
    2.4284   23.0141   28.2824 H   0  0  0  0  0  0  0  0  0  0  0  0
    0.7066   26.8857   31.2045 H   0  0  0  0  0  0  0  0  0  0  0  0
    0.7538   27.4842   34.6248 H   0  0  0  0  0  0  0  0  0  0  0  0
    1.2940   29.1656   34.2962 H   0  0  0  0  0  0  0  0  0  0  0  0
   -0.4571   28.7652   34.2788 H   0  0  0  0  0  0  0  0  0  0  0  0
   -0.7262   25.2735   33.1374 H   0  0  0  0  0  0  0  0  0  0  0  0
   -1.2238   25.9981   31.5708 H   0  0  0  0  0  0  0  0  0  0  0  0
    0.0177   24.7004   31.6060 H   0  0  0  0  0  0  0  0  0  0  0  0
    1.5458   17.7866   41.6196 H   0  0  0  0  0  0  0  0  0  0  0  0
    2.8342   26.8082   32.9370 H   0  0  0  0  0  0  0  0  0  0  0  0
    2.6047   26.6677   31.1442 H   0  0  0  0  0  0  0  0  0  0  0  0
    4.1414   16.5395   36.7804 H   0  0  0  0  0  0  0  0  0  0  0  0
    4.2329   21.9321   28.7449 H   0  0  0  0  0  0  0  0  0  0  0  0
    5.2206   23.4256   28.9234 H   0  0  0  0  0  0  0  0  0  0  0  0
  1 18  1  0
  4 10  1  0
  7 13  2  0
  8 21  1  0
  9  3  2  0
 10 14  1  0
 11 12  1  0
 11  6  1  0
 12 15  1  0
 13 24  1  0
 13  1  1  0
 14  2  2  0
 15  5  1  0
 16 20  2  0
 16  7  1  0
 17 27  1  0
 17 29  1  0
 19 23  1  0
 19  8  1  0
 20 22  1  0
 22 14  1  0
 22 24  2  0
 25 15  1  0
 25 19  1  0
 26  4  2  0
 26 20  1  0
 27 11  1  0
 28  3  1  0
 29 12  1  0
 30  1  2  0
  3 31  1  0
  4 32  1  0
  5 33  1  0
  5 34  1  0
  5 35  1  0
  6 36  1  0
  6 37  1  0
  6 38  1  0
  7 39  1  0
  8 40  1  0
  8 41  1  0
 10 42  1  0
 11 43  1  1
 12 44  1  1
 15 45  1  6
 16 46  1  0
 17 47  1  0
 17 48  1  0
 19 49  1  6
 21 50  1  0
 21 51  1  0
 21 52  1  0
 23 53  1  0
 23 54  1  0
 23 55  1  0
 24 56  1  0
 25 57  1  0
 25 58  1  0
 26 59  1  0
 27 60  1  0
 27 61  1  0
M  CHG  4   1   1   8   1  18  -1  28  -1
M  END
>  <mol_id>  (18) 
2026-09-16-6tgu-s0-n100-0018

>  <rmsd_to_ref>  (18) 


$$$$

     RDKit          3D

 73 76  0  0  0  0  0  0  0  0999 V2000
    2.9795   22.2764   34.2159 C   0  0  0  0  0  0  0  0  0  0  0  0
    2.8893   19.1282   40.6899 C   0  0  0  0  0  0  0  0  0  0  0  0
    0.5085   25.9746   27.9565 C   0  0  0  0  0  0  0  0  0  0  0  0
    2.2142   23.4091   34.6268 C   0  0  0  0  0  0  0  0  0  0  0  0
    2.7017   26.7316   31.3998 C   0  0  0  0  0  0  0  0  0  0  0  0
    1.0083   22.1166   39.4640 C   0  0  0  0  0  0  0  0  0  0  0  0
    1.8306   24.4077   33.7203 C   0  0  0  0  0  0  0  0  0  0  0  0
    1.8638   15.3086   38.7133 C   0  0  0  0  0  0  0  0  0  0  0  0
    2.6125   11.8591   37.4624 C   0  0  0  0  0  0  0  0  0  0  0  0
    1.7726   14.1262   37.7600 C   0  0  0  0  0  0  0  0  0  0  0  0
    3.7662   22.4643   33.0117 C   0  0  0  0  0  0  0  0  0  0  0  0
    2.1684   24.3297   32.4794 C   0  0  0  0  0  0  0  0  0  0  0  0
    1.5789   20.8896   39.4530 C   0  0  0  0  0  0  0  0  0  0  0  0
    1.5867   26.1608   31.6778 C   0  0  2  0  0  0  0  0  0  0  0  0
    0.2653   26.3721   31.2125 C   0  0  0  0  0  0  0  0  0  0  0  0
    2.7659   20.0930   35.0326 C   0  0  0  0  0  0  0  0  0  0  0  0
    4.3424   13.4278   38.6071 S   0  0  0  0  0  0  0  0  0  0  0  0
    0.9898   15.5196   39.5099 O   0  0  0  0  0  0  0  0  0  0  0  0
    3.0178   18.4160   39.3556 C   0  0  0  0  0  0  0  0  0  0  0  0
    1.9408   20.2366   40.7286 C   0  0  0  0  0  0  0  0  0  0  0  0
    0.4072   22.5930   40.6291 C   0  0  0  0  0  0  0  0  0  0  0  0
    2.1196   27.5163   32.2527 C   0  0  0  0  0  0  0  0  0  0  0  0
    4.2806   19.6695   41.1011 C   0  0  0  0  0  0  0  0  0  0  0  0
    3.5837   17.0984   39.4004 N   0  0  0  0  0  0  0  0  0  0  0  0
    1.5125   26.0289   30.4440 C   0  0  1  0  0  0  0  0  0  0  0  0
    0.5565   21.8492   41.8311 C   0  0  0  0  0  0  0  0  0  0  0  0
    2.5331   18.9876   38.1550 C   0  0  0  0  0  0  0  0  0  0  0  0
    2.5261   13.0242   38.4423 C   0  0  2  0  0  0  0  0  0  0  0  0
    1.2999   20.7310   41.8571 C   0  0  0  0  0  0  0  0  0  0  0  0
    3.2291   16.0311   38.4593 C   0  0  0  0  0  0  0  0  0  0  0  0
    3.2962   23.3956   32.1645 C   0  0  0  0  0  0  0  0  0  0  0  0
    1.9739   20.2153   38.2135 C   0  0  0  0  0  0  0  0  0  0  0  0
    1.6144   24.8490   31.3365 C   0  0  1  0  0  0  0  0  0  0  0  0
    2.8994   21.1358   34.7630 C   0  0  0  0  0  0  0  0  0  0  0  0
    1.3249   25.3161   29.1268 C   0  0  0  0  0  0  0  0  0  0  0  0
    2.5978   12.3455   36.1011 O   0  0  0  0  0  0  0  0  0  0  0  0
   -0.1644   26.7426   28.3657 H   0  0  0  0  0  0  0  0  0  0  0  0
    1.2030   26.4391   27.2411 H   0  0  0  0  0  0  0  0  0  0  0  0
   -0.0845   25.2030   27.4437 H   0  0  0  0  0  0  0  0  0  0  0  0
    1.9178   23.5010   35.6821 H   0  0  0  0  0  0  0  0  0  0  0  0
    2.8339   27.1091   30.3751 H   0  0  0  0  0  0  0  0  0  0  0  0
    3.7149   26.3059   31.4483 H   0  0  0  0  0  0  0  0  0  0  0  0
    1.0185   22.7371   38.5558 H   0  0  0  0  0  0  0  0  0  0  0  0
    1.2365   25.2643   34.0713 H   0  0  0  0  0  0  0  0  0  0  0  0
    3.5458   11.3045   37.6394 H   0  0  0  0  0  0  0  0  0  0  0  0
    1.7465   11.1984   37.6153 H   0  0  0  0  0  0  0  0  0  0  0  0
    2.2362   14.3716   36.7931 H   0  0  0  0  0  0  0  0  0  0  0  0
    0.7310   13.8456   37.5455 H   0  0  0  0  0  0  0  0  0  0  0  0
    4.6799   21.8870   32.8071 H   0  0  0  0  0  0  0  0  0  0  0  0
   -0.5290   25.6299   31.3805 H   0  0  0  0  0  0  0  0  0  0  0  0
   -0.5077   27.1544   31.2344 H   0  0  0  0  0  0  0  0  0  0  0  0
    2.6306   19.0362   35.3058 H   0  0  0  0  0  0  0  0  0  0  0  0
    4.6514   13.6106   39.9293 H   0  0  0  0  0  0  0  0  0  0  0  0
   -0.1722   23.5279   40.6179 H   0  0  0  0  0  0  0  0  0  0  0  0
    2.4805   27.2883   33.2665 H   0  0  0  0  0  0  0  0  0  0  0  0
    2.3532   28.5628   32.0070 H   0  0  0  0  0  0  0  0  0  0  0  0
    1.0312   27.3635   32.2080 H   0  0  0  0  0  0  0  0  0  0  0  0
    4.3253   19.7724   42.1954 H   0  0  0  0  0  0  0  0  0  0  0  0
    5.0600   18.9692   40.7666 H   0  0  0  0  0  0  0  0  0  0  0  0
    4.4448   20.6515   40.6335 H   0  0  0  0  0  0  0  0  0  0  0  0
    4.2767   16.8908   40.1335 H   0  0  0  0  0  0  0  0  0  0  0  0
    0.0580   22.1930   42.7494 H   0  0  0  0  0  0  0  0  0  0  0  0
    2.6099   18.4466   37.2003 H   0  0  0  0  0  0  0  0  0  0  0  0
    2.0242   12.8460   39.4047 H   0  0  0  0  0  0  0  0  0  0  0  0
    1.4051   20.1867   42.8072 H   0  0  0  0  0  0  0  0  0  0  0  0
    4.0232   15.2711   38.4997 H   0  0  0  0  0  0  0  0  0  0  0  0
    3.1226   16.5248   37.4821 H   0  0  0  0  0  0  0  0  0  0  0  0
    3.7706   23.4772   31.1754 H   0  0  0  0  0  0  0  0  0  0  0  0
    1.8032   20.7459   37.2652 H   0  0  0  0  0  0  0  0  0  0  0  0
    1.3836   23.8335   30.9825 H   0  0  0  0  0  0  0  0  0  0  0  0
    0.8277   24.3620   29.3561 H   0  0  0  0  0  0  0  0  0  0  0  0
    2.3469   25.2872   28.7210 H   0  0  0  0  0  0  0  0  0  0  0  0
    2.7041   13.3297   36.1012 H   0  0  0  0  0  0  0  0  0  0  0  0
  1 34  1  0
  1  4  1  0
  2 20  1  0
  2 23  1  0
  3 35  1  0
  5 22  1  0
  6 21  1  0
  7  4  2  0
  8 18  2  0
  9 28  1  0
 10 28  1  0
 10  8  1  0
 11  1  2  0
 12  7  1  0
 13  6  2  0
 13 20  1  0
 14  5  1  6
 15 14  1  0
 19  2  2  0
 20 29  2  0
 21 26  2  0
 24 19  1  0
 25 35  1  6
 25 15  1  0
 25 33  1  0
 25 14  1  0
 27 32  2  0
 27 19  1  0
 28 17  1  0
 29 26  1  0
 30  8  1  0
 30 24  1  0
 31 12  2  0
 31 11  1  0
 32 13  1  0
 33 14  1  0
 33 12  1  0
 34 16  3  0
 36  9  1  0
  3 37  1  0
  3 38  1  0
  3 39  1  0
  4 40  1  0
  5 41  1  0
  5 42  1  0
  6 43  1  0
  7 44  1  0
  9 45  1  0
  9 46  1  0
 10 47  1  0
 10 48  1  0
 11 49  1  0
 15 50  1  0
 15 51  1  0
 16 52  1  0
 17 53  1  0
 21 54  1  0
 22 55  1  0
 22 56  1  0
 22 57  1  0
 23 58  1  0
 23 59  1  0
 23 60  1  0
 24 61  1  0
 26 62  1  0
 27 63  1  0
 28 64  1  1
 29 65  1  0
 30 66  1  0
 30 67  1  0
 31 68  1  0
 32 69  1  0
 33 70  1  1
 35 71  1  0
 35 72  1  0
 36 73  1  0
M  END
>  <mol_id>  (19) 
2026-09-16-6tgu-s0-n100-0019

>  <rmsd_to_ref>  (19) 


$$$$

     RDKit          3D

 43 42  0  0  0  0  0  0  0  0999 V2000
    3.1882   23.4139   33.5124 O   0  0  0  0  0  0  0  0  0  0  0  0
    4.2703   20.2816   34.1796 C   0  0  0  0  0  0  0  0  0  0  0  0
    2.4459   18.2938   41.6572 C   0  0  0  0  0  0  0  0  0  0  0  0
    2.7484   21.4339   38.2209 C   0  0  0  0  0  0  0  0  0  0  0  0
    3.2784   19.0668   40.6141 C   0  0  0  0  0  0  0  0  0  0  0  0
    1.2040   16.7560   38.5852 C   0  0  0  0  0  0  0  0  0  0  0  0
    2.7486   20.5087   41.1127 C   0  0  0  0  0  0  0  0  0  0  0  0
    2.8291   17.6857   38.7062 C   0  0  0  0  0  0  0  0  0  0  0  0
    4.1871   22.4373   33.4596 C   0  0  0  0  0  0  0  0  0  0  0  0
    3.0014   20.0198   38.0690 C   0  0  0  0  0  0  0  0  0  0  0  0
    2.6015   19.1423   39.1609 C   0  0  2  0  0  0  0  0  0  0  0  0
    4.5170   21.8524   32.3002 O   0  0  0  0  0  0  0  0  0  0  0  0
    3.7094   21.5374   34.4061 C   0  0  2  0  0  0  0  0  0  0  0  0
    2.2727   21.5427   36.5739 C   0  0  0  0  0  0  0  0  0  0  0  0
    3.2716   22.0935   35.5523 C   0  0  0  0  0  0  0  0  0  0  0  0
    3.0001   23.6430   34.4570 H   0  0  0  0  0  0  0  0  0  0  0  0
    4.5942   19.8466   35.1366 H   0  0  0  0  0  0  0  0  0  0  0  0
    3.5217   19.6245   33.7130 H   0  0  0  0  0  0  0  0  0  0  0  0
    5.1375   20.3826   33.5105 H   0  0  0  0  0  0  0  0  0  0  0  0
    2.9419   18.3509   42.6374 H   0  0  0  0  0  0  0  0  0  0  0  0
    1.4422   18.7383   41.7277 H   0  0  0  0  0  0  0  0  0  0  0  0
    2.3600   17.2410   41.3505 H   0  0  0  0  0  0  0  0  0  0  0  0
    1.9453   21.6700   38.9345 H   0  0  0  0  0  0  0  0  0  0  0  0
    3.5343   22.0960   38.6130 H   0  0  0  0  0  0  0  0  0  0  0  0
    4.3180   18.7132   40.5499 H   0  0  0  0  0  0  0  0  0  0  0  0
    0.9373   16.3537   39.5736 H   0  0  0  0  0  0  0  0  0  0  0  0
    0.4144   17.4409   38.2428 H   0  0  0  0  0  0  0  0  0  0  0  0
    1.3076   15.9283   37.8682 H   0  0  0  0  0  0  0  0  0  0  0  0
    2.8625   20.5839   42.2042 H   0  0  0  0  0  0  0  0  0  0  0  0
    3.3349   21.3027   40.6273 H   0  0  0  0  0  0  0  0  0  0  0  0
    1.6873   20.6215   40.8462 H   0  0  0  0  0  0  0  0  0  0  0  0
    3.4797   17.1792   39.4344 H   0  0  0  0  0  0  0  0  0  0  0  0
    3.2996   17.6988   37.7120 H   0  0  0  0  0  0  0  0  0  0  0  0
    5.1680   22.9025   33.6372 H   0  0  0  0  0  0  0  0  0  0  0  0
    2.4695   19.6853   37.1662 H   0  0  0  0  0  0  0  0  0  0  0  0
    4.0974   19.9347   38.0291 H   0  0  0  0  0  0  0  0  0  0  0  0
    1.6135   19.5977   39.3234 H   0  0  0  0  0  0  0  0  0  0  0  0
    5.1062   21.0769   32.4777 H   0  0  0  0  0  0  0  0  0  0  0  0
    2.6805   21.1488   34.3873 H   0  0  0  0  0  0  0  0  0  0  0  0
    2.0031   20.5274   36.2475 H   0  0  0  0  0  0  0  0  0  0  0  0
    1.4615   22.2856   36.5800 H   0  0  0  0  0  0  0  0  0  0  0  0
    4.1869   22.2732   36.1353 H   0  0  0  0  0  0  0  0  0  0  0  0
    2.6287   22.8695   35.1112 H   0  0  0  0  0  0  0  0  0  0  0  0
  1  9  1  0
  4 10  1  0
  5  7  1  0
  5  3  1  0
  6  8  1  0
  8 11  1  0
  9 13  1  0
 11 10  1  0
 11  5  1  0
 12  9  1  0
 13  2  1  0
 13 15  1  0
 14  4  1  0
 15 14  1  0
  1 16  1  0
  2 17  1  0
  2 18  1  0
  2 19  1  0
  3 20  1  0
  3 21  1  0
  3 22  1  0
  4 23  1  0
  4 24  1  0
  5 25  1  0
  6 26  1  0
  6 27  1  0
  6 28  1  0
  7 29  1  0
  7 30  1  0
  7 31  1  0
  8 32  1  0
  8 33  1  0
  9 34  1  0
 10 35  1  0
 10 36  1  0
 11 37  1  1
 12 38  1  0
 13 39  1  6
 14 40  1  0
 14 41  1  0
 15 42  1  0
 15 43  1  0
M  END
>  <mol_id>  (20) 
2026-09-16-6tgu-s0-n100-0020

>  <rmsd_to_ref>  (20) 


$$$$

     RDKit          3D

 41 41  0  0  0  0  0  0  0  0999 V2000
    0.4701   19.8284   40.1741 C   0  0  0  0  0  0  0  0  0  0  0  0
    2.8060   22.8849   34.6212 C   0  0  0  0  0  0  0  0  0  0  0  0
    3.2959   25.0024   30.9175 C   0  0  0  0  0  0  0  0  0  0  0  0
    2.2836   25.3304   29.7718 C   0  0  0  0  0  0  0  0  0  0  0  0
    2.4096   22.0862   35.8011 C   0  0  0  0  0  0  0  0  0  0  0  0
    3.3442   21.4141   36.4516 C   0  0  0  0  0  0  0  0  0  0  0  0
    2.5050   18.5701   39.6431 C   0  0  0  0  0  0  0  0  0  0  0  0
    0.9012   25.4888   30.3680 C   0  0  0  0  0  0  0  0  0  0  0  0
    1.8592   20.5407   38.2674 C   0  0  0  0  0  0  0  0  0  0  0  0
    2.6067   24.0704   31.8443 C   0  0  0  0  0  0  0  0  0  0  0  0
    3.0906   20.3447   37.4397 C   0  0  0  0  0  0  0  0  0  0  0  0
   -0.4743   19.9437   40.9112 N   0  0  0  0  0  0  0  0  0  0  0  0
    4.4077   17.1902   38.8769 C   0  0  0  0  0  0  0  0  0  0  0  0
    1.6953   24.1908   32.6929 C   0  0  0  0  0  0  0  0  0  0  0  0
    3.6560   18.2887   38.7383 C   0  0  0  0  0  0  0  0  0  0  0  0
    3.9367   19.2642   37.7255 C   0  0  0  0  0  0  0  0  0  0  0  0
    1.5000   23.3113   33.9700 C   0  0  0  0  0  0  0  0  0  0  0  0
    1.5667   19.6517   39.3445 C   0  0  0  0  0  0  0  0  0  0  0  0
    3.3885   23.7655   34.9296 H   0  0  0  0  0  0  0  0  0  0  0  0
    3.4407   22.3101   33.9306 H   0  0  0  0  0  0  0  0  0  0  0  0
    3.5791   25.9235   31.4479 H   0  0  0  0  0  0  0  0  0  0  0  0
    4.2150   24.5514   30.5152 H   0  0  0  0  0  0  0  0  0  0  0  0
    2.5801   26.2653   29.2738 H   0  0  0  0  0  0  0  0  0  0  0  0
    2.2795   24.5146   29.0339 H   0  0  0  0  0  0  0  0  0  0  0  0
    1.3605   22.0521   36.1303 H   0  0  0  0  0  0  0  0  0  0  0  0
    4.3928   21.6711   36.2408 H   0  0  0  0  0  0  0  0  0  0  0  0
    2.3597   17.9576   40.5452 H   0  0  0  0  0  0  0  0  0  0  0  0
    0.9426   25.2873   31.4486 H   0  0  0  0  0  0  0  0  0  0  0  0
    0.5449   26.5158   30.2000 H   0  0  0  0  0  0  0  0  0  0  0  0
    0.2115   24.7785   29.8887 H   0  0  0  0  0  0  0  0  0  0  0  0
    1.1765   21.3738   38.0443 H   0  0  0  0  0  0  0  0  0  0  0  0
    2.2113   23.2988   31.1673 H   0  0  0  0  0  0  0  0  0  0  0  0
    3.4238   24.0406   32.5803 H   0  0  0  0  0  0  0  0  0  0  0  0
    4.3159   16.8104   39.9052 H   0  0  0  0  0  0  0  0  0  0  0  0
    4.0656   16.4201   38.1697 H   0  0  0  0  0  0  0  0  0  0  0  0
    5.4594   17.4370   38.6697 H   0  0  0  0  0  0  0  0  0  0  0  0
    1.7840   25.2221   33.0653 H   0  0  0  0  0  0  0  0  0  0  0  0
    0.8396   23.8424   32.0959 H   0  0  0  0  0  0  0  0  0  0  0  0
    4.8637   19.1592   37.1428 H   0  0  0  0  0  0  0  0  0  0  0  0
    0.9177   23.8882   34.7037 H   0  0  0  0  0  0  0  0  0  0  0  0
    0.9827   22.3936   33.6535 H   0  0  0  0  0  0  0  0  0  0  0  0
  1 12  3  0
  2  5  1  0
  3 10  1  0
  4  3  1  0
  4  8  1  0
  5  6  2  3
  6 11  1  0
  9 18  2  0
 10 14  1  0
 11 16  2  0
 11  9  1  0
 14 17  1  0
 15 13  1  0
 15  7  2  0
 16 15  1  0
 17  2  1  0
 18  7  1  0
 18  1  1  0
  2 19  1  0
  2 20  1  0
  3 21  1  0
  3 22  1  0
  4 23  1  0
  4 24  1  0
  5 25  1  0
  6 26  1  0
  7 27  1  0
  8 28  1  0
  8 29  1  0
  8 30  1  0
  9 31  1  0
 10 32  1  0
 10 33  1  0
 13 34  1  0
 13 35  1  0
 13 36  1  0
 14 37  1  0
 14 38  1  0
 16 39  1  0
 17 40  1  0
 17 41  1  0
M  END
>  <mol_id>  (21) 
2026-09-16-6tgu-s0-n100-0021

>  <rmsd_to_ref>  (21) 


$$$$

     RDKit          3D

 52 51  0  0  0  0  0  0  0  0999 V2000
    1.6073   18.4878   40.3376 C   0  0  0  0  0  0  0  0  0  0  0  0
    1.7354   23.8186   29.3102 F   0  0  0  0  0  0  0  0  0  0  0  0
    2.1690   25.0017   29.1740 C   0  0  0  0  0  0  0  0  0  0  0  0
   -0.7107   17.9343   41.9138 C   0  0  0  0  0  0  0  0  0  0  0  0
    1.1540   17.1316   40.5925 C   0  0  0  0  0  0  0  0  0  0  0  0
   -0.3782   19.2805   41.5578 C   0  0  0  0  0  0  0  0  0  0  0  0
    2.8978   17.0483   39.2239 N   0  0  0  0  0  0  0  0  0  0  0  0
    2.4770   25.5951   30.3489 F   0  0  0  0  0  0  0  0  0  0  0  0
   -1.1165   26.2361   28.4761 C   0  0  0  0  0  0  0  0  0  0  0  0
    3.3965   20.4173   35.9970 N   0  0  0  0  0  0  0  0  0  0  0  0
   -0.8968   25.7329   29.8237 O   0  0  0  0  0  0  0  0  0  0  0  0
   -1.8980   17.6410   42.7965 C   0  0  0  0  0  0  0  0  0  0  0  0
    1.6229   22.7981   34.4913 O   0  0  0  0  0  0  0  0  0  0  0  0
   -1.2329   25.1454   27.4623 C   0  0  0  0  0  0  0  0  0  0  0  0
    0.2125   24.7273   27.4767 C   0  0  0  0  0  0  0  0  0  0  0  0
    2.9983   19.4501   36.9494 C   0  0  0  0  0  0  0  0  0  0  0  0
    0.0509   26.5723   30.5991 C   0  0  0  0  0  0  0  0  0  0  0  0
    3.8134   22.3556   34.0238 O   0  0  0  0  0  0  0  0  0  0  0  0
    2.4637   21.3383   35.7529 C   0  0  0  0  0  0  0  0  0  0  0  0
    2.0212   16.2380   39.7882 C   0  0  0  0  0  0  0  0  0  0  0  0
    1.8662   15.0463   39.7662 O   0  0  0  0  0  0  0  0  0  0  0  0
    0.7469   19.5180   40.7625 C   0  0  0  0  0  0  0  0  0  0  0  0
    1.1847   25.9233   28.0701 S   0  0  0  0  0  0  0  0  0  0  0  0
    2.6714   22.2706   34.6295 C   0  0  0  0  0  0  0  0  0  0  0  0
    1.9926   19.7689   37.6054 O   0  0  0  0  0  0  0  0  0  0  0  0
    3.9611   19.2569   39.6723 C   0  0  0  0  0  0  0  0  0  0  0  0
    0.0311   16.8772   41.3870 C   0  0  0  0  0  0  0  0  0  0  0  0
    3.6881   18.2889   36.9349 O   0  0  0  0  0  0  0  0  0  0  0  0
    2.7941   18.3080   39.7154 N   0  0  0  0  0  0  0  0  0  0  0  0
    3.1497   24.9520   28.6783 H   0  0  0  0  0  0  0  0  0  0  0  0
   -1.0006   20.1180   41.9058 H   0  0  0  0  0  0  0  0  0  0  0  0
    3.5742   16.7603   38.5025 H   0  0  0  0  0  0  0  0  0  0  0  0
   -2.0461   26.8241   28.4679 H   0  0  0  0  0  0  0  0  0  0  0  0
   -0.2437   26.8482   28.2050 H   0  0  0  0  0  0  0  0  0  0  0  0
    4.3178   20.4107   35.5365 H   0  0  0  0  0  0  0  0  0  0  0  0
   -1.5879   17.6749   43.8514 H   0  0  0  0  0  0  0  0  0  0  0  0
   -2.6808   18.3934   42.6201 H   0  0  0  0  0  0  0  0  0  0  0  0
   -2.2912   16.6408   42.5619 H   0  0  0  0  0  0  0  0  0  0  0  0
   -1.9075   24.3394   27.7867 H   0  0  0  0  0  0  0  0  0  0  0  0
   -1.6552   25.4240   26.4855 H   0  0  0  0  0  0  0  0  0  0  0  0
    0.3195   23.8335   28.1090 H   0  0  0  0  0  0  0  0  0  0  0  0
    0.5200   24.5151   26.4421 H   0  0  0  0  0  0  0  0  0  0  0  0
   -0.1442   26.4476   31.6745 H   0  0  0  0  0  0  0  0  0  0  0  0
    1.0825   26.2630   30.3752 H   0  0  0  0  0  0  0  0  0  0  0  0
   -0.0835   27.6283   30.3221 H   0  0  0  0  0  0  0  0  0  0  0  0
    1.5218   20.8034   35.5608 H   0  0  0  0  0  0  0  0  0  0  0  0
    2.4822   21.9827   36.6442 H   0  0  0  0  0  0  0  0  0  0  0  0
    0.9687   20.5510   40.4566 H   0  0  0  0  0  0  0  0  0  0  0  0
    4.2511   19.5282   40.6982 H   0  0  0  0  0  0  0  0  0  0  0  0
    4.8097   18.7719   39.1676 H   0  0  0  0  0  0  0  0  0  0  0  0
    3.6758   20.1642   39.1198 H   0  0  0  0  0  0  0  0  0  0  0  0
   -0.2679   15.8397   41.5971 H   0  0  0  0  0  0  0  0  0  0  0  0
  1  5  1  0
  1 22  2  0
  3  2  1  0
  3  8  1  0
  4 12  1  0
  5 27  2  0
  6  4  2  0
  7 29  1  0
  7 20  1  0
  9 11  1  0
 10 16  1  0
 11 17  1  0
 13 24  1  0
 14  9  1  0
 15 14  1  0
 15 23  1  0
 16 25  1  0
 18 24  2  0
 19 10  1  0
 20 21  2  0
 20  5  1  0
 22  6  1  0
 23  3  1  0
 24 19  1  0
 26 29  1  0
 27  4  1  0
 28 16  2  0
 29  1  1  0
  3 30  1  0
  6 31  1  0
  7 32  1  0
  9 33  1  0
  9 34  1  0
 10 35  1  0
 12 36  1  0
 12 37  1  0
 12 38  1  0
 14 39  1  0
 14 40  1  0
 15 41  1  0
 15 42  1  0
 17 43  1  0
 17 44  1  0
 17 45  1  0
 19 46  1  0
 19 47  1  0
 22 48  1  0
 26 49  1  0
 26 50  1  0
 26 51  1  0
 27 52  1  0
M  CHG  2  13  -1  25  -1
M  END
>  <mol_id>  (22) 
2026-09-16-6tgu-s0-n100-0022

>  <rmsd_to_ref>  (22) 


$$$$

     RDKit          3D

 61 60  0  0  0  0  0  0  0  0999 V2000
    1.4319   25.7182   35.1456 C   0  0  2  0  0  0  0  0  0  0  0  0
    2.0205   24.4578   35.6320 C   0  0  0  0  0  0  0  0  0  0  0  0
    2.6488   20.3413   38.5796 C   0  0  0  0  0  0  0  0  0  0  0  0
    1.5480   26.0848   33.6240 C   0  0  0  0  0  0  0  0  0  0  0  0
    2.5337   15.3404   37.8959 C   0  0  0  0  0  0  0  0  0  0  0  0
    2.0187   19.0550   41.0585 C   0  0  0  0  0  0  0  0  0  0  0  0
    3.3692   20.6301   36.2595 C   0  0  0  0  0  0  0  0  0  0  0  0
    1.2365   26.9331   36.1700 C   0  0  0  0  0  0  0  0  0  0  0  0
    1.5930   28.4559   33.4299 O   0  0  0  0  0  0  0  0  0  0  0  0
    1.8639   22.2874   37.1523 C   0  0  0  0  0  0  0  0  0  0  0  0
    3.4982   21.0813   35.0084 O   0  0  0  0  0  0  0  0  0  0  0  0
    1.0925   18.2459   42.0019 C   0  0  0  0  0  0  0  0  0  0  0  0
    1.4743   23.1062   35.9008 C   0  0  0  0  0  0  0  0  0  0  0  0
    3.0478   19.0231   38.7635 C   0  0  0  0  0  0  0  0  0  0  0  0
    3.6966   15.2846   37.1806 C   0  0  1  0  0  0  0  0  0  0  0  0
    3.9403   16.8566   37.7157 C   0  0  0  0  0  0  0  0  0  0  0  0
    2.2586   14.0856   38.8018 O   0  0  0  0  0  0  0  0  0  0  0  0
    4.0385   13.8490   36.7597 C   0  0  0  0  0  0  0  0  0  0  0  0
    3.6551   18.2756   37.7357 C   0  0  0  0  0  0  0  0  0  0  0  0
    2.6801   20.2538   41.7027 C   0  0  0  0  0  0  0  0  0  0  0  0
    2.6875   18.0776   40.1536 C   0  0  0  0  0  0  0  0  0  0  0  0
    0.8114   27.3899   33.3495 C   0  0  0  0  0  0  0  0  0  0  0  0
    2.6533   21.0598   37.3457 C   0  0  0  0  0  0  0  0  0  0  0  0
    0.4071   25.3183   35.1448 H   0  0  0  0  0  0  0  0  0  0  0  0
    2.8239   24.2620   34.9066 H   0  0  0  0  0  0  0  0  0  0  0  0
    2.0695   24.7641   36.6873 H   0  0  0  0  0  0  0  0  0  0  0  0
    2.2959   20.8831   39.4695 H   0  0  0  0  0  0  0  0  0  0  0  0
    2.6085   26.2010   33.3562 H   0  0  0  0  0  0  0  0  0  0  0  0
    1.0993   25.2811   33.0217 H   0  0  0  0  0  0  0  0  0  0  0  0
    1.6994   15.4401   37.1861 H   0  0  0  0  0  0  0  0  0  0  0  0
    2.6284   16.1997   38.5761 H   0  0  0  0  0  0  0  0  0  0  0  0
    1.5258   19.7139   40.3285 H   0  0  0  0  0  0  0  0  0  0  0  0
    3.9613   19.7247   36.4589 H   0  0  0  0  0  0  0  0  0  0  0  0
    1.5096   26.6054   37.1839 H   0  0  0  0  0  0  0  0  0  0  0  0
    1.8808   27.7727   35.8701 H   0  0  0  0  0  0  0  0  0  0  0  0
    0.1850   27.2558   36.1597 H   0  0  0  0  0  0  0  0  0  0  0  0
    1.9147   28.5598   34.3603 H   0  0  0  0  0  0  0  0  0  0  0  0
    0.8922   22.0365   37.6027 H   0  0  0  0  0  0  0  0  0  0  0  0
    2.6437   22.9797   37.5022 H   0  0  0  0  0  0  0  0  0  0  0  0
    4.0841   20.6048   34.3682 H   0  0  0  0  0  0  0  0  0  0  0  0
    1.4939   18.2776   43.0255 H   0  0  0  0  0  0  0  0  0  0  0  0
    0.0837   18.6843   41.9899 H   0  0  0  0  0  0  0  0  0  0  0  0
    1.0426   17.2017   41.6596 H   0  0  0  0  0  0  0  0  0  0  0  0
    0.3809   23.2205   35.9387 H   0  0  0  0  0  0  0  0  0  0  0  0
    1.9294   22.5142   35.0931 H   0  0  0  0  0  0  0  0  0  0  0  0
    4.4082   15.2228   36.3440 H   0  0  0  0  0  0  0  0  0  0  0  0
    3.8118   16.6665   38.7915 H   0  0  0  0  0  0  0  0  0  0  0  0
    4.5525   17.0289   36.8182 H   0  0  0  0  0  0  0  0  0  0  0  0
    2.5515   14.2766   39.7279 H   0  0  0  0  0  0  0  0  0  0  0  0
    4.3565   13.2741   37.6420 H   0  0  0  0  0  0  0  0  0  0  0  0
    3.1507   13.3762   36.3144 H   0  0  0  0  0  0  0  0  0  0  0  0
    4.8534   13.8678   36.0210 H   0  0  0  0  0  0  0  0  0  0  0  0
    4.6312   18.7580   37.5797 H   0  0  0  0  0  0  0  0  0  0  0  0
    2.8288   18.2893   37.0096 H   0  0  0  0  0  0  0  0  0  0  0  0
    2.8490   20.0499   42.7703 H   0  0  0  0  0  0  0  0  0  0  0  0
    3.6439   20.4497   41.2098 H   0  0  0  0  0  0  0  0  0  0  0  0
    2.0284   21.1335   41.5960 H   0  0  0  0  0  0  0  0  0  0  0  0
    2.0131   17.2457   39.9021 H   0  0  0  0  0  0  0  0  0  0  0  0
    3.5760   17.6089   40.6018 H   0  0  0  0  0  0  0  0  0  0  0  0
   -0.0001   27.4949   34.0847 H   0  0  0  0  0  0  0  0  0  0  0  0
    0.4304   27.3403   32.3188 H   0  0  0  0  0  0  0  0  0  0  0  0
  1  2  1  0
  1  8  1  0
  2 13  1  0
  3 14  2  3
  4  1  1  0
  5 17  1  0
  6 20  1  0
  6 12  1  0
  7 23  2  3
 10 23  1  0
 11  7  1  0
 13 10  1  0
 14 21  1  0
 15 18  1  0
 15 16  1  0
 15  5  1  0
 19 16  1  0
 19 14  1  0
 21  6  1  0
 22  9  1  0
 22  4  1  0
 23  3  1  0
  1 24  1  6
  2 25  1  0
  2 26  1  0
  3 27  1  0
  4 28  1  0
  4 29  1  0
  5 30  1  0
  5 31  1  0
  6 32  1  0
  7 33  1  0
  8 34  1  0
  8 35  1  0
  8 36  1  0
  9 37  1  0
 10 38  1  0
 10 39  1  0
 11 40  1  0
 12 41  1  0
 12 42  1  0
 12 43  1  0
 13 44  1  0
 13 45  1  0
 15 46  1  6
 16 47  1  0
 16 48  1  0
 17 49  1  0
 18 50  1  0
 18 51  1  0
 18 52  1  0
 19 53  1  0
 19 54  1  0
 20 55  1  0
 20 56  1  0
 20 57  1  0
 21 58  1  0
 21 59  1  0
 22 60  1  0
 22 61  1  0
M  END
>  <mol_id>  (23) 
2026-09-16-6tgu-s0-n100-0023

>  <rmsd_to_ref>  (23) 


$$$$

     RDKit          3D

 65 68  0  0  0  0  0  0  0  0999 V2000
    2.2616   24.7279   33.6459 C   0  0  0  0  0  0  0  0  0  0  0  0
    3.7799   14.3728   38.7070 C   0  0  1  0  0  0  0  0  0  0  0  0
    2.7061   24.7934   32.3149 C   0  0  0  0  0  0  0  0  0  0  0  0
    4.7787   21.7412   34.5326 C   0  0  0  0  0  0  0  0  0  0  0  0
    4.2000   22.9730   32.4952 C   0  0  0  0  0  0  0  0  0  0  0  0
    3.6222   23.9014   31.7167 C   0  0  0  0  0  0  0  0  0  0  0  0
    3.5876   16.4712   38.2045 C   0  0  0  0  0  0  0  0  0  0  0  0
    0.6947   26.4342   33.1053 C   0  0  0  0  0  0  0  0  0  0  0  0
    4.7168   13.0173   36.5047 O   0  0  0  0  0  0  0  0  0  0  0  0
    1.2252   26.6407   31.8692 C   0  0  0  0  0  0  0  0  0  0  0  0
    1.2219   25.6088   34.0118 C   0  0  0  0  0  0  0  0  0  0  0  0
    2.9446   23.7083   34.4030 C   0  0  0  0  0  0  0  0  0  0  0  0
    3.0300   25.8434   30.5546 O   0  0  0  0  0  0  0  0  0  0  0  0
    2.2288   18.5198   39.9830 C   0  0  0  0  0  0  0  0  0  0  0  0
    4.0624   20.5503   34.9990 C   0  0  0  0  0  0  0  0  0  0  0  0
    2.5044   19.1495   39.0360 C   0  0  0  0  0  0  0  0  0  0  0  0
    2.5671   14.7248   40.6786 N   0  0  0  0  0  0  0  0  0  0  0  0
    2.7253   12.9547   34.5186 C   0  0  0  0  0  0  0  0  0  0  0  0
    3.3303   13.8257   39.6201 C   0  0  0  0  0  0  0  0  0  0  0  0
    1.6455   14.9823   41.9438 C   0  0  0  0  0  0  0  0  0  0  0  0
    3.2471   14.0431   35.3060 N   0  0  0  0  0  0  0  0  0  0  0  0
    2.1665   20.3484   38.2635 C   0  0  0  0  0  0  0  0  0  0  0  0
    2.9834   16.0728   40.3318 C   0  0  1  0  0  0  0  0  0  0  0  0
    3.8215   15.1074   37.6106 C   0  0  2  0  0  0  0  0  0  0  0  0
    2.2517   17.4167   41.8603 O   0  0  0  0  0  0  0  0  0  0  0  0
    2.2078   25.7682   31.5159 C   0  0  0  0  0  0  0  0  0  0  0  0
    2.9946   20.9859   35.9891 C   0  0  0  0  0  0  0  0  0  0  0  0
    3.1539   20.3254   37.2409 C   0  0  0  0  0  0  0  0  0  0  0  0
    3.5483   16.2473   39.1791 C   0  0  1  0  0  0  0  0  0  0  0  0
    2.5099   17.2163   40.6222 C   0  0  0  0  0  0  0  0  0  0  0  0
    3.9035   13.9589   36.3714 C   0  0  0  0  0  0  0  0  0  0  0  0
    3.8629   22.8540   33.8453 C   0  0  0  0  0  0  0  0  0  0  0  0
    4.2003   19.6288   37.4985 O   0  0  0  0  0  0  0  0  0  0  0  0
    4.2291   13.3870   38.5163 H   0  0  0  0  0  0  0  0  0  0  0  0
    5.2798   22.1987   35.3983 H   0  0  0  0  0  0  0  0  0  0  0  0
    5.4768   21.3953   33.7561 H   0  0  0  0  0  0  0  0  0  0  0  0
    4.9509   22.2953   32.0630 H   0  0  0  0  0  0  0  0  0  0  0  0
    3.8557   23.9653   30.6436 H   0  0  0  0  0  0  0  0  0  0  0  0
    4.4170   17.1581   37.9800 H   0  0  0  0  0  0  0  0  0  0  0  0
    2.6963   16.9885   37.8199 H   0  0  0  0  0  0  0  0  0  0  0  0
   -0.2224   26.9794   33.3728 H   0  0  0  0  0  0  0  0  0  0  0  0
    0.4140   26.5594   31.1308 H   0  0  0  0  0  0  0  0  0  0  0  0
    1.6910   27.6369   31.8951 H   0  0  0  0  0  0  0  0  0  0  0  0
    0.8455   25.6152   35.0454 H   0  0  0  0  0  0  0  0  0  0  0  0
    2.7197   23.6107   35.4753 H   0  0  0  0  0  0  0  0  0  0  0  0
    1.5238   19.0883   40.6073 H   0  0  0  0  0  0  0  0  0  0  0  0
    3.5910   20.0426   34.1445 H   0  0  0  0  0  0  0  0  0  0  0  0
    4.7635   19.8545   35.4831 H   0  0  0  0  0  0  0  0  0  0  0  0
    3.3414   18.6470   38.5292 H   0  0  0  0  0  0  0  0  0  0  0  0
    2.4449   12.1235   35.1823 H   0  0  0  0  0  0  0  0  0  0  0  0
    1.8388   13.2956   33.9636 H   0  0  0  0  0  0  0  0  0  0  0  0
    3.4936   12.6141   33.8089 H   0  0  0  0  0  0  0  0  0  0  0  0
    2.6187   13.0763   39.2433 H   0  0  0  0  0  0  0  0  0  0  0  0
    4.1915   13.4069   40.1613 H   0  0  0  0  0  0  0  0  0  0  0  0
    2.1797   14.6751   42.8550 H   0  0  0  0  0  0  0  0  0  0  0  0
    1.3992   16.0525   42.0063 H   0  0  0  0  0  0  0  0  0  0  0  0
    0.7188   14.3977   41.8474 H   0  0  0  0  0  0  0  0  0  0  0  0
    3.0608   14.9936   34.9556 H   0  0  0  0  0  0  0  0  0  0  0  0
    1.1525   20.2805   37.8423 H   0  0  0  0  0  0  0  0  0  0  0  0
    2.1630   21.2740   38.8577 H   0  0  0  0  0  0  0  0  0  0  0  0
    3.4846   15.8337   41.2814 H   0  0  0  0  0  0  0  0  0  0  0  0
    4.0718   15.7033   36.7206 H   0  0  0  0  0  0  0  0  0  0  0  0
    3.0707   22.0723   36.1442 H   0  0  0  0  0  0  0  0  0  0  0  0
    2.0092   20.7213   35.5782 H   0  0  0  0  0  0  0  0  0  0  0  0
    3.8623   17.2349   39.5482 H   0  0  0  0  0  0  0  0  0  0  0  0
  1 11  1  0
  1 12  1  0
  2 29  1  0
  2 19  1  0
  3  1  2  0
  4 15  1  0
  5 32  1  0
  6  3  1  0
  6  5  2  0
  8 11  2  0
 10  8  1  0
 13 26  2  0
 14 30  1  0
 15 27  1  0
 16 14  2  3
 17 20  1  0
 18 21  1  0
 19 17  1  0
 21 31  1  0
 22 16  1  0
 23 30  1  0
 23 17  1  0
 24 31  1  0
 24  7  1  0
 24  2  1  0
 26 10  1  0
 26  3  1  0
 27 28  1  0
 28 33  2  0
 28 22  1  0
 29  7  1  0
 29 23  1  0
 30 25  2  0
 31  9  2  0
 32 12  2  0
 32  4  1  0
  2 34  1  1
  4 35  1  0
  4 36  1  0
  5 37  1  0
  6 38  1  0
  7 39  1  0
  7 40  1  0
  8 41  1  0
 10 42  1  0
 10 43  1  0
 11 44  1  0
 12 45  1  0
 14 46  1  0
 15 47  1  0
 15 48  1  0
 16 49  1  0
 18 50  1  0
 18 51  1  0
 18 52  1  0
 19 53  1  0
 19 54  1  0
 20 55  1  0
 20 56  1  0
 20 57  1  0
 21 58  1  0
 22 59  1  0
 22 60  1  0
 23 61  1  1
 24 62  1  1
 27 63  1  0
 27 64  1  0
 29 65  1  1
M  END
>  <mol_id>  (24) 
2026-09-16-6tgu-s0-n100-0024

>  <rmsd_to_ref>  (24) 


$$$$

     RDKit          3D

 45 47  0  0  0  0  0  0  0  0999 V2000
    2.0970   19.9147   38.3331 C   0  0  0  0  0  0  0  0  0  0  0  0
    4.9792   23.4446   32.1095 C   0  0  0  0  0  0  0  0  0  0  0  0
    3.2023   23.2731   34.1671 C   0  0  0  0  0  0  0  0  0  0  0  0
    2.5136   21.7513   36.1217 C   0  0  0  0  0  0  0  0  0  0  0  0
    0.8552   19.4307   40.4467 C   0  0  0  0  0  0  0  0  0  0  0  0
    3.6403   22.0390   35.0540 C   0  0  0  0  0  0  0  0  0  0  0  0
    2.6560   25.1479   29.8964 C   0  0  0  0  0  0  0  0  0  0  0  0
    4.4108   24.7389   32.0303 C   0  0  1  0  0  0  0  0  0  0  0  0
    4.2889   25.4273   30.5886 S   0  0  1  0  0  4  0  0  0  0  0  0
    1.9927   17.4675   39.2957 C   0  0  0  0  0  0  0  0  0  0  0  0
    0.5231   17.2356   41.3215 N   0  0  0  0  0  0  0  0  0  0  0  0
    1.3644   20.4207   39.5045 C   0  0  0  0  0  0  0  0  0  0  0  0
    5.1657   24.0643   29.8895 C   0  0  0  0  0  0  0  0  0  0  0  0
    3.4451   19.3293   36.5363 N   0  0  0  0  0  0  0  0  0  0  0  0
    2.5394   18.4494   38.2952 C   0  0  1  0  0  0  0  0  0  0  0  0
    4.9289   23.8327   28.4149 C   0  0  0  0  0  0  0  0  0  0  0  0
    1.1320   17.9774   40.3746 C   0  0  0  0  0  0  0  0  0  0  0  0
    0.9917   16.7163   42.3632 O   0  0  0  0  0  0  0  0  0  0  0  0
    3.3329   18.2523   37.2570 N   0  0  0  0  0  0  0  0  0  0  0  0
    3.8166   23.5748   32.7565 C   0  0  1  0  0  0  0  0  0  0  0  0
   -0.8833   17.0487   41.1718 O   0  0  0  0  0  0  0  0  0  0  0  0
    2.7297   20.3962   36.9386 C   0  0  0  0  0  0  0  0  0  0  0  0
    5.9010   23.3015   32.6923 H   0  0  0  0  0  0  0  0  0  0  0  0
    5.3264   22.7378   31.3415 H   0  0  0  0  0  0  0  0  0  0  0  0
    2.1196   23.1624   34.0081 H   0  0  0  0  0  0  0  0  0  0  0  0
    3.5886   24.1160   34.7590 H   0  0  0  0  0  0  0  0  0  0  0  0
    1.5478   21.6906   35.5987 H   0  0  0  0  0  0  0  0  0  0  0  0
    2.5466   22.5737   36.8514 H   0  0  0  0  0  0  0  0  0  0  0  0
    0.2199   19.7891   41.2701 H   0  0  0  0  0  0  0  0  0  0  0  0
    3.7774   21.1546   34.4143 H   0  0  0  0  0  0  0  0  0  0  0  0
    4.5885   22.2643   35.5642 H   0  0  0  0  0  0  0  0  0  0  0  0
    1.9714   24.8201   30.6926 H   0  0  0  0  0  0  0  0  0  0  0  0
    2.2814   26.0818   29.4521 H   0  0  0  0  0  0  0  0  0  0  0  0
    2.7148   24.3705   29.1204 H   0  0  0  0  0  0  0  0  0  0  0  0
    4.4710   25.7956   32.3299 H   0  0  0  0  0  0  0  0  0  0  0  0
    4.6174   26.7523   30.4732 H   0  0  0  0  0  0  0  0  0  0  0  0
    2.2304   16.3961   39.2225 H   0  0  0  0  0  0  0  0  0  0  0  0
    1.2077   21.4979   39.6626 H   0  0  0  0  0  0  0  0  0  0  0  0
    6.2413   24.2401   30.0376 H   0  0  0  0  0  0  0  0  0  0  0  0
    4.7914   23.1662   30.4026 H   0  0  0  0  0  0  0  0  0  0  0  0
    3.3699   18.6825   38.9777 H   0  0  0  0  0  0  0  0  0  0  0  0
    4.3865   22.8861   28.2748 H   0  0  0  0  0  0  0  0  0  0  0  0
    4.3328   24.6611   28.0048 H   0  0  0  0  0  0  0  0  0  0  0  0
    5.8953   23.7824   27.8919 H   0  0  0  0  0  0  0  0  0  0  0  0
    2.8586   23.0398   32.8331 H   0  0  0  0  0  0  0  0  0  0  0  0
  1 15  1  0
  1 12  1  0
  2 20  1  0
  3  6  1  0
  4 22  1  0
  5 17  1  0
  6  4  1  0
  8  9  1  0
  8  2  1  0
  8 20  1  0
  9  7  1  0
 10 17  2  0
 11 18  1  0
 12  5  2  0
 13  9  1  0
 14 22  1  0
 14 19  2  0
 15 10  1  0
 16 13  1  0
 17 11  1  0
 19 15  1  0
 20  3  1  0
 21 11  2  0
 22  1  2  0
  2 23  1  0
  2 24  1  0
  3 25  1  0
  3 26  1  0
  4 27  1  0
  4 28  1  0
  5 29  1  0
  6 30  1  0
  6 31  1  0
  7 32  1  0
  7 33  1  0
  7 34  1  0
  8 35  1  1
  9 36  1  1
 10 37  1  0
 12 38  1  0
 13 39  1  0
 13 40  1  0
 15 41  1  1
 16 42  1  0
 16 43  1  0
 16 44  1  0
 20 45  1  6
M  CHG  2  11   1  18  -1
M  END
>  <mol_id>  (25) 
2026-09-16-6tgu-s0-n100-0025

>  <rmsd_to_ref>  (25) 


$$$$

     RDKit          3D

 43 45  0  0  0  0  0  0  0  0999 V2000
    2.5763   18.9612   39.0681 C   0  0  0  0  0  0  0  0  0  0  0  0
    4.4352   23.7796   30.5888 O   0  0  0  0  0  0  0  0  0  0  0  0
    2.4171   22.9316   33.4592 C   0  0  0  0  0  0  0  0  0  0  0  0
    3.3418   24.8768   30.7418 C   0  0  0  0  0  0  0  0  0  0  0  0
    3.9172   22.7465   34.1957 C   0  0  1  0  0  0  0  0  0  0  0  0
    1.9154   16.6960   39.0997 C   0  0  0  0  0  0  0  0  0  0  0  0
    3.5467   20.0484   36.8718 N   0  0  0  0  0  0  0  0  0  0  0  0
    5.5788   21.1668   34.9752 C   0  0  0  0  0  0  0  0  0  0  0  0
    2.1560   19.0943   40.3453 C   0  0  0  0  0  0  0  0  0  0  0  0
    2.5598   17.6967   38.4902 N   0  0  0  0  0  0  0  0  0  0  0  0
    3.0106   20.1233   38.2363 C   0  0  0  0  0  0  0  0  0  0  0  0
    2.1454   20.4364   40.9223 C   0  0  0  0  0  0  0  0  0  0  0  0
    1.7405   15.4955   38.2556 C   0  0  0  0  0  0  0  0  0  0  0  0
    3.0380   24.8904   32.2537 C   0  0  0  0  0  0  0  0  0  0  0  0
    4.1876   21.2645   34.6045 C   0  0  1  0  0  0  0  0  0  0  0  0
    1.6382   16.7235   40.3517 O   0  0  0  0  0  0  0  0  0  0  0  0
    2.8930   21.3261   38.8675 C   0  0  0  0  0  0  0  0  0  0  0  0
    2.5298   21.5238   40.1928 C   0  0  0  0  0  0  0  0  0  0  0  0
    4.7871   23.1835   31.9007 C   0  0  0  0  0  0  0  0  0  0  0  0
    3.6621   23.6064   32.8839 C   0  0  2  0  0  0  0  0  0  0  0  0
    3.3657   21.1080   35.9296 C   0  0  0  0  0  0  0  0  0  0  0  0
    1.9531   22.0858   32.9307 H   0  0  0  0  0  0  0  0  0  0  0  0
    1.4220   23.2703   33.7837 H   0  0  0  0  0  0  0  0  0  0  0  0
    3.7201   25.8550   30.4100 H   0  0  0  0  0  0  0  0  0  0  0  0
    2.4493   24.6738   30.1318 H   0  0  0  0  0  0  0  0  0  0  0  0
    4.6255   22.9867   35.0023 H   0  0  0  0  0  0  0  0  0  0  0  0
    5.6627   21.1002   36.0700 H   0  0  0  0  0  0  0  0  0  0  0  0
    6.0177   20.2675   34.5184 H   0  0  0  0  0  0  0  0  0  0  0  0
    6.1164   22.0582   34.6198 H   0  0  0  0  0  0  0  0  0  0  0  0
    1.8325   18.2212   40.9310 H   0  0  0  0  0  0  0  0  0  0  0  0
    3.0424   17.5314   37.5955 H   0  0  0  0  0  0  0  0  0  0  0  0
    1.8215   20.5730   41.9645 H   0  0  0  0  0  0  0  0  0  0  0  0
    1.8087   14.5937   38.8819 H   0  0  0  0  0  0  0  0  0  0  0  0
    0.7546   15.5300   37.7688 H   0  0  0  0  0  0  0  0  0  0  0  0
    2.5278   15.4691   37.4879 H   0  0  0  0  0  0  0  0  0  0  0  0
    3.4807   25.7854   32.7151 H   0  0  0  0  0  0  0  0  0  0  0  0
    1.9515   24.9098   32.4244 H   0  0  0  0  0  0  0  0  0  0  0  0
    3.9389   20.5347   33.8200 H   0  0  0  0  0  0  0  0  0  0  0  0
    3.1061   22.2249   38.2702 H   0  0  0  0  0  0  0  0  0  0  0  0
    2.5512   22.5278   40.6417 H   0  0  0  0  0  0  0  0  0  0  0  0
    4.8323   22.0873   31.8216 H   0  0  0  0  0  0  0  0  0  0  0  0
    5.7726   23.5286   32.2466 H   0  0  0  0  0  0  0  0  0  0  0  0
    2.5980   21.8645   36.1494 H   0  0  0  0  0  0  0  0  0  0  0  0
  1  9  2  0
  2 19  1  0
  3  5  1  0
  4  2  1  0
  4 14  1  0
  5 15  1  0
  6 16  2  0
  7 11  1  0
  9 12  1  0
 10  1  1  0
 10  6  1  0
 11 17  2  0
 11  1  1  0
 13  6  1  0
 15  8  1  0
 15 21  1  0
 17 18  1  0
 18 12  2  0
 20 19  1  6
 20 14  1  0
 20  3  1  0
 20  5  1  0
 21  7  2  3
  3 22  1  0
  3 23  1  0
  4 24  1  0
  4 25  1  0
  5 26  1  1
  8 27  1  0
  8 28  1  0
  8 29  1  0
  9 30  1  0
 10 31  1  0
 12 32  1  0
 13 33  1  0
 13 34  1  0
 13 35  1  0
 14 36  1  0
 14 37  1  0
 15 38  1  6
 17 39  1  0
 18 40  1  0
 19 41  1  0
 19 42  1  0
 21 43  1  0
M  END
>  <mol_id>  (26) 
2026-09-16-6tgu-s0-n100-0026

>  <rmsd_to_ref>  (26) 


$$$$

     RDKit          3D

 29 29  0  0  0  0  0  0  0  0999 V2000
    0.3088   20.2207   40.4375 C   0  0  0  0  0  0  0  0  0  0  0  0
    2.0397   20.5281   37.1306 C   0  0  0  0  0  0  0  0  0  0  0  0
    3.1393   22.5157   33.2280 N   0  0  0  0  0  0  0  0  0  0  0  0
    3.5820   20.9458   35.1290 C   0  0  0  0  0  0  0  0  0  0  0  0
    3.3230   20.1926   36.5489 C   0  0  0  0  0  0  0  0  0  0  0  0
    1.5198   20.4635   38.3933 C   0  0  0  0  0  0  0  0  0  0  0  0
    4.5006   21.9564   33.1035 C   0  0  0  0  0  0  0  0  0  0  0  0
    1.6251   19.9891   39.6682 C   0  0  0  0  0  0  0  0  0  0  0  0
    4.1617   19.2356   37.4366 C   0  0  0  0  0  0  0  0  0  0  0  0
    4.6448   20.7345   34.0529 C   0  0  0  0  0  0  0  0  0  0  0  0
    2.5743   22.0002   34.5316 C   0  0  0  0  0  0  0  0  0  0  0  0
    0.5004   20.1593   41.5189 H   0  0  0  0  0  0  0  0  0  0  0  0
   -0.0894   21.2162   40.1916 H   0  0  0  0  0  0  0  0  0  0  0  0
   -0.4237   19.4518   40.1507 H   0  0  0  0  0  0  0  0  0  0  0  0
    1.3251   20.9222   36.3930 H   0  0  0  0  0  0  0  0  0  0  0  0
    2.5542   22.2039   32.4397 H   0  0  0  0  0  0  0  0  0  0  0  0
    3.1597   23.5454   33.2150 H   0  0  0  0  0  0  0  0  0  0  0  0
    0.6005   21.0673   38.3717 H   0  0  0  0  0  0  0  0  0  0  0  0
    4.6727   21.6368   32.0650 H   0  0  0  0  0  0  0  0  0  0  0  0
    5.2398   22.7237   33.3769 H   0  0  0  0  0  0  0  0  0  0  0  0
    1.8420   18.9111   39.6372 H   0  0  0  0  0  0  0  0  0  0  0  0
    2.4378   20.5231   40.1821 H   0  0  0  0  0  0  0  0  0  0  0  0
    3.8397   19.3306   38.4841 H   0  0  0  0  0  0  0  0  0  0  0  0
    4.0133   18.1989   37.1000 H   0  0  0  0  0  0  0  0  0  0  0  0
    5.2266   19.4988   37.3551 H   0  0  0  0  0  0  0  0  0  0  0  0
    4.4621   19.7968   33.5074 H   0  0  0  0  0  0  0  0  0  0  0  0
    5.6560   20.6579   34.4788 H   0  0  0  0  0  0  0  0  0  0  0  0
    2.4479   22.8345   35.2373 H   0  0  0  0  0  0  0  0  0  0  0  0
    1.5946   21.5307   34.3593 H   0  0  0  0  0  0  0  0  0  0  0  0
  2  6  2  3
  3 11  1  0
  4  5  2  3
  5  9  1  0
  5  2  1  0
  6  8  1  0
  7  3  1  0
  7 10  1  0
  8  1  1  0
 10  4  1  0
 11  4  1  0
  1 12  1  0
  1 13  1  0
  1 14  1  0
  2 15  1  0
  3 16  1  0
  3 17  1  0
  6 18  1  0
  7 19  1  0
  7 20  1  0
  8 21  1  0
  8 22  1  0
  9 23  1  0
  9 24  1  0
  9 25  1  0
 10 26  1  0
 10 27  1  0
 11 28  1  0
 11 29  1  0
M  CHG  1   3   1
M  END
>  <mol_id>  (27) 
2026-09-16-6tgu-s0-n100-0027

>  <rmsd_to_ref>  (27) 


$$$$

     RDKit          3D

 55 58  0  0  0  0  0  0  0  0999 V2000
    2.5319   24.7798   29.5278 C   0  0  0  0  0  0  0  0  0  0  0  0
    1.7978   17.2575   40.2638 C   0  0  1  0  0  0  0  0  0  0  0  0
    3.7904   25.4365   31.7092 S   0  0  1  0  0  4  0  0  0  0  0  0
    1.5792   19.2186   42.9492 C   0  0  0  0  0  0  0  0  0  0  0  0
    4.1462   22.2989   34.3303 C   0  0  0  0  0  0  0  0  0  0  0  0
    3.6830   24.3955   33.1837 C   0  0  0  0  0  0  0  0  0  0  0  0
    2.2642   21.6333   36.0802 C   0  0  0  0  0  0  0  0  0  0  0  0
    4.3270   23.2193   33.3133 C   0  0  0  0  0  0  0  0  0  0  0  0
    1.4986   15.8406   39.9793 C   0  0  0  0  0  0  0  0  0  0  0  0
    1.9573   19.0953   41.6380 N   0  0  0  0  0  0  0  0  0  0  0  0
    2.4137   17.7156   37.0757 C   0  0  0  0  0  0  0  0  0  0  0  0
    2.8172   24.7196   34.2025 C   0  0  0  0  0  0  0  0  0  0  0  0
    4.6010   24.4051   30.6853 C   0  0  0  0  0  0  0  0  0  0  0  0
    1.5219   25.7792   29.8581 O   0  0  0  0  0  0  0  0  0  0  0  0
    1.4474   17.8237   41.4982 N   0  0  0  0  0  0  0  0  0  0  0  0
    3.1353   20.4556   36.4120 C   0  0  0  0  0  0  0  0  0  0  0  0
    2.9706   22.5224   35.1483 C   0  0  0  0  0  0  0  0  0  0  0  0
    2.4728   18.3659   39.5716 C   0  0  2  0  0  0  0  0  0  0  0  0
    2.7997   20.1766   37.8129 C   0  0  0  0  0  0  0  0  0  0  0  0
    2.2177   25.5577   30.7794 C   0  0  1  0  0  0  0  0  0  0  0  0
    0.8064   18.0225   42.7921 C   0  0  0  0  0  0  0  0  0  0  0  0
    2.5387   19.4351   40.4688 N   0  0  0  0  0  0  0  0  0  0  0  0
    2.4856   23.7670   35.0249 C   0  0  0  0  0  0  0  0  0  0  0  0
    2.0644   18.7763   38.1296 C   0  0  1  0  0  0  0  0  0  0  0  0
    3.4017   25.0161   28.8973 H   0  0  0  0  0  0  0  0  0  0  0  0
    2.6126   23.7418   29.1731 H   0  0  0  0  0  0  0  0  0  0  0  0
    0.8191   17.5466   39.8534 H   0  0  0  0  0  0  0  0  0  0  0  0
    4.2640   26.6769   32.0472 H   0  0  0  0  0  0  0  0  0  0  0  0
    2.4048   19.1365   43.6715 H   0  0  0  0  0  0  0  0  0  0  0  0
    1.1272   20.1464   43.3298 H   0  0  0  0  0  0  0  0  0  0  0  0
    4.8400   21.4632   34.5045 H   0  0  0  0  0  0  0  0  0  0  0  0
    1.3328   21.2798   35.6139 H   0  0  0  0  0  0  0  0  0  0  0  0
    2.0284   22.1843   37.0026 H   0  0  0  0  0  0  0  0  0  0  0  0
    5.0656   22.9671   32.5380 H   0  0  0  0  0  0  0  0  0  0  0  0
    1.7193   15.2333   40.8695 H   0  0  0  0  0  0  0  0  0  0  0  0
    0.4352   15.7356   39.7183 H   0  0  0  0  0  0  0  0  0  0  0  0
    2.1182   15.4967   39.1380 H   0  0  0  0  0  0  0  0  0  0  0  0
    2.9882   16.9051   37.5478 H   0  0  0  0  0  0  0  0  0  0  0  0
    1.4873   17.3065   36.6462 H   0  0  0  0  0  0  0  0  0  0  0  0
    3.0158   18.1754   36.2781 H   0  0  0  0  0  0  0  0  0  0  0  0
    2.4224   25.7399   34.3172 H   0  0  0  0  0  0  0  0  0  0  0  0
    5.3031   23.7888   31.2660 H   0  0  0  0  0  0  0  0  0  0  0  0
    3.8778   23.7534   30.1734 H   0  0  0  0  0  0  0  0  0  0  0  0
    5.1581   24.9915   29.9397 H   0  0  0  0  0  0  0  0  0  0  0  0
    2.8967   19.5947   35.7700 H   0  0  0  0  0  0  0  0  0  0  0  0
    4.2061   20.6523   36.2551 H   0  0  0  0  0  0  0  0  0  0  0  0
    3.4598   17.9625   39.3013 H   0  0  0  0  0  0  0  0  0  0  0  0
    3.7372   20.1956   38.3879 H   0  0  0  0  0  0  0  0  0  0  0  0
    2.0679   20.9501   38.0888 H   0  0  0  0  0  0  0  0  0  0  0  0
    1.8048   25.8997   31.7399 H   0  0  0  0  0  0  0  0  0  0  0  0
   -0.2801   18.1865   42.7411 H   0  0  0  0  0  0  0  0  0  0  0  0
    0.8144   17.2341   43.5592 H   0  0  0  0  0  0  0  0  0  0  0  0
    3.5253   19.6786   40.6370 H   0  0  0  0  0  0  0  0  0  0  0  0
    1.6809   24.0228   35.7299 H   0  0  0  0  0  0  0  0  0  0  0  0
    0.9703   18.8768   38.0771 H   0  0  0  0  0  0  0  0  0  0  0  0
  1 20  1  0
  2  9  1  0
  2 15  1  0
  3 13  1  0
  3  6  1  0
  5 17  1  0
  6  8  1  0
  6 12  2  0
  7 16  1  0
  8  5  2  0
 10  4  1  0
 12 23  1  0
 14  1  1  0
 14 20  1  0
 15 10  1  0
 15 21  1  0
 16 19  1  0
 17  7  1  0
 18 24  1  0
 18  2  1  0
 18 22  1  0
 19 24  1  0
 20  3  1  0
 21  4  1  0
 22 10  1  0
 23 17  2  0
 24 11  1  0
  1 25  1  0
  1 26  1  0
  2 27  1  6
  3 28  1  1
  4 29  1  0
  4 30  1  0
  5 31  1  0
  7 32  1  0
  7 33  1  0
  8 34  1  0
  9 35  1  0
  9 36  1  0
  9 37  1  0
 11 38  1  0
 11 39  1  0
 11 40  1  0
 12 41  1  0
 13 42  1  0
 13 43  1  0
 13 44  1  0
 16 45  1  0
 16 46  1  0
 18 47  1  6
 19 48  1  0
 19 49  1  0
 20 50  1  1
 21 51  1  0
 21 52  1  0
 22 53  1  0
 23 54  1  0
 24 55  1  1
M  END
>  <mol_id>  (28) 
2026-09-16-6tgu-s0-n100-0028

>  <rmsd_to_ref>  (28) 


$$$$

     RDKit          3D

 45 45  0  0  0  0  0  0  0  0999 V2000
    2.2959   19.0906   39.6145 C   0  0  0  0  0  0  0  0  0  0  0  0
    2.4795   18.0801   38.6851 C   0  0  0  0  0  0  0  0  0  0  0  0
    3.4136   17.9903   36.5543 O   0  0  0  0  0  0  0  0  0  0  0  0
    2.3264   16.7542   38.7862 C   0  0  0  0  0  0  0  0  0  0  0  0
    3.6888   23.6438   32.4847 C   0  0  0  0  0  0  0  0  0  0  0  0
    2.6232   21.6424   35.4355 C   0  0  0  0  0  0  0  0  0  0  0  0
    3.1999   22.0558   34.1633 C   0  0  1  0  0  0  0  0  0  0  0  0
    0.9961   18.9862   42.3249 C   0  0  0  0  0  0  0  0  0  0  0  0
    3.6304   23.4227   31.2100 C   0  0  0  0  0  0  0  0  0  0  0  0
    4.6327   24.3430   29.3986 O   0  0  0  0  0  0  0  0  0  0  0  0
    2.7215   19.9882   37.1032 N   0  0  0  0  0  0  0  0  0  0  0  0
    2.9003   18.7616   37.4283 C   0  0  0  0  0  0  0  0  0  0  0  0
    2.8908   23.3393   33.6256 C   0  0  0  0  0  0  0  0  0  0  0  0
    4.2321   21.1931   33.4632 C   0  0  0  0  0  0  0  0  0  0  0  0
    3.4057   20.3974   35.9087 C   0  0  0  0  0  0  0  0  0  0  0  0
    3.4043   25.8767   30.8354 C   0  0  0  0  0  0  0  0  0  0  0  0
    3.9253   24.6367   30.3925 C   0  0  0  0  0  0  0  0  0  0  0  0
    1.7944   18.6178   40.8819 C   0  0  0  0  0  0  0  0  0  0  0  0
    1.8690   16.3058   39.8663 C   0  0  0  0  0  0  0  0  0  0  0  0
    1.4611   17.2150   40.9598 C   0  0  0  0  0  0  0  0  0  0  0  0
    2.5112   20.1491   39.4068 H   0  0  0  0  0  0  0  0  0  0  0  0
    2.5909   16.0834   37.9555 H   0  0  0  0  0  0  0  0  0  0  0  0
    3.7547   24.7408   32.5301 H   0  0  0  0  0  0  0  0  0  0  0  0
    4.4090   22.8339   32.6729 H   0  0  0  0  0  0  0  0  0  0  0  0
    1.5602   21.3918   35.3038 H   0  0  0  0  0  0  0  0  0  0  0  0
    2.6921   22.4520   36.1770 H   0  0  0  0  0  0  0  0  0  0  0  0
    2.3963   21.5289   33.6279 H   0  0  0  0  0  0  0  0  0  0  0  0
    1.4698   18.4419   43.1552 H   0  0  0  0  0  0  0  0  0  0  0  0
    1.0588   20.0682   42.5127 H   0  0  0  0  0  0  0  0  0  0  0  0
   -0.0598   18.6882   42.2461 H   0  0  0  0  0  0  0  0  0  0  0  0
    4.3631   22.6425   30.9558 H   0  0  0  0  0  0  0  0  0  0  0  0
    2.6013   23.1116   30.9771 H   0  0  0  0  0  0  0  0  0  0  0  0
    2.1338   20.6296   37.6547 H   0  0  0  0  0  0  0  0  0  0  0  0
    3.0700   24.1012   34.3985 H   0  0  0  0  0  0  0  0  0  0  0  0
    1.8365   23.3327   33.3121 H   0  0  0  0  0  0  0  0  0  0  0  0
    4.7511   20.5678   34.2045 H   0  0  0  0  0  0  0  0  0  0  0  0
    3.7317   20.5484   32.7257 H   0  0  0  0  0  0  0  0  0  0  0  0
    4.9622   21.8374   32.9514 H   0  0  0  0  0  0  0  0  0  0  0  0
    3.3732   19.6032   35.1482 H   0  0  0  0  0  0  0  0  0  0  0  0
    4.4710   20.6088   36.0831 H   0  0  0  0  0  0  0  0  0  0  0  0
    3.3961   25.8992   31.9352 H   0  0  0  0  0  0  0  0  0  0  0  0
    4.0339   26.6953   30.4566 H   0  0  0  0  0  0  0  0  0  0  0  0
    2.3780   25.9988   30.4585 H   0  0  0  0  0  0  0  0  0  0  0  0
    1.7700   15.2186   40.0016 H   0  0  0  0  0  0  0  0  0  0  0  0
    0.9075   16.8249   41.8267 H   0  0  0  0  0  0  0  0  0  0  0  0
  1 18  1  0
  2  4  1  0
  2  1  2  0
  3 12  2  0
  4 19  2  0
  5 13  1  0
  6 15  1  0
  7 14  1  0
  7  6  1  0
  9  5  1  0
 10 17  2  0
 11 12  1  0
 12  2  1  0
 13  7  1  0
 15 11  1  0
 17 16  1  0
 17  9  1  0
 18 20  2  0
 18  8  1  0
 19 20  1  0
  1 21  1  0
  4 22  1  0
  5 23  1  0
  5 24  1  0
  6 25  1  0
  6 26  1  0
  7 27  1  6
  8 28  1  0
  8 29  1  0
  8 30  1  0
  9 31  1  0
  9 32  1  0
 11 33  1  0
 13 34  1  0
 13 35  1  0
 14 36  1  0
 14 37  1  0
 14 38  1  0
 15 39  1  0
 15 40  1  0
 16 41  1  0
 16 42  1  0
 16 43  1  0
 19 44  1  0
 20 45  1  0
M  END
>  <mol_id>  (29) 
2026-09-16-6tgu-s0-n100-0029

>  <rmsd_to_ref>  (29) 


$$$$

     RDKit          3D

 56 59  0  0  0  0  0  0  0  0999 V2000
    3.9842   23.2412   30.0980 C   0  0  2  0  0  0  0  0  0  0  0  0
    1.6977   22.2099   34.8643 C   0  0  0  0  0  0  0  0  0  0  0  0
    2.6261   21.0742   35.0992 C   0  0  2  0  0  0  0  0  0  0  0  0
   -0.7512   17.2016   43.6564 F   0  0  0  0  0  0  0  0  0  0  0  0
    1.9785   17.9728   39.6894 C   0  0  0  0  0  0  0  0  0  0  0  0
    2.8649   17.1380   37.1501 C   0  0  0  0  0  0  0  0  0  0  0  0
   -0.2263   18.0281   42.8125 C   0  0  0  0  0  0  0  0  0  0  0  0
    4.1513   22.3868   31.4992 S   0  0  0  0  0  4  0  0  0  0  0  0
    4.0540   21.8181   33.2448 C   0  0  0  0  0  0  0  0  0  0  0  0
    0.6956   17.6021   41.8150 C   0  0  0  0  0  0  0  0  0  0  0  0
   -0.4800   19.4835   42.9861 C   0  0  0  0  0  0  0  0  0  0  0  0
    2.1759   20.4196   36.4190 C   0  0  0  0  0  0  0  0  0  0  0  0
    2.0688   16.5100   39.4406 C   0  0  0  0  0  0  0  0  0  0  0  0
    3.0713   24.6483   30.3608 C   0  0  0  0  0  0  0  0  0  0  0  0
    2.2646   13.5269   38.0137 C   0  0  0  0  0  0  0  0  0  0  0  0
    3.8923   20.9529   34.4818 C   0  0  0  0  0  0  0  0  0  0  0  0
    3.4692   25.2659   27.7342 O   0  0  0  0  0  0  0  0  0  0  0  0
    2.0488   21.1086   40.8283 C   0  0  0  0  0  0  0  0  0  0  0  0
    2.7399   18.4910   37.4889 C   0  0  0  0  0  0  0  0  0  0  0  0
    2.5372   24.9870   28.8717 C   0  0  1  0  0  0  0  0  0  0  0  0
    1.2277   19.9743   41.3333 C   0  0  0  0  0  0  0  0  0  0  0  0
    2.5307   14.7915   37.7064 O   0  0  0  0  0  0  0  0  0  0  0  0
    4.5658   21.9709   28.0804 C   0  0  0  0  0  0  0  0  0  0  0  0
    3.2162   19.4029   36.5288 O   0  0  0  0  0  0  0  0  0  0  0  0
    2.8985   23.8395   27.8571 C   0  0  2  0  0  0  0  0  0  0  0  0
    0.2702   20.3526   42.3194 C   0  0  0  0  0  0  0  0  0  0  0  0
   -1.4871   19.8642   43.7514 F   0  0  0  0  0  0  0  0  0  0  0  0
    2.3071   18.9097   38.6979 N   0  0  0  0  0  0  0  0  0  0  0  0
    3.9116   22.9441   28.6982 C   0  0  0  0  0  0  0  0  0  0  0  0
    2.5206   16.1522   38.0833 C   0  0  0  0  0  0  0  0  0  0  0  0
    1.3138   18.5666   40.9544 C   0  0  0  0  0  0  0  0  0  0  0  0
    5.0585   23.0128   30.0378 H   0  0  0  0  0  0  0  0  0  0  0  0
    1.4364   22.6749   35.8263 H   0  0  0  0  0  0  0  0  0  0  0  0
    2.1852   22.9543   34.2176 H   0  0  0  0  0  0  0  0  0  0  0  0
    0.7841   21.8414   34.3749 H   0  0  0  0  0  0  0  0  0  0  0  0
    2.6914   20.3104   34.3103 H   0  0  0  0  0  0  0  0  0  0  0  0
    3.2322   16.8505   36.1539 H   0  0  0  0  0  0  0  0  0  0  0  0
    0.9331   16.5337   41.7049 H   0  0  0  0  0  0  0  0  0  0  0  0
    2.1990   21.1275   37.2607 H   0  0  0  0  0  0  0  0  0  0  0  0
    1.1417   20.0453   36.4354 H   0  0  0  0  0  0  0  0  0  0  0  0
    1.8197   15.7583   40.2040 H   0  0  0  0  0  0  0  0  0  0  0  0
    2.2362   24.4595   31.0515 H   0  0  0  0  0  0  0  0  0  0  0  0
    3.6421   25.4667   30.8237 H   0  0  0  0  0  0  0  0  0  0  0  0
    2.3193   13.3953   39.1044 H   0  0  0  0  0  0  0  0  0  0  0  0
    1.2541   13.2693   37.6635 H   0  0  0  0  0  0  0  0  0  0  0  0
    2.9999   12.8689   37.5276 H   0  0  0  0  0  0  0  0  0  0  0  0
    4.0377   19.9018   34.1917 H   0  0  0  0  0  0  0  0  0  0  0  0
    4.6401   21.2942   35.2127 H   0  0  0  0  0  0  0  0  0  0  0  0
    2.5001   21.6414   41.6782 H   0  0  0  0  0  0  0  0  0  0  0  0
    2.8439   20.7227   40.1734 H   0  0  0  0  0  0  0  0  0  0  0  0
    1.4090   21.7998   40.2600 H   0  0  0  0  0  0  0  0  0  0  0  0
    1.6600   25.5451   29.2310 H   0  0  0  0  0  0  0  0  0  0  0  0
    5.2707   21.3397   28.6413 H   0  0  0  0  0  0  0  0  0  0  0  0
    4.4039   21.7946   27.0068 H   0  0  0  0  0  0  0  0  0  0  0  0
    2.4045   23.1448   27.1618 H   0  0  0  0  0  0  0  0  0  0  0  0
    0.1461   21.4231   42.5398 H   0  0  0  0  0  0  0  0  0  0  0  0
  1 14  1  0
  1  8  1  0
  3  2  1  0
  3 12  1  0
  5 31  1  0
  6 19  1  0
  6 30  2  0
  7 11  1  0
  7  4  1  0
  8  9  3  0
  9 16  1  0
 10  7  2  0
 11 27  1  0
 12 24  1  0
 13  5  2  0
 16  3  1  0
 17 20  1  0
 18 21  1  0
 19 28  2  0
 20 14  1  0
 21 26  1  0
 22 15  1  0
 22 30  1  0
 23 29  2  3
 24 19  1  0
 25 17  1  0
 25 29  1  0
 25 20  1  0
 26 11  2  0
 28  5  1  0
 29  1  1  0
 30 13  1  0
 31 21  2  0
 31 10  1  0
  1 32  1  6
  2 33  1  0
  2 34  1  0
  2 35  1  0
  3 36  1  6
  6 37  1  0
 10 38  1  0
 12 39  1  0
 12 40  1  0
 13 41  1  0
 14 42  1  0
 14 43  1  0
 15 44  1  0
 15 45  1  0
 15 46  1  0
 16 47  1  0
 16 48  1  0
 18 49  1  0
 18 50  1  0
 18 51  1  0
 20 52  1  1
 23 53  1  0
 23 54  1  0
 25 55  1  6
 26 56  1  0
M  END
>  <mol_id>  (30) 
2026-09-16-6tgu-s0-n100-0030

>  <rmsd_to_ref>  (30) 


$$$$

     RDKit          3D

 56 57  0  0  0  0  0  0  0  0999 V2000
    2.9753   20.8061   37.1370 C   0  0  0  0  0  0  0  0  0  0  0  0
    2.0658   13.9857   37.3618 O   0  0  0  0  0  0  0  0  0  0  0  0
    1.3461   21.0968   43.2098 Cl  0  0  0  0  0  0  0  0  0  0  0  0
    2.7723   20.3446   39.6196 C   0  0  0  0  0  0  0  0  0  0  0  0
    3.2255   16.9141   40.9505 N   0  0  0  0  0  0  0  0  0  0  0  0
    3.2217   15.7824   40.1588 C   0  0  0  0  0  0  0  0  0  0  0  0
   -0.9984   25.4271   29.8096 C   0  0  0  0  0  0  0  0  0  0  0  0
    2.2167   21.0146   40.7078 C   0  0  0  0  0  0  0  0  0  0  0  0
    2.2995   18.9504   41.9592 C   0  0  0  0  0  0  0  0  0  0  0  0
    2.9792   18.2399   40.8559 C   0  0  0  0  0  0  0  0  0  0  0  0
    1.8966   24.0663   33.1164 C   0  0  0  0  0  0  0  0  0  0  0  0
    2.0481   23.5240   34.5166 N   0  0  0  0  0  0  0  0  0  0  0  0
    2.0155   20.2760   41.8858 C   0  0  0  0  0  0  0  0  0  0  0  0
    2.7698   14.0824   38.4242 C   0  0  0  0  0  0  0  0  0  0  0  0
   -0.9306   26.2487   31.0879 C   0  0  0  0  0  0  0  0  0  0  0  0
    2.7638   20.9823   38.4238 N   0  0  0  0  0  0  0  0  0  0  0  0
    0.5982   28.1007   30.2827 O   0  0  0  0  0  0  0  0  0  0  0  0
    1.2994   27.9041   33.6710 C   0  0  0  0  0  0  0  0  0  0  0  0
    1.6198   25.5658   32.7446 C   0  0  0  0  0  0  0  0  0  0  0  0
    3.3104   15.4483   38.8177 C   0  0  0  0  0  0  0  0  0  0  0  0
    2.4077   21.9650   36.3566 C   0  0  0  0  0  0  0  0  0  0  0  0
    3.2577   21.4606   34.2583 O   0  0  0  0  0  0  0  0  0  0  0  0
    2.5488   22.2644   34.9356 C   0  0  0  0  0  0  0  0  0  0  0  0
    0.3035   27.1273   31.3437 C   0  0  2  0  0  0  0  0  0  0  0  0
    3.7786   20.0120   36.6596 O   0  0  0  0  0  0  0  0  0  0  0  0
    1.4314   26.1516   31.3902 C   0  0  0  0  0  0  0  0  0  0  0  0
    3.3322   19.0636   39.6927 C   0  0  0  0  0  0  0  0  0  0  0  0
    3.7974   16.2204   37.8825 C   0  0  0  0  0  0  0  0  0  0  0  0
    0.2084   28.0398   32.6212 C   0  0  0  0  0  0  0  0  0  0  0  0
    2.9982   13.1609   39.1494 O   0  0  0  0  0  0  0  0  0  0  0  0
    1.6537   26.4662   33.8906 C   0  0  0  0  0  0  0  0  0  0  0  0
    3.5022   16.6727   41.9129 H   0  0  0  0  0  0  0  0  0  0  0  0
    4.0549   15.2067   40.5881 H   0  0  0  0  0  0  0  0  0  0  0  0
    2.1241   15.7094   40.1653 H   0  0  0  0  0  0  0  0  0  0  0  0
   -0.6596   24.4008   30.0149 H   0  0  0  0  0  0  0  0  0  0  0  0
   -2.0352   25.4044   29.4428 H   0  0  0  0  0  0  0  0  0  0  0  0
   -0.3494   25.8817   29.0467 H   0  0  0  0  0  0  0  0  0  0  0  0
    1.9466   22.0792   40.6469 H   0  0  0  0  0  0  0  0  0  0  0  0
    2.0164   18.3909   42.8630 H   0  0  0  0  0  0  0  0  0  0  0  0
    1.9878   23.3503   32.2863 H   0  0  0  0  0  0  0  0  0  0  0  0
   -1.8063   26.9143   31.0903 H   0  0  0  0  0  0  0  0  0  0  0  0
   -0.8861   25.4925   31.8856 H   0  0  0  0  0  0  0  0  0  0  0  0
    2.4926   21.9638   38.5789 H   0  0  0  0  0  0  0  0  0  0  0  0
    1.0452   28.8919   30.6756 H   0  0  0  0  0  0  0  0  0  0  0  0
    0.9436   28.3360   34.6180 H   0  0  0  0  0  0  0  0  0  0  0  0
    2.1948   28.4367   33.3180 H   0  0  0  0  0  0  0  0  0  0  0  0
    1.3215   21.8987   36.5170 H   0  0  0  0  0  0  0  0  0  0  0  0
    3.0612   22.7570   36.7511 H   0  0  0  0  0  0  0  0  0  0  0  0
    1.2242   25.3381   30.6793 H   0  0  0  0  0  0  0  0  0  0  0  0
    2.3529   26.6919   31.1276 H   0  0  0  0  0  0  0  0  0  0  0  0
    4.0090   18.6894   38.9106 H   0  0  0  0  0  0  0  0  0  0  0  0
    4.1947   17.2131   38.1403 H   0  0  0  0  0  0  0  0  0  0  0  0
    3.8099   15.8775   36.8373 H   0  0  0  0  0  0  0  0  0  0  0  0
    0.2106   29.0851   32.2788 H   0  0  0  0  0  0  0  0  0  0  0  0
   -0.7090   27.7094   33.1303 H   0  0  0  0  0  0  0  0  0  0  0  0
    1.9320   26.0991   34.8895 H   0  0  0  0  0  0  0  0  0  0  0  0
  1 16  1  0
  2 14  2  0
  4 27  2  0
  4  8  1  0
  6  5  1  0
  7 15  1  0
  8 13  2  0
 10  5  1  0
 10  9  2  0
 11 12  2  3
 12 23  1  0
 13  9  1  0
 13  3  1  0
 14 20  1  0
 14 30  1  0
 15 24  1  0
 16  4  1  0
 18 31  1  0
 19 11  1  0
 19 31  2  0
 20  6  1  0
 21  1  1  0
 22 23  2  0
 23 21  1  0
 24 17  1  6
 24 26  1  0
 24 29  1  0
 25  1  2  0
 26 19  1  0
 27 10  1  0
 28 20  2  3
 29 18  1  0
  5 32  1  0
  6 33  1  0
  6 34  1  0
  7 35  1  0
  7 36  1  0
  7 37  1  0
  8 38  1  0
  9 39  1  0
 11 40  1  0
 15 41  1  0
 15 42  1  0
 16 43  1  0
 17 44  1  0
 18 45  1  0
 18 46  1  0
 21 47  1  0
 21 48  1  0
 26 49  1  0
 26 50  1  0
 27 51  1  0
 28 52  1  0
 28 53  1  0
 29 54  1  0
 29 55  1  0
 31 56  1  0
M  CHG  1  30  -1
M  END
>  <mol_id>  (31) 
2026-09-16-6tgu-s0-n100-0031

>  <rmsd_to_ref>  (31) 


$$$$

     RDKit          3D

 46 47  0  0  0  0  0  0  0  0999 V2000
    2.7402   21.6509   36.6511 C   0  0  0  0  0  0  0  0  0  0  0  0
    1.2261   24.2528   32.4069 C   0  0  0  0  0  0  0  0  0  0  0  0
    2.3630   20.8944   40.0371 C   0  0  0  0  0  0  0  0  0  0  0  0
    1.9870   24.1481   33.6574 C   0  0  0  0  0  0  0  0  0  0  0  0
    3.5471   16.7022   37.8181 C   0  0  0  0  0  0  0  0  0  0  0  0
    3.3117   18.2200   37.9927 C   0  0  0  0  0  0  0  0  0  0  0  0
    3.9370   23.0884   32.0510 C   0  0  0  0  0  0  0  0  0  0  0  0
    3.5383   24.4576   31.5093 C   0  0  1  0  0  0  0  0  0  0  0  0
    2.7554   20.2291   38.8406 C   0  0  0  0  0  0  0  0  0  0  0  0
    4.2385   24.7658   30.1900 C   0  0  0  0  0  0  0  0  0  0  0  0
    2.9364   20.3739   37.4103 C   0  0  0  0  0  0  0  0  0  0  0  0
    4.4305   23.0680   33.4370 C   0  0  0  0  0  0  0  0  0  0  0  0
    4.9289   16.2268   37.5111 C   0  0  0  0  0  0  0  0  0  0  0  0
    2.9295   23.0755   34.3491 C   0  0  2  0  0  0  0  0  0  0  0  0
    3.3372   21.7483   35.3296 C   0  0  0  0  0  0  0  0  0  0  0  0
    2.9088   18.8123   39.1215 C   0  0  0  0  0  0  0  0  0  0  0  0
    1.4454   21.8473   40.2173 C   0  0  0  0  0  0  0  0  0  0  0  0
    2.0576   24.3870   31.1695 C   0  0  0  0  0  0  0  0  0  0  0  0
    3.3412   19.1297   36.9293 N   0  0  0  0  0  0  0  0  0  0  0  0
    2.1648   22.4851   37.0789 H   0  0  0  0  0  0  0  0  0  0  0  0
    0.6085   23.3481   32.3065 H   0  0  0  0  0  0  0  0  0  0  0  0
    0.6364   25.1782   32.4827 H   0  0  0  0  0  0  0  0  0  0  0  0
    2.8940   20.5766   40.9465 H   0  0  0  0  0  0  0  0  0  0  0  0
    2.6355   25.0354   33.6121 H   0  0  0  0  0  0  0  0  0  0  0  0
    1.1076   23.8811   34.2619 H   0  0  0  0  0  0  0  0  0  0  0  0
    3.2366   16.2154   38.7544 H   0  0  0  0  0  0  0  0  0  0  0  0
    2.9666   16.4409   36.9210 H   0  0  0  0  0  0  0  0  0  0  0  0
    4.7310   22.6873   31.4040 H   0  0  0  0  0  0  0  0  0  0  0  0
    3.0157   22.4874   32.0527 H   0  0  0  0  0  0  0  0  0  0  0  0
    3.7976   25.2179   32.2608 H   0  0  0  0  0  0  0  0  0  0  0  0
    5.1469   25.3545   30.3858 H   0  0  0  0  0  0  0  0  0  0  0  0
    4.5121   23.8243   29.6914 H   0  0  0  0  0  0  0  0  0  0  0  0
    3.5616   25.3410   29.5412 H   0  0  0  0  0  0  0  0  0  0  0  0
    5.0186   22.1609   33.6400 H   0  0  0  0  0  0  0  0  0  0  0  0
    5.1066   23.9002   33.6827 H   0  0  0  0  0  0  0  0  0  0  0  0
    5.4818   16.0762   38.4500 H   0  0  0  0  0  0  0  0  0  0  0  0
    4.8757   15.2761   36.9603 H   0  0  0  0  0  0  0  0  0  0  0  0
    5.4470   16.9780   36.8968 H   0  0  0  0  0  0  0  0  0  0  0  0
    2.0650   23.2639   35.0027 H   0  0  0  0  0  0  0  0  0  0  0  0
    4.0378   20.9795   34.9716 H   0  0  0  0  0  0  0  0  0  0  0  0
    1.9474   18.3875   39.4461 H   0  0  0  0  0  0  0  0  0  0  0  0
    3.6429   18.6540   39.9253 H   0  0  0  0  0  0  0  0  0  0  0  0
    1.2671   22.2561   41.2228 H   0  0  0  0  0  0  0  0  0  0  0  0
    0.8676   22.2236   39.3602 H   0  0  0  0  0  0  0  0  0  0  0  0
    1.7666   25.3058   30.6392 H   0  0  0  0  0  0  0  0  0  0  0  0
    1.8864   23.5040   30.5362 H   0  0  0  0  0  0  0  0  0  0  0  0
  1 11  1  0
  2  4  1  0
  3 17  2  3
  4 14  1  0
  5  6  1  0
  6 16  1  0
  7 12  1  0
  8 10  1  0
  8  7  1  0
  9 16  1  0
  9  3  1  0
 11  9  2  0
 12 14  1  0
 13  5  1  0
 14 15  1  0
 15  1  2  3
 18  8  1  0
 18  2  1  0
 19 11  1  0
 19  6  2  0
  1 20  1  0
  2 21  1  0
  2 22  1  0
  3 23  1  0
  4 24  1  0
  4 25  1  0
  5 26  1  0
  5 27  1  0
  7 28  1  0
  7 29  1  0
  8 30  1  1
 10 31  1  0
 10 32  1  0
 10 33  1  0
 12 34  1  0
 12 35  1  0
 13 36  1  0
 13 37  1  0
 13 38  1  0
 14 39  1  1
 15 40  1  0
 16 41  1  0
 16 42  1  0
 17 43  1  0
 17 44  1  0
 18 45  1  0
 18 46  1  0
M  END
>  <mol_id>  (32) 
2026-09-16-6tgu-s0-n100-0032

>  <rmsd_to_ref>  (32) 


$$$$

     RDKit          3D

 78 81  0  0  0  0  0  0  0  0999 V2000
    2.1353   23.1013   31.9349 N   0  0  0  0  0  0  0  0  0  0  0  0
    2.0433   25.7814   33.1167 C   0  0  1  0  0  0  0  0  0  0  0  0
    3.2551   18.0745   38.1794 C   0  0  0  0  0  0  0  0  0  0  0  0
    2.3936   19.0456   39.8788 C   0  0  0  0  0  0  0  0  0  0  0  0
    1.3228   24.3907   27.9382 C   0  0  0  0  0  0  0  0  0  0  0  0
   -0.0682   20.9573   42.9202 C   0  0  0  0  0  0  0  0  0  0  0  0
    2.1376   24.2466   31.1250 C   0  0  1  0  0  0  0  0  0  0  0  0
    2.8475   20.5683   37.7626 C   0  0  0  0  0  0  0  0  0  0  0  0
    2.6749   27.0047   32.3996 C   0  0  0  0  0  0  0  0  0  0  0  0
    4.2127   22.6603   34.0397 O   0  0  0  0  0  0  0  0  0  0  0  0
    1.1688   25.7428   28.3120 C   0  0  0  0  0  0  0  0  0  0  0  0
    0.3679   15.7520   40.8979 O   0  0  0  0  0  0  0  0  0  0  0  0
    1.6517   15.8124   41.5321 S   0  0  0  0  0  4  0  0  0  0  0  0
    2.5835   17.7897   40.0669 N   0  0  0  0  0  0  0  0  0  0  0  0
    2.3180   25.0584   28.9127 C   0  0  0  0  0  0  0  0  0  0  0  0
    3.0232   24.5222   34.7258 C   0  0  0  0  0  0  0  0  0  0  0  0
    0.3928   21.4535   41.7660 C   0  0  0  0  0  0  0  0  0  0  0  0
    3.8959   20.9857   37.1633 C   0  0  0  0  0  0  0  0  0  0  0  0
    1.7969   22.7240   29.7233 N   0  0  0  0  0  0  0  0  0  0  0  0
    1.5538   21.0192   41.2731 C   0  0  0  0  0  0  0  0  0  0  0  0
    3.3661   26.2319   29.3174 C   0  0  0  0  0  0  0  0  0  0  0  0
    2.6454   14.8605   40.9274 O   0  0  0  0  0  0  0  0  0  0  0  0
    1.5799   18.5723   41.9407 C   0  0  0  0  0  0  0  0  0  0  0  0
    2.4655   25.5213   31.6215 C   0  0  2  0  0  0  0  0  0  0  0  0
    1.8468   19.6201   41.0332 C   0  0  0  0  0  0  0  0  0  0  0  0
    2.1459   24.7624   33.9153 C   0  0  0  0  0  0  0  0  0  0  0  0
    2.8810   19.2927   38.5009 C   0  0  2  0  0  0  0  0  0  0  0  0
    2.2042   23.9554   29.8544 C   0  0  2  0  0  0  0  0  0  0  0  0
   -1.2354   21.6426   43.4819 O   0  0  0  0  0  0  0  0  0  0  0  0
    2.9249   17.1896   39.0911 N   0  0  0  0  0  0  0  0  0  0  0  0
    1.3815   15.2888   42.8968 O   0  0  0  0  0  0  0  0  0  0  0  0
    2.2992   17.4010   41.3593 C   0  0  1  0  0  0  0  0  0  0  0  0
    1.6722   22.3806   31.0505 C   0  0  0  0  0  0  0  0  0  0  0  0
    3.4899   23.2135   35.0937 C   0  0  0  0  0  0  0  0  0  0  0  0
    3.0770   22.8168   32.2400 H   0  0  0  0  0  0  0  0  0  0  0  0
    1.6461   23.1420   32.8404 H   0  0  0  0  0  0  0  0  0  0  0  0
    1.2952   25.9419   33.9070 H   0  0  0  0  0  0  0  0  0  0  0  0
    2.7754   17.7975   37.2291 H   0  0  0  0  0  0  0  0  0  0  0  0
    4.3518   18.0735   38.0947 H   0  0  0  0  0  0  0  0  0  0  0  0
    0.6154   23.6325   28.3051 H   0  0  0  0  0  0  0  0  0  0  0  0
    1.4064   23.8473   26.9854 H   0  0  0  0  0  0  0  0  0  0  0  0
    0.3981   20.0922   43.4144 H   0  0  0  0  0  0  0  0  0  0  0  0
    1.1525   24.7121   31.2755 H   0  0  0  0  0  0  0  0  0  0  0  0
    1.9209   21.1600   37.7276 H   0  0  0  0  0  0  0  0  0  0  0  0
    2.0530   27.8692   32.1241 H   0  0  0  0  0  0  0  0  0  0  0  0
    3.5192   27.6832   32.5917 H   0  0  0  0  0  0  0  0  0  0  0  0
    4.9131   22.0600   34.3990 H   0  0  0  0  0  0  0  0  0  0  0  0
    1.3448   26.5292   27.5632 H   0  0  0  0  0  0  0  0  0  0  0  0
    0.3286   26.3095   28.7396 H   0  0  0  0  0  0  0  0  0  0  0  0
   -0.3422   15.7755   41.5873 H   0  0  0  0  0  0  0  0  0  0  0  0
    2.6842   24.9836   35.6650 H   0  0  0  0  0  0  0  0  0  0  0  0
    3.9000   24.8884   34.1716 H   0  0  0  0  0  0  0  0  0  0  0  0
   -0.1844   22.2178   41.2251 H   0  0  0  0  0  0  0  0  0  0  0  0
    3.8722   21.9374   36.6120 H   0  0  0  0  0  0  0  0  0  0  0  0
    4.8222   20.3935   37.1986 H   0  0  0  0  0  0  0  0  0  0  0  0
    0.8964   22.6684   29.2263 H   0  0  0  0  0  0  0  0  0  0  0  0
    2.4166   22.1149   29.1702 H   0  0  0  0  0  0  0  0  0  0  0  0
    1.6757   21.5228   40.3027 H   0  0  0  0  0  0  0  0  0  0  0  0
    2.2377   21.2425   42.1052 H   0  0  0  0  0  0  0  0  0  0  0  0
    3.3351   26.3919   30.4053 H   0  0  0  0  0  0  0  0  0  0  0  0
    4.3824   25.9346   29.0194 H   0  0  0  0  0  0  0  0  0  0  0  0
    3.0904   27.1636   28.8018 H   0  0  0  0  0  0  0  0  0  0  0  0
    3.1014   14.3577   41.6480 H   0  0  0  0  0  0  0  0  0  0  0  0
    1.9687   18.8128   42.9413 H   0  0  0  0  0  0  0  0  0  0  0  0
    0.5034   18.3872   42.0700 H   0  0  0  0  0  0  0  0  0  0  0  0
    1.7045   25.9718   30.9674 H   0  0  0  0  0  0  0  0  0  0  0  0
    1.2194   24.7812   34.5081 H   0  0  0  0  0  0  0  0  0  0  0  0
    2.4008   23.9962   33.1685 H   0  0  0  0  0  0  0  0  0  0  0  0
    3.9026   19.5166   38.8414 H   0  0  0  0  0  0  0  0  0  0  0  0
    3.0625   23.8451   29.1752 H   0  0  0  0  0  0  0  0  0  0  0  0
   -1.6304   21.3299   44.3341 H   0  0  0  0  0  0  0  0  0  0  0  0
    2.1496   16.6044   38.7488 H   0  0  0  0  0  0  0  0  0  0  0  0
    1.4326   16.0303   43.5508 H   0  0  0  0  0  0  0  0  0  0  0  0
    3.1910   17.2021   41.9718 H   0  0  0  0  0  0  0  0  0  0  0  0
    0.5944   22.2910   31.2513 H   0  0  0  0  0  0  0  0  0  0  0  0
    2.2900   21.4737   31.1267 H   0  0  0  0  0  0  0  0  0  0  0  0
    2.6285   22.5694   35.3244 H   0  0  0  0  0  0  0  0  0  0  0  0
    4.1385   23.2931   35.9785 H   0  0  0  0  0  0  0  0  0  0  0  0
  2 26  1  0
  3 27  1  0
  3 30  1  0
  4 14  1  0
  4 25  2  0
  5 11  1  0
  5 15  1  0
  6 29  1  0
  7 24  1  0
  7  1  1  0
  9  2  1  0
 10 34  1  0
 11 15  1  0
 12 13  1  0
 13 31  1  0
 14 32  1  0
 15 21  1  0
 16 34  1  0
 17  6  2  3
 18  8  2  3
 19 28  1  0
 19 33  1  0
 20 17  1  0
 22 13  1  0
 24  9  1  0
 24  2  1  0
 25 20  1  0
 25 23  1  0
 26 16  1  0
 27  8  1  0
 27  4  1  0
 28 15  1  0
 28  7  1  0
 30 14  1  0
 32 13  1  0
 32 23  1  0
 33  1  1  0
  1 35  1  0
  1 36  1  0
  2 37  1  6
  3 38  1  0
  3 39  1  0
  5 40  1  0
  5 41  1  0
  6 42  1  0
  7 43  1  6
  8 44  1  0
  9 45  1  0
  9 46  1  0
 10 47  1  0
 11 48  1  0
 11 49  1  0
 12 50  1  0
 16 51  1  0
 16 52  1  0
 17 53  1  0
 18 54  1  0
 18 55  1  0
 19 56  1  0
 19 57  1  0
 20 58  1  0
 20 59  1  0
 21 60  1  0
 21 61  1  0
 21 62  1  0
 22 63  1  0
 23 64  1  0
 23 65  1  0
 24 66  1  1
 26 67  1  0
 26 68  1  0
 27 69  1  1
 28 70  1  1
 29 71  1  0
 30 72  1  0
 31 73  1  0
 32 74  1  1
 33 75  1  0
 33 76  1  0
 34 77  1  0
 34 78  1  0
M  CHG  2   1   1  19   1
M  END
>  <mol_id>  (33) 
2026-09-16-6tgu-s0-n100-0033

>  <rmsd_to_ref>  (33) 


$$$$

     RDKit          3D

 52 56  0  0  0  0  0  0  0  0999 V2000
    2.9221   24.0137   32.9619 C   0  0  0  0  0  0  0  0  0  0  0  0
    0.5760   27.3776   33.3698 O   0  0  0  0  0  0  0  0  0  0  0  0
    4.2307   11.9128   35.5818 C   0  0  0  0  0  0  0  0  0  0  0  0
    2.5292   17.0564   39.2658 C   0  0  0  0  0  0  0  0  0  0  0  0
    1.2765   26.1983   33.2688 C   0  0  0  0  0  0  0  0  0  0  0  0
    3.5532   24.8660   30.8033 O   0  0  0  0  0  0  0  0  0  0  0  0
    2.6240   21.4340   36.4362 C   0  0  1  0  0  0  0  0  0  0  0  0
    2.7989   24.9723   31.9527 C   0  0  0  0  0  0  0  0  0  0  0  0
    1.3260   19.9897   40.9015 C   0  0  0  0  0  0  0  0  0  0  0  0
    1.7484   21.3421   37.7709 S   0  0  0  0  0  0  0  0  0  0  0  0
    2.2738   22.8051   35.3136 S   0  0  0  0  0  0  0  0  0  0  0  0
    3.7235   11.8571   34.2973 C   0  0  0  0  0  0  0  0  0  0  0  0
    3.7684   15.7635   37.4821 C   0  0  0  0  0  0  0  0  0  0  0  0
    3.3907   20.4080   36.4660 N   0  0  0  0  0  0  0  0  0  0  0  0
    1.2558   18.2548   41.4964 S   0  0  0  0  0  0  0  0  0  0  0  0
    1.8555   19.6144   39.6528 N   0  0  0  0  0  0  0  0  0  0  0  0
    2.5225   18.3315   40.0864 C   0  0  2  0  0  0  0  0  0  0  0  0
    3.2059   19.5582   37.5384 C   0  0  0  0  0  0  0  0  0  0  0  0
    2.1611   24.1555   34.1643 C   0  0  0  0  0  0  0  0  0  0  0  0
    3.7869   18.2951   37.5367 N   0  0  0  0  0  0  0  0  0  0  0  0
    2.7298   12.7133   33.8592 C   0  0  0  0  0  0  0  0  0  0  0  0
    1.9643   26.0500   32.0780 C   0  0  0  0  0  0  0  0  0  0  0  0
    2.8957   13.9293   35.9521 C   0  0  0  0  0  0  0  0  0  0  0  0
    1.3682   25.2986   34.3081 C   0  0  0  0  0  0  0  0  0  0  0  0
    0.7217   20.7782   41.6464 N   0  0  0  0  0  0  0  0  0  0  0  0
    3.7084   12.9677   36.3497 C   0  0  0  0  0  0  0  0  0  0  0  0
    2.3012   20.1004   38.4157 C   0  0  2  0  0  0  0  0  0  0  0  0
    2.3305   13.7999   34.6390 C   0  0  0  0  0  0  0  0  0  0  0  0
    3.2326   17.1248   37.8444 C   0  0  2  0  0  0  0  0  0  0  0  0
    2.5564   15.0745   36.7855 C   0  0  0  0  0  0  0  0  0  0  0  0
    3.5992   23.1565   32.8325 H   0  0  0  0  0  0  0  0  0  0  0  0
    0.5351   27.9967   32.5983 H   0  0  0  0  0  0  0  0  0  0  0  0
    4.9735   11.1987   35.9669 H   0  0  0  0  0  0  0  0  0  0  0  0
    3.0444   16.2837   39.8554 H   0  0  0  0  0  0  0  0  0  0  0  0
    1.4708   16.8445   39.0537 H   0  0  0  0  0  0  0  0  0  0  0  0
    4.1663   24.0981   30.6828 H   0  0  0  0  0  0  0  0  0  0  0  0
    1.8409   20.8348   35.9487 H   0  0  0  0  0  0  0  0  0  0  0  0
    4.1237   11.1063   33.6000 H   0  0  0  0  0  0  0  0  0  0  0  0
    4.6230   15.8466   36.7946 H   0  0  0  0  0  0  0  0  0  0  0  0
    4.1409   15.2023   38.3517 H   0  0  0  0  0  0  0  0  0  0  0  0
    3.6188   18.3627   40.1708 H   0  0  0  0  0  0  0  0  0  0  0  0
    4.7786   18.2605   37.2606 H   0  0  0  0  0  0  0  0  0  0  0  0
    2.2490   12.5362   32.8859 H   0  0  0  0  0  0  0  0  0  0  0  0
    1.8446   26.7742   31.2587 H   0  0  0  0  0  0  0  0  0  0  0  0
    0.8211   25.4783   35.2454 H   0  0  0  0  0  0  0  0  0  0  0  0
    0.6904   21.7818   41.4170 H   0  0  0  0  0  0  0  0  0  0  0  0
    4.0125   12.9954   37.4065 H   0  0  0  0  0  0  0  0  0  0  0  0
    1.4987   19.5046   37.9564 H   0  0  0  0  0  0  0  0  0  0  0  0
    1.6051   14.5344   34.2591 H   0  0  0  0  0  0  0  0  0  0  0  0
    2.5635   17.2611   36.9820 H   0  0  0  0  0  0  0  0  0  0  0  0
    2.0569   15.8218   36.1516 H   0  0  0  0  0  0  0  0  0  0  0  0
    1.9162   14.6887   37.5925 H   0  0  0  0  0  0  0  0  0  0  0  0
  1 19  1  0
  3 26  1  0
  5  2  1  0
  5 24  1  0
  6  8  1  0
  7 11  1  0
  7 14  1  0
  7 10  1  0
  8 22  1  0
  8  1  2  0
  9 25  2  3
  9 15  1  0
 10 27  1  0
 12  3  2  0
 14 18  2  0
 16 17  1  0
 16  9  1  0
 17  4  1  0
 17 15  1  0
 18 20  1  0
 19 24  2  0
 19 11  1  0
 20 29  1  0
 21 12  1  0
 21 28  2  0
 22  5  2  0
 23 26  2  0
 23 30  1  0
 27 18  1  0
 27 16  1  0
 28 23  1  0
 29 13  1  0
 29  4  1  0
 30 13  1  0
  1 31  1  0
  2 32  1  0
  3 33  1  0
  4 34  1  0
  4 35  1  0
  6 36  1  0
  7 37  1  1
 12 38  1  0
 13 39  1  0
 13 40  1  0
 17 41  1  1
 20 42  1  0
 21 43  1  0
 22 44  1  0
 24 45  1  0
 25 46  1  0
 26 47  1  0
 27 48  1  1
 28 49  1  0
 29 50  1  6
 30 51  1  0
 30 52  1  0
M  END
>  <mol_id>  (34) 
2026-09-16-6tgu-s0-n100-0034

>  <rmsd_to_ref>  (34) 


$$$$

     RDKit          3D

 40 39  0  0  0  0  0  0  0  0999 V2000
    1.8791   22.0053   34.6727 C   0  0  0  0  0  0  0  0  0  0  0  0
    2.7127   17.5921   39.4788 C   0  0  0  0  0  0  0  0  0  0  0  0
    1.2158   19.7794   39.5677 C   0  0  0  0  0  0  0  0  0  0  0  0
    2.5008   20.9605   37.0412 C   0  0  0  0  0  0  0  0  0  0  0  0
    4.6219   23.3584   33.1245 C   0  0  0  0  0  0  0  0  0  0  0  0
    1.7709   22.9941   34.0967 C   0  0  0  0  0  0  0  0  0  0  0  0
    0.1948   20.4597   41.5435 C   0  0  0  0  0  0  0  0  0  0  0  0
    2.6224   21.9378   35.9027 C   0  0  1  0  0  0  0  0  0  0  0  0
    0.1727   20.6088   40.1940 C   0  0  0  0  0  0  0  0  0  0  0  0
    2.6419   19.1801   39.2642 C   0  0  2  0  0  0  0  0  0  0  0  0
    4.1536   21.8032   35.3765 C   0  0  0  0  0  0  0  0  0  0  0  0
    3.0674   19.2848   37.3871 S   0  0  0  0  0  0  0  0  0  0  0  0
    4.1722   21.9034   33.7476 C   0  0  0  0  0  0  0  0  0  0  0  0
    2.0321   16.1911   39.5713 C   0  0  0  0  0  0  0  0  0  0  0  0
    1.4061   21.0946   34.2766 H   0  0  0  0  0  0  0  0  0  0  0  0
    3.2143   17.5880   40.4577 H   0  0  0  0  0  0  0  0  0  0  0  0
    2.7454   17.4736   38.3857 H   0  0  0  0  0  0  0  0  0  0  0  0
    0.7282   18.8141   39.7688 H   0  0  0  0  0  0  0  0  0  0  0  0
    1.5368   20.6822   39.0274 H   0  0  0  0  0  0  0  0  0  0  0  0
    1.4109   20.8706   37.1599 H   0  0  0  0  0  0  0  0  0  0  0  0
    3.2872   21.4387   37.6438 H   0  0  0  0  0  0  0  0  0  0  0  0
    4.6610   24.1060   33.9304 H   0  0  0  0  0  0  0  0  0  0  0  0
    5.6149   23.2672   32.6602 H   0  0  0  0  0  0  0  0  0  0  0  0
    3.8902   23.6745   32.3663 H   0  0  0  0  0  0  0  0  0  0  0  0
    1.1983   23.0240   33.1579 H   0  0  0  0  0  0  0  0  0  0  0  0
    2.2400   23.9105   34.4841 H   0  0  0  0  0  0  0  0  0  0  0  0
   -0.8343   20.4793   41.9315 H   0  0  0  0  0  0  0  0  0  0  0  0
    0.6647   19.4984   41.7986 H   0  0  0  0  0  0  0  0  0  0  0  0
    0.7721   21.2809   41.9937 H   0  0  0  0  0  0  0  0  0  0  0  0
    2.1890   22.7984   36.4335 H   0  0  0  0  0  0  0  0  0  0  0  0
    0.3505   21.6649   39.9432 H   0  0  0  0  0  0  0  0  0  0  0  0
   -0.8101   20.2903   39.8164 H   0  0  0  0  0  0  0  0  0  0  0  0
    3.3018   19.7532   39.9321 H   0  0  0  0  0  0  0  0  0  0  0  0
    4.7615   22.6152   35.8020 H   0  0  0  0  0  0  0  0  0  0  0  0
    4.5688   20.8346   35.6918 H   0  0  0  0  0  0  0  0  0  0  0  0
    3.1584   21.6793   33.3841 H   0  0  0  0  0  0  0  0  0  0  0  0
    4.9362   21.1861   33.4130 H   0  0  0  0  0  0  0  0  0  0  0  0
    1.7758   15.9765   40.6193 H   0  0  0  0  0  0  0  0  0  0  0  0
    1.1163   16.1874   38.9618 H   0  0  0  0  0  0  0  0  0  0  0  0
    2.7241   15.4219   39.1981 H   0  0  0  0  0  0  0  0  0  0  0  0
  2 14  1  0
  3  9  1  0
  4 12  1  0
  5 13  1  0
  6  1  2  3
  8  1  1  0
  8  4  1  0
  9  7  1  0
 10  2  1  0
 10  3  1  0
 11  8  1  0
 12 10  1  0
 13 11  1  0
  1 15  1  0
  2 16  1  0
  2 17  1  0
  3 18  1  0
  3 19  1  0
  4 20  1  0
  4 21  1  0
  5 22  1  0
  5 23  1  0
  5 24  1  0
  6 25  1  0
  6 26  1  0
  7 27  1  0
  7 28  1  0
  7 29  1  0
  8 30  1  1
  9 31  1  0
  9 32  1  0
 10 33  1  1
 11 34  1  0
 11 35  1  0
 13 36  1  0
 13 37  1  0
 14 38  1  0
 14 39  1  0
 14 40  1  0
M  END
>  <mol_id>  (35) 
2026-09-16-6tgu-s0-n100-0035

>  <rmsd_to_ref>  (35) 


$$$$

     RDKit          3D

 69 68  0  0  0  0  0  0  0  0999 V2000
    1.8341   21.0110   36.3714 O   0  0  0  0  0  0  0  0  0  0  0  0
    2.4135   21.4274   35.3663 C   0  0  0  0  0  0  0  0  0  0  0  0
    4.0686   14.3907   37.4279 O   0  0  0  0  0  0  0  0  0  0  0  0
    3.5491   16.7566   36.9229 C   0  0  0  0  0  0  0  0  0  0  0  0
   -0.5077   27.5355   31.1009 F   0  0  0  0  0  0  0  0  0  0  0  0
    3.4638   18.5590   38.3427 C   0  0  0  0  0  0  0  0  0  0  0  0
    0.5652   26.9213   31.6255 C   0  0  0  0  0  0  0  0  0  0  0  0
    4.5970   15.6129   36.9164 C   0  0  0  0  0  0  0  0  0  0  0  0
    3.2251   20.7664   34.7870 O   0  0  0  0  0  0  0  0  0  0  0  0
    2.9543   11.1669   36.1026 C   0  0  1  0  0  0  0  0  0  0  0  0
    4.7493   13.3054   35.5733 O   0  0  0  0  0  0  0  0  0  0  0  0
    0.7477   26.7943   33.0483 C   0  0  0  0  0  0  0  0  0  0  0  0
    3.0845   12.3551   36.9217 O   0  0  0  0  0  0  0  0  0  0  0  0
    2.2950    9.8491   36.4967 C   0  0  0  0  0  0  0  0  0  0  0  0
    2.0466   24.4992   32.8994 C   0  0  2  0  0  0  0  0  0  0  0  0
    1.1483   26.1759   30.6764 C   0  0  0  0  0  0  0  0  0  0  0  0
    1.5602   16.2269   41.9946 O   0  0  0  0  0  0  0  0  0  0  0  0
    3.4539   17.2895   38.2757 O   0  0  0  0  0  0  0  0  0  0  0  0
    1.1952   25.5116   33.5642 C   0  0  0  0  0  0  0  0  0  0  0  0
    1.1474   18.5855   42.3317 C   0  0  0  0  0  0  0  0  0  0  0  0
    3.8656   19.4373   37.7879 O   0  0  0  0  0  0  0  0  0  0  0  0
    2.4600   19.1939   39.9779 C   0  0  0  0  0  0  0  0  0  0  0  0
    2.2537   22.9138   35.0486 C   0  0  0  0  0  0  0  0  0  0  0  0
    1.6305   12.7399   34.5343 O   0  0  0  0  0  0  0  0  0  0  0  0
    2.0024   25.3734   30.6824 C   0  0  1  0  0  0  0  0  0  0  0  0
    2.1980   23.1753   33.5783 C   0  0  0  0  0  0  0  0  0  0  0  0
    4.0162   13.3526   36.5395 C   0  0  0  0  0  0  0  0  0  0  0  0
    2.8934   25.3127   29.1597 S   0  0  0  0  0  0  0  0  0  0  0  0
    2.9215   25.1292   31.8019 C   0  0  2  0  0  0  0  0  0  0  0  0
    1.6678   17.5946   41.5712 C   0  0  0  0  0  0  0  0  0  0  0  0
    2.3873   11.5477   34.6990 C   0  0  0  0  0  0  0  0  0  0  0  0
    1.2792   19.8562   41.8551 C   0  0  0  0  0  0  0  0  0  0  0  0
    2.3529   17.8731   40.3504 C   0  0  0  0  0  0  0  0  0  0  0  0
    1.9201   20.2427   40.6994 C   0  0  0  0  0  0  0  0  0  0  0  0
    4.2184   24.4062   31.6769 C   0  0  0  0  0  0  0  0  0  0  0  0
    3.8643   17.5523   36.2320 H   0  0  0  0  0  0  0  0  0  0  0  0
    2.5703   16.3725   36.5997 H   0  0  0  0  0  0  0  0  0  0  0  0
    2.8988   18.8953   39.2246 H   0  0  0  0  0  0  0  0  0  0  0  0
    4.9333   15.4474   35.8823 H   0  0  0  0  0  0  0  0  0  0  0  0
    5.4306   15.9170   37.5665 H   0  0  0  0  0  0  0  0  0  0  0  0
    4.0070   10.8684   36.2153 H   0  0  0  0  0  0  0  0  0  0  0  0
    1.4905   27.5467   33.3518 H   0  0  0  0  0  0  0  0  0  0  0  0
   -0.2604   26.9244   33.4686 H   0  0  0  0  0  0  0  0  0  0  0  0
    2.3733    9.7111   37.5853 H   0  0  0  0  0  0  0  0  0  0  0  0
    1.2346    9.8678   36.2049 H   0  0  0  0  0  0  0  0  0  0  0  0
    2.8018    9.0180   35.9845 H   0  0  0  0  0  0  0  0  0  0  0  0
    1.6956   23.7285   32.1973 H   0  0  0  0  0  0  0  0  0  0  0  0
    0.7350   26.3568   29.6731 H   0  0  0  0  0  0  0  0  0  0  0  0
    1.9420   15.5042   41.4358 H   0  0  0  0  0  0  0  0  0  0  0  0
    1.7328   25.7590   34.4915 H   0  0  0  0  0  0  0  0  0  0  0  0
    0.2366   24.9742   33.5149 H   0  0  0  0  0  0  0  0  0  0  0  0
    0.6433   18.3763   43.2867 H   0  0  0  0  0  0  0  0  0  0  0  0
    3.0068   19.4287   39.0527 H   0  0  0  0  0  0  0  0  0  0  0  0
    1.3221   23.2758   35.5081 H   0  0  0  0  0  0  0  0  0  0  0  0
    3.1308   23.4409   35.4518 H   0  0  0  0  0  0  0  0  0  0  0  0
    1.4500   13.1413   35.4212 H   0  0  0  0  0  0  0  0  0  0  0  0
    1.3097   24.5385   30.8645 H   0  0  0  0  0  0  0  0  0  0  0  0
    1.3506   22.5743   33.2167 H   0  0  0  0  0  0  0  0  0  0  0  0
    3.2483   22.9690   33.3251 H   0  0  0  0  0  0  0  0  0  0  0  0
    4.2259   25.1257   29.4174 H   0  0  0  0  0  0  0  0  0  0  0  0
    3.3625   26.1206   31.9825 H   0  0  0  0  0  0  0  0  0  0  0  0
    1.7413   10.7159   34.3817 H   0  0  0  0  0  0  0  0  0  0  0  0
    3.2934   11.7414   34.1060 H   0  0  0  0  0  0  0  0  0  0  0  0
    0.8256   20.6571   42.4575 H   0  0  0  0  0  0  0  0  0  0  0  0
    2.7771   17.0669   39.7338 H   0  0  0  0  0  0  0  0  0  0  0  0
    1.9958   21.2922   40.3787 H   0  0  0  0  0  0  0  0  0  0  0  0
    4.6177   24.1934   32.6796 H   0  0  0  0  0  0  0  0  0  0  0  0
    4.0607   23.4609   31.1369 H   0  0  0  0  0  0  0  0  0  0  0  0
    4.9342   25.0305   31.1220 H   0  0  0  0  0  0  0  0  0  0  0  0
  2  1  1  0
  4  8  1  0
  4 18  1  0
  5  7  1  0
  7 12  1  0
  8  3  1  0
  9  2  2  0
 10 14  1  0
 10 13  1  0
 11 27  2  0
 12 19  1  0
 15 19  1  0
 15 26  1  0
 16 25  1  0
 16  7  2  0
 18  6  1  0
 21  6  2  0
 22 33  1  0
 22 34  2  0
 23  2  1  0
 24 31  1  0
 25 28  1  0
 25 29  1  0
 26 23  1  0
 27 13  1  0
 27  3  1  0
 29 35  1  0
 29 15  1  0
 30 17  1  0
 30 20  1  0
 31 10  1  0
 32 20  2  0
 33 30  2  0
 34 32  1  0
  4 36  1  0
  4 37  1  0
  6 38  1  0
  8 39  1  0
  8 40  1  0
 10 41  1  6
 12 42  1  0
 12 43  1  0
 14 44  1  0
 14 45  1  0
 14 46  1  0
 15 47  1  6
 16 48  1  0
 17 49  1  0
 19 50  1  0
 19 51  1  0
 20 52  1  0
 22 53  1  0
 23 54  1  0
 23 55  1  0
 24 56  1  0
 25 57  1  6
 26 58  1  0
 26 59  1  0
 28 60  1  0
 29 61  1  1
 31 62  1  0
 31 63  1  0
 32 64  1  0
 33 65  1  0
 34 66  1  0
 35 67  1  0
 35 68  1  0
 35 69  1  0
M  CHG  1   1  -1
M  END
>  <mol_id>  (36) 
2026-09-16-6tgu-s0-n100-0036

>  <rmsd_to_ref>  (36) 


$$$$

     RDKit          3D

 44 45  0  0  0  0  0  0  0  0999 V2000
    2.5763   18.4686   37.7826 C   0  0  1  0  0  0  0  0  0  0  0  0
    2.7661   20.0413   39.6235 C   0  0  0  0  0  0  0  0  0  0  0  0
    1.5262   16.8203   38.5874 C   0  0  0  0  0  0  0  0  0  0  0  0
    2.4608   27.4295   32.9599 C   0  0  0  0  0  0  0  0  0  0  0  0
    2.9221   21.6338   34.4518 C   0  0  0  0  0  0  0  0  0  0  0  0
    2.6372   21.3164   39.0050 C   0  0  0  0  0  0  0  0  0  0  0  0
    1.9402   16.6096   36.1456 C   0  0  0  0  0  0  0  0  0  0  0  0
    2.8350   19.3862   36.7071 N   0  0  0  0  0  0  0  0  0  0  0  0
    2.6997   27.2726   34.2938 C   0  0  0  0  0  0  0  0  0  0  0  0
    2.9005   20.6829   36.6487 C   0  0  0  0  0  0  0  0  0  0  0  0
    2.5515   17.1606   37.4290 C   0  0  1  0  0  0  0  0  0  0  0  0
    2.6663   27.1898   30.4045 C   0  0  0  0  0  0  0  0  0  0  0  0
    2.9607   28.3405   35.1460 C   0  0  0  0  0  0  0  0  0  0  0  0
    2.6446   21.4808   37.7276 C   0  0  0  0  0  0  0  0  0  0  0  0
    2.7291   25.9380   35.0863 C   0  0  0  0  0  0  0  0  0  0  0  0
    1.7808   27.2470   31.7263 C   0  0  0  0  0  0  0  0  0  0  0  0
    2.7497   18.8790   38.9912 C   0  0  1  0  0  0  0  0  0  0  0  0
    3.6293   21.1199   35.5270 N   0  0  0  0  0  0  0  0  0  0  0  0
    2.1336   17.5365   39.8082 S   0  0  0  0  0  0  0  0  0  0  0  0
    2.9086   24.1996   35.0419 C   0  0  0  0  0  0  0  0  0  0  0  0
    0.2869   15.9068   38.1104 O   0  0  0  0  0  0  0  0  0  0  0  0
    3.1321   23.0636   33.6220 S   0  0  0  0  0  0  0  0  0  0  0  0
    1.5069   18.4982   38.0386 H   0  0  0  0  0  0  0  0  0  0  0  0
    3.7290   20.0707   40.1546 H   0  0  0  0  0  0  0  0  0  0  0  0
    1.8061   19.9860   40.1576 H   0  0  0  0  0  0  0  0  0  0  0  0
    3.0081   20.8577   33.6770 H   0  0  0  0  0  0  0  0  0  0  0  0
    2.0084   21.9132   34.9969 H   0  0  0  0  0  0  0  0  0  0  0  0
    2.5260   22.2023   39.6475 H   0  0  0  0  0  0  0  0  0  0  0  0
    1.7467   15.5333   36.2643 H   0  0  0  0  0  0  0  0  0  0  0  0
    0.9947   17.1313   35.9363 H   0  0  0  0  0  0  0  0  0  0  0  0
    2.6384   16.7666   35.3101 H   0  0  0  0  0  0  0  0  0  0  0  0
    3.5711   16.7757   37.2800 H   0  0  0  0  0  0  0  0  0  0  0  0
    3.6918   26.8872   30.6629 H   0  0  0  0  0  0  0  0  0  0  0  0
    2.2338   26.4594   29.7048 H   0  0  0  0  0  0  0  0  0  0  0  0
    2.6850   28.1832   29.9324 H   0  0  0  0  0  0  0  0  0  0  0  0
    3.2886   27.9578   36.1237 H   0  0  0  0  0  0  0  0  0  0  0  0
    3.7530   28.9693   34.7138 H   0  0  0  0  0  0  0  0  0  0  0  0
    2.0467   28.9390   35.2743 H   0  0  0  0  0  0  0  0  0  0  0  0
    2.3824   22.5085   37.4359 H   0  0  0  0  0  0  0  0  0  0  0  0
    2.5642   26.2031   36.1411 H   0  0  0  0  0  0  0  0  0  0  0  0
    0.6860   27.1491   31.6858 H   0  0  0  0  0  0  0  0  0  0  0  0
    3.7391   19.3574   38.9435 H   0  0  0  0  0  0  0  0  0  0  0  0
    4.6573   21.0596   35.5059 H   0  0  0  0  0  0  0  0  0  0  0  0
    2.8832   23.7083   36.0258 H   0  0  0  0  0  0  0  0  0  0  0  0
  1  8  1  0
  1 17  1  0
  3 19  1  0
  4  9  2  0
  5 18  1  0
  6  2  1  0
  9 13  1  0
  9 15  1  0
 10  8  2  0
 10 14  1  0
 11  7  1  0
 11  1  1  0
 11  3  1  0
 12 16  1  0
 14  6  2  0
 15 20  2  3
 16  4  2  0
 17  2  1  0
 17 19  1  0
 18 10  1  0
 21  3  2  0
 22  5  1  0
 22 20  1  0
  1 23  1  1
  2 24  1  0
  2 25  1  0
  5 26  1  0
  5 27  1  0
  6 28  1  0
  7 29  1  0
  7 30  1  0
  7 31  1  0
 11 32  1  1
 12 33  1  0
 12 34  1  0
 12 35  1  0
 13 36  1  0
 13 37  1  0
 13 38  1  0
 14 39  1  0
 15 40  1  0
 16 41  1  0
 17 42  1  1
 18 43  1  0
 20 44  1  0
M  END
>  <mol_id>  (37) 
2026-09-16-6tgu-s0-n100-0037

>  <rmsd_to_ref>  (37) 


$$$$

     RDKit          3D

 37 38  0  0  0  0  0  0  0  0999 V2000
    3.4685   24.4212   29.7786 C   0  0  0  0  0  0  0  0  0  0  0  0
   -0.4970   17.4024   40.3392 Cl  0  0  0  0  0  0  0  0  0  0  0  0
    3.2893   21.9988   34.2055 C   0  0  0  0  0  0  0  0  0  0  0  0
    1.0203   19.0444   38.7881 C   0  0  0  0  0  0  0  0  0  0  0  0
    2.8323   19.7707   36.9638 C   0  0  1  0  0  0  0  0  0  0  0  0
    0.7911   17.6568   39.2374 C   0  0  0  0  0  0  0  0  0  0  0  0
    2.2699   19.1833   37.9133 C   0  0  0  0  0  0  0  0  0  0  0  0
    2.6221   23.9107   32.5553 C   0  0  0  0  0  0  0  0  0  0  0  0
    1.8223   21.8986   34.2670 O   0  0  0  0  0  0  0  0  0  0  0  0
    3.2191   15.9144   37.2848 O   0  0  0  0  0  0  0  0  0  0  0  0
    4.9344   23.8979   29.7682 C   0  0  0  0  0  0  0  0  0  0  0  0
    3.4184   25.0376   31.3632 S   0  0  1  0  0  4  0  0  0  0  0  0
    4.0839   21.6113   34.8822 O   0  0  0  0  0  0  0  0  0  0  0  0
    4.9416   23.3397   33.7341 O   0  0  0  0  0  0  0  0  0  0  0  0
    5.3978   24.5460   31.5088 S   0  0  0  0  0  0  0  0  0  0  0  0
    2.8730   18.1715   37.4099 C   0  0  0  0  0  0  0  0  0  0  0  0
    2.5501   16.9016   37.7964 C   0  0  0  0  0  0  0  0  0  0  0  0
    1.5656   15.4472   39.2532 O   0  0  0  0  0  0  0  0  0  0  0  0
    2.9918   14.6492   37.5038 N   0  0  0  0  0  0  0  0  0  0  0  0
    3.6225   23.1106   33.1966 C   0  0  1  0  0  0  0  0  0  0  0  0
    1.7018   16.6357   38.7916 C   0  0  0  0  0  0  0  0  0  0  0  0
    2.0486   20.5205   36.2546 O   0  0  0  0  0  0  0  0  0  0  0  0
    2.7400   23.6110   29.6279 H   0  0  0  0  0  0  0  0  0  0  0  0
    3.2162   25.1383   28.9836 H   0  0  0  0  0  0  0  0  0  0  0  0
    0.3648   19.8871   39.0529 H   0  0  0  0  0  0  0  0  0  0  0  0
    3.6292   20.4315   36.5919 H   0  0  0  0  0  0  0  0  0  0  0  0
    1.9138   23.2570   32.0252 H   0  0  0  0  0  0  0  0  0  0  0  0
    2.0821   24.4989   33.3119 H   0  0  0  0  0  0  0  0  0  0  0  0
    4.9929   22.8019   29.6942 H   0  0  0  0  0  0  0  0  0  0  0  0
    5.5725   24.2152   28.9302 H   0  0  0  0  0  0  0  0  0  0  0  0
    2.8531   26.2681   31.5714 H   0  0  0  0  0  0  0  0  0  0  0  0
    4.9009   23.3316   34.7232 H   0  0  0  0  0  0  0  0  0  0  0  0
    0.9302   15.2729   39.9920 H   0  0  0  0  0  0  0  0  0  0  0  0
    2.5555   14.5340   38.4297 H   0  0  0  0  0  0  0  0  0  0  0  0
    2.3588   14.2835   36.7781 H   0  0  0  0  0  0  0  0  0  0  0  0
    3.6238   23.1211   32.0967 H   0  0  0  0  0  0  0  0  0  0  0  0
    1.2724   20.7979   36.8028 H   0  0  0  0  0  0  0  0  0  0  0  0
  1 12  1  0
  3 13  2  0
  3  9  1  0
  4  6  2  0
  5 22  1  0
  5 16  1  0
  5  7  1  0
  6  2  1  0
  7  4  1  0
  8 20  1  0
 10 19  1  0
 10 17  1  0
 11  1  1  0
 11 15  1  0
 12  8  1  0
 15 12  1  0
 16 17  1  0
 16  7  2  0
 17 21  2  0
 20 14  1  0
 20  3  1  0
 21 18  1  0
 21  6  1  0
  1 23  1  0
  1 24  1  0
  4 25  1  0
  5 26  1  1
  8 27  1  0
  8 28  1  0
 11 29  1  0
 11 30  1  0
 12 31  1  6
 14 32  1  0
 18 33  1  0
 19 34  1  0
 19 35  1  0
 20 36  1  6
 22 37  1  0
M  CHG  1   9  -1
M  END
>  <mol_id>  (38) 
2026-09-16-6tgu-s0-n100-0038

>  <rmsd_to_ref>  (38) 


$$$$

     RDKit          3D

 54 57  0  0  0  0  0  0  0  0999 V2000
    2.5044   25.6968   30.4151 C   0  0  0  0  0  0  0  0  0  0  0  0
    2.8799   15.2085   36.4624 S   0  0  0  0  0  0  0  0  0  0  0  0
    1.8137   17.8891   39.3459 C   0  0  0  0  0  0  0  0  0  0  0  0
    2.0652   16.6513   38.6212 N   0  0  0  0  0  0  0  0  0  0  0  0
    1.4830   27.9347   30.7810 C   0  0  0  0  0  0  0  0  0  0  0  0
   -0.0909   17.9183   42.5471 C   0  0  0  0  0  0  0  0  0  0  0  0
    2.4542   21.2425   36.0491 C   0  0  0  0  0  0  0  0  0  0  0  0
   -0.0870   19.2889   42.7675 C   0  0  0  0  0  0  0  0  0  0  0  0
    0.2862   14.9146   38.9689 C   0  0  0  0  0  0  0  0  0  0  0  0
    0.4922   20.1145   41.9087 C   0  0  0  0  0  0  0  0  0  0  0  0
    3.1423   24.4672   29.5378 C   0  0  0  0  0  0  0  0  0  0  0  0
    1.2001   18.2034   40.5591 C   0  0  0  0  0  0  0  0  0  0  0  0
    1.0516   28.6352   31.5626 C   0  0  0  0  0  0  0  0  0  0  0  0
    3.2759   23.0624   32.5464 C   0  0  0  0  0  0  0  0  0  0  0  0
    2.7672   17.7419   36.5530 N   0  0  0  0  0  0  0  0  0  0  0  0
    2.2216   21.9635   34.6600 C   0  0  1  0  0  0  0  0  0  0  0  0
    1.8449   20.3297   39.4825 S   0  0  0  0  0  0  0  0  0  0  0  0
    2.5535   16.6182   37.2821 C   0  0  0  0  0  0  0  0  0  0  0  0
    3.2005   23.6098   31.5442 C   0  0  0  0  0  0  0  0  0  0  0  0
    1.7135   15.2814   39.1202 C   0  0  0  0  0  0  0  0  0  0  0  0
    2.9379   22.6234   33.8088 C   0  0  1  0  0  0  0  0  0  0  0  0
    3.2284   21.4782   34.6037 C   0  0  0  0  0  0  0  0  0  0  0  0
    2.1522   27.1010   29.7740 C   0  0  0  0  0  0  0  0  0  0  0  0
    0.6261   17.3029   41.5187 C   0  0  0  0  0  0  0  0  0  0  0  0
    3.2534   24.5503   30.6788 C   0  0  2  0  0  0  0  0  0  0  0  0
    3.1983   20.0964   36.5256 N   0  0  0  0  0  0  0  0  0  0  0  0
    1.1515   19.5604   40.8364 C   0  0  0  0  0  0  0  0  0  0  0  0
    2.2046   18.9854   38.6304 C   0  0  0  0  0  0  0  0  0  0  0  0
    2.7203   18.9114   37.2143 C   0  0  0  0  0  0  0  0  0  0  0  0
    1.5974   25.1755   30.0750 H   0  0  0  0  0  0  0  0  0  0  0  0
    3.1735   26.2335   31.1038 H   0  0  0  0  0  0  0  0  0  0  0  0
   -0.6897   17.2841   43.2174 H   0  0  0  0  0  0  0  0  0  0  0  0
    1.4278   21.0047   36.3656 H   0  0  0  0  0  0  0  0  0  0  0  0
    3.2015   21.9723   36.3940 H   0  0  0  0  0  0  0  0  0  0  0  0
   -0.5715   19.6949   43.6676 H   0  0  0  0  0  0  0  0  0  0  0  0
   -0.1185   14.6061   39.9442 H   0  0  0  0  0  0  0  0  0  0  0  0
   -0.2778   15.7821   38.5956 H   0  0  0  0  0  0  0  0  0  0  0  0
    0.1950   14.0831   38.2545 H   0  0  0  0  0  0  0  0  0  0  0  0
    0.4475   21.2047   42.0483 H   0  0  0  0  0  0  0  0  0  0  0  0
    3.4916   23.4780   29.2065 H   0  0  0  0  0  0  0  0  0  0  0  0
    2.0850   24.5939   29.2621 H   0  0  0  0  0  0  0  0  0  0  0  0
    3.7441   25.2499   29.0528 H   0  0  0  0  0  0  0  0  0  0  0  0
    0.6335   29.3141   32.3203 H   0  0  0  0  0  0  0  0  0  0  0  0
    1.1568   22.2158   34.5473 H   0  0  0  0  0  0  0  0  0  0  0  0
    2.3163   14.5488   38.5635 H   0  0  0  0  0  0  0  0  0  0  0  0
    1.9211   15.2816   40.2004 H   0  0  0  0  0  0  0  0  0  0  0  0
    3.0479   23.6712   33.4925 H   0  0  0  0  0  0  0  0  0  0  0  0
    3.9265   21.5579   35.4501 H   0  0  0  0  0  0  0  0  0  0  0  0
    3.5928   20.4604   34.4004 H   0  0  0  0  0  0  0  0  0  0  0  0
    1.4835   26.9554   28.9129 H   0  0  0  0  0  0  0  0  0  0  0  0
    3.0746   27.5962   29.4366 H   0  0  0  0  0  0  0  0  0  0  0  0
    0.7421   16.2112   41.4492 H   0  0  0  0  0  0  0  0  0  0  0  0
    4.1338   24.5314   31.3380 H   0  0  0  0  0  0  0  0  0  0  0  0
    4.2130   20.1258   36.3509 H   0  0  0  0  0  0  0  0  0  0  0  0
  1 25  1  0
  2 18  2  0
  3 12  1  0
  4  3  1  0
  4 20  1  0
  5 13  3  0
  6  8  2  0
  7 26  1  0
  9 20  1  0
 10  8  1  0
 12 27  1  0
 12 24  2  0
 15 29  2  0
 15 18  1  0
 16 22  1  0
 16  7  1  0
 17 27  1  0
 18  4  1  0
 19 14  3  0
 21 14  1  0
 21 16  1  0
 21 22  1  0
 23  5  1  0
 23  1  1  0
 24  6  1  0
 25 11  1  0
 25 19  1  0
 26 29  1  0
 27 10  2  0
 28 17  1  0
 28  3  2  0
 29 28  1  0
  1 30  1  0
  1 31  1  0
  6 32  1  0
  7 33  1  0
  7 34  1  0
  8 35  1  0
  9 36  1  0
  9 37  1  0
  9 38  1  0
 10 39  1  0
 11 40  1  0
 11 41  1  0
 11 42  1  0
 13 43  1  0
 16 44  1  6
 20 45  1  0
 20 46  1  0
 21 47  1  1
 22 48  1  0
 22 49  1  0
 23 50  1  0
 23 51  1  0
 24 52  1  0
 25 53  1  6
 26 54  1  0
M  END
>  <mol_id>  (39) 
2026-09-16-6tgu-s0-n100-0039

>  <rmsd_to_ref>  (39) 


$$$$

     RDKit          3D

 80 83  0  0  0  0  0  0  0  0999 V2000
    0.8554   27.6474   33.0944 C   0  0  0  0  0  0  0  0  0  0  0  0
    4.1437   22.6296   33.2471 C   0  0  2  0  0  0  0  0  0  0  0  0
    4.7370   14.3380   36.3291 C   0  0  0  0  0  0  0  0  0  0  0  0
    2.3139   16.6983   40.3735 C   0  0  0  0  0  0  0  0  0  0  0  0
    3.1028   18.6211   38.0459 C   0  0  0  0  0  0  0  0  0  0  0  0
    2.7201   14.2864   39.8261 C   0  0  0  0  0  0  0  0  0  0  0  0
    2.8938   15.2830   37.8175 C   0  0  0  0  0  0  0  0  0  0  0  0
    2.3584   14.4979   41.6137 S   0  0  0  0  0  0  0  0  0  0  0  0
    2.7084   13.2142   36.4341 C   0  0  0  0  0  0  0  0  0  0  0  0
    3.5484   21.5115   34.0999 C   0  0  0  0  0  0  0  0  0  0  0  0
    4.5958   23.8697   32.6685 C   0  0  0  0  0  0  0  0  0  0  0  0
    1.5391   22.6649   33.5782 C   0  0  0  0  0  0  0  0  0  0  0  0
    0.8724   18.2184   42.3599 C   0  0  0  0  0  0  0  0  0  0  0  0
    3.5497   24.0463   33.4208 C   0  0  1  0  0  0  0  0  0  0  0  0
    2.7579   18.7524   39.3123 N   0  0  0  0  0  0  0  0  0  0  0  0
    2.6870   25.1803   30.9932 C   0  0  2  0  0  0  0  0  0  0  0  0
    3.6218   14.0484   37.3364 C   0  0  0  0  0  0  0  0  0  0  0  0
    1.5032   18.8574   41.2633 C   0  0  0  0  0  0  0  0  0  0  0  0
    0.8405   26.4700   32.7568 C   0  0  0  0  0  0  0  0  0  0  0  0
    3.5247   26.1651   31.3923 O   0  0  0  0  0  0  0  0  0  0  0  0
    2.8872   15.5519   39.3726 C   0  0  1  0  0  0  0  0  0  0  0  0
    0.5381   16.2371   43.4604 N   0  0  0  0  0  0  0  0  0  0  0  0
    1.0719   16.8295   42.5029 C   0  0  0  0  0  0  0  0  0  0  0  0
    0.2011   24.6378   31.1815 S   0  0  0  0  0  0  0  0  0  0  0  0
    3.5096   12.7288   35.4294 O   0  0  0  0  0  0  0  0  0  0  0  0
    2.3399   22.1418   34.6601 C   0  0  0  0  0  0  0  0  0  0  0  0
    0.6374   26.2741   31.3550 C   0  0  1  0  0  0  0  0  0  0  0  0
    2.1709   23.8598   33.0388 N   0  0  0  0  0  0  0  0  0  0  0  0
    2.1944   18.1887   40.2834 C   0  0  0  0  0  0  0  0  0  0  0  0
    1.8225   24.1685   31.6192 C   0  0  2  0  0  0  0  0  0  0  0  0
    2.2394   19.7608   38.6267 C   0  0  0  0  0  0  0  0  0  0  0  0
    1.9027   16.1446   41.5121 C   0  0  0  0  0  0  0  0  0  0  0  0
    0.6390   27.3829   30.4746 C   0  0  0  0  0  0  0  0  0  0  0  0
    3.5773   24.4626   29.8566 C   0  0  0  0  0  0  0  0  0  0  0  0
    5.5894   15.5128   36.5971 O   0  0  0  0  0  0  0  0  0  0  0  0
    0.9732   27.7143   34.1861 H   0  0  0  0  0  0  0  0  0  0  0  0
    1.6959   28.1592   32.6029 H   0  0  0  0  0  0  0  0  0  0  0  0
   -0.0894   28.1260   32.7976 H   0  0  0  0  0  0  0  0  0  0  0  0
    5.0970   22.5342   33.7875 H   0  0  0  0  0  0  0  0  0  0  0  0
    4.2667   14.4860   35.3458 H   0  0  0  0  0  0  0  0  0  0  0  0
    5.4130   13.4725   36.3923 H   0  0  0  0  0  0  0  0  0  0  0  0
    2.6548   17.8376   37.4170 H   0  0  0  0  0  0  0  0  0  0  0  0
    4.0331   18.5258   37.4667 H   0  0  0  0  0  0  0  0  0  0  0  0
    3.6359   13.6948   39.6800 H   0  0  0  0  0  0  0  0  0  0  0  0
    1.9219   13.7482   39.2938 H   0  0  0  0  0  0  0  0  0  0  0  0
    3.3602   16.1532   37.3325 H   0  0  0  0  0  0  0  0  0  0  0  0
    1.8396   15.1136   37.5530 H   0  0  0  0  0  0  0  0  0  0  0  0
    2.2636   12.3843   37.0029 H   0  0  0  0  0  0  0  0  0  0  0  0
    1.8795   13.8160   36.0332 H   0  0  0  0  0  0  0  0  0  0  0  0
    3.2910   20.6370   33.4844 H   0  0  0  0  0  0  0  0  0  0  0  0
    4.2391   21.1321   34.8673 H   0  0  0  0  0  0  0  0  0  0  0  0
    5.5585   24.2846   33.0017 H   0  0  0  0  0  0  0  0  0  0  0  0
    4.7935   24.1526   31.6240 H   0  0  0  0  0  0  0  0  0  0  0  0
    1.4532   21.9065   32.7860 H   0  0  0  0  0  0  0  0  0  0  0  0
    0.5370   22.9186   33.9541 H   0  0  0  0  0  0  0  0  0  0  0  0
    0.2520   18.7833   43.0712 H   0  0  0  0  0  0  0  0  0  0  0  0
    3.3830   24.8917   34.1047 H   0  0  0  0  0  0  0  0  0  0  0  0
    1.7838   25.8077   30.9688 H   0  0  0  0  0  0  0  0  0  0  0  0
    3.9729   13.5850   38.2703 H   0  0  0  0  0  0  0  0  0  0  0  0
    1.4351   19.9531   41.1932 H   0  0  0  0  0  0  0  0  0  0  0  0
    1.8039   26.0175   33.0342 H   0  0  0  0  0  0  0  0  0  0  0  0
   -0.0097   25.9997   33.2725 H   0  0  0  0  0  0  0  0  0  0  0  0
    3.6845   26.0878   32.3663 H   0  0  0  0  0  0  0  0  0  0  0  0
    3.7251   16.2619   39.4349 H   0  0  0  0  0  0  0  0  0  0  0  0
    0.6739   15.2231   43.5789 H   0  0  0  0  0  0  0  0  0  0  0  0
   -0.0391   16.7615   44.1333 H   0  0  0  0  0  0  0  0  0  0  0  0
    4.2428   12.1920   35.8222 H   0  0  0  0  0  0  0  0  0  0  0  0
    1.7597   21.3939   35.2204 H   0  0  0  0  0  0  0  0  0  0  0  0
    2.6268   22.9583   35.3390 H   0  0  0  0  0  0  0  0  0  0  0  0
    1.0761   26.4332   30.3589 H   0  0  0  0  0  0  0  0  0  0  0  0
    1.9711   23.1445   31.2460 H   0  0  0  0  0  0  0  0  0  0  0  0
    2.6415   20.7796   38.7280 H   0  0  0  0  0  0  0  0  0  0  0  0
    1.2439   20.1944   38.4504 H   0  0  0  0  0  0  0  0  0  0  0  0
    0.8063   28.3063   31.0484 H   0  0  0  0  0  0  0  0  0  0  0  0
    1.4424   27.2612   29.7332 H   0  0  0  0  0  0  0  0  0  0  0  0
   -0.3304   27.4426   29.9583 H   0  0  0  0  0  0  0  0  0  0  0  0
    4.3129   23.7976   30.3326 H   0  0  0  0  0  0  0  0  0  0  0  0
    2.9237   23.8735   29.1965 H   0  0  0  0  0  0  0  0  0  0  0  0
    4.1027   25.2270   29.2653 H   0  0  0  0  0  0  0  0  0  0  0  0
    5.8150   15.5439   37.5606 H   0  0  0  0  0  0  0  0  0  0  0  0
  2 11  1  0
  2 10  1  0
  3 35  1  0
  3 17  1  0
  4 32  1  0
  5 31  1  0
  5 15  1  0
  6  8  1  0
  9 17  1  0
 10 26  1  0
 12 26  1  0
 13 23  1  0
 14 11  1  0
 14  2  1  0
 15 29  1  0
 16 34  1  0
 16 20  1  0
 16 30  1  0
 17  7  1  0
 18 13  2  0
 19  1  1  0
 21  7  1  0
 21  6  1  0
 21  4  1  0
 23 22  1  0
 25  9  1  0
 27 33  1  0
 27 24  1  0
 27 19  1  0
 28 14  1  0
 28 12  1  0
 29  4  2  0
 29 18  1  0
 30 24  1  0
 30 28  1  0
 31 15  1  0
 32  8  1  0
 32 23  2  0
  1 36  1  0
  1 37  1  0
  1 38  1  0
  2 39  1  6
  3 40  1  0
  3 41  1  0
  5 42  1  0
  5 43  1  0
  6 44  1  0
  6 45  1  0
  7 46  1  0
  7 47  1  0
  9 48  1  0
  9 49  1  0
 10 50  1  0
 10 51  1  0
 11 52  1  0
 11 53  1  0
 12 54  1  0
 12 55  1  0
 13 56  1  0
 14 57  1  1
 16 58  1  6
 17 59  1  0
 18 60  1  0
 19 61  1  0
 19 62  1  0
 20 63  1  0
 21 64  1  1
 22 65  1  0
 22 66  1  0
 25 67  1  0
 26 68  1  0
 26 69  1  0
 27 70  1  6
 30 71  1  6
 31 72  1  0
 31 73  1  0
 33 74  1  0
 33 75  1  0
 33 76  1  0
 34 77  1  0
 34 78  1  0
 34 79  1  0
 35 80  1  0
M  END
>  <mol_id>  (40) 
2026-09-16-6tgu-s0-n100-0040

>  <rmsd_to_ref>  (40) 


$$$$

     RDKit          3D

 80 84  0  0  0  0  0  0  0  0999 V2000
    2.4180   26.3930   30.7260 C   0  0  2  0  0  0  0  0  0  0  0  0
    2.1180   26.8630   32.0410 C   0  0  0  0  0  0  0  0  0  0  0  0
    1.8600   15.1790   42.3090 C   0  0  0  0  0  0  0  0  0  0  0  0
    3.3490   24.8140   28.4950 C   0  0  0  0  0  0  0  0  0  0  0  0
    4.0530   22.0230   34.0650 C   0  0  0  0  0  0  0  0  0  0  0  0
    1.6460   21.1650   41.0240 C   0  0  0  0  0  0  0  0  0  0  0  0
    1.7110   17.1240   40.5720 N   0  0  0  0  0  0  0  0  0  0  0  0
    2.8470   14.3270   41.4030 C   0  0  0  0  0  0  0  0  0  0  0  0
    2.6700   18.2760   37.6530 O   0  0  0  0  0  0  0  0  0  0  0  0
    1.9130   24.6150   28.7810 C   0  0  0  0  0  0  0  0  0  0  0  0
    4.2700   24.4590   33.2700 C   0  0  1  0  0  0  0  0  0  0  0  0
    1.3850   25.7730   29.5590 C   0  0  0  0  0  0  0  0  0  0  0  0
    0.5630   21.0100   41.9220 C   0  0  0  0  0  0  0  0  0  0  0  0
    2.2350   22.0370   35.5460 O   0  0  0  0  0  0  0  0  0  0  0  0
    2.8300   19.7210   39.3650 O   0  0  0  0  0  0  0  0  0  0  0  0
    2.3600   28.2440   31.5170 C   0  0  0  0  0  0  0  0  0  0  0  0
    2.7150   16.7320   39.6730 C   0  0  0  0  0  0  0  0  0  0  0  0
    3.4500   24.1780   34.6080 C   0  0  0  0  0  0  0  0  0  0  0  0
   -0.1710   19.8390   42.3240 C   0  0  0  0  0  0  0  0  0  0  0  0
    4.6030   25.2340   31.9950 C   0  0  1  0  0  0  0  0  0  0  0  0
    1.2880   18.5400   40.8750 C   0  0  0  0  0  0  0  0  0  0  0  0
    3.2650   19.4650   38.3230 C   0  0  0  0  0  0  0  0  0  0  0  0
    4.3240   23.4380   34.1470 N   0  0  0  0  0  0  0  0  0  0  0  0
    1.6460   19.8780   40.2930 C   0  0  1  0  0  0  0  0  0  0  0  0
    4.4090   16.1580   37.7260 C   0  0  0  0  0  0  0  0  0  0  0  0
    3.0740   16.9410   38.2290 C   0  0  2  0  0  0  0  0  0  0  0  0
    1.1350   16.1490   41.4950 O   0  0  0  0  0  0  0  0  0  0  0  0
    0.2500   18.5450   41.7730 C   0  0  0  0  0  0  0  0  0  0  0  0
    1.1440   28.5400   30.6490 C   0  0  0  0  0  0  0  0  0  0  0  0
    4.1750   24.7280   29.6960 C   0  0  0  0  0  0  0  0  0  0  0  0
    3.5760   21.7010   35.4410 C   0  0  0  0  0  0  0  0  0  0  0  0
    0.8290   14.1180   42.7990 C   0  0  0  0  0  0  0  0  0  0  0  0
    3.3230   24.4220   32.0020 C   0  0  2  0  0  0  0  0  0  0  0  0
    3.7070   25.4680   30.9260 C   0  0  2  0  0  0  0  0  0  0  0  0
    2.4487   27.3502   30.1848 H   0  0  0  0  0  0  0  0  0  0  0  0
    1.0877   26.6709   32.3751 H   0  0  0  0  0  0  0  0  0  0  0  0
    2.6377   26.4776   32.9306 H   0  0  0  0  0  0  0  0  0  0  0  0
    2.3868   15.7214   43.1079 H   0  0  0  0  0  0  0  0  0  0  0  0
    3.6777   24.0412   27.7846 H   0  0  0  0  0  0  0  0  0  0  0  0
    3.4700   25.8245   28.0775 H   0  0  0  0  0  0  0  0  0  0  0  0
    3.2760   21.8106   33.3159 H   0  0  0  0  0  0  0  0  0  0  0  0
    4.9250   21.4285   33.7547 H   0  0  0  0  0  0  0  0  0  0  0  0
    1.4771   22.0100   40.3403 H   0  0  0  0  0  0  0  0  0  0  0  0
    2.6010   21.3842   41.5240 H   0  0  0  0  0  0  0  0  0  0  0  0
    3.5229   13.7435   42.0454 H   0  0  0  0  0  0  0  0  0  0  0  0
    2.2641   13.6437   40.7679 H   0  0  0  0  0  0  0  0  0  0  0  0
    3.4378   15.0035   40.7679 H   0  0  0  0  0  0  0  0  0  0  0  0
    1.3608   24.5300   27.8335 H   0  0  0  0  0  0  0  0  0  0  0  0
    1.7852   23.6947   29.3698 H   0  0  0  0  0  0  0  0  0  0  0  0
    1.1531   26.5804   28.8488 H   0  0  0  0  0  0  0  0  0  0  0  0
    0.5076   25.3946   30.1040 H   0  0  0  0  0  0  0  0  0  0  0  0
    0.2243   21.9444   42.3933 H   0  0  0  0  0  0  0  0  0  0  0  0
    1.9844   22.0998   36.5017 H   0  0  0  0  0  0  0  0  0  0  0  0
    2.4331   28.9663   32.3434 H   0  0  0  0  0  0  0  0  0  0  0  0
    3.3032   28.3196   30.9561 H   0  0  0  0  0  0  0  0  0  0  0  0
    3.6244   17.0807   40.1843 H   0  0  0  0  0  0  0  0  0  0  0  0
    2.2492   15.7541   39.4811 H   0  0  0  0  0  0  0  0  0  0  0  0
    3.6351   24.7698   35.5166 H   0  0  0  0  0  0  0  0  0  0  0  0
    2.3936   24.0907   34.9018 H   0  0  0  0  0  0  0  0  0  0  0  0
   -1.0191   19.9112   43.0208 H   0  0  0  0  0  0  0  0  0  0  0  0
    5.5791   25.7389   31.9473 H   0  0  0  0  0  0  0  0  0  0  0  0
    4.3432   19.2825   38.4417 H   0  0  0  0  0  0  0  0  0  0  0  0
    3.0282   20.3242   37.6782 H   0  0  0  0  0  0  0  0  0  0  0  0
    0.6791   20.0997   39.8176 H   0  0  0  0  0  0  0  0  0  0  0  0
    4.9863   15.8194   38.5990 H   0  0  0  0  0  0  0  0  0  0  0  0
    4.1172   15.2879   37.1195 H   0  0  0  0  0  0  0  0  0  0  0  0
    5.0259   16.8374   37.1195 H   0  0  0  0  0  0  0  0  0  0  0  0
    2.3716   16.3489   37.6239 H   0  0  0  0  0  0  0  0  0  0  0  0
   -0.2496   17.6110   42.0698 H   0  0  0  0  0  0  0  0  0  0  0  0
    0.2770   28.7511   31.2922 H   0  0  0  0  0  0  0  0  0  0  0  0
    1.3508   29.4140   30.0139 H   0  0  0  0  0  0  0  0  0  0  0  0
    0.9260   27.6687   30.0139 H   0  0  0  0  0  0  0  0  0  0  0  0
    4.2552   23.6641   29.9637 H   0  0  0  0  0  0  0  0  0  0  0  0
    5.1191   25.2198   29.4190 H   0  0  0  0  0  0  0  0  0  0  0  0
    3.7024   20.6252   35.6324 H   0  0  0  0  0  0  0  0  0  0  0  0
    4.1599   22.2709   36.1787 H   0  0  0  0  0  0  0  0  0  0  0  0
    0.8137   14.1022   43.8988 H   0  0  0  0  0  0  0  0  0  0  0  0
   -0.1713   14.3774   42.4220 H   0  0  0  0  0  0  0  0  0  0  0  0
    1.1169   13.1255   42.4220 H   0  0  0  0  0  0  0  0  0  0  0  0
    2.4357   23.7741   31.9486 H   0  0  0  0  0  0  0  0  0  0  0  0
  1 34  1  0
  1  2  1  0
  3 32  1  0
  4 10  1  0
  4 30  1  0
  5 23  1  0
  5 31  1  0
  6 13  1  0
  7 21  1  0
  7 27  1  0
  8  3  1  0
  9 26  1  0
  9 22  1  0
 10 12  1  0
 11 23  1  1
 11 18  1  0
 12  1  1  0
 13 19  2  0
 15 24  1  0
 16  2  1  0
 17  7  1  0
 20 33  1  0
 20 11  1  0
 21 28  2  0
 22 15  1  0
 23 18  1  0
 24 21  1  0
 24  6  1  0
 25 26  1  0
 26 17  1  0
 27  3  1  0
 28 19  1  0
 29 16  1  0
 34 30  1  6
 31 14  1  0
 33 11  1  0
 34 20  1  0
 34 33  1  0
  1 35  1  6
  2 36  1  0
  2 37  1  0
  3 38  1  0
  4 39  1  0
  4 40  1  0
  5 41  1  0
  5 42  1  0
  6 43  1  0
  6 44  1  0
  8 45  1  0
  8 46  1  0
  8 47  1  0
 10 48  1  0
 10 49  1  0
 12 50  1  0
 12 51  1  0
 13 52  1  0
 14 53  1  0
 16 54  1  0
 16 55  1  0
 17 56  1  0
 17 57  1  0
 18 58  1  0
 18 59  1  0
 19 60  1  0
 20 61  1  6
 22 62  1  0
 22 63  1  0
 24 64  1  6
 25 65  1  0
 25 66  1  0
 25 67  1  0
 26 68  1  6
 28 69  1  0
 29 70  1  0
 29 71  1  0
 29 72  1  0
 30 73  1  0
 30 74  1  0
 31 75  1  0
 31 76  1  0
 32 77  1  0
 32 78  1  0
 32 79  1  0
 33 80  1  6
M  END
>  <mol_id>  (41) 
2026-09-16-6tgu-s0-n100-0041

>  <rmsd_to_ref>  (41) 


$$$$

     RDKit          3D

 32 33  0  0  0  0  0  0  0  0999 V2000
    3.9347   22.0609   33.4986 C   0  0  1  0  0  0  0  0  0  0  0  0
    2.7954   20.8194   36.6901 C   0  0  0  0  0  0  0  0  0  0  0  0
    2.5245   21.0165   39.2975 C   0  0  0  0  0  0  0  0  0  0  0  0
    2.5669   21.9937   35.8200 C   0  0  0  0  0  0  0  0  0  0  0  0
    2.5960   21.3117   38.0947 C   0  0  0  0  0  0  0  0  0  0  0  0
    1.9760   16.8011   37.4825 S   0  0  0  0  0  4  0  0  0  0  0  0
    3.8813   23.2299   32.6055 O   0  0  0  0  0  0  0  0  0  0  0  0
    3.2799   24.0811   34.6099 C   0  0  0  0  0  0  0  0  0  0  0  0
    1.2918   16.2010   38.5899 O   0  0  0  0  0  0  0  0  0  0  0  0
    2.1015   16.0563   36.2396 O   0  0  0  0  0  0  0  0  0  0  0  0
    2.8044   18.5597   39.2994 C   0  0  0  0  0  0  0  0  0  0  0  0
    2.9554   19.8406   40.0162 C   0  0  0  0  0  0  0  0  0  0  0  0
    2.6090   19.1888   36.7011 C   0  0  0  0  0  0  0  0  0  0  0  0
    2.5310   18.3137   37.8343 C   0  0  0  0  0  0  0  0  0  0  0  0
    5.3205   22.6673   34.6843 C   0  0  0  0  0  0  0  0  0  0  0  0
    3.6616   22.7794   34.7583 C   0  0  2  0  0  0  0  0  0  0  0  0
    3.6426   21.1282   32.9938 H   0  0  0  0  0  0  0  0  0  0  0  0
    2.0501   21.7845   39.9260 H   0  0  0  0  0  0  0  0  0  0  0  0
    1.7262   21.6972   35.1755 H   0  0  0  0  0  0  0  0  0  0  0  0
    2.5309   22.7640   36.6044 H   0  0  0  0  0  0  0  0  0  0  0  0
    3.3983   22.0628   38.1394 H   0  0  0  0  0  0  0  0  0  0  0  0
    1.5120   21.1541   37.9938 H   0  0  0  0  0  0  0  0  0  0  0  0
    4.2050   24.0304   33.0899 H   0  0  0  0  0  0  0  0  0  0  0  0
    3.3419   24.5944   35.5808 H   0  0  0  0  0  0  0  0  0  0  0  0
    3.9455   24.5785   33.8891 H   0  0  0  0  0  0  0  0  0  0  0  0
    2.2446   24.1198   34.2402 H   0  0  0  0  0  0  0  0  0  0  0  0
    2.5180   15.1769   36.4224 H   0  0  0  0  0  0  0  0  0  0  0  0
    2.9052   17.6567   39.9194 H   0  0  0  0  0  0  0  0  0  0  0  0
    3.3699   19.8961   41.0337 H   0  0  0  0  0  0  0  0  0  0  0  0
    2.5345   18.7067   35.7151 H   0  0  0  0  0  0  0  0  0  0  0  0
    5.8841   21.9708   35.3225 H   0  0  0  0  0  0  0  0  0  0  0  0
    6.2085   23.3164   34.6787 H   0  0  0  0  0  0  0  0  0  0  0  0
  1  7  1  0
  1 16  1  0
  1 15  1  0
  2 13  2  0
  2  5  1  0
  3 12  2  0
  4  2  1  0
  5  3  1  0
  6 10  1  0
  6 14  1  0
  6  9  2  0
 11 12  1  0
 13 14  1  0
 14 11  2  0
 16  8  1  6
 16 15  1  0
 16  4  1  0
  1 17  1  6
  3 18  1  0
  4 19  1  0
  4 20  1  0
  5 21  1  0
  5 22  1  0
  7 23  1  0
  8 24  1  0
  8 25  1  0
  8 26  1  0
 10 27  1  0
 11 28  1  0
 12 29  1  0
 13 30  1  0
 15 31  1  0
 15 32  1  0
M  END
>  <mol_id>  (42) 
2026-09-16-6tgu-s0-n100-0042

>  <rmsd_to_ref>  (42) 


$$$$

     RDKit          3D

 60 60  0  0  0  0  0  0  0  0999 V2000
    1.7068   16.5231   42.1209 N   0  0  0  0  0  0  0  0  0  0  0  0
    3.8094   14.9677   38.3662 C   0  0  0  0  0  0  0  0  0  0  0  0
    0.0956   18.9894   42.0368 O   0  0  0  0  0  0  0  0  0  0  0  0
    1.3570   25.9332   34.8542 C   0  0  0  0  0  0  0  0  0  0  0  0
    4.0811   16.2308   38.0110 C   0  0  0  0  0  0  0  0  0  0  0  0
    2.9281   19.1962   39.9873 C   0  0  0  0  0  0  0  0  0  0  0  0
    3.7560   12.7115   37.7656 O   0  0  0  0  0  0  0  0  0  0  0  0
    1.2234   21.2146   43.0722 O   0  0  0  0  0  0  0  0  0  0  0  0
    1.2326   27.1662   33.9741 C   0  0  0  0  0  0  0  0  0  0  0  0
    2.2465   17.1171   41.0152 C   0  0  0  0  0  0  0  0  0  0  0  0
    4.9233   14.1083   36.5329 O   0  0  0  0  0  0  0  0  0  0  0  0
    4.2355   13.8517   37.4856 C   0  0  0  0  0  0  0  0  0  0  0  0
    2.1339   24.9380   34.4531 C   0  0  0  0  0  0  0  0  0  0  0  0
    3.1165   15.0458   39.5613 C   0  0  0  0  0  0  0  0  0  0  0  0
    1.8048   20.5873   42.1005 C   0  0  0  0  0  0  0  0  0  0  0  0
    1.2841   27.8958   30.1534 C   0  0  0  0  0  0  0  0  0  0  0  0
    2.6883   26.0788   31.9243 C   0  0  0  0  0  0  0  0  0  0  0  0
    3.5706   17.1443   39.0199 C   0  0  1  0  0  0  0  0  0  0  0  0
    2.8863   16.4168   39.9532 C   0  0  0  0  0  0  0  0  0  0  0  0
    2.1113   18.5253   40.9562 C   0  0  0  0  0  0  0  0  0  0  0  0
    2.4982   23.9863   35.3028 C   0  0  0  0  0  0  0  0  0  0  0  0
    1.2414   19.2958   41.7838 C   0  0  0  0  0  0  0  0  0  0  0  0
    0.9007   27.8599   31.6288 C   0  0  0  0  0  0  0  0  0  0  0  0
    3.6453   18.5400   39.1000 C   0  0  0  0  0  0  0  0  0  0  0  0
    1.6463   15.1212   42.4338 C   0  0  0  0  0  0  0  0  0  0  0  0
    3.5911   24.1560   35.8884 O   0  0  0  0  0  0  0  0  0  0  0  0
    2.2485   26.9978   29.6229 C   0  0  0  0  0  0  0  0  0  0  0  0
    4.4437   21.5904   34.8380 C   0  0  0  0  0  0  0  0  0  0  0  0
    1.8232   22.9437   35.2471 O   0  0  0  0  0  0  0  0  0  0  0  0
    4.1986   21.5528   36.2912 C   0  0  0  0  0  0  0  0  0  0  0  0
    2.9723   26.0932   30.5311 C   0  0  0  0  0  0  0  0  0  0  0  0
    1.6889   27.0280   32.5559 C   0  0  0  0  0  0  0  0  0  0  0  0
    0.7251   16.8346   42.1308 H   0  0  0  0  0  0  0  0  0  0  0  0
    2.4180   16.8049   42.8106 H   0  0  0  0  0  0  0  0  0  0  0  0
    0.8115   25.8683   35.8072 H   0  0  0  0  0  0  0  0  0  0  0  0
    4.6103   16.5311   37.0947 H   0  0  0  0  0  0  0  0  0  0  0  0
    2.9563   20.2959   39.9856 H   0  0  0  0  0  0  0  0  0  0  0  0
    1.4695   20.7911   43.9325 H   0  0  0  0  0  0  0  0  0  0  0  0
    0.1720   27.4573   33.9561 H   0  0  0  0  0  0  0  0  0  0  0  0
    1.9059   27.9112   34.4232 H   0  0  0  0  0  0  0  0  0  0  0  0
    2.4792   24.9005   33.4093 H   0  0  0  0  0  0  0  0  0  0  0  0
    2.7824   14.1725   40.1408 H   0  0  0  0  0  0  0  0  0  0  0  0
    1.7409   21.2173   41.2010 H   0  0  0  0  0  0  0  0  0  0  0  0
    2.8374   20.3998   42.4300 H   0  0  0  0  0  0  0  0  0  0  0  0
    0.8057   28.6298   29.4883 H   0  0  0  0  0  0  0  0  0  0  0  0
    3.2115   25.3543   32.5656 H   0  0  0  0  0  0  0  0  0  0  0  0
    2.6452   17.2692   38.4386 H   0  0  0  0  0  0  0  0  0  0  0  0
    0.0467   28.4475   31.9967 H   0  0  0  0  0  0  0  0  0  0  0  0
    4.3077   19.0918   38.4168 H   0  0  0  0  0  0  0  0  0  0  0  0
    1.6373   14.9892   43.5258 H   0  0  0  0  0  0  0  0  0  0  0  0
    0.7303   14.6890   42.0047 H   0  0  0  0  0  0  0  0  0  0  0  0
    2.5250   14.6127   42.0102 H   0  0  0  0  0  0  0  0  0  0  0  0
    2.4529   26.9785   28.5423 H   0  0  0  0  0  0  0  0  0  0  0  0
    5.3991   21.0933   34.6143 H   0  0  0  0  0  0  0  0  0  0  0  0
    3.6281   21.0695   34.3150 H   0  0  0  0  0  0  0  0  0  0  0  0
    4.4867   22.6363   34.5003 H   0  0  0  0  0  0  0  0  0  0  0  0
    5.0321   21.0370   36.7904 H   0  0  0  0  0  0  0  0  0  0  0  0
    4.1196   22.5802   36.6764 H   0  0  0  0  0  0  0  0  0  0  0  0
    3.2610   21.0133   36.4911 H   0  0  0  0  0  0  0  0  0  0  0  0
    3.7426   25.4200   30.1269 H   0  0  0  0  0  0  0  0  0  0  0  0
  1 25  1  0
  2 14  1  0
  5  2  2  0
  6 20  1  0
  9  4  1  0
 10  1  1  0
 11 12  2  0
 12  7  1  0
 12  2  1  0
 13  4  2  3
 13 21  1  0
 14 19  2  0
 15  8  1  0
 16 23  1  0
 17 32  1  0
 18  5  1  0
 18 19  1  0
 19 10  1  0
 20 10  2  0
 20 22  1  0
 21 29  2  0
 21 26  1  0
 22 15  1  0
 22  3  2  0
 23 32  2  0
 24 18  1  0
 24  6  2  0
 27 16  2  0
 27 31  1  0
 28 30  1  0
 31 17  2  0
 32  9  1  0
  1 33  1  0
  1 34  1  0
  4 35  1  0
  5 36  1  0
  6 37  1  0
  8 38  1  0
  9 39  1  0
  9 40  1  0
 13 41  1  0
 14 42  1  0
 15 43  1  0
 15 44  1  0
 16 45  1  0
 17 46  1  0
 18 47  1  1
 23 48  1  0
 24 49  1  0
 25 50  1  0
 25 51  1  0
 25 52  1  0
 27 53  1  0
 28 54  1  0
 28 55  1  0
 28 56  1  0
 30 57  1  0
 30 58  1  0
 30 59  1  0
 31 60  1  0
M  CHG  3   1   1   7  -1  26  -1
M  END
>  <mol_id>  (43) 
2026-09-16-6tgu-s0-n100-0043

>  <rmsd_to_ref>  (43) 


$$$$

     RDKit          3D

 52 53  0  0  0  0  0  0  0  0999 V2000
   -0.0004   18.6762   42.6611 O   0  0  0  0  0  0  0  0  0  0  0  0
    4.5614   24.4107   32.5420 C   0  0  0  0  0  0  0  0  0  0  0  0
    2.6824   24.0645   34.3373 C   0  0  0  0  0  0  0  0  0  0  0  0
    3.1677   20.0590   37.4608 C   0  0  0  0  0  0  0  0  0  0  0  0
    2.0775   19.8357   40.9213 C   0  0  1  0  0  0  0  0  0  0  0  0
    4.3901   16.7118   38.2299 C   0  0  0  0  0  0  0  0  0  0  0  0
    3.3617   16.8726   39.1830 C   0  0  0  0  0  0  0  0  0  0  0  0
    2.3014   20.4653   39.7327 O   0  0  0  0  0  0  0  0  0  0  0  0
    2.8574   19.6388   38.8644 C   0  0  2  0  0  0  0  0  0  0  0  0
    4.9574   11.5676   38.3500 C   0  0  0  0  0  0  0  0  0  0  0  0
    2.9794   18.3511   39.5269 N   0  0  0  0  0  0  0  0  0  0  0  0
    2.9935   14.4784   39.2017 C   0  0  0  0  0  0  0  0  0  0  0  0
    4.6887   22.4308   33.9407 C   0  0  0  0  0  0  0  0  0  0  0  0
    2.6403   18.5891   40.7862 O   0  0  0  0  0  0  0  0  0  0  0  0
   -0.0511   19.6786   42.2707 C   0  0  0  0  0  0  0  0  0  0  0  0
    4.2349   12.8131   37.4664 S   0  0  0  0  0  6  0  0  0  0  0  0
    4.1277   23.7261   33.7724 C   0  0  0  0  0  0  0  0  0  0  0  0
    2.9569   12.4394   36.8842 O   0  0  0  0  0  0  0  0  0  0  0  0
    4.7272   15.4664   37.7364 C   0  0  0  0  0  0  0  0  0  0  0  0
    2.4336   20.8117   36.6753 C   0  0  0  0  0  0  0  0  0  0  0  0
    1.2723   20.4204   41.9882 C   0  0  0  0  0  0  0  0  0  0  0  0
    2.9873   21.2908   35.3933 C   0  0  0  0  0  0  0  0  0  0  0  0
    5.3532   13.0431   36.3421 O   0  0  0  0  0  0  0  0  0  0  0  0
    4.1216   21.3340   34.7771 C   0  0  0  0  0  0  0  0  0  0  0  0
    2.7432   15.7161   39.7508 C   0  0  0  0  0  0  0  0  0  0  0  0
    4.0186   14.3058   38.2663 C   0  0  0  0  0  0  0  0  0  0  0  0
   -1.3362   20.0436   42.1307 O   0  0  0  0  0  0  0  0  0  0  0  0
    5.6695   22.1244   33.2862 O   0  0  0  0  0  0  0  0  0  0  0  0
    5.0696   25.3502   32.8048 H   0  0  0  0  0  0  0  0  0  0  0  0
    5.2545   23.7621   31.9862 H   0  0  0  0  0  0  0  0  0  0  0  0
    3.6839   24.6311   31.9162 H   0  0  0  0  0  0  0  0  0  0  0  0
    2.7213   24.1184   35.4353 H   0  0  0  0  0  0  0  0  0  0  0  0
    2.3485   25.0320   33.9344 H   0  0  0  0  0  0  0  0  0  0  0  0
    1.9765   23.2776   34.0336 H   0  0  0  0  0  0  0  0  0  0  0  0
    4.1334   20.5813   37.5298 H   0  0  0  0  0  0  0  0  0  0  0  0
    3.0275   19.0921   36.9552 H   0  0  0  0  0  0  0  0  0  0  0  0
    1.1775   19.3629   40.5012 H   0  0  0  0  0  0  0  0  0  0  0  0
    4.9352   17.5977   37.8722 H   0  0  0  0  0  0  0  0  0  0  0  0
    1.8306   19.3857   38.5617 H   0  0  0  0  0  0  0  0  0  0  0  0
    4.8619   11.7777   39.4255 H   0  0  0  0  0  0  0  0  0  0  0  0
    4.4586   10.6153   38.1167 H   0  0  0  0  0  0  0  0  0  0  0  0
    6.0224   11.4987   38.0831 H   0  0  0  0  0  0  0  0  0  0  0  0
    2.3803   13.6159   39.5021 H   0  0  0  0  0  0  0  0  0  0  0  0
    4.6307   24.2572   34.5939 H   0  0  0  0  0  0  0  0  0  0  0  0
    5.5057   15.3529   36.9676 H   0  0  0  0  0  0  0  0  0  0  0  0
    1.4098   21.0846   36.9709 H   0  0  0  0  0  0  0  0  0  0  0  0
    1.8711   20.4184   42.9110 H   0  0  0  0  0  0  0  0  0  0  0  0
    0.9988   21.4325   41.6552 H   0  0  0  0  0  0  0  0  0  0  0  0
    2.1974   21.7477   34.7791 H   0  0  0  0  0  0  0  0  0  0  0  0
    4.1047   20.4601   34.1093 H   0  0  0  0  0  0  0  0  0  0  0  0
    4.7738   21.4516   35.6550 H   0  0  0  0  0  0  0  0  0  0  0  0
    2.0736   15.8137   40.6181 H   0  0  0  0  0  0  0  0  0  0  0  0
  2 17  1  0
  5 21  1  0
  6  7  1  0
  7 11  1  0
  7 25  2  0
  8  5  1  0
  9  4  1  0
  9 11  1  0
  9  8  1  0
 11 14  1  0
 12 25  1  0
 13 24  1  0
 14  5  1  0
 15  1  1  0
 16 10  1  0
 16 26  1  0
 17 13  1  0
 17  3  1  0
 18 16  2  0
 19 26  1  0
 19  6  2  0
 20  4  1  0
 21 15  1  0
 22 20  2  3
 23 16  2  0
 24 22  1  0
 26 12  2  0
 27 15  2  0
 28 13  2  0
  2 29  1  0
  2 30  1  0
  2 31  1  0
  3 32  1  0
  3 33  1  0
  3 34  1  0
  4 35  1  0
  4 36  1  0
  5 37  1  1
  6 38  1  0
  9 39  1  1
 10 40  1  0
 10 41  1  0
 10 42  1  0
 12 43  1  0
 17 44  1  0
 19 45  1  0
 20 46  1  0
 21 47  1  0
 21 48  1  0
 22 49  1  0
 24 50  1  0
 24 51  1  0
 25 52  1  0
M  CHG  1   1  -1
M  END
>  <mol_id>  (44) 
2026-09-16-6tgu-s0-n100-0044

>  <rmsd_to_ref>  (44) 


$$$$

     RDKit          3D

 65 67  0  0  0  0  0  0  0  0999 V2000
    4.8479   13.2138   38.4280 C   0  0  0  0  0  0  0  0  0  0  0  0
    4.6087   22.8792   33.0335 C   0  0  0  0  0  0  0  0  0  0  0  0
    2.6424   20.1809   38.3303 C   0  0  2  0  0  0  0  0  0  0  0  0
    2.1917   23.9086   33.6841 C   0  0  0  0  0  0  0  0  0  0  0  0
    4.1869   16.8192   38.1309 C   0  0  0  0  0  0  0  0  0  0  0  0
    3.4756   13.0567   37.7766 C   0  0  2  0  0  0  0  0  0  0  0  0
    4.2552   15.6548   39.0749 C   0  0  1  0  0  0  0  0  0  0  0  0
   -0.8988   19.1790   41.4518 C   0  0  0  0  0  0  0  0  0  0  0  0
    4.4566   22.0902   34.2994 C   0  0  0  0  0  0  0  0  0  0  0  0
    3.3960   23.6975   32.7604 C   0  0  0  0  0  0  0  0  0  0  0  0
    1.1077   20.2596   40.4216 C   0  0  0  0  0  0  0  0  0  0  0  0
    3.9341   18.1489   38.2974 N   0  0  0  0  0  0  0  0  0  0  0  0
    3.4765   24.3531   31.6489 F   0  0  0  0  0  0  0  0  0  0  0  0
    2.1006   23.0265   34.7984 C   0  0  0  0  0  0  0  0  0  0  0  0
    2.1612   19.5756   41.1647 C   0  0  0  0  0  0  0  0  0  0  0  0
    1.1594   24.9937   33.5094 C   0  0  0  0  0  0  0  0  0  0  0  0
    3.7227   12.6883   36.3664 N   0  0  0  0  0  0  0  0  0  0  0  0
    2.8940   15.1450   39.0158 C   0  0  0  0  0  0  0  0  0  0  0  0
    5.2814   14.6755   38.4534 C   0  0  0  0  0  0  0  0  0  0  0  0
   -0.2121   21.4183   42.1018 N   0  0  0  0  0  0  0  0  0  0  0  0
    3.2462   19.0734   39.0432 C   0  0  0  0  0  0  0  0  0  0  0  0
    3.1599   22.0871   35.0614 C   0  0  0  0  0  0  0  0  0  0  0  0
    2.7971   14.3543   37.7220 N   0  0  0  0  0  0  0  0  0  0  0  0
    3.2151   19.0068   40.4689 N   0  0  0  0  0  0  0  0  0  0  0  0
    2.9312   21.2414   36.0896 C   0  0  0  0  0  0  0  0  0  0  0  0
    3.3080   20.6557   37.0392 C   0  0  0  0  0  0  0  0  0  0  0  0
    1.3838   20.6903   38.9346 C   0  0  0  0  0  0  0  0  0  0  0  0
   -0.2276   20.5529   41.0300 C   0  0  2  0  0  0  0  0  0  0  0  0
    4.8008   12.8354   39.4598 H   0  0  0  0  0  0  0  0  0  0  0  0
    5.5808   12.6430   37.8390 H   0  0  0  0  0  0  0  0  0  0  0  0
    5.5007   22.8562   32.3903 H   0  0  0  0  0  0  0  0  0  0  0  0
    2.0276   19.4744   37.7535 H   0  0  0  0  0  0  0  0  0  0  0  0
    3.4226   16.5079   37.4036 H   0  0  0  0  0  0  0  0  0  0  0  0
    5.2751   16.9287   38.0134 H   0  0  0  0  0  0  0  0  0  0  0  0
    2.8774   12.3231   38.3369 H   0  0  0  0  0  0  0  0  0  0  0  0
    4.5636   15.8550   40.1116 H   0  0  0  0  0  0  0  0  0  0  0  0
   -1.1301   19.1988   42.5270 H   0  0  0  0  0  0  0  0  0  0  0  0
   -1.8270   19.0335   40.8797 H   0  0  0  0  0  0  0  0  0  0  0  0
   -0.2048   18.3520   41.2411 H   0  0  0  0  0  0  0  0  0  0  0  0
    5.3073   21.5040   34.6770 H   0  0  0  0  0  0  0  0  0  0  0  0
    4.4702   18.6608   37.5824 H   0  0  0  0  0  0  0  0  0  0  0  0
    1.2212   23.0628   35.4582 H   0  0  0  0  0  0  0  0  0  0  0  0
    2.5936   20.3101   41.8601 H   0  0  0  0  0  0  0  0  0  0  0  0
    1.6478   18.7134   41.6153 H   0  0  0  0  0  0  0  0  0  0  0  0
    0.7337   25.2558   34.4893 H   0  0  0  0  0  0  0  0  0  0  0  0
    1.6327   25.8821   33.0658 H   0  0  0  0  0  0  0  0  0  0  0  0
    0.3589   24.6349   32.8459 H   0  0  0  0  0  0  0  0  0  0  0  0
    3.6010   11.6722   36.2506 H   0  0  0  0  0  0  0  0  0  0  0  0
    3.0552   13.1855   35.7597 H   0  0  0  0  0  0  0  0  0  0  0  0
    4.6842   12.9508   36.1065 H   0  0  0  0  0  0  0  0  0  0  0  0
    2.6927   14.4926   39.8782 H   0  0  0  0  0  0  0  0  0  0  0  0
    2.1572   15.9613   39.0445 H   0  0  0  0  0  0  0  0  0  0  0  0
    6.2130   14.7445   39.0342 H   0  0  0  0  0  0  0  0  0  0  0  0
    5.3965   14.9789   37.4024 H   0  0  0  0  0  0  0  0  0  0  0  0
   -0.5380   20.9256   42.9456 H   0  0  0  0  0  0  0  0  0  0  0  0
    0.7476   21.7603   42.2530 H   0  0  0  0  0  0  0  0  0  0  0  0
   -0.8343   22.2158   41.9081 H   0  0  0  0  0  0  0  0  0  0  0  0
    3.2208   14.9119   36.9667 H   0  0  0  0  0  0  0  0  0  0  0  0
    1.7980   14.1664   37.5563 H   0  0  0  0  0  0  0  0  0  0  0  0
    2.0886   21.7753   36.5533 H   0  0  0  0  0  0  0  0  0  0  0  0
    3.3026   20.4171   35.4632 H   0  0  0  0  0  0  0  0  0  0  0  0
    4.1361   21.2815   37.4034 H   0  0  0  0  0  0  0  0  0  0  0  0
    3.3115   19.6676   36.5559 H   0  0  0  0  0  0  0  0  0  0  0  0
    0.6865   21.3308   38.3748 H   0  0  0  0  0  0  0  0  0  0  0  0
   -0.8092   21.0784   40.2583 H   0  0  0  0  0  0  0  0  0  0  0  0
  2 10  1  0
  2  9  2  0
  3 26  1  0
  3 21  1  0
  3 27  1  0
  4 16  1  0
  4 14  1  0
  5 12  1  0
  6 17  1  0
  6 23  1  0
  6  1  1  0
  7  5  1  0
  7 18  1  0
  9 22  1  0
 10  4  2  0
 11 15  1  0
 11 28  1  0
 12 21  1  0
 13 10  1  0
 14 22  2  0
 19  1  1  0
 19  7  1  0
 21 24  2  0
 22 25  1  0
 23 18  1  0
 24 15  1  0
 25 26  1  0
 27 11  2  0
 28  8  1  0
 28 20  1  0
  1 29  1  0
  1 30  1  0
  2 31  1  0
  3 32  1  1
  5 33  1  0
  5 34  1  0
  6 35  1  1
  7 36  1  1
  8 37  1  0
  8 38  1  0
  8 39  1  0
  9 40  1  0
 12 41  1  0
 14 42  1  0
 15 43  1  0
 15 44  1  0
 16 45  1  0
 16 46  1  0
 16 47  1  0
 17 48  1  0
 17 49  1  0
 17 50  1  0
 18 51  1  0
 18 52  1  0
 19 53  1  0
 19 54  1  0
 20 55  1  0
 20 56  1  0
 20 57  1  0
 23 58  1  0
 23 59  1  0
 25 60  1  0
 25 61  1  0
 26 62  1  0
 26 63  1  0
 27 64  1  0
 28 65  1  6
M  CHG  3  17   1  20   1  23   1
M  END
>  <mol_id>  (45) 
2026-09-16-6tgu-s0-n100-0045

>  <rmsd_to_ref>  (45) 


$$$$

     RDKit          3D

 52 53  0  0  0  0  0  0  0  0999 V2000
    2.1566   23.8680   32.6005 C   0  0  0  0  0  0  0  0  0  0  0  0
    2.6044   24.4484   31.3721 C   0  0  2  0  0  0  0  0  0  0  0  0
    1.9842   19.2318   40.3219 C   0  0  0  0  0  0  0  0  0  0  0  0
    4.2471   23.1468   32.5782 C   0  0  0  0  0  0  0  0  0  0  0  0
    4.4492   19.0752   41.0898 C   0  0  0  0  0  0  0  0  0  0  0  0
    3.4358   19.3123   40.0109 C   0  0  1  0  0  0  0  0  0  0  0  0
    1.7957   23.4785   29.3619 C   0  0  0  0  0  0  0  0  0  0  0  0
    3.5775   18.2011   38.9035 C   0  0  2  0  0  0  0  0  0  0  0  0
    2.5547   24.6924   30.2300 C   0  0  0  0  0  0  0  0  0  0  0  0
    4.6691   23.1769   30.1744 C   0  0  0  0  0  0  0  0  0  0  0  0
    3.3692   21.2581   34.9269 C   0  0  0  0  0  0  0  0  0  0  0  0
    1.3692   23.6838   28.3540 O   0  0  0  0  0  0  0  0  0  0  0  0
    2.1234   20.0107   37.1928 S   0  0  0  0  0  0  0  0  0  0  0  0
    1.6768   22.0040   29.7683 C   0  0  0  0  0  0  0  0  0  0  0  0
    2.9368   22.7229   33.1071 N   0  0  0  0  0  0  0  0  0  0  0  0
    2.9476   19.9430   35.6588 C   0  0  0  0  0  0  0  0  0  0  0  0
    3.9314   23.5499   31.3181 C   0  0  1  0  0  0  0  0  0  0  0  0
    1.6892   17.7547   40.0632 C   0  0  0  0  0  0  0  0  0  0  0  0
    2.7511   18.4043   37.6791 C   0  0  0  0  0  0  0  0  0  0  0  0
    2.4911   22.1034   34.3662 C   0  0  0  0  0  0  0  0  0  0  0  0
    2.9011   17.0577   39.4713 O   0  0  0  0  0  0  0  0  0  0  0  0
    1.1209   23.5283   32.4523 H   0  0  0  0  0  0  0  0  0  0  0  0
    2.2725   24.6584   33.3568 H   0  0  0  0  0  0  0  0  0  0  0  0
    2.0308   25.3687   31.5569 H   0  0  0  0  0  0  0  0  0  0  0  0
    1.7835   19.5027   41.3690 H   0  0  0  0  0  0  0  0  0  0  0  0
    1.3634   19.9200   39.7296 H   0  0  0  0  0  0  0  0  0  0  0  0
    4.6666   23.9747   33.1686 H   0  0  0  0  0  0  0  0  0  0  0  0
    5.0128   22.3576   32.6106 H   0  0  0  0  0  0  0  0  0  0  0  0
    3.9427   19.0306   42.0652 H   0  0  0  0  0  0  0  0  0  0  0  0
    4.9685   18.1238   40.9024 H   0  0  0  0  0  0  0  0  0  0  0  0
    5.1801   19.8974   41.0934 H   0  0  0  0  0  0  0  0  0  0  0  0
    3.6748   20.3550   39.7543 H   0  0  0  0  0  0  0  0  0  0  0  0
    4.6443   18.1529   38.6399 H   0  0  0  0  0  0  0  0  0  0  0  0
    1.9970   25.6303   30.0911 H   0  0  0  0  0  0  0  0  0  0  0  0
    3.5855   24.7836   29.8568 H   0  0  0  0  0  0  0  0  0  0  0  0
    5.4868   22.5027   30.4693 H   0  0  0  0  0  0  0  0  0  0  0  0
    4.0072   22.6612   29.4632 H   0  0  0  0  0  0  0  0  0  0  0  0
    5.0886   24.0759   29.6993 H   0  0  0  0  0  0  0  0  0  0  0  0
    3.9267   21.8501   35.6677 H   0  0  0  0  0  0  0  0  0  0  0  0
    3.8811   20.8575   34.0395 H   0  0  0  0  0  0  0  0  0  0  0  0
    1.5784   21.9316   30.8615 H   0  0  0  0  0  0  0  0  0  0  0  0
    0.7900   21.5623   29.2903 H   0  0  0  0  0  0  0  0  0  0  0  0
    2.5767   21.4607   29.4444 H   0  0  0  0  0  0  0  0  0  0  0  0
    2.2868   19.3966   34.9697 H   0  0  0  0  0  0  0  0  0  0  0  0
    3.9128   19.4826   35.9164 H   0  0  0  0  0  0  0  0  0  0  0  0
    4.5483   24.4549   31.4209 H   0  0  0  0  0  0  0  0  0  0  0  0
    1.4220   17.2686   41.0131 H   0  0  0  0  0  0  0  0  0  0  0  0
    0.8567   17.6818   39.3479 H   0  0  0  0  0  0  0  0  0  0  0  0
    3.3617   18.0477   36.8364 H   0  0  0  0  0  0  0  0  0  0  0  0
    1.8251   17.8723   37.9429 H   0  0  0  0  0  0  0  0  0  0  0  0
    2.2845   22.9080   35.0873 H   0  0  0  0  0  0  0  0  0  0  0  0
    1.6049   21.5021   34.1147 H   0  0  0  0  0  0  0  0  0  0  0  0
  1 15  1  0
  2  9  1  0
  2  1  1  0
  4 15  1  0
  6  3  1  0
  6  5  1  0
  7 14  1  0
  7  9  1  0
  8 19  1  0
  8 21  1  0
  8  6  1  0
 11 16  1  0
 12  7  2  0
 13 19  1  0
 15 20  1  0
 16 13  1  0
 17 10  1  0
 17  2  1  0
 17  4  1  0
 18  3  1  0
 20 11  1  0
 21 18  1  0
  1 22  1  0
  1 23  1  0
  2 24  1  1
  3 25  1  0
  3 26  1  0
  4 27  1  0
  4 28  1  0
  5 29  1  0
  5 30  1  0
  5 31  1  0
  6 32  1  6
  8 33  1  6
  9 34  1  0
  9 35  1  0
 10 36  1  0
 10 37  1  0
 10 38  1  0
 11 39  1  0
 11 40  1  0
 14 41  1  0
 14 42  1  0
 14 43  1  0
 16 44  1  0
 16 45  1  0
 17 46  1  1
 18 47  1  0
 18 48  1  0
 19 49  1  0
 19 50  1  0
 20 51  1  0
 20 52  1  0
M  END
>  <mol_id>  (46) 
2026-09-16-6tgu-s0-n100-0046

>  <rmsd_to_ref>  (46) 


$$$$

     RDKit          3D

 39 40  0  0  0  0  0  0  0  0999 V2000
    3.6400   17.3572   37.4480 C   0  0  0  0  0  0  0  0  0  0  0  0
    2.6081   20.9221   39.4929 S   0  0  0  0  0  0  0  0  0  0  0  0
    3.7473   25.1288   31.6507 C   0  0  0  0  0  0  0  0  0  0  0  0
    1.4748   26.0391   30.7896 C   0  0  0  0  0  0  0  0  0  0  0  0
    3.2637   18.4829   38.3605 C   0  0  0  0  0  0  0  0  0  0  0  0
    4.3915   24.0760   32.3125 C   0  0  0  0  0  0  0  0  0  0  0  0
    1.1436   26.2901   28.2556 C   0  0  0  0  0  0  0  0  0  0  0  0
    2.3942   23.6573   33.8580 C   0  0  0  0  0  0  0  0  0  0  0  0
    3.7762   23.2729   33.3871 C   0  0  0  0  0  0  0  0  0  0  0  0
    2.0502   22.9255   35.1203 C   0  0  0  0  0  0  0  0  0  0  0  0
    3.0272   21.5697   35.7201 C   0  0  0  0  0  0  0  0  0  0  0  0
    2.7215   16.8030   40.4970 O   0  0  0  0  0  0  0  0  0  0  0  0
    2.2643   25.2930   31.8637 C   0  0  0  0  0  0  0  0  0  0  0  0
    2.1219   25.7959   29.3061 C   0  0  0  0  0  0  0  0  0  0  0  0
    2.8533   18.1948   39.6988 C   0  0  0  0  0  0  0  0  0  0  0  0
    2.0046   19.4642   42.1904 Cl  0  0  0  0  0  0  0  0  0  0  0  0
    1.6166   24.5520   33.0067 C   0  0  0  0  0  0  0  0  0  0  0  0
    3.0515   20.0297   38.0887 C   0  0  0  0  0  0  0  0  0  0  0  0
    3.0988   20.8029   36.8253 C   0  0  0  0  0  0  0  0  0  0  0  0
    2.4607   19.4308   40.4465 C   0  0  1  0  0  0  0  0  0  0  0  0
    4.1603   16.5772   38.0233 H   0  0  0  0  0  0  0  0  0  0  0  0
    2.7319   16.9338   36.9942 H   0  0  0  0  0  0  0  0  0  0  0  0
    4.3043   17.7336   36.6561 H   0  0  0  0  0  0  0  0  0  0  0  0
    4.3059   25.8140   30.9963 H   0  0  0  0  0  0  0  0  0  0  0  0
    0.4357   25.6781   30.7918 H   0  0  0  0  0  0  0  0  0  0  0  0
    1.5110   27.1154   31.0140 H   0  0  0  0  0  0  0  0  0  0  0  0
    5.4213   23.8323   32.0125 H   0  0  0  0  0  0  0  0  0  0  0  0
    0.3692   26.9059   28.7364 H   0  0  0  0  0  0  0  0  0  0  0  0
    1.6809   26.8937   27.5093 H   0  0  0  0  0  0  0  0  0  0  0  0
    0.6718   25.4289   27.7598 H   0  0  0  0  0  0  0  0  0  0  0  0
    4.3088   22.4194   33.8319 H   0  0  0  0  0  0  0  0  0  0  0  0
    2.0456   23.6794   35.9214 H   0  0  0  0  0  0  0  0  0  0  0  0
    1.1078   22.4276   34.8482 H   0  0  0  0  0  0  0  0  0  0  0  0
    3.7871   21.2725   34.9823 H   0  0  0  0  0  0  0  0  0  0  0  0
    2.4145   16.7993   41.4381 H   0  0  0  0  0  0  0  0  0  0  0  0
    2.3119   24.7226   29.1577 H   0  0  0  0  0  0  0  0  0  0  0  0
    3.0711   26.3449   29.2190 H   0  0  0  0  0  0  0  0  0  0  0  0
    0.5425   24.6879   33.2015 H   0  0  0  0  0  0  0  0  0  0  0  0
    1.4238   19.3114   40.0994 H   0  0  0  0  0  0  0  0  0  0  0  0
  1  5  1  0
  2 20  1  0
  3  6  1  0
  4 13  1  0
  5 15  2  0
  6  9  2  0
  7 14  1  0
  8 10  1  0
  9  8  1  0
 10 11  1  0
 11 19  2  0
 13  3  2  0
 13 17  1  0
 14  4  1  0
 15 20  1  0
 15 12  1  0
 17  8  2  0
 18  5  1  0
 18  2  1  0
 19 18  2  0
 20 16  1  0
  1 21  1  0
  1 22  1  0
  1 23  1  0
  3 24  1  0
  4 25  1  0
  4 26  1  0
  6 27  1  0
  7 28  1  0
  7 29  1  0
  7 30  1  0
  9 31  1  0
 10 32  1  0
 10 33  1  0
 11 34  1  0
 12 35  1  0
 14 36  1  0
 14 37  1  0
 17 38  1  0
 20 39  1  6
M  END
>  <mol_id>  (47) 
2026-09-16-6tgu-s0-n100-0047

>  <rmsd_to_ref>  (47) 


$$$$

     RDKit          3D

 67 69  0  0  0  0  0  0  0  0999 V2000
    1.4884   25.6347   32.4510 C   0  0  2  0  0  0  0  0  0  0  0  0
    2.0120   22.2671   35.5577 N   0  0  0  0  0  0  0  0  0  0  0  0
    3.1538   23.1575   33.9299 O   0  0  0  0  0  0  0  0  0  0  0  0
   -0.0779   16.7881   42.5381 C   0  0  0  0  0  0  0  0  0  0  0  0
    0.1244   20.2924   41.2222 C   0  0  0  0  0  0  0  0  0  0  0  0
    2.5175   18.8553   38.9072 C   0  0  0  0  0  0  0  0  0  0  0  0
    1.4550   24.3407   34.5971 C   0  0  0  0  0  0  0  0  0  0  0  0
    2.1599   20.4546   37.1807 C   0  0  0  0  0  0  0  0  0  0  0  0
    0.5912   15.6140   42.2880 C   0  0  0  0  0  0  0  0  0  0  0  0
    2.4916   25.1791   31.9298 C   0  0  0  0  0  0  0  0  0  0  0  0
   -0.3714   19.1683   41.9208 C   0  0  0  0  0  0  0  0  0  0  0  0
    4.4438   14.0706   37.4151 C   0  0  0  0  0  0  0  0  0  0  0  0
    3.3166   14.4047   40.2969 N   0  0  0  0  0  0  0  0  0  0  0  0
    1.1262   20.2012   40.2842 C   0  0  0  0  0  0  0  0  0  0  0  0
    1.9849   13.1780   41.5608 O   0  0  0  0  0  0  0  0  0  0  0  0
    0.8140   25.4298   33.7032 C   0  0  2  0  0  0  0  0  0  0  0  0
    1.2138   17.7736   40.7194 C   0  0  0  0  0  0  0  0  0  0  0  0
    1.6136   15.5152   41.3236 C   0  0  0  0  0  0  0  0  0  0  0  0
    0.2967   26.2399   32.6084 C   0  0  0  0  0  0  0  0  0  0  0  0
    1.9170   16.5845   40.5339 C   0  0  0  0  0  0  0  0  0  0  0  0
    2.7423   21.2687   36.0829 C   0  0  0  0  0  0  0  0  0  0  0  0
    0.1930   17.8790   41.6997 C   0  0  0  0  0  0  0  0  0  0  0  0
    2.2404   25.8123   30.5449 C   0  0  0  0  0  0  0  0  0  0  0  0
    3.7753   13.3149   39.6233 O   0  0  0  0  0  0  0  0  0  0  0  0
    3.1903   19.7710   37.8795 C   0  0  0  0  0  0  0  0  0  0  0  0
    2.3466   14.3082   41.0756 C   0  0  0  0  0  0  0  0  0  0  0  0
   -0.9770   16.6192   43.8524 C   0  0  0  0  0  0  0  0  0  0  0  0
    3.9509   21.0425   35.7974 N   0  0  0  0  0  0  0  0  0  0  0  0
    1.6293   18.9462   39.9381 C   0  0  0  0  0  0  0  0  0  0  0  0
    4.8805   13.4632   38.6957 C   0  0  0  0  0  0  0  0  0  0  0  0
    2.2971   23.2200   34.6449 C   0  0  0  0  0  0  0  0  0  0  0  0
    3.5372   25.3125   29.8198 C   0  0  0  0  0  0  0  0  0  0  0  0
    1.9968   26.6009   32.5852 H   0  0  0  0  0  0  0  0  0  0  0  0
    1.0496   22.3144   35.9216 H   0  0  0  0  0  0  0  0  0  0  0  0
   -0.3086   21.2805   41.4374 H   0  0  0  0  0  0  0  0  0  0  0  0
    3.3872   18.3979   39.4017 H   0  0  0  0  0  0  0  0  0  0  0  0
    1.7472   18.5242   38.1952 H   0  0  0  0  0  0  0  0  0  0  0  0
    0.5465   23.9085   35.0421 H   0  0  0  0  0  0  0  0  0  0  0  0
    2.3165   24.9985   34.7843 H   0  0  0  0  0  0  0  0  0  0  0  0
    1.4586   19.7207   36.7570 H   0  0  0  0  0  0  0  0  0  0  0  0
    1.6294   21.1182   37.8795 H   0  0  0  0  0  0  0  0  0  0  0  0
    0.3179   14.7169   42.8628 H   0  0  0  0  0  0  0  0  0  0  0  0
    3.4182   25.5380   32.4016 H   0  0  0  0  0  0  0  0  0  0  0  0
    2.6323   24.0889   31.9699 H   0  0  0  0  0  0  0  0  0  0  0  0
   -1.1965   19.2894   42.6382 H   0  0  0  0  0  0  0  0  0  0  0  0
    3.5974   14.7483   37.6004 H   0  0  0  0  0  0  0  0  0  0  0  0
    5.2776   14.6372   36.9749 H   0  0  0  0  0  0  0  0  0  0  0  0
    4.1326   13.2767   36.7201 H   0  0  0  0  0  0  0  0  0  0  0  0
    3.7743   15.3176   40.1627 H   0  0  0  0  0  0  0  0  0  0  0  0
    1.5275   21.1095   39.8110 H   0  0  0  0  0  0  0  0  0  0  0  0
    0.3179   25.4345   34.6850 H   0  0  0  0  0  0  0  0  0  0  0  0
    0.2500   27.3338   32.7138 H   0  0  0  0  0  0  0  0  0  0  0  0
   -0.6425   26.2488   32.0358 H   0  0  0  0  0  0  0  0  0  0  0  0
    2.7009   16.5101   39.7659 H   0  0  0  0  0  0  0  0  0  0  0  0
    1.3260   25.4247   30.0720 H   0  0  0  0  0  0  0  0  0  0  0  0
    2.0807   26.9007   30.5400 H   0  0  0  0  0  0  0  0  0  0  0  0
    3.7879   19.1720   37.1766 H   0  0  0  0  0  0  0  0  0  0  0  0
    3.8623   20.4857   38.3773 H   0  0  0  0  0  0  0  0  0  0  0  0
   -0.3288   16.6070   44.7411 H   0  0  0  0  0  0  0  0  0  0  0  0
   -1.6824   17.4601   43.9246 H   0  0  0  0  0  0  0  0  0  0  0  0
   -1.5374   15.6744   43.7944 H   0  0  0  0  0  0  0  0  0  0  0  0
    4.4467   20.2565   36.2417 H   0  0  0  0  0  0  0  0  0  0  0  0
    5.3102   12.4714   38.4917 H   0  0  0  0  0  0  0  0  0  0  0  0
    5.6262   14.1291   39.1544 H   0  0  0  0  0  0  0  0  0  0  0  0
    4.2303   24.8869   30.5603 H   0  0  0  0  0  0  0  0  0  0  0  0
    3.2706   24.5417   29.0816 H   0  0  0  0  0  0  0  0  0  0  0  0
    4.0206   26.1582   29.3087 H   0  0  0  0  0  0  0  0  0  0  0  0
  1 10  1  0
  1 19  1  0
  1 16  1  0
  2 21  1  0
  3 31  2  0
  4 27  1  0
  5 11  1  0
  6 29  1  0
  7 31  1  0
  8 25  1  0
  9  4  2  0
 12 30  1  0
 13 26  1  0
 14  5  2  0
 16  7  1  0
 17 22  1  0
 18  9  1  0
 19 16  1  0
 20 17  1  0
 20 18  2  0
 21  8  1  0
 22 11  2  0
 22  4  1  0
 23 10  1  0
 24 13  1  0
 25  6  1  0
 26 18  1  0
 26 15  2  0
 28 21  2  3
 29 14  1  0
 29 17  2  0
 30 24  1  0
 31  2  1  0
 32 23  1  0
  1 33  1  1
  2 34  1  0
  5 35  1  0
  6 36  1  0
  6 37  1  0
  7 38  1  0
  7 39  1  0
  8 40  1  0
  8 41  1  0
  9 42  1  0
 10 43  1  0
 10 44  1  0
 11 45  1  0
 12 46  1  0
 12 47  1  0
 12 48  1  0
 13 49  1  0
 14 50  1  0
 16 51  1  1
 19 52  1  0
 19 53  1  0
 20 54  1  0
 23 55  1  0
 23 56  1  0
 25 57  1  0
 25 58  1  0
 27 59  1  0
 27 60  1  0
 27 61  1  0
 28 62  1  0
 30 63  1  0
 30 64  1  0
 32 65  1  0
 32 66  1  0
 32 67  1  0
M  END
>  <mol_id>  (48) 
2026-09-16-6tgu-s0-n100-0048

>  <rmsd_to_ref>  (48) 


$$$$

     RDKit          3D

 69 70  0  0  0  0  0  0  0  0999 V2000
    3.4388   17.0940   36.8159 C   0  0  0  0  0  0  0  0  0  0  0  0
    1.8576   16.3281   41.1818 C   0  0  0  0  0  0  0  0  0  0  0  0
    3.8419   17.9643   35.8727 N   0  0  0  0  0  0  0  0  0  0  0  0
    4.7408   14.8764   36.4005 C   0  0  0  0  0  0  0  0  0  0  0  0
    1.5833   17.6504   41.2483 C   0  0  0  0  0  0  0  0  0  0  0  0
    1.4609   19.8349   40.1298 C   0  0  0  0  0  0  0  0  0  0  0  0
    4.1452   21.9369   33.8608 C   0  0  0  0  0  0  0  0  0  0  0  0
    2.9963   17.8591   38.0028 C   0  0  0  0  0  0  0  0  0  0  0  0
    4.6178   13.5877   36.4581 O   0  0  0  0  0  0  0  0  0  0  0  0
    3.8541   26.4352   30.7419 C   0  0  0  0  0  0  0  0  0  0  0  0
    2.5903   17.5362   39.1859 C   0  0  0  0  0  0  0  0  0  0  0  0
    0.2105   27.7697   31.3261 C   0  0  0  0  0  0  0  0  0  0  0  0
    3.9762   24.1695   32.0268 C   0  0  0  0  0  0  0  0  0  0  0  0
    0.5966   28.8596   32.2145 C   0  0  2  0  0  0  0  0  0  0  0  0
    2.0315   18.4287   40.1671 C   0  0  0  0  0  0  0  0  0  0  0  0
    5.8265   15.4900   36.1184 O   0  0  0  0  0  0  0  0  0  0  0  0
    3.0908   19.1443   37.6928 O   0  0  0  0  0  0  0  0  0  0  0  0
    3.4998   19.2083   36.4154 C   0  0  0  0  0  0  0  0  0  0  0  0
    2.6791   15.9757   39.7691 S   0  0  0  0  0  0  0  0  0  0  0  0
    1.7200   23.8262   33.5535 C   0  0  0  0  0  0  0  0  0  0  0  0
    3.2010   22.1789   32.8879 C   0  0  0  0  0  0  0  0  0  0  0  0
    3.4010   15.6281   36.5888 C   0  0  0  0  0  0  0  0  0  0  0  0
    1.4966   27.2666   31.2126 C   0  0  1  0  0  0  0  0  0  0  0  0
    3.3704   20.3126   35.8804 O   0  0  0  0  0  0  0  0  0  0  0  0
    1.8923   29.5180   31.7876 C   0  0  0  0  0  0  0  0  0  0  0  0
    2.4815   26.8086   30.1820 C   0  0  0  0  0  0  0  0  0  0  0  0
    1.6088   15.2585   42.1746 C   0  0  0  0  0  0  0  0  0  0  0  0
    3.0464   23.6820   32.9978 C   0  0  0  0  0  0  0  0  0  0  0  0
    2.2500   24.6253   33.8189 C   0  0  0  0  0  0  0  0  0  0  0  0
    2.0844   28.2491   32.2114 C   0  0  1  0  0  0  0  0  0  0  0  0
    4.1542   25.4364   31.5390 C   0  0  0  0  0  0  0  0  0  0  0  0
    4.2936   17.7636   34.9690 H   0  0  0  0  0  0  0  0  0  0  0  0
    1.0414   18.0910   42.0983 H   0  0  0  0  0  0  0  0  0  0  0  0
    1.3315   20.2055   41.1574 H   0  0  0  0  0  0  0  0  0  0  0  0
    2.1510   20.4964   39.5856 H   0  0  0  0  0  0  0  0  0  0  0  0
    0.4866   19.8219   39.6193 H   0  0  0  0  0  0  0  0  0  0  0  0
    3.6776   22.0160   34.8534 H   0  0  0  0  0  0  0  0  0  0  0  0
    4.5566   20.9253   33.7289 H   0  0  0  0  0  0  0  0  0  0  0  0
    4.9555   22.6760   33.7774 H   0  0  0  0  0  0  0  0  0  0  0  0
    4.1893   27.3333   31.2814 H   0  0  0  0  0  0  0  0  0  0  0  0
    4.3148   26.0564   29.8176 H   0  0  0  0  0  0  0  0  0  0  0  0
   -0.4907   27.0613   31.7912 H   0  0  0  0  0  0  0  0  0  0  0  0
   -0.3297   28.0223   30.4018 H   0  0  0  0  0  0  0  0  0  0  0  0
    4.9602   23.8988   32.4373 H   0  0  0  0  0  0  0  0  0  0  0  0
    3.4972   23.7365   31.1362 H   0  0  0  0  0  0  0  0  0  0  0  0
   -0.2852   29.2625   32.7342 H   0  0  0  0  0  0  0  0  0  0  0  0
    1.4164   23.1256   34.3453 H   0  0  0  0  0  0  0  0  0  0  0  0
    0.7424   23.7707   33.0523 H   0  0  0  0  0  0  0  0  0  0  0  0
    2.2306   22.3869   33.3624 H   0  0  0  0  0  0  0  0  0  0  0  0
    3.5085   23.0470   32.2864 H   0  0  0  0  0  0  0  0  0  0  0  0
    3.1096   21.2963   32.2379 H   0  0  0  0  0  0  0  0  0  0  0  0
    2.8011   15.4550   35.6832 H   0  0  0  0  0  0  0  0  0  0  0  0
    2.9921   15.2205   37.5252 H   0  0  0  0  0  0  0  0  0  0  0  0
    1.3175   26.1842   31.1341 H   0  0  0  0  0  0  0  0  0  0  0  0
    2.0411   29.7453   30.7217 H   0  0  0  0  0  0  0  0  0  0  0  0
    2.3616   30.4655   32.0909 H   0  0  0  0  0  0  0  0  0  0  0  0
    2.0644   25.9253   29.6762 H   0  0  0  0  0  0  0  0  0  0  0  0
    2.6407   27.6575   29.5008 H   0  0  0  0  0  0  0  0  0  0  0  0
    1.7627   15.6563   43.1885 H   0  0  0  0  0  0  0  0  0  0  0  0
    0.5739   14.8991   42.0749 H   0  0  0  0  0  0  0  0  0  0  0  0
    2.3049   14.4252   41.9981 H   0  0  0  0  0  0  0  0  0  0  0  0
    3.0177   22.6195   32.7146 H   0  0  0  0  0  0  0  0  0  0  0  0
    3.4418   24.3897   33.7413 H   0  0  0  0  0  0  0  0  0  0  0  0
    2.3359   24.6608   34.9149 H   0  0  0  0  0  0  0  0  0  0  0  0
    3.2542   24.5635   33.3742 H   0  0  0  0  0  0  0  0  0  0  0  0
    1.7458   25.5351   33.4610 H   0  0  0  0  0  0  0  0  0  0  0  0
    2.9387   27.8544   32.7807 H   0  0  0  0  0  0  0  0  0  0  0  0
    5.2158   25.3428   31.2667 H   0  0  0  0  0  0  0  0  0  0  0  0
    3.3443   25.7695   32.2048 H   0  0  0  0  0  0  0  0  0  0  0  0
  1  8  2  0
  2  5  2  0
  2 27  1  0
  3 18  1  0
  3  1  1  0
  4  9  1  0
  4 22  1  0
  6 15  1  0
  8 11  1  0
 10 31  1  0
 11 19  1  0
 11 15  2  0
 13 28  1  0
 14 12  1  0
 14 30  1  0
 15  5  1  0
 16  4  2  0
 17  8  1  0
 18 17  1  0
 19  2  1  0
 20 29  1  0
 21  7  1  0
 22  1  1  0
 23 26  1  0
 23 12  1  0
 23 30  1  0
 24 18  2  0
 25 14  1  0
 26 10  1  0
 28 20  1  0
 30 25  1  0
 31 13  1  0
  3 32  1  0
  5 33  1  0
  6 34  1  0
  6 35  1  0
  6 36  1  0
  7 37  1  0
  7 38  1  0
  7 39  1  0
 10 40  1  0
 10 41  1  0
 12 42  1  0
 12 43  1  0
 13 44  1  0
 13 45  1  0
 14 46  1  1
 20 47  1  0
 20 48  1  0
 21 49  1  0
 21 50  1  0
 21 51  1  0
 22 52  1  0
 22 53  1  0
 23 54  1  1
 25 55  1  0
 25 56  1  0
 26 57  1  0
 26 58  1  0
 27 59  1  0
 27 60  1  0
 27 61  1  0
 28 62  1  0
 28 63  1  0
 29 64  1  0
 29 65  1  0
 29 66  1  0
 30 67  1  1
 31 68  1  0
 31 69  1  0
M  CHG  1   9  -1
M  END
>  <mol_id>  (49) 
2026-09-16-6tgu-s0-n100-0049

>  <rmsd_to_ref>  (49) 


$$$$

     RDKit          3D

 26 26  0  0  0  0  0  0  0  0999 V2000
    3.6361   16.6720   38.9426 C   0  0  0  0  0  0  0  0  0  0  0  0
    1.6612   22.4188   35.0809 O   0  0  0  0  0  0  0  0  0  0  0  0
    3.0638   22.1656   34.7787 S   0  0  0  0  0  6  0  0  0  0  0  0
    3.9265   18.1480   38.9882 C   0  0  2  0  0  0  0  0  0  0  0  0
    3.2787   18.8864   40.1331 C   0  0  0  0  0  0  0  0  0  0  0  0
    3.2798   20.8144   35.8668 C   0  0  0  0  0  0  0  0  0  0  0  0
    3.3418   21.1622   37.2644 C   0  0  0  0  0  0  0  0  0  0  0  0
    3.4528   22.2695   37.7295 O   0  0  0  0  0  0  0  0  0  0  0  0
    3.4735   18.8422   37.7085 C   0  0  0  0  0  0  0  0  0  0  0  0
    4.3423   23.4970   35.1740 S   0  0  0  0  0  0  0  0  0  0  0  0
    3.1373   20.2668   39.5955 C   0  0  0  0  0  0  0  0  0  0  0  0
    3.2583   22.2874   33.2817 O   0  0  0  0  0  0  0  0  0  0  0  0
    3.2937   20.2082   38.1137 N   0  0  0  0  0  0  0  0  0  0  0  0
    3.9368   16.2095   39.8943 H   0  0  0  0  0  0  0  0  0  0  0  0
    2.5591   16.5150   38.7827 H   0  0  0  0  0  0  0  0  0  0  0  0
    4.2000   16.2126   38.1174 H   0  0  0  0  0  0  0  0  0  0  0  0
    5.0178   18.1907   39.1194 H   0  0  0  0  0  0  0  0  0  0  0  0
    2.2975   18.4542   40.3790 H   0  0  0  0  0  0  0  0  0  0  0  0
    3.8590   18.8392   41.0664 H   0  0  0  0  0  0  0  0  0  0  0  0
    2.4362   20.1230   35.7242 H   0  0  0  0  0  0  0  0  0  0  0  0
    4.2549   20.3708   35.6167 H   0  0  0  0  0  0  0  0  0  0  0  0
    2.5293   18.4134   37.3416 H   0  0  0  0  0  0  0  0  0  0  0  0
    4.1924   18.7312   36.8833 H   0  0  0  0  0  0  0  0  0  0  0  0
    4.8028   23.3227   36.4524 H   0  0  0  0  0  0  0  0  0  0  0  0
    2.1441   20.6655   39.8496 H   0  0  0  0  0  0  0  0  0  0  0  0
    3.9027   20.9249   40.0326 H   0  0  0  0  0  0  0  0  0  0  0  0
  2  3  2  0
  3 10  1  0
  3  6  1  0
  4  1  1  0
  4  5  1  0
  6  7  1  0
  7  8  2  0
  7 13  1  0
  9 13  1  0
  9  4  1  0
 11  5  1  0
 12  3  2  0
 13 11  1  0
  1 14  1  0
  1 15  1  0
  1 16  1  0
  4 17  1  1
  5 18  1  0
  5 19  1  0
  6 20  1  0
  6 21  1  0
  9 22  1  0
  9 23  1  0
 10 24  1  0
 11 25  1  0
 11 26  1  0
M  END
>  <mol_id>  (50) 
2026-09-16-6tgu-s0-n100-0050

>  <rmsd_to_ref>  (50) 


$$$$

     RDKit          3D

 44 46  0  0  0  0  0  0  0  0999 V2000
    3.1974   24.7693   31.2814 C   0  0  1  0  0  0  0  0  0  0  0  0
    2.2460   14.8635   40.4940 C   0  0  0  0  0  0  0  0  0  0  0  0
    2.0117   25.0360   32.6807 S   0  0  0  0  0  0  0  0  0  0  0  0
    1.8451   14.0394   41.3359 O   0  0  0  0  0  0  0  0  0  0  0  0
    4.1861   23.5229   31.9891 C   0  0  1  0  0  0  0  0  0  0  0  0
    3.4032   16.9293   39.5299 O   0  0  0  0  0  0  0  0  0  0  0  0
    3.8025   19.6072   39.5841 S   0  0  0  0  0  6  0  0  0  0  0  0
    2.8020   25.6737   30.0863 C   0  0  0  0  0  0  0  0  0  0  0  0
    3.4618   23.6683   33.0606 C   0  0  0  0  0  0  0  0  0  0  0  0
    3.6751   20.0732   38.2168 N   0  0  0  0  0  0  0  0  0  0  0  0
    2.2351   18.1960   41.0681 O   0  0  0  0  0  0  0  0  0  0  0  0
    5.0226   19.2512   39.9923 O   0  0  0  0  0  0  0  0  0  0  0  0
    1.9628   16.9946   41.3738 C   0  0  0  0  0  0  0  0  0  0  0  0
    2.3872   14.3412   39.1545 O   0  0  0  0  0  0  0  0  0  0  0  0
    3.2126   22.8011   35.8717 C   0  0  0  0  0  0  0  0  0  0  0  0
    3.0928   21.1811   37.7977 C   0  0  0  0  0  0  0  0  0  0  0  0
    4.4081   22.3866   34.0804 C   0  0  0  0  0  0  0  0  0  0  0  0
    5.6687   23.7851   31.9205 C   0  0  0  0  0  0  0  0  0  0  0  0
    4.7329   24.5204   31.0416 C   0  0  2  0  0  0  0  0  0  0  0  0
    2.4721   16.1162   40.5821 C   0  0  2  0  0  0  0  0  0  0  0  0
    3.4474   17.9416   39.9094 C   0  0  1  0  0  0  0  0  0  0  0  0
    3.1404   20.4964   40.4188 O   0  0  0  0  0  0  0  0  0  0  0  0
    3.3374   21.3953   36.6122 C   0  0  0  0  0  0  0  0  0  0  0  0
    3.3268   23.0273   34.3715 C   0  0  0  0  0  0  0  0  0  0  0  0
    2.6414   24.7745   33.8690 H   0  0  0  0  0  0  0  0  0  0  0  0
    2.4715   26.6535   30.4616 H   0  0  0  0  0  0  0  0  0  0  0  0
    3.6708   25.8084   29.4253 H   0  0  0  0  0  0  0  0  0  0  0  0
    1.9832   25.2012   29.5241 H   0  0  0  0  0  0  0  0  0  0  0  0
    3.6669   24.7132   33.3361 H   0  0  0  0  0  0  0  0  0  0  0  0
    2.5986   23.1365   32.6338 H   0  0  0  0  0  0  0  0  0  0  0  0
    4.6424   20.1363   37.8689 H   0  0  0  0  0  0  0  0  0  0  0  0
    2.3412   16.8035   42.3888 H   0  0  0  0  0  0  0  0  0  0  0  0
    0.8704   16.8908   41.2971 H   0  0  0  0  0  0  0  0  0  0  0  0
    3.0277   23.6848   36.5000 H   0  0  0  0  0  0  0  0  0  0  0  0
    2.0048   21.0846   37.9270 H   0  0  0  0  0  0  0  0  0  0  0  0
    3.4829   22.0225   38.3892 H   0  0  0  0  0  0  0  0  0  0  0  0
    4.8306   21.6667   34.7969 H   0  0  0  0  0  0  0  0  0  0  0  0
    4.9075   22.5603   33.1158 H   0  0  0  0  0  0  0  0  0  0  0  0
    6.1754   24.3067   32.7459 H   0  0  0  0  0  0  0  0  0  0  0  0
    6.5649   23.1667   31.7640 H   0  0  0  0  0  0  0  0  0  0  0  0
    5.1546   25.1196   30.2211 H   0  0  0  0  0  0  0  0  0  0  0  0
    1.5894   16.3194   39.9581 H   0  0  0  0  0  0  0  0  0  0  0  0
    4.4644   17.6184   39.6423 H   0  0  0  0  0  0  0  0  0  0  0  0
    3.6727   20.5394   36.0079 H   0  0  0  0  0  0  0  0  0  0  0  0
  1  8  1  0
  1  5  1  0
  1  3  1  1
  2  4  1  0
  5 18  1  0
  5  9  1  6
  6 21  1  0
  6 20  1  0
  7 12  2  0
  7 22  2  0
  9 24  1  0
 10  7  1  0
 11 13  1  0
 14  2  2  0
 15 23  2  3
 16 10  1  0
 17 24  2  3
 19  1  1  0
 19  5  1  0
 19 18  1  0
 20  2  1  0
 20 13  1  0
 21  7  1  0
 21 11  1  0
 23 16  1  0
 24 15  1  0
  3 25  1  0
  8 26  1  0
  8 27  1  0
  8 28  1  0
  9 29  1  0
  9 30  1  0
 10 31  1  0
 13 32  1  0
 13 33  1  0
 15 34  1  0
 16 35  1  0
 16 36  1  0
 17 37  1  0
 17 38  1  0
 18 39  1  0
 18 40  1  0
 19 41  1  6
 20 42  1  1
 21 43  1  1
 23 44  1  0
M  CHG  1   4  -1
M  END
>  <mol_id>  (51) 
2026-09-16-6tgu-s0-n100-0051

>  <rmsd_to_ref>  (51) 


$$$$

     RDKit          3D

 41 41  0  0  0  0  0  0  0  0999 V2000
    2.5871   17.8380   39.1112 C   0  0  0  0  0  0  0  0  0  0  0  0
    3.0738   20.4950   36.1735 C   0  0  0  0  0  0  0  0  0  0  0  0
    1.0674   19.5267   40.2079 C   0  0  0  0  0  0  0  0  0  0  0  0
    1.8598   23.2215   34.0161 C   0  0  0  0  0  0  0  0  0  0  0  0
    2.8489   24.1598   33.3531 C   0  0  1  0  0  0  0  0  0  0  0  0
    2.3875   19.6204   37.2617 C   0  0  1  0  0  0  0  0  0  0  0  0
    1.1157   18.1856   39.5290 C   0  0  2  0  0  0  0  0  0  0  0  0
    4.5531   24.0072   33.5155 S   0  0  0  0  0  0  0  0  0  0  0  0
    2.3391   24.5364   31.7005 S   0  0  0  0  0  0  0  0  0  0  0  0
    2.3165   21.3971   35.5290 N   0  0  0  0  0  0  0  0  0  0  0  0
    0.6303   17.1354   40.3419 O   0  0  0  0  0  0  0  0  0  0  0  0
    4.8891   24.6025   31.9568 C   0  0  0  0  0  0  0  0  0  0  0  0
    3.7138   26.0982   30.0068 C   0  0  0  0  0  0  0  0  0  0  0  0
    3.3569   18.7723   38.2205 C   0  0  0  0  0  0  0  0  0  0  0  0
    3.8349   25.1636   31.1794 C   0  0  1  0  0  0  0  0  0  0  0  0
    4.1979   20.3000   35.7901 O   0  0  0  0  0  0  0  0  0  0  0  0
    1.7269   20.5717   38.1808 O   0  0  0  0  0  0  0  0  0  0  0  0
    2.8830   22.2216   34.5394 C   0  0  0  0  0  0  0  0  0  0  0  0
    3.1658   17.7373   40.0413 H   0  0  0  0  0  0  0  0  0  0  0  0
    2.4673   16.9383   38.4898 H   0  0  0  0  0  0  0  0  0  0  0  0
    1.1347   19.3890   41.2971 H   0  0  0  0  0  0  0  0  0  0  0  0
    1.9112   20.1427   39.8634 H   0  0  0  0  0  0  0  0  0  0  0  0
    0.1210   20.0295   39.9595 H   0  0  0  0  0  0  0  0  0  0  0  0
    1.1592   22.7710   33.2976 H   0  0  0  0  0  0  0  0  0  0  0  0
    1.1783   23.6649   34.7569 H   0  0  0  0  0  0  0  0  0  0  0  0
    2.7612   25.0111   34.0442 H   0  0  0  0  0  0  0  0  0  0  0  0
    1.7564   18.9054   36.7136 H   0  0  0  0  0  0  0  0  0  0  0  0
    0.4631   18.2696   38.6475 H   0  0  0  0  0  0  0  0  0  0  0  0
    1.3166   21.4859   35.7598 H   0  0  0  0  0  0  0  0  0  0  0  0
    0.8888   17.3003   41.2833 H   0  0  0  0  0  0  0  0  0  0  0  0
    5.6542   25.3846   32.0707 H   0  0  0  0  0  0  0  0  0  0  0  0
    5.1771   23.7033   31.3924 H   0  0  0  0  0  0  0  0  0  0  0  0
    3.6691   27.1362   30.3683 H   0  0  0  0  0  0  0  0  0  0  0  0
    4.5870   25.9763   29.3490 H   0  0  0  0  0  0  0  0  0  0  0  0
    2.7967   25.8656   29.4457 H   0  0  0  0  0  0  0  0  0  0  0  0
    4.0461   18.1830   37.5980 H   0  0  0  0  0  0  0  0  0  0  0  0
    3.9059   19.4784   38.8607 H   0  0  0  0  0  0  0  0  0  0  0  0
    3.7188   26.0131   31.8685 H   0  0  0  0  0  0  0  0  0  0  0  0
    1.8691   20.2798   39.1161 H   0  0  0  0  0  0  0  0  0  0  0  0
    3.2339   21.5952   33.7060 H   0  0  0  0  0  0  0  0  0  0  0  0
    3.7233   22.7765   34.9821 H   0  0  0  0  0  0  0  0  0  0  0  0
  1  7  1  0
  2  6  1  0
  4 18  1  0
  5  8  1  0
  5  4  1  0
  6 17  1  0
  6 14  1  0
  7  3  1  0
  7 11  1  0
  9  5  1  0
 10  2  1  0
 12  8  1  0
 14  1  1  0
 15 13  1  0
 15  9  1  0
 15 12  1  0
 16  2  2  0
 18 10  1  0
  1 19  1  0
  1 20  1  0
  3 21  1  0
  3 22  1  0
  3 23  1  0
  4 24  1  0
  4 25  1  0
  5 26  1  1
  6 27  1  6
  7 28  1  6
 10 29  1  0
 11 30  1  0
 12 31  1  0
 12 32  1  0
 13 33  1  0
 13 34  1  0
 13 35  1  0
 14 36  1  0
 14 37  1  0
 15 38  1  1
 17 39  1  0
 18 40  1  0
 18 41  1  0
M  END
>  <mol_id>  (52) 
2026-09-16-6tgu-s0-n100-0052

>  <rmsd_to_ref>  (52) 


$$$$

     RDKit          3D

 39 40  0  0  0  0  0  0  0  0999 V2000
    4.4065   23.8106   32.0236 C   0  0  0  0  0  0  0  0  0  0  0  0
    4.2741   19.5249   40.2007 C   0  0  0  0  0  0  0  0  0  0  0  0
    3.8217   23.0589   32.8259 C   0  0  2  0  0  0  0  0  0  0  0  0
    1.2685   18.2477   41.6818 C   0  0  0  0  0  0  0  0  0  0  0  0
    4.0382   24.5241   31.3670 O   0  0  0  0  0  0  0  0  0  0  0  0
    3.3589   22.8500   34.1226 C   0  0  2  0  0  0  0  0  0  0  0  0
    1.8559   19.7809   39.9415 C   0  0  1  0  0  0  0  0  0  0  0  0
    1.9584   21.3478   36.4355 C   0  0  0  0  0  0  0  0  0  0  0  0
    4.2911   22.3027   35.1048 C   0  0  0  0  0  0  0  0  0  0  0  0
    1.1210   19.5723   41.0123 C   0  0  0  0  0  0  0  0  0  0  0  0
    2.5374   20.7029   37.7275 C   0  0  0  0  0  0  0  0  0  0  0  0
    3.0430   18.9280   39.7160 C   0  0  0  0  0  0  0  0  0  0  0  0
    5.0618   23.0959   32.5258 O   0  0  0  0  0  0  0  0  0  0  0  0
    2.8216   21.7701   35.2290 C   0  0  2  0  0  0  0  0  0  0  0  0
    0.0784   17.9502   42.4251 C   0  0  0  0  0  0  0  0  0  0  0  0
    1.6959   20.8884   38.9548 C   0  0  0  0  0  0  0  0  0  0  0  0
   -0.8058   17.6116   43.0482 C   0  0  0  0  0  0  0  0  0  0  0  0
    4.2846   19.5019   41.3004 H   0  0  0  0  0  0  0  0  0  0  0  0
    5.1337   18.9578   39.8138 H   0  0  0  0  0  0  0  0  0  0  0  0
    4.3370   20.5673   39.8551 H   0  0  0  0  0  0  0  0  0  0  0  0
    2.8141   22.6202   32.7789 H   0  0  0  0  0  0  0  0  0  0  0  0
    2.1297   18.2769   42.3654 H   0  0  0  0  0  0  0  0  0  0  0  0
    1.4290   17.4694   40.9213 H   0  0  0  0  0  0  0  0  0  0  0  0
    2.7549   23.6815   33.7303 H   0  0  0  0  0  0  0  0  0  0  0  0
    2.5400   20.4069   40.5332 H   0  0  0  0  0  0  0  0  0  0  0  0
    1.2267   20.6265   36.0426 H   0  0  0  0  0  0  0  0  0  0  0  0
    1.6306   22.3267   36.8152 H   0  0  0  0  0  0  0  0  0  0  0  0
    5.0818   21.6166   34.7671 H   0  0  0  0  0  0  0  0  0  0  0  0
    4.9764   22.7737   35.8249 H   0  0  0  0  0  0  0  0  0  0  0  0
    1.3781   20.3478   41.7487 H   0  0  0  0  0  0  0  0  0  0  0  0
    0.0803   19.6008   40.6570 H   0  0  0  0  0  0  0  0  0  0  0  0
    2.6502   19.6233   37.5500 H   0  0  0  0  0  0  0  0  0  0  0  0
    3.4917   21.2123   37.9267 H   0  0  0  0  0  0  0  0  0  0  0  0
    2.8900   17.9707   40.2358 H   0  0  0  0  0  0  0  0  0  0  0  0
    3.1491   18.7947   38.6293 H   0  0  0  0  0  0  0  0  0  0  0  0
    2.0549   20.9820   35.1996 H   0  0  0  0  0  0  0  0  0  0  0  0
    0.6396   20.9386   38.6517 H   0  0  0  0  0  0  0  0  0  0  0  0
    2.0261   21.8166   39.4440 H   0  0  0  0  0  0  0  0  0  0  0  0
   -1.6640   17.2829   43.6528 H   0  0  0  0  0  0  0  0  0  0  0  0
  1 13  1  0
  3  1  1  0
  3  6  1  0
  4 15  1  0
  5  1  2  0
  6  9  1  0
  6 14  1  0
  7 16  1  0
  7 10  1  0
  8 11  1  0
  9 14  1  0
 10  4  1  0
 11 16  1  0
 12  7  1  0
 12  2  1  0
 13  3  1  0
 14  8  1  0
 15 17  3  0
  2 18  1  0
  2 19  1  0
  2 20  1  0
  3 21  1  6
  4 22  1  0
  4 23  1  0
  6 24  1  1
  7 25  1  6
  8 26  1  0
  8 27  1  0
  9 28  1  0
  9 29  1  0
 10 30  1  0
 10 31  1  0
 11 32  1  0
 11 33  1  0
 12 34  1  0
 12 35  1  0
 14 36  1  6
 16 37  1  0
 16 38  1  0
 17 39  1  0
M  END
>  <mol_id>  (53) 
2026-09-16-6tgu-s0-n100-0053

>  <rmsd_to_ref>  (53) 


$$$$

     RDKit          3D

 45 45  0  0  0  0  0  0  0  0999 V2000
    5.1681   15.6401   36.8820 N   0  0  0  0  0  0  0  0  0  0  0  0
    0.7116   21.7519   36.6420 O   0  0  0  0  0  0  0  0  0  0  0  0
    0.8275   20.0497   40.4664 C   0  0  0  0  0  0  0  0  0  0  0  0
   -2.4235   19.6206   42.3680 C   0  0  0  0  0  0  0  0  0  0  0  0
    3.7346   22.7047   32.4980 C   0  0  0  0  0  0  0  0  0  0  0  0
    2.4384   15.4761   37.4693 C   0  0  0  0  0  0  0  0  0  0  0  0
    2.2959   24.8267   32.3548 C   0  0  0  0  0  0  0  0  0  0  0  0
    1.7002   21.0713   36.7967 C   0  0  0  0  0  0  0  0  0  0  0  0
    2.5438   17.9131   38.1791 C   0  0  0  0  0  0  0  0  0  0  0  0
    2.4105   19.0183   37.4862 N   0  0  0  0  0  0  0  0  0  0  0  0
    5.5847   13.6567   36.2640 N   0  0  0  0  0  0  0  0  0  0  0  0
    3.2451   22.2940   33.7387 C   0  0  0  0  0  0  0  0  0  0  0  0
    4.5681   14.3660   36.8250 C   0  0  0  0  0  0  0  0  0  0  0  0
   -0.2658   20.4911   41.2362 C   0  0  0  0  0  0  0  0  0  0  0  0
    2.4972   22.1758   34.7571 C   0  0  0  0  0  0  0  0  0  0  0  0
    4.3189   16.6797   37.3403 C   0  0  0  0  0  0  0  0  0  0  0  0
    3.1814   14.2483   37.1273 C   0  0  0  0  0  0  0  0  0  0  0  0
    4.0449   24.2625   30.5403 C   0  0  0  0  0  0  0  0  0  0  0  0
    1.0276   20.3818   39.1438 C   0  0  0  0  0  0  0  0  0  0  0  0
    3.0989   16.6681   37.6301 C   0  0  0  0  0  0  0  0  0  0  0  0
    1.7266   20.0887   37.9256 C   0  0  0  0  0  0  0  0  0  0  0  0
    3.3737   23.9273   31.8613 C   0  0  0  0  0  0  0  0  0  0  0  0
    2.7085   21.2466   35.8782 N   0  0  0  0  0  0  0  0  0  0  0  0
    2.2227   17.8381   39.4267 O   0  0  0  0  0  0  0  0  0  0  0  0
   -1.3584   19.9891   41.7807 C   0  0  0  0  0  0  0  0  0  0  0  0
    1.5692   19.3984   40.9517 H   0  0  0  0  0  0  0  0  0  0  0  0
   -3.3454   19.3016   42.8763 H   0  0  0  0  0  0  0  0  0  0  0  0
    4.4437   22.0430   31.9790 H   0  0  0  0  0  0  0  0  0  0  0  0
    1.3465   15.4356   37.5965 H   0  0  0  0  0  0  0  0  0  0  0  0
    2.1974   24.7170   33.4449 H   0  0  0  0  0  0  0  0  0  0  0  0
    2.5488   25.8695   32.1125 H   0  0  0  0  0  0  0  0  0  0  0  0
    1.3447   24.5584   31.8719 H   0  0  0  0  0  0  0  0  0  0  0  0
    5.4693   12.6502   36.0784 H   0  0  0  0  0  0  0  0  0  0  0  0
    6.4697   14.1264   36.0250 H   0  0  0  0  0  0  0  0  0  0  0  0
    0.2373   20.9339   42.1085 H   0  0  0  0  0  0  0  0  0  0  0  0
   -0.8060   20.8787   40.3598 H   0  0  0  0  0  0  0  0  0  0  0  0
    1.6116   22.8263   34.8061 H   0  0  0  0  0  0  0  0  0  0  0  0
    4.8112   17.6559   37.4613 H   0  0  0  0  0  0  0  0  0  0  0  0
    2.6787   13.2700   37.1063 H   0  0  0  0  0  0  0  0  0  0  0  0
    4.9993   24.7742   30.7334 H   0  0  0  0  0  0  0  0  0  0  0  0
    4.2330   23.3354   29.9788 H   0  0  0  0  0  0  0  0  0  0  0  0
    3.3886   24.9207   29.9520 H   0  0  0  0  0  0  0  0  0  0  0  0
    0.3701   21.2377   38.9314 H   0  0  0  0  0  0  0  0  0  0  0  0
    4.1222   24.5316   32.3948 H   0  0  0  0  0  0  0  0  0  0  0  0
    3.5976   20.7354   35.9735 H   0  0  0  0  0  0  0  0  0  0  0  0
  1 13  1  0
  1 16  2  0
  2  8  2  0
  3 14  1  0
  5 12  2  0
  6 20  2  0
  8 21  1  0
  9 24  2  0
 10 21  2  3
 10  9  1  0
 11 13  1  0
 12 15  2  0
 13 17  2  0
 14 25  1  0
 15 23  1  0
 16 20  1  0
 17  6  1  0
 18 22  1  0
 19  3  2  3
 20  9  1  0
 21 19  1  0
 22  7  1  0
 22  5  1  0
 23  8  1  0
 25  4  3  0
  3 26  1  0
  4 27  1  0
  5 28  1  0
  6 29  1  0
  7 30  1  0
  7 31  1  0
  7 32  1  0
 11 33  1  0
 11 34  1  0
 14 35  1  0
 14 36  1  0
 15 37  1  0
 16 38  1  0
 17 39  1  0
 18 40  1  0
 18 41  1  0
 18 42  1  0
 19 43  1  0
 22 44  1  0
 23 45  1  0
M  END
>  <mol_id>  (54) 
2026-09-16-6tgu-s0-n100-0054

>  <rmsd_to_ref>  (54) 


$$$$

     RDKit          3D

 63 66  0  0  0  0  0  0  0  0999 V2000
    1.6840   28.0940   33.8090 C   0  0  0  0  0  0  0  0  0  0  0  0
    1.2620   19.8320   41.3200 C   0  0  0  0  0  0  0  0  0  0  0  0
    3.1140   24.4160   34.2110 C   0  0  0  0  0  0  0  0  0  0  0  0
    3.5660   21.3390   35.9620 C   0  0  0  0  0  0  0  0  0  0  0  0
    0.6790   17.2060   42.7360 C   0  0  0  0  0  0  0  0  0  0  0  0
    0.1260   27.5000   29.1790 C   0  0  0  0  0  0  0  0  0  0  0  0
    1.3130   17.2510   41.4620 C   0  0  1  0  0  0  0  0  0  0  0  0
    3.3820   16.8320   37.9960 C   0  0  0  0  0  0  0  0  0  0  0  0
    4.0150   21.7370   34.5800 C   0  0  0  0  0  0  0  0  0  0  0  0
    2.9330   19.4430   38.5900 C   0  0  0  0  0  0  0  0  0  0  0  0
    3.4780   23.2180   34.3020 C   0  0  0  0  0  0  0  0  0  0  0  0
    2.5240   18.5040   39.5830 C   0  0  0  0  0  0  0  0  0  0  0  0
    1.7900   16.1000   40.8450 C   0  0  0  0  0  0  0  0  0  0  0  0
    3.7640   13.6650   38.6400 N   0  0  0  0  0  0  0  0  0  0  0  0
    2.1380   26.2210   32.4470 C   0  0  1  0  0  0  0  0  0  0  0  0
    1.5940   21.1350   40.5890 C   0  0  0  0  0  0  0  0  0  0  0  0
    0.8730   28.7100   29.5190 C   0  0  1  0  0  0  0  0  0  0  0  0
    2.8110   17.4660   39.2720 C   0  0  0  0  0  0  0  0  0  0  0  0
    1.1170   27.4270   30.0720 C   0  0  1  0  0  0  0  0  0  0  0  0
    2.2180   29.3410   29.5420 F   0  0  0  0  0  0  0  0  0  0  0  0
    2.4400   16.3120   39.8470 N   0  0  0  0  0  0  0  0  0  0  0  0
    0.7250   19.9690   42.4950 O   0  0  0  0  0  0  0  0  0  0  0  0
    3.8460   20.0130   36.2390 O   0  0  0  0  0  0  0  0  0  0  0  0
    1.6080   18.5010   40.8740 N   0  0  0  0  0  0  0  0  0  0  0  0
    3.4880   19.2100   37.3150 C   0  0  0  0  0  0  0  0  0  0  0  0
    3.9200   17.7810   37.1250 C   0  0  0  0  0  0  0  0  0  0  0  0
    1.5640   26.5890   30.9220 N   0  0  0  0  0  0  0  0  0  0  0  0
    2.0990   27.5360   32.0890 C   0  0  1  0  0  0  0  0  0  0  0  0
    1.7420   14.9570   41.3620 O   0  0  0  0  0  0  0  0  0  0  0  0
    1.5680   28.5550   32.6650 C   0  0  0  0  0  0  0  0  0  0  0  0
    1.9980   25.8630   33.7350 C   0  0  2  0  0  0  0  0  0  0  0  0
    3.3230   14.0980   38.7860 N   0  0  0  0  0  0  0  0  0  0  0  0
    1.7810   27.0200   34.5650 C   0  0  0  0  0  0  0  0  0  0  0  0
    0.8123   28.5689   34.2830 H   0  0  0  0  0  0  0  0  0  0  0  0
    2.7784   28.1097   33.6992 H   0  0  0  0  0  0  0  0  0  0  0  0
    2.4801   21.4961   36.0410 H   0  0  0  0  0  0  0  0  0  0  0  0
    4.1131   21.9591   36.6873 H   0  0  0  0  0  0  0  0  0  0  0  0
    1.4414   17.2601   43.5271 H   0  0  0  0  0  0  0  0  0  0  0  0
   -0.0107   18.0575   42.8326 H   0  0  0  0  0  0  0  0  0  0  0  0
    0.1165   16.2657   42.8326 H   0  0  0  0  0  0  0  0  0  0  0  0
   -0.9177   27.3896   29.5084 H   0  0  0  0  0  0  0  0  0  0  0  0
   -0.1112   26.9750   28.2419 H   0  0  0  0  0  0  0  0  0  0  0  0
    2.2876   17.3922   41.9520 H   0  0  0  0  0  0  0  0  0  0  0  0
    4.1737   16.1223   38.2780 H   0  0  0  0  0  0  0  0  0  0  0  0
    2.5558   16.3275   37.4735 H   0  0  0  0  0  0  0  0  0  0  0  0
    5.1134   21.7200   34.5235 H   0  0  0  0  0  0  0  0  0  0  0  0
    3.6195   21.0365   33.8297 H   0  0  0  0  0  0  0  0  0  0  0  0
    2.7956   20.5011   38.8575 H   0  0  0  0  0  0  0  0  0  0  0  0
    2.6337   25.2654   32.6730 H   0  0  0  0  0  0  0  0  0  0  0  0
    1.7958   21.9272   41.3250 H   0  0  0  0  0  0  0  0  0  0  0  0
    2.4827   20.9854   39.9583 H   0  0  0  0  0  0  0  0  0  0  0  0
    0.7420   21.4289   39.9583 H   0  0  0  0  0  0  0  0  0  0  0  0
    0.4390   29.7120   29.3865 H   0  0  0  0  0  0  0  0  0  0  0  0
    1.9437   26.9839   30.6467 H   0  0  0  0  0  0  0  0  0  0  0  0
    2.7624   15.4653   39.3570 H   0  0  0  0  0  0  0  0  0  0  0  0
    3.6449   17.4851   36.1019 H   0  0  0  0  0  0  0  0  0  0  0  0
    4.9997   17.7801   37.3355 H   0  0  0  0  0  0  0  0  0  0  0  0
    2.8525   28.3371   32.1108 H   0  0  0  0  0  0  0  0  0  0  0  0
    2.1406   29.4820   32.5141 H   0  0  0  0  0  0  0  0  0  0  0  0
    0.5666   28.8691   32.3354 H   0  0  0  0  0  0  0  0  0  0  0  0
    1.0573   25.3389   33.9595 H   0  0  0  0  0  0  0  0  0  0  0  0
    2.6262   27.1362   35.2594 H   0  0  0  0  0  0  0  0  0  0  0  0
    0.8501   26.8902   35.1365 H   0  0  0  0  0  0  0  0  0  0  0  0
  1 33  1  0
  2 22  2  0
  3 11  3  0
  4 23  1  0
  6 17  1  0
  6 19  1  0
  7  5  1  0
  8 18  1  0
  9  4  1  0
 10 12  1  0
 11  9  1  0
 12 24  1  0
 13 29  2  0
 13  7  1  0
 14 32  3  0
 15 31  1  0
 16  2  1  0
 17 20  1  0
 17 19  1  0
 18 12  2  0
 18 21  1  0
 19 27  1  0
 21 13  1  0
 23 25  1  0
 24  2  1  0
 24  7  1  0
 25 10  2  0
 26 25  1  0
 26  8  1  0
 27 28  1  0
 27 15  1  0
 28 15  1  0
 28 30  1  0
 30  1  1  0
 31  3  1  0
 31 33  1  0
  1 34  1  0
  1 35  1  0
  4 36  1  0
  4 37  1  0
  5 38  1  0
  5 39  1  0
  5 40  1  0
  6 41  1  0
  6 42  1  0
  7 43  1  6
  8 44  1  0
  8 45  1  0
  9 46  1  0
  9 47  1  0
 10 48  1  0
 15 49  1  6
 16 50  1  0
 16 51  1  0
 16 52  1  0
 17 53  1  1
 19 54  1  6
 21 55  1  0
 26 56  1  0
 26 57  1  0
 28 58  1  6
 30 59  1  0
 30 60  1  0
 31 61  1  6
 33 62  1  0
 33 63  1  0
M  END
>  <mol_id>  (55) 
2026-09-16-6tgu-s0-n100-0055

>  <rmsd_to_ref>  (55) 


$$$$

     RDKit          3D

 45 47  0  0  0  0  0  0  0  0999 V2000
    2.0744   16.2097   40.5335 C   0  0  0  0  0  0  0  0  0  0  0  0
    2.8012   19.8206   37.9344 C   0  0  0  0  0  0  0  0  0  0  0  0
    3.6213   17.5909   38.1343 C   0  0  0  0  0  0  0  0  0  0  0  0
    0.4289   16.5043   42.1774 C   0  0  0  0  0  0  0  0  0  0  0  0
    1.3482   25.8762   32.3395 C   0  0  0  0  0  0  0  0  0  0  0  0
    2.7592   20.6582   37.0532 C   0  0  0  0  0  0  0  0  0  0  0  0
    1.7352   24.7535   34.4450 C   0  0  1  0  0  0  0  0  0  0  0  0
   -0.5262   27.1117   33.2245 O   0  0  0  0  0  0  0  0  0  0  0  0
    0.3981   25.3517   34.5587 C   0  0  0  0  0  0  0  0  0  0  0  0
    2.8308   22.5453   35.2803 C   0  0  0  0  0  0  0  0  0  0  0  0
    3.7982   16.2841   38.5947 C   0  0  0  0  0  0  0  0  0  0  0  0
    3.7963   22.8368   34.5924 O   0  0  0  0  0  0  0  0  0  0  0  0
    4.8041   15.5163   37.9995 C   0  0  0  0  0  0  0  0  0  0  0  0
    0.0812   25.8561   33.1712 C   0  0  2  0  0  0  0  0  0  0  0  0
    0.7287   22.4343   34.2553 O   0  0  0  0  0  0  0  0  0  0  0  0
    1.7569   17.5400   40.6362 C   0  0  0  0  0  0  0  0  0  0  0  0
    1.2471   15.5122   41.4580 C   0  0  0  0  0  0  0  0  0  0  0  0
    2.8265   18.6115   38.7643 C   0  0  0  0  0  0  0  0  0  0  0  0
    0.8332   17.5880   41.6092 C   0  0  0  0  0  0  0  0  0  0  0  0
    2.6357   21.4993   36.1991 N   0  0  0  0  0  0  0  0  0  0  0  0
    4.2102   17.9875   37.0641 O   0  0  0  0  0  0  0  0  0  0  0  0
    2.9593   15.6868   39.5616 C   0  0  0  0  0  0  0  0  0  0  0  0
    1.5292   23.3496   35.0597 C   0  0  2  0  0  0  0  0  0  0  0  0
    2.1109   18.5691   39.9817 N   0  0  0  0  0  0  0  0  0  0  0  0
    2.2532   24.8077   32.9807 C   0  0  0  0  0  0  0  0  0  0  0  0
   -0.3160   16.3605   42.9738 H   0  0  0  0  0  0  0  0  0  0  0  0
    1.8256   26.8663   32.3835 H   0  0  0  0  0  0  0  0  0  0  0  0
    1.1518   25.6722   31.2766 H   0  0  0  0  0  0  0  0  0  0  0  0
    2.5408   25.2822   34.9754 H   0  0  0  0  0  0  0  0  0  0  0  0
   -0.7651   27.3232   34.1616 H   0  0  0  0  0  0  0  0  0  0  0  0
   -0.3381   24.5977   34.8743 H   0  0  0  0  0  0  0  0  0  0  0  0
    0.3653   26.1547   35.3098 H   0  0  0  0  0  0  0  0  0  0  0  0
    5.3074   14.9119   38.7686 H   0  0  0  0  0  0  0  0  0  0  0  0
    4.3596   14.8519   37.2438 H   0  0  0  0  0  0  0  0  0  0  0  0
    5.5364   16.1811   37.5181 H   0  0  0  0  0  0  0  0  0  0  0  0
   -0.6370   25.1754   32.6910 H   0  0  0  0  0  0  0  0  0  0  0  0
    0.2263   21.8241   34.8514 H   0  0  0  0  0  0  0  0  0  0  0  0
    1.2227   14.4229   41.6090 H   0  0  0  0  0  0  0  0  0  0  0  0
    0.4192   18.5576   41.9231 H   0  0  0  0  0  0  0  0  0  0  0  0
    1.6486   21.3108   35.9731 H   0  0  0  0  0  0  0  0  0  0  0  0
    4.7826   17.3618   36.5532 H   0  0  0  0  0  0  0  0  0  0  0  0
    3.0032   14.5877   39.5581 H   0  0  0  0  0  0  0  0  0  0  0  0
    1.0323   23.6297   36.0003 H   0  0  0  0  0  0  0  0  0  0  0  0
    2.1331   23.8349   32.4814 H   0  0  0  0  0  0  0  0  0  0  0  0
    3.3253   25.0424   32.9059 H   0  0  0  0  0  0  0  0  0  0  0  0
  1 17  1  0
  2 18  1  0
  3 18  1  0
  3 11  2  0
  5 25  1  0
  5 14  1  0
  6  2  3  0
  7  9  1  0
  7 23  1  0
 10 20  1  0
 11 22  1  0
 12 10  2  0
 13 11  1  0
 14  8  1  0
 14  9  1  0
 16  1  1  0
 16 19  2  0
 17  4  2  0
 18 24  2  0
 19  4  1  0
 20  6  1  0
 21  3  1  0
 22  1  2  0
 23 15  1  0
 23 10  1  0
 24 16  1  0
 25  7  1  0
  4 26  1  0
  5 27  1  0
  5 28  1  0
  7 29  1  1
  8 30  1  0
  9 31  1  0
  9 32  1  0
 13 33  1  0
 13 34  1  0
 13 35  1  0
 14 36  1  6
 15 37  1  0
 17 38  1  0
 19 39  1  0
 20 40  1  0
 21 41  1  0
 22 42  1  0
 23 43  1  1
 25 44  1  0
 25 45  1  0
M  END
>  <mol_id>  (56) 
2026-09-16-6tgu-s0-n100-0056

>  <rmsd_to_ref>  (56) 


$$$$

     RDKit          3D

 26 26  0  0  0  0  0  0  0  0999 V2000
    3.7083   21.5183   36.2186 C   0  0  2  0  0  0  0  0  0  0  0  0
    1.6546   21.5554   38.4276 S   0  0  0  0  0  0  0  0  0  0  0  0
    2.6669   20.7010   35.3376 C   0  0  0  0  0  0  0  0  0  0  0  0
    2.1609   22.9973   35.0950 O   0  0  0  0  0  0  0  0  0  0  0  0
    2.7706   18.7675   38.9697 C   0  0  0  0  0  0  0  0  0  0  0  0
    4.1617   22.6210   33.7219 C   0  0  0  0  0  0  0  0  0  0  0  0
    3.3406   19.0621   40.4073 C   0  0  0  0  0  0  0  0  0  0  0  0
    3.1146   20.9869   37.6122 C   0  0  1  0  0  0  0  0  0  0  0  0
    3.4860   19.7128   38.0817 C   0  0  0  0  0  0  0  0  0  0  0  0
    3.1458   22.0840   34.9343 C   0  0  1  0  0  0  0  0  0  0  0  0
    4.6880   21.8486   36.5942 H   0  0  0  0  0  0  0  0  0  0  0  0
    1.8828   21.6253   39.7767 H   0  0  0  0  0  0  0  0  0  0  0  0
    2.9924   19.8145   34.7734 H   0  0  0  0  0  0  0  0  0  0  0  0
    1.6910   20.2238   35.5105 H   0  0  0  0  0  0  0  0  0  0  0  0
    1.9786   23.1196   36.0604 H   0  0  0  0  0  0  0  0  0  0  0  0
    2.9766   17.7277   38.6761 H   0  0  0  0  0  0  0  0  0  0  0  0
    1.6790   18.8945   38.9202 H   0  0  0  0  0  0  0  0  0  0  0  0
    4.7646   23.4624   34.0944 H   0  0  0  0  0  0  0  0  0  0  0  0
    4.8274   21.8020   33.4117 H   0  0  0  0  0  0  0  0  0  0  0  0
    3.5622   22.9522   32.8611 H   0  0  0  0  0  0  0  0  0  0  0  0
    2.5069   19.1867   41.1139 H   0  0  0  0  0  0  0  0  0  0  0  0
    3.9726   18.2217   40.7304 H   0  0  0  0  0  0  0  0  0  0  0  0
    3.9407   19.9836   40.3820 H   0  0  0  0  0  0  0  0  0  0  0  0
    3.7660   21.8384   37.8583 H   0  0  0  0  0  0  0  0  0  0  0  0
    3.6633   19.1328   37.1641 H   0  0  0  0  0  0  0  0  0  0  0  0
    4.2381   20.0471   38.8115 H   0  0  0  0  0  0  0  0  0  0  0  0
  1  8  1  0
  3  1  1  0
  5  7  1  0
  8  9  1  0
  8  2  1  0
  9  5  1  0
 10  6  1  0
 10  3  1  0
 10  4  1  1
 10  1  1  0
  1 11  1  6
  2 12  1  0
  3 13  1  0
  3 14  1  0
  4 15  1  0
  5 16  1  0
  5 17  1  0
  6 18  1  0
  6 19  1  0
  6 20  1  0
  7 21  1  0
  7 22  1  0
  7 23  1  0
  8 24  1  1
  9 25  1  0
  9 26  1  0
M  END
>  <mol_id>  (57) 
2026-09-16-6tgu-s0-n100-0057

>  <rmsd_to_ref>  (57) 


$$$$

     RDKit          3D

 89 93  0  0  0  0  0  0  0  0999 V2000
   -1.0496   18.1578   43.0661 C   0  0  0  0  0  0  0  0  0  0  0  0
    2.7332   24.2083   26.1257 C   0  0  0  0  0  0  0  0  0  0  0  0
    2.8887   23.1177   27.1441 C   0  0  2  0  0  0  0  0  0  0  0  0
    2.7279   23.2106   28.6815 C   0  0  2  0  0  0  0  0  0  0  0  0
    4.9192   23.8755   27.9036 C   0  0  0  0  0  0  0  0  0  0  0  0
    3.8129   18.3404   37.2682 C   0  0  1  0  0  0  0  0  0  0  0  0
    3.7560   15.6275   37.3147 C   0  0  0  0  0  0  0  0  0  0  0  0
    2.7747   19.0739   37.9828 O   0  0  0  0  0  0  0  0  0  0  0  0
    1.1817   17.1192   42.4097 C   0  0  0  0  0  0  0  0  0  0  0  0
    1.9927   24.1017   33.1180 C   0  0  2  0  0  0  0  0  0  0  0  0
    0.7201   19.8121   41.5659 S   0  0  0  0  0  0  0  0  0  0  0  0
    2.7511   18.8369   39.2769 C   0  0  1  0  0  0  0  0  0  0  0  0
    3.6988   17.0631   37.4941 N   0  0  0  0  0  0  0  0  0  0  0  0
    4.0253   19.2293   36.0027 C   0  0  0  0  0  0  0  0  0  0  0  0
    4.2604   22.7799   27.2558 N   0  0  0  0  0  0  0  0  0  0  0  0
    4.8835   15.0578   36.6511 C   0  0  0  0  0  0  0  0  0  0  0  0
    1.6220   19.4911   40.1183 C   0  0  1  0  0  0  0  0  0  0  0  0
    2.5321   25.4380   30.9015 S   0  0  1  0  0  4  0  0  0  0  0  0
    6.2415   21.2826   27.5099 C   0  0  0  0  0  0  0  0  0  0  0  0
    2.8666   23.9044   31.9690 C   0  0  0  0  0  0  0  0  0  0  0  0
    1.3022   23.3520   29.0609 C   0  0  0  0  0  0  0  0  0  0  0  0
    0.2983   15.9237   42.3724 C   0  0  0  0  0  0  0  0  0  0  0  0
    2.4086   24.5275   29.3324 C   0  0  2  0  0  0  0  0  0  0  0  0
    0.2337   18.2489   42.2313 C   0  0  0  0  0  0  0  0  0  0  0  0
    1.7463   22.8244   33.8535 C   0  0  0  0  0  0  0  0  0  0  0  0
   -0.5601   15.7211   43.5484 C   0  0  0  0  0  0  0  0  0  0  0  0
   -0.7525   17.1789   44.1652 C   0  0  0  0  0  0  0  0  0  0  0  0
    5.2428   22.4345   28.0711 C   0  0  1  0  0  0  0  0  0  0  0  0
    3.0630   22.0363   34.1452 C   0  0  0  0  0  0  0  0  0  0  0  0
    0.8204   24.9995   32.7898 C   0  0  0  0  0  0  0  0  0  0  0  0
    0.7940   25.1198   31.2445 C   0  0  0  0  0  0  0  0  0  0  0  0
    1.9821   18.0225   40.1466 N   0  0  0  0  0  0  0  0  0  0  0  0
    2.8893   21.2049   35.3401 C   0  0  0  0  0  0  0  0  0  0  0  0
    3.9280   20.6583   36.2078 C   0  0  0  0  0  0  0  0  0  0  0  0
   -1.8846   17.7973   42.4473 H   0  0  0  0  0  0  0  0  0  0  0  0
   -1.3437   19.1394   43.4660 H   0  0  0  0  0  0  0  0  0  0  0  0
    2.5881   25.1707   26.6383 H   0  0  0  0  0  0  0  0  0  0  0  0
    3.6373   24.2582   25.5010 H   0  0  0  0  0  0  0  0  0  0  0  0
    1.8603   23.9956   25.4911 H   0  0  0  0  0  0  0  0  0  0  0  0
    2.0658   22.5243   26.7190 H   0  0  0  0  0  0  0  0  0  0  0  0
    3.5465   22.5135   28.9139 H   0  0  0  0  0  0  0  0  0  0  0  0
    4.4219   24.4411   28.7053 H   0  0  0  0  0  0  0  0  0  0  0  0
    5.4433   24.7967   27.6093 H   0  0  0  0  0  0  0  0  0  0  0  0
    4.8772   18.1937   37.5043 H   0  0  0  0  0  0  0  0  0  0  0  0
    3.7092   15.1753   38.3164 H   0  0  0  0  0  0  0  0  0  0  0  0
    2.9155   15.4123   36.6387 H   0  0  0  0  0  0  0  0  0  0  0  0
    1.7052   17.1926   43.3743 H   0  0  0  0  0  0  0  0  0  0  0  0
    1.9720   17.0951   41.6450 H   0  0  0  0  0  0  0  0  0  0  0  0
    2.5034   24.6972   33.8891 H   0  0  0  0  0  0  0  0  0  0  0  0
    3.8407   18.8132   39.1274 H   0  0  0  0  0  0  0  0  0  0  0  0
    4.2381   17.0720   38.3716 H   0  0  0  0  0  0  0  0  0  0  0  0
    2.9148   17.0654   36.8260 H   0  0  0  0  0  0  0  0  0  0  0  0
    5.0279   19.0139   35.6046 H   0  0  0  0  0  0  0  0  0  0  0  0
    3.2042   18.9714   35.3178 H   0  0  0  0  0  0  0  0  0  0  0  0
    5.5837   14.6551   37.3978 H   0  0  0  0  0  0  0  0  0  0  0  0
    4.5476   14.2466   35.9884 H   0  0  0  0  0  0  0  0  0  0  0  0
    5.3885   15.8325   36.0554 H   0  0  0  0  0  0  0  0  0  0  0  0
    1.2518   20.4943   39.8601 H   0  0  0  0  0  0  0  0  0  0  0  0
    3.2154   26.6221   30.9892 H   0  0  0  0  0  0  0  0  0  0  0  0
    6.6790   20.7325   28.3560 H   0  0  0  0  0  0  0  0  0  0  0  0
    5.6768   20.5863   26.8725 H   0  0  0  0  0  0  0  0  0  0  0  0
    7.0451   21.7491   26.9210 H   0  0  0  0  0  0  0  0  0  0  0  0
    2.6054   22.9828   31.4282 H   0  0  0  0  0  0  0  0  0  0  0  0
    3.9255   23.7943   32.2461 H   0  0  0  0  0  0  0  0  0  0  0  0
    0.5302   23.4813   28.2881 H   0  0  0  0  0  0  0  0  0  0  0  0
    0.5835   22.7836   29.6696 H   0  0  0  0  0  0  0  0  0  0  0  0
   -0.3538   16.0141   41.4911 H   0  0  0  0  0  0  0  0  0  0  0  0
    0.9737   15.0560   42.3445 H   0  0  0  0  0  0  0  0  0  0  0  0
    2.7736   25.5362   29.0888 H   0  0  0  0  0  0  0  0  0  0  0  0
   -0.0428   18.0155   41.1925 H   0  0  0  0  0  0  0  0  0  0  0  0
    1.2558   23.0576   34.8100 H   0  0  0  0  0  0  0  0  0  0  0  0
    1.1120   22.1901   33.2167 H   0  0  0  0  0  0  0  0  0  0  0  0
   -1.5296   15.2942   43.2522 H   0  0  0  0  0  0  0  0  0  0  0  0
   -0.1178   15.0188   44.2704 H   0  0  0  0  0  0  0  0  0  0  0  0
    0.1690   17.4809   44.6846 H   0  0  0  0  0  0  0  0  0  0  0  0
   -1.5904   17.1655   44.8778 H   0  0  0  0  0  0  0  0  0  0  0  0
    5.5487   21.9731   29.0217 H   0  0  0  0  0  0  0  0  0  0  0  0
    3.3025   21.3939   33.2849 H   0  0  0  0  0  0  0  0  0  0  0  0
    3.8833   22.7493   34.3148 H   0  0  0  0  0  0  0  0  0  0  0  0
   -0.1166   24.5534   33.1545 H   0  0  0  0  0  0  0  0  0  0  0  0
    0.9207   25.9845   33.2690 H   0  0  0  0  0  0  0  0  0  0  0  0
    0.1570   25.9535   30.9142 H   0  0  0  0  0  0  0  0  0  0  0  0
    0.3808   24.2419   30.7263 H   0  0  0  0  0  0  0  0  0  0  0  0
    1.3279   17.3348   39.7468 H   0  0  0  0  0  0  0  0  0  0  0  0
    2.2281   17.3703   40.9048 H   0  0  0  0  0  0  0  0  0  0  0  0
    2.2541   21.8051   36.0082 H   0  0  0  0  0  0  0  0  0  0  0  0
    2.5700   20.2726   34.8515 H   0  0  0  0  0  0  0  0  0  0  0  0
    3.6726   20.8614   37.2583 H   0  0  0  0  0  0  0  0  0  0  0  0
    4.8923   21.1297   35.9672 H   0  0  0  0  0  0  0  0  0  0  0  0
  1 27  1  0
  3  2  1  0
  3 15  1  0
  4  3  1  0
  4 21  1  0
  4 23  1  0
  5 28  1  0
  6 14  1  0
  6 13  1  0
  6  8  1  0
  7 13  1  0
  9 22  1  0
 10 25  1  0
 11 24  1  0
 12  8  1  0
 12 17  1  0
 12 32  1  0
 14 34  1  0
 15  5  1  0
 15 28  1  0
 16  7  1  0
 17 32  1  0
 17 11  1  0
 18 31  1  0
 18 20  1  0
 20 10  1  0
 22 26  1  0
 23 21  1  0
 23 18  1  0
 24  9  1  0
 24  1  1  0
 25 29  1  0
 26 27  1  0
 28 19  1  0
 29 33  1  0
 30 10  1  0
 31 30  1  0
 33 34  1  0
  1 35  1  0
  1 36  1  0
  2 37  1  0
  2 38  1  0
  2 39  1  0
  3 40  1  6
  4 41  1  1
  5 42  1  0
  5 43  1  0
  6 44  1  1
  7 45  1  0
  7 46  1  0
  9 47  1  0
  9 48  1  0
 10 49  1  1
 12 50  1  1
 13 51  1  0
 13 52  1  0
 14 53  1  0
 14 54  1  0
 16 55  1  0
 16 56  1  0
 16 57  1  0
 17 58  1  6
 18 59  1  6
 19 60  1  0
 19 61  1  0
 19 62  1  0
 20 63  1  0
 20 64  1  0
 21 65  1  0
 21 66  1  0
 22 67  1  0
 22 68  1  0
 23 69  1  6
 24 70  1  0
 25 71  1  0
 25 72  1  0
 26 73  1  0
 26 74  1  0
 27 75  1  0
 27 76  1  0
 28 77  1  1
 29 78  1  0
 29 79  1  0
 30 80  1  0
 30 81  1  0
 31 82  1  0
 31 83  1  0
 32 84  1  0
 32 85  1  0
 33 86  1  0
 33 87  1  0
 34 88  1  0
 34 89  1  0
M  CHG  2  13   1  32   1
M  END
>  <mol_id>  (58) 
2026-09-16-6tgu-s0-n100-0058

>  <rmsd_to_ref>  (58) 


$$$$

     RDKit          3D

 44 44  0  0  0  0  0  0  0  0999 V2000
    1.2984   16.7678   43.0999 O   0  0  0  0  0  0  0  0  0  0  0  0
    0.5384   17.5467   42.4018 C   0  0  0  0  0  0  0  0  0  0  0  0
    1.2567   18.5923   41.3822 C   0  0  0  0  0  0  0  0  0  0  0  0
    2.7912   24.4913   30.8719 C   0  0  2  0  0  0  0  0  0  0  0  0
    0.6048   24.8080   32.1889 C   0  0  0  0  0  0  0  0  0  0  0  0
    3.7559   19.9941   36.6702 O   0  0  0  0  0  0  0  0  0  0  0  0
    2.7139   20.4011   37.2277 C   0  0  0  0  0  0  0  0  0  0  0  0
    2.7702   18.5699   39.0588 C   0  0  1  0  0  0  0  0  0  0  0  0
    2.7760   22.4564   34.5168 C   0  0  0  0  0  0  0  0  0  0  0  0
    3.3437   23.5871   32.0551 C   0  0  0  0  0  0  0  0  0  0  0  0
    2.4735   23.4377   33.3700 C   0  0  0  0  0  0  0  0  0  0  0  0
   -0.1928   18.3774   43.2915 O   0  0  0  0  0  0  0  0  0  0  0  0
    2.6312   16.8366   40.6005 O   0  0  0  0  0  0  0  0  0  0  0  0
    3.9405   18.0051   38.5128 O   0  0  0  0  0  0  0  0  0  0  0  0
    2.3325   17.9180   40.3191 C   0  0  0  0  0  0  0  0  0  0  0  0
    1.1908   24.2888   33.5038 C   0  0  0  0  0  0  0  0  0  0  0  0
    2.2276   22.5007   35.7484 C   0  0  0  0  0  0  0  0  0  0  0  0
    2.3336   19.8848   38.5893 C   0  0  0  0  0  0  0  0  0  0  0  0
    1.7421   21.3256   36.4826 N   0  0  0  0  0  0  0  0  0  0  0  0
    5.0315   17.2486   39.1137 C   0  0  0  0  0  0  0  0  0  0  0  0
    1.2218   24.6208   30.8122 C   0  0  0  0  0  0  0  0  0  0  0  0
    3.6762   24.4943   29.4900 Cl  0  0  0  0  0  0  0  0  0  0  0  0
    1.1278   16.9171   44.0636 H   0  0  0  0  0  0  0  0  0  0  0  0
   -0.0430   16.8401   41.7913 H   0  0  0  0  0  0  0  0  0  0  0  0
    0.4699   19.0923   40.7982 H   0  0  0  0  0  0  0  0  0  0  0  0
    1.8415   19.2786   42.0123 H   0  0  0  0  0  0  0  0  0  0  0  0
    3.0233   25.5271   31.1603 H   0  0  0  0  0  0  0  0  0  0  0  0
   -0.3429   25.3637   32.2446 H   0  0  0  0  0  0  0  0  0  0  0  0
    1.8447   18.3392   38.5107 H   0  0  0  0  0  0  0  0  0  0  0  0
    3.8619   22.5237   34.6789 H   0  0  0  0  0  0  0  0  0  0  0  0
    2.2981   21.5466   34.1245 H   0  0  0  0  0  0  0  0  0  0  0  0
    4.3125   23.0744   31.9630 H   0  0  0  0  0  0  0  0  0  0  0  0
   -0.0018   18.1096   44.2253 H   0  0  0  0  0  0  0  0  0  0  0  0
    0.7300   24.5068   34.4786 H   0  0  0  0  0  0  0  0  0  0  0  0
    2.9891   22.9606   36.3955 H   0  0  0  0  0  0  0  0  0  0  0  0
    1.2788   23.0135   35.5319 H   0  0  0  0  0  0  0  0  0  0  0  0
    2.7161   20.6164   39.3163 H   0  0  0  0  0  0  0  0  0  0  0  0
    1.2455   19.7525   38.4959 H   0  0  0  0  0  0  0  0  0  0  0  0
    0.7333   21.1185   36.4978 H   0  0  0  0  0  0  0  0  0  0  0  0
    4.9606   17.3107   40.2097 H   0  0  0  0  0  0  0  0  0  0  0  0
    4.9639   16.1962   38.8009 H   0  0  0  0  0  0  0  0  0  0  0  0
    5.9935   17.6680   38.7841 H   0  0  0  0  0  0  0  0  0  0  0  0
    0.9621   25.4880   30.1873 H   0  0  0  0  0  0  0  0  0  0  0  0
    0.8233   23.6867   30.3894 H   0  0  0  0  0  0  0  0  0  0  0  0
  2  1  1  0
  2 12  1  0
  3  2  1  0
  4 22  1  0
  4 21  1  0
  4 10  1  0
  5 16  2  0
  6  7  2  0
  7 18  1  0
  8 18  1  0
  8 15  1  0
  9 17  1  0
 10 11  2  0
 11 16  1  0
 11  9  1  0
 14 20  1  0
 14  8  1  0
 15 13  2  0
 15  3  1  0
 17 19  1  0
 19  7  1  0
 21  5  1  0
  1 23  1  0
  2 24  1  0
  3 25  1  0
  3 26  1  0
  4 27  1  1
  5 28  1  0
  8 29  1  6
  9 30  1  0
  9 31  1  0
 10 32  1  0
 12 33  1  0
 16 34  1  0
 17 35  1  0
 17 36  1  0
 18 37  1  0
 18 38  1  0
 19 39  1  0
 20 40  1  0
 20 41  1  0
 20 42  1  0
 21 43  1  0
 21 44  1  0
M  END
>  <mol_id>  (59) 
2026-09-16-6tgu-s0-n100-0059

>  <rmsd_to_ref>  (59) 


$$$$

     RDKit          3D

 47 48  0  0  0  0  0  0  0  0999 V2000
    0.8617   18.7487   40.5236 C   0  0  1  0  0  0  0  0  0  0  0  0
    1.5626   19.6097   38.5618 C   0  0  0  0  0  0  0  0  0  0  0  0
    1.5733   17.7317   39.8279 N   0  0  0  0  0  0  0  0  0  0  0  0
   -0.0896   17.2928   42.7101 C   0  0  0  0  0  0  0  0  0  0  0  0
    1.9215   21.0029   36.6303 N   0  0  0  0  0  0  0  0  0  0  0  0
    3.9900   20.0502   36.0918 O   0  0  0  0  0  0  0  0  0  0  0  0
    3.0984   20.9389   35.8984 C   0  0  0  0  0  0  0  0  0  0  0  0
    3.1171   21.8236   34.9478 N   0  0  0  0  0  0  0  0  0  0  0  0
    1.9708   16.1481   38.9260 C   0  0  0  0  0  0  0  0  0  0  0  0
   -2.3368   18.6545   41.9158 C   0  0  0  0  0  0  0  0  0  0  0  0
    3.1959   17.7558   38.1318 N   0  0  0  0  0  0  0  0  0  0  0  0
   -0.9505   19.3409   42.0728 C   0  0  0  0  0  0  0  0  0  0  0  0
    1.6576   20.2730   37.4961 N   0  0  0  0  0  0  0  0  0  0  0  0
    4.0072   21.8844   33.8390 C   0  0  0  0  0  0  0  0  0  0  0  0
    3.1697   22.5201   32.6742 C   0  0  0  0  0  0  0  0  0  0  0  0
    3.6190   22.3011   31.4505 C   0  0  0  0  0  0  0  0  0  0  0  0
    0.8770   19.8358   39.7288 C   0  0  0  0  0  0  0  0  0  0  0  0
    2.0876   18.2797   38.7187 N   0  0  0  0  0  0  0  0  0  0  0  0
    4.0591   23.5806   30.8135 C   0  0  0  0  0  0  0  0  0  0  0  0
    0.2391   18.5091   41.8424 N   0  0  0  0  0  0  0  0  0  0  0  0
    3.0706   16.3950   38.1208 C   0  0  0  0  0  0  0  0  0  0  0  0
   -0.8308   20.5534   42.2566 O   0  0  0  0  0  0  0  0  0  0  0  0
    1.7925   19.0606   41.0197 H   0  0  0  0  0  0  0  0  0  0  0  0
   -0.2126   17.6109   43.7558 H   0  0  0  0  0  0  0  0  0  0  0  0
   -1.0227   16.8306   42.3552 H   0  0  0  0  0  0  0  0  0  0  0  0
    0.7300   16.5622   42.6429 H   0  0  0  0  0  0  0  0  0  0  0  0
    1.2421   21.7398   36.3930 H   0  0  0  0  0  0  0  0  0  0  0  0
    2.4059   22.5667   35.0027 H   0  0  0  0  0  0  0  0  0  0  0  0
    2.2049   15.3525   39.6486 H   0  0  0  0  0  0  0  0  0  0  0  0
    1.1126   15.8196   38.3214 H   0  0  0  0  0  0  0  0  0  0  0  0
   -2.8065   18.5464   42.9046 H   0  0  0  0  0  0  0  0  0  0  0  0
   -2.9798   19.2703   41.2698 H   0  0  0  0  0  0  0  0  0  0  0  0
   -2.2049   17.6612   41.4620 H   0  0  0  0  0  0  0  0  0  0  0  0
    3.2781   18.1062   37.1668 H   0  0  0  0  0  0  0  0  0  0  0  0
    0.9099   19.7748   36.9924 H   0  0  0  0  0  0  0  0  0  0  0  0
    4.8773   22.5140   34.0767 H   0  0  0  0  0  0  0  0  0  0  0  0
    4.3981   20.8919   33.5705 H   0  0  0  0  0  0  0  0  0  0  0  0
    2.1484   22.1162   32.7349 H   0  0  0  0  0  0  0  0  0  0  0  0
    3.2334   23.6081   32.8231 H   0  0  0  0  0  0  0  0  0  0  0  0
    4.4724   21.6086   31.4974 H   0  0  0  0  0  0  0  0  0  0  0  0
    2.8081   21.8661   30.8480 H   0  0  0  0  0  0  0  0  0  0  0  0
    0.3968   20.7918   39.9848 H   0  0  0  0  0  0  0  0  0  0  0  0
    4.1336   24.3655   31.5806 H   0  0  0  0  0  0  0  0  0  0  0  0
    5.0416   23.4358   30.3405 H   0  0  0  0  0  0  0  0  0  0  0  0
    3.3259   23.8817   30.0509 H   0  0  0  0  0  0  0  0  0  0  0  0
    2.8961   16.0276   37.0987 H   0  0  0  0  0  0  0  0  0  0  0  0
    3.9774   15.8856   38.4786 H   0  0  0  0  0  0  0  0  0  0  0  0
  1 20  1  0
  2 18  1  0
  2 17  2  0
  3  9  1  0
  3  1  1  0
  5 13  1  0
  7  6  2  0
  7  5  1  0
  8  7  1  0
 11 18  1  0
 12 10  1  0
 12 22  2  0
 13  2  1  0
 14  8  1  0
 15 14  1  0
 16 15  1  0
 17  1  1  0
 18  3  1  0
 19 16  1  0
 20 12  1  0
 20  4  1  0
 21 11  1  0
 21  9  1  0
  1 23  1  1
  4 24  1  0
  4 25  1  0
  4 26  1  0
  5 27  1  0
  8 28  1  0
  9 29  1  0
  9 30  1  0
 10 31  1  0
 10 32  1  0
 10 33  1  0
 11 34  1  0
 13 35  1  0
 14 36  1  0
 14 37  1  0
 15 38  1  0
 15 39  1  0
 16 40  1  0
 16 41  1  0
 17 42  1  0
 19 43  1  0
 19 44  1  0
 19 45  1  0
 21 46  1  0
 21 47  1  0
M  END
>  <mol_id>  (60) 
2026-09-16-6tgu-s0-n100-0060

>  <rmsd_to_ref>  (60) 


$$$$

     RDKit          3D

 64 67  0  0  0  0  0  0  0  0999 V2000
    3.7595   17.3990   36.8312 C   0  0  0  0  0  0  0  0  0  0  0  0
    2.2256   22.0013   35.8478 C   0  0  0  0  0  0  0  0  0  0  0  0
    2.3057   25.5692   35.1837 C   0  0  0  0  0  0  0  0  0  0  0  0
    3.3322   20.3349   36.4422 N   0  0  0  0  0  0  0  0  0  0  0  0
    1.9242   26.7956   33.4352 C   0  0  0  0  0  0  0  0  0  0  0  0
    3.3049   18.2725   37.8554 C   0  0  0  0  0  0  0  0  0  0  0  0
    4.1710   15.0868   36.3473 O   0  0  0  0  0  0  0  0  0  0  0  0
    0.9977   28.7144   34.1429 N   0  0  0  0  0  0  0  0  0  0  0  0
    3.7165   15.9931   37.1936 C   0  0  0  0  0  0  0  0  0  0  0  0
    1.2122   28.8378   35.2386 C   0  0  0  0  0  0  0  0  0  0  0  0
    2.5739   16.4938   39.2868 C   0  0  0  0  0  0  0  0  0  0  0  0
    3.0102   14.2274   38.5756 O   0  0  0  0  0  0  0  0  0  0  0  0
    3.2802   23.5643   34.5170 C   0  0  0  0  0  0  0  0  0  0  0  0
    3.1718   21.3285   35.9743 C   0  0  1  0  0  0  0  0  0  0  0  0
    2.2921   26.2373   32.0640 C   0  0  0  0  0  0  0  0  0  0  0  0
    0.8863   20.0303   42.5444 N   0  0  0  0  0  0  0  0  0  0  0  0
    1.9638   26.7451   34.7972 C   0  0  0  0  0  0  0  0  0  0  0  0
    1.9122   20.1345   40.2966 C   0  0  0  0  0  0  0  0  0  0  0  0
    1.0277   28.0052   32.1443 C   0  0  0  0  0  0  0  0  0  0  0  0
    1.9377   18.6166   40.2158 C   0  0  0  0  0  0  0  0  0  0  0  0
    1.3188   27.0050   31.1805 C   0  0  0  0  0  0  0  0  0  0  0  0
    3.2140   25.1586   34.4414 N   0  0  0  0  0  0  0  0  0  0  0  0
    3.0652   15.6428   38.2904 C   0  0  0  0  0  0  0  0  0  0  0  0
    1.2822   18.0808   41.3529 C   0  0  0  0  0  0  0  0  0  0  0  0
    0.8246   18.6901   42.4966 C   0  0  0  0  0  0  0  0  0  0  0  0
    3.4067   19.6346   37.6328 C   0  0  0  0  0  0  0  0  0  0  0  0
    2.2408   23.0833   35.0934 C   0  0  0  0  0  0  0  0  0  0  0  0
    3.2384   13.7395   39.8251 C   0  0  0  0  0  0  0  0  0  0  0  0
    1.2126   27.9098   33.3498 C   0  0  0  0  0  0  0  0  0  0  0  0
    2.7306   14.9566   35.0277 O   0  0  0  0  0  0  0  0  0  0  0  0
    2.5980   17.8218   39.1517 C   0  0  0  0  0  0  0  0  0  0  0  0
    1.6791   27.6940   35.6480 N   0  0  0  0  0  0  0  0  0  0  0  0
    1.4071   20.6727   41.6415 C   0  0  0  0  0  0  0  0  0  0  0  0
    3.9861   20.9792   35.5262 O   0  0  0  0  0  0  0  0  0  0  0  0
    4.1122   17.7553   35.8521 H   0  0  0  0  0  0  0  0  0  0  0  0
    1.2982   21.7256   36.3712 H   0  0  0  0  0  0  0  0  0  0  0  0
    2.6654   25.6100   36.2224 H   0  0  0  0  0  0  0  0  0  0  0  0
    1.4420   24.8900   35.1334 H   0  0  0  0  0  0  0  0  0  0  0  0
    4.1444   14.1270   36.5884 H   0  0  0  0  0  0  0  0  0  0  0  0
    1.0585   29.7434   35.8439 H   0  0  0  0  0  0  0  0  0  0  0  0
    2.1566   16.0568   40.2061 H   0  0  0  0  0  0  0  0  0  0  0  0
    4.1745   23.2690   35.0854 H   0  0  0  0  0  0  0  0  0  0  0  0
    3.3238   23.1688   33.4915 H   0  0  0  0  0  0  0  0  0  0  0  0
    2.9299   22.3795   36.1903 H   0  0  0  0  0  0  0  0  0  0  0  0
    3.3377   26.4579   31.8031 H   0  0  0  0  0  0  0  0  0  0  0  0
    2.2206   25.1428   31.9809 H   0  0  0  0  0  0  0  0  0  0  0  0
    2.2266   20.7861   39.4680 H   0  0  0  0  0  0  0  0  0  0  0  0
   -0.0466   28.2129   32.0313 H   0  0  0  0  0  0  0  0  0  0  0  0
    1.8009   28.7455   31.8906 H   0  0  0  0  0  0  0  0  0  0  0  0
    0.4362   26.4114   30.9000 H   0  0  0  0  0  0  0  0  0  0  0  0
    1.6795   27.3374   30.1960 H   0  0  0  0  0  0  0  0  0  0  0  0
    4.1140   25.5549   34.7479 H   0  0  0  0  0  0  0  0  0  0  0  0
    3.0243   25.4498   33.4718 H   0  0  0  0  0  0  0  0  0  0  0  0
    1.1111   16.9949   41.3131 H   0  0  0  0  0  0  0  0  0  0  0  0
    0.4247   18.1044   43.3374 H   0  0  0  0  0  0  0  0  0  0  0  0
    4.3891   19.9053   38.0467 H   0  0  0  0  0  0  0  0  0  0  0  0
    2.4307   19.9301   38.0451 H   0  0  0  0  0  0  0  0  0  0  0  0
    1.2883   23.6139   34.9477 H   0  0  0  0  0  0  0  0  0  0  0  0
    2.6439   14.3083   40.5551 H   0  0  0  0  0  0  0  0  0  0  0  0
    2.9489   12.6790   39.8631 H   0  0  0  0  0  0  0  0  0  0  0  0
    4.3070   13.8368   40.0672 H   0  0  0  0  0  0  0  0  0  0  0  0
    2.6729   14.8511   36.0104 H   0  0  0  0  0  0  0  0  0  0  0  0
    2.7178   15.9195   34.7978 H   0  0  0  0  0  0  0  0  0  0  0  0
    1.5257   21.7526   41.8132 H   0  0  0  0  0  0  0  0  0  0  0  0
  1  9  2  0
  1  6  1  0
  4 26  1  0
  5 17  1  0
  6 31  2  0
  7  9  1  0
  8 10  2  0
  9 23  1  0
 10 32  1  0
 12 28  1  0
 13 27  1  0
 14  2  1  0
 14  4  1  0
 15  5  1  0
 16 25  2  0
 17  3  1  0
 17 32  2  0
 18 20  1  0
 18 33  2  0
 19 29  1  0
 20 24  2  0
 21 19  1  0
 21 15  1  0
 22 13  1  0
 22  3  1  0
 23 12  1  0
 23 11  2  0
 24 25  1  0
 26  6  1  0
 27  2  2  3
 29  5  2  0
 29  8  1  0
 31 11  1  0
 31 20  1  0
 33 16  1  0
 34 14  1  0
 34  4  1  0
  1 35  1  0
  2 36  1  0
  3 37  1  0
  3 38  1  0
  7 39  1  0
 10 40  1  0
 11 41  1  0
 13 42  1  0
 13 43  1  0
 14 44  1  1
 15 45  1  0
 15 46  1  0
 18 47  1  0
 19 48  1  0
 19 49  1  0
 21 50  1  0
 21 51  1  0
 22 52  1  0
 22 53  1  0
 24 54  1  0
 25 55  1  0
 26 56  1  0
 26 57  1  0
 27 58  1  0
 28 59  1  0
 28 60  1  0
 28 61  1  0
 30 62  1  0
 30 63  1  0
 33 64  1  0
M  CHG  1  22   1
M  END
>  <mol_id>  (61) 
2026-09-16-6tgu-s0-n100-0061

>  <rmsd_to_ref>  (61) 


$$$$

     RDKit          3D

 28 28  0  0  0  0  0  0  0  0999 V2000
    1.6565   20.1593   41.3705 C   0  0  0  0  0  0  0  0  0  0  0  0
    3.7143   18.6440   40.0628 C   0  0  0  0  0  0  0  0  0  0  0  0
    2.1126   22.4994   34.9919 O   0  0  0  0  0  0  0  0  0  0  0  0
    3.0412   19.6365   39.3721 C   0  0  0  0  0  0  0  0  0  0  0  0
    3.8386   20.8750   35.5547 C   0  0  0  0  0  0  0  0  0  0  0  0
    3.0807   21.8445   34.6247 C   0  0  0  0  0  0  0  0  0  0  0  0
    3.4581   19.7665   37.8973 C   0  0  0  0  0  0  0  0  0  0  0  0
    2.0261   20.4694   40.0017 C   0  0  0  0  0  0  0  0  0  0  0  0
    3.5623   23.5036   32.8028 C   0  0  0  0  0  0  0  0  0  0  0  0
    3.2368   21.0239   36.9565 C   0  0  0  0  0  0  0  0  0  0  0  0
    3.3581   18.3549   41.3731 C   0  0  0  0  0  0  0  0  0  0  0  0
    3.7322   22.0276   33.3748 N   0  0  0  0  0  0  0  0  0  0  0  0
    2.3249   19.1460   42.0366 C   0  0  0  0  0  0  0  0  0  0  0  0
    0.8556   20.7222   41.8724 H   0  0  0  0  0  0  0  0  0  0  0  0
    4.5279   18.0866   39.5757 H   0  0  0  0  0  0  0  0  0  0  0  0
    4.9081   21.1316   35.5749 H   0  0  0  0  0  0  0  0  0  0  0  0
    3.7433   19.8388   35.1980 H   0  0  0  0  0  0  0  0  0  0  0  0
    4.5447   19.5950   37.8923 H   0  0  0  0  0  0  0  0  0  0  0  0
    2.7340   19.0734   37.4442 H   0  0  0  0  0  0  0  0  0  0  0  0
    1.5565   21.3034   39.4595 H   0  0  0  0  0  0  0  0  0  0  0  0
    3.5577   24.2215   33.6363 H   0  0  0  0  0  0  0  0  0  0  0  0
    4.3985   23.7331   32.1259 H   0  0  0  0  0  0  0  0  0  0  0  0
    2.6135   23.5761   32.2512 H   0  0  0  0  0  0  0  0  0  0  0  0
    3.6964   21.8997   37.4377 H   0  0  0  0  0  0  0  0  0  0  0  0
    2.1502   21.1312   36.8236 H   0  0  0  0  0  0  0  0  0  0  0  0
    3.8527   17.5322   41.9102 H   0  0  0  0  0  0  0  0  0  0  0  0
    4.2577   21.2853   32.8911 H   0  0  0  0  0  0  0  0  0  0  0  0
    2.0729   18.9325   43.0858 H   0  0  0  0  0  0  0  0  0  0  0  0
  1 13  2  0
  2 11  2  0
  4  2  1  0
  4  8  2  0
  5 10  1  0
  6  3  2  0
  6  5  1  0
  7  4  1  0
  8  1  1  0
  9 12  1  0
 10  7  1  0
 11 13  1  0
 12  6  1  0
  1 14  1  0
  2 15  1  0
  5 16  1  0
  5 17  1  0
  7 18  1  0
  7 19  1  0
  8 20  1  0
  9 21  1  0
  9 22  1  0
  9 23  1  0
 10 24  1  0
 10 25  1  0
 11 26  1  0
 12 27  1  0
 13 28  1  0
M  END
>  <mol_id>  (62) 
2026-09-16-6tgu-s0-n100-0062

>  <rmsd_to_ref>  (62) 


$$$$

     RDKit          3D

 51 51  0  0  0  0  0  0  0  0999 V2000
    0.9369   19.6157   40.8257 C   0  0  0  0  0  0  0  0  0  0  0  0
    3.0560   21.3924   35.3925 C   0  0  2  0  0  0  0  0  0  0  0  0
    2.9713   13.6352   37.4561 C   0  0  0  0  0  0  0  0  0  0  0  0
    0.9297   20.5193   39.9997 O   0  0  0  0  0  0  0  0  0  0  0  0
    2.2608   23.3971   33.5548 O   0  0  0  0  0  0  0  0  0  0  0  0
    3.4523   20.2590   36.2031 C   0  0  0  0  0  0  0  0  0  0  0  0
    0.3105   19.9046   41.9912 N   0  0  0  0  0  0  0  0  0  0  0  0
    2.3840   17.4916   39.8959 C   0  0  0  0  0  0  0  0  0  0  0  0
    3.5901   15.5207   39.5646 O   0  0  0  0  0  0  0  0  0  0  0  0
    3.2473   17.7944   38.7813 C   0  0  0  0  0  0  0  0  0  0  0  0
    2.8831   19.9828   37.4516 C   0  0  0  0  0  0  0  0  0  0  0  0
    1.8236   15.3836   41.0836 O   0  0  0  0  0  0  0  0  0  0  0  0
    3.1691   12.5741   36.9544 O   0  0  0  0  0  0  0  0  0  0  0  0
    2.4817   16.0172   40.3376 C   0  0  0  0  0  0  0  0  0  0  0  0
    2.9701   18.5639   37.9396 C   0  0  0  0  0  0  0  0  0  0  0  0
    1.7915   22.0534   35.5480 C   0  0  0  0  0  0  0  0  0  0  0  0
    3.0622   22.3848   33.0105 C   0  0  2  0  0  0  0  0  0  0  0  0
    4.5567   12.3826   38.5088 O   0  0  0  0  0  0  0  0  0  0  0  0
    2.1131   23.4584   34.9656 C   0  0  0  0  0  0  0  0  0  0  0  0
    3.9425   13.5261   38.1472 C   0  0  2  0  0  0  0  0  0  0  0  0
    3.8224   21.6451   34.0915 C   0  0  0  0  0  0  0  0  0  0  0  0
    2.1400   14.5617   37.1981 F   0  0  0  0  0  0  0  0  0  0  0  0
    3.9169   22.8432   31.8857 C   0  0  0  0  0  0  0  0  0  0  0  0
    4.0128   14.2142   39.5064 C   0  0  0  0  0  0  0  0  0  0  0  0
    1.4484   18.2672   40.6357 C   0  0  0  0  0  0  0  0  0  0  0  0
    3.5032   22.0485   36.1537 H   0  0  0  0  0  0  0  0  0  0  0  0
    3.2759   19.3666   35.5846 H   0  0  0  0  0  0  0  0  0  0  0  0
    4.4793   20.5355   36.4839 H   0  0  0  0  0  0  0  0  0  0  0  0
    0.2693   19.2007   42.7420 H   0  0  0  0  0  0  0  0  0  0  0  0
   -0.1246   20.8283   42.1267 H   0  0  0  0  0  0  0  0  0  0  0  0
    4.1899   18.1543   39.2196 H   0  0  0  0  0  0  0  0  0  0  0  0
    3.2203   16.8463   38.2241 H   0  0  0  0  0  0  0  0  0  0  0  0
    3.3848   20.6209   38.1940 H   0  0  0  0  0  0  0  0  0  0  0  0
    1.8077   20.1775   37.3260 H   0  0  0  0  0  0  0  0  0  0  0  0
    1.9195   18.2738   37.7907 H   0  0  0  0  0  0  0  0  0  0  0  0
    4.0139   18.5307   37.5940 H   0  0  0  0  0  0  0  0  0  0  0  0
    0.9999   21.5501   34.9735 H   0  0  0  0  0  0  0  0  0  0  0  0
    1.4132   22.0680   36.5808 H   0  0  0  0  0  0  0  0  0  0  0  0
    2.3823   21.6550   32.5467 H   0  0  0  0  0  0  0  0  0  0  0  0
    4.5058   12.2773   39.4919 H   0  0  0  0  0  0  0  0  0  0  0  0
    3.0488   23.8279   35.4105 H   0  0  0  0  0  0  0  0  0  0  0  0
    1.2816   24.1380   35.2040 H   0  0  0  0  0  0  0  0  0  0  0  0
    4.4108   13.9897   37.2663 H   0  0  0  0  0  0  0  0  0  0  0  0
    4.1254   20.6695   33.6836 H   0  0  0  0  0  0  0  0  0  0  0  0
    4.6648   22.2981   34.3637 H   0  0  0  0  0  0  0  0  0  0  0  0
    4.7570   23.4334   32.2805 H   0  0  0  0  0  0  0  0  0  0  0  0
    4.3061   21.9700   31.3414 H   0  0  0  0  0  0  0  0  0  0  0  0
    3.3208   23.4655   31.2022 H   0  0  0  0  0  0  0  0  0  0  0  0
    3.3934   13.6331   40.2054 H   0  0  0  0  0  0  0  0  0  0  0  0
    5.0836   14.2479   39.7556 H   0  0  0  0  0  0  0  0  0  0  0  0
    0.9101   17.5955   41.3206 H   0  0  0  0  0  0  0  0  0  0  0  0
  1  7  1  0
  2 16  1  0
  2  6  1  0
  3 20  1  0
  4  1  2  0
  5 19  1  0
  6 11  1  0
  8 14  1  0
  8 25  2  3
  9 14  1  0
 10  8  1  0
 11 15  1  0
 13  3  2  0
 14 12  2  0
 15 10  1  0
 17 23  1  0
 17  5  1  0
 17 21  1  0
 19 16  1  0
 20 18  1  0
 20 24  1  0
 21  2  1  0
 22  3  1  0
 24  9  1  0
 25  1  1  0
  2 26  1  1
  6 27  1  0
  6 28  1  0
  7 29  1  0
  7 30  1  0
 10 31  1  0
 10 32  1  0
 11 33  1  0
 11 34  1  0
 15 35  1  0
 15 36  1  0
 16 37  1  0
 16 38  1  0
 17 39  1  6
 18 40  1  0
 19 41  1  0
 19 42  1  0
 20 43  1  6
 21 44  1  0
 21 45  1  0
 23 46  1  0
 23 47  1  0
 23 48  1  0
 24 49  1  0
 24 50  1  0
 25 51  1  0
M  END
>  <mol_id>  (63) 
2026-09-16-6tgu-s0-n100-0063

>  <rmsd_to_ref>  (63) 


$$$$

     RDKit          3D

 50 51  0  0  0  0  0  0  0  0999 V2000
    1.6801   15.7119   39.0427 C   0  0  0  0  0  0  0  0  0  0  0  0
    1.4222   14.5590   38.5216 N   0  0  0  0  0  0  0  0  0  0  0  0
    1.9643   14.0653   37.2895 C   0  0  0  0  0  0  0  0  0  0  0  0
    2.1503   23.5621   34.4493 C   0  0  0  0  0  0  0  0  0  0  0  0
    2.5970   20.8604   36.7772 C   0  0  0  0  0  0  0  0  0  0  0  0
    1.7035   22.2442   34.8007 C   0  0  0  0  0  0  0  0  0  0  0  0
    3.2507   28.0648   31.9562 C   0  0  0  0  0  0  0  0  0  0  0  0
    1.5635   26.5696   32.5221 C   0  0  0  0  0  0  0  0  0  0  0  0
    2.4101   25.4308   33.0392 C   0  0  0  0  0  0  0  0  0  0  0  0
    4.2981   26.0099   31.4056 C   0  0  0  0  0  0  0  0  0  0  0  0
    1.8203   19.6080   37.0755 O   0  0  0  0  0  0  0  0  0  0  0  0
    2.0326   24.6737   34.1969 C   0  0  0  0  0  0  0  0  0  0  0  0
    1.6523   16.9702   40.1064 C   0  0  0  0  0  0  0  0  0  0  0  0
    2.3419   18.6157   37.7876 C   0  0  0  0  0  0  0  0  0  0  0  0
    3.4991   25.1316   32.1077 C   0  0  0  0  0  0  0  0  0  0  0  0
    1.9653   27.8237   31.9776 C   0  0  0  0  0  0  0  0  0  0  0  0
    0.2799   20.4806   40.5904 C   0  0  0  0  0  0  0  0  0  0  0  0
    1.5292   18.5148   40.1459 C   0  0  0  0  0  0  0  0  0  0  0  0
    3.4098   13.7297   36.9836 O   0  0  0  0  0  0  0  0  0  0  0  0
    1.6861   22.0085   36.3133 C   0  0  0  0  0  0  0  0  0  0  0  0
    2.4517   18.9085   39.2014 O   0  0  0  0  0  0  0  0  0  0  0  0
    3.1286   17.6081   37.4335 C   0  0  0  0  0  0  0  0  0  0  0  0
    2.9306   16.2661   38.0331 C   0  0  0  0  0  0  0  0  0  0  0  0
    4.2596   27.3291   31.5071 C   0  0  0  0  0  0  0  0  0  0  0  0
    0.7047   19.0807   40.8824 O   0  0  0  0  0  0  0  0  0  0  0  0
    1.2495   13.6665   36.5125 O   0  0  0  0  0  0  0  0  0  0  0  0
    0.7738   13.9435   39.0329 H   0  0  0  0  0  0  0  0  0  0  0  0
    2.8568   23.6893   35.2827 H   0  0  0  0  0  0  0  0  0  0  0  0
    1.8484   23.3408   33.4150 H   0  0  0  0  0  0  0  0  0  0  0  0
    3.1274   21.1745   37.6882 H   0  0  0  0  0  0  0  0  0  0  0  0
    3.3014   20.6364   35.9626 H   0  0  0  0  0  0  0  0  0  0  0  0
    0.6845   22.1028   34.4109 H   0  0  0  0  0  0  0  0  0  0  0  0
    2.4112   21.5259   34.3612 H   0  0  0  0  0  0  0  0  0  0  0  0
    3.5434   29.0367   32.3800 H   0  0  0  0  0  0  0  0  0  0  0  0
    0.4768   26.4070   32.5734 H   0  0  0  0  0  0  0  0  0  0  0  0
    5.0271   25.5785   30.7038 H   0  0  0  0  0  0  0  0  0  0  0  0
    2.5497   25.1846   35.0225 H   0  0  0  0  0  0  0  0  0  0  0  0
    0.9535   24.6447   33.9859 H   0  0  0  0  0  0  0  0  0  0  0  0
    1.7558   16.5851   41.1315 H   0  0  0  0  0  0  0  0  0  0  0  0
    3.7082   24.0638   31.9460 H   0  0  0  0  0  0  0  0  0  0  0  0
    1.4863   28.6153   32.5725 H   0  0  0  0  0  0  0  0  0  0  0  0
    1.6563   27.7957   30.9222 H   0  0  0  0  0  0  0  0  0  0  0  0
    0.0100   20.9854   41.5298 H   0  0  0  0  0  0  0  0  0  0  0  0
    1.1071   21.0218   40.1079 H   0  0  0  0  0  0  0  0  0  0  0  0
   -0.5908   20.4670   39.9183 H   0  0  0  0  0  0  0  0  0  0  0  0
    2.0139   22.9330   36.8113 H   0  0  0  0  0  0  0  0  0  0  0  0
    0.6569   21.7261   36.5798 H   0  0  0  0  0  0  0  0  0  0  0  0
    3.9280   17.7678   36.6950 H   0  0  0  0  0  0  0  0  0  0  0  0
    3.7039   15.5226   37.7897 H   0  0  0  0  0  0  0  0  0  0  0  0
    5.1596   27.8733   31.1849 H   0  0  0  0  0  0  0  0  0  0  0  0
  1 13  1  0
  2  1  1  0
  3  2  1  0
  4  6  1  0
  5 11  1  0
  6 20  1  0
  7 16  1  0
  8  9  2  0
  9 12  1  0
 10 24  1  0
 10 15  2  0
 11 14  1  0
 12  4  1  0
 13 18  2  0
 14 21  1  0
 15  9  1  0
 16  8  1  0
 17 25  1  0
 18 25  1  0
 19  3  1  0
 20  5  1  0
 21 18  1  0
 22 14  2  0
 22 23  1  0
 23  1  2  0
 24  7  2  0
 26  3  2  0
  2 27  1  0
  4 28  1  0
  4 29  1  0
  5 30  1  0
  5 31  1  0
  6 32  1  0
  6 33  1  0
  7 34  1  0
  8 35  1  0
 10 36  1  0
 12 37  1  0
 12 38  1  0
 13 39  1  0
 15 40  1  0
 16 41  1  0
 16 42  1  0
 17 43  1  0
 17 44  1  0
 17 45  1  0
 20 46  1  0
 20 47  1  0
 22 48  1  0
 23 49  1  0
 24 50  1  0
M  CHG  1  19  -1
M  END
>  <mol_id>  (64) 
2026-09-16-6tgu-s0-n100-0064

>  <rmsd_to_ref>  (64) 


$$$$

     RDKit          3D

 74 77  0  0  0  0  0  0  0  0999 V2000
    3.7080   24.5510   32.5580 C   0  0  0  0  0  0  0  0  0  0  0  0
    2.3570   14.7620   40.4320 C   0  0  2  0  0  0  0  0  0  0  0  0
    1.8170   13.6230   42.4650 O   0  0  0  0  0  0  0  0  0  0  0  0
    2.1950   19.3500   40.1400 C   0  0  0  0  0  0  0  0  0  0  0  0
    2.9460   18.4580   39.5980 N   0  0  0  0  0  0  0  0  0  0  0  0
    3.2040   23.4380   33.4820 C   0  0  0  0  0  0  0  0  0  0  0  0
    1.1500   21.1430   41.2320 C   0  0  0  0  0  0  0  0  0  0  0  0
    2.5450   12.5160   40.7390 O   0  0  0  0  0  0  0  0  0  0  0  0
    4.9860   22.9180   31.3090 O   0  0  0  0  0  0  0  0  0  0  0  0
    3.0070   15.9250   38.6260 C   0  0  2  0  0  0  0  0  0  0  0  0
    3.6320   19.6270   36.7410 N   0  0  0  0  0  0  0  0  0  0  0  0
    3.1040   24.5830   29.7970 S   0  0  1  0  0  4  0  0  0  0  0  0
    2.1160   14.9490   36.5910 N   0  0  0  0  0  0  0  0  0  0  0  0
    2.6340   16.1760   37.1720 C   0  0  2  0  0  0  0  0  0  0  0  0
    2.1710   25.7290   30.4520 C   0  0  0  0  0  0  0  0  0  0  0  0
    5.4950   24.0080   28.6550 C   0  0  0  0  0  0  0  0  0  0  0  0
    3.9440   22.2280   33.1340 O   0  0  0  0  0  0  0  0  0  0  0  0
    5.2340   22.6610   32.6320 C   0  0  0  0  0  0  0  0  0  0  0  0
    2.0130   23.3950   29.4940 C   0  0  0  0  0  0  0  0  0  0  0  0
    2.8690   20.7490   37.1180 C   0  0  0  0  0  0  0  0  0  0  0  0
    1.6270   16.0800   40.9750 C   0  0  0  0  0  0  0  0  0  0  0  0
    1.4530   19.7210   41.2990 C   0  0  0  0  0  0  0  0  0  0  0  0
    4.1860   23.3710   28.8570 C   0  0  2  0  0  0  0  0  0  0  0  0
    2.2200   20.4110   39.2460 C   0  0  0  0  0  0  0  0  0  0  0  0
    0.5660   21.7020   42.2430 N   0  0  0  0  0  0  0  0  0  0  0  0
    2.7820   22.8160   28.2770 C   0  0  0  0  0  0  0  0  0  0  0  0
    3.9810   16.5180   37.6440 N   0  0  0  0  0  0  0  0  0  0  0  0
    3.4030   19.0000   38.0970 C   0  0  2  0  0  0  0  0  0  0  0  0
    1.5610   21.6670   39.9260 S   0  0  0  0  0  0  0  0  0  0  0  0
    2.9250   20.2590   38.1580 C   0  0  1  0  0  0  0  0  0  0  0  0
    2.2810   13.5520   41.1960 C   0  0  0  0  0  0  0  0  0  0  0  0
    4.0530   23.9810   31.2020 C   0  0  1  0  0  0  0  0  0  0  0  0
    3.3940   14.6010   39.2820 C   0  0  0  0  0  0  0  0  0  0  0  0
    2.9228   25.3129   32.4437 H   0  0  0  0  0  0  0  0  0  0  0  0
    4.6080   25.0054   32.9980 H   0  0  0  0  0  0  0  0  0  0  0  0
    1.6396   15.3314   39.8228 H   0  0  0  0  0  0  0  0  0  0  0  0
    3.2178   17.5600   40.0229 H   0  0  0  0  0  0  0  0  0  0  0  0
    3.3899   23.7058   34.5326 H   0  0  0  0  0  0  0  0  0  0  0  0
    2.1215   23.2856   33.3596 H   0  0  0  0  0  0  0  0  0  0  0  0
    2.4857   16.1698   39.5632 H   0  0  0  0  0  0  0  0  0  0  0  0
    3.2302   19.0910   35.9586 H   0  0  0  0  0  0  0  0  0  0  0  0
    4.5899   19.7494   36.3827 H   0  0  0  0  0  0  0  0  0  0  0  0
    1.8426   14.3014   37.3438 H   0  0  0  0  0  0  0  0  0  0  0  0
    1.2943   15.1650   36.0087 H   0  0  0  0  0  0  0  0  0  0  0  0
    2.8439   14.5109   36.0087 H   0  0  0  0  0  0  0  0  0  0  0  0
    2.0103   16.7765   36.4935 H   0  0  0  0  0  0  0  0  0  0  0  0
    2.2247   25.6631   31.5487 H   0  0  0  0  0  0  0  0  0  0  0  0
    2.5232   26.7190   30.1265 H   0  0  0  0  0  0  0  0  0  0  0  0
    1.1302   25.5849   30.1265 H   0  0  0  0  0  0  0  0  0  0  0  0
    5.9497   24.2293   29.6319 H   0  0  0  0  0  0  0  0  0  0  0  0
    6.1505   23.3281   28.0910 H   0  0  0  0  0  0  0  0  0  0  0  0
    5.3645   24.9433   28.0910 H   0  0  0  0  0  0  0  0  0  0  0  0
    5.9876   21.8677   32.7450 H   0  0  0  0  0  0  0  0  0  0  0  0
    5.6367   23.5307   33.1719 H   0  0  0  0  0  0  0  0  0  0  0  0
    1.9178   22.6778   30.3226 H   0  0  0  0  0  0  0  0  0  0  0  0
    0.9638   23.6894   29.3439 H   0  0  0  0  0  0  0  0  0  0  0  0
    3.3736   21.7218   37.0223 H   0  0  0  0  0  0  0  0  0  0  0  0
    1.9318   21.0510   36.6277 H   0  0  0  0  0  0  0  0  0  0  0  0
    1.6302   16.0742   42.0750 H   0  0  0  0  0  0  0  0  0  0  0  0
    2.1604   16.9707   40.6115 H   0  0  0  0  0  0  0  0  0  0  0  0
    0.5890   16.1004   40.6115 H   0  0  0  0  0  0  0  0  0  0  0  0
    1.1572   19.0423   42.1126 H   0  0  0  0  0  0  0  0  0  0  0  0
    4.8475   22.4921   28.8514 H   0  0  0  0  0  0  0  0  0  0  0  0
    0.3421   22.7070   42.2174 H   0  0  0  0  0  0  0  0  0  0  0  0
    0.3252   21.1417   43.0731 H   0  0  0  0  0  0  0  0  0  0  0  0
    2.4914   23.2622   27.3145 H   0  0  0  0  0  0  0  0  0  0  0  0
    2.6792   21.7508   28.0226 H   0  0  0  0  0  0  0  0  0  0  0  0
    4.7893   15.9633   37.3278 H   0  0  0  0  0  0  0  0  0  0  0  0
    4.5539   17.3738   37.6264 H   0  0  0  0  0  0  0  0  0  0  0  0
    4.3886   19.3581   38.4290 H   0  0  0  0  0  0  0  0  0  0  0  0
    3.4722   21.1744   38.4274 H   0  0  0  0  0  0  0  0  0  0  0  0
    4.5457   24.1698   30.2368 H   0  0  0  0  0  0  0  0  0  0  0  0
    3.2036   13.7261   38.6430 H   0  0  0  0  0  0  0  0  0  0  0  0
    4.4488   14.4322   39.5443 H   0  0  0  0  0  0  0  0  0  0  0  0
  1  6  1  0
  2 21  1  0
  2 31  1  0
  4 22  1  0
  5  4  1  0
  7 22  2  0
  7 25  1  0
  8 31  2  0
  9 18  1  0
 10 33  1  0
 11 20  1  0
 12 15  1  0
 12 32  1  0
 14 13  1  0
 14 27  1  0
 14 10  1  0
 17  6  1  0
 18 17  1  0
 19 12  1  0
 23 16  1  0
 23 12  1  0
 24 29  1  0
 24  4  2  0
 26 23  1  0
 26 19  1  0
 27 10  1  0
 28 11  1  0
 28 30  1  0
 28  5  1  0
 29  7  1  0
 30 20  1  0
 30 24  1  0
 31  3  1  0
 32  9  1  0
 32  1  1  0
 33  2  1  0
  1 34  1  0
  1 35  1  0
  2 36  1  6
  5 37  1  0
  6 38  1  0
  6 39  1  0
 10 40  1  1
 11 41  1  0
 11 42  1  0
 13 43  1  0
 13 44  1  0
 13 45  1  0
 14 46  1  1
 15 47  1  0
 15 48  1  0
 15 49  1  0
 16 50  1  0
 16 51  1  0
 16 52  1  0
 18 53  1  0
 18 54  1  0
 19 55  1  0
 19 56  1  0
 20 57  1  0
 20 58  1  0
 21 59  1  0
 21 60  1  0
 21 61  1  0
 22 62  1  0
 23 63  1  1
 25 64  1  0
 25 65  1  0
 26 66  1  0
 26 67  1  0
 27 68  1  0
 27 69  1  0
 28 70  1  1
 30 71  1  1
 32 72  1  6
 33 73  1  0
 33 74  1  0
M  CHG  4   3  -1  11   1  13   1  27   1
M  END
>  <mol_id>  (65) 
2026-09-16-6tgu-s0-n100-0065

>  <rmsd_to_ref>  (65) 


$$$$

     RDKit          3D

 60 61  0  0  0  0  0  0  0  0999 V2000
    0.1112   20.5786   43.1687 C   0  0  2  0  0  0  0  0  0  0  0  0
    3.0183   25.0495   31.4353 C   0  0  0  0  0  0  0  0  0  0  0  0
    3.4026   22.3296   34.1967 C   0  0  0  0  0  0  0  0  0  0  0  0
    4.6302   24.4671   29.6520 C   0  0  0  0  0  0  0  0  0  0  0  0
    2.0575   20.7260   39.2142 C   0  0  0  0  0  0  0  0  0  0  0  0
    4.3985   22.8371   32.0937 C   0  0  0  0  0  0  0  0  0  0  0  0
    2.6002   18.7347   37.6324 C   0  0  0  0  0  0  0  0  0  0  0  0
    2.4770   24.5370   29.2451 F   0  0  0  0  0  0  0  0  0  0  0  0
    3.6758   21.7483   33.0232 N   0  0  0  0  0  0  0  0  0  0  0  0
    2.3328   19.3313   39.0800 N   0  0  0  0  0  0  0  0  0  0  0  0
    1.6473   19.7726   41.2841 C   0  0  1  0  0  0  0  0  0  0  0  0
    3.6689   21.5297   35.3352 C   0  0  0  0  0  0  0  0  0  0  0  0
    2.9540   19.7940   36.9204 C   0  0  0  0  0  0  0  0  0  0  0  0
    3.3017   20.5133   36.0328 C   0  0  0  0  0  0  0  0  0  0  0  0
   -0.0621   18.2538   42.5368 C   0  0  0  0  0  0  0  0  0  0  0  0
    2.3121   18.7114   40.3433 C   0  0  0  0  0  0  0  0  0  0  0  0
   -0.9997   19.0382   44.6521 C   0  0  0  0  0  0  0  0  0  0  0  0
    0.7335   21.8256   43.0680 O   0  0  0  0  0  0  0  0  0  0  0  0
    4.9860   24.6019   28.1990 C   0  0  0  0  0  0  0  0  0  0  0  0
   -0.9104   17.9838   43.7531 C   0  0  0  0  0  0  0  0  0  0  0  0
    3.3359   24.7451   30.0827 C   0  0  1  0  0  0  0  0  0  0  0  0
    2.8541   17.5706   40.6745 O   0  0  0  0  0  0  0  0  0  0  0  0
    3.8185   24.1128   32.5207 C   0  0  0  0  0  0  0  0  0  0  0  0
   -0.7909   20.4430   44.2089 C   0  0  0  0  0  0  0  0  0  0  0  0
    1.5012   20.9119   40.4096 C   0  0  0  0  0  0  0  0  0  0  0  0
    0.4946   19.4495   42.3642 C   0  0  0  0  0  0  0  0  0  0  0  0
   -0.3773   20.5015   42.1862 H   0  0  0  0  0  0  0  0  0  0  0  0
    1.9375   24.9054   31.5804 H   0  0  0  0  0  0  0  0  0  0  0  0
    3.3272   26.0899   31.6149 H   0  0  0  0  0  0  0  0  0  0  0  0
    2.3349   22.5935   34.2068 H   0  0  0  0  0  0  0  0  0  0  0  0
    4.0678   23.2025   34.2706 H   0  0  0  0  0  0  0  0  0  0  0  0
    5.3003   25.1406   30.2063 H   0  0  0  0  0  0  0  0  0  0  0  0
    4.7302   23.3872   29.8364 H   0  0  0  0  0  0  0  0  0  0  0  0
    1.3648   21.0496   38.4234 H   0  0  0  0  0  0  0  0  0  0  0  0
    2.9827   21.3137   39.1223 H   0  0  0  0  0  0  0  0  0  0  0  0
    4.1850   22.6472   31.0315 H   0  0  0  0  0  0  0  0  0  0  0  0
    5.4938   22.8170   32.1932 H   0  0  0  0  0  0  0  0  0  0  0  0
    3.4094   17.9901   37.6576 H   0  0  0  0  0  0  0  0  0  0  0  0
    1.7258   18.2125   37.2167 H   0  0  0  0  0  0  0  0  0  0  0  0
    2.8030   21.4311   32.5776 H   0  0  0  0  0  0  0  0  0  0  0  0
    4.2863   20.9301   33.1603 H   0  0  0  0  0  0  0  0  0  0  0  0
    2.2902   19.9182   42.1648 H   0  0  0  0  0  0  0  0  0  0  0  0
    4.7093   21.2430   35.1219 H   0  0  0  0  0  0  0  0  0  0  0  0
    3.0328   22.1848   35.9485 H   0  0  0  0  0  0  0  0  0  0  0  0
    0.0969   17.4611   41.7910 H   0  0  0  0  0  0  0  0  0  0  0  0
   -2.0094   18.9942   45.0865 H   0  0  0  0  0  0  0  0  0  0  0  0
   -0.1400   18.8636   45.3158 H   0  0  0  0  0  0  0  0  0  0  0  0
    0.9481   22.1614   43.9742 H   0  0  0  0  0  0  0  0  0  0  0  0
    6.0797   24.6532   28.0925 H   0  0  0  0  0  0  0  0  0  0  0  0
    4.6042   23.7313   27.6456 H   0  0  0  0  0  0  0  0  0  0  0  0
    4.5347   25.5200   27.7946 H   0  0  0  0  0  0  0  0  0  0  0  0
   -1.9272   17.7389   43.4123 H   0  0  0  0  0  0  0  0  0  0  0  0
   -0.4203   17.1602   44.2930 H   0  0  0  0  0  0  0  0  0  0  0  0
    3.3292   25.8000   30.3948 H   0  0  0  0  0  0  0  0  0  0  0  0
    4.6444   24.7209   32.9184 H   0  0  0  0  0  0  0  0  0  0  0  0
    3.0307   23.8111   33.2266 H   0  0  0  0  0  0  0  0  0  0  0  0
   -0.4199   21.0241   45.0660 H   0  0  0  0  0  0  0  0  0  0  0  0
   -1.7606   20.8061   43.8375 H   0  0  0  0  0  0  0  0  0  0  0  0
    1.9765   21.7822   40.8856 H   0  0  0  0  0  0  0  0  0  0  0  0
    0.4240   21.0677   40.2501 H   0  0  0  0  0  0  0  0  0  0  0  0
  1 18  1  0
  1 24  1  0
  2 23  1  0
  3 12  1  0
  4 21  1  0
  5 25  1  0
  6 23  1  0
  6  9  1  0
  7 10  1  0
  9  3  1  0
 10  5  1  0
 10 16  1  0
 11 26  1  0
 12 14  1  0
 13  7  1  0
 14 13  3  0
 15 20  1  0
 16 22  2  0
 16 11  1  0
 19  4  1  0
 20 17  1  0
 21  8  1  0
 21  2  1  0
 24 17  1  0
 25 11  1  0
 26 15  2  0
 26  1  1  0
  1 27  1  6
  2 28  1  0
  2 29  1  0
  3 30  1  0
  3 31  1  0
  4 32  1  0
  4 33  1  0
  5 34  1  0
  5 35  1  0
  6 36  1  0
  6 37  1  0
  7 38  1  0
  7 39  1  0
  9 40  1  0
  9 41  1  0
 11 42  1  1
 12 43  1  0
 12 44  1  0
 15 45  1  0
 17 46  1  0
 17 47  1  0
 18 48  1  0
 19 49  1  0
 19 50  1  0
 19 51  1  0
 20 52  1  0
 20 53  1  0
 21 54  1  6
 23 55  1  0
 23 56  1  0
 24 57  1  0
 24 58  1  0
 25 59  1  0
 25 60  1  0
M  CHG  1   9   1
M  END
>  <mol_id>  (66) 
2026-09-16-6tgu-s0-n100-0066

>  <rmsd_to_ref>  (66) 


$$$$

     RDKit          3D

 58 60  0  0  0  0  0  0  0  0999 V2000
    5.3245   25.0743   30.3549 N   0  0  0  0  0  0  0  0  0  0  0  0
    2.6540   15.0449   39.6445 O   0  0  0  0  0  0  0  0  0  0  0  0
    4.6796   23.2524   29.2611 C   0  0  0  0  0  0  0  0  0  0  0  0
   -1.5625   18.7828   43.0350 C   0  0  0  0  0  0  0  0  0  0  0  0
    2.1162   15.6373   40.7176 C   0  0  0  0  0  0  0  0  0  0  0  0
    2.8995   19.2584   40.2720 C   0  0  0  0  0  0  0  0  0  0  0  0
    0.3949   17.7951   42.4320 C   0  0  0  0  0  0  0  0  0  0  0  0
    1.2529   20.9774   40.4805 O   0  0  0  0  0  0  0  0  0  0  0  0
   -0.8004   17.7543   43.2859 C   0  0  0  0  0  0  0  0  0  0  0  0
    3.9051   23.7911   32.0004 C   0  0  2  0  0  0  0  0  0  0  0  0
    1.2418   16.6583   42.3789 N   0  0  0  0  0  0  0  0  0  0  0  0
    1.5819   19.8657   40.7575 C   0  0  0  0  0  0  0  0  0  0  0  0
    3.1662   20.2098   38.0130 C   0  0  0  0  0  0  0  0  0  0  0  0
    2.9439   19.1356   38.6632 C   0  0  0  0  0  0  0  0  0  0  0  0
    1.3809   15.7192   41.9323 O   0  0  0  0  0  0  0  0  0  0  0  0
    2.4156   21.0773   37.2275 C   0  0  0  0  0  0  0  0  0  0  0  0
    2.8148   24.9092   29.7703 C   0  0  0  0  0  0  0  0  0  0  0  0
    6.0973   24.9760   30.9068 F   0  0  0  0  0  0  0  0  0  0  0  0
    2.7369   16.4434   40.1681 O   0  0  0  0  0  0  0  0  0  0  0  0
    3.0200   23.8693   32.8055 C   0  0  1  0  0  0  0  0  0  0  0  0
    4.2634   24.0250   30.4021 C   0  0  0  0  0  0  0  0  0  0  0  0
    0.5123   19.0805   41.6701 C   0  0  1  0  0  0  0  0  0  0  0  0
   -2.8309   18.8619   43.3943 O   0  0  0  0  0  0  0  0  0  0  0  0
    2.7086   23.0136   32.0502 C   0  0  0  0  0  0  0  0  0  0  0  0
    3.1544   21.6000   36.0589 C   0  0  2  0  0  0  0  0  0  0  0  0
    2.9738   22.2769   34.7072 C   0  0  0  0  0  0  0  0  0  0  0  0
   -0.8619   20.0382   41.9994 S   0  0  0  0  0  0  0  0  0  0  0  0
    2.9073   23.5495   34.3179 C   0  0  0  0  0  0  0  0  0  0  0  0
    4.0764   20.5408   35.7368 C   0  0  0  0  0  0  0  0  0  0  0  0
    5.6542   25.1265   29.3805 H   0  0  0  0  0  0  0  0  0  0  0  0
    4.9947   22.2515   29.5912 H   0  0  0  0  0  0  0  0  0  0  0  0
    3.8406   23.1586   28.5559 H   0  0  0  0  0  0  0  0  0  0  0  0
    5.5217   23.7566   28.7643 H   0  0  0  0  0  0  0  0  0  0  0  0
    1.1966   15.8350   40.1476 H   0  0  0  0  0  0  0  0  0  0  0  0
    3.7304   19.8984   40.6037 H   0  0  0  0  0  0  0  0  0  0  0  0
    2.9872   18.2469   40.6954 H   0  0  0  0  0  0  0  0  0  0  0  0
   -1.0201   16.9720   44.0273 H   0  0  0  0  0  0  0  0  0  0  0  0
    4.9547   24.0520   32.2009 H   0  0  0  0  0  0  0  0  0  0  0  0
    2.0229   16.8160   43.0316 H   0  0  0  0  0  0  0  0  0  0  0  0
    3.5680   20.8784   38.7886 H   0  0  0  0  0  0  0  0  0  0  0  0
    3.6265   19.6963   37.1559 H   0  0  0  0  0  0  0  0  0  0  0  0
    1.9722   18.7405   38.3320 H   0  0  0  0  0  0  0  0  0  0  0  0
    3.8028   18.4834   38.4465 H   0  0  0  0  0  0  0  0  0  0  0  0
    1.5268   20.5395   36.8660 H   0  0  0  0  0  0  0  0  0  0  0  0
    2.1523   21.9398   37.8574 H   0  0  0  0  0  0  0  0  0  0  0  0
    2.1659   25.1973   30.6104 H   0  0  0  0  0  0  0  0  0  0  0  0
    3.1417   25.8118   29.2331 H   0  0  0  0  0  0  0  0  0  0  0  0
    2.2570   24.2556   29.0835 H   0  0  0  0  0  0  0  0  0  0  0  0
    2.6263   24.8429   33.1325 H   0  0  0  0  0  0  0  0  0  0  0  0
    1.0002   19.4689   42.5762 H   0  0  0  0  0  0  0  0  0  0  0  0
    1.9011   23.1689   31.3196 H   0  0  0  0  0  0  0  0  0  0  0  0
    2.4316   21.9500   32.0959 H   0  0  0  0  0  0  0  0  0  0  0  0
    3.1218   22.5843   36.5490 H   0  0  0  0  0  0  0  0  0  0  0  0
    2.8777   21.5639   33.8751 H   0  0  0  0  0  0  0  0  0  0  0  0
    2.7752   24.3560   35.0542 H   0  0  0  0  0  0  0  0  0  0  0  0
    4.3768   20.0229   36.6597 H   0  0  0  0  0  0  0  0  0  0  0  0
    3.5903   19.8258   35.0567 H   0  0  0  0  0  0  0  0  0  0  0  0
    4.9660   20.9649   35.2482 H   0  0  0  0  0  0  0  0  0  0  0  0
  1 21  1  0
  1 18  1  0
  2 19  1  0
  2  5  1  0
  3 21  1  0
  4  9  1  0
  4 23  2  0
  5 15  1  0
  6 12  1  0
  7  9  2  0
  8 12  2  0
 10 21  1  0
 10 24  1  0
 10 20  1  0
 11  7  1  0
 13 14  1  0
 14  6  1  0
 15 11  1  0
 16 13  1  0
 17 21  1  0
 19  5  1  0
 20 28  1  0
 22 12  1  0
 22 27  1  0
 22  7  1  0
 24 20  1  0
 25 29  1  0
 25 16  1  0
 26 25  1  0
 27  4  1  0
 28 26  2  3
  1 30  1  0
  3 31  1  0
  3 32  1  0
  3 33  1  0
  5 34  1  0
  6 35  1  0
  6 36  1  0
  9 37  1  0
 10 38  1  1
 11 39  1  0
 13 40  1  0
 13 41  1  0
 14 42  1  0
 14 43  1  0
 16 44  1  0
 16 45  1  0
 17 46  1  0
 17 47  1  0
 17 48  1  0
 20 49  1  1
 22 50  1  6
 24 51  1  0
 24 52  1  0
 25 53  1  1
 26 54  1  0
 28 55  1  0
 29 56  1  0
 29 57  1  0
 29 58  1  0
M  END
>  <mol_id>  (67) 
2026-09-16-6tgu-s0-n100-0067

>  <rmsd_to_ref>  (67) 


$$$$

     RDKit          3D

 70 71  0  0  0  0  0  0  0  0999 V2000
    3.2907   25.6763   30.7310 C   0  0  0  0  0  0  0  0  0  0  0  0
    5.6933   15.5418   35.5242 O   0  0  0  0  0  0  0  0  0  0  0  0
    3.9294   17.2786   36.6010 C   0  0  0  0  0  0  0  0  0  0  0  0
    0.6984   27.3162   31.2044 C   0  0  1  0  0  0  0  0  0  0  0  0
    3.6596   15.9573   36.6946 C   0  0  0  0  0  0  0  0  0  0  0  0
    1.6887   24.7834   28.0002 O   0  0  0  0  0  0  0  0  0  0  0  0
    2.6973   19.6362   38.0875 N   0  0  0  0  0  0  0  0  0  0  0  0
    2.1977   17.5889   39.4218 C   0  0  0  0  0  0  0  0  0  0  0  0
    1.9294   15.7717   40.9891 C   0  0  0  0  0  0  0  0  0  0  0  0
    3.5054   22.8199   33.9679 C   0  0  0  0  0  0  0  0  0  0  0  0
    1.6990   21.4812   35.1208 N   0  0  0  0  0  0  0  0  0  0  0  0
    1.6058   25.7173   29.2734 C   0  0  1  0  0  0  0  0  0  0  0  0
    2.9049   18.3815   38.4522 C   0  0  2  0  0  0  0  0  0  0  0  0
   -0.4390   26.6752   30.2410 C   0  0  2  0  0  0  0  0  0  0  0  0
    1.7427   20.0469   37.4290 N   0  0  0  0  0  0  0  0  0  0  0  0
    0.4353   18.8910   41.9846 N   0  0  0  0  0  0  0  0  0  0  0  0
    2.4258   16.2721   39.7158 C   0  0  0  0  0  0  0  0  0  0  0  0
    2.4516   23.5611   33.3489 O   0  0  0  0  0  0  0  0  0  0  0  0
    0.0357   25.6434   29.1732 C   0  0  1  0  0  0  0  0  0  0  0  0
    1.2115   25.9021   31.4420 O   0  0  0  0  0  0  0  0  0  0  0  0
    3.9621   20.5040   35.1320 C   0  0  0  0  0  0  0  0  0  0  0  0
    2.9553   21.3409   34.3179 C   0  0  2  0  0  0  0  0  0  0  0  0
    1.2865   16.6724   41.8927 C   0  0  0  0  0  0  0  0  0  0  0  0
    3.9249   17.9158   37.8234 O   0  0  0  0  0  0  0  0  0  0  0  0
    4.4858   15.1961   35.8508 C   0  0  0  0  0  0  0  0  0  0  0  0
   -0.2898   27.4600   27.3293 C   0  0  0  0  0  0  0  0  0  0  0  0
    0.5594   27.9315   29.8907 C   0  0  0  0  0  0  0  0  0  0  0  0
    1.0362   17.9611   41.4552 C   0  0  0  0  0  0  0  0  0  0  0  0
   -0.3540   25.9590   27.6421 C   0  0  0  0  0  0  0  0  0  0  0  0
    1.4748   18.4521   40.2364 N   0  0  0  0  0  0  0  0  0  0  0  0
    2.0681   25.7092   30.6116 C   0  0  0  0  0  0  0  0  0  0  0  0
    3.9288   14.1616   35.3512 O   0  0  0  0  0  0  0  0  0  0  0  0
    1.6002   21.1450   36.4745 C   0  0  0  0  0  0  0  0  0  0  0  0
    3.7454   25.6673   31.7326 H   0  0  0  0  0  0  0  0  0  0  0  0
    3.9304   25.6558   29.8363 H   0  0  0  0  0  0  0  0  0  0  0  0
    4.9225   17.4024   36.1445 H   0  0  0  0  0  0  0  0  0  0  0  0
    3.1372   17.7343   35.9887 H   0  0  0  0  0  0  0  0  0  0  0  0
    0.9995   27.9069   32.0822 H   0  0  0  0  0  0  0  0  0  0  0  0
    3.8177   15.6342   37.7341 H   0  0  0  0  0  0  0  0  0  0  0  0
    2.6158   15.7983   36.3862 H   0  0  0  0  0  0  0  0  0  0  0  0
    1.8117   23.8440   28.2875 H   0  0  0  0  0  0  0  0  0  0  0  0
    2.6705   20.1726   38.9664 H   0  0  0  0  0  0  0  0  0  0  0  0
    2.0480   14.7105   41.2531 H   0  0  0  0  0  0  0  0  0  0  0  0
    3.8222   23.3262   34.8917 H   0  0  0  0  0  0  0  0  0  0  0  0
    4.3671   22.7502   33.2877 H   0  0  0  0  0  0  0  0  0  0  0  0
    0.9922   20.9087   34.6376 H   0  0  0  0  0  0  0  0  0  0  0  0
    1.6047   22.5059   35.1637 H   0  0  0  0  0  0  0  0  0  0  0  0
    2.3650   26.5077   29.1796 H   0  0  0  0  0  0  0  0  0  0  0  0
    2.2472   18.0369   37.6406 H   0  0  0  0  0  0  0  0  0  0  0  0
   -1.4734   26.3559   30.4361 H   0  0  0  0  0  0  0  0  0  0  0  0
    1.4516   19.2202   36.8880 H   0  0  0  0  0  0  0  0  0  0  0  0
    0.3504   19.7938   41.4962 H   0  0  0  0  0  0  0  0  0  0  0  0
    0.0159   18.7686   42.9174 H   0  0  0  0  0  0  0  0  0  0  0  0
    2.9643   15.6163   39.0158 H   0  0  0  0  0  0  0  0  0  0  0  0
    1.8323   23.8976   34.0441 H   0  0  0  0  0  0  0  0  0  0  0  0
   -0.4450   24.6778   29.3886 H   0  0  0  0  0  0  0  0  0  0  0  0
    3.7265   20.5872   36.2032 H   0  0  0  0  0  0  0  0  0  0  0  0
    3.8974   19.4502   34.8231 H   0  0  0  0  0  0  0  0  0  0  0  0
    4.9807   20.8774   34.9505 H   0  0  0  0  0  0  0  0  0  0  0  0
    2.7818   20.8177   33.3660 H   0  0  0  0  0  0  0  0  0  0  0  0
    0.9994   16.3514   42.9049 H   0  0  0  0  0  0  0  0  0  0  0  0
   -0.2165   28.0275   28.2687 H   0  0  0  0  0  0  0  0  0  0  0  0
    0.5925   27.6673   26.7059 H   0  0  0  0  0  0  0  0  0  0  0  0
   -1.1995   27.7612   26.7890 H   0  0  0  0  0  0  0  0  0  0  0  0
    0.1446   28.9470   29.8089 H   0  0  0  0  0  0  0  0  0  0  0  0
    1.2613   28.1398   29.0697 H   0  0  0  0  0  0  0  0  0  0  0  0
    0.3468   25.4283   26.9809 H   0  0  0  0  0  0  0  0  0  0  0  0
   -1.3884   25.6222   27.4789 H   0  0  0  0  0  0  0  0  0  0  0  0
    2.2937   21.8785   36.9118 H   0  0  0  0  0  0  0  0  0  0  0  0
    0.5261   20.9351   36.3639 H   0  0  0  0  0  0  0  0  0  0  0  0
  2 25  1  0
  3  5  1  0
  3 24  1  0
  4 27  1  0
  4 20  1  0
  7 13  1  0
  8 17  2  0
  8 30  1  0
  9 23  2  0
 10 22  1  0
 11 33  1  0
 12  6  1  0
 12 31  1  0
 13 24  1  0
 13  8  1  0
 14 27  1  0
 14  4  1  0
 15  7  1  0
 17  9  1  0
 18 10  1  0
 19 29  1  0
 19 12  1  0
 19 14  1  0
 22 11  1  0
 22 21  1  0
 25  5  1  0
 26 29  1  0
 28 16  1  0
 28 23  1  0
 30 28  2  0
 31  1  2  3
 31 20  1  0
 32 25  2  0
 33 15  1  0
  1 34  1  0
  1 35  1  0
  3 36  1  0
  3 37  1  0
  4 38  1  1
  5 39  1  0
  5 40  1  0
  6 41  1  0
  7 42  1  0
  9 43  1  0
 10 44  1  0
 10 45  1  0
 11 46  1  0
 11 47  1  0
 12 48  1  6
 13 49  1  6
 14 50  1  1
 15 51  1  0
 16 52  1  0
 16 53  1  0
 17 54  1  0
 18 55  1  0
 19 56  1  1
 21 57  1  0
 21 58  1  0
 21 59  1  0
 22 60  1  6
 23 61  1  0
 26 62  1  0
 26 63  1  0
 26 64  1  0
 27 65  1  0
 27 66  1  0
 29 67  1  0
 29 68  1  0
 33 69  1  0
 33 70  1  0
M  CHG  2   2  -1  11   1
M  END
>  <mol_id>  (68) 
2026-09-16-6tgu-s0-n100-0068

>  <rmsd_to_ref>  (68) 


$$$$

     RDKit          3D

 31 32  0  0  0  0  0  0  0  0999 V2000
    3.4420   22.3810   33.7110 C   0  0  0  0  0  0  0  0  0  0  0  0
    4.5850   23.0410   33.2220 C   0  0  0  0  0  0  0  0  0  0  0  0
    2.4190   19.6880   38.0280 C   0  0  0  0  0  0  0  0  0  0  0  0
    2.9260   21.8360   35.1210 C   0  0  2  0  0  0  0  0  0  0  0  0
    4.3480   18.7490   39.1180 C   0  0  0  0  0  0  0  0  0  0  0  0
    1.3420   20.8070   40.0270 N   0  0  0  0  0  0  0  0  0  0  0  0
    3.7550   19.8910   37.8680 C   0  0  2  0  0  0  0  0  0  0  0  0
    2.9450   21.1340   38.0410 C   0  0  1  0  0  0  0  0  0  0  0  0
    1.9690   22.8510   34.0790 C   0  0  0  0  0  0  0  0  0  0  0  0
    2.4330   21.9000   36.5320 C   0  0  0  0  0  0  0  0  0  0  0  0
    4.0710   21.5690   32.6970 C   0  0  0  0  0  0  0  0  0  0  0  0
    4.4888   23.9303   32.5818 H   0  0  0  0  0  0  0  0  0  0  0  0
    5.5085   23.4641   33.6440 H   0  0  0  0  0  0  0  0  0  0  0  0
    2.0436   19.2359   38.9579 H   0  0  0  0  0  0  0  0  0  0  0  0
    1.6484   19.1563   37.4505 H   0  0  0  0  0  0  0  0  0  0  0  0
    3.4200   20.9771   35.5989 H   0  0  0  0  0  0  0  0  0  0  0  0
    4.1362   19.1569   40.1174 H   0  0  0  0  0  0  0  0  0  0  0  0
    3.8386   17.7810   39.0015 H   0  0  0  0  0  0  0  0  0  0  0  0
    5.4328   18.6088   39.0015 H   0  0  0  0  0  0  0  0  0  0  0  0
    1.3420   20.8070   41.0570 H   0  0  0  0  0  0  0  0  0  0  0  0
    1.3420   21.7781   39.6837 H   0  0  0  0  0  0  0  0  0  0  0  0
    2.1830   20.3215   39.6837 H   0  0  0  0  0  0  0  0  0  0  0  0
    0.5010   20.3215   39.6837 H   0  0  0  0  0  0  0  0  0  0  0  0
    4.6222   19.8573   37.1921 H   0  0  0  0  0  0  0  0  0  0  0  0
    3.0041   22.0210   38.6889 H   0  0  0  0  0  0  0  0  0  0  0  0
    1.7690   23.8981   34.3504 H   0  0  0  0  0  0  0  0  0  0  0  0
    0.9763   22.7949   33.6085 H   0  0  0  0  0  0  0  0  0  0  0  0
    2.4859   22.9734   36.7665 H   0  0  0  0  0  0  0  0  0  0  0  0
    1.5621   21.2476   36.3709 H   0  0  0  0  0  0  0  0  0  0  0  0
    3.6147   21.4496   31.7032 H   0  0  0  0  0  0  0  0  0  0  0  0
    4.4773   20.5507   32.6077 H   0  0  0  0  0  0  0  0  0  0  0  0
  1  9  1  0
  1  4  1  0
  2  1  1  0
  3  8  1  0
  4 10  1  0
  7  3  1  0
  7  8  1  0
  7  5  1  0
  8 10  1  0
  9  4  1  0
 11  2  1  0
 11  1  1  0
  2 12  1  0
  2 13  1  0
  3 14  1  0
  3 15  1  0
  4 16  1  6
  5 17  1  0
  5 18  1  0
  5 19  1  0
  6 20  1  0
  6 21  1  0
  6 22  1  0
  6 23  1  0
  7 24  1  6
  8 25  1  1
  9 26  1  0
  9 27  1  0
 10 28  1  0
 10 29  1  0
 11 30  1  0
 11 31  1  0
M  CHG  1   6   1
M  END
>  <mol_id>  (69) 
2026-09-16-6tgu-s0-n100-0069

>  <rmsd_to_ref>  (69) 


$$$$

     RDKit          3D

 34 36  0  0  0  0  0  0  0  0999 V2000
    3.1261   23.6024   33.3734 C   0  0  0  0  0  0  0  0  0  0  0  0
    4.1686   23.4085   31.1484 C   0  0  0  0  0  0  0  0  0  0  0  0
    4.0326   23.7846   32.5442 C   0  0  0  0  0  0  0  0  0  0  0  0
    1.4222   19.5772   40.0592 C   0  0  0  0  0  0  0  0  0  0  0  0
    2.9631   21.6680   35.0899 C   0  0  1  0  0  0  0  0  0  0  0  0
    2.7745   20.2382   38.0371 C   0  0  0  0  0  0  0  0  0  0  0  0
    3.5420   22.3306   30.6152 O   0  0  0  0  0  0  0  0  0  0  0  0
    3.8447   19.4444   38.5103 C   0  0  0  0  0  0  0  0  0  0  0  0
    1.7753   22.2914   34.4986 C   0  0  1  0  0  0  0  0  0  0  0  0
    1.5077   20.3942   38.8530 C   0  0  0  0  0  0  0  0  0  0  0  0
    0.0117   19.6535   40.7245 C   0  0  0  0  0  0  0  0  0  0  0  0
    2.1490   22.7407   33.1743 C   0  0  0  0  0  0  0  0  0  0  0  0
    2.4184   18.6897   40.4551 C   0  0  0  0  0  0  0  0  0  0  0  0
    3.6579   18.6587   39.6409 C   0  0  0  0  0  0  0  0  0  0  0  0
    2.8005   20.7480   36.6031 C   0  0  1  0  0  0  0  0  0  0  0  0
    1.7204   21.3889   35.8705 C   0  0  1  0  0  0  0  0  0  0  0  0
    3.1392   24.1816   34.3084 H   0  0  0  0  0  0  0  0  0  0  0  0
    3.8296   24.2770   30.5647 H   0  0  0  0  0  0  0  0  0  0  0  0
    5.2230   23.0986   31.1026 H   0  0  0  0  0  0  0  0  0  0  0  0
    4.8969   24.3358   32.9431 H   0  0  0  0  0  0  0  0  0  0  0  0
    3.1187   22.5910   35.6678 H   0  0  0  0  0  0  0  0  0  0  0  0
    3.0296   21.8637   31.3220 H   0  0  0  0  0  0  0  0  0  0  0  0
    4.8135   19.4487   37.9894 H   0  0  0  0  0  0  0  0  0  0  0  0
    0.8799   22.8659   34.2188 H   0  0  0  0  0  0  0  0  0  0  0  0
    0.7019   21.0810   38.5546 H   0  0  0  0  0  0  0  0  0  0  0  0
    0.1112   19.5171   41.8115 H   0  0  0  0  0  0  0  0  0  0  0  0
   -0.4385   20.6356   40.5179 H   0  0  0  0  0  0  0  0  0  0  0  0
   -0.6311   18.8616   40.3128 H   0  0  0  0  0  0  0  0  0  0  0  0
    1.2980   23.2283   32.6763 H   0  0  0  0  0  0  0  0  0  0  0  0
    2.4565   21.9076   32.5252 H   0  0  0  0  0  0  0  0  0  0  0  0
    2.2921   18.0396   41.3334 H   0  0  0  0  0  0  0  0  0  0  0  0
    4.4684   17.9809   39.9471 H   0  0  0  0  0  0  0  0  0  0  0  0
    3.5339   20.0644   37.0558 H   0  0  0  0  0  0  0  0  0  0  0  0
    1.8953   22.2929   36.4723 H   0  0  0  0  0  0  0  0  0  0  0  0
  1 12  1  0
  2  3  1  0
  3  1  2  3
  4 13  1  0
  4 11  1  0
  5 16  1  0
  5 15  1  0
  6  8  2  0
  6 10  1  0
  7  2  1  0
  8 14  1  0
  9  5  1  0
  9 16  1  0
 10  4  2  0
 12  9  1  0
 14 13  2  0
 15  6  1  0
 16 15  1  0
  1 17  1  0
  2 18  1  0
  2 19  1  0
  3 20  1  0
  5 21  1  1
  7 22  1  0
  8 23  1  0
  9 24  1  1
 10 25  1  0
 11 26  1  0
 11 27  1  0
 11 28  1  0
 12 29  1  0
 12 30  1  0
 13 31  1  0
 14 32  1  0
 15 33  1  6
 16 34  1  1
M  END
>  <mol_id>  (70) 
2026-09-16-6tgu-s0-n100-0070

>  <rmsd_to_ref>  (70) 


$$$$

     RDKit          3D

 60 61  0  0  0  0  0  0  0  0999 V2000
    4.4170   18.7612   40.5338 O   0  0  0  0  0  0  0  0  0  0  0  0
    3.0944   13.8746   38.1352 O   0  0  0  0  0  0  0  0  0  0  0  0
    3.3150   18.4094   40.0365 C   0  0  0  0  0  0  0  0  0  0  0  0
   -0.8573   19.0186   43.2049 C   0  0  0  0  0  0  0  0  0  0  0  0
    4.5175   26.2887   30.1468 C   0  0  0  0  0  0  0  0  0  0  0  0
    3.7717   20.2165   36.9627 C   0  0  0  0  0  0  0  0  0  0  0  0
    3.7651   21.4630   36.1471 C   0  0  1  0  0  0  0  0  0  0  0  0
    1.2314   18.0845   41.6202 C   0  0  0  0  0  0  0  0  0  0  0  0
    3.2873   15.5904   39.7283 C   0  0  0  0  0  0  0  0  0  0  0  0
    5.8674   25.3171   30.0302 S   0  0  0  0  0  0  0  0  0  0  0  0
   -0.8198   17.6221   42.9227 C   0  0  0  0  0  0  0  0  0  0  0  0
    4.8213   21.4642   35.0180 C   0  0  0  0  0  0  0  0  0  0  0  0
    3.1876   20.0606   38.3241 C   0  0  0  0  0  0  0  0  0  0  0  0
    4.5810   23.2292   31.4021 C   0  0  0  0  0  0  0  0  0  0  0  0
    3.2840   14.2395   39.4056 C   0  0  0  0  0  0  0  0  0  0  0  0
    4.4840   24.2766   32.4686 C   0  0  0  0  0  0  0  0  0  0  0  0
    1.1526   19.4653   41.8609 C   0  0  0  0  0  0  0  0  0  0  0  0
    2.5356   16.1645   40.6663 N   0  0  0  0  0  0  0  0  0  0  0  0
    3.1521   13.4233   40.4041 O   0  0  0  0  0  0  0  0  0  0  0  0
    0.3188   17.1131   42.0645 C   0  0  0  0  0  0  0  0  0  0  0  0
    3.9390   26.6728   31.5355 C   0  0  0  0  0  0  0  0  0  0  0  0
    5.5653   22.8434   34.5080 C   0  0  0  0  0  0  0  0  0  0  0  0
    3.7178   25.5494   32.4510 C   0  0  0  0  0  0  0  0  0  0  0  0
    5.3436   23.5024   30.0693 C   0  0  0  0  0  0  0  0  0  0  0  0
    2.8443   18.8735   38.8004 N   0  0  0  0  0  0  0  0  0  0  0  0
    2.5261   22.3695   36.0504 C   0  0  0  0  0  0  0  0  0  0  0  0
    5.0368   24.1190   33.8987 C   0  0  0  0  0  0  0  0  0  0  0  0
    0.0913   19.9395   42.7025 C   0  0  0  0  0  0  0  0  0  0  0  0
    2.4504   17.5030   40.7950 C   0  0  1  0  0  0  0  0  0  0  0  0
   -1.6656   19.3997   43.8463 H   0  0  0  0  0  0  0  0  0  0  0  0
    3.7121   25.7754   29.6012 H   0  0  0  0  0  0  0  0  0  0  0  0
    4.8722   27.2522   29.7521 H   0  0  0  0  0  0  0  0  0  0  0  0
    4.8329   19.9479   37.0712 H   0  0  0  0  0  0  0  0  0  0  0  0
    3.0628   19.6076   36.3824 H   0  0  0  0  0  0  0  0  0  0  0  0
    4.1179   22.2013   36.8822 H   0  0  0  0  0  0  0  0  0  0  0  0
    3.9687   16.2416   39.1611 H   0  0  0  0  0  0  0  0  0  0  0  0
   -1.5889   16.9400   43.3137 H   0  0  0  0  0  0  0  0  0  0  0  0
    5.6234   20.7876   35.3483 H   0  0  0  0  0  0  0  0  0  0  0  0
    4.2156   21.1949   34.1401 H   0  0  0  0  0  0  0  0  0  0  0  0
    3.9253   20.4749   39.0270 H   0  0  0  0  0  0  0  0  0  0  0  0
    2.2145   20.5632   38.2215 H   0  0  0  0  0  0  0  0  0  0  0  0
    5.0649   22.3565   31.8651 H   0  0  0  0  0  0  0  0  0  0  0  0
    3.5382   23.1314   31.0662 H   0  0  0  0  0  0  0  0  0  0  0  0
    1.8807   20.1612   41.4187 H   0  0  0  0  0  0  0  0  0  0  0  0
    0.4249   16.0494   41.8050 H   0  0  0  0  0  0  0  0  0  0  0  0
    4.6410   27.3703   32.0157 H   0  0  0  0  0  0  0  0  0  0  0  0
    2.9481   27.1102   31.3434 H   0  0  0  0  0  0  0  0  0  0  0  0
    6.1032   23.1903   35.4026 H   0  0  0  0  0  0  0  0  0  0  0  0
    5.9708   22.4236   33.5757 H   0  0  0  0  0  0  0  0  0  0  0  0
    3.8355   25.9714   33.4600 H   0  0  0  0  0  0  0  0  0  0  0  0
    2.7525   25.1834   32.0710 H   0  0  0  0  0  0  0  0  0  0  0  0
    4.6839   23.2893   29.2153 H   0  0  0  0  0  0  0  0  0  0  0  0
    6.2309   22.8553   30.0065 H   0  0  0  0  0  0  0  0  0  0  0  0
    2.2143   18.2749   38.2475 H   0  0  0  0  0  0  0  0  0  0  0  0
    2.1042   22.5222   37.0547 H   0  0  0  0  0  0  0  0  0  0  0  0
    2.8150   23.3408   35.6224 H   0  0  0  0  0  0  0  0  0  0  0  0
    1.7733   21.8937   35.4048 H   0  0  0  0  0  0  0  0  0  0  0  0
    5.0470   25.0178   34.5328 H   0  0  0  0  0  0  0  0  0  0  0  0
    0.0164   21.0078   42.9543 H   0  0  0  0  0  0  0  0  0  0  0  0
    3.3123   17.5549   41.4766 H   0  0  0  0  0  0  0  0  0  0  0  0
  2 15  2  0
  3  1  2  0
  5 21  1  0
  6 13  1  0
  7 26  1  0
  7  6  1  0
  8 17  1  0
  8 20  2  0
  9 18  2  3
 10  5  1  0
 10 24  1  0
 11  4  2  0
 12  7  1  0
 13 25  1  0
 14 16  1  0
 15  9  1  0
 15 19  1  0
 16 27  2  3
 17 28  2  0
 18 29  1  0
 20 11  1  0
 21 23  1  0
 22 12  1  0
 23 16  1  0
 24 14  1  0
 25  3  1  0
 27 22  1  0
 28  4  1  0
 29  3  1  0
 29  8  1  0
  4 30  1  0
  5 31  1  0
  5 32  1  0
  6 33  1  0
  6 34  1  0
  7 35  1  1
  9 36  1  0
 11 37  1  0
 12 38  1  0
 12 39  1  0
 13 40  1  0
 13 41  1  0
 14 42  1  0
 14 43  1  0
 17 44  1  0
 20 45  1  0
 21 46  1  0
 21 47  1  0
 22 48  1  0
 22 49  1  0
 23 50  1  0
 23 51  1  0
 24 52  1  0
 24 53  1  0
 25 54  1  0
 26 55  1  0
 26 56  1  0
 26 57  1  0
 27 58  1  0
 28 59  1  0
 29 60  1  1
M  CHG  1  19  -1
M  END
>  <mol_id>  (71) 
2026-09-16-6tgu-s0-n100-0071

>  <rmsd_to_ref>  (71) 


$$$$

     RDKit          3D

 49 50  0  0  0  0  0  0  0  0999 V2000
    2.9395   25.4269   31.2927 C   0  0  0  0  0  0  0  0  0  0  0  0
    2.9834   21.8193   35.2413 C   0  0  0  0  0  0  0  0  0  0  0  0
    1.3861   15.9389   41.5276 C   0  0  0  0  0  0  0  0  0  0  0  0
    2.1460   22.8498   35.3213 C   0  0  0  0  0  0  0  0  0  0  0  0
    2.4407   23.9949   34.4325 C   0  0  0  0  0  0  0  0  0  0  0  0
    3.7686   16.9643   37.1188 O   0  0  0  0  0  0  0  0  0  0  0  0
    2.9868   23.4217   32.8942 C   0  0  0  0  0  0  0  0  0  0  0  0
    3.2359   17.6715   38.1276 C   0  0  0  0  0  0  0  0  0  0  0  0
    0.6414   18.2617   42.1906 C   0  0  0  0  0  0  0  0  0  0  0  0
    1.2480   20.1972   40.9188 C   0  0  0  0  0  0  0  0  0  0  0  0
    2.5419   25.6396   29.8196 C   0  0  0  0  0  0  0  0  0  0  0  0
    2.8522   24.1450   31.7393 O   0  0  0  0  0  0  0  0  0  0  0  0
    0.6883   19.7504   41.9862 C   0  0  0  0  0  0  0  0  0  0  0  0
    2.0291   26.2097   32.1497 C   0  0  0  0  0  0  0  0  0  0  0  0
    1.9645   19.4245   39.9096 C   0  0  0  0  0  0  0  0  0  0  0  0
    2.7292   17.1513   39.2892 N   0  0  0  0  0  0  0  0  0  0  0  0
    4.8786   16.1244   37.2661 C   0  0  0  0  0  0  0  0  0  0  0  0
    1.3141   17.4358   41.2933 C   0  0  0  0  0  0  0  0  0  0  0  0
    3.4683   20.5344   35.8046 C   0  0  0  0  0  0  0  0  0  0  0  0
    3.1480   20.5375   36.7061 C   0  0  0  0  0  0  0  0  0  0  0  0
    2.0334   17.9489   40.1692 C   0  0  0  0  0  0  0  0  0  0  0  0
    2.3301   19.9270   38.6023 N   0  0  0  0  0  0  0  0  0  0  0  0
    2.9796   19.2858   37.7665 C   0  0  0  0  0  0  0  0  0  0  0  0
    3.9944   25.7342   31.3454 H   0  0  0  0  0  0  0  0  0  0  0  0
    3.5986   22.0041   34.3484 H   0  0  0  0  0  0  0  0  0  0  0  0
    1.3394   15.7341   42.6073 H   0  0  0  0  0  0  0  0  0  0  0  0
    0.5401   15.4479   41.0243 H   0  0  0  0  0  0  0  0  0  0  0  0
    2.3309   15.5492   41.1209 H   0  0  0  0  0  0  0  0  0  0  0  0
    1.2861   22.8504   36.0072 H   0  0  0  0  0  0  0  0  0  0  0  0
    1.5286   24.5943   34.2954 H   0  0  0  0  0  0  0  0  0  0  0  0
    3.2276   24.6137   34.8883 H   0  0  0  0  0  0  0  0  0  0  0  0
    4.0638   23.2286   33.0073 H   0  0  0  0  0  0  0  0  0  0  0  0
    2.2958   22.5853   32.7124 H   0  0  0  0  0  0  0  0  0  0  0  0
    0.0842   17.8314   43.0358 H   0  0  0  0  0  0  0  0  0  0  0  0
    1.1791   21.2816   40.7473 H   0  0  0  0  0  0  0  0  0  0  0  0
    1.4517   25.7673   29.7488 H   0  0  0  0  0  0  0  0  0  0  0  0
    3.0424   26.5386   29.4308 H   0  0  0  0  0  0  0  0  0  0  0  0
    2.8478   24.7646   29.2272 H   0  0  0  0  0  0  0  0  0  0  0  0
    0.2563   20.4374   42.7287 H   0  0  0  0  0  0  0  0  0  0  0  0
    2.1638   25.9084   33.1991 H   0  0  0  0  0  0  0  0  0  0  0  0
    2.2560   27.2808   32.0437 H   0  0  0  0  0  0  0  0  0  0  0  0
    0.9885   26.0235   31.8455 H   0  0  0  0  0  0  0  0  0  0  0  0
    5.0102   15.8736   38.3291 H   0  0  0  0  0  0  0  0  0  0  0  0
    4.7196   15.2019   36.6887 H   0  0  0  0  0  0  0  0  0  0  0  0
    5.7785   16.6379   36.8965 H   0  0  0  0  0  0  0  0  0  0  0  0
    3.0536   19.6823   35.2460 H   0  0  0  0  0  0  0  0  0  0  0  0
    4.5623   20.4351   35.7466 H   0  0  0  0  0  0  0  0  0  0  0  0
    2.8472   21.5224   37.0928 H   0  0  0  0  0  0  0  0  0  0  0  0
    2.0302   20.8799   38.3515 H   0  0  0  0  0  0  0  0  0  0  0  0
  1 12  1  0
  1 14  1  0
  2  4  2  3
  2 19  1  0
  5  4  1  0
  6 17  1  0
  6  8  1  0
  7  5  1  0
  8 16  2  0
 10 13  2  0
 11  1  1  0
 12  7  1  0
 13  9  1  0
 15 21  2  0
 15 10  1  0
 16 21  1  0
 18  3  1  0
 18  9  2  0
 19 20  1  0
 20 23  2  3
 21 18  1  0
 22 15  1  0
 23  8  1  0
 23 22  1  0
  1 24  1  0
  2 25  1  0
  3 26  1  0
  3 27  1  0
  3 28  1  0
  4 29  1  0
  5 30  1  0
  5 31  1  0
  7 32  1  0
  7 33  1  0
  9 34  1  0
 10 35  1  0
 11 36  1  0
 11 37  1  0
 11 38  1  0
 13 39  1  0
 14 40  1  0
 14 41  1  0
 14 42  1  0
 17 43  1  0
 17 44  1  0
 17 45  1  0
 19 46  1  0
 19 47  1  0
 20 48  1  0
 22 49  1  0
M  END
>  <mol_id>  (72) 
2026-09-16-6tgu-s0-n100-0072

>  <rmsd_to_ref>  (72) 


$$$$

     RDKit          3D

 28 30  0  0  0  0  0  0  0  0999 V2000
    1.3381   20.2423   38.7162 C   0  0  0  0  0  0  0  0  0  0  0  0
    2.2025   19.3052   38.0987 C   0  0  0  0  0  0  0  0  0  0  0  0
    3.0059   23.0290   33.0121 C   0  0  0  0  0  0  0  0  0  0  0  0
    2.9970   22.6190   34.4779 C   0  0  0  0  0  0  0  0  0  0  0  0
    1.5624   17.7896   41.6300 C   0  0  0  0  0  0  0  0  0  0  0  0
    1.0946   19.8422   40.1289 C   0  0  0  0  0  0  0  0  0  0  0  0
    2.8944   21.2981   34.9046 N   0  0  0  0  0  0  0  0  0  0  0  0
    1.2169   21.5804   36.7153 C   0  0  0  0  0  0  0  0  0  0  0  0
    2.6748   19.7316   36.8158 C   0  0  0  0  0  0  0  0  0  0  0  0
    2.4416   17.9713   39.1052 S   0  0  0  0  0  0  0  0  0  0  0  0
    0.7756   21.2970   38.0093 C   0  0  0  0  0  0  0  0  0  0  0  0
    1.5668   18.6572   40.4539 C   0  0  0  0  0  0  0  0  0  0  0  0
    3.4792   23.5203   34.0066 C   0  0  0  0  0  0  0  0  0  0  0  0
    2.2551   20.8534   36.1494 C   0  0  0  0  0  0  0  0  0  0  0  0
    1.5321   16.5050   41.1766 O   0  0  0  0  0  0  0  0  0  0  0  0
    2.1175   23.4513   32.5201 H   0  0  0  0  0  0  0  0  0  0  0  0
    3.3150   22.6460   32.0284 H   0  0  0  0  0  0  0  0  0  0  0  0
    2.6492   22.5022   35.5149 H   0  0  0  0  0  0  0  0  0  0  0  0
    2.4706   17.9582   42.2273 H   0  0  0  0  0  0  0  0  0  0  0  0
    0.6934   18.0006   42.2706 H   0  0  0  0  0  0  0  0  0  0  0  0
    0.5622   20.4858   40.8448 H   0  0  0  0  0  0  0  0  0  0  0  0
    3.3005   20.5724   34.2969 H   0  0  0  0  0  0  0  0  0  0  0  0
    0.7379   22.3862   36.1397 H   0  0  0  0  0  0  0  0  0  0  0  0
    3.4366   19.1080   36.3251 H   0  0  0  0  0  0  0  0  0  0  0  0
   -0.0160   21.9079   38.4679 H   0  0  0  0  0  0  0  0  0  0  0  0
    4.5778   23.5563   34.0499 H   0  0  0  0  0  0  0  0  0  0  0  0
    3.3220   24.5596   34.3309 H   0  0  0  0  0  0  0  0  0  0  0  0
    1.5834   15.8827   41.9448 H   0  0  0  0  0  0  0  0  0  0  0  0
  1  6  1  0
  2  1  1  0
  2 10  1  0
  3 13  1  0
  3  4  1  0
  4  7  1  0
  6 12  2  0
  7 14  1  0
  8 11  1  0
  9  2  2  0
 10 12  1  0
 11  1  2  0
 12  5  1  0
 13  4  1  0
 14  8  2  0
 14  9  1  0
 15  5  1  0
  3 16  1  0
  3 17  1  0
  4 18  1  0
  5 19  1  0
  5 20  1  0
  6 21  1  0
  7 22  1  0
  8 23  1  0
  9 24  1  0
 11 25  1  0
 13 26  1  0
 13 27  1  0
 15 28  1  0
M  END
>  <mol_id>  (73) 
2026-09-16-6tgu-s0-n100-0073

>  <rmsd_to_ref>  (73) 


$$$$

     RDKit          3D

 66 68  0  0  0  0  0  0  0  0999 V2000
    3.8880   18.9408   36.6698 C   0  0  0  0  0  0  0  0  0  0  0  0
    1.4304   25.6247   30.0307 C   0  0  0  0  0  0  0  0  0  0  0  0
    2.8714   16.6165   38.9275 O   0  0  0  0  0  0  0  0  0  0  0  0
    3.3592   12.9984   37.3279 O   0  0  0  0  0  0  0  0  0  0  0  0
    0.2976   27.4150   32.2777 C   0  0  0  0  0  0  0  0  0  0  0  0
    4.2393   14.5709   39.1630 O   0  0  0  0  0  0  0  0  0  0  0  0
    2.2997   25.4986   31.0963 C   0  0  0  0  0  0  0  0  0  0  0  0
    3.2149   14.4498   36.9590 C   0  0  0  0  0  0  0  0  0  0  0  0
    1.2328   18.5233   40.6305 N   0  0  0  0  0  0  0  0  0  0  0  0
    3.4403   17.6175   39.2421 C   0  0  1  0  0  0  0  0  0  0  0  0
    2.3105   25.8418   32.5517 C   0  0  1  0  0  0  0  0  0  0  0  0
    0.9567   26.4616   34.7314 S   0  0  0  0  0  0  0  0  0  0  0  0
    2.9089   19.6357   39.1077 C   0  0  0  0  0  0  0  0  0  0  0  0
    1.9017   22.1261   36.3821 C   0  0  0  0  0  0  0  0  0  0  0  0
    1.8356   20.1826   41.9208 O   0  0  0  0  0  0  0  0  0  0  0  0
    0.3164   27.5721   30.9170 C   0  0  0  0  0  0  0  0  0  0  0  0
    0.1791   26.4291   29.7297 S   0  0  0  0  0  0  0  0  0  0  0  0
    0.7525   26.0380   32.9440 C   0  0  1  0  0  0  0  0  0  0  0  0
    0.4939   18.1512   42.9500 C   0  0  0  0  0  0  0  0  0  0  0  0
    3.7247   18.6182   38.4270 C   0  0  2  0  0  0  0  0  0  0  0  0
    0.9860   19.0126   42.0428 C   0  0  0  0  0  0  0  0  0  0  0  0
    2.6117   18.6336   40.0987 C   0  0  1  0  0  0  0  0  0  0  0  0
    3.6534   20.8347   35.1663 O   0  0  0  0  0  0  0  0  0  0  0  0
    3.5191   15.3592   38.2397 C   0  0  0  0  0  0  0  0  0  0  0  0
   -0.1673   19.3896   42.5954 C   0  0  0  0  0  0  0  0  0  0  0  0
    2.9110   25.0214   33.7230 C   0  0  0  0  0  0  0  0  0  0  0  0
    0.3461   28.2384   33.1515 O   0  0  0  0  0  0  0  0  0  0  0  0
    3.5343   20.4071   36.5258 C   0  0  1  0  0  0  0  0  0  0  0  0
    2.5051   25.6097   34.8964 C   0  0  0  0  0  0  0  0  0  0  0  0
    2.3710   20.8368   37.0244 N   0  0  0  0  0  0  0  0  0  0  0  0
    4.9182   18.7533   36.3330 H   0  0  0  0  0  0  0  0  0  0  0  0
    3.2431   18.2903   36.0607 H   0  0  0  0  0  0  0  0  0  0  0  0
    2.1022   25.9143   29.2093 H   0  0  0  0  0  0  0  0  0  0  0  0
    0.8821   24.6989   30.2595 H   0  0  0  0  0  0  0  0  0  0  0  0
    3.3751   12.9085   38.3137 H   0  0  0  0  0  0  0  0  0  0  0  0
    2.4901   24.4153   31.1126 H   0  0  0  0  0  0  0  0  0  0  0  0
    2.8947   26.3782   30.8095 H   0  0  0  0  0  0  0  0  0  0  0  0
    3.9262   14.6965   36.1570 H   0  0  0  0  0  0  0  0  0  0  0  0
    2.1889   14.6390   36.6106 H   0  0  0  0  0  0  0  0  0  0  0  0
    0.9684   17.5283   40.5981 H   0  0  0  0  0  0  0  0  0  0  0  0
    0.6712   19.1483   40.0346 H   0  0  0  0  0  0  0  0  0  0  0  0
    4.2858   17.0108   39.5986 H   0  0  0  0  0  0  0  0  0  0  0  0
    3.0525   26.6532   32.5208 H   0  0  0  0  0  0  0  0  0  0  0  0
    2.0388   19.9870   38.5337 H   0  0  0  0  0  0  0  0  0  0  0  0
    3.3169   20.6199   39.3810 H   0  0  0  0  0  0  0  0  0  0  0  0
    1.6184   22.8442   37.1657 H   0  0  0  0  0  0  0  0  0  0  0  0
    2.7143   22.5493   35.7733 H   0  0  0  0  0  0  0  0  0  0  0  0
    1.0318   21.9208   35.7409 H   0  0  0  0  0  0  0  0  0  0  0  0
    2.1278   20.4736   42.8209 H   0  0  0  0  0  0  0  0  0  0  0  0
   -0.5036   28.2763   30.7130 H   0  0  0  0  0  0  0  0  0  0  0  0
    1.3899   27.7832   30.8023 H   0  0  0  0  0  0  0  0  0  0  0  0
    0.0792   25.2086   32.6816 H   0  0  0  0  0  0  0  0  0  0  0  0
    0.0760   17.1843   42.6328 H   0  0  0  0  0  0  0  0  0  0  0  0
    0.8542   17.6785   43.8756 H   0  0  0  0  0  0  0  0  0  0  0  0
    4.7981   18.4374   38.2689 H   0  0  0  0  0  0  0  0  0  0  0  0
    2.8505   18.6673   41.1719 H   0  0  0  0  0  0  0  0  0  0  0  0
    4.0776   21.7288   35.1375 H   0  0  0  0  0  0  0  0  0  0  0  0
   -0.1957   20.2285   43.3062 H   0  0  0  0  0  0  0  0  0  0  0  0
   -1.1635   19.6781   42.2290 H   0  0  0  0  0  0  0  0  0  0  0  0
    2.5477   23.9841   33.6788 H   0  0  0  0  0  0  0  0  0  0  0  0
    4.0090   25.0061   33.6595 H   0  0  0  0  0  0  0  0  0  0  0  0
    4.2839   20.8774   37.1793 H   0  0  0  0  0  0  0  0  0  0  0  0
    3.2725   26.3314   35.2127 H   0  0  0  0  0  0  0  0  0  0  0  0
    2.3688   24.8110   35.6403 H   0  0  0  0  0  0  0  0  0  0  0  0
    2.4839   20.9945   38.0360 H   0  0  0  0  0  0  0  0  0  0  0  0
    1.6625   20.1153   36.8286 H   0  0  0  0  0  0  0  0  0  0  0  0
  2  7  1  0
  5 27  2  0
  8  4  1  0
  8 24  1  0
  9 21  1  0
 10  3  1  0
 10 22  1  0
 11  7  1  0
 11 18  1  0
 11 26  1  0
 12 29  1  0
 13 22  1  0
 14 30  1  0
 15 21  1  0
 16  5  1  0
 17  2  1  0
 17 16  1  0
 18  5  1  0
 18 12  1  0
 20  1  1  0
 20 13  1  0
 20 10  1  0
 21 25  1  0
 21 19  1  0
 22  9  1  0
 24  3  1  0
 24  6  2  0
 25 19  1  0
 26 29  1  0
 28 23  1  0
 28  1  1  0
 28 30  1  0
  1 31  1  0
  1 32  1  0
  2 33  1  0
  2 34  1  0
  4 35  1  0
  7 36  1  0
  7 37  1  0
  8 38  1  0
  8 39  1  0
  9 40  1  0
  9 41  1  0
 10 42  1  1
 11 43  1  6
 13 44  1  0
 13 45  1  0
 14 46  1  0
 14 47  1  0
 14 48  1  0
 15 49  1  0
 16 50  1  0
 16 51  1  0
 18 52  1  1
 19 53  1  0
 19 54  1  0
 20 55  1  1
 22 56  1  1
 23 57  1  0
 25 58  1  0
 25 59  1  0
 26 60  1  0
 26 61  1  0
 28 62  1  1
 29 63  1  0
 29 64  1  0
 30 65  1  0
 30 66  1  0
M  CHG  2   9   1  30   1
M  END
>  <mol_id>  (74) 
2026-09-16-6tgu-s0-n100-0074

>  <rmsd_to_ref>  (74) 


$$$$

     RDKit          3D

 42 41  0  0  0  0  0  0  0  0999 V2000
    3.3773   23.9376   32.3195 C   0  0  0  0  0  0  0  0  0  0  0  0
    3.7670   22.8515   33.5249 S   0  0  0  0  0  0  0  0  0  0  0  0
    2.8205   18.2349   39.8601 C   0  0  0  0  0  0  0  0  0  0  0  0
    4.1117   24.0132   30.8535 S   0  0  0  0  0  0  0  0  0  0  0  0
    3.3336   21.1840   35.2446 N   0  0  0  0  0  0  0  0  0  0  0  0
    2.6256   16.9657   39.3901 C   0  0  1  0  0  0  0  0  0  0  0  0
    3.8584   19.1792   37.8272 C   0  0  0  0  0  0  0  0  0  0  0  0
    2.4036   24.9974   32.3249 C   0  0  0  0  0  0  0  0  0  0  0  0
    1.8071   21.1480   36.7978 O   0  0  0  0  0  0  0  0  0  0  0  0
    2.9604   20.7463   36.1964 C   0  0  0  0  0  0  0  0  0  0  0  0
    3.7169   19.6924   36.7183 O   0  0  0  0  0  0  0  0  0  0  0  0
    3.0811   16.5502   38.2316 O   0  0  0  0  0  0  0  0  0  0  0  0
    1.2239   16.3108   41.2150 C   0  0  0  0  0  0  0  0  0  0  0  0
    2.0718   25.5926   31.2364 C   0  0  0  0  0  0  0  0  0  0  0  0
    3.2307   25.3157   30.1842 C   0  0  0  0  0  0  0  0  0  0  0  0
    2.9488   19.4212   38.9940 C   0  0  0  0  0  0  0  0  0  0  0  0
    2.1554   15.9615   40.2910 C   0  0  0  0  0  0  0  0  0  0  0  0
    2.2274   23.0425   34.4846 S   0  0  0  0  0  0  0  0  0  0  0  0
    1.4260   17.1698   42.3513 C   0  0  0  0  0  0  0  0  0  0  0  0
    1.9690   18.4412   40.5252 H   0  0  0  0  0  0  0  0  0  0  0  0
    3.8414   18.1562   40.2619 H   0  0  0  0  0  0  0  0  0  0  0  0
    2.8262   21.9638   34.8025 H   0  0  0  0  0  0  0  0  0  0  0  0
    4.1867   20.8097   34.8052 H   0  0  0  0  0  0  0  0  0  0  0  0
    1.7690   17.4528   38.9014 H   0  0  0  0  0  0  0  0  0  0  0  0
    4.8613   19.4779   38.1663 H   0  0  0  0  0  0  0  0  0  0  0  0
    3.6237   18.1291   37.5985 H   0  0  0  0  0  0  0  0  0  0  0  0
    1.9376   25.3015   33.2737 H   0  0  0  0  0  0  0  0  0  0  0  0
    3.8040   15.8900   38.3788 H   0  0  0  0  0  0  0  0  0  0  0  0
    0.8679   15.3590   41.6359 H   0  0  0  0  0  0  0  0  0  0  0  0
    0.5939   16.9691   40.5988 H   0  0  0  0  0  0  0  0  0  0  0  0
    1.1180   25.1920   30.8624 H   0  0  0  0  0  0  0  0  0  0  0  0
    1.9420   26.6721   31.4029 H   0  0  0  0  0  0  0  0  0  0  0  0
    3.8724   26.2018   30.0701 H   0  0  0  0  0  0  0  0  0  0  0  0
    2.8403   25.0861   29.1817 H   0  0  0  0  0  0  0  0  0  0  0  0
    3.3525   20.2525   39.5906 H   0  0  0  0  0  0  0  0  0  0  0  0
    1.9501   19.6580   38.5982 H   0  0  0  0  0  0  0  0  0  0  0  0
    1.7230   15.1541   39.6818 H   0  0  0  0  0  0  0  0  0  0  0  0
    3.0412   15.6944   40.8860 H   0  0  0  0  0  0  0  0  0  0  0  0
    2.5161   23.0042   35.8233 H   0  0  0  0  0  0  0  0  0  0  0  0
    1.2930   16.5907   43.2770 H   0  0  0  0  0  0  0  0  0  0  0  0
    2.4445   17.5843   42.3211 H   0  0  0  0  0  0  0  0  0  0  0  0
    0.6949   17.9913   42.3245 H   0  0  0  0  0  0  0  0  0  0  0  0
  1  8  2  0
  1  2  1  0
  2 18  1  0
  4  1  1  0
  5 10  1  0
  6 12  1  0
  6  3  1  0
  6 17  1  0
  7 16  1  0
 10 11  1  0
 10  9  2  0
 11  7  1  0
 13 19  1  0
 14  8  1  0
 15  4  1  0
 15 14  1  0
 16  3  1  0
 17 13  1  0
  3 20  1  0
  3 21  1  0
  5 22  1  0
  5 23  1  0
  6 24  1  6
  7 25  1  0
  7 26  1  0
  8 27  1  0
 12 28  1  0
 13 29  1  0
 13 30  1  0
 14 31  1  0
 14 32  1  0
 15 33  1  0
 15 34  1  0
 16 35  1  0
 16 36  1  0
 17 37  1  0
 17 38  1  0
 18 39  1  0
 19 40  1  0
 19 41  1  0
 19 42  1  0
M  END
>  <mol_id>  (75) 
2026-09-16-6tgu-s0-n100-0075

>  <rmsd_to_ref>  (75) 


$$$$

     RDKit          3D

 54 56  0  0  0  0  0  0  0  0999 V2000
    3.7116   17.0358   36.8211 N   0  0  0  0  0  0  0  0  0  0  0  0
    5.3340   26.7227   29.7391 C   0  0  0  0  0  0  0  0  0  0  0  0
    1.9113   19.5499   40.3947 C   0  0  0  0  0  0  0  0  0  0  0  0
    3.4562   24.2209   32.4308 C   0  0  0  0  0  0  0  0  0  0  0  0
    2.8341   15.0314   37.9885 C   0  0  0  0  0  0  0  0  0  0  0  0
    3.9298   15.9382   37.5208 C   0  0  0  0  0  0  0  0  0  0  0  0
    3.8010   13.1452   36.9415 O   0  0  0  0  0  0  0  0  0  0  0  0
   -0.2968   19.8048   42.1594 C   0  0  0  0  0  0  0  0  0  0  0  0
    1.8595   26.7147   30.3394 C   0  0  0  0  0  0  0  0  0  0  0  0
    4.4797   25.4943   30.3970 S   0  0  2  0  0  4  0  0  0  0  0  0
    1.3063   20.7792   40.6935 C   0  0  0  0  0  0  0  0  0  0  0  0
    2.3366   24.4573   31.3993 C   0  0  1  0  0  0  0  0  0  0  0  0
    1.3988   18.4225   41.0088 C   0  0  0  0  0  0  0  0  0  0  0  0
    4.7374   24.5114   31.4922 C   0  0  2  0  0  0  0  0  0  0  0  0
    4.6666   24.2546   29.9155 O   0  0  0  0  0  0  0  0  0  0  0  0
    1.6897   13.6761   36.4127 O   0  0  0  0  0  0  0  0  0  0  0  0
    0.3137   18.5609   41.9634 C   0  0  0  0  0  0  0  0  0  0  0  0
    3.2792   18.3058   37.2408 C   0  0  0  0  0  0  0  0  0  0  0  0
    0.2777   20.9623   41.5385 C   0  0  0  0  0  0  0  0  0  0  0  0
    2.7553   13.8204   37.0557 C   0  0  0  0  0  0  0  0  0  0  0  0
    2.9982   18.3219   38.6074 N   0  0  0  0  0  0  0  0  0  0  0  0
    3.1604   19.2861   36.5211 O   0  0  0  0  0  0  0  0  0  0  0  0
    3.8826   20.2719   39.3509 O   0  0  0  0  0  0  0  0  0  0  0  0
    1.0320   25.0131   31.8254 C   0  0  0  0  0  0  0  0  0  0  0  0
    0.2512   26.0919   30.6662 S   0  0  0  0  0  0  0  0  0  0  0  0
    2.7754   25.5568   30.3526 C   0  0  1  0  0  0  0  0  0  0  0  0
   -1.4179   19.8758   42.9459 O   0  0  0  0  0  0  0  0  0  0  0  0
    3.0226   19.4667   39.4307 C   0  0  0  0  0  0  0  0  0  0  0  0
   -1.6546   18.8121   43.8326 C   0  0  0  0  0  0  0  0  0  0  0  0
    3.8851   16.9482   35.8095 H   0  0  0  0  0  0  0  0  0  0  0  0
    5.7317   27.3631   30.5402 H   0  0  0  0  0  0  0  0  0  0  0  0
    6.1673   26.3146   29.1482 H   0  0  0  0  0  0  0  0  0  0  0  0
    4.6781   27.3171   29.0861 H   0  0  0  0  0  0  0  0  0  0  0  0
    3.3951   24.9254   33.2734 H   0  0  0  0  0  0  0  0  0  0  0  0
    3.4449   23.2363   32.9210 H   0  0  0  0  0  0  0  0  0  0  0  0
    3.0474   14.6939   39.0135 H   0  0  0  0  0  0  0  0  0  0  0  0
    1.8757   15.5713   37.9774 H   0  0  0  0  0  0  0  0  0  0  0  0
    4.5952   15.3151   36.9052 H   0  0  0  0  0  0  0  0  0  0  0  0
    4.2880   16.3555   38.4735 H   0  0  0  0  0  0  0  0  0  0  0  0
    1.8829   27.2051   29.3550 H   0  0  0  0  0  0  0  0  0  0  0  0
    2.1547   27.4604   31.0921 H   0  0  0  0  0  0  0  0  0  0  0  0
    1.7091   21.6718   40.1923 H   0  0  0  0  0  0  0  0  0  0  0  0
    2.1969   23.4185   31.0655 H   0  0  0  0  0  0  0  0  0  0  0  0
    1.8097   17.4290   40.7762 H   0  0  0  0  0  0  0  0  0  0  0  0
    5.4524   24.2868   32.2974 H   0  0  0  0  0  0  0  0  0  0  0  0
   -0.0294   17.6855   42.5343 H   0  0  0  0  0  0  0  0  0  0  0  0
   -0.1116   21.9696   41.7475 H   0  0  0  0  0  0  0  0  0  0  0  0
    2.7532   17.4251   39.0508 H   0  0  0  0  0  0  0  0  0  0  0  0
    0.3509   24.1708   32.0167 H   0  0  0  0  0  0  0  0  0  0  0  0
    1.2404   25.6253   32.7152 H   0  0  0  0  0  0  0  0  0  0  0  0
    2.6142   25.4739   29.2676 H   0  0  0  0  0  0  0  0  0  0  0  0
   -1.5690   19.1722   44.8685 H   0  0  0  0  0  0  0  0  0  0  0  0
   -2.6662   18.4135   43.6654 H   0  0  0  0  0  0  0  0  0  0  0  0
   -0.9140   18.0177   43.6582 H   0  0  0  0  0  0  0  0  0  0  0  0
  1 18  1  0
  1  6  1  0
  3 11  2  0
  3 13  1  0
  6  5  1  0
  7 20  1  0
  8 27  1  0
  9 25  1  0
 10  2  1  6
 10 14  1  0
 11 19  1  0
 12 24  1  0
 12  4  1  0
 13 17  2  0
 14  4  1  0
 15 10  1  0
 15 14  1  0
 16 20  2  0
 17  8  1  0
 18 21  1  0
 19  8  2  0
 20  5  1  0
 21 28  1  0
 22 18  2  0
 25 24  1  0
 26  9  1  0
 26 10  1  0
 26 12  1  0
 27 29  1  0
 28 23  2  0
 28  3  1  0
  1 30  1  0
  2 31  1  0
  2 32  1  0
  2 33  1  0
  4 34  1  0
  4 35  1  0
  5 36  1  0
  5 37  1  0
  6 38  1  0
  6 39  1  0
  9 40  1  0
  9 41  1  0
 11 42  1  0
 12 43  1  6
 13 44  1  0
 14 45  1  1
 17 46  1  0
 19 47  1  0
 21 48  1  0
 24 49  1  0
 24 50  1  0
 26 51  1  6
 29 52  1  0
 29 53  1  0
 29 54  1  0
M  CHG  1   7  -1
M  END
>  <mol_id>  (76) 
2026-09-16-6tgu-s0-n100-0076

>  <rmsd_to_ref>  (76) 


$$$$

     RDKit          3D

 80 84  0  0  0  0  0  0  0  0999 V2000
    1.4079   18.1206   41.5772 C   0  0  0  0  0  0  0  0  0  0  0  0
    0.5202   18.7327   42.5334 C   0  0  0  0  0  0  0  0  0  0  0  0
    2.4724   20.1001   38.2950 C   0  0  0  0  0  0  0  0  0  0  0  0
    3.7437   17.6478   37.8007 C   0  0  0  0  0  0  0  0  0  0  0  0
    3.8059   20.4059   36.3629 O   0  0  0  0  0  0  0  0  0  0  0  0
   -0.0476   20.0815   42.3504 C   0  0  0  0  0  0  0  0  0  0  0  0
    3.3142   17.6162   40.2941 C   0  0  0  0  0  0  0  0  0  0  0  0
    1.8700   24.2558   34.0727 N   0  0  0  0  0  0  0  0  0  0  0  0
    3.3506   22.8059   35.0299 C   0  0  0  0  0  0  0  0  0  0  0  0
    0.0569   26.9815   31.0317 C   0  0  0  0  0  0  0  0  0  0  0  0
    0.7525   20.9983   41.5622 C   0  0  0  0  0  0  0  0  0  0  0  0
    3.4462   12.7367   37.3956 C   0  0  0  0  0  0  0  0  0  0  0  0
    1.8594   21.8932   36.6023 C   0  0  0  0  0  0  0  0  0  0  0  0
    3.8293   24.3845   32.8628 C   0  0  0  0  0  0  0  0  0  0  0  0
    1.3572   20.3104   40.4118 C   0  0  0  0  0  0  0  0  0  0  0  0
    2.7807   18.4963   39.9141 C   0  0  0  0  0  0  0  0  0  0  0  0
    0.7930   25.7997   31.0065 C   0  0  0  0  0  0  0  0  0  0  0  0
    3.2470   16.3014   39.8883 C   0  0  0  0  0  0  0  0  0  0  0  0
    1.2062   25.1296   32.0410 C   0  0  0  0  0  0  0  0  0  0  0  0
    2.0095   19.3241   40.4982 C   0  0  0  0  0  0  0  0  0  0  0  0
    3.7181   15.0417   37.9155 N   0  0  0  0  0  0  0  0  0  0  0  0
    4.4174   13.8060   37.9942 C   0  0  1  0  0  0  0  0  0  0  0  0
    1.5589   20.9103   39.0801 C   0  0  0  0  0  0  0  0  0  0  0  0
    2.8700   18.7634   38.6154 C   0  0  0  0  0  0  0  0  0  0  0  0
    0.5987   27.5826   33.5748 C   0  0  0  0  0  0  0  0  0  0  0  0
    1.1457   23.5343   34.9676 C   0  0  0  0  0  0  0  0  0  0  0  0
    2.8988   13.3427   36.1728 N   0  0  0  0  0  0  0  0  0  0  0  0
    1.4639   25.3297   33.4126 C   0  0  0  0  0  0  0  0  0  0  0  0
    4.8174   13.6080   39.3162 C   0  0  0  0  0  0  0  0  0  0  0  0
    3.9552   16.3430   38.6284 C   0  0  1  0  0  0  0  0  0  0  0  0
    3.0079   23.5288   33.7261 C   0  0  2  0  0  0  0  0  0  0  0  0
    1.9322   22.1972   35.2892 C   0  0  1  0  0  0  0  0  0  0  0  0
    0.0134   27.6440   32.3069 C   0  0  0  0  0  0  0  0  0  0  0  0
    2.7932   20.7412   36.9657 C   0  0  0  0  0  0  0  0  0  0  0  0
    1.1735   26.4489   34.0612 C   0  0  0  0  0  0  0  0  0  0  0  0
    2.2492   17.6499   42.1070 H   0  0  0  0  0  0  0  0  0  0  0  0
    0.8606   17.3566   41.0057 H   0  0  0  0  0  0  0  0  0  0  0  0
   -0.3388   18.0522   42.6289 H   0  0  0  0  0  0  0  0  0  0  0  0
    1.1923   18.8901   43.3899 H   0  0  0  0  0  0  0  0  0  0  0  0
    4.7273   18.0766   37.5585 H   0  0  0  0  0  0  0  0  0  0  0  0
    3.1863   17.3826   36.8903 H   0  0  0  0  0  0  0  0  0  0  0  0
   -1.0238   19.9730   41.8551 H   0  0  0  0  0  0  0  0  0  0  0  0
   -0.1046   20.5220   43.3566 H   0  0  0  0  0  0  0  0  0  0  0  0
    4.3771   17.8778   40.1857 H   0  0  0  0  0  0  0  0  0  0  0  0
    2.7629   17.5067   41.2397 H   0  0  0  0  0  0  0  0  0  0  0  0
    3.6633   23.4982   35.8253 H   0  0  0  0  0  0  0  0  0  0  0  0
    4.1912   22.0973   34.9935 H   0  0  0  0  0  0  0  0  0  0  0  0
   -0.4534   27.3788   30.1419 H   0  0  0  0  0  0  0  0  0  0  0  0
    0.1111   21.8142   41.1976 H   0  0  0  0  0  0  0  0  0  0  0  0
    1.5577   21.3972   42.1965 H   0  0  0  0  0  0  0  0  0  0  0  0
    3.9929   11.8129   37.1552 H   0  0  0  0  0  0  0  0  0  0  0  0
    2.6521   12.4639   38.1062 H   0  0  0  0  0  0  0  0  0  0  0  0
    0.8260   21.6050   36.8452 H   0  0  0  0  0  0  0  0  0  0  0  0
    2.1660   22.7790   37.1779 H   0  0  0  0  0  0  0  0  0  0  0  0
    4.3722   25.1152   33.4805 H   0  0  0  0  0  0  0  0  0  0  0  0
    4.5502   23.7639   32.3105 H   0  0  0  0  0  0  0  0  0  0  0  0
    3.1816   24.9161   32.1503 H   0  0  0  0  0  0  0  0  0  0  0  0
    1.0492   25.3943   30.0166 H   0  0  0  0  0  0  0  0  0  0  0  0
    3.7467   15.6347   40.6066 H   0  0  0  0  0  0  0  0  0  0  0  0
    2.2213   15.9118   39.8096 H   0  0  0  0  0  0  0  0  0  0  0  0
    1.4202   24.0877   31.7603 H   0  0  0  0  0  0  0  0  0  0  0  0
    3.7658   15.2919   36.9175 H   0  0  0  0  0  0  0  0  0  0  0  0
    2.8820   14.7533   38.4433 H   0  0  0  0  0  0  0  0  0  0  0  0
    5.3529   13.7570   37.4175 H   0  0  0  0  0  0  0  0  0  0  0  0
    1.0847   21.8394   38.7312 H   0  0  0  0  0  0  0  0  0  0  0  0
    0.5946   28.4852   34.2035 H   0  0  0  0  0  0  0  0  0  0  0  0
    1.0105   24.1166   35.8910 H   0  0  0  0  0  0  0  0  0  0  0  0
    0.1563   23.2982   34.5487 H   0  0  0  0  0  0  0  0  0  0  0  0
    2.1600   14.0150   36.4239 H   0  0  0  0  0  0  0  0  0  0  0  0
    3.6503   13.8318   35.6659 H   0  0  0  0  0  0  0  0  0  0  0  0
    2.5027   12.6058   35.5720 H   0  0  0  0  0  0  0  0  0  0  0  0
    4.0123   13.9270   39.9946 H   0  0  0  0  0  0  0  0  0  0  0  0
    5.0326   12.5415   39.4784 H   0  0  0  0  0  0  0  0  0  0  0  0
    5.7226   14.1995   39.5179 H   0  0  0  0  0  0  0  0  0  0  0  0
    5.0366   16.4233   38.8130 H   0  0  0  0  0  0  0  0  0  0  0  0
    3.0516   22.6750   33.0339 H   0  0  0  0  0  0  0  0  0  0  0  0
    1.6133   21.2943   34.7479 H   0  0  0  0  0  0  0  0  0  0  0  0
    0.2367   28.6815   32.0175 H   0  0  0  0  0  0  0  0  0  0  0  0
   -0.8586   27.0576   32.6320 H   0  0  0  0  0  0  0  0  0  0  0  0
    1.4304   26.4631   35.1307 H   0  0  0  0  0  0  0  0  0  0  0  0
  1  2  1  0
  3 24  1  0
  3 23  2  0
  4 30  1  0
  4 24  1  0
  5 34  2  0
  6  2  1  0
  8 26  1  0
  9 32  1  0
 10 33  1  0
 11  6  1  0
 12 22  1  0
 13 34  1  0
 15 20  2  0
 15 11  1  0
 16  7  1  0
 16 20  1  0
 17 10  2  0
 17 19  1  0
 18  7  1  0
 19 28  2  0
 20  1  1  0
 22 21  1  0
 22 29  1  0
 23 15  1  0
 24 16  2  0
 25 35  2  0
 26 32  1  0
 27 12  1  0
 28  8  1  0
 28 35  1  0
 30 21  1  0
 30 18  1  0
 31 14  1  0
 31  8  1  0
 31  9  1  0
 32 13  1  0
 33 25  1  0
 34  3  1  0
  1 36  1  0
  1 37  1  0
  2 38  1  0
  2 39  1  0
  4 40  1  0
  4 41  1  0
  6 42  1  0
  6 43  1  0
  7 44  1  0
  7 45  1  0
  9 46  1  0
  9 47  1  0
 10 48  1  0
 11 49  1  0
 11 50  1  0
 12 51  1  0
 12 52  1  0
 13 53  1  0
 13 54  1  0
 14 55  1  0
 14 56  1  0
 14 57  1  0
 17 58  1  0
 18 59  1  0
 18 60  1  0
 19 61  1  0
 21 62  1  0
 21 63  1  0
 22 64  1  6
 23 65  1  0
 25 66  1  0
 26 67  1  0
 26 68  1  0
 27 69  1  0
 27 70  1  0
 27 71  1  0
 29 72  1  0
 29 73  1  0
 29 74  1  0
 30 75  1  1
 31 76  1  6
 32 77  1  6
 33 78  1  0
 33 79  1  0
 35 80  1  0
M  CHG  2  21   1  27   1
M  END
>  <mol_id>  (77) 
2026-09-16-6tgu-s0-n100-0077

>  <rmsd_to_ref>  (77) 


$$$$

     RDKit          3D

 44 45  0  0  0  0  0  0  0  0999 V2000
    4.8331   23.2268   33.3836 C   0  0  0  0  0  0  0  0  0  0  0  0
    2.0513   16.8524   40.2188 O   0  0  0  0  0  0  0  0  0  0  0  0
    2.0822   18.1215   39.5674 C   0  0  0  0  0  0  0  0  0  0  0  0
    0.5299   19.2129   41.1237 C   0  0  0  0  0  0  0  0  0  0  0  0
    3.3448   23.9953   33.3713 C   0  0  2  0  0  0  0  0  0  0  0  0
    2.3497   20.8973   37.0176 N   0  0  0  0  0  0  0  0  0  0  0  0
    3.9386   19.9091   36.0623 O   0  0  0  0  0  0  0  0  0  0  0  0
    2.4172   25.5000   29.5992 O   0  0  0  0  0  0  0  0  0  0  0  0
    2.5301   15.8295   39.4400 C   0  0  0  0  0  0  0  0  0  0  0  0
    3.3185   20.9557   35.9872 C   0  0  0  0  0  0  0  0  0  0  0  0
    2.3128   25.8649   31.6911 C   0  0  0  0  0  0  0  0  0  0  0  0
    1.4836   20.3554   39.0894 C   0  0  0  0  0  0  0  0  0  0  0  0
    4.4140   25.4225   30.8822 F   0  0  0  0  0  0  0  0  0  0  0  0
    2.5074   23.6658   35.0035 S   0  0  0  0  0  0  0  0  0  0  0  0
    4.1893   22.1214   34.1655 C   0  0  0  0  0  0  0  0  0  0  0  0
    3.1121   25.4523   30.6255 C   0  0  0  0  0  0  0  0  0  0  0  0
    2.1681   19.8878   38.0875 C   0  0  0  0  0  0  0  0  0  0  0  0
    2.3434   24.1327   32.2120 C   0  0  0  0  0  0  0  0  0  0  0  0
    0.1257   20.7512   41.5072 C   0  0  0  0  0  0  0  0  0  0  0  0
    1.4188   19.1792   40.0392 C   0  0  2  0  0  0  0  0  0  0  0  0
    2.5773   18.5987   38.2298 C   0  0  0  0  0  0  0  0  0  0  0  0
    3.6355   22.1226   35.5931 C   0  0  2  0  0  0  0  0  0  0  0  0
    5.2034   22.9302   32.3912 H   0  0  0  0  0  0  0  0  0  0  0  0
    5.7408   23.7339   33.7426 H   0  0  0  0  0  0  0  0  0  0  0  0
    1.0073   18.7393   41.9943 H   0  0  0  0  0  0  0  0  0  0  0  0
   -0.3852   18.6712   40.8421 H   0  0  0  0  0  0  0  0  0  0  0  0
    3.7332   24.9968   33.1341 H   0  0  0  0  0  0  0  0  0  0  0  0
    1.6701   21.6713   37.0250 H   0  0  0  0  0  0  0  0  0  0  0  0
    2.8014   14.9772   40.0802 H   0  0  0  0  0  0  0  0  0  0  0  0
    1.7539   15.5186   38.7251 H   0  0  0  0  0  0  0  0  0  0  0  0
    3.4189   16.1726   38.8900 H   0  0  0  0  0  0  0  0  0  0  0  0
    1.3213   26.2480   31.4078 H   0  0  0  0  0  0  0  0  0  0  0  0
    2.5965   26.6905   32.3603 H   0  0  0  0  0  0  0  0  0  0  0  0
    1.0559   21.3609   39.2157 H   0  0  0  0  0  0  0  0  0  0  0  0
    3.3337   21.8160   33.5452 H   0  0  0  0  0  0  0  0  0  0  0  0
    5.0975   21.5325   34.3613 H   0  0  0  0  0  0  0  0  0  0  0  0
    2.6580   23.4968   31.3714 H   0  0  0  0  0  0  0  0  0  0  0  0
    1.3412   23.8167   32.5371 H   0  0  0  0  0  0  0  0  0  0  0  0
    0.0027   20.8371   42.5969 H   0  0  0  0  0  0  0  0  0  0  0  0
    0.9212   21.4335   41.1730 H   0  0  0  0  0  0  0  0  0  0  0  0
   -0.8185   21.0171   41.0095 H   0  0  0  0  0  0  0  0  0  0  0  0
    1.8708   19.1368   41.0412 H   0  0  0  0  0  0  0  0  0  0  0  0
    3.1610   18.0147   37.5030 H   0  0  0  0  0  0  0  0  0  0  0  0
    4.1164   22.2790   36.5699 H   0  0  0  0  0  0  0  0  0  0  0  0
  1  5  1  0
  1 15  1  0
  3 20  1  0
  3  2  1  0
  4 19  1  0
  5 18  1  0
  5 14  1  0
  6 17  1  0
  8 16  2  0
  9  2  1  0
 10  7  2  0
 10  6  1  0
 11 18  1  0
 12 20  1  0
 14 22  1  0
 15 22  1  0
 16 13  1  0
 16 11  1  0
 17 21  1  0
 17 12  2  0
 20  4  1  0
 21  3  2  0
 22 10  1  0
  1 23  1  0
  1 24  1  0
  4 25  1  0
  4 26  1  0
  5 27  1  1
  6 28  1  0
  9 29  1  0
  9 30  1  0
  9 31  1  0
 11 32  1  0
 11 33  1  0
 12 34  1  0
 15 35  1  0
 15 36  1  0
 18 37  1  0
 18 38  1  0
 19 39  1  0
 19 40  1  0
 19 41  1  0
 20 42  1  1
 21 43  1  0
 22 44  1  1
M  END
>  <mol_id>  (78) 
2026-09-16-6tgu-s0-n100-0078

>  <rmsd_to_ref>  (78) 


$$$$

     RDKit          3D

 50 55  0  0  0  0  0  0  0  0999 V2000
    3.2610   13.2517   36.6900 N   0  0  0  0  0  0  0  0  0  0  0  0
    3.7846   18.0911   38.8853 N   0  0  0  0  0  0  0  0  0  0  0  0
    2.2560   21.1236   41.2173 C   0  0  0  0  0  0  0  0  0  0  0  0
    4.8541   24.4573   30.7791 C   0  0  0  0  0  0  0  0  0  0  0  0
    4.1174   21.3863   36.4731 C   0  0  0  0  0  0  0  0  0  0  0  0
    2.4317   18.7931   40.7783 C   0  0  0  0  0  0  0  0  0  0  0  0
    4.1538   20.1251   37.0798 C   0  0  0  0  0  0  0  0  0  0  0  0
    4.4927   17.2556   37.9329 C   0  0  0  0  0  0  0  0  0  0  0  0
    4.0531   23.5825   33.0553 C   0  0  2  0  0  0  0  0  0  0  0  0
    1.5723   18.5087   41.7897 C   0  0  0  0  0  0  0  0  0  0  0  0
    5.2228   15.9894   38.1125 C   0  0  0  0  0  0  0  0  0  0  0  0
    1.0597   19.5008   42.6765 C   0  0  0  0  0  0  0  0  0  0  0  0
    4.4642   23.3573   31.7366 C   0  0  2  0  0  0  0  0  0  0  0  0
    3.1929   16.6187   40.4795 O   0  0  0  0  0  0  0  0  0  0  0  0
    3.7814   12.5428   37.9180 N   0  0  0  0  0  0  0  0  0  0  0  0
    1.5059   20.7922   42.4068 C   0  0  0  0  0  0  0  0  0  0  0  0
    3.8878   22.8559   34.2124 C   0  0  0  0  0  0  0  0  0  0  0  0
    3.1226   20.3507   39.1632 O   0  0  0  0  0  0  0  0  0  0  0  0
    2.9403   23.4656   31.7353 C   0  0  2  0  0  0  0  0  0  0  0  0
    4.0633   14.8912   38.2457 C   0  0  0  0  0  0  0  0  0  0  0  0
    4.5411   13.4913   38.7265 C   0  0  0  0  0  0  0  0  0  0  0  0
    3.4051   24.2756   30.4778 C   0  0  1  0  0  0  0  0  0  0  0  0
    3.4287   14.7343   36.8644 C   0  0  0  0  0  0  0  0  0  0  0  0
    2.5624   20.0847   40.3812 C   0  0  0  0  0  0  0  0  0  0  0  0
    3.1847   17.7389   40.0323 C   0  0  0  0  0  0  0  0  0  0  0  0
    3.9030   22.1425   35.4922 C   0  0  0  0  0  0  0  0  0  0  0  0
    3.8198   19.4310   38.4134 C   0  0  0  0  0  0  0  0  0  0  0  0
    2.2631   13.0310   36.5622 H   0  0  0  0  0  0  0  0  0  0  0  0
    2.5644   22.1560   40.9956 H   0  0  0  0  0  0  0  0  0  0  0  0
    5.1496   25.4187   31.2246 H   0  0  0  0  0  0  0  0  0  0  0  0
    5.6835   24.4371   30.0569 H   0  0  0  0  0  0  0  0  0  0  0  0
    3.4568   21.8852   37.1975 H   0  0  0  0  0  0  0  0  0  0  0  0
    5.1142   21.1800   36.0561 H   0  0  0  0  0  0  0  0  0  0  0  0
    4.5526   19.3859   36.3696 H   0  0  0  0  0  0  0  0  0  0  0  0
    5.2423   17.9318   37.4961 H   0  0  0  0  0  0  0  0  0  0  0  0
    3.6050   16.8301   37.4420 H   0  0  0  0  0  0  0  0  0  0  0  0
    4.4693   24.2530   33.8215 H   0  0  0  0  0  0  0  0  0  0  0  0
    1.2568   17.4646   41.9319 H   0  0  0  0  0  0  0  0  0  0  0  0
    5.8624   15.7796   37.2426 H   0  0  0  0  0  0  0  0  0  0  0  0
    5.8931   16.0063   38.9845 H   0  0  0  0  0  0  0  0  0  0  0  0
    0.3714   19.2665   43.5019 H   0  0  0  0  0  0  0  0  0  0  0  0
    2.9905   12.1767   38.4669 H   0  0  0  0  0  0  0  0  0  0  0  0
    1.2784   21.5913   43.1278 H   0  0  0  0  0  0  0  0  0  0  0  0
    1.8772   23.1836   31.7568 H   0  0  0  0  0  0  0  0  0  0  0  0
    3.3646   15.2515   39.0151 H   0  0  0  0  0  0  0  0  0  0  0  0
    4.3219   13.3526   39.7955 H   0  0  0  0  0  0  0  0  0  0  0  0
    5.6271   13.3601   38.6114 H   0  0  0  0  0  0  0  0  0  0  0  0
    2.8030   24.7052   29.6636 H   0  0  0  0  0  0  0  0  0  0  0  0
    4.0880   15.1447   36.0853 H   0  0  0  0  0  0  0  0  0  0  0  0
    2.4742   15.2746   36.7803 H   0  0  0  0  0  0  0  0  0  0  0  0
  1 23  1  0
  1 15  1  0
  2 25  1  0
  3 16  1  0
  5  7  1  0
  6 10  2  0
  7 27  2  3
  8 11  1  0
  8  2  1  0
  9 17  1  0
 10 12  1  0
 11 20  1  0
 13  4  1  6
 13  9  1  0
 15 21  1  0
 16 12  2  0
 17 26  3  0
 18 24  1  0
 19 13  1  0
 19  9  1  0
 20 21  1  0
 22  4  1  0
 22 19  1  0
 22 13  1  0
 23 20  1  0
 24  6  1  0
 24  3  2  0
 25 14  2  0
 25  6  1  0
 26  5  1  0
 27  2  1  0
 27 18  1  0
  1 28  1  0
  3 29  1  0
  4 30  1  0
  4 31  1  0
  5 32  1  0
  5 33  1  0
  7 34  1  0
  8 35  1  0
  8 36  1  0
  9 37  1  1
 10 38  1  0
 11 39  1  0
 11 40  1  0
 12 41  1  0
 15 42  1  0
 16 43  1  0
 19 44  1  1
 20 45  1  0
 21 46  1  0
 21 47  1  0
 22 48  1  6
 23 49  1  0
 23 50  1  0
M  END
>  <mol_id>  (79) 
2026-09-16-6tgu-s0-n100-0079

>  <rmsd_to_ref>  (79) 


$$$$

     RDKit          3D

 45 47  0  0  0  0  0  0  0  0999 V2000
    3.0512   24.3046   30.2032 S   0  0  0  0  0  0  0  0  0  0  0  0
    3.9562   22.1024   34.4722 C   0  0  0  0  0  0  0  0  0  0  0  0
    3.0790   22.9519   33.7491 C   0  0  0  0  0  0  0  0  0  0  0  0
    2.2034   18.5377   39.8931 C   0  0  0  0  0  0  0  0  0  0  0  0
    2.8649   24.4570   31.8451 C   0  0  0  0  0  0  0  0  0  0  0  0
   -0.0764   18.2012   43.2792 C   0  0  0  0  0  0  0  0  0  0  0  0
    2.6853   17.5855   39.0504 C   0  0  0  0  0  0  0  0  0  0  0  0
    1.8747   25.0598   32.5588 O   0  0  0  0  0  0  0  0  0  0  0  0
    2.1326   19.7605   39.4501 C   0  0  0  0  0  0  0  0  0  0  0  0
    1.3140   17.0983   41.4846 C   0  0  0  0  0  0  0  0  0  0  0  0
    3.1340   18.0005   37.7956 C   0  0  0  0  0  0  0  0  0  0  0  0
    2.5457   16.3015   39.5696 C   0  0  0  0  0  0  0  0  0  0  0  0
    1.9615   15.9748   40.7608 C   0  0  0  0  0  0  0  0  0  0  0  0
    4.7984   22.8072   31.5463 C   0  0  0  0  0  0  0  0  0  0  0  0
    3.2985   19.8314   35.8679 C   0  0  0  0  0  0  0  0  0  0  0  0
    1.6758   23.2790   34.2181 C   0  0  0  0  0  0  0  0  0  0  0  0
    2.9435   19.3976   37.3008 C   0  0  0  0  0  0  0  0  0  0  0  0
    2.3137   20.2880   38.1626 C   0  0  0  0  0  0  0  0  0  0  0  0
    0.4492   17.0905   42.5234 O   0  0  0  0  0  0  0  0  0  0  0  0
    4.1559   23.7417   32.6092 C   0  0  2  0  0  0  0  0  0  0  0  0
    3.5872   21.2655   35.7987 C   0  0  0  0  0  0  0  0  0  0  0  0
    4.4940   23.2382   30.0869 C   0  0  0  0  0  0  0  0  0  0  0  0
    1.6587   18.3749   41.0385 C   0  0  0  0  0  0  0  0  0  0  0  0
    4.9837   22.0062   34.0916 H   0  0  0  0  0  0  0  0  0  0  0  0
    0.0729   18.0172   44.3534 H   0  0  0  0  0  0  0  0  0  0  0  0
    0.4483   19.1234   42.9888 H   0  0  0  0  0  0  0  0  0  0  0  0
   -1.1512   18.3100   43.0718 H   0  0  0  0  0  0  0  0  0  0  0  0
    1.8888   20.5092   40.2182 H   0  0  0  0  0  0  0  0  0  0  0  0
    3.6459   17.2734   37.1479 H   0  0  0  0  0  0  0  0  0  0  0  0
    2.9424   15.4729   38.9646 H   0  0  0  0  0  0  0  0  0  0  0  0
    1.9702   14.9486   41.1570 H   0  0  0  0  0  0  0  0  0  0  0  0
    5.8888   22.8109   31.6913 H   0  0  0  0  0  0  0  0  0  0  0  0
    4.3651   21.8060   31.6877 H   0  0  0  0  0  0  0  0  0  0  0  0
    4.1845   19.2716   35.5338 H   0  0  0  0  0  0  0  0  0  0  0  0
    2.4354   19.6209   35.2192 H   0  0  0  0  0  0  0  0  0  0  0  0
    1.6471   23.2775   35.3178 H   0  0  0  0  0  0  0  0  0  0  0  0
    1.3868   24.2727   33.8452 H   0  0  0  0  0  0  0  0  0  0  0  0
    0.9748   22.5243   33.8319 H   0  0  0  0  0  0  0  0  0  0  0  0
    1.9918   21.2975   37.8670 H   0  0  0  0  0  0  0  0  0  0  0  0
    5.0097   24.2842   33.0413 H   0  0  0  0  0  0  0  0  0  0  0  0
    4.4365   21.4202   36.4806 H   0  0  0  0  0  0  0  0  0  0  0  0
    2.5812   21.6652   35.9942 H   0  0  0  0  0  0  0  0  0  0  0  0
    4.2750   22.3594   29.4626 H   0  0  0  0  0  0  0  0  0  0  0  0
    5.3489   23.7515   29.6225 H   0  0  0  0  0  0  0  0  0  0  0  0
    1.4603   19.2481   41.6773 H   0  0  0  0  0  0  0  0  0  0  0  0
  1  5  1  0
  2 21  1  0
  3 16  1  0
  3  2  2  3
  4 23  1  0
  5  8  2  0
  5 20  1  0
  7 12  1  0
  7  4  1  0
  9  4  2  0
 10 19  1  0
 11  7  2  0
 12 13  2  0
 13 10  1  0
 14 20  1  0
 15 17  1  0
 17 11  1  0
 17 18  2  0
 18  9  1  0
 19  6  1  0
 20  3  1  0
 21 15  1  0
 22  1  1  0
 22 14  1  0
 23 10  2  0
  2 24  1  0
  6 25  1  0
  6 26  1  0
  6 27  1  0
  9 28  1  0
 11 29  1  0
 12 30  1  0
 13 31  1  0
 14 32  1  0
 14 33  1  0
 15 34  1  0
 15 35  1  0
 16 36  1  0
 16 37  1  0
 16 38  1  0
 18 39  1  0
 20 40  1  1
 21 41  1  0
 21 42  1  0
 22 43  1  0
 22 44  1  0
 23 45  1  0
M  END
>  <mol_id>  (80) 
2026-09-16-6tgu-s0-n100-0080

>  <rmsd_to_ref>  (80) 


$$$$

     RDKit          3D

 75 79  0  0  0  0  0  0  0  0999 V2000
    0.9618   18.9924   42.3766 C   0  0  0  0  0  0  0  0  0  0  0  0
    0.3366   17.8862   43.2025 C   0  0  0  0  0  0  0  0  0  0  0  0
    1.9214   20.6801   41.2413 C   0  0  0  0  0  0  0  0  0  0  0  0
    1.0374   24.8626   31.9911 C   0  0  0  0  0  0  0  0  0  0  0  0
    1.8600   18.5303   41.4246 N   0  0  0  0  0  0  0  0  0  0  0  0
    1.5131   23.3580   34.2767 C   0  0  0  0  0  0  0  0  0  0  0  0
    1.0231   25.6305   28.1274 C   0  0  0  0  0  0  0  0  0  0  0  0
   -1.2299   19.8751   43.5329 C   0  0  1  0  0  0  0  0  0  0  0  0
    2.0253   21.5969   37.8080 C   0  0  0  0  0  0  0  0  0  0  0  0
    4.4535   19.8301   39.9489 O   0  0  0  0  0  0  0  0  0  0  0  0
    0.0035   25.6923   28.8153 F   0  0  0  0  0  0  0  0  0  0  0  0
    0.3026   21.4005   42.7035 C   0  0  0  0  0  0  0  0  0  0  0  0
   -1.0372   18.4105   43.6363 C   0  0  0  0  0  0  0  0  0  0  0  0
    3.0786   26.3931   28.6269 C   0  0  0  0  0  0  0  0  0  0  0  0
    2.7652   18.7710   38.5431 C   0  0  2  0  0  0  0  0  0  0  0  0
   -0.8114   20.1487   45.0580 O   0  0  0  0  0  0  0  0  0  0  0  0
    3.1125   23.2609   33.9034 C   0  0  2  0  0  0  0  0  0  0  0  0
    1.7044   25.3598   31.4061 C   0  0  0  0  0  0  0  0  0  0  0  0
    3.1993   17.3828   38.4907 C   0  0  0  0  0  0  0  0  0  0  0  0
    3.3776   21.6466   35.9044 C   0  0  0  0  0  0  0  0  0  0  0  0
    3.1122   19.6356   37.3195 C   0  0  0  0  0  0  0  0  0  0  0  0
    3.5037   25.4621   29.5311 N   0  0  0  0  0  0  0  0  0  0  0  0
    2.1088   24.4297   31.9438 C   0  0  0  0  0  0  0  0  0  0  0  0
   -0.9995   21.0314   43.0700 C   0  0  0  0  0  0  0  0  0  0  0  0
    3.2618   23.4924   32.3444 C   0  0  0  0  0  0  0  0  0  0  0  0
    4.2297   15.4566   37.7460 C   0  0  0  0  0  0  0  0  0  0  0  0
    1.1263   20.4216   42.0721 C   0  0  0  0  0  0  0  0  0  0  0  0
    2.7014   23.0497   35.4504 C   0  0  2  0  0  0  0  0  0  0  0  0
    2.3800   19.4600   40.7889 N   0  0  0  0  0  0  0  0  0  0  0  0
    4.0602   16.8116   37.6098 N   0  0  0  0  0  0  0  0  0  0  0  0
    2.3334   25.2416   28.5985 C   0  0  1  0  0  0  0  0  0  0  0  0
    0.9453   26.0264   26.9327 F   0  0  0  0  0  0  0  0  0  0  0  0
    3.3123   19.4716   39.7127 C   0  0  0  0  0  0  0  0  0  0  0  0
    3.1416   14.8802   38.5862 C   0  0  0  0  0  0  0  0  0  0  0  0
    2.6153   16.1587   39.6172 S   0  0  0  0  0  0  0  0  0  0  0  0
    2.8219   20.9166   36.9523 C   0  0  0  0  0  0  0  0  0  0  0  0
    0.2246   16.9741   42.5980 H   0  0  0  0  0  0  0  0  0  0  0  0
    0.9620   17.6270   44.0694 H   0  0  0  0  0  0  0  0  0  0  0  0
    2.2311   21.6789   40.9000 H   0  0  0  0  0  0  0  0  0  0  0  0
    0.2105   24.3114   31.5195 H   0  0  0  0  0  0  0  0  0  0  0  0
    0.3800   25.1686   32.8183 H   0  0  0  0  0  0  0  0  0  0  0  0
    0.8199   22.5629   33.9648 H   0  0  0  0  0  0  0  0  0  0  0  0
    0.7120   24.0989   34.1378 H   0  0  0  0  0  0  0  0  0  0  0  0
    1.2485   26.6802   28.3672 H   0  0  0  0  0  0  0  0  0  0  0  0
   -1.9499   19.7565   42.7098 H   0  0  0  0  0  0  0  0  0  0  0  0
    1.5570   21.0756   38.6559 H   0  0  0  0  0  0  0  0  0  0  0  0
    1.8457   22.6715   37.6559 H   0  0  0  0  0  0  0  0  0  0  0  0
    0.2182   22.2516   42.0117 H   0  0  0  0  0  0  0  0  0  0  0  0
    0.8073   21.6077   43.6587 H   0  0  0  0  0  0  0  0  0  0  0  0
   -1.7979   17.9247   43.0075 H   0  0  0  0  0  0  0  0  0  0  0  0
   -1.1235   18.1725   44.7069 H   0  0  0  0  0  0  0  0  0  0  0  0
    2.6113   27.3171   28.9983 H   0  0  0  0  0  0  0  0  0  0  0  0
    3.6092   26.9433   27.8359 H   0  0  0  0  0  0  0  0  0  0  0  0
    1.6710   18.6668   38.5864 H   0  0  0  0  0  0  0  0  0  0  0  0
   -1.3935   19.6204   45.6597 H   0  0  0  0  0  0  0  0  0  0  0  0
    3.2180   24.3424   34.0741 H   0  0  0  0  0  0  0  0  0  0  0  0
    1.5818   25.3385   30.3131 H   0  0  0  0  0  0  0  0  0  0  0  0
    2.0344   26.4084   31.3662 H   0  0  0  0  0  0  0  0  0  0  0  0
    4.4164   21.8710   36.1884 H   0  0  0  0  0  0  0  0  0  0  0  0
    3.2241   20.9956   35.0310 H   0  0  0  0  0  0  0  0  0  0  0  0
    4.2120   19.6164   37.3059 H   0  0  0  0  0  0  0  0  0  0  0  0
    2.3788   19.1654   36.6479 H   0  0  0  0  0  0  0  0  0  0  0  0
    4.3904   24.9586   29.3864 H   0  0  0  0  0  0  0  0  0  0  0  0
    3.6642   25.4285   30.5480 H   0  0  0  0  0  0  0  0  0  0  0  0
    1.8193   23.8070   31.0845 H   0  0  0  0  0  0  0  0  0  0  0  0
   -1.3277   21.7496   43.8359 H   0  0  0  0  0  0  0  0  0  0  0  0
   -1.5370   21.0276   42.1104 H   0  0  0  0  0  0  0  0  0  0  0  0
    4.2313   23.9605   32.1184 H   0  0  0  0  0  0  0  0  0  0  0  0
    3.2214   22.5432   31.7899 H   0  0  0  0  0  0  0  0  0  0  0  0
    5.2005   15.2587   38.2240 H   0  0  0  0  0  0  0  0  0  0  0  0
    4.1975   14.9904   36.7503 H   0  0  0  0  0  0  0  0  0  0  0  0
    2.7224   23.4612   36.4703 H   0  0  0  0  0  0  0  0  0  0  0  0
    2.0004   24.2241   28.3460 H   0  0  0  0  0  0  0  0  0  0  0  0
    2.3120   14.5329   37.9529 H   0  0  0  0  0  0  0  0  0  0  0  0
    3.4932   14.0130   39.1644 H   0  0  0  0  0  0  0  0  0  0  0  0
  1  2  1  0
  2 13  1  0
  3 27  2  0
  4 23  1  0
  5  1  2  0
  6 28  1  0
  7 11  1  0
  8 13  1  0
  8 16  1  0
 12 24  1  0
 14 22  1  0
 15 21  1  0
 15 33  1  0
 17 25  1  0
 17  6  1  0
 17 28  1  0
 18  4  1  0
 18 23  1  0
 19 15  1  0
 19 35  1  0
 20 36  1  0
 23 25  1  0
 24  8  1  0
 26 34  1  0
 27  1  1  0
 27 12  1  0
 28 20  1  0
 29  3  1  0
 29  5  1  0
 30 26  1  0
 30 19  2  0
 31  7  1  0
 31 14  1  0
 31 22  1  0
 32  7  1  0
 33 10  2  0
 33 29  1  0
 34 35  1  0
 36 21  1  0
 36  9  2  3
  2 37  1  0
  2 38  1  0
  3 39  1  0
  4 40  1  0
  4 41  1  0
  6 42  1  0
  6 43  1  0
  7 44  1  0
  8 45  1  1
  9 46  1  0
  9 47  1  0
 12 48  1  0
 12 49  1  0
 13 50  1  0
 13 51  1  0
 14 52  1  0
 14 53  1  0
 15 54  1  1
 16 55  1  0
 17 56  1  1
 18 57  1  0
 18 58  1  0
 20 59  1  0
 20 60  1  0
 21 61  1  0
 21 62  1  0
 22 63  1  0
 22 64  1  0
 23 65  1  0
 24 66  1  0
 24 67  1  0
 25 68  1  0
 25 69  1  0
 26 70  1  0
 26 71  1  0
 28 72  1  1
 31 73  1  6
 34 74  1  0
 34 75  1  0
M  CHG  1  22   1
M  END
>  <mol_id>  (81) 
2026-09-16-6tgu-s0-n100-0081

>  <rmsd_to_ref>  (81) 


$$$$

     RDKit          3D

105107  0  0  0  0  0  0  0  0999 V2000
    0.9641   26.3621   30.7456 C   0  0  0  0  0  0  0  0  0  0  0  0
    1.1913   23.0401   40.6014 Cl  0  0  0  0  0  0  0  0  0  0  0  0
    3.4713   12.8179   37.3874 C   0  0  1  0  0  0  0  0  0  0  0  0
    0.4373    9.8472   36.2782 O   0  0  0  0  0  0  0  0  0  0  0  0
    1.8422   11.8709   36.2023 N   0  0  0  0  0  0  0  0  0  0  0  0
    4.7339   25.2614   34.3456 C   0  0  0  0  0  0  0  0  0  0  0  0
    1.5670   26.7481   32.0721 C   0  0  0  0  0  0  0  0  0  0  0  0
    2.7003   26.7875   34.7725 C   0  0  0  0  0  0  0  0  0  0  0  0
    3.6566   15.1613   38.6657 C   0  0  2  0  0  0  0  0  0  0  0  0
   -0.2679   30.4931   34.8057 O   0  0  0  0  0  0  0  0  0  0  0  0
   -2.1051   20.6018   42.6248 C   0  0  0  0  0  0  0  0  0  0  0  0
    5.0458   14.7362   38.9958 N   0  0  0  0  0  0  0  0  0  0  0  0
    4.0785   20.8826   35.1736 N   0  0  0  0  0  0  0  0  0  0  0  0
    2.9603   14.3139   37.6799 C   0  0  0  0  0  0  0  0  0  0  0  0
   -0.9070   20.2499   42.1290 C   0  0  0  0  0  0  0  0  0  0  0  0
    1.8790   27.9242   34.1784 C   0  0  0  0  0  0  0  0  0  0  0  0
    1.3896   28.9041   35.1673 C   0  0  0  0  0  0  0  0  0  0  0  0
    2.1370   21.0767   38.7371 C   0  0  0  0  0  0  0  0  0  0  0  0
    1.1305   18.9533   40.1273 C   0  0  0  0  0  0  0  0  0  0  0  0
    1.3202   10.4685   36.6648 C   0  0  0  0  0  0  0  0  0  0  0  0
    1.3660   21.4680   39.8080 C   0  0  0  0  0  0  0  0  0  0  0  0
    3.4400   16.5008   38.3463 O   0  0  0  0  0  0  0  0  0  0  0  0
    2.5730   19.8309   38.4075 C   0  0  0  0  0  0  0  0  0  0  0  0
    6.1192   11.1442   34.0223 C   0  0  0  0  0  0  0  0  0  0  0  0
    2.1511   16.6021   40.0935 O   0  0  0  0  0  0  0  0  0  0  0  0
    5.6896   13.2465   32.6366 C   0  0  0  0  0  0  0  0  0  0  0  0
    5.6889   13.6918   38.5757 C   0  0  0  0  0  0  0  0  0  0  0  0
   -0.4136   20.9614   41.1521 O   0  0  0  0  0  0  0  0  0  0  0  0
    5.2759   25.7547   33.4766 C   0  0  0  0  0  0  0  0  0  0  0  0
   -0.8726   29.0476   33.1324 O   0  0  0  0  0  0  0  0  0  0  0  0
    6.7348   25.4195   32.8277 F   0  0  0  0  0  0  0  0  0  0  0  0
    4.4722   25.7380   32.0580 O   0  0  0  0  0  0  0  0  0  0  0  0
    3.2428   20.8821   36.3115 C   0  0  0  0  0  0  0  0  0  0  0  0
    2.2505   21.7256   36.3701 O   0  0  0  0  0  0  0  0  0  0  0  0
    3.1759   12.1248   35.9675 C   0  0  1  0  0  0  0  0  0  0  0  0
    2.6383   17.2674   39.1445 C   0  0  0  0  0  0  0  0  0  0  0  0
    0.4365   29.5869   34.6878 N   0  0  0  0  0  0  0  0  0  0  0  0
    4.9351   12.6932   37.5407 C   0  0  0  0  0  0  0  0  0  0  0  0
    5.1646   12.2857   33.6522 C   0  0  0  0  0  0  0  0  0  0  0  0
    2.1227   13.4201   34.1266 N   0  0  0  0  0  0  0  0  0  0  0  0
   -0.8249   18.4124   43.6426 C   0  0  0  0  0  0  0  0  0  0  0  0
    2.2816   25.5532   32.6958 C   0  0  0  0  0  0  0  0  0  0  0  0
    2.1776   18.6976   39.2379 C   0  0  0  0  0  0  0  0  0  0  0  0
   -0.2642   19.1976   42.6358 C   0  0  0  0  0  0  0  0  0  0  0  0
    1.9076   10.0492   37.8756 N   0  0  0  0  0  0  0  0  0  0  0  0
    3.7973   11.7374   33.2886 C   0  0  0  0  0  0  0  0  0  0  0  0
    1.1282   27.6908   33.0098 O   0  0  0  0  0  0  0  0  0  0  0  0
   -0.2624   27.7495   30.9296 S   0  0  0  0  0  0  0  0  0  0  0  0
   -2.6872   19.8818   43.6476 C   0  0  0  0  0  0  0  0  0  0  0  0
    0.7266   20.3502   40.3549 C   0  0  0  0  0  0  0  0  0  0  0  0
    5.6628   26.8195   34.4739 C   0  0  0  0  0  0  0  0  0  0  0  0
    2.7910   12.2061   34.3816 C   0  0  1  0  0  0  0  0  0  0  0  0
    3.4396   19.7923   37.2254 N   0  0  0  0  0  0  0  0  0  0  0  0
   -0.1823   17.3582   44.0892 O   0  0  0  0  0  0  0  0  0  0  0  0
   -0.4477   29.5970   33.7953 C   0  0  0  0  0  0  0  0  0  0  0  0
    2.9290   25.6109   33.9392 O   0  0  0  0  0  0  0  0  0  0  0  0
   -2.0799   18.7934   44.2245 C   0  0  0  0  0  0  0  0  0  0  0  0
    0.5130   25.3590   30.7285 H   0  0  0  0  0  0  0  0  0  0  0  0
    1.5897   26.2783   29.8447 H   0  0  0  0  0  0  0  0  0  0  0  0
    2.8574   12.2973   38.1371 H   0  0  0  0  0  0  0  0  0  0  0  0
    1.1621   12.6327   36.0685 H   0  0  0  0  0  0  0  0  0  0  0  0
    5.0388   25.7408   35.2876 H   0  0  0  0  0  0  0  0  0  0  0  0
    3.6479   25.3738   34.2117 H   0  0  0  0  0  0  0  0  0  0  0  0
    4.9906   24.1923   34.3785 H   0  0  0  0  0  0  0  0  0  0  0  0
    3.1065   26.8508   35.7928 H   0  0  0  0  0  0  0  0  0  0  0  0
    3.2083   15.0129   39.6592 H   0  0  0  0  0  0  0  0  0  0  0  0
   -2.6288   21.4756   42.2098 H   0  0  0  0  0  0  0  0  0  0  0  0
    4.8664   20.2219   35.1130 H   0  0  0  0  0  0  0  0  0  0  0  0
    3.9003   21.5435   34.4039 H   0  0  0  0  0  0  0  0  0  0  0  0
    2.9943   14.8521   36.7212 H   0  0  0  0  0  0  0  0  0  0  0  0
    1.9750   14.1537   38.1421 H   0  0  0  0  0  0  0  0  0  0  0  0
    1.0364   28.3691   36.0612 H   0  0  0  0  0  0  0  0  0  0  0  0
    2.2141   29.5834   35.4297 H   0  0  0  0  0  0  0  0  0  0  0  0
    2.4428   21.8824   38.0535 H   0  0  0  0  0  0  0  0  0  0  0  0
    0.6194   18.1288   40.6459 H   0  0  0  0  0  0  0  0  0  0  0  0
    6.1430   11.0261   35.1156 H   0  0  0  0  0  0  0  0  0  0  0  0
    5.7695   10.2094   33.5599 H   0  0  0  0  0  0  0  0  0  0  0  0
    7.1299   11.3784   33.6566 H   0  0  0  0  0  0  0  0  0  0  0  0
    6.0282   14.1639   33.1403 H   0  0  0  0  0  0  0  0  0  0  0  0
    6.5347   12.7889   32.1014 H   0  0  0  0  0  0  0  0  0  0  0  0
    4.8928   13.4944   31.9200 H   0  0  0  0  0  0  0  0  0  0  0  0
    6.7165   13.4879   38.9110 H   0  0  0  0  0  0  0  0  0  0  0  0
    3.4978   25.7703   32.2304 H   0  0  0  0  0  0  0  0  0  0  0  0
    4.2289   11.8186   35.8816 H   0  0  0  0  0  0  0  0  0  0  0  0
    5.1413   11.6647   37.8719 H   0  0  0  0  0  0  0  0  0  0  0  0
    5.3358   12.9714   36.5547 H   0  0  0  0  0  0  0  0  0  0  0  0
    5.0671   12.9029   34.5575 H   0  0  0  0  0  0  0  0  0  0  0  0
    1.8153   13.8364   35.0172 H   0  0  0  0  0  0  0  0  0  0  0  0
    2.7619   14.0697   33.6465 H   0  0  0  0  0  0  0  0  0  0  0  0
    1.3024   13.2418   33.5297 H   0  0  0  0  0  0  0  0  0  0  0  0
    2.2898   24.6013   32.1446 H   0  0  0  0  0  0  0  0  0  0  0  0
    0.7337   18.9424   42.2500 H   0  0  0  0  0  0  0  0  0  0  0  0
    2.7039   10.5704   38.2693 H   0  0  0  0  0  0  0  0  0  0  0  0
    1.5404    9.2217   38.3668 H   0  0  0  0  0  0  0  0  0  0  0  0
    3.4886   12.1229   32.3056 H   0  0  0  0  0  0  0  0  0  0  0  0
    3.8248   10.6389   33.2369 H   0  0  0  0  0  0  0  0  0  0  0  0
   -0.5306   27.9488   32.2582 H   0  0  0  0  0  0  0  0  0  0  0  0
   -3.6765   20.1917   44.0155 H   0  0  0  0  0  0  0  0  0  0  0  0
    5.3943   26.4874   35.4876 H   0  0  0  0  0  0  0  0  0  0  0  0
    6.7474   26.9949   34.4208 H   0  0  0  0  0  0  0  0  0  0  0  0
    5.1286   27.7522   34.2401 H   0  0  0  0  0  0  0  0  0  0  0  0
    2.1116   11.3536   34.2346 H   0  0  0  0  0  0  0  0  0  0  0  0
    4.1313   19.0463   37.0643 H   0  0  0  0  0  0  0  0  0  0  0  0
    0.6834   17.0984   43.6852 H   0  0  0  0  0  0  0  0  0  0  0  0
   -2.5243   18.2521   45.0727 H   0  0  0  0  0  0  0  0  0  0  0  0
  1 48  1  0
  1  7  1  0
  3 35  1  0
  3 38  1  0
  3 14  1  0
  4 20  2  0
  5 20  1  0
  7 42  2  0
  7 47  1  0
  9 22  1  0
  9 12  1  0
 11 49  1  0
 13 33  1  0
 14  9  1  0
 15 44  1  0
 15 11  2  0
 16  8  2  0
 16 17  1  0
 18 21  2  0
 19 50  2  0
 20 45  1  0
 21 50  1  0
 21  2  1  0
 22 36  1  0
 23 18  1  0
 23 43  2  0
 26 39  1  0
 27 12  2  0
 28 15  1  0
 29  6  1  0
 29 51  1  0
 30 55  2  0
 31 29  1  0
 32 29  1  0
 33 34  2  0
 33 53  1  0
 35  5  1  0
 36 43  1  0
 36 25  2  0
 37 10  1  0
 37 17  1  0
 38 27  1  0
 39 24  1  0
 41 54  1  0
 41 57  1  0
 42 56  1  0
 43 19  1  0
 44 41  2  0
 46 39  1  0
 46 52  1  0
 47 16  1  0
 49 57  2  0
 50 28  1  0
 52 40  1  0
 52 35  1  0
 53 23  1  0
 55 37  1  0
 55 10  1  0
 56  8  1  0
  1 58  1  0
  1 59  1  0
  3 60  1  1
  5 61  1  0
  6 62  1  0
  6 63  1  0
  6 64  1  0
  8 65  1  0
  9 66  1  1
 11 67  1  0
 13 68  1  0
 13 69  1  0
 14 70  1  0
 14 71  1  0
 17 72  1  0
 17 73  1  0
 18 74  1  0
 19 75  1  0
 24 76  1  0
 24 77  1  0
 24 78  1  0
 26 79  1  0
 26 80  1  0
 26 81  1  0
 27 82  1  0
 32 83  1  0
 35 84  1  6
 38 85  1  0
 38 86  1  0
 39 87  1  0
 40 88  1  0
 40 89  1  0
 40 90  1  0
 42 91  1  0
 44 92  1  0
 45 93  1  0
 45 94  1  0
 46 95  1  0
 46 96  1  0
 48 97  1  0
 49 98  1  0
 51 99  1  0
 51100  1  0
 51101  1  0
 52102  1  1
 53103  1  0
 54104  1  0
 57105  1  0
M  CHG  1  40   1
M  END
>  <mol_id>  (82) 
2026-09-16-6tgu-s0-n100-0082

>  <rmsd_to_ref>  (82) 


$$$$

     RDKit          3D

 37 37  0  0  0  0  0  0  0  0999 V2000
    3.5060   18.4928   39.3208 C   0  0  0  0  0  0  0  0  0  0  0  0
    0.8100   20.2859   41.3438 C   0  0  0  0  0  0  0  0  0  0  0  0
    4.3554   20.2959   34.5248 C   0  0  0  0  0  0  0  0  0  0  0  0
    2.0594   19.7854   40.9696 O   0  0  0  0  0  0  0  0  0  0  0  0
    2.4157   24.3229   32.7162 C   0  0  0  0  0  0  0  0  0  0  0  0
    3.4180   24.5112   31.6665 C   0  0  0  0  0  0  0  0  0  0  0  0
    2.6229   20.4100   36.9363 C   0  0  0  0  0  0  0  0  0  0  0  0
    2.2925   25.4424   31.6255 C   0  0  0  0  0  0  0  0  0  0  0  0
    2.0861   22.7985   35.1063 C   0  0  0  0  0  0  0  0  0  0  0  0
    3.8944   21.3337   35.3926 O   0  0  0  0  0  0  0  0  0  0  0  0
    1.6189   20.3937   38.5129 S   0  0  0  0  0  0  0  0  0  0  0  0
    2.4630   21.4713   35.7197 C   0  0  1  0  0  0  0  0  0  0  0  0
    2.2110   19.1329   39.6227 C   0  0  1  0  0  0  0  0  0  0  0  0
    0.0417   19.0150   41.6228 C   0  0  0  0  0  0  0  0  0  0  0  0
    2.5781   23.0768   33.7090 C   0  0  0  0  0  0  0  0  0  0  0  0
    3.9565   18.1196   40.2523 H   0  0  0  0  0  0  0  0  0  0  0  0
    3.3473   17.6532   38.6282 H   0  0  0  0  0  0  0  0  0  0  0  0
    4.1794   19.2286   38.8569 H   0  0  0  0  0  0  0  0  0  0  0  0
    0.3485   20.8625   40.5285 H   0  0  0  0  0  0  0  0  0  0  0  0
    0.8445   20.9826   42.1943 H   0  0  0  0  0  0  0  0  0  0  0  0
    4.6971   19.4403   35.1256 H   0  0  0  0  0  0  0  0  0  0  0  0
    3.5341   19.9767   33.8662 H   0  0  0  0  0  0  0  0  0  0  0  0
    5.1896   20.6720   33.9144 H   0  0  0  0  0  0  0  0  0  0  0  0
    3.0137   24.9446   33.3987 H   0  0  0  0  0  0  0  0  0  0  0  0
    4.4152   24.8873   31.9387 H   0  0  0  0  0  0  0  0  0  0  0  0
    3.8555   23.8329   30.9193 H   0  0  0  0  0  0  0  0  0  0  0  0
    3.6701   20.4982   37.2612 H   0  0  0  0  0  0  0  0  0  0  0  0
    2.2283   19.5050   36.4512 H   0  0  0  0  0  0  0  0  0  0  0  0
    2.4348   26.4995   31.8946 H   0  0  0  0  0  0  0  0  0  0  0  0
    1.5404   25.7425   30.8810 H   0  0  0  0  0  0  0  0  0  0  0  0
    1.4777   23.5317   35.6562 H   0  0  0  0  0  0  0  0  0  0  0  0
    1.3885   21.2988   35.5599 H   0  0  0  0  0  0  0  0  0  0  0  0
    1.6283   18.2041   39.5340 H   0  0  0  0  0  0  0  0  0  0  0  0
    0.0649   18.8020   42.7018 H   0  0  0  0  0  0  0  0  0  0  0  0
   -1.0013   19.1377   41.2956 H   0  0  0  0  0  0  0  0  0  0  0  0
    0.5023   18.1802   41.0742 H   0  0  0  0  0  0  0  0  0  0  0  0
    3.1713   22.2541   33.2834 H   0  0  0  0  0  0  0  0  0  0  0  0
  2 14  1  0
  3 10  1  0
  4  2  1  0
  5 15  1  0
  6  5  1  0
  7 11  1  0
  8  6  1  0
  8  5  1  0
 10 12  1  0
 11 13  1  0
 12  9  1  0
 12  7  1  0
 13  1  1  0
 13  4  1  0
 15  9  2  3
  1 16  1  0
  1 17  1  0
  1 18  1  0
  2 19  1  0
  2 20  1  0
  3 21  1  0
  3 22  1  0
  3 23  1  0
  5 24  1  0
  6 25  1  0
  6 26  1  0
  7 27  1  0
  7 28  1  0
  8 29  1  0
  8 30  1  0
  9 31  1  0
 12 32  1  6
 13 33  1  1
 14 34  1  0
 14 35  1  0
 14 36  1  0
 15 37  1  0
M  END
>  <mol_id>  (83) 
2026-09-16-6tgu-s0-n100-0083

>  <rmsd_to_ref>  (83) 


$$$$

     RDKit          3D

 58 59  0  0  0  0  0  0  0  0999 V2000
    2.2740   24.6877   31.7184 C   0  0  1  0  0  0  0  0  0  0  0  0
    1.6552   17.6741   41.3918 C   0  0  0  0  0  0  0  0  0  0  0  0
    2.8432   23.4583   32.7359 C   0  0  0  0  0  0  0  0  0  0  0  0
    2.7403   17.2588   39.3927 O   0  0  0  0  0  0  0  0  0  0  0  0
    1.2425   26.5403   31.0186 C   0  0  1  0  0  0  0  0  0  0  0  0
    3.8362   19.8385   37.0263 O   0  0  0  0  0  0  0  0  0  0  0  0
    2.0654   19.5305   39.7215 C   0  0  0  0  0  0  0  0  0  0  0  0
    0.9320   16.5135   43.0391 C   0  0  0  0  0  0  0  0  0  0  0  0
    0.2616   19.9306   42.1294 C   0  0  0  0  0  0  0  0  0  0  0  0
    1.4061   25.8471   32.1334 O   0  0  0  0  0  0  0  0  0  0  0  0
    0.4614   17.6975   43.2265 N   0  0  0  0  0  0  0  0  0  0  0  0
    5.3966   21.9783   35.6504 C   0  0  0  0  0  0  0  0  0  0  0  0
    1.6421   27.9382   31.6760 C   0  0  0  0  0  0  0  0  0  0  0  0
    2.6864   20.3882   39.0021 C   0  0  0  0  0  0  0  0  0  0  0  0
    1.8960   22.6017   34.9749 O   0  0  0  0  0  0  0  0  0  0  0  0
    3.5119   20.9701   36.7241 C   0  0  0  0  0  0  0  0  0  0  0  0
    3.3483   25.0342   30.7729 C   0  0  0  0  0  0  0  0  0  0  0  0
    0.8072   18.4537   42.1857 C   0  0  0  0  0  0  0  0  0  0  0  0
    2.0876   26.6464   29.9997 C   0  0  0  0  0  0  0  0  0  0  0  0
    3.2352   22.5586   34.8020 C   0  0  0  0  0  0  0  0  0  0  0  0
    2.4793   21.1456   37.7676 C   0  0  0  0  0  0  0  0  0  0  0  0
    1.7107   16.4449   41.8917 N   0  0  0  0  0  0  0  0  0  0  0  0
    3.9279   21.8869   35.6780 N   0  0  0  0  0  0  0  0  0  0  0  0
    4.2509   23.4894   33.5120 S   0  0  0  0  0  0  0  0  0  0  0  0
    2.3726   18.2545   40.1631 C   0  0  1  0  0  0  0  0  0  0  0  0
    2.1199   23.5599   32.8768 C   0  0  0  0  0  0  0  0  0  0  0  0
    3.2957   25.9925   29.6472 C   0  0  0  0  0  0  0  0  0  0  0  0
    2.1364   23.9595   30.9054 H   0  0  0  0  0  0  0  0  0  0  0  0
    2.8458   22.4427   32.3134 H   0  0  0  0  0  0  0  0  0  0  0  0
    2.9691   24.4814   32.3518 H   0  0  0  0  0  0  0  0  0  0  0  0
    3.0897   16.5204   39.9520 H   0  0  0  0  0  0  0  0  0  0  0  0
    0.3180   26.1451   30.5725 H   0  0  0  0  0  0  0  0  0  0  0  0
    1.1192   19.3869   39.1792 H   0  0  0  0  0  0  0  0  0  0  0  0
    2.2652   20.0288   40.6816 H   0  0  0  0  0  0  0  0  0  0  0  0
    0.7403   15.6605   43.7068 H   0  0  0  0  0  0  0  0  0  0  0  0
    0.1908   20.3345   43.1501 H   0  0  0  0  0  0  0  0  0  0  0  0
    0.9477   20.5526   41.5357 H   0  0  0  0  0  0  0  0  0  0  0  0
   -0.7347   19.9359   41.6630 H   0  0  0  0  0  0  0  0  0  0  0  0
    5.7913   21.8479   36.6688 H   0  0  0  0  0  0  0  0  0  0  0  0
    5.8008   21.1911   34.9969 H   0  0  0  0  0  0  0  0  0  0  0  0
    5.6955   22.9642   35.2647 H   0  0  0  0  0  0  0  0  0  0  0  0
    1.7859   27.8065   32.7585 H   0  0  0  0  0  0  0  0  0  0  0  0
    2.5763   28.3024   31.2235 H   0  0  0  0  0  0  0  0  0  0  0  0
    0.8395   28.6693   31.4989 H   0  0  0  0  0  0  0  0  0  0  0  0
    2.8777   21.1920   39.7281 H   0  0  0  0  0  0  0  0  0  0  0  0
    3.2889   19.6179   38.4986 H   0  0  0  0  0  0  0  0  0  0  0  0
    4.1720   25.3941   31.4068 H   0  0  0  0  0  0  0  0  0  0  0  0
    3.3688   24.0989   30.1943 H   0  0  0  0  0  0  0  0  0  0  0  0
    1.4448   26.4672   29.1252 H   0  0  0  0  0  0  0  0  0  0  0  0
    2.5699   27.5665   30.3611 H   0  0  0  0  0  0  0  0  0  0  0  0
    2.4419   22.2134   38.0291 H   0  0  0  0  0  0  0  0  0  0  0  0
    1.5461   20.7584   37.3326 H   0  0  0  0  0  0  0  0  0  0  0  0
    2.2147   15.6293   41.5153 H   0  0  0  0  0  0  0  0  0  0  0  0
    3.3207   18.7543   40.4106 H   0  0  0  0  0  0  0  0  0  0  0  0
    1.8771   23.9367   33.8814 H   0  0  0  0  0  0  0  0  0  0  0  0
    1.3665   22.7584   32.8676 H   0  0  0  0  0  0  0  0  0  0  0  0
    3.2267   25.4870   28.6726 H   0  0  0  0  0  0  0  0  0  0  0  0
    4.1764   26.6401   29.5233 H   0  0  0  0  0  0  0  0  0  0  0  0
  1 10  1  0
  1 26  1  0
  2 18  2  0
  2 22  1  0
  3 26  1  0
  3 24  1  0
  5 13  1  0
  5 10  1  0
  7 25  1  0
  9 18  1  0
 11  8  2  0
 14  7  1  0
 15 20  2  0
 16  6  2  0
 16 21  1  0
 17  1  1  0
 18 11  1  0
 19  5  1  0
 20 23  1  0
 21 14  1  0
 22  8  1  0
 23 12  1  0
 23 16  1  0
 24 20  1  0
 25  4  1  0
 25  2  1  0
 27 19  1  0
 27 17  1  0
  1 28  1  6
  3 29  1  0
  3 30  1  0
  4 31  1  0
  5 32  1  6
  7 33  1  0
  7 34  1  0
  8 35  1  0
  9 36  1  0
  9 37  1  0
  9 38  1  0
 12 39  1  0
 12 40  1  0
 12 41  1  0
 13 42  1  0
 13 43  1  0
 13 44  1  0
 14 45  1  0
 14 46  1  0
 17 47  1  0
 17 48  1  0
 19 49  1  0
 19 50  1  0
 21 51  1  0
 21 52  1  0
 22 53  1  0
 25 54  1  1
 26 55  1  0
 26 56  1  0
 27 57  1  0
 27 58  1  0
M  END
>  <mol_id>  (84) 
2026-09-16-6tgu-s0-n100-0084

>  <rmsd_to_ref>  (84) 


$$$$

     RDKit          3D

 55 56  0  0  0  0  0  0  0  0999 V2000
    1.4604   20.2960   41.7728 O   0  0  0  0  0  0  0  0  0  0  0  0
    4.0156   25.0772   31.3618 O   0  0  0  0  0  0  0  0  0  0  0  0
    0.2479   18.5089   42.4772 C   0  0  0  0  0  0  0  0  0  0  0  0
    2.2026   26.2092   34.4285 O   0  0  0  0  0  0  0  0  0  0  0  0
    2.7337   25.4847   31.5802 C   0  0  0  0  0  0  0  0  0  0  0  0
    4.0666   19.6660   36.2758 C   0  0  0  0  0  0  0  0  0  0  0  0
    3.7269   22.7791   34.3414 C   0  0  0  0  0  0  0  0  0  0  0  0
    1.2686   27.8142   33.0838 C   0  0  0  0  0  0  0  0  0  0  0  0
    4.1578   16.6815   37.5725 C   0  0  0  0  0  0  0  0  0  0  0  0
    4.3623   16.5112   38.7338 O   0  0  0  0  0  0  0  0  0  0  0  0
    3.8456   19.0654   37.4864 C   0  0  0  0  0  0  0  0  0  0  0  0
    2.8687   12.8977   35.0514 C   0  0  0  0  0  0  0  0  0  0  0  0
    0.5510   19.8812   42.6789 C   0  0  0  0  0  0  0  0  0  0  0  0
    4.3271   15.7285   36.6129 N   0  0  0  0  0  0  0  0  0  0  0  0
    3.7558   13.1633   36.1812 C   0  0  0  0  0  0  0  0  0  0  0  0
    4.2458   23.8781   32.0706 C   0  0  0  0  0  0  0  0  0  0  0  0
    3.9564   17.8427   37.0507 N   0  0  0  0  0  0  0  0  0  0  0  0
    3.5847   21.9197   34.8396 C   0  0  0  0  0  0  0  0  0  0  0  0
    3.6021   24.3990   33.4906 N   0  0  0  0  0  0  0  0  0  0  0  0
    3.6003   12.1894   37.2346 O   0  0  0  0  0  0  0  0  0  0  0  0
    3.4473   14.5596   36.8452 C   0  0  0  0  0  0  0  0  0  0  0  0
    5.1233   13.1806   35.8147 O   0  0  0  0  0  0  0  0  0  0  0  0
    1.9592   27.9381   34.3935 C   0  0  0  0  0  0  0  0  0  0  0  0
    1.5931   27.0569   31.4748 S   0  0  0  0  0  0  0  0  0  0  0  0
    2.9252   25.5962   33.6986 C   0  0  0  0  0  0  0  0  0  0  0  0
    1.7144   19.2839   40.9240 C   0  0  0  0  0  0  0  0  0  0  0  0
    1.1267   18.0866   41.3771 C   0  0  0  0  0  0  0  0  0  0  0  0
    3.9182   20.7689   35.7044 C   0  0  0  0  0  0  0  0  0  0  0  0
    2.5319   19.4081   39.7776 C   0  0  0  0  0  0  0  0  0  0  0  0
    3.2104   19.2184   38.7532 C   0  0  0  0  0  0  0  0  0  0  0  0
   -0.4839   17.8963   43.0241 H   0  0  0  0  0  0  0  0  0  0  0  0
    2.1797   24.7820   30.9404 H   0  0  0  0  0  0  0  0  0  0  0  0
    2.9339   25.6584   32.6477 H   0  0  0  0  0  0  0  0  0  0  0  0
    4.5221   18.9454   35.5807 H   0  0  0  0  0  0  0  0  0  0  0  0
    0.3139   27.3486   33.3695 H   0  0  0  0  0  0  0  0  0  0  0  0
    1.5652   28.8199   32.7509 H   0  0  0  0  0  0  0  0  0  0  0  0
    1.9316   12.4530   35.4176 H   0  0  0  0  0  0  0  0  0  0  0  0
    2.6478   13.8403   34.5291 H   0  0  0  0  0  0  0  0  0  0  0  0
    3.3587   12.1997   34.3566 H   0  0  0  0  0  0  0  0  0  0  0  0
    0.1080   20.5150   43.4612 H   0  0  0  0  0  0  0  0  0  0  0  0
    4.9848   15.8109   35.8246 H   0  0  0  0  0  0  0  0  0  0  0  0
    3.7025   23.0212   31.6458 H   0  0  0  0  0  0  0  0  0  0  0  0
    5.2774   23.4971   32.0948 H   0  0  0  0  0  0  0  0  0  0  0  0
    3.8578   17.7906   36.0268 H   0  0  0  0  0  0  0  0  0  0  0  0
    3.8000   12.6123   38.1072 H   0  0  0  0  0  0  0  0  0  0  0  0
    3.4315   14.3918   37.9322 H   0  0  0  0  0  0  0  0  0  0  0  0
    2.5121   14.8602   36.3502 H   0  0  0  0  0  0  0  0  0  0  0  0
    5.6838   13.1205   36.6285 H   0  0  0  0  0  0  0  0  0  0  0  0
    2.8906   28.5220   34.3566 H   0  0  0  0  0  0  0  0  0  0  0  0
    1.4686   28.4484   35.2355 H   0  0  0  0  0  0  0  0  0  0  0  0
    3.7673   26.3010   33.6338 H   0  0  0  0  0  0  0  0  0  0  0  0
    2.0523   25.2022   33.1575 H   0  0  0  0  0  0  0  0  0  0  0  0
    1.2884   17.0680   40.9948 H   0  0  0  0  0  0  0  0  0  0  0  0
    5.0011   20.9470   35.6304 H   0  0  0  0  0  0  0  0  0  0  0  0
    2.8469   20.6967   35.9434 H   0  0  0  0  0  0  0  0  0  0  0  0
  1 13  1  0
  2  5  1  0
  2 16  1  0
  3 13  2  0
  6 11  2  3
  7 18  3  0
  8 23  1  0
  9 10  2  0
 11 30  1  0
 12 15  1  0
 14 21  1  0
 14  9  1  0
 15 21  1  0
 15 20  1  0
 16 19  1  0
 17 11  1  0
 17  9  1  0
 18 28  1  0
 19 25  1  0
 19  7  1  0
 22 15  1  0
 23  4  1  0
 24  5  1  0
 24  8  1  0
 25  4  1  0
 26 27  2  0
 26  1  1  0
 27  3  1  0
 28  6  1  0
 29 26  1  0
 30 29  3  0
  3 31  1  0
  5 32  1  0
  5 33  1  0
  6 34  1  0
  8 35  1  0
  8 36  1  0
 12 37  1  0
 12 38  1  0
 12 39  1  0
 13 40  1  0
 14 41  1  0
 16 42  1  0
 16 43  1  0
 17 44  1  0
 20 45  1  0
 21 46  1  0
 21 47  1  0
 22 48  1  0
 23 49  1  0
 23 50  1  0
 25 51  1  0
 25 52  1  0
 27 53  1  0
 28 54  1  0
 28 55  1  0
M  END
>  <mol_id>  (85) 
2026-09-16-6tgu-s0-n100-0085

>  <rmsd_to_ref>  (85) 


$$$$

     RDKit          3D

 47 46  0  0  0  0  0  0  0  0999 V2000
    3.0100   19.5880   37.8980 C   0  0  1  0  0  0  0  0  0  0  0  0
    3.6370   22.5060   33.1090 C   0  0  0  0  0  0  0  0  0  0  0  0
    3.4170   23.8700   32.3710 C   0  0  0  0  0  0  0  0  0  0  0  0
    3.4210   18.9390   40.0900 O   0  0  0  0  0  0  0  0  0  0  0  0
    1.4440   21.5620   40.0790 O   0  0  0  0  0  0  0  0  0  0  0  0
    2.7530   22.0360   34.2060 C   0  0  2  0  0  0  0  0  0  0  0  0
    4.4500   19.2300   37.8850 C   0  0  0  0  0  0  0  0  0  0  0  0
    1.2930   20.1870   39.7550 C   0  0  2  0  0  0  0  0  0  0  0  0
    4.0860   23.9100   31.1260 C   0  0  0  0  0  0  0  0  0  0  0  0
    0.5710   19.4580   40.8860 C   0  0  0  0  0  0  0  0  0  0  0  0
    3.3140   21.0980   35.3170 C   0  0  0  0  0  0  0  0  0  0  0  0
    2.5740   19.5800   39.3550 C   0  0  2  0  0  0  0  0  0  0  0  0
    3.1700   24.7140   30.2100 C   0  0  0  0  0  0  0  0  0  0  0  0
    3.7910   25.9350   29.6660 C   0  0  0  0  0  0  0  0  0  0  0  0
    2.7280   21.2490   37.0270 S   0  0  0  0  0  0  0  0  0  0  0  0
    2.4270   23.7630   29.2170 C   0  0  0  0  0  0  0  0  0  0  0  0
    1.2700   22.5690   34.3150 C   0  0  0  0  0  0  0  0  0  0  0  0
    2.3972   18.8673   37.3368 H   0  0  0  0  0  0  0  0  0  0  0  0
    4.6513   22.5489   33.5324 H   0  0  0  0  0  0  0  0  0  0  0  0
    3.4095   21.7819   32.3128 H   0  0  0  0  0  0  0  0  0  0  0  0
    2.3397   24.0123   32.2005 H   0  0  0  0  0  0  0  0  0  0  0  0
    3.8275   24.6702   33.0043 H   0  0  0  0  0  0  0  0  0  0  0  0
    3.2139   19.0957   41.0453 H   0  0  0  0  0  0  0  0  0  0  0  0
    1.4558   21.6698   41.0630 H   0  0  0  0  0  0  0  0  0  0  0  0
    3.0980   22.8663   34.8397 H   0  0  0  0  0  0  0  0  0  0  0  0
    4.8146   19.1393   38.9188 H   0  0  0  0  0  0  0  0  0  0  0  0
    4.5847   18.2710   37.3633 H   0  0  0  0  0  0  0  0  0  0  0  0
    5.0181   20.0142   37.3633 H   0  0  0  0  0  0  0  0  0  0  0  0
    0.6519   20.0872   38.8668 H   0  0  0  0  0  0  0  0  0  0  0  0
    5.0626   24.4059   31.2279 H   0  0  0  0  0  0  0  0  0  0  0  0
    4.2835   22.9025   30.7311 H   0  0  0  0  0  0  0  0  0  0  0  0
    0.9382   19.8287   41.8544 H   0  0  0  0  0  0  0  0  0  0  0  0
   -0.5108   19.6421   40.8092 H   0  0  0  0  0  0  0  0  0  0  0  0
    0.7655   18.3781   40.8092 H   0  0  0  0  0  0  0  0  0  0  0  0
    3.0978   20.0674   34.9990 H   0  0  0  0  0  0  0  0  0  0  0  0
    4.3693   21.4001   35.3881 H   0  0  0  0  0  0  0  0  0  0  0  0
    3.0798   20.5442   39.5116 H   0  0  0  0  0  0  0  0  0  0  0  0
    2.3637   25.1674   30.8053 H   0  0  0  0  0  0  0  0  0  0  0  0
    4.1190   26.5799   30.4945 H   0  0  0  0  0  0  0  0  0  0  0  0
    4.6593   25.6610   29.0487 H   0  0  0  0  0  0  0  0  0  0  0  0
    3.0582   26.4753   29.0487 H   0  0  0  0  0  0  0  0  0  0  0  0
    1.8470   23.0206   29.7849 H   0  0  0  0  0  0  0  0  0  0  0  0
    1.7478   24.3525   28.5836 H   0  0  0  0  0  0  0  0  0  0  0  0
    3.1633   23.2466   28.5836 H   0  0  0  0  0  0  0  0  0  0  0  0
    0.9931   22.6685   35.3749 H   0  0  0  0  0  0  0  0  0  0  0  0
    1.1959   23.5500   33.8230 H   0  0  0  0  0  0  0  0  0  0  0  0
    0.5883   21.8596   33.8230 H   0  0  0  0  0  0  0  0  0  0  0  0
  1  7  1  0
  1 12  1  0
  2  6  1  0
  3  2  1  0
  6 17  1  0
  6 11  1  0
  8  5  1  0
  8 10  1  0
  9  3  1  0
 11 15  1  0
 12  8  1  0
 12  4  1  0
 13  9  1  0
 14 13  1  0
 15  1  1  0
 16 13  1  0
  1 18  1  6
  2 19  1  0
  2 20  1  0
  3 21  1  0
  3 22  1  0
  4 23  1  0
  5 24  1  0
  6 25  1  6
  7 26  1  0
  7 27  1  0
  7 28  1  0
  8 29  1  6
  9 30  1  0
  9 31  1  0
 10 32  1  0
 10 33  1  0
 10 34  1  0
 11 35  1  0
 11 36  1  0
 12 37  1  1
 13 38  1  0
 14 39  1  0
 14 40  1  0
 14 41  1  0
 16 42  1  0
 16 43  1  0
 16 44  1  0
 17 45  1  0
 17 46  1  0
 17 47  1  0
M  END
>  <mol_id>  (86) 
2026-09-16-6tgu-s0-n100-0086

>  <rmsd_to_ref>  (86) 


$$$$

     RDKit          3D

 25 25  0  0  0  0  0  0  0  0999 V2000
    1.6942   18.6477   40.4251 C   0  0  0  0  0  0  0  0  0  0  0  0
    3.9243   20.6255   35.4286 C   0  0  0  0  0  0  0  0  0  0  0  0
    2.7244   20.8127   36.0402 C   0  0  0  0  0  0  0  0  0  0  0  0
    4.0196   23.8345   32.9194 S   0  0  0  0  0  0  0  0  0  0  0  0
    1.6429   20.0047   38.4374 C   0  0  0  0  0  0  0  0  0  0  0  0
    3.4252   22.6722   34.0821 C   0  0  0  0  0  0  0  0  0  0  0  0
    0.0689   20.4479   40.2226 C   0  0  0  0  0  0  0  0  0  0  0  0
    1.7334   21.7679   35.6213 C   0  0  0  0  0  0  0  0  0  0  0  0
    2.1157   22.6755   34.5882 C   0  0  0  0  0  0  0  0  0  0  0  0
    4.2878   21.5855   34.5254 C   0  0  0  0  0  0  0  0  0  0  0  0
    0.6002   20.7082   38.9886 C   0  0  0  0  0  0  0  0  0  0  0  0
    0.6463   19.3613   40.9941 C   0  0  0  0  0  0  0  0  0  0  0  0
    2.2075   18.9306   39.1354 C   0  0  0  0  0  0  0  0  0  0  0  0
    2.1453   17.8268   41.0019 H   0  0  0  0  0  0  0  0  0  0  0  0
    4.5624   19.7564   35.6468 H   0  0  0  0  0  0  0  0  0  0  0  0
    2.4952   20.1898   36.9172 H   0  0  0  0  0  0  0  0  0  0  0  0
    4.0441   25.0797   33.4901 H   0  0  0  0  0  0  0  0  0  0  0  0
    2.0341   20.2849   37.4482 H   0  0  0  0  0  0  0  0  0  0  0  0
   -0.7683   21.0424   40.6173 H   0  0  0  0  0  0  0  0  0  0  0  0
    0.7314   21.7972   36.0745 H   0  0  0  0  0  0  0  0  0  0  0  0
    1.3774   23.3842   34.1848 H   0  0  0  0  0  0  0  0  0  0  0  0
    5.3025   21.5336   34.1041 H   0  0  0  0  0  0  0  0  0  0  0  0
    0.1655   21.5312   38.4023 H   0  0  0  0  0  0  0  0  0  0  0  0
    0.2666   19.1113   41.9958 H   0  0  0  0  0  0  0  0  0  0  0  0
    3.0187   18.3292   38.6991 H   0  0  0  0  0  0  0  0  0  0  0  0
  1 12  1  0
  2  3  2  0
  4  6  1  0
  5 13  1  0
  5 11  2  0
  6 10  2  0
  6  9  1  0
  7 12  2  0
  8  3  1  0
  9  8  2  0
 10  2  1  0
 11  7  1  0
 13  1  2  0
  1 14  1  0
  2 15  1  0
  3 16  1  0
  4 17  1  0
  5 18  1  0
  7 19  1  0
  8 20  1  0
  9 21  1  0
 10 22  1  0
 11 23  1  0
 12 24  1  0
 13 25  1  0
M  END
>  <mol_id>  (87) 
2026-09-16-6tgu-s0-n100-0087

>  <rmsd_to_ref>  (87) 


$$$$

     RDKit          3D

 55 55  0  0  0  0  0  0  0  0999 V2000
    2.6560   16.8480   39.5710 C   0  0  0  0  0  0  0  0  0  0  0  0
    4.2458   22.0163   34.2192 C   0  0  0  0  0  0  0  0  0  0  0  0
    4.4931   13.7964   35.6712 N   0  0  0  0  0  0  0  0  0  0  0  0
    2.3495   21.5213   36.2721 O   0  0  0  0  0  0  0  0  0  0  0  0
    3.1247   20.7827   36.7798 C   0  0  0  0  0  0  0  0  0  0  0  0
    4.5298   23.3239   31.5777 C   0  0  0  0  0  0  0  0  0  0  0  0
    4.0888   20.5233   34.6264 C   0  0  0  0  0  0  0  0  0  0  0  0
    3.0175   16.5552   38.1650 C   0  0  2  0  0  0  0  0  0  0  0  0
    3.0077   20.3833   38.1881 C   0  0  0  0  0  0  0  0  0  0  0  0
    4.1552   20.2700   36.0354 O   0  0  0  0  0  0  0  0  0  0  0  0
    1.0805   17.4924   41.7093 C   0  0  0  0  0  0  0  0  0  0  0  0
    2.6818   17.9952   36.2795 O   0  0  0  0  0  0  0  0  0  0  0  0
    3.1511   15.2833   37.3269 C   0  0  0  0  0  0  0  0  0  0  0  0
    2.2677   14.3736   37.5461 O   0  0  0  0  0  0  0  0  0  0  0  0
    4.4808   24.3003   29.3235 N   0  0  0  0  0  0  0  0  0  0  0  0
    3.6495   25.1812   29.7763 C   0  0  0  0  0  0  0  0  0  0  0  0
    3.2166   25.3455   31.1112 C   0  0  0  0  0  0  0  0  0  0  0  0
    3.5989   24.2890   31.9902 C   0  0  0  0  0  0  0  0  0  0  0  0
    0.9002   19.7692   40.7180 O   0  0  0  0  0  0  0  0  0  0  0  0
    1.7512   18.7113   41.0732 C   0  0  2  0  0  0  0  0  0  0  0  0
    2.8555   18.9375   38.5354 C   0  0  0  0  0  0  0  0  0  0  0  0
    3.2801   17.8217   37.5053 C   0  0  1  0  0  0  0  0  0  0  0  0
    2.3304   18.1759   39.7511 C   0  0  0  0  0  0  0  0  0  0  0  0
    4.2417   14.8556   36.4213 C   0  0  0  0  0  0  0  0  0  0  0  0
    4.9312   23.4063   30.2318 C   0  0  0  0  0  0  0  0  0  0  0  0
    3.0631   23.0445   34.3093 C   0  0  0  0  0  0  0  0  0  0  0  0
    3.5110   16.6004   40.2173 H   0  0  0  0  0  0  0  0  0  0  0  0
    1.7752   16.2423   39.8304 H   0  0  0  0  0  0  0  0  0  0  0  0
    5.0514   22.4215   34.8491 H   0  0  0  0  0  0  0  0  0  0  0  0
    4.3944   21.9387   33.1321 H   0  0  0  0  0  0  0  0  0  0  0  0
    4.7426   12.9999   36.2746 H   0  0  0  0  0  0  0  0  0  0  0  0
    3.6561   13.5601   35.1194 H   0  0  0  0  0  0  0  0  0  0  0  0
    5.2762   14.0041   35.0353 H   0  0  0  0  0  0  0  0  0  0  0  0
    4.9196   22.5546   32.2606 H   0  0  0  0  0  0  0  0  0  0  0  0
    3.1127   20.1708   34.2619 H   0  0  0  0  0  0  0  0  0  0  0  0
    4.9405   19.9909   34.1777 H   0  0  0  0  0  0  0  0  0  0  0  0
    1.9589   16.6342   37.8764 H   0  0  0  0  0  0  0  0  0  0  0  0
    3.9147   20.7405   38.6978 H   0  0  0  0  0  0  0  0  0  0  0  0
    2.0506   20.8253   38.5020 H   0  0  0  0  0  0  0  0  0  0  0  0
    1.1961   17.5389   42.8022 H   0  0  0  0  0  0  0  0  0  0  0  0
    0.0106   17.4875   41.4536 H   0  0  0  0  0  0  0  0  0  0  0  0
    1.5524   16.5743   41.3293 H   0  0  0  0  0  0  0  0  0  0  0  0
    1.7298   18.2347   36.4079 H   0  0  0  0  0  0  0  0  0  0  0  0
    2.2950   13.5243   37.0382 H   0  0  0  0  0  0  0  0  0  0  0  0
    3.2320   25.8821   29.0384 H   0  0  0  0  0  0  0  0  0  0  0  0
    2.6330   26.2162   31.4451 H   0  0  0  0  0  0  0  0  0  0  0  0
    3.1611   24.2307   32.9976 H   0  0  0  0  0  0  0  0  0  0  0  0
    0.5726   20.2184   41.5371 H   0  0  0  0  0  0  0  0  0  0  0  0
    2.4575   19.1241   41.8085 H   0  0  0  0  0  0  0  0  0  0  0  0
    4.3477   17.8681   37.2446 H   0  0  0  0  0  0  0  0  0  0  0  0
    5.0427   15.6068   36.3564 H   0  0  0  0  0  0  0  0  0  0  0  0
    5.6793   22.6771   29.8874 H   0  0  0  0  0  0  0  0  0  0  0  0
    2.8420   23.2574   35.3656 H   0  0  0  0  0  0  0  0  0  0  0  0
    3.3480   23.9766   33.7992 H   0  0  0  0  0  0  0  0  0  0  0  0
    2.1706   22.6202   33.8261 H   0  0  0  0  0  0  0  0  0  0  0  0
  1 23  1  0
  2  7  1  0
  3 24  1  0
  4  5  2  0
  5  9  1  0
  6 18  1  0
  7 10  1  0
  8 13  1  0
  8  1  1  0
  9 21  1  0
 10  5  1  0
 13 14  1  0
 15 16  2  0
 15 25  1  0
 16 17  1  0
 17 18  2  0
 19 20  1  0
 20 11  1  0
 21 23  2  0
 22 12  1  0
 22  8  1  0
 22 21  1  0
 23 20  1  0
 24 13  2  3
 25  6  2  0
 26  2  1  0
  1 27  1  0
  1 28  1  0
  2 29  1  0
  2 30  1  0
  3 31  1  0
  3 32  1  0
  3 33  1  0
  6 34  1  0
  7 35  1  0
  7 36  1  0
  8 37  1  6
  9 38  1  0
  9 39  1  0
 11 40  1  0
 11 41  1  0
 11 42  1  0
 12 43  1  0
 14 44  1  0
 16 45  1  0
 17 46  1  0
 18 47  1  0
 19 48  1  0
 20 49  1  1
 22 50  1  6
 24 51  1  0
 25 52  1  0
 26 53  1  0
 26 54  1  0
 26 55  1  0
M  CHG  1   3   1
M  END
>  <mol_id>  (88) 
2026-09-16-6tgu-s0-n100-0088

>  <rmsd_to_ref>  (88) 


$$$$

     RDKit          3D

 65 65  0  0  0  0  0  0  0  0999 V2000
    0.6648   20.8260   40.4404 C   0  0  0  0  0  0  0  0  0  0  0  0
    4.9712   16.1106   37.0001 N   0  0  0  0  0  0  0  0  0  0  0  0
    2.0996   19.8020   38.4179 C   0  0  0  0  0  0  0  0  0  0  0  0
    2.5730   17.5656   39.5044 N   0  0  0  0  0  0  0  0  0  0  0  0
    1.0683   23.9877   29.2756 C   0  0  1  0  0  0  0  0  0  0  0  0
    3.0930   22.6297   28.2068 S   0  0  0  0  0  0  0  0  0  0  0  0
    2.6143   20.2150   37.1954 C   0  0  0  0  0  0  0  0  0  0  0  0
   -1.3518   25.8314   27.1984 C   0  0  0  0  0  0  0  0  0  0  0  0
    0.7083   22.7619   29.7213 O   0  0  0  0  0  0  0  0  0  0  0  0
    1.1939   21.1957   42.7927 O   0  0  0  0  0  0  0  0  0  0  0  0
   -0.2475   24.9956   27.1130 C   0  0  0  0  0  0  0  0  0  0  0  0
   -0.2575   18.6267   40.6868 O   0  0  0  0  0  0  0  0  0  0  0  0
    0.7750   19.9012   44.6906 O   0  0  0  0  0  0  0  0  0  0  0  0
    0.8118   19.1587   43.4938 C   0  0  0  0  0  0  0  0  0  0  0  0
    2.6308   24.0243   29.2856 C   0  0  0  0  0  0  0  0  0  0  0  0
    2.8985   24.8370   30.1252 O   0  0  0  0  0  0  0  0  0  0  0  0
    1.9960   20.4111   30.0709 S   0  0  0  0  0  0  0  0  0  0  0  0
    1.6074   21.9273   30.5197 C   0  0  0  0  0  0  0  0  0  0  0  0
    2.7950   18.5365   38.5279 C   0  0  1  0  0  0  0  0  0  0  0  0
    0.3104   20.0983   42.5062 C   0  0  2  0  0  0  0  0  0  0  0  0
    3.5160   19.3768   36.5394 N   0  0  0  0  0  0  0  0  0  0  0  0
    0.4761   19.7280   41.2314 C   0  0  2  0  0  0  0  0  0  0  0  0
    1.1091   20.6373   39.0726 C   0  0  0  0  0  0  0  0  0  0  0  0
    1.7404   22.9370   32.9605 C   0  0  1  0  0  0  0  0  0  0  0  0
    3.0302   23.0793   33.5973 C   0  0  0  0  0  0  0  0  0  0  0  0
    3.3246   21.8031   34.2744 N   0  0  0  0  0  0  0  0  0  0  0  0
    3.6462   18.3227   37.4614 C   0  0  0  0  0  0  0  0  0  0  0  0
    4.4124   17.1025   37.1975 C   0  0  0  0  0  0  0  0  0  0  0  0
    0.9750   24.5112   27.8442 C   0  0  0  0  0  0  0  0  0  0  0  0
    1.0759   17.8550   42.7943 O   0  0  0  0  0  0  0  0  0  0  0  0
    1.9717   22.3622   31.6105 N   0  0  0  0  0  0  0  0  0  0  0  0
   -0.1706   26.4486   26.5599 C   0  0  0  0  0  0  0  0  0  0  0  0
    0.8866   21.9890   33.7954 C   0  0  0  0  0  0  0  0  0  0  0  0
   -0.2952   21.3612   40.3970 H   0  0  0  0  0  0  0  0  0  0  0  0
    1.5009   21.3566   40.9194 H   0  0  0  0  0  0  0  0  0  0  0  0
    2.5778   18.0072   40.4350 H   0  0  0  0  0  0  0  0  0  0  0  0
    1.6600   17.1174   39.3417 H   0  0  0  0  0  0  0  0  0  0  0  0
    3.3174   16.8552   39.4577 H   0  0  0  0  0  0  0  0  0  0  0  0
    0.3648   24.5522   29.9051 H   0  0  0  0  0  0  0  0  0  0  0  0
    3.3439   21.5226   28.9739 H   0  0  0  0  0  0  0  0  0  0  0  0
    2.3182   21.1788   36.7557 H   0  0  0  0  0  0  0  0  0  0  0  0
   -2.2365   25.6109   26.5831 H   0  0  0  0  0  0  0  0  0  0  0  0
   -1.9859   26.1403   28.0425 H   0  0  0  0  0  0  0  0  0  0  0  0
    1.2414   21.3342   43.7718 H   0  0  0  0  0  0  0  0  0  0  0  0
   -0.3065   23.9107   26.9413 H   0  0  0  0  0  0  0  0  0  0  0  0
   -0.6701   18.1089   41.4228 H   0  0  0  0  0  0  0  0  0  0  0  0
    3.5531   19.0089   39.1697 H   0  0  0  0  0  0  0  0  0  0  0  0
   -0.7752   20.2590   42.5800 H   0  0  0  0  0  0  0  0  0  0  0  0
    1.4094   19.1460   41.2439 H   0  0  0  0  0  0  0  0  0  0  0  0
    1.4124   21.6517   38.7744 H   0  0  0  0  0  0  0  0  0  0  0  0
    0.2528   20.0107   38.7825 H   0  0  0  0  0  0  0  0  0  0  0  0
    1.2221   23.9036   32.8764 H   0  0  0  0  0  0  0  0  0  0  0  0
    3.8017   23.2924   32.8427 H   0  0  0  0  0  0  0  0  0  0  0  0
    3.0209   23.9107   34.3175 H   0  0  0  0  0  0  0  0  0  0  0  0
    3.2199   21.9223   35.2921 H   0  0  0  0  0  0  0  0  0  0  0  0
    2.6694   21.0802   33.9442 H   0  0  0  0  0  0  0  0  0  0  0  0
    4.2900   21.5154   34.0599 H   0  0  0  0  0  0  0  0  0  0  0  0
    1.6733   25.3606   27.8123 H   0  0  0  0  0  0  0  0  0  0  0  0
    1.1224   23.5610   27.3099 H   0  0  0  0  0  0  0  0  0  0  0  0
    2.9978   22.2868   31.5613 H   0  0  0  0  0  0  0  0  0  0  0  0
    0.4140   27.2212   27.0807 H   0  0  0  0  0  0  0  0  0  0  0  0
    0.0695   26.9396   25.6054 H   0  0  0  0  0  0  0  0  0  0  0  0
    1.0129   22.2251   34.8623 H   0  0  0  0  0  0  0  0  0  0  0  0
   -0.1710   22.1062   33.5166 H   0  0  0  0  0  0  0  0  0  0  0  0
    1.2020   20.9517   33.6095 H   0  0  0  0  0  0  0  0  0  0  0  0
  1 22  1  0
  2 28  3  0
  3 19  1  0
  3 23  1  0
  5 29  1  0
  5  9  1  0
  6 15  1  0
  7  3  2  0
  9 18  1  0
 11  8  1  0
 11 29  1  0
 14 13  1  0
 15  5  1  0
 15 16  2  0
 17 18  2  0
 18 31  1  0
 19  4  1  0
 20 10  1  0
 20 14  1  0
 21  7  1  0
 21 27  2  0
 22 12  1  0
 22 20  1  0
 23  1  1  0
 24 25  1  0
 24 33  1  0
 25 26  1  0
 27 19  1  0
 28 27  1  0
 30 14  2  0
 31 24  1  0
 32 11  1  0
 32  8  1  0
  1 34  1  0
  1 35  1  0
  4 36  1  0
  4 37  1  0
  4 38  1  0
  5 39  1  1
  6 40  1  0
  7 41  1  0
  8 42  1  0
  8 43  1  0
 10 44  1  0
 11 45  1  0
 12 46  1  0
 19 47  1  1
 20 48  1  1
 22 49  1  1
 23 50  1  0
 23 51  1  0
 24 52  1  6
 25 53  1  0
 25 54  1  0
 26 55  1  0
 26 56  1  0
 26 57  1  0
 29 58  1  0
 29 59  1  0
 31 60  1  0
 32 61  1  0
 32 62  1  0
 33 63  1  0
 33 64  1  0
 33 65  1  0
M  CHG  3   4   1  13  -1  26   1
M  END
>  <mol_id>  (89) 
2026-09-16-6tgu-s0-n100-0089

>  <rmsd_to_ref>  (89) 


$$$$

     RDKit          3D

 41 45  0  0  0  0  0  0  0  0999 V2000
    3.9819   18.2712   39.3858 S   0  0  0  0  0  0  0  0  0  0  0  0
    4.7667   22.6112   34.2751 C   0  0  2  0  0  0  0  0  0  0  0  0
    1.2461   17.9944   42.2399 C   0  0  0  0  0  0  0  0  0  0  0  0
    3.1561   16.6411   41.9115 N   0  0  0  0  0  0  0  0  0  0  0  0
    0.4718   19.1281   41.8387 C   0  0  0  0  0  0  0  0  0  0  0  0
    3.6928   21.7607   34.2465 C   0  0  0  0  0  0  0  0  0  0  0  0
    5.2829   23.5722   34.6608 C   0  0  0  0  0  0  0  0  0  0  0  0
    0.8449   19.8936   40.8109 C   0  0  0  0  0  0  0  0  0  0  0  0
    2.3832   17.7098   41.5051 C   0  0  0  0  0  0  0  0  0  0  0  0
    4.9146   22.7300   30.6889 C   0  0  1  0  0  0  0  0  0  0  0  0
    2.7705   18.4216   40.4149 C   0  0  0  0  0  0  0  0  0  0  0  0
    4.3644   20.8429   36.5486 C   0  0  0  0  0  0  0  0  0  0  0  0
    3.6190   19.5356   38.4703 C   0  0  0  0  0  0  0  0  0  0  0  0
    4.0338   23.6273   29.8715 C   0  0  0  0  0  0  0  0  0  0  0  0
    2.0072   19.5714   40.1129 C   0  0  0  0  0  0  0  0  0  0  0  0
    4.6405   23.6153   33.3507 C   0  0  1  0  0  0  0  0  0  0  0  0
    4.9317   24.1838   30.8574 C   0  0  1  0  0  0  0  0  0  0  0  0
    2.4786   20.2963   39.0844 C   0  0  0  0  0  0  0  0  0  0  0  0
    4.4643   19.8563   37.4126 N   0  0  0  0  0  0  0  0  0  0  0  0
    3.7883   20.6245   35.2413 C   0  0  0  0  0  0  0  0  0  0  0  0
    5.2459   23.3260   32.0001 C   0  0  2  0  0  0  0  0  0  0  0  0
    5.1976   21.6664   34.6379 H   0  0  0  0  0  0  0  0  0  0  0  0
    0.9494   17.3737   43.0982 H   0  0  0  0  0  0  0  0  0  0  0  0
    4.0107   16.3962   41.3913 H   0  0  0  0  0  0  0  0  0  0  0  0
    2.8783   16.0883   42.7350 H   0  0  0  0  0  0  0  0  0  0  0  0
   -0.4491   19.3739   42.3879 H   0  0  0  0  0  0  0  0  0  0  0  0
    2.7847   22.3406   34.4682 H   0  0  0  0  0  0  0  0  0  0  0  0
    3.6684   21.3082   33.2441 H   0  0  0  0  0  0  0  0  0  0  0  0
    4.8420   24.1271   35.5021 H   0  0  0  0  0  0  0  0  0  0  0  0
    6.2937   23.8053   35.0269 H   0  0  0  0  0  0  0  0  0  0  0  0
    0.2432   20.7669   40.5188 H   0  0  0  0  0  0  0  0  0  0  0  0
    5.1007   21.6733   30.4467 H   0  0  0  0  0  0  0  0  0  0  0  0
    4.7235   21.8455   36.8241 H   0  0  0  0  0  0  0  0  0  0  0  0
    4.2353   23.7699   28.7996 H   0  0  0  0  0  0  0  0  0  0  0  0
    2.9534   23.6921   29.6753 H   0  0  0  0  0  0  0  0  0  0  0  0
    3.9543   24.3165   32.8535 H   0  0  0  0  0  0  0  0  0  0  0  0
    5.1608   25.2596   30.8663 H   0  0  0  0  0  0  0  0  0  0  0  0
    2.0972   21.2729   38.7514 H   0  0  0  0  0  0  0  0  0  0  0  0
    5.2784   19.2374   37.2897 H   0  0  0  0  0  0  0  0  0  0  0  0
    3.4167   19.6259   34.9678 H   0  0  0  0  0  0  0  0  0  0  0  0
    6.0152   22.9829   32.7075 H   0  0  0  0  0  0  0  0  0  0  0  0
  1 11  1  0
  2  6  1  0
  2  7  1  0
  3  5  2  0
  6 20  1  0
  8  5  1  0
  9  4  1  0
  9  3  1  0
 10 14  1  0
 10 17  1  0
 10 21  1  0
 11 15  1  0
 11  9  2  0
 12 19  1  0
 13  1  1  0
 13 18  2  0
 15  8  2  0
 16  2  1  0
 16  7  1  0
 17 14  1  0
 17 21  1  0
 18 15  1  0
 19 13  1  0
 20 12  2  3
 21 16  1  0
  2 22  1  6
  3 23  1  0
  4 24  1  0
  4 25  1  0
  5 26  1  0
  6 27  1  0
  6 28  1  0
  7 29  1  0
  7 30  1  0
  8 31  1  0
 10 32  1  6
 12 33  1  0
 14 34  1  0
 14 35  1  0
 16 36  1  6
 17 37  1  6
 18 38  1  0
 19 39  1  0
 20 40  1  0
 21 41  1  1
M  END
>  <mol_id>  (90) 
2026-09-16-6tgu-s0-n100-0090

>  <rmsd_to_ref>  (90) 


$$$$

     RDKit          3D

 51 52  0  0  0  0  0  0  0  0999 V2000
    1.8950   18.2089   40.2183 C   0  0  0  0  0  0  0  0  0  0  0  0
    4.2452   22.8279   33.4561 C   0  0  0  0  0  0  0  0  0  0  0  0
    0.9419   19.6985   41.7361 C   0  0  0  0  0  0  0  0  0  0  0  0
    3.2330   19.9625   37.2324 N   0  0  0  0  0  0  0  0  0  0  0  0
    4.3717   15.7055   36.4339 C   0  0  0  0  0  0  0  0  0  0  0  0
    1.5648   20.7481   40.9892 C   0  0  0  0  0  0  0  0  0  0  0  0
    2.2973   19.1570   39.3563 C   0  0  0  0  0  0  0  0  0  0  0  0
    4.4962   25.3362   30.5287 C   0  0  0  0  0  0  0  0  0  0  0  0
    2.2686   20.4782   39.8426 C   0  0  0  0  0  0  0  0  0  0  0  0
    1.1115   18.4494   41.3180 C   0  0  0  0  0  0  0  0  0  0  0  0
    2.9222   15.4863   36.6934 C   0  0  0  0  0  0  0  0  0  0  0  0
    3.7924   19.4226   36.2128 N   0  0  0  0  0  0  0  0  0  0  0  0
    3.5376   25.4738   30.0709 C   0  0  0  0  0  0  0  0  0  0  0  0
    2.2567   16.9777   40.1062 O   0  0  0  0  0  0  0  0  0  0  0  0
    3.6732   18.1474   36.1055 N   0  0  0  0  0  0  0  0  0  0  0  0
    4.6354   23.9016   31.2962 C   0  0  0  0  0  0  0  0  0  0  0  0
    4.3758   23.3965   31.9990 C   0  0  0  0  0  0  0  0  0  0  0  0
    2.7552   18.9388   37.9832 C   0  0  1  0  0  0  0  0  0  0  0  0
    4.7835   24.1596   31.5859 C   0  0  0  0  0  0  0  0  0  0  0  0
    2.9131   17.7755   37.1222 C   0  0  0  0  0  0  0  0  0  0  0  0
    2.4767   16.6112   37.5387 N   0  0  0  0  0  0  0  0  0  0  0  0
    4.8542   24.5166   29.9079 C   0  0  0  0  0  0  0  0  0  0  0  0
    3.9360   15.0451   35.5269 C   0  0  0  0  0  0  0  0  0  0  0  0
    4.2405   22.6482   34.5413 H   0  0  0  0  0  0  0  0  0  0  0  0
    4.4719   23.8865   33.2607 H   0  0  0  0  0  0  0  0  0  0  0  0
    5.0109   22.1957   32.9830 H   0  0  0  0  0  0  0  0  0  0  0  0
    3.2576   22.5815   33.0393 H   0  0  0  0  0  0  0  0  0  0  0  0
    0.3403   19.9197   42.6300 H   0  0  0  0  0  0  0  0  0  0  0  0
    2.4624   20.5774   36.9340 H   0  0  0  0  0  0  0  0  0  0  0  0
    4.7027   16.7301   36.2088 H   0  0  0  0  0  0  0  0  0  0  0  0
    5.2343   15.5091   37.0875 H   0  0  0  0  0  0  0  0  0  0  0  0
    1.4780   21.7872   41.3395 H   0  0  0  0  0  0  0  0  0  0  0  0
    4.7899   26.3644   30.7864 H   0  0  0  0  0  0  0  0  0  0  0  0
    2.8018   21.2808   39.3120 H   0  0  0  0  0  0  0  0  0  0  0  0
    0.6282   17.6158   41.8487 H   0  0  0  0  0  0  0  0  0  0  0  0
    1.9577   15.0162   36.9358 H   0  0  0  0  0  0  0  0  0  0  0  0
    4.3090   19.9803   35.5178 H   0  0  0  0  0  0  0  0  0  0  0  0
    2.7513   25.3974   30.8365 H   0  0  0  0  0  0  0  0  0  0  0  0
    3.4953   26.4669   29.5999 H   0  0  0  0  0  0  0  0  0  0  0  0
    3.3816   24.6984   29.3065 H   0  0  0  0  0  0  0  0  0  0  0  0
    2.8251   16.6960   39.3461 H   0  0  0  0  0  0  0  0  0  0  0  0
    3.8511   22.4448   31.8283 H   0  0  0  0  0  0  0  0  0  0  0  0
    4.5844   23.7332   33.0252 H   0  0  0  0  0  0  0  0  0  0  0  0
    3.7709   18.7368   38.3541 H   0  0  0  0  0  0  0  0  0  0  0  0
    5.8436   24.0127   31.8400 H   0  0  0  0  0  0  0  0  0  0  0  0
    4.3918   24.1806   32.6135 H   0  0  0  0  0  0  0  0  0  0  0  0
    1.8826   16.4935   38.3719 H   0  0  0  0  0  0  0  0  0  0  0  0
    4.1962   24.1747   29.0954 H   0  0  0  0  0  0  0  0  0  0  0  0
    5.7598   24.4819   29.2844 H   0  0  0  0  0  0  0  0  0  0  0  0
    3.8409   15.4907   34.5258 H   0  0  0  0  0  0  0  0  0  0  0  0
    4.2151   14.0796   35.0797 H   0  0  0  0  0  0  0  0  0  0  0  0
  1 14  1  0
  1 10  2  0
  4 18  1  0
  5 11  1  0
  6  3  2  0
  7  9  2  0
  7  1  1  0
  8 19  1  0
  9  6  1  0
 10  3  1  0
 11 21  1  0
 12 15  1  0
 12  4  1  0
 13  8  1  0
 15 20  2  0
 16 19  1  0
 16 17  2  3
 18  7  1  0
 20 21  1  0
 20 18  1  0
 22  8  1  0
 22 16  1  0
 23  5  1  0
 23 11  1  0
  2 24  1  0
  2 25  1  0
  2 26  1  0
  2 27  1  0
  3 28  1  0
  4 29  1  0
  5 30  1  0
  5 31  1  0
  6 32  1  0
  8 33  1  0
  9 34  1  0
 10 35  1  0
 11 36  1  0
 12 37  1  0
 13 38  1  0
 13 39  1  0
 13 40  1  0
 14 41  1  0
 17 42  1  0
 17 43  1  0
 18 44  1  6
 19 45  1  0
 19 46  1  0
 21 47  1  0
 22 48  1  0
 22 49  1  0
 23 50  1  0
 23 51  1  0
M  END
>  <mol_id>  (91) 
2026-09-16-6tgu-s0-n100-0091

>  <rmsd_to_ref>  (91) 


$$$$

     RDKit          3D

 65 67  0  0  0  0  0  0  0  0999 V2000
    4.5669   22.6814   32.2476 C   0  0  2  0  0  0  0  0  0  0  0  0
    3.0971   25.9866   31.5400 C   0  0  0  0  0  0  0  0  0  0  0  0
   -0.7603   18.5563   43.4645 C   0  0  0  0  0  0  0  0  0  0  0  0
    3.6651   23.1132   34.2803 C   0  0  0  0  0  0  0  0  0  0  0  0
    3.3994   20.8579   36.8366 C   0  0  1  0  0  0  0  0  0  0  0  0
    2.9174   19.8962   37.7879 C   0  0  0  0  0  0  0  0  0  0  0  0
    2.8350   17.9568   40.0310 C   0  0  0  0  0  0  0  0  0  0  0  0
   -0.4079   15.1003   43.0281 C   0  0  0  0  0  0  0  0  0  0  0  0
    3.9146   23.8386   31.4568 C   0  0  0  0  0  0  0  0  0  0  0  0
    4.9707   22.7813   33.5652 C   0  0  0  0  0  0  0  0  0  0  0  0
    3.0460   21.8009   34.5708 C   0  0  2  0  0  0  0  0  0  0  0  0
   -0.4893   17.2564   42.9251 C   0  0  0  0  0  0  0  0  0  0  0  0
    2.4822   21.5728   35.8782 C   0  0  0  0  0  0  0  0  0  0  0  0
    5.4065   21.5720   31.4704 C   0  0  0  0  0  0  0  0  0  0  0  0
    4.6775   21.2939   36.7316 O   0  0  0  0  0  0  0  0  0  0  0  0
    1.9797   18.9031   40.0246 C   0  0  2  0  0  0  0  0  0  0  0  0
    0.5212   17.2136   41.9126 C   0  0  0  0  0  0  0  0  0  0  0  0
    2.2330   20.0680   39.0079 C   0  0  0  0  0  0  0  0  0  0  0  0
    1.0224   18.4417   41.3745 C   0  0  0  0  0  0  0  0  0  0  0  0
    3.9091   20.8513   33.9580 C   0  0  0  0  0  0  0  0  0  0  0  0
    3.2549   18.4178   37.7080 C   0  0  0  0  0  0  0  0  0  0  0  0
    3.3323   17.6261   38.8019 C   0  0  0  0  0  0  0  0  0  0  0  0
    0.4854   19.7482   41.9212 C   0  0  0  0  0  0  0  0  0  0  0  0
   -0.2563   19.6646   42.9691 C   0  0  0  0  0  0  0  0  0  0  0  0
    2.8443   24.2372   33.6444 C   0  0  0  0  0  0  0  0  0  0  0  0
   -1.1680   16.2022   43.2996 O   0  0  0  0  0  0  0  0  0  0  0  0
    3.5501   24.9203   32.3401 C   0  0  2  0  0  0  0  0  0  0  0  0
    3.5237   22.3538   32.3675 H   0  0  0  0  0  0  0  0  0  0  0  0
    2.6570   26.7647   32.1810 H   0  0  0  0  0  0  0  0  0  0  0  0
    3.9434   26.4093   30.9787 H   0  0  0  0  0  0  0  0  0  0  0  0
    2.3368   25.6189   30.8352 H   0  0  0  0  0  0  0  0  0  0  0  0
   -1.4244   18.6303   44.3383 H   0  0  0  0  0  0  0  0  0  0  0  0
    3.8030   23.6299   35.2416 H   0  0  0  0  0  0  0  0  0  0  0  0
    3.6180   20.0464   36.1269 H   0  0  0  0  0  0  0  0  0  0  0  0
    3.6769   18.2608   40.6704 H   0  0  0  0  0  0  0  0  0  0  0  0
    2.3082   17.0653   40.4022 H   0  0  0  0  0  0  0  0  0  0  0  0
   -0.1714   14.5776   43.9666 H   0  0  0  0  0  0  0  0  0  0  0  0
   -0.9659   14.4249   42.3627 H   0  0  0  0  0  0  0  0  0  0  0  0
    0.5256   15.4110   42.5361 H   0  0  0  0  0  0  0  0  0  0  0  0
    3.0117   23.4660   30.9510 H   0  0  0  0  0  0  0  0  0  0  0  0
    4.6388   24.2143   30.7190 H   0  0  0  0  0  0  0  0  0  0  0  0
    5.3922   21.8315   33.9259 H   0  0  0  0  0  0  0  0  0  0  0  0
    5.7639   23.5259   33.7278 H   0  0  0  0  0  0  0  0  0  0  0  0
    2.0432   21.7046   34.1290 H   0  0  0  0  0  0  0  0  0  0  0  0
    2.2210   22.5480   36.3149 H   0  0  0  0  0  0  0  0  0  0  0  0
    1.6091   20.9195   35.7334 H   0  0  0  0  0  0  0  0  0  0  0  0
    5.8105   20.8460   32.1912 H   0  0  0  0  0  0  0  0  0  0  0  0
    4.7530   21.0527   30.7541 H   0  0  0  0  0  0  0  0  0  0  0  0
    6.2355   22.0517   30.9294 H   0  0  0  0  0  0  0  0  0  0  0  0
    5.1008   21.2936   37.6265 H   0  0  0  0  0  0  0  0  0  0  0  0
    1.2393   19.6213   39.6426 H   0  0  0  0  0  0  0  0  0  0  0  0
    0.9080   16.2489   41.5524 H   0  0  0  0  0  0  0  0  0  0  0  0
    1.8576   21.0710   39.2591 H   0  0  0  0  0  0  0  0  0  0  0  0
    4.3377   20.1941   34.7291 H   0  0  0  0  0  0  0  0  0  0  0  0
    3.3375   20.2474   33.2379 H   0  0  0  0  0  0  0  0  0  0  0  0
    4.7198   21.3779   33.4331 H   0  0  0  0  0  0  0  0  0  0  0  0
    2.4910   17.9657   37.0583 H   0  0  0  0  0  0  0  0  0  0  0  0
    4.3036   18.4456   37.3775 H   0  0  0  0  0  0  0  0  0  0  0  0
    2.8329   16.6865   38.5234 H   0  0  0  0  0  0  0  0  0  0  0  0
    4.4133   17.6594   39.0026 H   0  0  0  0  0  0  0  0  0  0  0  0
    0.7164   20.7142   41.4487 H   0  0  0  0  0  0  0  0  0  0  0  0
   -0.4888   20.6017   43.4962 H   0  0  0  0  0  0  0  0  0  0  0  0
    1.8732   23.8236   33.3349 H   0  0  0  0  0  0  0  0  0  0  0  0
    2.7464   25.0276   34.4031 H   0  0  0  0  0  0  0  0  0  0  0  0
    4.2838   25.5207   32.8981 H   0  0  0  0  0  0  0  0  0  0  0  0
  1 14  1  0
  1 10  1  0
  4 11  1  0
  5 15  1  0
  5  6  1  0
  6 21  1  0
  6 18  2  0
  8 26  1  0
  9 27  1  0
  9  1  1  0
 10  4  1  0
 11 20  1  0
 11 13  1  0
 12  3  1  0
 12 26  1  0
 13  5  1  0
 16  7  1  0
 16 19  1  0
 17 12  2  0
 18 16  1  0
 19 23  2  0
 19 17  1  0
 21 22  1  0
 22  7  1  0
 23 24  1  0
 24  3  2  0
 25  4  1  0
 27  2  1  0
 27 25  1  0
  1 28  1  1
  2 29  1  0
  2 30  1  0
  2 31  1  0
  3 32  1  0
  4 33  1  0
  5 34  1  6
  7 35  1  0
  7 36  1  0
  8 37  1  0
  8 38  1  0
  8 39  1  0
  9 40  1  0
  9 41  1  0
 10 42  1  0
 10 43  1  0
 11 44  1  6
 13 45  1  0
 13 46  1  0
 14 47  1  0
 14 48  1  0
 14 49  1  0
 15 50  1  0
 16 51  1  6
 17 52  1  0
 18 53  1  0
 20 54  1  0
 20 55  1  0
 20 56  1  0
 21 57  1  0
 21 58  1  0
 22 59  1  0
 22 60  1  0
 23 61  1  0
 24 62  1  0
 25 63  1  0
 25 64  1  0
 27 65  1  1
M  END
>  <mol_id>  (92) 
2026-09-16-6tgu-s0-n100-0092

>  <rmsd_to_ref>  (92) 


$$$$

     RDKit          3D

 68 72  0  0  0  0  0  0  0  0999 V2000
    1.2990   21.3851   39.7391 C   0  0  0  0  0  0  0  0  0  0  0  0
    3.3968   12.6159   37.4278 N   0  0  0  0  0  0  0  0  0  0  0  0
    3.1790   16.7903   39.8069 O   0  0  0  0  0  0  0  0  0  0  0  0
    2.8357   14.8837   37.5418 C   0  0  0  0  0  0  0  0  0  0  0  0
    1.8047   24.1432   32.4455 C   0  0  2  0  0  0  0  0  0  0  0  0
    1.0213   16.2888   42.1254 C   0  0  0  0  0  0  0  0  0  0  0  0
    2.7057   19.3132   38.2725 C   0  0  0  0  0  0  0  0  0  0  0  0
    2.3977   13.6452   35.3802 N   0  0  0  0  0  0  0  0  0  0  0  0
    2.8603   13.6948   36.7423 C   0  0  0  0  0  0  0  0  0  0  0  0
    1.5601   17.5708   41.5974 C   0  0  2  0  0  0  0  0  0  0  0  0
    3.0661   15.3963   40.1150 C   0  0  0  0  0  0  0  0  0  0  0  0
    3.0336   21.8710   35.3985 C   0  0  0  0  0  0  0  0  0  0  0  0
    1.0135   26.3487   32.0992 C   0  0  1  0  0  0  0  0  0  0  0  0
    0.4758   18.5783   41.8464 C   0  0  0  0  0  0  0  0  0  0  0  0
    1.2495   25.3339   34.7095 C   0  0  0  0  0  0  0  0  0  0  0  0
   -0.3398   25.9138   32.5818 C   0  0  0  0  0  0  0  0  0  0  0  0
    2.3046   17.8558   40.1919 C   0  0  1  0  0  0  0  0  0  0  0  0
    3.7260   13.0052   38.8868 S   0  0  0  0  0  0  0  0  0  0  0  0
    2.5541   22.5101   34.0926 C   0  0  0  0  0  0  0  0  0  0  0  0
    1.7567   21.5720   38.3611 C   0  0  0  0  0  0  0  0  0  0  0  0
    1.5201   20.1108   40.3408 C   0  0  0  0  0  0  0  0  0  0  0  0
    2.5586   20.5792   37.6969 C   0  0  0  0  0  0  0  0  0  0  0  0
    2.6485   25.4029   28.9940 C   0  0  0  0  0  0  0  0  0  0  0  0
    3.0804   20.9706   36.2960 C   0  0  0  0  0  0  0  0  0  0  0  0
    2.2404   19.0321   39.6062 C   0  0  0  0  0  0  0  0  0  0  0  0
    1.1707   19.8660   41.5932 O   0  0  0  0  0  0  0  0  0  0  0  0
    0.3908   24.7842   32.2137 C   0  0  2  0  0  0  0  0  0  0  0  0
    4.3279   20.4745   36.5426 O   0  0  0  0  0  0  0  0  0  0  0  0
    1.3810   26.0980   29.4743 O   0  0  0  0  0  0  0  0  0  0  0  0
    3.1904   24.8927   30.3784 C   0  0  0  0  0  0  0  0  0  0  0  0
    1.5742   26.8707   30.9611 C   0  0  0  0  0  0  0  0  0  0  0  0
    1.6355   24.0157   33.9080 C   0  0  2  0  0  0  0  0  0  0  0  0
    2.7240   23.8405   31.4361 C   0  0  0  0  0  0  0  0  0  0  0  0
    3.1902   14.5433   38.9097 C   0  0  0  0  0  0  0  0  0  0  0  0
    0.8029   22.1976   40.2903 H   0  0  0  0  0  0  0  0  0  0  0  0
    2.5882   15.8921   37.1787 H   0  0  0  0  0  0  0  0  0  0  0  0
    1.3729   23.1409   32.3082 H   0  0  0  0  0  0  0  0  0  0  0  0
    0.9684   16.3377   43.2231 H   0  0  0  0  0  0  0  0  0  0  0  0
    0.0142   16.1184   41.7171 H   0  0  0  0  0  0  0  0  0  0  0  0
    1.6828   15.4623   41.8267 H   0  0  0  0  0  0  0  0  0  0  0  0
    3.1886   18.5128   37.6927 H   0  0  0  0  0  0  0  0  0  0  0  0
    2.0102   14.4902   34.9368 H   0  0  0  0  0  0  0  0  0  0  0  0
    2.4543   12.7646   34.8488 H   0  0  0  0  0  0  0  0  0  0  0  0
    2.5200   17.5926   42.1342 H   0  0  0  0  0  0  0  0  0  0  0  0
    3.8621   15.1249   40.8242 H   0  0  0  0  0  0  0  0  0  0  0  0
    2.0689   15.2263   40.5471 H   0  0  0  0  0  0  0  0  0  0  0  0
    1.7547   27.0678   32.4778 H   0  0  0  0  0  0  0  0  0  0  0  0
   -0.3655   18.4371   41.1519 H   0  0  0  0  0  0  0  0  0  0  0  0
    0.0339   18.5082   42.8514 H   0  0  0  0  0  0  0  0  0  0  0  0
    1.2666   25.1248   35.7892 H   0  0  0  0  0  0  0  0  0  0  0  0
    1.9740   26.1288   34.4785 H   0  0  0  0  0  0  0  0  0  0  0  0
    0.2411   25.6600   34.4150 H   0  0  0  0  0  0  0  0  0  0  0  0
   -0.5768   26.0510   33.6472 H   0  0  0  0  0  0  0  0  0  0  0  0
   -1.3410   26.2410   32.2648 H   0  0  0  0  0  0  0  0  0  0  0  0
    1.7103   18.0134   39.2797 H   0  0  0  0  0  0  0  0  0  0  0  0
    2.8077   21.9756   33.1653 H   0  0  0  0  0  0  0  0  0  0  0  0
    1.4816   22.4908   37.8224 H   0  0  0  0  0  0  0  0  0  0  0  0
    2.4284   24.5731   28.3063 H   0  0  0  0  0  0  0  0  0  0  0  0
    3.3429   26.0318   28.4173 H   0  0  0  0  0  0  0  0  0  0  0  0
   -0.1345   23.8486   31.9715 H   0  0  0  0  0  0  0  0  0  0  0  0
    4.4542   19.7700   37.2265 H   0  0  0  0  0  0  0  0  0  0  0  0
    4.2053   24.5500   30.1286 H   0  0  0  0  0  0  0  0  0  0  0  0
    2.8226   25.7607   30.9454 H   0  0  0  0  0  0  0  0  0  0  0  0
    1.1628   27.8842   30.8443 H   0  0  0  0  0  0  0  0  0  0  0  0
    2.6531   26.7712   31.1511 H   0  0  0  0  0  0  0  0  0  0  0  0
    0.8551   23.8833   34.6719 H   0  0  0  0  0  0  0  0  0  0  0  0
    2.2872   23.0076   30.8655 H   0  0  0  0  0  0  0  0  0  0  0  0
    3.6462   23.6789   32.0135 H   0  0  0  0  0  0  0  0  0  0  0  0
  1 21  1  0
  2 18  1  0
  3 11  1  0
  4 34  2  0
  5 32  1  0
  7 25  1  0
  8  9  1  0
  9  2  2  0
  9  4  1  0
 10 14  1  0
 10  6  1  0
 12 24  2  0
 13 31  1  0
 13 27  1  0
 13 16  1  0
 17  3  1  0
 17 10  1  0
 18 34  1  0
 19 12  2  0
 20  1  2  0
 21 26  1  0
 22  7  2  0
 22 20  1  0
 23 29  1  0
 23 30  1  0
 24 28  1  0
 24 22  1  0
 25 17  1  0
 25 21  2  0
 26 14  1  0
 27  5  1  0
 27 16  1  0
 29 31  1  0
 30 33  1  0
 32 19  1  0
 32 15  1  0
 33  5  1  0
 34 11  1  0
  1 35  1  0
  4 36  1  0
  5 37  1  6
  6 38  1  0
  6 39  1  0
  6 40  1  0
  7 41  1  0
  8 42  1  0
  8 43  1  0
 10 44  1  1
 11 45  1  0
 11 46  1  0
 13 47  1  1
 14 48  1  0
 14 49  1  0
 15 50  1  0
 15 51  1  0
 15 52  1  0
 16 53  1  0
 16 54  1  0
 17 55  1  6
 19 56  1  0
 20 57  1  0
 23 58  1  0
 23 59  1  0
 27 60  1  6
 28 61  1  0
 30 62  1  0
 30 63  1  0
 31 64  1  0
 31 65  1  0
 32 66  1  6
 33 67  1  0
 33 68  1  0
M  END
>  <mol_id>  (93) 
2026-09-16-6tgu-s0-n100-0093

>  <rmsd_to_ref>  (93) 


$$$$

     RDKit          3D

 59 59  0  0  0  0  0  0  0  0999 V2000
    3.0227   23.3466   33.1810 C   0  0  1  0  0  0  0  0  0  0  0  0
    2.5118   15.2998   38.8149 C   0  0  0  0  0  0  0  0  0  0  0  0
    2.0504   26.1783   31.2257 C   0  0  0  0  0  0  0  0  0  0  0  0
    1.6153   20.5236   41.2175 C   0  0  0  0  0  0  0  0  0  0  0  0
    2.3561   24.0955   32.1505 N   0  0  0  0  0  0  0  0  0  0  0  0
    1.9931   23.0301   34.2893 C   0  0  0  0  0  0  0  0  0  0  0  0
    1.8623   15.8902   39.9805 C   0  0  0  0  0  0  0  0  0  0  0  0
    2.0227   17.2545   39.4471 C   0  0  0  0  0  0  0  0  0  0  0  0
    1.2868   15.5488   41.1975 C   0  0  0  0  0  0  0  0  0  0  0  0
    2.1954   20.0731   39.0379 C   0  0  0  0  0  0  0  0  0  0  0  0
    1.8100   19.6299   40.3181 N   0  0  0  0  0  0  0  0  0  0  0  0
    2.6165   24.8582   31.1414 C   0  0  2  0  0  0  0  0  0  0  0  0
    3.4728   20.3166   36.9821 C   0  0  0  0  0  0  0  0  0  0  0  0
    3.8211   22.0945   32.9049 C   0  0  0  0  0  0  0  0  0  0  0  0
    0.9240   17.8590   41.7314 C   0  0  0  0  0  0  0  0  0  0  0  0
    1.5626   28.6011   34.3853 C   0  0  0  0  0  0  0  0  0  0  0  0
    1.8285   27.9983   33.2145 N   0  0  0  0  0  0  0  0  0  0  0  0
    2.8571   22.1669   35.2159 C   0  0  0  0  0  0  0  0  0  0  0  0
    2.5470   21.6646   36.2060 C   0  0  0  0  0  0  0  0  0  0  0  0
    2.9522   19.8452   38.1643 C   0  0  0  0  0  0  0  0  0  0  0  0
    1.6251   26.8543   32.5028 C   0  0  0  0  0  0  0  0  0  0  0  0
    3.5729   24.3253   30.0878 C   0  0  0  0  0  0  0  0  0  0  0  0
    0.7099   16.4662   42.0773 C   0  0  0  0  0  0  0  0  0  0  0  0
    1.6433   18.2025   40.6353 C   0  0  0  0  0  0  0  0  0  0  0  0
    0.7920   26.3388   33.2144 O   0  0  0  0  0  0  0  0  0  0  0  0
    3.8381   24.0421   33.4286 H   0  0  0  0  0  0  0  0  0  0  0  0
    3.3182   14.6285   39.1453 H   0  0  0  0  0  0  0  0  0  0  0  0
    1.7733   14.7277   38.2341 H   0  0  0  0  0  0  0  0  0  0  0  0
    2.9337   16.0981   38.1866 H   0  0  0  0  0  0  0  0  0  0  0  0
    2.7974   26.8475   30.7740 H   0  0  0  0  0  0  0  0  0  0  0  0
    1.0708   26.0050   30.7563 H   0  0  0  0  0  0  0  0  0  0  0  0
    1.8631   20.1092   42.2058 H   0  0  0  0  0  0  0  0  0  0  0  0
    2.2559   21.3944   41.0139 H   0  0  0  0  0  0  0  0  0  0  0  0
    0.5600   20.8337   41.2040 H   0  0  0  0  0  0  0  0  0  0  0  0
    1.7890   23.3605   31.7042 H   0  0  0  0  0  0  0  0  0  0  0  0
    2.2123   24.9024   32.7743 H   0  0  0  0  0  0  0  0  0  0  0  0
    1.6411   23.9428   34.7923 H   0  0  0  0  0  0  0  0  0  0  0  0
    1.0674   22.5503   33.9387 H   0  0  0  0  0  0  0  0  0  0  0  0
    2.3400   17.5443   38.4345 H   0  0  0  0  0  0  0  0  0  0  0  0
    1.2855   14.4875   41.4866 H   0  0  0  0  0  0  0  0  0  0  0  0
    1.5709   20.9331   38.7545 H   0  0  0  0  0  0  0  0  0  0  0  0
    1.7619   24.5305   30.5313 H   0  0  0  0  0  0  0  0  0  0  0  0
    4.4932   20.6765   37.1805 H   0  0  0  0  0  0  0  0  0  0  0  0
    3.4294   19.4745   36.2758 H   0  0  0  0  0  0  0  0  0  0  0  0
    4.1795   21.6713   33.8548 H   0  0  0  0  0  0  0  0  0  0  0  0
    3.1837   21.3586   32.3928 H   0  0  0  0  0  0  0  0  0  0  0  0
    4.6816   22.3419   32.2658 H   0  0  0  0  0  0  0  0  0  0  0  0
    0.4963   18.6476   42.3680 H   0  0  0  0  0  0  0  0  0  0  0  0
    1.9960   28.0127   35.2075 H   0  0  0  0  0  0  0  0  0  0  0  0
    2.0007   29.6102   34.3859 H   0  0  0  0  0  0  0  0  0  0  0  0
    0.4735   28.6742   34.5210 H   0  0  0  0  0  0  0  0  0  0  0  0
    2.3973   28.6386   32.6425 H   0  0  0  0  0  0  0  0  0  0  0  0
    3.8980   22.0077   34.8977 H   0  0  0  0  0  0  0  0  0  0  0  0
    1.6368   22.0250   36.7078 H   0  0  0  0  0  0  0  0  0  0  0  0
    3.4287   18.8771   38.3778 H   0  0  0  0  0  0  0  0  0  0  0  0
    4.4289   23.8412   30.5807 H   0  0  0  0  0  0  0  0  0  0  0  0
    3.0507   23.5918   29.4559 H   0  0  0  0  0  0  0  0  0  0  0  0
    3.9316   25.1573   29.4638 H   0  0  0  0  0  0  0  0  0  0  0  0
    0.1373   16.1573   42.9642 H   0  0  0  0  0  0  0  0  0  0  0  0
  1 14  1  0
  1  6  1  0
  2  7  1  0
  3 12  1  0
  3 21  1  0
  5  1  1  0
  6 18  1  0
  7  9  2  0
  8  7  1  0
  8 24  2  0
  9 23  1  0
 10 11  1  0
 11 24  1  0
 11  4  1  0
 12 22  1  0
 12  5  1  0
 13 20  1  0
 15 23  2  0
 17 16  1  0
 18 19  2  3
 19 13  1  0
 20 10  2  3
 21 25  2  0
 21 17  1  0
 24 15  1  0
  1 26  1  1
  2 27  1  0
  2 28  1  0
  2 29  1  0
  3 30  1  0
  3 31  1  0
  4 32  1  0
  4 33  1  0
  4 34  1  0
  5 35  1  0
  5 36  1  0
  6 37  1  0
  6 38  1  0
  8 39  1  0
  9 40  1  0
 10 41  1  0
 12 42  1  6
 13 43  1  0
 13 44  1  0
 14 45  1  0
 14 46  1  0
 14 47  1  0
 15 48  1  0
 16 49  1  0
 16 50  1  0
 16 51  1  0
 17 52  1  0
 18 53  1  0
 19 54  1  0
 20 55  1  0
 22 56  1  0
 22 57  1  0
 22 58  1  0
 23 59  1  0
M  CHG  1   5   1
M  END
>  <mol_id>  (94) 
2026-09-16-6tgu-s0-n100-0094

>  <rmsd_to_ref>  (94) 


$$$$

     RDKit          3D

 56 56  0  0  0  0  0  0  0  0999 V2000
    3.5106   17.5553   38.1346 C   0  0  0  0  0  0  0  0  0  0  0  0
    2.8638   14.3014   40.6629 C   0  0  0  0  0  0  0  0  0  0  0  0
    1.8647   21.1527   37.3958 C   0  0  0  0  0  0  0  0  0  0  0  0
    1.8304   22.0426   36.1595 C   0  0  0  0  0  0  0  0  0  0  0  0
    2.5321   16.7670   38.9688 N   0  0  0  0  0  0  0  0  0  0  0  0
    4.0662   24.3541   31.8647 C   0  0  0  0  0  0  0  0  0  0  0  0
    4.4454   25.3740   30.6870 C   0  0  0  0  0  0  0  0  0  0  0  0
    2.8183   23.7550   34.2354 C   0  0  0  0  0  0  0  0  0  0  0  0
    1.3049   19.2028   39.6203 C   0  0  0  0  0  0  0  0  0  0  0  0
    1.8422   26.4443   31.5069 C   0  0  0  0  0  0  0  0  0  0  0  0
    2.0070   22.6007   34.8463 C   0  0  0  0  0  0  0  0  0  0  0  0
    4.0852   26.7845   31.3106 C   0  0  0  0  0  0  0  0  0  0  0  0
    1.6145   17.4996   39.9569 C   0  0  0  0  0  0  0  0  0  0  0  0
    3.2062   14.3858   39.0910 C   0  0  0  0  0  0  0  0  0  0  0  0
    1.7840   25.2635   32.4255 C   0  0  0  0  0  0  0  0  0  0  0  0
    2.5795   11.9415   40.7788 O   0  0  0  0  0  0  0  0  0  0  0  0
    2.7821   24.0364   32.6682 C   0  0  0  0  0  0  0  0  0  0  0  0
    2.3126   15.6019   38.7377 C   0  0  0  0  0  0  0  0  0  0  0  0
    1.7640   20.4137   38.4765 C   0  0  0  0  0  0  0  0  0  0  0  0
    0.6013   19.8476   40.7583 O   0  0  0  0  0  0  0  0  0  0  0  0
    3.5804   12.9212   40.5280 C   0  0  0  0  0  0  0  0  0  0  0  0
    2.5959   27.2590   30.9445 C   0  0  0  0  0  0  0  0  0  0  0  0
    1.6696   20.6010   41.5806 C   0  0  0  0  0  0  0  0  0  0  0  0
    4.0473   18.2697   38.7762 H   0  0  0  0  0  0  0  0  0  0  0  0
    4.2317   16.8680   37.6680 H   0  0  0  0  0  0  0  0  0  0  0  0
    2.9666   18.1032   37.3511 H   0  0  0  0  0  0  0  0  0  0  0  0
    3.3670   15.0413   41.3027 H   0  0  0  0  0  0  0  0  0  0  0  0
    1.8601   14.4429   41.0902 H   0  0  0  0  0  0  0  0  0  0  0  0
    0.7324   22.1011   36.1285 H   0  0  0  0  0  0  0  0  0  0  0  0
    2.9032   22.2223   36.3231 H   0  0  0  0  0  0  0  0  0  0  0  0
    4.7875   24.6150   32.6532 H   0  0  0  0  0  0  0  0  0  0  0  0
    3.9842   23.4768   31.2062 H   0  0  0  0  0  0  0  0  0  0  0  0
    3.8482   25.1761   29.7847 H   0  0  0  0  0  0  0  0  0  0  0  0
    5.4946   25.2961   30.3660 H   0  0  0  0  0  0  0  0  0  0  0  0
    3.4309   24.3940   34.8885 H   0  0  0  0  0  0  0  0  0  0  0  0
    1.3172   26.0331   30.6321 H   0  0  0  0  0  0  0  0  0  0  0  0
    1.7216   27.1280   32.3601 H   0  0  0  0  0  0  0  0  0  0  0  0
    1.4129   22.0683   34.0888 H   0  0  0  0  0  0  0  0  0  0  0  0
    4.1753   26.7193   32.4050 H   0  0  0  0  0  0  0  0  0  0  0  0
    4.7833   27.5230   30.8896 H   0  0  0  0  0  0  0  0  0  0  0  0
    1.1743   16.9906   40.8269 H   0  0  0  0  0  0  0  0  0  0  0  0
    4.2723   14.5853   38.9074 H   0  0  0  0  0  0  0  0  0  0  0  0
    3.0257   13.4701   38.5089 H   0  0  0  0  0  0  0  0  0  0  0  0
    1.6896   25.7185   33.4225 H   0  0  0  0  0  0  0  0  0  0  0  0
    1.0364   24.6988   31.8491 H   0  0  0  0  0  0  0  0  0  0  0  0
    2.3447   11.9484   41.7405 H   0  0  0  0  0  0  0  0  0  0  0  0
    2.4977   23.0477   32.2788 H   0  0  0  0  0  0  0  0  0  0  0  0
    2.1872   15.5507   37.6461 H   0  0  0  0  0  0  0  0  0  0  0  0
    1.5004   15.4337   39.4602 H   0  0  0  0  0  0  0  0  0  0  0  0
    3.9907   12.7996   39.5146 H   0  0  0  0  0  0  0  0  0  0  0  0
    4.4223   12.8305   41.2301 H   0  0  0  0  0  0  0  0  0  0  0  0
    2.4126   28.2762   31.3209 H   0  0  0  0  0  0  0  0  0  0  0  0
    2.4308   27.2863   29.8574 H   0  0  0  0  0  0  0  0  0  0  0  0
    1.3925   20.5838   42.6450 H   0  0  0  0  0  0  0  0  0  0  0  0
    2.6462   20.1125   41.4480 H   0  0  0  0  0  0  0  0  0  0  0  0
    1.7309   21.6433   41.2344 H   0  0  0  0  0  0  0  0  0  0  0  0
  1  5  1  0
  3 19  3  0
  4  3  1  0
  5 13  1  0
  6 17  1  0
  7 12  1  0
  7  6  1  0
  8 11  2  3
  9 13  2  3
  9 20  1  0
 10 15  1  0
 11  4  1  0
 12 22  1  0
 14  2  1  0
 17 15  1  0
 17  8  1  0
 18 14  1  0
 18  5  1  0
 19  9  1  0
 20 23  1  0
 21  2  1  0
 21 16  1  0
 22 10  1  0
  1 24  1  0
  1 25  1  0
  1 26  1  0
  2 27  1  0
  2 28  1  0
  4 29  1  0
  4 30  1  0
  6 31  1  0
  6 32  1  0
  7 33  1  0
  7 34  1  0
  8 35  1  0
 10 36  1  0
 10 37  1  0
 11 38  1  0
 12 39  1  0
 12 40  1  0
 13 41  1  0
 14 42  1  0
 14 43  1  0
 15 44  1  0
 15 45  1  0
 16 46  1  0
 17 47  1  0
 18 48  1  0
 18 49  1  0
 21 50  1  0
 21 51  1  0
 22 52  1  0
 22 53  1  0
 23 54  1  0
 23 55  1  0
 23 56  1  0
M  END
>  <mol_id>  (95) 
2026-09-16-6tgu-s0-n100-0095

>  <rmsd_to_ref>  (95) 


$$$$

     RDKit          3D

 46 48  0  0  0  0  0  0  0  0999 V2000
    3.3267   18.0477   39.0908 C   0  0  1  0  0  0  0  0  0  0  0  0
    3.3298   19.1619   38.1208 O   0  0  0  0  0  0  0  0  0  0  0  0
    4.3755   18.6345   39.8885 O   0  0  0  0  0  0  0  0  0  0  0  0
    3.5315   22.2663   34.7245 C   0  0  0  0  0  0  0  0  0  0  0  0
    2.5542   17.0134   40.3787 C   0  0  1  0  0  0  0  0  0  0  0  0
    3.6191   21.2650   35.8654 C   0  0  0  0  0  0  0  0  0  0  0  0
    1.9678   14.6446   40.5444 O   0  0  0  0  0  0  0  0  0  0  0  0
    2.6715   23.3405   34.8416 C   0  0  0  0  0  0  0  0  0  0  0  0
    1.9150   15.7375   41.4699 C   0  0  1  0  0  0  0  0  0  0  0  0
    3.1785   24.0802   32.6034 C   0  0  0  0  0  0  0  0  0  0  0  0
    4.2661   22.2110   33.6411 C   0  0  0  0  0  0  0  0  0  0  0  0
    1.8318   26.0379   31.5283 C   0  0  0  0  0  0  0  0  0  0  0  0
    4.0384   23.0314   32.5250 C   0  0  0  0  0  0  0  0  0  0  0  0
    3.3231   13.7422   37.9762 N   0  0  0  0  0  0  0  0  0  0  0  0
    3.7069   15.3759   39.6118 O   0  0  0  0  0  0  0  0  0  0  0  0
    2.4937   24.2776   33.8344 C   0  0  0  0  0  0  0  0  0  0  0  0
    4.0772   13.8624   39.0748 C   0  0  0  0  0  0  0  0  0  0  0  0
    2.7843   21.0358   36.6835 C   0  0  0  0  0  0  0  0  0  0  0  0
    1.6410   20.5807   40.4282 C   0  0  0  0  0  0  0  0  0  0  0  0
    1.9915   20.8553   39.0686 C   0  0  0  0  0  0  0  0  0  0  0  0
    2.7150   20.3473   37.9999 C   0  0  0  0  0  0  0  0  0  0  0  0
    3.0003   25.0958   31.4790 C   0  0  0  0  0  0  0  0  0  0  0  0
    2.7481   15.5787   39.7767 C   0  0  1  0  0  0  0  0  0  0  0  0
    3.8509   25.1679   30.5307 O   0  0  0  0  0  0  0  0  0  0  0  0
    2.9528   17.3216   38.3539 H   0  0  0  0  0  0  0  0  0  0  0  0
    4.1187   18.6058   40.8441 H   0  0  0  0  0  0  0  0  0  0  0  0
    1.6242   16.9779   39.7924 H   0  0  0  0  0  0  0  0  0  0  0  0
    4.5538   20.6904   35.9437 H   0  0  0  0  0  0  0  0  0  0  0  0
    2.1020   23.4582   35.7752 H   0  0  0  0  0  0  0  0  0  0  0  0
    1.5180   15.8024   42.4938 H   0  0  0  0  0  0  0  0  0  0  0  0
    5.0968   21.4910   33.6045 H   0  0  0  0  0  0  0  0  0  0  0  0
    1.5681   26.2403   32.5768 H   0  0  0  0  0  0  0  0  0  0  0  0
    2.0997   26.9808   31.0291 H   0  0  0  0  0  0  0  0  0  0  0  0
    0.9718   25.5828   31.0152 H   0  0  0  0  0  0  0  0  0  0  0  0
    4.5603   22.8233   31.5794 H   0  0  0  0  0  0  0  0  0  0  0  0
    2.3299   13.6942   38.2450 H   0  0  0  0  0  0  0  0  0  0  0  0
    3.4744   14.5573   37.3650 H   0  0  0  0  0  0  0  0  0  0  0  0
    3.5844   12.8824   37.4727 H   0  0  0  0  0  0  0  0  0  0  0  0
    1.8406   25.1500   33.9838 H   0  0  0  0  0  0  0  0  0  0  0  0
    3.8111   13.1010   39.8227 H   0  0  0  0  0  0  0  0  0  0  0  0
    5.1509   13.7205   38.8823 H   0  0  0  0  0  0  0  0  0  0  0  0
    1.8055   21.4407   36.3869 H   0  0  0  0  0  0  0  0  0  0  0  0
    2.0722   21.3537   41.0813 H   0  0  0  0  0  0  0  0  0  0  0  0
    0.5459   20.5821   40.5321 H   0  0  0  0  0  0  0  0  0  0  0  0
    2.0354   19.5952   40.7167 H   0  0  0  0  0  0  0  0  0  0  0  0
    1.5223   21.8023   38.7637 H   0  0  0  0  0  0  0  0  0  0  0  0
  1  3  1  0
  2 21  1  0
  2  1  1  0
  4  8  2  0
  4  6  1  0
  5  1  1  0
  5  9  1  0
  6 18  2  3
  9  7  1  0
 10 16  2  0
 11  4  1  0
 13 10  1  0
 13 11  2  0
 14 17  1  0
 16  8  1  0
 17 15  1  0
 18 21  1  0
 20 19  1  0
 21 20  2  3
 22 12  1  0
 22 10  1  0
 23 15  1  6
 23  5  1  0
 23  7  1  0
 23  9  1  0
 24 22  2  0
  1 25  1  6
  3 26  1  0
  5 27  1  6
  6 28  1  0
  8 29  1  0
  9 30  1  1
 11 31  1  0
 12 32  1  0
 12 33  1  0
 12 34  1  0
 13 35  1  0
 14 36  1  0
 14 37  1  0
 14 38  1  0
 16 39  1  0
 17 40  1  0
 17 41  1  0
 18 42  1  0
 19 43  1  0
 19 44  1  0
 19 45  1  0
 20 46  1  0
M  CHG  1  14   1
M  END
>  <mol_id>  (96) 
2026-09-16-6tgu-s0-n100-0096

>  <rmsd_to_ref>  (96) 


$$$$

     RDKit          3D

 47 50  0  0  0  0  0  0  0  0999 V2000
    1.5495   23.2673   33.9543 C   0  0  0  0  0  0  0  0  0  0  0  0
    2.7716   18.0329   39.6249 O   0  0  0  0  0  0  0  0  0  0  0  0
    1.6276   20.5211   42.6677 N   0  0  0  0  0  0  0  0  0  0  0  0
    2.7788   20.0377   40.6046 O   0  0  0  0  0  0  0  0  0  0  0  0
    2.9672   23.9338   35.8224 C   0  0  0  0  0  0  0  0  0  0  0  0
    0.6316   19.9029   43.4760 N   0  0  0  0  0  0  0  0  0  0  0  0
    3.8788   21.5743   36.3227 C   0  0  0  0  0  0  0  0  0  0  0  0
    2.8750   19.4787   39.3925 C   0  0  0  0  0  0  0  0  0  0  0  0
    3.7458   16.5407   36.4930 C   0  0  0  0  0  0  0  0  0  0  0  0
    1.8932   19.5583   41.6347 C   0  0  0  0  0  0  0  0  0  0  0  0
    3.0890   17.1362   38.7138 C   0  0  0  0  0  0  0  0  0  0  0  0
    3.5083   17.5131   37.4314 C   0  0  0  0  0  0  0  0  0  0  0  0
    3.5436   21.2971   37.8508 C   0  0  0  0  0  0  0  0  0  0  0  0
    3.0800   15.7581   39.0434 C   0  0  0  0  0  0  0  0  0  0  0  0
    3.3627   19.8070   38.0897 C   0  0  0  0  0  0  0  0  0  0  0  0
    3.5919   18.9185   37.1444 N   0  0  0  0  0  0  0  0  0  0  0  0
    3.8570   24.4875   33.6459 C   0  0  0  0  0  0  0  0  0  0  0  0
    3.5390   15.2185   36.7428 C   0  0  0  0  0  0  0  0  0  0  0  0
    3.0985   23.1678   33.8009 C   0  0  1  0  0  0  0  0  0  0  0  0
    0.9545   18.4309   41.8308 C   0  0  0  0  0  0  0  0  0  0  0  0
    3.2445   14.7603   38.0029 C   0  0  0  0  0  0  0  0  0  0  0  0
    3.7309   22.8760   35.2276 C   0  0  1  0  0  0  0  0  0  0  0  0
    3.4322   24.9654   34.9485 C   0  0  0  0  0  0  0  0  0  0  0  0
    0.2785   18.5963   43.0057 C   0  0  0  0  0  0  0  0  0  0  0  0
    1.2707   23.0638   34.9987 H   0  0  0  0  0  0  0  0  0  0  0  0
    1.2178   24.2786   33.6765 H   0  0  0  0  0  0  0  0  0  0  0  0
    1.0678   22.5296   33.2957 H   0  0  0  0  0  0  0  0  0  0  0  0
    1.8823   23.7694   35.7458 H   0  0  0  0  0  0  0  0  0  0  0  0
    3.0938   24.0972   36.9028 H   0  0  0  0  0  0  0  0  0  0  0  0
    0.2119   20.3455   44.3060 H   0  0  0  0  0  0  0  0  0  0  0  0
    4.9553   21.3529   36.2769 H   0  0  0  0  0  0  0  0  0  0  0  0
    2.9776   21.0628   35.9539 H   0  0  0  0  0  0  0  0  0  0  0  0
    4.8056   16.6371   36.2144 H   0  0  0  0  0  0  0  0  0  0  0  0
    2.9681   16.7538   35.7449 H   0  0  0  0  0  0  0  0  0  0  0  0
    4.3693   21.6671   38.4764 H   0  0  0  0  0  0  0  0  0  0  0  0
    2.6102   21.8171   38.1122 H   0  0  0  0  0  0  0  0  0  0  0  0
    2.9482   15.4443   40.0895 H   0  0  0  0  0  0  0  0  0  0  0  0
    4.9461   24.3593   33.5599 H   0  0  0  0  0  0  0  0  0  0  0  0
    3.6633   25.1116   32.7611 H   0  0  0  0  0  0  0  0  0  0  0  0
    3.6096   14.4990   35.9138 H   0  0  0  0  0  0  0  0  0  0  0  0
    3.1918   22.4682   32.9572 H   0  0  0  0  0  0  0  0  0  0  0  0
    0.8216   17.5885   41.1362 H   0  0  0  0  0  0  0  0  0  0  0  0
    3.1380   13.6860   38.2141 H   0  0  0  0  0  0  0  0  0  0  0  0
    4.7941   22.6756   35.0291 H   0  0  0  0  0  0  0  0  0  0  0  0
    4.2857   25.4668   35.4284 H   0  0  0  0  0  0  0  0  0  0  0  0
    2.5840   25.6447   34.7777 H   0  0  0  0  0  0  0  0  0  0  0  0
   -0.3969   17.8760   43.4905 H   0  0  0  0  0  0  0  0  0  0  0  0
  3  6  1  0
  4 10  1  0
  7 13  1  0
  8  2  1  0
  8  4  1  0
  9 18  1  0
  9 12  1  0
 10 20  1  0
 10  3  2  0
 11 14  2  0
 11  2  1  0
 12 11  1  0
 13 15  1  0
 15  8  2  0
 16 12  2  0
 16 15  1  0
 17 19  1  0
 17 23  1  0
 18 21  2  0
 19  1  1  0
 19 22  1  0
 20 24  2  0
 21 14  1  0
 22  5  1  0
 22  7  1  0
 23  5  1  0
 24  6  1  0
  1 25  1  0
  1 26  1  0
  1 27  1  0
  5 28  1  0
  5 29  1  0
  6 30  1  0
  7 31  1  0
  7 32  1  0
  9 33  1  0
  9 34  1  0
 13 35  1  0
 13 36  1  0
 14 37  1  0
 17 38  1  0
 17 39  1  0
 18 40  1  0
 19 41  1  6
 20 42  1  0
 21 43  1  0
 22 44  1  6
 23 45  1  0
 23 46  1  0
 24 47  1  0
M  END
>  <mol_id>  (97) 
2026-09-16-6tgu-s0-n100-0097

>  <rmsd_to_ref>  (97) 


$$$$

     RDKit          3D

 56 59  0  0  0  0  0  0  0  0999 V2000
    2.7225   16.9722   40.3483 O   0  0  0  0  0  0  0  0  0  0  0  0
    5.6866   22.3594   29.0498 C   0  0  0  0  0  0  0  0  0  0  0  0
    3.0226   21.8815   35.0817 S   0  0  0  0  0  0  0  0  0  0  0  0
    3.5417   16.1347   39.5728 C   0  0  1  0  0  0  0  0  0  0  0  0
    4.7812   15.3791   39.1815 C   0  0  0  0  0  0  0  0  0  0  0  0
    2.6417   18.2319   39.9688 C   0  0  0  0  0  0  0  0  0  0  0  0
    1.8299   18.8544   40.6689 C   0  0  0  0  0  0  0  0  0  0  0  0
   -0.2461   22.3362   42.2154 O   0  0  0  0  0  0  0  0  0  0  0  0
    4.0317   22.0900   32.7654 C   0  0  0  0  0  0  0  0  0  0  0  0
    2.3576   15.3410   38.7809 C   0  0  0  0  0  0  0  0  0  0  0  0
   -0.5815   21.3226   41.7286 C   0  0  0  0  0  0  0  0  0  0  0  0
    5.6507   22.0555   29.9331 C   0  0  1  0  0  0  0  0  0  0  0  0
   -1.9271   20.7730   41.9112 C   0  0  0  0  0  0  0  0  0  0  0  0
    1.8255   20.5297   39.1761 C   0  0  0  0  0  0  0  0  0  0  0  0
    4.5791   21.5892   34.1550 C   0  0  0  0  0  0  0  0  0  0  0  0
    2.8133   19.9527   38.5285 C   0  0  0  0  0  0  0  0  0  0  0  0
    3.1597   18.6952   38.8162 C   0  0  0  0  0  0  0  0  0  0  0  0
    5.3453   22.1244   31.5601 C   0  0  2  0  0  0  0  0  0  0  0  0
    2.7971   14.0701   39.2060 N   0  0  0  0  0  0  0  0  0  0  0  0
    3.5322   21.0645   36.4400 C   0  0  0  0  0  0  0  0  0  0  0  0
    4.9549   23.4165   29.4874 C   0  0  0  0  0  0  0  0  0  0  0  0
    4.5759   21.6677   31.6863 C   0  0  0  0  0  0  0  0  0  0  0  0
    4.6738   22.4527   30.4764 C   0  0  1  0  0  0  0  0  0  0  0  0
    0.2384   20.5068   41.1372 N   0  0  0  0  0  0  0  0  0  0  0  0
    3.4088   20.5508   37.4308 C   0  0  0  0  0  0  0  0  0  0  0  0
    1.3888   20.0931   40.3578 C   0  0  0  0  0  0  0  0  0  0  0  0
    4.2539   14.0160   38.9471 C   0  0  0  0  0  0  0  0  0  0  0  0
    5.1802   21.7155   28.3157 H   0  0  0  0  0  0  0  0  0  0  0  0
    6.6332   22.4797   28.5025 H   0  0  0  0  0  0  0  0  0  0  0  0
    4.3576   16.7963   39.8991 H   0  0  0  0  0  0  0  0  0  0  0  0
    5.2309   15.7956   38.2680 H   0  0  0  0  0  0  0  0  0  0  0  0
    5.5807   15.4202   39.9359 H   0  0  0  0  0  0  0  0  0  0  0  0
    1.4516   18.3769   41.5848 H   0  0  0  0  0  0  0  0  0  0  0  0
    2.9692   21.8091   32.7196 H   0  0  0  0  0  0  0  0  0  0  0  0
    4.2621   23.1656   32.7684 H   0  0  0  0  0  0  0  0  0  0  0  0
    2.4014   15.4727   37.6897 H   0  0  0  0  0  0  0  0  0  0  0  0
    1.3139   15.6263   38.9794 H   0  0  0  0  0  0  0  0  0  0  0  0
    6.4742   21.4597   29.5127 H   0  0  0  0  0  0  0  0  0  0  0  0
   -2.2384   20.9057   42.9578 H   0  0  0  0  0  0  0  0  0  0  0  0
   -2.6311   21.2991   41.2498 H   0  0  0  0  0  0  0  0  0  0  0  0
   -1.9222   19.7013   41.6632 H   0  0  0  0  0  0  0  0  0  0  0  0
    1.3399   21.4076   38.7252 H   0  0  0  0  0  0  0  0  0  0  0  0
    4.8734   20.5294   34.1401 H   0  0  0  0  0  0  0  0  0  0  0  0
    5.4920   22.0675   34.5393 H   0  0  0  0  0  0  0  0  0  0  0  0
    3.8112   18.0910   38.1678 H   0  0  0  0  0  0  0  0  0  0  0  0
    5.9736   22.2833   32.4489 H   0  0  0  0  0  0  0  0  0  0  0  0
    2.6103   13.9478   40.2115 H   0  0  0  0  0  0  0  0  0  0  0  0
    2.3029   13.3194   38.7029 H   0  0  0  0  0  0  0  0  0  0  0  0
    5.5184   24.3038   29.8117 H   0  0  0  0  0  0  0  0  0  0  0  0
    4.2167   23.9851   28.9028 H   0  0  0  0  0  0  0  0  0  0  0  0
    3.8984   21.8377   30.8365 H   0  0  0  0  0  0  0  0  0  0  0  0
    4.7823   20.5899   31.7618 H   0  0  0  0  0  0  0  0  0  0  0  0
    3.6015   22.3829   30.7118 H   0  0  0  0  0  0  0  0  0  0  0  0
   -0.1923   19.5971   41.3560 H   0  0  0  0  0  0  0  0  0  0  0  0
    4.4426   13.7106   37.9073 H   0  0  0  0  0  0  0  0  0  0  0  0
    4.7448   13.2844   39.6057 H   0  0  0  0  0  0  0  0  0  0  0  0
  2 21  1  0
  3 20  1  0
  4  1  1  0
  5  4  1  0
  6  1  1  0
  6  7  2  0
  9 15  1  0
 10 19  1  0
 10  4  1  0
 11 13  1  0
 11  8  2  0
 12  2  1  0
 12 23  1  0
 12 18  1  0
 14 26  2  0
 15  3  1  0
 16 14  1  0
 17 16  2  0
 17  6  1  0
 18 22  1  0
 20 25  3  0
 22  9  1  0
 23 21  1  0
 23 18  1  0
 24 11  1  0
 25 16  1  0
 26  7  1  0
 26 24  1  0
 27  5  1  0
 27 19  1  0
  2 28  1  0
  2 29  1  0
  4 30  1  6
  5 31  1  0
  5 32  1  0
  7 33  1  0
  9 34  1  0
  9 35  1  0
 10 36  1  0
 10 37  1  0
 12 38  1  6
 13 39  1  0
 13 40  1  0
 13 41  1  0
 14 42  1  0
 15 43  1  0
 15 44  1  0
 17 45  1  0
 18 46  1  1
 19 47  1  0
 19 48  1  0
 21 49  1  0
 21 50  1  0
 22 51  1  0
 22 52  1  0
 23 53  1  6
 24 54  1  0
 27 55  1  0
 27 56  1  0
M  CHG  1  19   1
M  END
>  <mol_id>  (98) 
2026-09-16-6tgu-s0-n100-0099

>  <rmsd_to_ref>  (98) 


$$$$

     RDKit          3D

 53 54  0  0  0  0  0  0  0  0999 V2000
    2.8882   13.8714   40.8869 O   0  0  0  0  0  0  0  0  0  0  0  0
    2.0989   24.2359   32.8019 C   0  0  0  0  0  0  0  0  0  0  0  0
    2.7066   21.3070   35.2161 C   0  0  0  0  0  0  0  0  0  0  0  0
    3.9926   18.8049   39.4061 C   0  0  0  0  0  0  0  0  0  0  0  0
    0.9858   23.7568   35.0284 C   0  0  0  0  0  0  0  0  0  0  0  0
    3.0927   22.6092   34.5184 C   0  0  0  0  0  0  0  0  0  0  0  0
    3.2836   15.8507   39.9712 N   0  0  0  0  0  0  0  0  0  0  0  0
    2.8549   20.3382   37.5856 C   0  0  0  0  0  0  0  0  0  0  0  0
    0.2301   25.0866   34.7803 C   0  0  0  0  0  0  0  0  0  0  0  0
    1.9750   19.0727   40.9087 N   0  0  0  0  0  0  0  0  0  0  0  0
   -0.1799   25.3251   33.2414 C   0  0  0  0  0  0  0  0  0  0  0  0
    1.0856   18.3592   41.7166 C   0  0  0  0  0  0  0  0  0  0  0  0
    1.2771   16.9937   41.5839 C   0  0  0  0  0  0  0  0  0  0  0  0
    2.9010   18.1907   40.2758 C   0  0  0  0  0  0  0  0  0  0  0  0
    4.4815   13.9821   39.5904 O   0  0  0  0  0  0  0  0  0  0  0  0
    3.4953   14.5216   40.2676 C   0  0  0  0  0  0  0  0  0  0  0  0
    3.8486   18.2026   37.1189 O   0  0  0  0  0  0  0  0  0  0  0  0
    1.9000   23.2217   33.9223 C   0  0  2  0  0  0  0  0  0  0  0  0
    0.7350   24.8882   30.8696 C   0  0  0  0  0  0  0  0  0  0  0  0
    0.5398   15.9252   42.1398 C   0  0  0  0  0  0  0  0  0  0  0  0
    3.6002   19.0884   37.9856 C   0  0  0  0  0  0  0  0  0  0  0  0
    3.3325   21.0551   36.4397 C   0  0  0  0  0  0  0  0  0  0  0  0
    2.5477   16.9088   40.5590 C   0  0  0  0  0  0  0  0  0  0  0  0
    0.8502   24.9010   32.2866 C   0  0  2  0  0  0  0  0  0  0  0  0
    2.7703   25.0231   33.1753 H   0  0  0  0  0  0  0  0  0  0  0  0
    2.5038   23.6654   31.9530 H   0  0  0  0  0  0  0  0  0  0  0  0
    2.9506   20.4769   34.5369 H   0  0  0  0  0  0  0  0  0  0  0  0
    1.6354   21.4025   35.4470 H   0  0  0  0  0  0  0  0  0  0  0  0
    4.3013   19.7539   39.8687 H   0  0  0  0  0  0  0  0  0  0  0  0
    4.7967   18.0560   39.3549 H   0  0  0  0  0  0  0  0  0  0  0  0
    1.6078   23.8984   35.9245 H   0  0  0  0  0  0  0  0  0  0  0  0
    0.1883   23.0033   35.1084 H   0  0  0  0  0  0  0  0  0  0  0  0
    3.5317   23.3012   35.2520 H   0  0  0  0  0  0  0  0  0  0  0  0
    3.8269   22.3956   33.7276 H   0  0  0  0  0  0  0  0  0  0  0  0
    3.7792   16.1453   39.1177 H   0  0  0  0  0  0  0  0  0  0  0  0
    1.8128   20.0500   37.3833 H   0  0  0  0  0  0  0  0  0  0  0  0
    2.9962   21.0307   38.4286 H   0  0  0  0  0  0  0  0  0  0  0  0
   -0.6875   25.0823   35.3869 H   0  0  0  0  0  0  0  0  0  0  0  0
    0.9155   25.9007   35.0586 H   0  0  0  0  0  0  0  0  0  0  0  0
   -1.1000   24.7586   33.0349 H   0  0  0  0  0  0  0  0  0  0  0  0
   -0.3169   26.4083   33.1082 H   0  0  0  0  0  0  0  0  0  0  0  0
    1.2464   18.6441   42.7669 H   0  0  0  0  0  0  0  0  0  0  0  0
    0.0589   18.6001   41.4037 H   0  0  0  0  0  0  0  0  0  0  0  0
    1.4206   22.3950   33.3777 H   0  0  0  0  0  0  0  0  0  0  0  0
   -0.2093   24.4025   30.5829 H   0  0  0  0  0  0  0  0  0  0  0  0
    0.7456   25.9211   30.4915 H   0  0  0  0  0  0  0  0  0  0  0  0
    1.5797   24.3311   30.4381 H   0  0  0  0  0  0  0  0  0  0  0  0
    0.5501   16.0042   43.2369 H   0  0  0  0  0  0  0  0  0  0  0  0
   -0.4984   15.9691   41.7788 H   0  0  0  0  0  0  0  0  0  0  0  0
    0.9932   14.9699   41.8368 H   0  0  0  0  0  0  0  0  0  0  0  0
    4.2616   20.5344   36.1645 H   0  0  0  0  0  0  0  0  0  0  0  0
    3.2513   22.0695   36.8572 H   0  0  0  0  0  0  0  0  0  0  0  0
    0.5481   25.9585   32.3105 H   0  0  0  0  0  0  0  0  0  0  0  0
  2 18  1  0
  3 22  1  0
  4 14  1  0
  6  3  1  0
  7 16  1  0
  7 23  1  0
  8 21  1  0
  9  5  1  0
 10 12  1  0
 11  9  1  0
 13 12  1  0
 13 20  1  0
 14 23  1  0
 14 10  2  0
 15 16  2  0
 16  1  1  0
 17 21  2  0
 18  6  1  0
 18  5  1  0
 21  4  1  0
 22  8  1  0
 23 13  2  0
 24 19  1  0
 24  2  1  0
 24 11  1  0
  2 25  1  0
  2 26  1  0
  3 27  1  0
  3 28  1  0
  4 29  1  0
  4 30  1  0
  5 31  1  0
  5 32  1  0
  6 33  1  0
  6 34  1  0
  7 35  1  0
  8 36  1  0
  8 37  1  0
  9 38  1  0
  9 39  1  0
 11 40  1  0
 11 41  1  0
 12 42  1  0
 12 43  1  0
 18 44  1  6
 19 45  1  0
 19 46  1  0
 19 47  1  0
 20 48  1  0
 20 49  1  0
 20 50  1  0
 22 51  1  0
 22 52  1  0
 24 53  1  6
M  CHG  1   1  -1
M  END
>  <mol_id>  (99) 
2026-09-16-6tgu-s0-n100-0100

>  <rmsd_to_ref>  (99) 


$$$$
