
     RDKit          3D

 16 16  0  0  0  0  0  0  0  0999 V2000
    0.4030   21.5756   42.8250 S   0  0  0  0  0  0  0  0  0  0  0  0
    1.2162   18.7341   43.9980 C   0  0  0  0  0  0  0  0  0  0  0  0
    1.8555   20.7358   42.8085 C   0  0  0  0  0  0  0  0  0  0  0  0
    0.0010   20.2945   43.9318 C   0  0  1  0  0  0  0  0  0  0  0  0
   -1.1966   18.8583   45.7820 C   0  0  0  0  0  0  0  0  0  0  0  0
    3.4947   21.0030   42.7844 S   0  0  0  0  0  0  0  0  0  0  0  0
    1.4709   19.3130   43.8484 C   0  0  1  0  0  0  0  0  0  0  0  0
   -0.6551   20.1146   45.0705 O   0  0  0  0  0  0  0  0  0  0  0  0
    0.9410   18.7187   45.0629 H   0  0  0  0  0  0  0  0  0  0  0  0
    0.3198   18.5586   43.3850 H   0  0  0  0  0  0  0  0  0  0  0  0
    1.9566   17.9453   43.7991 H   0  0  0  0  0  0  0  0  0  0  0  0
   -1.0468   20.2096   43.6079 H   0  0  0  0  0  0  0  0  0  0  0  0
   -1.4018   19.0941   46.8367 H   0  0  0  0  0  0  0  0  0  0  0  0
   -2.1256   18.5312   45.2919 H   0  0  0  0  0  0  0  0  0  0  0  0
   -0.4489   18.0536   45.7249 H   0  0  0  0  0  0  0  0  0  0  0  0
    2.4398   18.8786   44.1357 H   0  0  0  0  0  0  0  0  0  0  0  0
  1  4  1  0
  3  1  1  0
  3  7  1  0
  4  8  1  0
  6  3  2  0
  7  2  1  0
  7  4  1  0
  8  5  1  0
  2  9  1  0
  2 10  1  0
  2 11  1  0
  4 12  1  6
  5 13  1  0
  5 14  1  0
  5 15  1  0
  7 16  1  1
M  END
>  <mol_id>  (1) 
2026-09-18-6fnk-s0-n100-refligand-0001

>  <rmsd_to_ref>  (1) 


$$$$

     RDKit          3D

 12 13  0  0  0  0  0  0  0  0999 V2000
   -0.7011   19.6316   44.6062 N   0  0  0  0  0  0  0  0  0  0  0  0
    1.5454   17.1910   43.3288 N   0  0  0  0  0  0  0  0  0  0  0  0
    2.2541   17.7790   42.4400 C   0  0  0  0  0  0  0  0  0  0  0  0
   -0.1462   17.5638   45.2571 N   0  0  0  0  0  0  0  0  0  0  0  0
    2.0613   19.0058   42.0733 N   0  0  0  0  0  0  0  0  0  0  0  0
   -0.9361   18.6174   45.4802 C   0  0  0  0  0  0  0  0  0  0  0  0
    0.3833   19.2099   43.7793 C   0  0  0  0  0  0  0  0  0  0  0  0
    1.1246   21.0050   42.4340 O   0  0  0  0  0  0  0  0  0  0  0  0
    1.1944   19.7687   42.7349 C   0  0  0  0  0  0  0  0  0  0  0  0
    0.6313   17.9073   44.0974 C   0  0  0  0  0  0  0  0  0  0  0  0
    3.0682   17.2134   41.9633 H   0  0  0  0  0  0  0  0  0  0  0  0
   -1.6904   18.6595   46.2798 H   0  0  0  0  0  0  0  0  0  0  0  0
  1  6  1  0
  2 10  2  0
  3  2  1  0
  4  6  2  0
  5  3  2  0
  5  9  1  0
  7 10  1  0
  7  1  2  0
  8  9  2  0
  9  7  1  0
 10  4  1  0
  3 11  1  0
  6 12  1  0
M  END
>  <mol_id>  (2) 
2026-09-18-6fnk-s0-n100-refligand-0002

>  <rmsd_to_ref>  (2) 


$$$$

     RDKit          3D

 31 32  0  0  0  0  0  0  0  0999 V2000
   -1.3371   20.2100   44.8350 O   0  0  0  0  0  0  0  0  0  0  0  0
    1.1259   17.2041   42.0805 C   0  0  0  0  0  0  0  0  0  0  0  0
    0.5262   17.1658   44.5597 C   0  0  2  0  0  0  0  0  0  0  0  0
    1.2012   15.5330   41.6915 S   0  0  0  0  0  0  0  0  0  0  0  0
    1.6281   20.2021   39.9987 N   0  0  0  0  0  0  0  0  0  0  0  0
    0.5156   19.8480   46.0868 O   0  0  0  0  0  0  0  0  0  0  0  0
   -0.3820   19.2886   45.0779 C   0  0  0  0  0  0  0  0  0  0  0  0
    1.2632   19.3580   41.1483 C   0  0  0  0  0  0  0  0  0  0  0  0
    0.2327   15.0212   45.9559 C   0  0  0  0  0  0  0  0  0  0  0  0
    0.8365   19.8636   42.3199 C   0  0  0  0  0  0  0  0  0  0  0  0
    1.4219   18.0723   41.0698 C   0  0  0  0  0  0  0  0  0  0  0  0
    1.1398   15.9293   45.1639 C   0  0  0  0  0  0  0  0  0  0  0  0
    1.5630   19.5979   38.9063 O   0  0  0  0  0  0  0  0  0  0  0  0
    0.8134   17.7454   43.3598 N   0  0  0  0  0  0  0  0  0  0  0  0
    0.5680   19.0251   43.4414 C   0  0  0  0  0  0  0  0  0  0  0  0
   -0.4886   17.9037   45.2662 C   0  0  0  0  0  0  0  0  0  0  0  0
    2.2819   15.7141   44.9916 O   0  0  0  0  0  0  0  0  0  0  0  0
    2.0045   21.3689   40.1244 N   0  0  0  0  0  0  0  0  0  0  0  0
   -1.5714   20.6727   45.6783 H   0  0  0  0  0  0  0  0  0  0  0  0
   -0.2518   16.5487   44.0867 H   0  0  0  0  0  0  0  0  0  0  0  0
    0.0834   19.7995   46.9763 H   0  0  0  0  0  0  0  0  0  0  0  0
    0.3289   15.2506   47.0274 H   0  0  0  0  0  0  0  0  0  0  0  0
   -0.8092   15.1771   45.6397 H   0  0  0  0  0  0  0  0  0  0  0  0
    0.5168   13.9735   45.7783 H   0  0  0  0  0  0  0  0  0  0  0  0
    0.6914   20.9498   42.4147 H   0  0  0  0  0  0  0  0  0  0  0  0
    1.8191   17.6570   40.1317 H   0  0  0  0  0  0  0  0  0  0  0  0
    1.6000   18.6217   39.0665 H   0  0  0  0  0  0  0  0  0  0  0  0
   -1.4756   17.5752   44.9084 H   0  0  0  0  0  0  0  0  0  0  0  0
   -0.3571   17.7039   46.3398 H   0  0  0  0  0  0  0  0  0  0  0  0
    2.0855   21.5975   41.1254 H   0  0  0  0  0  0  0  0  0  0  0  0
    2.9220   21.4844   39.6705 H   0  0  0  0  0  0  0  0  0  0  0  0
  1  7  1  0
  2 14  1  0
  3 12  1  0
  3 16  1  0
  4  2  2  0
  5 18  1  0
  5  8  1  0
  7  6  1  0
  8 10  1  0
 10 15  2  0
 11  8  2  0
 11  2  1  0
 12  9  1  0
 13  5  1  0
 14 15  1  0
 14  3  1  0
 15  7  1  0
 16  7  1  0
 17 12  2  0
  1 19  1  0
  3 20  1  6
  6 21  1  0
  9 22  1  0
  9 23  1  0
  9 24  1  0
 10 25  1  0
 11 26  1  0
 13 27  1  0
 16 28  1  0
 16 29  1  0
 18 30  1  0
 18 31  1  0
M  END
>  <mol_id>  (3) 
2026-09-18-6fnk-s0-n100-refligand-0003

>  <rmsd_to_ref>  (3) 


$$$$

     RDKit          3D

 25 27  0  0  0  0  0  0  0  0999 V2000
   -0.6754   17.7174   45.7941 C   0  0  0  0  0  0  0  0  0  0  0  0
    0.2590   19.5819   44.4664 C   0  0  0  0  0  0  0  0  0  0  0  0
    2.0775   19.1756   42.7723 C   0  0  0  0  0  0  0  0  0  0  0  0
   -1.0120   16.4013   45.5318 N   0  0  0  0  0  0  0  0  0  0  0  0
   -0.3238   15.8139   44.4233 N   0  0  0  0  0  0  0  0  0  0  0  0
    1.4027   16.5945   42.8046 C   0  0  2  0  0  0  0  0  0  0  0  0
   -0.4453   20.4358   45.0085 O   0  0  0  0  0  0  0  0  0  0  0  0
    0.1600   18.2855   44.6974 C   0  0  2  0  0  0  0  0  0  0  0  0
    1.5485   18.1739   41.7901 C   0  0  2  0  0  0  0  0  0  0  0  0
    2.2105   16.9786   41.6397 C   0  0  0  0  0  0  0  0  0  0  0  0
   -0.9317   18.4161   46.6897 O   0  0  0  0  0  0  0  0  0  0  0  0
    0.3819   17.0254   43.8881 C   0  0  0  0  0  0  0  0  0  0  0  0
    1.1620   20.0038   43.4600 N   0  0  0  0  0  0  0  0  0  0  0  0
    1.0299   21.2756   43.0350 C   0  0  0  0  0  0  0  0  0  0  0  0
    2.7619   19.8378   42.2218 H   0  0  0  0  0  0  0  0  0  0  0  0
    2.5260   18.5592   43.5653 H   0  0  0  0  0  0  0  0  0  0  0  0
   -1.7049   15.8841   46.0916 H   0  0  0  0  0  0  0  0  0  0  0  0
    2.2303   16.8775   43.4717 H   0  0  0  0  0  0  0  0  0  0  0  0
    1.0660   18.9052   44.6279 H   0  0  0  0  0  0  0  0  0  0  0  0
    1.0535   18.8539   41.0811 H   0  0  0  0  0  0  0  0  0  0  0  0
    3.2975   17.0124   41.8042 H   0  0  0  0  0  0  0  0  0  0  0  0
    2.2492   16.4081   40.7000 H   0  0  0  0  0  0  0  0  0  0  0  0
    1.0314   21.9537   43.9012 H   0  0  0  0  0  0  0  0  0  0  0  0
    1.8684   21.5289   42.3697 H   0  0  0  0  0  0  0  0  0  0  0  0
    0.0820   21.3825   42.4873 H   0  0  0  0  0  0  0  0  0  0  0  0
  1  4  1  0
  1 11  2  0
  2  7  2  0
  3 13  1  0
  5  4  1  0
  6 10  1  0
  6 12  1  0
  8  2  1  0
  8  1  1  0
  9 10  1  0
  9  3  1  0
  9  6  1  0
 12  8  1  0
 12  5  2  0
 13  2  1  0
 14 13  1  0
  3 15  1  0
  3 16  1  0
  4 17  1  0
  6 18  1  6
  8 19  1  1
  9 20  1  6
 10 21  1  0
 10 22  1  0
 14 23  1  0
 14 24  1  0
 14 25  1  0
M  END
>  <mol_id>  (4) 
2026-09-18-6fnk-s0-n100-refligand-0004

>  <rmsd_to_ref>  (4) 


$$$$

     RDKit          3D

 26 28  0  0  0  0  0  0  0  0999 V2000
    3.5812   16.7476   40.6826 O   0  0  0  0  0  0  0  0  0  0  0  0
   -1.1472   19.1143   45.4463 N   0  0  0  0  0  0  0  0  0  0  0  0
    3.5200   19.5315   41.7362 O   0  0  0  0  0  0  0  0  0  0  0  0
    3.4060   14.6145   40.5335 O   0  0  0  0  0  0  0  0  0  0  0  0
    3.2140   19.0071   40.4524 C   0  0  0  0  0  0  0  0  0  0  0  0
   -0.5666   18.2602   44.6000 C   0  0  0  0  0  0  0  0  0  0  0  0
   -0.6717   20.3688   45.2044 N   0  0  0  0  0  0  0  0  0  0  0  0
    2.5070   17.6887   40.7360 C   0  0  2  0  0  0  0  0  0  0  0  0
    0.1919   20.2544   44.1488 C   0  0  0  0  0  0  0  0  0  0  0  0
    1.7654   17.3902   42.1521 C   0  0  0  0  0  0  0  0  0  0  0  0
    3.7684   15.6492   38.7313 O   0  0  0  0  0  0  0  0  0  0  0  0
    1.8624   21.1076   42.6676 C   0  0  0  0  0  0  0  0  0  0  0  0
    3.5698   15.6860   39.8683 C   0  0  0  0  0  0  0  0  0  0  0  0
    2.2430   19.8279   42.4101 C   0  0  0  0  0  0  0  0  0  0  0  0
    0.3964   18.8988   43.7148 C   0  0  0  0  0  0  0  0  0  0  0  0
    1.4962   18.7828   42.7257 C   0  0  0  0  0  0  0  0  0  0  0  0
    0.8734   21.2900   43.5899 C   0  0  0  0  0  0  0  0  0  0  0  0
    4.1334   18.8382   39.8726 H   0  0  0  0  0  0  0  0  0  0  0  0
    2.5940   19.6940   39.8577 H   0  0  0  0  0  0  0  0  0  0  0  0
   -0.7929   17.1840   44.5742 H   0  0  0  0  0  0  0  0  0  0  0  0
    1.6698   17.6624   40.0229 H   0  0  0  0  0  0  0  0  0  0  0  0
    0.8242   16.8433   41.9936 H   0  0  0  0  0  0  0  0  0  0  0  0
    2.3698   16.7635   42.8244 H   0  0  0  0  0  0  0  0  0  0  0  0
    2.3318   21.9597   42.1542 H   0  0  0  0  0  0  0  0  0  0  0  0
    1.3329   21.8387   44.4252 H   0  0  0  0  0  0  0  0  0  0  0  0
    0.0909   21.7735   42.9866 H   0  0  0  0  0  0  0  0  0  0  0  0
  3 14  1  0
  5  8  1  0
  5  3  1  0
  6  2  2  0
  7  2  1  0
  8  1  1  0
  8 10  1  0
  9  7  2  0
 10 16  1  0
 11 13  2  0
 12 17  1  0
 13  4  1  0
 13  1  1  0
 14 12  2  0
 14 16  1  0
 15  9  1  0
 15  6  1  0
 16 15  2  0
 17  9  1  0
  5 18  1  0
  5 19  1  0
  6 20  1  0
  8 21  1  6
 10 22  1  0
 10 23  1  0
 12 24  1  0
 17 25  1  0
 17 26  1  0
M  CHG  1   4  -1
M  END
>  <mol_id>  (5) 
2026-09-18-6fnk-s0-n100-refligand-0005

>  <rmsd_to_ref>  (5) 


$$$$

     RDKit          3D

 48 52  0  0  0  0  0  0  0  0999 V2000
    2.5428   21.5222   40.5846 C   0  0  0  0  0  0  0  0  0  0  0  0
    0.6990   19.7781   42.5792 C   0  0  0  0  0  0  0  0  0  0  0  0
   -0.6646   21.1162   43.9471 C   0  0  0  0  0  0  0  0  0  0  0  0
    5.1147   22.9909   38.7716 O   0  0  0  0  0  0  0  0  0  0  0  0
   -1.2345   17.4619   46.3066 C   0  0  0  0  0  0  0  0  0  0  0  0
    1.0024   15.2766   45.2003 C   0  0  0  0  0  0  0  0  0  0  0  0
   -0.0565   19.1155   44.8412 C   0  0  0  0  0  0  0  0  0  0  0  0
    4.9036   21.6654   39.3351 C   0  0  2  0  0  0  0  0  0  0  0  0
    2.2454   19.6618   39.1373 O   0  0  0  0  0  0  0  0  0  0  0  0
    1.4181   19.4345   41.3817 N   0  0  0  0  0  0  0  0  0  0  0  0
    4.8300   21.6662   40.8210 C   0  0  1  0  0  0  0  0  0  0  0  0
    0.0557   20.9850   42.8650 C   0  0  0  0  0  0  0  0  0  0  0  0
    3.5201   13.5865   42.7036 C   0  0  0  0  0  0  0  0  0  0  0  0
    0.6427   18.8250   43.6084 C   0  0  0  0  0  0  0  0  0  0  0  0
    2.0958   15.5841   43.1841 C   0  0  0  0  0  0  0  0  0  0  0  0
    3.7140   20.9593   41.2147 O   0  0  0  0  0  0  0  0  0  0  0  0
    6.0322   21.4672   40.2131 C   0  0  0  0  0  0  0  0  0  0  0  0
    1.3269   16.2844   44.0827 C   0  0  0  0  0  0  0  0  0  0  0  0
    1.7895   20.3019   40.3521 C   0  0  0  0  0  0  0  0  0  0  0  0
    1.7097   13.6558   44.8439 S   0  0  0  0  0  0  0  0  0  0  0  0
    2.5486   16.2060   42.0542 N   0  0  0  0  0  0  0  0  0  0  0  0
    2.5567   14.2931   43.5148 N   0  0  0  0  0  0  0  0  0  0  0  0
    1.2604   17.5741   43.3874 C   0  0  1  0  0  0  0  0  0  0  0  0
    1.8982   18.2739   41.2123 N   0  0  0  0  0  0  0  0  0  0  0  0
    0.0306   18.2550   46.1286 C   0  0  0  0  0  0  0  0  0  0  0  0
    1.8734   17.4073   42.1554 C   0  0  0  0  0  0  0  0  0  0  0  0
   -0.7772   20.2583   44.9161 N   0  0  0  0  0  0  0  0  0  0  0  0
    2.0088   22.2136   41.2531 H   0  0  0  0  0  0  0  0  0  0  0  0
    2.7381   22.1311   39.6895 H   0  0  0  0  0  0  0  0  0  0  0  0
   -1.2355   22.0510   44.0482 H   0  0  0  0  0  0  0  0  0  0  0  0
    5.1853   23.6533   39.5039 H   0  0  0  0  0  0  0  0  0  0  0  0
   -1.5118   17.4479   47.3710 H   0  0  0  0  0  0  0  0  0  0  0  0
   -2.0433   17.9260   45.7231 H   0  0  0  0  0  0  0  0  0  0  0  0
   -1.0738   16.4318   45.9560 H   0  0  0  0  0  0  0  0  0  0  0  0
    1.4165   15.6479   46.1495 H   0  0  0  0  0  0  0  0  0  0  0  0
   -0.0906   15.1721   45.2681 H   0  0  0  0  0  0  0  0  0  0  0  0
    4.3326   21.1617   38.5412 H   0  0  0  0  0  0  0  0  0  0  0  0
    4.7293   22.2077   41.7731 H   0  0  0  0  0  0  0  0  0  0  0  0
    0.1567   21.8332   42.1720 H   0  0  0  0  0  0  0  0  0  0  0  0
    4.3169   13.1850   43.3469 H   0  0  0  0  0  0  0  0  0  0  0  0
    3.0207   12.7589   42.1786 H   0  0  0  0  0  0  0  0  0  0  0  0
    3.9565   14.2775   41.9673 H   0  0  0  0  0  0  0  0  0  0  0  0
    6.5052   20.4755   40.2668 H   0  0  0  0  0  0  0  0  0  0  0  0
    7.0125   21.9580   40.3030 H   0  0  0  0  0  0  0  0  0  0  0  0
    2.2009   17.9652   43.8025 H   0  0  0  0  0  0  0  0  0  0  0  0
    2.3139   18.0239   40.3037 H   0  0  0  0  0  0  0  0  0  0  0  0
    0.8840   17.5655   46.0484 H   0  0  0  0  0  0  0  0  0  0  0  0
    0.1652   18.9176   46.9962 H   0  0  0  0  0  0  0  0  0  0  0  0
  1 16  1  0
  2 12  2  0
  2 14  1  0
  3 27  2  0
  7 27  1  0
  7 25  1  0
  8  4  1  0
  8 17  1  0
  8 11  1  0
  9 19  2  0
 10  2  1  0
 11 16  1  0
 12  3  1  0
 13 22  1  0
 14  7  2  0
 15 22  1  0
 15 18  2  0
 17 11  1  0
 18  6  1  0
 19  1  1  0
 19 10  1  0
 20  6  1  0
 21 26  2  0
 21 15  1  0
 22 20  1  0
 23 26  1  0
 23 14  1  0
 23 18  1  0
 24 10  1  0
 24 26  1  0
 25  5  1  0
  1 28  1  0
  1 29  1  0
  3 30  1  0
  4 31  1  0
  5 32  1  0
  5 33  1  0
  5 34  1  0
  6 35  1  0
  6 36  1  0
  8 37  1  6
 11 38  1  1
 12 39  1  0
 13 40  1  0
 13 41  1  0
 13 42  1  0
 17 43  1  0
 17 44  1  0
 23 45  1  1
 24 46  1  0
 25 47  1  0
 25 48  1  0
M  END
>  <mol_id>  (6) 
2026-09-18-6fnk-s0-n100-refligand-0006

>  <rmsd_to_ref>  (6) 


$$$$

     RDKit          3D

 38 42  0  0  0  0  0  0  0  0999 V2000
    0.5593   19.9514   42.8553 C   0  0  1  0  0  0  0  0  0  0  0  0
   -0.5060   16.3505   45.5632 C   0  0  0  0  0  0  0  0  0  0  0  0
    3.5992   20.4800   41.6029 C   0  0  0  0  0  0  0  0  0  0  0  0
    0.6234   17.5889   43.9333 C   0  0  1  0  0  0  0  0  0  0  0  0
    1.8250   15.9507   42.7595 N   0  0  0  0  0  0  0  0  0  0  0  0
   -0.4726   21.0327   44.6042 O   0  0  0  0  0  0  0  0  0  0  0  0
    0.5201   19.0263   43.6230 C   0  0  2  0  0  0  0  0  0  0  0  0
    2.4855   19.8139   41.1211 C   0  0  0  0  0  0  0  0  0  0  0  0
    0.3710   16.3836   44.6280 C   0  0  2  0  0  0  0  0  0  0  0  0
   -0.0750   18.6544   44.8589 C   0  0  1  0  0  0  0  0  0  0  0  0
    3.3743   20.9061   40.2903 C   0  0  0  0  0  0  0  0  0  0  0  0
    1.1705   20.1280   41.4094 C   0  0  0  0  0  0  0  0  0  0  0  0
   -0.7682   17.7029   45.8336 C   0  0  0  0  0  0  0  0  0  0  0  0
   -0.4291   20.0640   45.3902 C   0  0  0  0  0  0  0  0  0  0  0  0
    1.1238   14.0459   44.4093 N   0  0  0  0  0  0  0  0  0  0  0  0
    1.1209   15.2925   43.8374 C   0  0  0  0  0  0  0  0  0  0  0  0
    1.5712   17.2248   42.9555 N   0  0  0  0  0  0  0  0  0  0  0  0
   -0.2012   22.0693   42.6643 O   0  0  0  0  0  0  0  0  0  0  0  0
   -0.0040   21.0855   43.3565 C   0  0  0  0  0  0  0  0  0  0  0  0
    1.5253   20.2354   43.2982 H   0  0  0  0  0  0  0  0  0  0  0  0
   -0.1075   15.8440   46.4546 H   0  0  0  0  0  0  0  0  0  0  0  0
   -1.4101   15.7942   45.2751 H   0  0  0  0  0  0  0  0  0  0  0  0
    3.4512   21.2097   42.4126 H   0  0  0  0  0  0  0  0  0  0  0  0
    4.5137   20.0751   42.0609 H   0  0  0  0  0  0  0  0  0  0  0  0
    1.0052   19.7438   42.9449 H   0  0  0  0  0  0  0  0  0  0  0  0
    2.1809   18.7575   41.0838 H   0  0  0  0  0  0  0  0  0  0  0  0
    0.4406   15.9468   45.6352 H   0  0  0  0  0  0  0  0  0  0  0  0
    4.0374   20.5917   39.4708 H   0  0  0  0  0  0  0  0  0  0  0  0
    3.2083   21.8558   39.7606 H   0  0  0  0  0  0  0  0  0  0  0  0
    0.5538   19.5119   40.7384 H   0  0  0  0  0  0  0  0  0  0  0  0
    1.1660   21.2216   41.2916 H   0  0  0  0  0  0  0  0  0  0  0  0
   -1.8539   17.8681   45.7718 H   0  0  0  0  0  0  0  0  0  0  0  0
   -0.3752   17.9187   46.8381 H   0  0  0  0  0  0  0  0  0  0  0  0
    0.3182   20.3112   46.1586 H   0  0  0  0  0  0  0  0  0  0  0  0
   -1.4735   19.9565   45.7186 H   0  0  0  0  0  0  0  0  0  0  0  0
    0.4938   13.8394   45.1975 H   0  0  0  0  0  0  0  0  0  0  0  0
    1.7561   13.3162   44.0505 H   0  0  0  0  0  0  0  0  0  0  0  0
    2.0570   17.9461   42.4035 H   0  0  0  0  0  0  0  0  0  0  0  0
  1 12  1  0
  1 19  1  0
  1  7  1  0
  2 13  1  0
  4 17  1  1
  4  9  1  0
  4 10  1  0
  5 17  1  0
  5 16  2  0
  6 14  1  0
  7  4  1  0
  7 10  1  0
  8 12  1  0
  8  3  1  0
  9  2  1  0
 10 14  1  1
 10 13  1  0
 11  8  1  0
 11  3  1  0
 16 15  1  0
 16  9  1  0
 18 19  2  0
 19  6  1  0
  1 20  1  1
  2 21  1  0
  2 22  1  0
  3 23  1  0
  3 24  1  0
  7 25  1  1
  8 26  1  0
  9 27  1  1
 11 28  1  0
 11 29  1  0
 12 30  1  0
 12 31  1  0
 13 32  1  0
 13 33  1  0
 14 34  1  0
 14 35  1  0
 15 36  1  0
 15 37  1  0
 17 38  1  0
M  END
>  <mol_id>  (7) 
2026-09-18-6fnk-s0-n100-refligand-0007

>  <rmsd_to_ref>  (7) 


$$$$

     RDKit          3D

 39 42  0  0  0  0  0  0  0  0999 V2000
    2.0611   21.1500   39.1934 C   0  0  0  0  0  0  0  0  0  0  0  0
   -0.1301   20.8928   44.3365 C   0  0  0  0  0  0  0  0  0  0  0  0
    2.5567   19.9415   39.0130 C   0  0  0  0  0  0  0  0  0  0  0  0
    2.1556   18.3946   42.2980 N   0  0  0  0  0  0  0  0  0  0  0  0
    2.4568   18.9991   39.9220 C   0  0  0  0  0  0  0  0  0  0  0  0
    2.5142   19.3828   41.3037 C   0  0  1  0  0  0  0  0  0  0  0  0
   -0.1858   16.5288   45.4861 C   0  0  0  0  0  0  0  0  0  0  0  0
    1.6332   20.5628   41.4320 C   0  0  1  0  0  0  0  0  0  0  0  0
   -0.4959   20.5871   45.6474 N   0  0  0  0  0  0  0  0  0  0  0  0
   -0.0248   21.4456   42.6658 N   0  0  0  0  0  0  0  0  0  0  0  0
    0.6584   19.7264   43.6023 C   0  0  1  0  0  0  0  0  0  0  0  0
    0.2771   18.6156   44.5602 C   0  0  0  0  0  0  0  0  0  0  0  0
    0.3950   17.3048   44.4533 C   0  0  0  0  0  0  0  0  0  0  0  0
    1.5341   21.5173   40.4380 C   0  0  0  0  0  0  0  0  0  0  0  0
   -0.1865   19.2124   45.7041 C   0  0  0  0  0  0  0  0  0  0  0  0
   -0.5428   21.4600   43.5001 N   0  0  0  0  0  0  0  0  0  0  0  0
    3.9535   19.9084   41.5602 C   0  0  0  0  0  0  0  0  0  0  0  0
   -0.7550   18.6375   46.7391 C   0  0  0  0  0  0  0  0  0  0  0  0
   -0.7294   17.1600   46.6338 C   0  0  0  0  0  0  0  0  0  0  0  0
    0.7674   20.5677   42.4655 C   0  0  0  0  0  0  0  0  0  0  0  0
    2.0616   21.8721   38.3636 H   0  0  0  0  0  0  0  0  0  0  0  0
    3.0720   19.7148   38.0680 H   0  0  0  0  0  0  0  0  0  0  0  0
    2.3662   18.7606   43.2374 H   0  0  0  0  0  0  0  0  0  0  0  0
    1.1492   18.1867   42.2281 H   0  0  0  0  0  0  0  0  0  0  0  0
    2.6961   17.5328   42.1361 H   0  0  0  0  0  0  0  0  0  0  0  0
    1.4930   18.4933   39.7634 H   0  0  0  0  0  0  0  0  0  0  0  0
    3.3534   18.3795   39.7730 H   0  0  0  0  0  0  0  0  0  0  0  0
   -0.2153   15.4328   45.3977 H   0  0  0  0  0  0  0  0  0  0  0  0
    2.4336   21.2675   41.7018 H   0  0  0  0  0  0  0  0  0  0  0  0
    1.4409   19.0329   43.2606 H   0  0  0  0  0  0  0  0  0  0  0  0
    0.9179   16.8391   43.6050 H   0  0  0  0  0  0  0  0  0  0  0  0
    2.0662   22.4177   40.7787 H   0  0  0  0  0  0  0  0  0  0  0  0
    0.4573   21.6726   40.2755 H   0  0  0  0  0  0  0  0  0  0  0  0
   -1.4271   21.9818   43.5814 H   0  0  0  0  0  0  0  0  0  0  0  0
    4.1255   19.9923   42.6435 H   0  0  0  0  0  0  0  0  0  0  0  0
    4.6824   19.2080   41.1263 H   0  0  0  0  0  0  0  0  0  0  0  0
    4.0716   20.8970   41.0925 H   0  0  0  0  0  0  0  0  0  0  0  0
   -1.1971   19.1873   47.5831 H   0  0  0  0  0  0  0  0  0  0  0  0
   -1.1354   16.5477   47.4524 H   0  0  0  0  0  0  0  0  0  0  0  0
  1 14  1  0
  2  9  2  0
  3  1  2  0
  3  5  1  0
  5  6  1  0
  6  8  1  0
  6 17  1  1
  6  4  1  0
  7 19  2  0
  8 20  1  0
  9 15  1  0
 10 16  1  0
 11 20  1  0
 11  2  1  0
 11 12  1  0
 12 15  1  0
 13 12  2  0
 13  7  1  0
 14  8  1  0
 15 18  2  0
 16  2  1  0
 19 18  1  0
 20 10  2  0
  1 21  1  0
  3 22  1  0
  4 23  1  0
  4 24  1  0
  4 25  1  0
  5 26  1  0
  5 27  1  0
  7 28  1  0
  8 29  1  1
 11 30  1  1
 13 31  1  0
 14 32  1  0
 14 33  1  0
 16 34  1  0
 17 35  1  0
 17 36  1  0
 17 37  1  0
 18 38  1  0
 19 39  1  0
M  CHG  1   4   1
M  END
>  <mol_id>  (8) 
2026-09-18-6fnk-s0-n100-refligand-0008

>  <rmsd_to_ref>  (8) 


$$$$

     RDKit          3D

 33 33  0  0  0  0  0  0  0  0999 V2000
   -0.6129   15.9553   45.1968 C   0  0  0  0  0  0  0  0  0  0  0  0
   -0.8957   20.0127   45.8405 O   0  0  0  0  0  0  0  0  0  0  0  0
    1.6155   20.3928   41.7670 O   0  0  0  0  0  0  0  0  0  0  0  0
   -1.4321   16.5069   46.1743 C   0  0  0  0  0  0  0  0  0  0  0  0
    0.7972   18.7970   43.7924 C   0  0  0  0  0  0  0  0  0  0  0  0
    1.5519   18.2736   42.9427 C   0  0  0  0  0  0  0  0  0  0  0  0
    2.3318   20.2313   42.7498 C   0  0  0  0  0  0  0  0  0  0  0  0
    1.0725   15.9941   43.4594 C   0  0  0  0  0  0  0  0  0  0  0  0
    3.5912   21.1280   42.2724 C   0  0  0  0  0  0  0  0  0  0  0  0
    2.4543   18.4969   42.3810 O   0  0  0  0  0  0  0  0  0  0  0  0
    3.7145   21.5378   40.9561 O   0  0  0  0  0  0  0  0  0  0  0  0
    0.0324   18.0400   44.6125 C   0  0  0  0  0  0  0  0  0  0  0  0
    1.7272   17.0485   42.9260 C   0  0  0  0  0  0  0  0  0  0  0  0
   -1.5061   17.8465   46.4015 C   0  0  0  0  0  0  0  0  0  0  0  0
    0.0840   16.7534   44.3840 C   0  0  0  0  0  0  0  0  0  0  0  0
   -0.8058   18.6546   45.6944 C   0  0  0  0  0  0  0  0  0  0  0  0
    2.6121   16.5934   41.5716 C   0  0  0  0  0  0  0  0  0  0  0  0
   -0.5385   14.8628   45.0927 H   0  0  0  0  0  0  0  0  0  0  0  0
   -1.4548   20.3971   46.5614 H   0  0  0  0  0  0  0  0  0  0  0  0
    0.6651   20.3603   42.0423 H   0  0  0  0  0  0  0  0  0  0  0  0
   -2.0460   15.8329   46.7897 H   0  0  0  0  0  0  0  0  0  0  0  0
    0.1072   19.4490   43.2367 H   0  0  0  0  0  0  0  0  0  0  0  0
    1.5089   19.2620   44.4905 H   0  0  0  0  0  0  0  0  0  0  0  0
    1.8695   20.6207   43.6689 H   0  0  0  0  0  0  0  0  0  0  0  0
    2.5584   19.1873   43.0116 H   0  0  0  0  0  0  0  0  0  0  0  0
    1.2018   14.9152   43.2886 H   0  0  0  0  0  0  0  0  0  0  0  0
    3.5749   22.0418   42.8845 H   0  0  0  0  0  0  0  0  0  0  0  0
    4.4396   20.4381   42.3922 H   0  0  0  0  0  0  0  0  0  0  0  0
    3.6425   22.5240   40.9093 H   0  0  0  0  0  0  0  0  0  0  0  0
   -2.1660   18.2354   47.1909 H   0  0  0  0  0  0  0  0  0  0  0  0
    3.3654   15.8456   41.8601 H   0  0  0  0  0  0  0  0  0  0  0  0
    1.9354   16.1611   40.8197 H   0  0  0  0  0  0  0  0  0  0  0  0
    3.1145   17.4757   41.1484 H   0  0  0  0  0  0  0  0  0  0  0  0
  1  4  1  0
  2 16  1  0
  3  7  1  0
  4 14  2  0
  5 12  1  0
  6 13  1  0
  6  5  1  0
  8 15  1  0
  9  7  1  0
 10  6  2  0
 11  9  1  0
 12 16  2  0
 13  8  2  0
 15 12  1  0
 15  1  2  0
 16 14  1  0
 17 13  1  0
  1 18  1  0
  2 19  1  0
  3 20  1  0
  4 21  1  0
  5 22  1  0
  5 23  1  0
  7 24  1  0
  7 25  1  0
  8 26  1  0
  9 27  1  0
  9 28  1  0
 11 29  1  0
 14 30  1  0
 17 31  1  0
 17 32  1  0
 17 33  1  0
M  END
>  <mol_id>  (9) 
2026-09-18-6fnk-s0-n100-refligand-0009

>  <rmsd_to_ref>  (9) 


$$$$

     RDKit          3D

 19 20  0  0  0  0  0  0  0  0999 V2000
   -1.4105   19.4700   45.3868 C   0  0  0  0  0  0  0  0  0  0  0  0
    0.9772   17.4021   43.4438 C   0  0  0  0  0  0  0  0  0  0  0  0
    3.0589   21.0313   43.0093 N   0  0  0  0  0  0  0  0  0  0  0  0
    0.4503   18.6230   44.1177 C   0  0  0  0  0  0  0  0  0  0  0  0
    1.0677   19.7906   43.9737 C   0  0  0  0  0  0  0  0  0  0  0  0
    0.3331   20.7393   44.5150 C   0  0  0  0  0  0  0  0  0  0  0  0
    3.0131   18.6000   42.9210 C   0  0  0  0  0  0  0  0  0  0  0  0
    2.3454   19.8573   43.3032 C   0  0  0  0  0  0  0  0  0  0  0  0
   -0.8690   20.6489   45.1792 N   0  0  0  0  0  0  0  0  0  0  0  0
    2.2735   17.4672   42.9201 C   0  0  0  0  0  0  0  0  0  0  0  0
   -0.7804   18.4039   44.8388 C   0  0  0  0  0  0  0  0  0  0  0  0
   -2.3313   19.3545   45.9774 H   0  0  0  0  0  0  0  0  0  0  0  0
    0.3718   16.4874   43.3615 H   0  0  0  0  0  0  0  0  0  0  0  0
    2.6584   21.9503   43.2461 H   0  0  0  0  0  0  0  0  0  0  0  0
    3.9825   20.9732   42.5570 H   0  0  0  0  0  0  0  0  0  0  0  0
    0.7411   21.7566   44.4227 H   0  0  0  0  0  0  0  0  0  0  0  0
    4.0779   18.5833   42.6454 H   0  0  0  0  0  0  0  0  0  0  0  0
    2.7111   16.5552   42.4879 H   0  0  0  0  0  0  0  0  0  0  0  0
   -1.1982   17.3915   44.9413 H   0  0  0  0  0  0  0  0  0  0  0  0
  2  4  1  0
  3  8  1  0
  4 11  2  0
  5  6  2  0
  5  4  1  0
  6  9  1  0
  7  8  2  0
  7 10  1  0
  8  5  1  0
  9  1  2  0
 10  2  2  0
 11  1  1  0
  1 12  1  0
  2 13  1  0
  3 14  1  0
  3 15  1  0
  6 16  1  0
  7 17  1  0
 10 18  1  0
 11 19  1  0
M  END
>  <mol_id>  (10) 
2026-09-18-6fnk-s0-n100-refligand-0010

>  <rmsd_to_ref>  (10) 


$$$$

     RDKit          3D

 34 34  0  0  0  0  0  0  0  0999 V2000
    0.2500   19.7053   43.8050 C   0  0  0  0  0  0  0  0  0  0  0  0
   -0.2691   20.7027   44.3058 O   0  0  0  0  0  0  0  0  0  0  0  0
    2.8355   15.6938   41.4457 Cl  0  0  0  0  0  0  0  0  0  0  0  0
   -0.7747   16.5701   45.2855 N   0  0  0  0  0  0  0  0  0  0  0  0
   -1.1994   15.6634   46.2038 C   0  0  0  0  0  0  0  0  0  0  0  0
    2.8182   21.1082   42.7518 N   0  0  0  0  0  0  0  0  0  0  0  0
   -1.4558   18.4328   46.5604 C   0  0  0  0  0  0  0  0  0  0  0  0
    2.3867   19.5461   40.7710 C   0  0  0  0  0  0  0  0  0  0  0  0
   -0.4995   18.7037   44.3439 N   0  0  0  0  0  0  0  0  0  0  0  0
   -1.8585   16.1952   47.3474 C   0  0  0  0  0  0  0  0  0  0  0  0
    2.0349   20.1231   41.9605 C   0  0  0  0  0  0  0  0  0  0  0  0
   -1.9324   17.5542   47.4923 C   0  0  0  0  0  0  0  0  0  0  0  0
    1.5303   17.8660   42.6423 C   0  0  0  0  0  0  0  0  0  0  0  0
    2.2380   20.6071   40.5914 N   0  0  0  0  0  0  0  0  0  0  0  0
   -0.8761   17.8899   45.4013 C   0  0  0  0  0  0  0  0  0  0  0  0
    1.2973   19.2594   42.7754 C   0  0  1  0  0  0  0  0  0  0  0  0
    2.2590   17.4329   41.5455 C   0  0  0  0  0  0  0  0  0  0  0  0
    2.5691   18.2071   40.4942 C   0  0  0  0  0  0  0  0  0  0  0  0
   -1.0431   14.5826   46.0712 H   0  0  0  0  0  0  0  0  0  0  0  0
    2.7075   21.2156   43.7702 H   0  0  0  0  0  0  0  0  0  0  0  0
    2.8272   22.0374   42.3076 H   0  0  0  0  0  0  0  0  0  0  0  0
    3.7048   20.6235   42.5522 H   0  0  0  0  0  0  0  0  0  0  0  0
    2.0333   20.5562   42.3775 H   0  0  0  0  0  0  0  0  0  0  0  0
   -1.5232   19.5203   46.7115 H   0  0  0  0  0  0  0  0  0  0  0  0
   -1.0924   18.3881   43.5630 H   0  0  0  0  0  0  0  0  0  0  0  0
   -2.3004   15.5266   48.1008 H   0  0  0  0  0  0  0  0  0  0  0  0
    2.9505   20.4167   42.4948 H   0  0  0  0  0  0  0  0  0  0  0  0
    1.4017   20.9940   41.7358 H   0  0  0  0  0  0  0  0  0  0  0  0
   -2.3979   17.9588   48.4031 H   0  0  0  0  0  0  0  0  0  0  0  0
    1.1451   17.1526   43.3856 H   0  0  0  0  0  0  0  0  0  0  0  0
    2.3693   20.9926   39.6453 H   0  0  0  0  0  0  0  0  0  0  0  0
    0.5139   19.2020   42.0054 H   0  0  0  0  0  0  0  0  0  0  0  0
    1.9271   17.9286   39.6455 H   0  0  0  0  0  0  0  0  0  0  0  0
    3.6314   18.0495   40.2558 H   0  0  0  0  0  0  0  0  0  0  0  0
  1  9  1  0
  1  2  2  0
  3 17  1  0
  4 15  1  0
  4  5  2  0
  5 10  1  0
  7 12  1  0
  8 11  1  0
  9 15  1  0
 10 12  2  0
 11 16  1  0
 13 16  1  0
 14  8  2  3
 15  7  2  0
 16  1  1  0
 17 13  2  0
 18  8  1  0
 18 17  1  0
  5 19  1  0
  6 20  1  0
  6 21  1  0
  6 22  1  0
  6 23  1  0
  7 24  1  0
  9 25  1  0
 10 26  1  0
 11 27  1  0
 11 28  1  0
 12 29  1  0
 13 30  1  0
 14 31  1  0
 16 32  1  6
 18 33  1  0
 18 34  1  0
M  CHG  1   6   1
M  END
>  <mol_id>  (11) 
2026-09-18-6fnk-s0-n100-refligand-0011

>  <rmsd_to_ref>  (11) 


$$$$

     RDKit          3D

 17 18  0  0  0  0  0  0  0  0999 V2000
    1.8685   18.1868   42.8033 C   0  0  0  0  0  0  0  0  0  0  0  0
    0.4204   19.8751   43.7707 C   0  0  0  0  0  0  0  0  0  0  0  0
    0.2589   17.5085   44.4490 C   0  0  0  0  0  0  0  0  0  0  0  0
    2.3506   16.9234   42.7615 O   0  0  0  0  0  0  0  0  0  0  0  0
   -0.9354   19.2945   45.5560 C   0  0  0  0  0  0  0  0  0  0  0  0
   -0.6168   17.8895   45.4215 C   0  0  0  0  0  0  0  0  0  0  0  0
   -0.4252   20.2503   44.7349 N   0  0  0  0  0  0  0  0  0  0  0  0
    1.7992   20.4272   42.0046 C   0  0  0  0  0  0  0  0  0  0  0  0
    0.8311   18.5031   43.7042 C   0  0  0  0  0  0  0  0  0  0  0  0
    0.9377   20.7708   42.9518 N   0  0  0  0  0  0  0  0  0  0  0  0
    2.3185   19.1652   41.9494 C   0  0  0  0  0  0  0  0  0  0  0  0
    0.4950   16.4490   44.2711 H   0  0  0  0  0  0  0  0  0  0  0  0
    3.0789   16.6921   42.1322 H   0  0  0  0  0  0  0  0  0  0  0  0
   -1.6214   19.6032   46.3587 H   0  0  0  0  0  0  0  0  0  0  0  0
   -1.0720   17.1442   46.0902 H   0  0  0  0  0  0  0  0  0  0  0  0
    2.1005   21.1700   41.2514 H   0  0  0  0  0  0  0  0  0  0  0  0
    3.1034   18.9300   41.2154 H   0  0  0  0  0  0  0  0  0  0  0  0
  1  9  2  0
  2  7  1  0
  3  6  2  0
  4  1  1  0
  6  5  1  0
  7  5  2  0
  8 10  1  0
  9  3  1  0
  9  2  1  0
 10  2  2  0
 11  8  2  0
 11  1  1  0
  3 12  1  0
  4 13  1  0
  5 14  1  0
  6 15  1  0
  8 16  1  0
 11 17  1  0
M  END
>  <mol_id>  (12) 
2026-09-18-6fnk-s0-n100-refligand-0013

>  <rmsd_to_ref>  (12) 


$$$$

     RDKit          3D

 32 33  0  0  0  0  0  0  0  0999 V2000
    2.5960   17.9130   40.6170 N   0  0  0  0  0  0  0  0  0  0  0  0
    1.1850   16.1250   40.0890 N   0  0  0  0  0  0  0  0  0  0  0  0
   -0.0240   21.5350   42.8040 C   0  0  0  0  0  0  0  0  0  0  0  0
    0.2320   16.6330   44.1650 C   0  0  0  0  0  0  0  0  0  0  0  0
    2.5310   19.9560   41.6200 O   0  0  0  0  0  0  0  0  0  0  0  0
   -0.9560   17.4430   46.1330 C   0  0  0  0  0  0  0  0  0  0  0  0
    1.9400   18.7510   41.4560 C   0  0  2  0  0  0  0  0  0  0  0  0
   -0.2660   17.6720   44.9190 C   0  0  1  0  0  0  0  0  0  0  0  0
    0.8640   20.5560   43.1830 O   0  0  0  0  0  0  0  0  0  0  0  0
    2.2540   16.6980   39.9570 C   0  0  0  0  0  0  0  0  0  0  0  0
    1.1630   18.2200   42.6290 C   0  0  0  0  0  0  0  0  0  0  0  0
    0.5670   19.2160   43.3500 C   0  0  0  0  0  0  0  0  0  0  0  0
    3.3350   16.1660   39.3090 N   0  0  0  0  0  0  0  0  0  0  0  0
   -0.8020   19.9110   44.9610 O   0  0  0  0  0  0  0  0  0  0  0  0
    0.9870   16.9520   43.0170 C   0  0  0  0  0  0  0  0  0  0  0  0
    1.4170   19.8860   41.0090 C   0  0  0  0  0  0  0  0  0  0  0  0
   -0.1430   18.9860   44.4550 C   0  0  0  0  0  0  0  0  0  0  0  0
    1.0045   15.2479   39.5801 H   0  0  0  0  0  0  0  0  0  0  0  0
    0.4630   16.5184   40.7093 H   0  0  0  0  0  0  0  0  0  0  0  0
   -0.4529   22.0078   43.6999 H   0  0  0  0  0  0  0  0  0  0  0  0
    0.5005   22.2936   42.2045 H   0  0  0  0  0  0  0  0  0  0  0  0
   -0.8300   21.0868   42.2045 H   0  0  0  0  0  0  0  0  0  0  0  0
    0.0468   15.5866   44.4491 H   0  0  0  0  0  0  0  0  0  0  0  0
   -0.2903   17.6639   46.9804 H   0  0  0  0  0  0  0  0  0  0  0  0
   -1.8399   18.0960   46.1812 H   0  0  0  0  0  0  0  0  0  0  0  0
   -1.2741   16.3911   46.1812 H   0  0  0  0  0  0  0  0  0  0  0  0
   -1.2165   17.6161   44.3682 H   0  0  0  0  0  0  0  0  0  0  0  0
    4.2084   16.7068   39.2348 H   0  0  0  0  0  0  0  0  0  0  0  0
    3.2755   15.2246   38.8953 H   0  0  0  0  0  0  0  0  0  0  0  0
    1.4406   16.1410   42.4284 H   0  0  0  0  0  0  0  0  0  0  0  0
    1.3791   20.0766   39.9263 H   0  0  0  0  0  0  0  0  0  0  0  0
    0.4432   20.3803   41.1409 H   0  0  0  0  0  0  0  0  0  0  0  0
  3  9  1  0
  4  8  1  0
  7  1  1  0
  7  5  1  0
  7 11  1  1
  8  6  1  0
  9 12  1  0
 10  2  1  0
 10  1  2  3
 11 15  1  0
 11 12  2  0
 12 17  1  0
 13 10  1  0
 15  4  2  0
 16  7  1  0
 16  5  1  0
 17  8  1  0
 17 14  2  0
  2 18  1  0
  2 19  1  0
  3 20  1  0
  3 21  1  0
  3 22  1  0
  4 23  1  0
  6 24  1  0
  6 25  1  0
  6 26  1  0
  8 27  1  6
 13 28  1  0
 13 29  1  0
 15 30  1  0
 16 31  1  0
 16 32  1  0
M  END
>  <mol_id>  (13) 
2026-09-18-6fnk-s0-n100-refligand-0014

>  <rmsd_to_ref>  (13) 


$$$$

     RDKit          3D

 45 48  0  0  0  0  0  0  0  0999 V2000
   -1.2106   20.6275   44.3856 O   0  0  0  0  0  0  0  0  0  0  0  0
    1.8315   17.4196   42.2227 C   0  0  0  0  0  0  0  0  0  0  0  0
   -0.3926   20.3003   43.3887 C   0  0  0  0  0  0  0  0  0  0  0  0
   -0.9920   17.6861   46.4097 C   0  0  0  0  0  0  0  0  0  0  0  0
    3.2192   20.8172   38.9305 C   0  0  0  0  0  0  0  0  0  0  0  0
    2.1062   18.6638   39.7374 C   0  0  0  0  0  0  0  0  0  0  0  0
    1.1466   18.6942   42.2366 C   0  0  0  0  0  0  0  0  0  0  0  0
    0.7595   16.9862   44.3988 C   0  0  0  0  0  0  0  0  0  0  0  0
    1.6502   19.5950   41.1135 N   0  0  0  0  0  0  0  0  0  0  0  0
    0.3953   19.0639   43.2950 C   0  0  0  0  0  0  0  0  0  0  0  0
    0.4518   16.0391   45.3549 N   0  0  0  0  0  0  0  0  0  0  0  0
    0.1336   18.1959   44.4296 C   0  0  0  0  0  0  0  0  0  0  0  0
    2.3864   15.2274   43.3917 C   0  0  0  0  0  0  0  0  0  0  0  0
    1.6290   16.5963   43.3182 C   0  0  0  0  0  0  0  0  0  0  0  0
   -0.2794   21.3833   42.4826 C   0  0  0  0  0  0  0  0  0  0  0  0
    2.4238   19.5543   38.6162 C   0  0  0  0  0  0  0  0  0  0  0  0
    1.4434   20.8349   40.8995 C   0  0  0  0  0  0  0  0  0  0  0  0
   -0.3843   16.4005   46.3726 C   0  0  0  0  0  0  0  0  0  0  0  0
    0.3238   21.4167   41.3764 C   0  0  0  0  0  0  0  0  0  0  0  0
   -0.7358   15.4368   47.5047 C   0  0  0  0  0  0  0  0  0  0  0  0
   -0.8065   18.5826   45.4246 N   0  0  0  0  0  0  0  0  0  0  0  0
    2.3272   21.5197   39.9561 C   0  0  0  0  0  0  0  0  0  0  0  0
   -0.6685   14.0197   47.0894 C   0  0  0  0  0  0  0  0  0  0  0  0
   -1.8972   18.0186   47.4314 O   0  0  0  0  0  0  0  0  0  0  0  0
   -1.7019   21.4866   44.3611 H   0  0  0  0  0  0  0  0  0  0  0  0
    2.4793   17.1200   41.3858 H   0  0  0  0  0  0  0  0  0  0  0  0
    3.3554   21.4359   38.0313 H   0  0  0  0  0  0  0  0  0  0  0  0
    4.2367   20.6163   39.2971 H   0  0  0  0  0  0  0  0  0  0  0  0
    2.9904   18.0576   39.9837 H   0  0  0  0  0  0  0  0  0  0  0  0
    1.2722   18.0055   39.4525 H   0  0  0  0  0  0  0  0  0  0  0  0
    2.6109   14.9885   44.4417 H   0  0  0  0  0  0  0  0  0  0  0  0
    1.7550   14.4356   42.9624 H   0  0  0  0  0  0  0  0  0  0  0  0
    3.3252   15.2968   42.8226 H   0  0  0  0  0  0  0  0  0  0  0  0
   -0.7824   22.3144   42.7829 H   0  0  0  0  0  0  0  0  0  0  0  0
    1.4718   19.8675   38.1630 H   0  0  0  0  0  0  0  0  0  0  0  0
    3.0805   18.9621   37.9621 H   0  0  0  0  0  0  0  0  0  0  0  0
   -0.1720   22.0627   40.6368 H   0  0  0  0  0  0  0  0  0  0  0  0
   -0.0295   15.5947   48.3331 H   0  0  0  0  0  0  0  0  0  0  0  0
   -1.7724   15.6450   47.8083 H   0  0  0  0  0  0  0  0  0  0  0  0
   -1.3076   19.4820   45.3930 H   0  0  0  0  0  0  0  0  0  0  0  0
    3.0080   22.1227   40.5747 H   0  0  0  0  0  0  0  0  0  0  0  0
    1.5871   21.9890   39.2912 H   0  0  0  0  0  0  0  0  0  0  0  0
   -0.6735   13.3757   47.9812 H   0  0  0  0  0  0  0  0  0  0  0  0
   -1.5380   13.7804   46.4596 H   0  0  0  0  0  0  0  0  0  0  0  0
    0.2560   13.8483   46.5186 H   0  0  0  0  0  0  0  0  0  0  0  0
  2  7  2  0
  2 14  1  0
  3  1  1  0
  4 24  2  0
  5 22  1  0
  6  9  1  0
  7 10  1  0
  8 12  1  0
  8 11  1  0
  9 17  1  0
  9  7  1  0
 10  3  1  0
 10 12  2  0
 11 18  2  0
 12 21  1  0
 13 14  1  0
 14  8  2  0
 15  3  2  0
 16  5  1  0
 16  6  1  0
 17 19  2  0
 18  4  1  0
 18 20  1  0
 19 15  1  0
 21  4  1  0
 22 17  1  0
 23 20  1  0
  1 25  1  0
  2 26  1  0
  5 27  1  0
  5 28  1  0
  6 29  1  0
  6 30  1  0
 13 31  1  0
 13 32  1  0
 13 33  1  0
 15 34  1  0
 16 35  1  0
 16 36  1  0
 19 37  1  0
 20 38  1  0
 20 39  1  0
 21 40  1  0
 22 41  1  0
 22 42  1  0
 23 43  1  0
 23 44  1  0
 23 45  1  0
M  END
>  <mol_id>  (14) 
2026-09-18-6fnk-s0-n100-refligand-0015

>  <rmsd_to_ref>  (14) 


$$$$

     RDKit          3D

 49 53  0  0  0  0  0  0  0  0999 V2000
   -0.5073   18.9810   45.3063 N   0  0  0  0  0  0  0  0  0  0  0  0
    4.0003   20.9400   40.0871 C   0  0  0  0  0  0  0  0  0  0  0  0
   -1.6242   17.0546   47.4002 S   0  0  0  0  0  0  0  0  0  0  0  0
   -0.2789   15.4939   46.0033 C   0  0  0  0  0  0  0  0  0  0  0  0
    2.7224   18.9080   40.1238 C   0  0  0  0  0  0  0  0  0  0  0  0
    2.3838   16.3500   40.4362 C   0  0  2  0  0  0  0  0  0  0  0  0
    1.4539   18.0312   42.2479 C   0  0  1  0  0  0  0  0  0  0  0  0
    1.3821   17.0124   43.1492 N   0  0  0  0  0  0  0  0  0  0  0  0
    1.9893   17.7787   40.9204 C   0  0  1  0  0  0  0  0  0  0  0  0
    3.4440   19.8171   38.0141 C   0  0  0  0  0  0  0  0  0  0  0  0
    0.2525   20.4437   41.9196 Cl  0  0  0  0  0  0  0  0  0  0  0  0
    0.3157   19.1863   43.0592 C   0  0  1  0  0  0  0  0  0  0  0  0
   -1.0519   20.7760   44.1838 O   0  0  0  0  0  0  0  0  0  0  0  0
   -0.6519   14.7150   47.0776 C   0  0  0  0  0  0  0  0  0  0  0  0
    0.7230   17.0732   44.2311 C   0  0  0  0  0  0  0  0  0  0  0  0
   -1.4142   15.4840   48.0494 C   0  0  0  0  0  0  0  0  0  0  0  0
    2.6072   14.4439   39.3365 N   0  0  0  0  0  0  0  0  0  0  0  0
   -0.5122   19.6862   44.2420 C   0  0  0  0  0  0  0  0  0  0  0  0
    3.0448   15.4279   41.2249 N   0  0  0  0  0  0  0  0  0  0  0  0
    3.3502   19.9504   40.8017 C   0  0  0  0  0  0  0  0  0  0  0  0
    2.4280   15.7575   39.1816 C   0  0  0  0  0  0  0  0  0  0  0  0
    2.7775   14.1996   40.5228 C   0  0  0  0  0  0  0  0  0  0  0  0
    2.7652   18.8234   38.8034 N   0  0  0  0  0  0  0  0  0  0  0  0
   -0.6213   16.7968   46.0778 C   0  0  0  0  0  0  0  0  0  0  0  0
    0.7793   15.5065   44.9010 C   0  0  0  0  0  0  0  0  0  0  0  0
    4.0409   20.8352   38.6876 C   0  0  0  0  0  0  0  0  0  0  0  0
   -0.0136   17.6200   45.1072 C   0  0  2  0  0  0  0  0  0  0  0  0
   -0.8218   19.3380   46.2198 H   0  0  0  0  0  0  0  0  0  0  0  0
    4.4739   21.7886   40.6026 H   0  0  0  0  0  0  0  0  0  0  0  0
    1.4814   16.9740   40.5148 H   0  0  0  0  0  0  0  0  0  0  0  0
    2.1913   18.7037   41.7853 H   0  0  0  0  0  0  0  0  0  0  0  0
    0.9276   17.8410   40.6393 H   0  0  0  0  0  0  0  0  0  0  0  0
    3.4779   19.7554   36.9163 H   0  0  0  0  0  0  0  0  0  0  0  0
    1.1666   19.6774   43.5539 H   0  0  0  0  0  0  0  0  0  0  0  0
   -0.4049   13.6486   47.1864 H   0  0  0  0  0  0  0  0  0  0  0  0
   -1.7861   15.1238   49.0199 H   0  0  0  0  0  0  0  0  0  0  0  0
    1.7755   13.9400   38.9968 H   0  0  0  0  0  0  0  0  0  0  0  0
    3.4315   14.1406   38.7984 H   0  0  0  0  0  0  0  0  0  0  0  0
    4.0550   15.6246   41.2664 H   0  0  0  0  0  0  0  0  0  0  0  0
    2.7389   15.4229   42.2085 H   0  0  0  0  0  0  0  0  0  0  0  0
    3.3290   19.9862   41.9009 H   0  0  0  0  0  0  0  0  0  0  0  0
    3.2622   16.1793   38.6019 H   0  0  0  0  0  0  0  0  0  0  0  0
    1.4877   15.9473   38.6433 H   0  0  0  0  0  0  0  0  0  0  0  0
    1.8726   13.7293   40.9353 H   0  0  0  0  0  0  0  0  0  0  0  0
    3.6291   13.5134   40.6406 H   0  0  0  0  0  0  0  0  0  0  0  0
    0.5451   14.7526   44.1350 H   0  0  0  0  0  0  0  0  0  0  0  0
    1.7787   15.2667   45.2928 H   0  0  0  0  0  0  0  0  0  0  0  0
    4.5764   21.6065   38.1146 H   0  0  0  0  0  0  0  0  0  0  0  0
    0.8767   17.8548   45.7091 H   0  0  0  0  0  0  0  0  0  0  0  0
  2 20  1  0
  3 16  1  0
  4 24  2  0
  4 14  1  0
  5 20  2  0
  6 19  1  0
  6  9  1  0
  7  9  1  0
  7  8  1  0
  7 12  1  0
  8 15  2  0
  9  5  1  0
 10 23  2  0
 10 26  1  0
 12 11  1  0
 12 18  1  0
 14 16  2  0
 15 25  1  0
 17 21  1  0
 17 22  1  0
 18 13  2  0
 18  1  1  0
 21  6  1  0
 22 19  1  0
 23  5  1  0
 24  3  1  0
 25  4  1  0
 26  2  2  0
 27 15  1  0
 27  1  1  0
 27 24  1  0
  1 28  1  0
  2 29  1  0
  6 30  1  1
  7 31  1  1
  9 32  1  6
 10 33  1  0
 12 34  1  6
 14 35  1  0
 16 36  1  0
 17 37  1  0
 17 38  1  0
 19 39  1  0
 19 40  1  0
 20 41  1  0
 21 42  1  0
 21 43  1  0
 22 44  1  0
 22 45  1  0
 25 46  1  0
 25 47  1  0
 26 48  1  0
 27 49  1  1
M  CHG  2  17   1  19   1
M  END
>  <mol_id>  (15) 
2026-09-18-6fnk-s0-n100-refligand-0016

>  <rmsd_to_ref>  (15) 


$$$$

     RDKit          3D

 11 10  0  0  0  0  0  0  0  0999 V2000
    0.7446   19.5606   42.7717 C   0  0  0  0  0  0  0  0  0  0  0  0
    4.2467   21.1481   41.5514 Cl  0  0  0  0  0  0  0  0  0  0  0  0
    2.1673   19.6573   42.5180 C   0  0  0  0  0  0  0  0  0  0  0  0
    0.2024   20.7816   43.8854 S   0  0  0  0  0  0  0  0  0  0  0  0
    3.2021   20.0510   42.1415 C   0  0  0  0  0  0  0  0  0  0  0  0
    0.0303   19.7052   45.4233 C   0  0  0  0  0  0  0  0  0  0  0  0
    0.5251   18.5696   43.1954 H   0  0  0  0  0  0  0  0  0  0  0  0
    0.2165   19.7089   41.8182 H   0  0  0  0  0  0  0  0  0  0  0  0
    0.0660   20.3400   46.3209 H   0  0  0  0  0  0  0  0  0  0  0  0
   -0.9301   19.1699   45.3905 H   0  0  0  0  0  0  0  0  0  0  0  0
    0.8547   18.9776   45.4557 H   0  0  0  0  0  0  0  0  0  0  0  0
  1  4  1  0
  2  5  1  0
  3  1  1  0
  4  6  1  0
  5  3  3  0
  1  7  1  0
  1  8  1  0
  6  9  1  0
  6 10  1  0
  6 11  1  0
M  END
>  <mol_id>  (16) 
2026-09-18-6fnk-s0-n100-refligand-0017

>  <rmsd_to_ref>  (16) 


$$$$

     RDKit          3D

 22 24  0  0  0  0  0  0  0  0999 V2000
   -0.2476   20.7240   44.8094 S   0  0  0  0  0  0  0  0  0  0  0  0
    0.7560   18.6315   43.1867 C   0  0  0  0  0  0  0  0  0  0  0  0
    1.7202   20.2372   41.2568 C   0  0  0  0  0  0  0  0  0  0  0  0
   -1.4222   19.0785   46.4959 O   0  0  0  0  0  0  0  0  0  0  0  0
    0.3364   17.7506   44.1256 C   0  0  0  0  0  0  0  0  0  0  0  0
    1.6103   18.8534   40.9634 C   0  0  0  0  0  0  0  0  0  0  0  0
    0.6657   16.3778   43.5646 C   0  0  0  0  0  0  0  0  0  0  0  0
    1.2954   16.6835   42.1249 C   0  0  0  0  0  0  0  0  0  0  0  0
    1.2740   18.0650   42.0857 C   0  0  0  0  0  0  0  0  0  0  0  0
   -0.1575   18.0204   45.2116 N   0  0  0  0  0  0  0  0  0  0  0  0
   -0.5265   19.2923   45.6273 C   0  0  0  0  0  0  0  0  0  0  0  0
    2.3612   21.2246   39.9869 Cl  0  0  0  0  0  0  0  0  0  0  0  0
    1.8224   18.1531   39.6049 C   0  0  0  0  0  0  0  0  0  0  0  0
    0.6351   20.0129   43.4282 C   0  0  0  0  0  0  0  0  0  0  0  0
    1.6563   15.7322   41.4489 O   0  0  0  0  0  0  0  0  0  0  0  0
    1.2569   20.7245   42.4325 C   0  0  0  0  0  0  0  0  0  0  0  0
    1.3926   15.8582   44.2061 H   0  0  0  0  0  0  0  0  0  0  0  0
   -0.2161   15.7226   43.5087 H   0  0  0  0  0  0  0  0  0  0  0  0
    2.2945   17.1729   39.7674 H   0  0  0  0  0  0  0  0  0  0  0  0
    0.8508   18.0143   39.1083 H   0  0  0  0  0  0  0  0  0  0  0  0
    2.4733   18.7728   38.9706 H   0  0  0  0  0  0  0  0  0  0  0  0
    1.3930   21.8019   42.6077 H   0  0  0  0  0  0  0  0  0  0  0  0
  1 11  1  0
  2 14  1  0
  2  5  1  0
  3 16  1  0
  5 10  2  0
  6  3  2  0
  6  9  1  0
  7  5  1  0
  8  9  1  0
  8  7  1  0
  9  2  2  0
 10 11  1  0
 11  4  2  0
 12  3  1  0
 13  6  1  0
 14  1  1  0
 15  8  2  0
 16 14  2  0
  7 17  1  0
  7 18  1  0
 13 19  1  0
 13 20  1  0
 13 21  1  0
 16 22  1  0
M  END
>  <mol_id>  (17) 
2026-09-18-6fnk-s0-n100-refligand-0018

>  <rmsd_to_ref>  (17) 


$$$$

     RDKit          3D

 36 39  0  0  0  0  0  0  0  0999 V2000
    1.4444   18.8798   42.6419 C   0  0  1  0  0  0  0  0  0  0  0  0
    0.7056   18.9583   43.8353 C   0  0  0  0  0  0  0  0  0  0  0  0
   -0.2968   17.3348   45.3564 C   0  0  0  0  0  0  0  0  0  0  0  0
    5.2822   21.7136   39.1110 C   0  0  0  0  0  0  0  0  0  0  0  0
    4.4705   20.9697   41.4425 C   0  0  0  0  0  0  0  0  0  0  0  0
    1.4415   17.4694   40.6721 O   0  0  0  0  0  0  0  0  0  0  0  0
   -1.3894   18.0572   47.4453 N   0  0  0  0  0  0  0  0  0  0  0  0
    0.8010   16.7593   43.1898 N   0  0  0  0  0  0  0  0  0  0  0  0
    2.4760   20.1551   40.7960 N   0  0  0  0  0  0  0  0  0  0  0  0
    5.9580   22.0665   40.2841 C   0  0  0  0  0  0  0  0  0  0  0  0
    2.4973   19.7822   41.9857 C   0  0  0  0  0  0  0  0  0  0  0  0
    3.6481   20.7543   40.4197 C   0  0  0  0  0  0  0  0  0  0  0  0
    1.3698   17.6421   42.0118 C   0  0  0  0  0  0  0  0  0  0  0  0
    3.8896   20.1815   42.8810 S   0  0  0  0  0  0  0  0  0  0  0  0
   -0.6524   19.6041   45.7506 N   0  0  0  0  0  0  0  0  0  0  0  0
    0.0435   19.7841   44.6267 C   0  0  0  0  0  0  0  0  0  0  0  0
    5.6409   21.6285   41.5379 C   0  0  0  0  0  0  0  0  0  0  0  0
    1.2655   14.8667   42.2907 C   0  0  0  0  0  0  0  0  0  0  0  0
    4.0930   21.1209   39.1696 C   0  0  0  0  0  0  0  0  0  0  0  0
   -0.7360   18.2908   46.2163 C   0  0  0  0  0  0  0  0  0  0  0  0
    0.5102   15.3096   43.5844 C   0  0  0  0  0  0  0  0  0  0  0  0
    0.3215   17.6905   44.2372 C   0  0  0  0  0  0  0  0  0  0  0  0
    1.0078   19.8811   42.7717 H   0  0  0  0  0  0  0  0  0  0  0  0
   -0.4530   16.2707   45.5870 H   0  0  0  0  0  0  0  0  0  0  0  0
    5.7378   21.9278   38.1329 H   0  0  0  0  0  0  0  0  0  0  0  0
   -1.6858   18.8516   48.0301 H   0  0  0  0  0  0  0  0  0  0  0  0
   -1.5698   17.0924   47.7574 H   0  0  0  0  0  0  0  0  0  0  0  0
    6.8133   22.7517   40.1887 H   0  0  0  0  0  0  0  0  0  0  0  0
    0.0719   20.8312   44.2909 H   0  0  0  0  0  0  0  0  0  0  0  0
    6.2305   21.7844   42.4533 H   0  0  0  0  0  0  0  0  0  0  0  0
    2.1601   14.2898   42.5679 H   0  0  0  0  0  0  0  0  0  0  0  0
    0.6023   14.2415   41.6748 H   0  0  0  0  0  0  0  0  0  0  0  0
    1.5658   15.7569   41.7185 H   0  0  0  0  0  0  0  0  0  0  0  0
    3.4954   20.9334   38.2654 H   0  0  0  0  0  0  0  0  0  0  0  0
    0.9839   14.9875   44.5235 H   0  0  0  0  0  0  0  0  0  0  0  0
   -0.5125   14.9662   43.7996 H   0  0  0  0  0  0  0  0  0  0  0  0
  1 11  1  0
  1  2  1  0
  2 22  2  0
  2 16  1  0
  3 20  2  0
  4 19  1  0
  4 10  2  0
  5 17  2  0
  5 14  1  0
  6 13  2  0
  8 21  1  0
  8 22  1  0
  9 11  2  0
 10 17  1  0
 11 14  1  0
 12  9  1  0
 12  5  1  0
 13  1  1  0
 13  8  1  0
 15 20  1  0
 16 15  2  0
 18 21  1  0
 19 12  2  0
 20  7  1  0
 22  3  1  0
  1 23  1  6
  3 24  1  0
  4 25  1  0
  7 26  1  0
  7 27  1  0
 10 28  1  0
 16 29  1  0
 17 30  1  0
 18 31  1  0
 18 32  1  0
 18 33  1  0
 19 34  1  0
 21 35  1  0
 21 36  1  0
M  END
>  <mol_id>  (18) 
2026-09-18-6fnk-s0-n100-refligand-0019

>  <rmsd_to_ref>  (18) 


$$$$

     RDKit          3D

 47 49  0  0  0  0  0  0  0  0999 V2000
    2.4972   19.0627   40.9300 C   0  0  0  0  0  0  0  0  0  0  0  0
    1.1919   16.0090   44.2338 C   0  0  0  0  0  0  0  0  0  0  0  0
   -0.2447   19.6504   45.0830 C   0  0  1  0  0  0  0  0  0  0  0  0
    0.9805   18.9285   43.0214 C   0  0  2  0  0  0  0  0  0  0  0  0
   -1.0853   17.6957   46.5219 C   0  0  0  0  0  0  0  0  0  0  0  0
   -0.6740   20.8184   43.8327 S   0  0  0  0  0  0  0  0  0  0  0  0
    0.8025   19.0837   44.6420 C   0  0  0  0  0  0  0  0  0  0  0  0
   -0.8608   19.2268   46.3206 C   0  0  0  0  0  0  0  0  0  0  0  0
    2.7985   21.7996   40.0991 O   0  0  0  0  0  0  0  0  0  0  0  0
    1.6881   17.6739   42.4948 C   0  0  1  0  0  0  0  0  0  0  0  0
    0.5573   20.2063   42.6076 C   0  0  1  0  0  0  0  0  0  0  0  0
    0.9750   21.0477   41.3751 C   0  0  0  0  0  0  0  0  0  0  0  0
    3.3647   14.3517   42.7329 C   0  0  0  0  0  0  0  0  0  0  0  0
    2.0808   20.9565   40.5162 C   0  0  0  0  0  0  0  0  0  0  0  0
    3.0401   15.7233   42.4043 C   0  0  1  0  0  0  0  0  0  0  0  0
    1.9147   19.8586   39.6302 C   0  0  1  0  0  0  0  0  0  0  0  0
    3.0113   19.1678   38.7008 C   0  0  0  0  0  0  0  0  0  0  0  0
    2.7314   17.8118   41.2179 C   0  0  2  0  0  0  0  0  0  0  0  0
    2.0396   16.5797   43.1018 C   0  0  2  0  0  0  0  0  0  0  0  0
    3.8402   16.6149   41.1875 S   0  0  0  0  0  0  0  0  0  0  0  0
    0.4481   15.5382   44.9073 C   0  0  0  0  0  0  0  0  0  0  0  0
    1.8108   19.3721   41.7320 H   0  0  0  0  0  0  0  0  0  0  0  0
    3.5496   19.3117   40.7290 H   0  0  0  0  0  0  0  0  0  0  0  0
   -0.7955   18.8676   44.5409 H   0  0  0  0  0  0  0  0  0  0  0  0
    0.8371   18.4235   42.0547 H   0  0  0  0  0  0  0  0  0  0  0  0
   -1.0909   17.4642   47.5972 H   0  0  0  0  0  0  0  0  0  0  0  0
   -2.0494   17.4051   46.0793 H   0  0  0  0  0  0  0  0  0  0  0  0
   -0.2737   17.1385   46.0311 H   0  0  0  0  0  0  0  0  0  0  0  0
    0.8292   18.0709   45.0705 H   0  0  0  0  0  0  0  0  0  0  0  0
    1.6200   19.7563   44.9406 H   0  0  0  0  0  0  0  0  0  0  0  0
   -0.2223   19.5781   47.1446 H   0  0  0  0  0  0  0  0  0  0  0  0
   -1.8719   19.6591   46.2947 H   0  0  0  0  0  0  0  0  0  0  0  0
    0.6022   17.5270   42.3991 H   0  0  0  0  0  0  0  0  0  0  0  0
   -0.2532   19.7481   42.0218 H   0  0  0  0  0  0  0  0  0  0  0  0
    0.1120   20.9641   40.6982 H   0  0  0  0  0  0  0  0  0  0  0  0
    1.3185   21.9312   41.9332 H   0  0  0  0  0  0  0  0  0  0  0  0
    3.4312   14.2422   43.8254 H   0  0  0  0  0  0  0  0  0  0  0  0
    2.5798   13.6860   42.3447 H   0  0  0  0  0  0  0  0  0  0  0  0
    4.3301   14.0844   42.2782 H   0  0  0  0  0  0  0  0  0  0  0  0
    2.2587   15.3729   41.7138 H   0  0  0  0  0  0  0  0  0  0  0  0
    1.0272   19.9718   38.9903 H   0  0  0  0  0  0  0  0  0  0  0  0
    3.8019   18.7312   39.3289 H   0  0  0  0  0  0  0  0  0  0  0  0
    2.5383   18.3748   38.1028 H   0  0  0  0  0  0  0  0  0  0  0  0
    3.4502   19.9208   38.0297 H   0  0  0  0  0  0  0  0  0  0  0  0
    2.9851   17.5362   40.1836 H   0  0  0  0  0  0  0  0  0  0  0  0
    2.6723   17.0167   43.8883 H   0  0  0  0  0  0  0  0  0  0  0  0
   -0.2901   15.0710   45.5758 H   0  0  0  0  0  0  0  0  0  0  0  0
  1 18  1  0
  2 21  3  0
  3  8  1  0
  4  7  1  0
  6  3  1  0
  7  3  1  0
  8  5  1  0
  9 14  2  0
 10  4  1  0
 10 19  1  0
 11  4  1  0
 11  6  1  0
 12 11  1  0
 14 12  1  0
 15 13  1  0
 15 19  1  0
 16 14  1  0
 16  1  1  0
 17 16  1  0
 18 10  1  0
 19  2  1  0
 20 18  1  0
 20 15  1  0
  1 22  1  0
  1 23  1  0
  3 24  1  1
  4 25  1  6
  5 26  1  0
  5 27  1  0
  5 28  1  0
  7 29  1  0
  7 30  1  0
  8 31  1  0
  8 32  1  0
 10 33  1  6
 11 34  1  6
 12 35  1  0
 12 36  1  0
 13 37  1  0
 13 38  1  0
 13 39  1  0
 15 40  1  6
 16 41  1  6
 17 42  1  0
 17 43  1  0
 17 44  1  0
 18 45  1  6
 19 46  1  1
 21 47  1  0
M  END
>  <mol_id>  (19) 
2026-09-18-6fnk-s0-n100-refligand-0020

>  <rmsd_to_ref>  (19) 


$$$$

     RDKit          3D

 31 31  0  0  0  0  0  0  0  0999 V2000
    1.3364   18.8387   45.7146 N   0  0  0  0  0  0  0  0  0  0  0  0
    0.1295   21.1229   43.4039 C   0  0  0  0  0  0  0  0  0  0  0  0
    2.8789   16.1330   42.5932 N   0  0  0  0  0  0  0  0  0  0  0  0
    1.8886   19.0411   40.9166 C   0  0  0  0  0  0  0  0  0  0  0  0
    1.1863   19.0147   44.4351 C   0  0  0  0  0  0  0  0  0  0  0  0
    1.9264   20.3925   40.6539 C   0  0  0  0  0  0  0  0  0  0  0  0
    0.6320   19.7539   46.2937 N   0  0  0  0  0  0  0  0  0  0  0  0
    1.9346   18.2648   43.3399 C   0  0  2  0  0  0  0  0  0  0  0  0
    1.2492   18.7317   42.2045 N   0  0  0  0  0  0  0  0  0  0  0  0
    1.8155   16.1844   44.5938 O   0  0  0  0  0  0  0  0  0  0  0  0
    2.8078   21.2237   41.2326 C   0  0  0  0  0  0  0  0  0  0  0  0
    2.1872   16.8034   43.6363 C   0  0  0  0  0  0  0  0  0  0  0  0
    0.0386   20.6219   45.4802 N   0  0  0  0  0  0  0  0  0  0  0  0
    3.3100   14.6919   42.8544 C   0  0  0  0  0  0  0  0  0  0  0  0
    0.3544   20.1677   44.1337 C   0  0  0  0  0  0  0  0  0  0  0  0
    0.1814   22.0523   43.9901 H   0  0  0  0  0  0  0  0  0  0  0  0
    0.8791   21.1542   42.5995 H   0  0  0  0  0  0  0  0  0  0  0  0
   -0.8744   21.0213   42.9659 H   0  0  0  0  0  0  0  0  0  0  0  0
    3.0814   16.5995   41.6975 H   0  0  0  0  0  0  0  0  0  0  0  0
    2.9192   18.6569   40.9340 H   0  0  0  0  0  0  0  0  0  0  0  0
    1.2907   18.5651   40.1255 H   0  0  0  0  0  0  0  0  0  0  0  0
    1.2025   20.8094   39.9382 H   0  0  0  0  0  0  0  0  0  0  0  0
    0.5364   19.8076   47.3178 H   0  0  0  0  0  0  0  0  0  0  0  0
    3.0091   18.4527   43.1978 H   0  0  0  0  0  0  0  0  0  0  0  0
    0.7845   19.6023   42.4996 H   0  0  0  0  0  0  0  0  0  0  0  0
    0.7042   17.8950   41.9519 H   0  0  0  0  0  0  0  0  0  0  0  0
    2.7954   22.2960   40.9876 H   0  0  0  0  0  0  0  0  0  0  0  0
    3.5424   20.8324   41.9519 H   0  0  0  0  0  0  0  0  0  0  0  0
    3.5626   14.5718   43.9183 H   0  0  0  0  0  0  0  0  0  0  0  0
    2.4871   14.0100   42.5938 H   0  0  0  0  0  0  0  0  0  0  0  0
    4.1908   14.4555   42.2394 H   0  0  0  0  0  0  0  0  0  0  0  0
  1  7  1  0
  2 15  1  0
  3 14  1  0
  3 12  1  0
  4  9  1  0
  5  1  2  0
  6  4  1  0
  6 11  2  3
  8  9  1  0
  8 12  1  0
  8  5  1  0
 12 10  2  0
 13  7  1  0
 15  5  1  0
 15 13  2  0
  2 16  1  0
  2 17  1  0
  2 18  1  0
  3 19  1  0
  4 20  1  0
  4 21  1  0
  6 22  1  0
  7 23  1  0
  8 24  1  6
  9 25  1  0
  9 26  1  0
 11 27  1  0
 11 28  1  0
 14 29  1  0
 14 30  1  0
 14 31  1  0
M  CHG  1   9   1
M  END
>  <mol_id>  (20) 
2026-09-18-6fnk-s0-n100-refligand-0021

>  <rmsd_to_ref>  (20) 


$$$$

     RDKit          3D

 22 22  0  0  0  0  0  0  0  0999 V2000
    1.7663   18.0445   41.9353 C   0  0  0  0  0  0  0  0  0  0  0  0
    1.6392   15.9238   43.0825 O   0  0  0  0  0  0  0  0  0  0  0  0
    0.4214   17.7497   43.9644 C   0  0  0  0  0  0  0  0  0  0  0  0
    0.7948   19.9452   42.9386 C   0  0  1  0  0  0  0  0  0  0  0  0
    2.4932   17.3905   40.7939 C   0  0  0  0  0  0  0  0  0  0  0  0
    0.1605   19.1214   43.9399 C   0  0  0  0  0  0  0  0  0  0  0  0
    1.3067   17.2204   42.9692 C   0  0  0  0  0  0  0  0  0  0  0  0
    1.5511   19.3614   41.9536 N   0  0  0  0  0  0  0  0  0  0  0  0
   -0.5777   19.6408   44.7625 O   0  0  0  0  0  0  0  0  0  0  0  0
   -0.1598   16.9569   44.9698 C   0  0  0  0  0  0  0  0  0  0  0  0
    0.4838   21.3188   43.0865 C   0  0  0  0  0  0  0  0  0  0  0  0
    1.2853   15.3859   43.8346 H   0  0  0  0  0  0  0  0  0  0  0  0
    1.6677   20.0720   43.5959 H   0  0  0  0  0  0  0  0  0  0  0  0
    3.1727   16.6193   41.1857 H   0  0  0  0  0  0  0  0  0  0  0  0
    1.7645   16.9257   40.1133 H   0  0  0  0  0  0  0  0  0  0  0  0
    3.0742   18.1479   40.2472 H   0  0  0  0  0  0  0  0  0  0  0  0
    0.0555   17.3975   45.9545 H   0  0  0  0  0  0  0  0  0  0  0  0
   -1.2484   16.9123   44.8182 H   0  0  0  0  0  0  0  0  0  0  0  0
    0.2587   15.9408   44.9233 H   0  0  0  0  0  0  0  0  0  0  0  0
    0.3405   21.5495   44.1525 H   0  0  0  0  0  0  0  0  0  0  0  0
    1.3092   21.9267   42.6875 H   0  0  0  0  0  0  0  0  0  0  0  0
   -0.4398   21.5471   42.5345 H   0  0  0  0  0  0  0  0  0  0  0  0
  1  8  2  0
  1  7  1  0
  3 10  1  0
  4 11  1  0
  4  6  1  0
  5  1  1  0
  6  3  1  0
  6  9  2  0
  7  2  1  0
  7  3  2  0
  8  4  1  0
  2 12  1  0
  4 13  1  1
  5 14  1  0
  5 15  1  0
  5 16  1  0
 10 17  1  0
 10 18  1  0
 10 19  1  0
 11 20  1  0
 11 21  1  0
 11 22  1  0
M  END
>  <mol_id>  (21) 
2026-09-18-6fnk-s0-n100-refligand-0022

>  <rmsd_to_ref>  (21) 


$$$$

     RDKit          3D

 20 20  0  0  0  0  0  0  0  0999 V2000
    1.5350   19.0180   43.3459 N   0  0  0  0  0  0  0  0  0  0  0  0
    2.5021   17.0418   42.2891 C   0  0  0  0  0  0  0  0  0  0  0  0
    3.9936   14.9578   40.5596 S   0  0  0  0  0  0  0  0  0  0  0  0
    2.6022   13.4439   41.9683 O   0  0  0  0  0  0  0  0  0  0  0  0
    1.7755   17.6650   43.1193 C   0  0  0  0  0  0  0  0  0  0  0  0
    1.2969   15.5816   43.3551 N   0  0  0  0  0  0  0  0  0  0  0  0
    2.2439   15.7124   42.4734 C   0  0  0  0  0  0  0  0  0  0  0  0
   -0.2446   19.3092   44.8488 C   0  0  0  0  0  0  0  0  0  0  0  0
    2.7677   14.6494   41.7569 C   0  0  0  0  0  0  0  0  0  0  0  0
    0.6561   21.2216   43.6664 N   0  0  0  0  0  0  0  0  0  0  0  0
    0.7448   19.9234   43.9053 C   0  0  0  0  0  0  0  0  0  0  0  0
   -0.7445   20.3287   45.7722 O   0  0  0  0  0  0  0  0  0  0  0  0
    1.1525   16.8854   43.6895 O   0  0  0  0  0  0  0  0  0  0  0  0
    2.2944   19.5353   42.8807 H   0  0  0  0  0  0  0  0  0  0  0  0
    3.2018   17.4831   41.5641 H   0  0  0  0  0  0  0  0  0  0  0  0
    5.1820   15.2332   41.1832 H   0  0  0  0  0  0  0  0  0  0  0  0
    0.2446   18.5067   45.4202 H   0  0  0  0  0  0  0  0  0  0  0  0
   -1.0860   18.8940   44.2747 H   0  0  0  0  0  0  0  0  0  0  0  0
   -0.0169   21.7973   44.1922 H   0  0  0  0  0  0  0  0  0  0  0  0
   -0.8572   19.9320   46.6722 H   0  0  0  0  0  0  0  0  0  0  0  0
  1 11  1  0
  2  7  1  0
  2  5  2  0
  3  9  1  0
  5  1  1  0
  5 13  1  0
  6 13  1  0
  7  6  2  0
  8 12  1  0
  9  4  2  0
  9  7  1  0
 10 11  2  3
 11  8  1  0
  1 14  1  0
  2 15  1  0
  3 16  1  0
  8 17  1  0
  8 18  1  0
 10 19  1  0
 12 20  1  0
M  END
>  <mol_id>  (22) 
2026-09-18-6fnk-s0-n100-refligand-0023

>  <rmsd_to_ref>  (22) 


$$$$

     RDKit          3D

 20 21  0  0  0  0  0  0  0  0999 V2000
    1.1632   18.8272   42.8911 C   0  0  0  0  0  0  0  0  0  0  0  0
    1.5294   17.8146   42.1240 N   0  0  0  0  0  0  0  0  0  0  0  0
   -1.3652   18.7476   45.5618 N   0  0  0  0  0  0  0  0  0  0  0  0
   -0.0922   17.3096   44.4300 C   0  0  0  0  0  0  0  0  0  0  0  0
    1.8296   21.1108   42.4948 N   0  0  0  0  0  0  0  0  0  0  0  0
    2.5109   19.3759   41.1902 N   0  0  0  0  0  0  0  0  0  0  0  0
   -1.0448   17.3961   45.3833 C   0  0  0  0  0  0  0  0  0  0  0  0
    1.8273   19.7685   42.2570 C   0  0  0  0  0  0  0  0  0  0  0  0
   -0.6622   20.6637   44.4970 O   0  0  0  0  0  0  0  0  0  0  0  0
   -0.6273   19.4641   44.6504 C   0  0  0  0  0  0  0  0  0  0  0  0
    0.2120   18.5361   43.9723 C   0  0  2  0  0  0  0  0  0  0  0  0
    2.1839   18.1532   41.1031 C   0  0  0  0  0  0  0  0  0  0  0  0
    1.2994   16.8346   42.3424 H   0  0  0  0  0  0  0  0  0  0  0  0
   -2.0299   19.1327   46.2479 H   0  0  0  0  0  0  0  0  0  0  0  0
    0.3669   16.3734   44.0797 H   0  0  0  0  0  0  0  0  0  0  0  0
    1.3203   21.4912   43.3053 H   0  0  0  0  0  0  0  0  0  0  0  0
    2.3405   21.7447   41.8639 H   0  0  0  0  0  0  0  0  0  0  0  0
   -1.4920   16.5505   45.9262 H   0  0  0  0  0  0  0  0  0  0  0  0
    1.0040   18.7091   44.7157 H   0  0  0  0  0  0  0  0  0  0  0  0
    2.4345   17.4893   40.2627 H   0  0  0  0  0  0  0  0  0  0  0  0
  2  1  1  0
  3  7  1  0
  4  7  2  0
  5  8  1  0
  6 12  2  0
  6  8  1  0
  8  1  2  0
  9 10  2  0
 10  3  1  0
 11  1  1  0
 11 10  1  0
 11  4  1  0
 12  2  1  0
  2 13  1  0
  3 14  1  0
  4 15  1  0
  5 16  1  0
  5 17  1  0
  7 18  1  0
 11 19  1  1
 12 20  1  0
M  END
>  <mol_id>  (23) 
2026-09-18-6fnk-s0-n100-refligand-0024

>  <rmsd_to_ref>  (23) 


$$$$

     RDKit          3D

 30 32  0  0  0  0  0  0  0  0999 V2000
    0.1291   17.8172   44.3434 C   0  0  0  0  0  0  0  0  0  0  0  0
    1.9022   16.2943   39.4022 C   0  0  1  0  0  0  0  0  0  0  0  0
    1.6490   16.7125   40.8567 C   0  0  0  0  0  0  0  0  0  0  0  0
    1.9725   20.4209   40.8499 C   0  0  0  0  0  0  0  0  0  0  0  0
   -0.6985   18.0152   45.4336 C   0  0  0  0  0  0  0  0  0  0  0  0
   -1.0544   19.2620   45.7021 C   0  0  0  0  0  0  0  0  0  0  0  0
    1.0506   18.9653   42.1920 C   0  0  0  0  0  0  0  0  0  0  0  0
    1.6493   18.2262   41.0804 C   0  0  0  0  0  0  0  0  0  0  0  0
    2.2377   19.1672   40.3506 N   0  0  0  0  0  0  0  0  0  0  0  0
    0.0804   20.1087   43.9013 C   0  0  0  0  0  0  0  0  0  0  0  0
    0.4248   18.8176   43.4817 C   0  0  0  0  0  0  0  0  0  0  0  0
   -0.6890   20.3323   44.9770 N   0  0  0  0  0  0  0  0  0  0  0  0
    1.1570   20.3138   42.0186 C   0  0  0  0  0  0  0  0  0  0  0  0
    1.8327   14.8369   39.3976 N   0  0  0  0  0  0  0  0  0  0  0  0
    0.6075   16.3963   44.2098 C   0  0  0  0  0  0  0  0  0  0  0  0
    0.5749   21.0228   42.9965 N   0  0  0  0  0  0  0  0  0  0  0  0
    0.8476   16.7919   38.5345 O   0  0  0  0  0  0  0  0  0  0  0  0
    2.8652   16.6883   39.0453 H   0  0  0  0  0  0  0  0  0  0  0  0
    0.6692   16.3180   41.1640 H   0  0  0  0  0  0  0  0  0  0  0  0
    2.4778   16.3035   41.4532 H   0  0  0  0  0  0  0  0  0  0  0  0
    2.3337   21.3644   40.4149 H   0  0  0  0  0  0  0  0  0  0  0  0
   -1.0460   17.1735   46.0508 H   0  0  0  0  0  0  0  0  0  0  0  0
   -1.6941   19.4335   46.5805 H   0  0  0  0  0  0  0  0  0  0  0  0
    1.7714   14.4930   40.3666 H   0  0  0  0  0  0  0  0  0  0  0  0
    0.9998   14.5345   38.8727 H   0  0  0  0  0  0  0  0  0  0  0  0
    2.6779   14.4543   38.9503 H   0  0  0  0  0  0  0  0  0  0  0  0
    0.6864   15.9406   45.2078 H   0  0  0  0  0  0  0  0  0  0  0  0
   -0.1081   15.8242   43.6011 H   0  0  0  0  0  0  0  0  0  0  0  0
    1.5938   16.3858   43.7228 H   0  0  0  0  0  0  0  0  0  0  0  0
    0.0669   17.0571   39.0825 H   0  0  0  0  0  0  0  0  0  0  0  0
  1  5  2  0
  2 17  1  0
  2 14  1  0
  2  3  1  0
  3  8  1  0
  4 13  1  0
  5  6  1  0
  7 11  1  0
  8  7  2  0
  9  4  2  0
  9  8  1  0
 10 12  1  0
 11 10  2  0
 11  1  1  0
 12  6  2  0
 13  7  1  0
 13 16  2  0
 15  1  1  0
 16 10  1  0
  2 18  1  6
  3 19  1  0
  3 20  1  0
  4 21  1  0
  5 22  1  0
  6 23  1  0
 14 24  1  0
 14 25  1  0
 14 26  1  0
 15 27  1  0
 15 28  1  0
 15 29  1  0
 17 30  1  0
M  CHG  1  14   1
M  END
>  <mol_id>  (24) 
2026-09-18-6fnk-s0-n100-refligand-0025

>  <rmsd_to_ref>  (24) 


$$$$

     RDKit          3D

 23 25  0  0  0  0  0  0  0  0999 V2000
    2.1688   14.8347   43.5273 C   0  0  0  0  0  0  0  0  0  0  0  0
   -0.3298   17.0224   46.5088 C   0  0  0  0  0  0  0  0  0  0  0  0
    1.5345   16.0363   43.4520 C   0  0  0  0  0  0  0  0  0  0  0  0
    0.3592   18.4446   42.6510 N   0  0  0  0  0  0  0  0  0  0  0  0
    0.7165   16.7400   44.4001 C   0  0  0  0  0  0  0  0  0  0  0  0
    1.2925   17.4463   39.4048 O   0  0  0  0  0  0  0  0  0  0  0  0
   -0.6048   18.6886   44.7540 C   0  0  0  0  0  0  0  0  0  0  0  0
    1.1737   18.2322   40.3501 C   0  0  0  0  0  0  0  0  0  0  0  0
    0.1937   17.9658   43.8783 C   0  0  0  0  0  0  0  0  0  0  0  0
    2.8347   14.7026   42.3121 C   0  0  0  0  0  0  0  0  0  0  0  0
    2.6143   15.6856   41.4656 O   0  0  0  0  0  0  0  0  0  0  0  0
   -0.8553   18.2057   46.0783 C   0  0  0  0  0  0  0  0  0  0  0  0
    1.1077   17.7884   41.7520 C   0  0  0  0  0  0  0  0  0  0  0  0
    1.7599   16.5892   42.1333 C   0  0  0  0  0  0  0  0  0  0  0  0
   -0.9610   19.7470   44.4137 O   0  0  0  0  0  0  0  0  0  0  0  0
    0.8939   19.4266   40.1380 O   0  0  0  0  0  0  0  0  0  0  0  0
    0.4490   16.2680   45.6226 C   0  0  0  0  0  0  0  0  0  0  0  0
    2.1577   14.1229   44.3658 H   0  0  0  0  0  0  0  0  0  0  0  0
   -0.5146   16.6674   47.5334 H   0  0  0  0  0  0  0  0  0  0  0  0
    3.4889   13.8495   42.0795 H   0  0  0  0  0  0  0  0  0  0  0  0
   -0.4872   18.9798   46.7677 H   0  0  0  0  0  0  0  0  0  0  0  0
   -1.9349   17.9959   46.0575 H   0  0  0  0  0  0  0  0  0  0  0  0
    0.8405   15.2876   45.9317 H   0  0  0  0  0  0  0  0  0  0  0  0
  1  3  1  0
  3  5  2  0
  4  9  2  0
  5 17  1  0
  6  8  2  0
  7 15  2  0
  7 12  1  0
  8 16  1  0
  8 13  1  0
  9  5  1  0
  9  7  1  0
 10  1  2  0
 11 10  1  0
 11 14  1  0
 12  2  1  0
 13 14  2  0
 13  4  1  0
 14  3  1  0
 17  2  2  0
  1 18  1  0
  2 19  1  0
 10 20  1  0
 12 21  1  0
 12 22  1  0
 17 23  1  0
M  CHG  1  16  -1
M  END
>  <mol_id>  (25) 
2026-09-18-6fnk-s0-n100-refligand-0026

>  <rmsd_to_ref>  (25) 


$$$$

     RDKit          3D

 38 38  0  0  0  0  0  0  0  0999 V2000
    0.8444   20.0177   42.8233 C   0  0  0  0  0  0  0  0  0  0  0  0
    1.5586   21.5748   39.5852 C   0  0  0  0  0  0  0  0  0  0  0  0
   -0.1113   16.4110   44.4188 C   0  0  0  0  0  0  0  0  0  0  0  0
    0.8111   15.8420   45.5067 C   0  0  0  0  0  0  0  0  0  0  0  0
   -0.8690   18.5735   45.5215 O   0  0  0  0  0  0  0  0  0  0  0  0
    2.6134   21.4748   40.3840 C   0  0  0  0  0  0  0  0  0  0  0  0
    0.1320   20.2626   44.0655 C   0  0  2  0  0  0  0  0  0  0  0  0
   -0.0594   18.7717   44.4641 C   0  0  0  0  0  0  0  0  0  0  0  0
    0.4064   17.7255   43.9005 C   0  0  0  0  0  0  0  0  0  0  0  0
    1.1731   20.8517   41.8433 C   0  0  2  0  0  0  0  0  0  0  0  0
    2.0445   15.3733   44.9763 C   0  0  0  0  0  0  0  0  0  0  0  0
   -1.1038   21.2148   44.0189 N   0  0  0  0  0  0  0  0  0  0  0  0
    1.3043   17.6894   42.9024 O   0  0  0  0  0  0  0  0  0  0  0  0
    0.3007   21.5849   40.5591 S   0  0  0  0  0  0  0  0  0  0  0  0
   -0.0055   14.6716   46.0546 C   0  0  0  0  0  0  0  0  0  0  0  0
    2.4503   21.0408   41.5963 O   0  0  0  0  0  0  0  0  0  0  0  0
    1.8063   19.5931   43.1464 H   0  0  0  0  0  0  0  0  0  0  0  0
    0.0348   19.4915   42.2965 H   0  0  0  0  0  0  0  0  0  0  0  0
    1.5099   20.7153   38.9004 H   0  0  0  0  0  0  0  0  0  0  0  0
    1.6010   22.4771   38.9574 H   0  0  0  0  0  0  0  0  0  0  0  0
   -0.1689   15.6945   43.5862 H   0  0  0  0  0  0  0  0  0  0  0  0
   -1.1065   16.5766   44.8571 H   0  0  0  0  0  0  0  0  0  0  0  0
    1.0893   16.5953   46.2584 H   0  0  0  0  0  0  0  0  0  0  0  0
   -1.0466   17.6543   45.8435 H   0  0  0  0  0  0  0  0  0  0  0  0
    3.3256   20.7957   39.8925 H   0  0  0  0  0  0  0  0  0  0  0  0
    2.9382   22.5169   40.5204 H   0  0  0  0  0  0  0  0  0  0  0  0
    0.6405   20.8824   44.8186 H   0  0  0  0  0  0  0  0  0  0  0  0
    0.3772   21.0620   42.5729 H   0  0  0  0  0  0  0  0  0  0  0  0
    2.7856   15.2954   45.7854 H   0  0  0  0  0  0  0  0  0  0  0  0
    1.8949   14.3838   44.5197 H   0  0  0  0  0  0  0  0  0  0  0  0
    2.4071   16.0782   44.2136 H   0  0  0  0  0  0  0  0  0  0  0  0
   -1.2938   21.5772   44.9642 H   0  0  0  0  0  0  0  0  0  0  0  0
   -0.9079   22.0009   43.3828 H   0  0  0  0  0  0  0  0  0  0  0  0
   -1.9254   20.6948   43.6791 H   0  0  0  0  0  0  0  0  0  0  0  0
    1.6689   18.5328   42.5338 H   0  0  0  0  0  0  0  0  0  0  0  0
    0.0052   14.6999   47.1542 H   0  0  0  0  0  0  0  0  0  0  0  0
   -1.0426   14.7484   45.6960 H   0  0  0  0  0  0  0  0  0  0  0  0
    0.4330   13.7243   45.7078 H   0  0  0  0  0  0  0  0  0  0  0  0
  1  7  1  0
  2 14  1  0
  2  6  1  0
  3  4  1  0
  4 15  1  0
  6 16  1  0
  7 12  1  0
  7  8  1  0
  8  5  1  0
  9  3  1  0
  9  8  2  3
 10  1  1  0
 11  4  1  0
 13  9  1  0
 14 10  1  0
 16 10  1  0
  1 17  1  0
  1 18  1  0
  2 19  1  0
  2 20  1  0
  3 21  1  0
  3 22  1  0
  4 23  1  0
  5 24  1  0
  6 25  1  0
  6 26  1  0
  7 27  1  1
 10 28  1  1
 11 29  1  0
 11 30  1  0
 11 31  1  0
 12 32  1  0
 12 33  1  0
 12 34  1  0
 13 35  1  0
 15 36  1  0
 15 37  1  0
 15 38  1  0
M  CHG  1  12   1
M  END
>  <mol_id>  (26) 
2026-09-18-6fnk-s0-n100-refligand-0027

>  <rmsd_to_ref>  (26) 


$$$$

     RDKit          3D

 66 68  0  0  0  0  0  0  0  0999 V2000
   -1.9615   15.3771   48.3869 N   0  0  0  0  0  0  0  0  0  0  0  0
   -1.9542   16.2473   47.5588 N   0  0  0  0  0  0  0  0  0  0  0  0
    3.0975   20.0432   36.9927 O   0  0  0  0  0  0  0  0  0  0  0  0
   -1.0866   15.3876   46.0160 O   0  0  0  0  0  0  0  0  0  0  0  0
    2.0518   18.3772   40.6440 C   0  0  2  0  0  0  0  0  0  0  0  0
    2.0663   16.3724   42.1315 C   0  0  0  0  0  0  0  0  0  0  0  0
    4.3710   21.1047   38.8419 C   0  0  1  0  0  0  0  0  0  0  0  0
    0.1923   18.9432   43.8370 C   0  0  0  0  0  0  0  0  0  0  0  0
    0.5269   16.7134   44.8555 O   0  0  0  0  0  0  0  0  0  0  0  0
   -2.6453   14.7771   50.7394 C   0  0  0  0  0  0  0  0  0  0  0  0
   -1.2759   16.1701   46.5003 C   0  0  0  0  0  0  0  0  0  0  0  0
   -2.6120   14.4866   49.1423 C   0  0  0  0  0  0  0  0  0  0  0  0
    2.0639   16.9919   40.8061 C   0  0  0  0  0  0  0  0  0  0  0  0
   -2.3167   13.9783   48.2856 C   0  0  0  0  0  0  0  0  0  0  0  0
    2.1531   14.6568   40.0848 C   0  0  0  0  0  0  0  0  0  0  0  0
    0.8130   17.6742   43.9845 C   0  0  1  0  0  0  0  0  0  0  0  0
    2.6169   14.1883   41.4099 C   0  0  0  0  0  0  0  0  0  0  0  0
    1.8536   17.4241   43.1858 O   0  0  0  0  0  0  0  0  0  0  0  0
    2.1750   16.0270   39.7848 C   0  0  0  0  0  0  0  0  0  0  0  0
   -2.2760   16.2480   50.6142 C   0  0  0  0  0  0  0  0  0  0  0  0
    1.7314   18.6067   39.3345 O   0  0  0  0  0  0  0  0  0  0  0  0
    3.4156   20.3244   38.2713 C   0  0  1  0  0  0  0  0  0  0  0  0
    4.3432   21.1974   40.1860 C   0  0  0  0  0  0  0  0  0  0  0  0
    2.2847   19.4349   39.0026 C   0  0  0  0  0  0  0  0  0  0  0  0
   -0.9421   18.4769   45.9147 C   0  0  0  0  0  0  0  0  0  0  0  0
    2.6530   19.5791   41.1747 C   0  0  0  0  0  0  0  0  0  0  0  0
   -1.0339   19.0648   44.4190 C   0  0  1  0  0  0  0  0  0  0  0  0
   -1.3467   20.4611   44.7540 O   0  0  0  0  0  0  0  0  0  0  0  0
    5.6765   21.6074   38.1665 C   0  0  0  0  0  0  0  0  0  0  0  0
    2.3658   15.0041   42.4684 C   0  0  0  0  0  0  0  0  0  0  0  0
    3.5747   20.4198   41.0137 C   0  0  0  0  0  0  0  0  0  0  0  0
   -0.5970   16.9821   45.6058 C   0  0  1  0  0  0  0  0  0  0  0  0
   -0.9711   15.2573   48.6430 H   0  0  0  0  0  0  0  0  0  0  0  0
   -2.5248   17.0894   47.7206 H   0  0  0  0  0  0  0  0  0  0  0  0
    2.1566   19.7390   36.9460 H   0  0  0  0  0  0  0  0  0  0  0  0
    1.6419   18.3632   41.6647 H   0  0  0  0  0  0  0  0  0  0  0  0
    3.8751   21.8767   38.2352 H   0  0  0  0  0  0  0  0  0  0  0  0
    0.0787   19.1425   42.7612 H   0  0  0  0  0  0  0  0  0  0  0  0
    0.8457   19.6621   44.3530 H   0  0  0  0  0  0  0  0  0  0  0  0
   -1.8986   14.1932   51.2974 H   0  0  0  0  0  0  0  0  0  0  0  0
   -3.5665   14.5260   51.2856 H   0  0  0  0  0  0  0  0  0  0  0  0
   -2.5647   12.9134   48.1649 H   0  0  0  0  0  0  0  0  0  0  0  0
   -1.7563   14.5050   47.4992 H   0  0  0  0  0  0  0  0  0  0  0  0
    1.7927   13.9336   39.3383 H   0  0  0  0  0  0  0  0  0  0  0  0
    1.4935   18.0948   44.7394 H   0  0  0  0  0  0  0  0  0  0  0  0
    3.1388   13.2278   41.5324 H   0  0  0  0  0  0  0  0  0  0  0  0
    2.2803   16.3525   38.7393 H   0  0  0  0  0  0  0  0  0  0  0  0
   -2.2393   16.7032   51.6149 H   0  0  0  0  0  0  0  0  0  0  0  0
   -1.2907   16.3390   50.1336 H   0  0  0  0  0  0  0  0  0  0  0  0
   -3.0309   16.7649   50.0037 H   0  0  0  0  0  0  0  0  0  0  0  0
    4.1052   19.4676   38.2883 H   0  0  0  0  0  0  0  0  0  0  0  0
    4.9868   21.9558   40.6557 H   0  0  0  0  0  0  0  0  0  0  0  0
    2.4586   19.8514   40.0057 H   0  0  0  0  0  0  0  0  0  0  0  0
    1.8577   19.2536   38.0052 H   0  0  0  0  0  0  0  0  0  0  0  0
   -0.1473   18.9664   46.4966 H   0  0  0  0  0  0  0  0  0  0  0  0
   -1.8459   18.6247   46.5242 H   0  0  0  0  0  0  0  0  0  0  0  0
    1.7794   20.2476   41.1779 H   0  0  0  0  0  0  0  0  0  0  0  0
    3.2958   18.9812   41.8375 H   0  0  0  0  0  0  0  0  0  0  0  0
   -1.7429   18.5925   43.7232 H   0  0  0  0  0  0  0  0  0  0  0  0
   -1.3844   20.5639   45.7379 H   0  0  0  0  0  0  0  0  0  0  0  0
    6.3459   22.0290   38.9309 H   0  0  0  0  0  0  0  0  0  0  0  0
    6.1771   20.7662   37.6645 H   0  0  0  0  0  0  0  0  0  0  0  0
    5.4311   22.3828   37.4259 H   0  0  0  0  0  0  0  0  0  0  0  0
    2.3897   14.6450   43.5078 H   0  0  0  0  0  0  0  0  0  0  0  0
    3.9422   20.6357   42.0278 H   0  0  0  0  0  0  0  0  0  0  0  0
   -0.9176   16.4515   44.6972 H   0  0  0  0  0  0  0  0  0  0  0  0
  1 12  1  0
  2  1  1  0
  4 11  2  0
  5 13  1  0
  5 26  1  0
  6 30  2  0
  6 18  1  0
  7 29  1  0
  7 23  1  0
  8 27  1  0
  9 32  1  0
 10 20  1  0
 11  2  1  0
 12 10  1  0
 13  6  1  0
 14 12  2  3
 15 17  2  0
 16 18  1  0
 16  8  1  0
 16  9  1  0
 17 30  1  0
 19 15  1  0
 19 13  2  0
 21  5  1  0
 22  3  1  0
 22  7  1  0
 22 24  1  0
 23 31  2  0
 24 21  1  0
 27 28  1  0
 27 25  1  0
 31 26  1  0
 32 25  1  0
 32 11  1  0
  1 33  1  0
  2 34  1  0
  3 35  1  0
  5 36  1  1
  7 37  1  6
  8 38  1  0
  8 39  1  0
 10 40  1  0
 10 41  1  0
 14 42  1  0
 14 43  1  0
 15 44  1  0
 16 45  1  1
 17 46  1  0
 19 47  1  0
 20 48  1  0
 20 49  1  0
 20 50  1  0
 22 51  1  1
 23 52  1  0
 24 53  1  0
 24 54  1  0
 25 55  1  0
 25 56  1  0
 26 57  1  0
 26 58  1  0
 27 59  1  6
 28 60  1  0
 29 61  1  0
 29 62  1  0
 29 63  1  0
 30 64  1  0
 31 65  1  0
 32 66  1  6
M  END
>  <mol_id>  (27) 
2026-09-18-6fnk-s0-n100-refligand-0028

>  <rmsd_to_ref>  (27) 


$$$$

     RDKit          3D

 50 53  0  0  0  0  0  0  0  0999 V2000
   -1.0002   20.2054   45.4210 C   0  0  0  0  0  0  0  0  0  0  0  0
    0.5392   19.7820   43.2463 C   0  0  0  0  0  0  0  0  0  0  0  0
    2.5996   19.8881   40.0718 C   0  0  1  0  0  0  0  0  0  0  0  0
    1.7675   18.4760   41.6518 N   0  0  0  0  0  0  0  0  0  0  0  0
    0.3794   16.4728   44.7504 C   0  0  0  0  0  0  0  0  0  0  0  0
    5.5237   15.0188   37.9531 N   0  0  0  0  0  0  0  0  0  0  0  0
    0.0348   20.9933   43.5426 C   0  0  0  0  0  0  0  0  0  0  0  0
    5.3117   20.7688   38.7421 O   0  0  0  0  0  0  0  0  0  0  0  0
    3.2854   17.6008   40.0120 O   0  0  0  0  0  0  0  0  0  0  0  0
   -0.7389   16.6537   45.5457 C   0  0  0  0  0  0  0  0  0  0  0  0
    0.2980   18.7025   44.1942 C   0  0  0  0  0  0  0  0  0  0  0  0
    4.3467   15.2531   40.2150 O   0  0  0  0  0  0  0  0  0  0  0  0
    3.1932   19.8626   38.7299 C   0  0  0  0  0  0  0  0  0  0  0  0
    0.9004   17.5195   44.0836 N   0  0  0  0  0  0  0  0  0  0  0  0
   -0.5944   18.8778   45.1730 C   0  0  0  0  0  0  0  0  0  0  0  0
    0.8897   15.1788   44.5476 C   0  0  0  0  0  0  0  0  0  0  0  0
    2.5511   18.5749   40.5900 C   0  0  0  0  0  0  0  0  0  0  0  0
    3.3783   15.3513   39.2098 C   0  0  2  0  0  0  0  0  0  0  0  0
    0.0636   14.0752   44.9808 C   0  0  0  0  0  0  0  0  0  0  0  0
    4.0863   14.8415   37.8558 C   0  0  0  0  0  0  0  0  0  0  0  0
   -0.7086   21.2161   44.6018 N   0  0  0  0  0  0  0  0  0  0  0  0
   -1.0683   14.2749   45.6260 C   0  0  0  0  0  0  0  0  0  0  0  0
    2.8821   16.7027   38.9600 C   0  0  0  0  0  0  0  0  0  0  0  0
   -1.1110   17.9294   45.8949 N   0  0  0  0  0  0  0  0  0  0  0  0
    1.8792   20.6348   41.2142 C   0  0  0  0  0  0  0  0  0  0  0  0
   -1.5417   15.5552   45.9706 C   0  0  0  0  0  0  0  0  0  0  0  0
    1.3454   19.5972   42.0897 C   0  0  0  0  0  0  0  0  0  0  0  0
    4.1025   20.5105   38.1899 C   0  0  0  0  0  0  0  0  0  0  0  0
   -1.5827   20.4162   46.3300 H   0  0  0  0  0  0  0  0  0  0  0  0
    1.6005   19.7516   39.6324 H   0  0  0  0  0  0  0  0  0  0  0  0
    5.7746   15.2646   38.9214 H   0  0  0  0  0  0  0  0  0  0  0  0
    5.9963   14.1430   37.6878 H   0  0  0  0  0  0  0  0  0  0  0  0
    5.8201   15.7746   37.3192 H   0  0  0  0  0  0  0  0  0  0  0  0
    0.2547   21.8340   42.8681 H   0  0  0  0  0  0  0  0  0  0  0  0
    5.1982   20.9738   39.7040 H   0  0  0  0  0  0  0  0  0  0  0  0
    3.9490   15.5149   41.0830 H   0  0  0  0  0  0  0  0  0  0  0  0
    3.5286   18.8205   38.6226 H   0  0  0  0  0  0  0  0  0  0  0  0
    2.3679   20.3936   38.2329 H   0  0  0  0  0  0  0  0  0  0  0  0
    1.8721   15.0140   44.0811 H   0  0  0  0  0  0  0  0  0  0  0  0
    2.5084   14.7602   39.5318 H   0  0  0  0  0  0  0  0  0  0  0  0
    0.3865   13.0456   44.7673 H   0  0  0  0  0  0  0  0  0  0  0  0
    3.7040   15.4222   37.0034 H   0  0  0  0  0  0  0  0  0  0  0  0
    3.8620   13.7746   37.7094 H   0  0  0  0  0  0  0  0  0  0  0  0
   -1.6717   13.3996   45.9085 H   0  0  0  0  0  0  0  0  0  0  0  0
    3.2869   17.0639   38.0031 H   0  0  0  0  0  0  0  0  0  0  0  0
    1.7831   16.6728   38.9254 H   0  0  0  0  0  0  0  0  0  0  0  0
    1.7873   21.7234   41.3418 H   0  0  0  0  0  0  0  0  0  0  0  0
   -2.4754   15.6992   46.5341 H   0  0  0  0  0  0  0  0  0  0  0  0
    3.6667   21.4956   37.9670 H   0  0  0  0  0  0  0  0  0  0  0  0
    4.3962   19.8101   37.3941 H   0  0  0  0  0  0  0  0  0  0  0  0
  2  7  1  0
  2 11  2  0
  3 13  1  0
  3 17  1  0
  3 25  1  0
  4 27  1  0
  5 10  1  0
  6 20  1  0
  7 21  2  0
  9 17  1  0
 10 26  1  0
 10 24  2  0
 11 15  1  0
 14 11  1  0
 14  5  2  0
 15  1  2  0
 15 24  1  0
 16 19  2  0
 16  5  1  0
 17  4  2  0
 18 23  1  0
 18 12  1  0
 19 22  1  0
 20 18  1  0
 21  1  1  0
 22 26  2  0
 23  9  1  0
 25 27  2  0
 27  2  1  0
 28  8  1  0
 28 13  1  0
  1 29  1  0
  3 30  1  1
  6 31  1  0
  6 32  1  0
  6 33  1  0
  7 34  1  0
  8 35  1  0
 12 36  1  0
 13 37  1  0
 13 38  1  0
 16 39  1  0
 18 40  1  1
 19 41  1  0
 20 42  1  0
 20 43  1  0
 22 44  1  0
 23 45  1  0
 23 46  1  0
 25 47  1  0
 26 48  1  0
 28 49  1  0
 28 50  1  0
M  CHG  1   6   1
M  END
>  <mol_id>  (28) 
2026-09-18-6fnk-s0-n100-refligand-0029

>  <rmsd_to_ref>  (28) 


$$$$

     RDKit          3D

 68 72  0  0  0  0  0  0  0  0999 V2000
    5.8973   21.9447   40.6017 C   0  0  0  0  0  0  0  0  0  0  0  0
    1.9332   17.4726   41.0961 C   0  0  0  0  0  0  0  0  0  0  0  0
    2.7726   20.3524   42.1583 C   0  0  0  0  0  0  0  0  0  0  0  0
   -1.1007   19.9039   46.1905 C   0  0  0  0  0  0  0  0  0  0  0  0
    1.7612   15.0269   42.9687 C   0  0  0  0  0  0  0  0  0  0  0  0
    5.1138   21.3430   39.6636 C   0  0  0  0  0  0  0  0  0  0  0  0
    5.5004   21.9431   41.8990 C   0  0  0  0  0  0  0  0  0  0  0  0
    2.0105   13.9081   44.0166 C   0  0  0  0  0  0  0  0  0  0  0  0
    3.5337   13.7458   41.7567 C   0  0  0  0  0  0  0  0  0  0  0  0
    4.3784   21.4860   42.2620 C   0  0  0  0  0  0  0  0  0  0  0  0
    3.8641   20.9234   40.0366 C   0  0  0  0  0  0  0  0  0  0  0  0
   -0.0501   17.3598   45.4441 C   0  0  2  0  0  0  0  0  0  0  0  0
    2.6582   12.6868   41.9999 O   0  0  0  0  0  0  0  0  0  0  0  0
    1.3177   17.7990   43.1641 C   0  0  2  0  0  0  0  0  0  0  0  0
    1.3943   20.3449   42.0484 O   0  0  0  0  0  0  0  0  0  0  0  0
    0.9090   19.8237   40.8949 C   0  0  0  0  0  0  0  0  0  0  0  0
   -1.3333   15.5652   46.5423 C   0  0  0  0  0  0  0  0  0  0  0  0
   -0.2320   19.7829   45.0945 N   0  0  0  0  0  0  0  0  0  0  0  0
   -1.0236   16.8853   46.4400 C   0  0  0  0  0  0  0  0  0  0  0  0
    1.2670   16.2898   43.5809 C   0  0  2  0  0  0  0  0  0  0  0  0
    3.5577   20.9990   41.3208 C   0  0  0  0  0  0  0  0  0  0  0  0
    0.8206   16.3197   44.9982 C   0  0  0  0  0  0  0  0  0  0  0  0
   -1.6970   17.7575   47.1467 C   0  0  0  0  0  0  0  0  0  0  0  0
    2.4231   18.7834   39.2557 O   0  0  0  0  0  0  0  0  0  0  0  0
    2.0391   12.5837   43.2724 C   0  0  0  0  0  0  0  0  0  0  0  0
    1.4806   17.5448   42.2928 N   0  0  0  0  0  0  0  0  0  0  0  0
    1.7041   18.7552   40.3094 C   0  0  0  0  0  0  0  0  0  0  0  0
    0.2249   18.7446   44.8998 C   0  0  0  0  0  0  0  0  0  0  0  0
   -2.8030   16.0606   48.2560 C   0  0  0  0  0  0  0  0  0  0  0  0
    3.0462   15.1241   42.1166 C   0  0  0  0  0  0  0  0  0  0  0  0
   -1.4805   19.1602   47.0399 N   0  0  0  0  0  0  0  0  0  0  0  0
   -2.5326   17.3306   48.1046 C   0  0  0  0  0  0  0  0  0  0  0  0
    1.0610   18.8714   43.9505 O   0  0  0  0  0  0  0  0  0  0  0  0
   -2.1865   15.1107   47.4116 C   0  0  0  0  0  0  0  0  0  0  0  0
    6.8421   22.4270   40.3103 H   0  0  0  0  0  0  0  0  0  0  0  0
    3.0141   17.2729   41.1389 H   0  0  0  0  0  0  0  0  0  0  0  0
    1.3933   16.6637   40.5822 H   0  0  0  0  0  0  0  0  0  0  0  0
    2.9943   20.7591   43.1561 H   0  0  0  0  0  0  0  0  0  0  0  0
    3.0167   19.3059   41.9235 H   0  0  0  0  0  0  0  0  0  0  0  0
   -2.0374   20.2448   45.7253 H   0  0  0  0  0  0  0  0  0  0  0  0
   -0.3783   20.4286   46.8330 H   0  0  0  0  0  0  0  0  0  0  0  0
    0.9274   14.7852   42.2932 H   0  0  0  0  0  0  0  0  0  0  0  0
    5.4748   21.1981   38.6347 H   0  0  0  0  0  0  0  0  0  0  0  0
    6.1782   22.3537   42.6620 H   0  0  0  0  0  0  0  0  0  0  0  0
    2.9726   14.0753   44.5229 H   0  0  0  0  0  0  0  0  0  0  0  0
    1.2172   13.9073   44.7787 H   0  0  0  0  0  0  0  0  0  0  0  0
    4.4526   13.5569   42.3312 H   0  0  0  0  0  0  0  0  0  0  0  0
    3.6688   13.7634   40.6652 H   0  0  0  0  0  0  0  0  0  0  0  0
    4.0840   21.4880   43.3218 H   0  0  0  0  0  0  0  0  0  0  0  0
    3.1450   20.5394   39.2980 H   0  0  0  0  0  0  0  0  0  0  0  0
   -0.7562   17.1148   44.6371 H   0  0  0  0  0  0  0  0  0  0  0  0
    0.2357   17.7810   42.9670 H   0  0  0  0  0  0  0  0  0  0  0  0
   -0.0961   19.4260   41.0987 H   0  0  0  0  0  0  0  0  0  0  0  0
    0.9198   20.6450   40.1633 H   0  0  0  0  0  0  0  0  0  0  0  0
   -0.8422   14.8535   45.8624 H   0  0  0  0  0  0  0  0  0  0  0  0
    1.0417   15.8174   42.6134 H   0  0  0  0  0  0  0  0  0  0  0  0
    1.7281   16.3762   45.6173 H   0  0  0  0  0  0  0  0  0  0  0  0
    0.2051   15.4129   45.0920 H   0  0  0  0  0  0  0  0  0  0  0  0
    1.0052   12.2348   43.1341 H   0  0  0  0  0  0  0  0  0  0  0  0
    2.6288   11.8761   43.8737 H   0  0  0  0  0  0  0  0  0  0  0  0
    0.4924   17.5905   42.0060 H   0  0  0  0  0  0  0  0  0  0  0  0
    2.4093   17.2320   42.6099 H   0  0  0  0  0  0  0  0  0  0  0  0
   -3.5062   15.7337   49.0361 H   0  0  0  0  0  0  0  0  0  0  0  0
    3.8250   15.6470   42.6910 H   0  0  0  0  0  0  0  0  0  0  0  0
    2.8250   15.6802   41.1937 H   0  0  0  0  0  0  0  0  0  0  0  0
   -1.7089   19.6549   47.9139 H   0  0  0  0  0  0  0  0  0  0  0  0
   -3.0004   18.0646   48.7773 H   0  0  0  0  0  0  0  0  0  0  0  0
   -2.4173   14.0378   47.4861 H   0  0  0  0  0  0  0  0  0  0  0  0
  1  7  1  0
  2 26  1  0
  3 15  1  0
  4 31  1  0
  5  8  1  0
  6 11  1  0
  6  1  2  0
  7 10  2  0
  9 13  1  0
  9 30  1  0
 11 21  2  0
 12 22  1  0
 12 19  1  0
 13 25  1  0
 14 26  1  0
 14 20  1  0
 14 33  1  0
 16 15  1  0
 17 34  1  0
 18  4  1  0
 19 17  2  0
 19 23  1  0
 20  5  1  0
 20 22  1  0
 21 10  1  0
 21  3  1  0
 23 32  2  0
 24 27  2  0
 25  8  1  0
 27 16  1  0
 27  2  1  0
 28 18  2  0
 28 12  1  0
 30  5  1  0
 31 23  1  0
 32 29  1  0
 33 28  1  0
 34 29  2  0
  1 35  1  0
  2 36  1  0
  2 37  1  0
  3 38  1  0
  3 39  1  0
  4 40  1  0
  4 41  1  0
  5 42  1  0
  6 43  1  0
  7 44  1  0
  8 45  1  0
  8 46  1  0
  9 47  1  0
  9 48  1  0
 10 49  1  0
 11 50  1  0
 12 51  1  6
 14 52  1  1
 16 53  1  0
 16 54  1  0
 17 55  1  0
 20 56  1  6
 22 57  1  0
 22 58  1  0
 25 59  1  0
 25 60  1  0
 26 61  1  0
 26 62  1  0
 29 63  1  0
 30 64  1  0
 30 65  1  0
 31 66  1  0
 32 67  1  0
 34 68  1  0
M  CHG  1  26   1
M  END
>  <mol_id>  (29) 
2026-09-18-6fnk-s0-n100-refligand-0030

>  <rmsd_to_ref>  (29) 


$$$$

     RDKit          3D

 21 22  0  0  0  0  0  0  0  0999 V2000
   -1.1408   17.4631   45.6267 C   0  0  0  0  0  0  0  0  0  0  0  0
   -0.0915   18.7298   44.0668 C   0  0  0  0  0  0  0  0  0  0  0  0
    0.4252   19.8052   43.2290 C   0  0  0  0  0  0  0  0  0  0  0  0
    1.1584   17.0355   42.8262 C   0  0  0  0  0  0  0  0  0  0  0  0
   -0.8333   18.8556   45.1123 C   0  0  0  0  0  0  0  0  0  0  0  0
    1.4043   15.6105   42.6113 C   0  0  0  0  0  0  0  0  0  0  0  0
   -1.2004   19.8401   45.7622 O   0  0  0  0  0  0  0  0  0  0  0  0
    0.2083   17.3658   43.8646 C   0  0  0  0  0  0  0  0  0  0  0  0
   -0.2889   16.4790   44.7310 N   0  0  0  0  0  0  0  0  0  0  0  0
    1.8476   18.1033   42.0775 C   0  0  0  0  0  0  0  0  0  0  0  0
    1.6034   19.4816   42.3763 C   0  0  0  0  0  0  0  0  0  0  0  0
    2.6579   20.6781   41.9326 Cl  0  0  0  0  0  0  0  0  0  0  0  0
   -0.0763   21.0493   43.2848 C   0  0  0  0  0  0  0  0  0  0  0  0
   -1.8165   17.1939   46.4519 H   0  0  0  0  0  0  0  0  0  0  0  0
    1.4584   15.0972   43.5826 H   0  0  0  0  0  0  0  0  0  0  0  0
    0.5845   15.1826   42.0156 H   0  0  0  0  0  0  0  0  0  0  0  0
    2.3552   15.4795   42.0739 H   0  0  0  0  0  0  0  0  0  0  0  0
    2.5575   17.8372   41.2805 H   0  0  0  0  0  0  0  0  0  0  0  0
   -0.2422   21.3310   44.3350 H   0  0  0  0  0  0  0  0  0  0  0  0
    0.6339   21.7518   42.8244 H   0  0  0  0  0  0  0  0  0  0  0  0
   -1.0316   21.0842   42.7405 H   0  0  0  0  0  0  0  0  0  0  0  0
  2  5  1  0
  3  2  2  0
  4  8  2  0
  5  7  2  0
  5  1  1  0
  6  4  1  0
  8  2  1  0
  8  9  1  0
  9  1  2  0
 10 11  2  0
 10  4  1  0
 11  3  1  0
 12 11  1  0
 13  3  1  0
  1 14  1  0
  6 15  1  0
  6 16  1  0
  6 17  1  0
 10 18  1  0
 13 19  1  0
 13 20  1  0
 13 21  1  0
M  END
>  <mol_id>  (30) 
2026-09-18-6fnk-s0-n100-refligand-0031

>  <rmsd_to_ref>  (30) 


$$$$

     RDKit          3D

 25 27  0  0  0  0  0  0  0  0999 V2000
    3.0292   15.8909   43.5788 C   0  0  0  0  0  0  0  0  0  0  0  0
    2.3740   18.2637   42.4497 C   0  0  0  0  0  0  0  0  0  0  0  0
    2.9568   20.2216   41.0278 C   0  0  0  0  0  0  0  0  0  0  0  0
    3.0364   17.4558   41.6673 O   0  0  0  0  0  0  0  0  0  0  0  0
    0.7333   22.0625   43.2824 N   0  0  0  0  0  0  0  0  0  0  0  0
    2.9713   16.0094   42.0428 C   0  0  0  0  0  0  0  0  0  0  0  0
    3.2610   15.2091   41.2414 O   0  0  0  0  0  0  0  0  0  0  0  0
    0.6983   20.9194   43.7776 C   0  0  0  0  0  0  0  0  0  0  0  0
    1.1207   18.9745   44.0412 C   0  0  0  0  0  0  0  0  0  0  0  0
    1.7233   16.5581   44.1114 C   0  0  0  0  0  0  0  0  0  0  0  0
    0.2553   19.0820   44.9884 N   0  0  0  0  0  0  0  0  0  0  0  0
   -0.0609   20.4933   44.8523 N   0  0  0  0  0  0  0  0  0  0  0  0
    2.2717   19.6349   42.2505 C   0  0  0  0  0  0  0  0  0  0  0  0
    1.3827   19.9721   43.3253 C   0  0  0  0  0  0  0  0  0  0  0  0
    1.7993   17.9391   43.5939 N   0  0  0  0  0  0  0  0  0  0  0  0
    3.9134   16.4158   43.9695 H   0  0  0  0  0  0  0  0  0  0  0  0
    3.1049   14.8413   43.8991 H   0  0  0  0  0  0  0  0  0  0  0  0
    3.4730   21.1517   41.3077 H   0  0  0  0  0  0  0  0  0  0  0  0
    3.6885   19.4998   40.6358 H   0  0  0  0  0  0  0  0  0  0  0  0
    2.2049   20.4379   40.2546 H   0  0  0  0  0  0  0  0  0  0  0  0
    1.3445   22.2560   42.4763 H   0  0  0  0  0  0  0  0  0  0  0  0
    0.1510   22.8136   43.6793 H   0  0  0  0  0  0  0  0  0  0  0  0
    0.8327   16.0422   43.7232 H   0  0  0  0  0  0  0  0  0  0  0  0
    1.6405   16.5177   45.2076 H   0  0  0  0  0  0  0  0  0  0  0  0
   -0.7067   21.0523   45.4281 H   0  0  0  0  0  0  0  0  0  0  0  0
  1 10  1  0
  2 13  2  0
  2 15  1  0
  3 13  1  0
  4  6  1  0
  4  2  1  0
  5  8  1  0
  6  1  1  0
  7  6  2  0
  8 12  1  0
  9 11  2  0
 11 12  1  0
 13 14  1  0
 14  9  1  0
 14  8  2  0
 15 10  1  0
 15  9  1  0
  1 16  1  0
  1 17  1  0
  3 18  1  0
  3 19  1  0
  3 20  1  0
  5 21  1  0
  5 22  1  0
 10 23  1  0
 10 24  1  0
 12 25  1  0
M  END
>  <mol_id>  (31) 
2026-09-18-6fnk-s0-n100-refligand-0032

>  <rmsd_to_ref>  (31) 


$$$$

     RDKit          3D

 29 30  0  0  0  0  0  0  0  0999 V2000
    0.4829   21.3443   42.5517 C   0  0  0  0  0  0  0  0  0  0  0  0
    0.5764   17.8732   43.3106 C   0  0  0  0  0  0  0  0  0  0  0  0
    1.3106   20.1756   42.9736 C   0  0  0  0  0  0  0  0  0  0  0  0
    0.5573   19.0377   42.8680 N   0  0  0  0  0  0  0  0  0  0  0  0
   -1.1442   18.7426   46.2631 O   0  0  0  0  0  0  0  0  0  0  0  0
    1.2802   14.2892   44.3618 Cl  0  0  0  0  0  0  0  0  0  0  0  0
   -1.5202   19.9043   44.4773 O   0  0  0  0  0  0  0  0  0  0  0  0
    0.9235   21.7393   41.1761 C   0  0  0  0  0  0  0  0  0  0  0  0
    0.6739   15.7587   44.0756 C   0  0  0  0  0  0  0  0  0  0  0  0
   -0.1697   17.8014   44.4530 C   0  0  2  0  0  0  0  0  0  0  0  0
    2.1621   19.8279   41.8068 C   0  0  0  0  0  0  0  0  0  0  0  0
   -0.0423   16.5465   44.9302 C   0  0  0  0  0  0  0  0  0  0  0  0
   -1.0240   18.8825   45.0649 C   0  0  0  0  0  0  0  0  0  0  0  0
    1.0004   16.5524   42.9338 C   0  0  0  0  0  0  0  0  0  0  0  0
    1.4653   20.3940   40.6141 C   0  0  0  0  0  0  0  0  0  0  0  0
   -0.5810   21.0651   42.5389 H   0  0  0  0  0  0  0  0  0  0  0  0
    0.6113   22.1816   43.2534 H   0  0  0  0  0  0  0  0  0  0  0  0
    1.7626   20.4158   43.9473 H   0  0  0  0  0  0  0  0  0  0  0  0
   -0.3706   19.3665   43.1710 H   0  0  0  0  0  0  0  0  0  0  0  0
    0.9738   18.7693   41.9651 H   0  0  0  0  0  0  0  0  0  0  0  0
    0.0795   22.1122   40.5773 H   0  0  0  0  0  0  0  0  0  0  0  0
    1.6607   22.5556   41.1628 H   0  0  0  0  0  0  0  0  0  0  0  0
    0.6930   18.1518   45.0385 H   0  0  0  0  0  0  0  0  0  0  0  0
    3.1614   20.2746   41.9149 H   0  0  0  0  0  0  0  0  0  0  0  0
    2.3022   18.7406   41.7166 H   0  0  0  0  0  0  0  0  0  0  0  0
   -0.4621   16.2015   45.8866 H   0  0  0  0  0  0  0  0  0  0  0  0
    1.4656   16.2297   41.9907 H   0  0  0  0  0  0  0  0  0  0  0  0
    0.6464   19.7399   40.2800 H   0  0  0  0  0  0  0  0  0  0  0  0
    2.1109   20.5062   39.7307 H   0  0  0  0  0  0  0  0  0  0  0  0
  1  3  1  0
  2 10  1  0
  3  4  1  0
  4  2  1  0
  7 13  2  0
  8  1  1  0
  9  6  1  0
  9 12  2  0
 10 13  1  0
 10 12  1  0
 11  3  1  0
 13  5  1  0
 14  2  2  0
 14  9  1  0
 15  8  1  0
 15 11  1  0
  1 16  1  0
  1 17  1  0
  3 18  1  0
  4 19  1  0
  4 20  1  0
  8 21  1  0
  8 22  1  0
 10 23  1  1
 11 24  1  0
 11 25  1  0
 12 26  1  0
 14 27  1  0
 15 28  1  0
 15 29  1  0
M  CHG  2   4   1   5  -1
M  END
>  <mol_id>  (32) 
2026-09-18-6fnk-s0-n100-refligand-0033

>  <rmsd_to_ref>  (32) 


$$$$

     RDKit          3D

 27 28  0  0  0  0  0  0  0  0999 V2000
    1.9715   18.9195   42.1821 O   0  0  0  0  0  0  0  0  0  0  0  0
    2.2161   15.5085   42.3577 C   0  0  0  0  0  0  0  0  0  0  0  0
    1.6345   16.5979   42.8502 C   0  0  0  0  0  0  0  0  0  0  0  0
   -0.3558   20.0086   45.2323 N   0  0  0  0  0  0  0  0  0  0  0  0
    0.8955   18.3273   44.0890 C   0  0  0  0  0  0  0  0  0  0  0  0
    0.0433   17.9189   46.2248 N   0  0  0  0  0  0  0  0  0  0  0  0
    0.1611   18.7245   45.2235 C   0  0  0  0  0  0  0  0  0  0  0  0
    0.5950   20.4798   43.1056 C   0  0  0  0  0  0  0  0  0  0  0  0
    1.1217   19.2089   43.0698 C   0  0  0  0  0  0  0  0  0  0  0  0
    2.0221   14.6144   44.5045 C   0  0  0  0  0  0  0  0  0  0  0  0
   -0.1775   20.8938   44.1617 C   0  0  0  0  0  0  0  0  0  0  0  0
    3.0211   19.8754   41.8912 C   0  0  0  0  0  0  0  0  0  0  0  0
    1.5364   15.7703   44.8784 C   0  0  0  0  0  0  0  0  0  0  0  0
    2.4664   14.4005   43.1567 C   0  0  0  0  0  0  0  0  0  0  0  0
    1.3908   16.9311   43.9998 C   0  0  0  0  0  0  0  0  0  0  0  0
    2.5048   15.4843   41.2966 H   0  0  0  0  0  0  0  0  0  0  0  0
    1.3175   17.3265   42.0895 H   0  0  0  0  0  0  0  0  0  0  0  0
   -0.4930   18.2056   47.0561 H   0  0  0  0  0  0  0  0  0  0  0  0
    0.4854   16.9892   46.1926 H   0  0  0  0  0  0  0  0  0  0  0  0
    0.7961   21.1735   42.2760 H   0  0  0  0  0  0  0  0  0  0  0  0
    2.0909   13.7941   45.2342 H   0  0  0  0  0  0  0  0  0  0  0  0
   -0.6425   21.8907   44.1672 H   0  0  0  0  0  0  0  0  0  0  0  0
    3.4996   20.1914   42.8299 H   0  0  0  0  0  0  0  0  0  0  0  0
    3.7713   19.4082   41.2364 H   0  0  0  0  0  0  0  0  0  0  0  0
    2.5890   20.7522   41.3867 H   0  0  0  0  0  0  0  0  0  0  0  0
    1.2155   15.8767   45.9252 H   0  0  0  0  0  0  0  0  0  0  0  0
    2.9448   13.4759   42.8014 H   0  0  0  0  0  0  0  0  0  0  0  0
  1 12  1  0
  1  9  1  0
  2  3  1  0
  2 14  2  0
  3 15  2  0
  5  7  2  0
  7  4  1  0
  7  6  1  0
  8 11  1  0
  9  8  2  0
  9  5  1  0
 10 13  2  0
 11  4  2  0
 14 10  1  0
 15  5  1  0
 15 13  1  0
  2 16  1  0
  3 17  1  0
  6 18  1  0
  6 19  1  0
  8 20  1  0
 10 21  1  0
 11 22  1  0
 12 23  1  0
 12 24  1  0
 12 25  1  0
 13 26  1  0
 14 27  1  0
M  END
>  <mol_id>  (33) 
2026-09-18-6fnk-s0-n100-refligand-0034

>  <rmsd_to_ref>  (33) 


$$$$

     RDKit          3D

 54 56  0  0  0  0  0  0  0  0999 V2000
    2.1640   19.0113   43.3961 C   0  0  0  0  0  0  0  0  0  0  0  0
    0.3611   11.1293   43.7044 O   0  0  0  0  0  0  0  0  0  0  0  0
    2.7357   16.6288   40.6664 O   0  0  0  0  0  0  0  0  0  0  0  0
    2.5586   17.6137   42.8293 C   0  0  0  0  0  0  0  0  0  0  0  0
    1.6033   12.4380   41.9851 C   0  0  0  0  0  0  0  0  0  0  0  0
    0.8519   17.5179   44.8399 N   0  0  0  0  0  0  0  0  0  0  0  0
    0.3174   20.1870   44.9150 C   0  0  0  0  0  0  0  0  0  0  0  0
    2.0196   13.4469   41.3133 O   0  0  0  0  0  0  0  0  0  0  0  0
    3.0628   20.2555   40.6294 C   0  0  2  0  0  0  0  0  0  0  0  0
    0.2581   13.5122   44.0433 C   0  0  0  0  0  0  0  0  0  0  0  0
    2.9547   18.8592   40.6099 C   0  0  2  0  0  0  0  0  0  0  0  0
   -1.1442   17.7867   45.6143 O   0  0  0  0  0  0  0  0  0  0  0  0
    2.1751   20.4359   42.7105 C   0  0  0  0  0  0  0  0  0  0  0  0
    3.3275   20.9551   39.6387 O   0  0  0  0  0  0  0  0  0  0  0  0
    2.0950   11.1072   41.7371 N   0  0  0  0  0  0  0  0  0  0  0  0
    2.3506   17.0648   39.3628 C   0  0  0  0  0  0  0  0  0  0  0  0
   -0.3967   15.4910   45.4302 C   0  0  0  0  0  0  0  0  0  0  0  0
    0.4717   12.4831   42.9665 C   0  0  2  0  0  0  0  0  0  0  0  0
    3.6654   21.1729   38.6556 C   0  0  0  0  0  0  0  0  0  0  0  0
    1.2020   21.4693   43.1145 C   0  0  0  0  0  0  0  0  0  0  0  0
   -0.3538   20.3057   46.0990 O   0  0  0  0  0  0  0  0  0  0  0  0
    0.3249   21.4134   44.1499 C   0  0  0  0  0  0  0  0  0  0  0  0
    0.6140   14.8946   44.4757 C   0  0  0  0  0  0  0  0  0  0  0  0
   -0.2919   17.0310   45.3417 C   0  0  0  0  0  0  0  0  0  0  0  0
    2.7390   18.3774   39.2673 O   0  0  0  0  0  0  0  0  0  0  0  0
    1.1142   18.8454   44.5666 C   0  0  0  0  0  0  0  0  0  0  0  0
    2.7196   17.7482   41.3083 C   0  0  2  0  0  0  0  0  0  0  0  0
    2.9896   20.9360   41.8041 C   0  0  0  0  0  0  0  0  0  0  0  0
    0.3414   11.2868   44.6816 H   0  0  0  0  0  0  0  0  0  0  0  0
    3.5071   17.2831   43.2775 H   0  0  0  0  0  0  0  0  0  0  0  0
    1.7829   16.8712   43.0678 H   0  0  0  0  0  0  0  0  0  0  0  0
    1.6021   16.8410   44.6404 H   0  0  0  0  0  0  0  0  0  0  0  0
    1.9897   20.3418   40.4036 H   0  0  0  0  0  0  0  0  0  0  0  0
    0.5764   12.9409   44.9278 H   0  0  0  0  0  0  0  0  0  0  0  0
   -0.6433   13.8841   43.5342 H   0  0  0  0  0  0  0  0  0  0  0  0
    3.5071   19.2377   41.4826 H   0  0  0  0  0  0  0  0  0  0  0  0
    2.8728   10.9600   41.0782 H   0  0  0  0  0  0  0  0  0  0  0  0
    1.6687   10.3027   42.2186 H   0  0  0  0  0  0  0  0  0  0  0  0
    2.8554   16.4610   38.5943 H   0  0  0  0  0  0  0  0  0  0  0  0
    1.2671   16.9553   39.2075 H   0  0  0  0  0  0  0  0  0  0  0  0
   -1.4103   15.1697   45.1484 H   0  0  0  0  0  0  0  0  0  0  0  0
   -0.1950   15.1541   46.4577 H   0  0  0  0  0  0  0  0  0  0  0  0
   -0.2776   12.7900   42.2220 H   0  0  0  0  0  0  0  0  0  0  0  0
    4.5909   21.7652   38.7088 H   0  0  0  0  0  0  0  0  0  0  0  0
    3.8618   20.2331   38.1188 H   0  0  0  0  0  0  0  0  0  0  0  0
    2.8934   21.7461   38.1213 H   0  0  0  0  0  0  0  0  0  0  0  0
    1.1852   22.3876   42.5092 H   0  0  0  0  0  0  0  0  0  0  0  0
   -0.4247   19.5283   46.7079 H   0  0  0  0  0  0  0  0  0  0  0  0
   -0.3420   22.2538   44.3925 H   0  0  0  0  0  0  0  0  0  0  0  0
    1.5937   14.8649   44.9752 H   0  0  0  0  0  0  0  0  0  0  0  0
    0.6324   15.5275   43.5763 H   0  0  0  0  0  0  0  0  0  0  0  0
    3.7961   17.6476   41.5107 H   0  0  0  0  0  0  0  0  0  0  0  0
    3.9995   20.9665   42.2391 H   0  0  0  0  0  0  0  0  0  0  0  0
    2.5795   21.9245   41.5496 H   0  0  0  0  0  0  0  0  0  0  0  0
  1 26  1  0
  3 27  1  0
  4  1  1  0
  5 18  1  0
  6 24  1  0
  7 21  1  0
  8  5  2  0
  9 14  1  0
  9 11  1  0
  9 28  1  0
 10 23  1  0
 11 25  1  0
 11 27  1  0
 13 20  1  0
 13  1  2  0
 15  5  1  0
 16  3  1  0
 18  2  1  0
 18 10  1  0
 19 14  1  0
 20 22  2  0
 22  7  1  0
 23 17  1  0
 24 17  1  0
 24 12  2  0
 25 16  1  0
 26  6  1  0
 26  7  2  0
 27  4  1  0
 28 13  1  0
  2 29  1  0
  4 30  1  0
  4 31  1  0
  6 32  1  0
  9 33  1  6
 10 34  1  0
 10 35  1  0
 11 36  1  6
 15 37  1  0
 15 38  1  0
 16 39  1  0
 16 40  1  0
 17 41  1  0
 17 42  1  0
 18 43  1  6
 19 44  1  0
 19 45  1  0
 19 46  1  0
 20 47  1  0
 21 48  1  0
 22 49  1  0
 23 50  1  0
 23 51  1  0
 27 52  1  6
 28 53  1  0
 28 54  1  0
M  END
>  <mol_id>  (34) 
2026-09-18-6fnk-s0-n100-refligand-0035

>  <rmsd_to_ref>  (34) 


$$$$

     RDKit          3D

 46 47  0  0  0  0  0  0  0  0999 V2000
    3.8453   15.3866   41.0703 O   0  0  0  0  0  0  0  0  0  0  0  0
    1.6354   13.0180   42.6449 C   0  0  0  0  0  0  0  0  0  0  0  0
   -0.9446   20.2621   45.8623 N   0  0  0  0  0  0  0  0  0  0  0  0
    1.8847   15.2144   42.3772 C   0  0  0  0  0  0  0  0  0  0  0  0
    2.5381   19.2257   41.4572 C   0  0  0  0  0  0  0  0  0  0  0  0
   -0.0760   20.6313   44.9738 C   0  0  0  0  0  0  0  0  0  0  0  0
    3.9242   20.5889   39.8784 C   0  0  0  0  0  0  0  0  0  0  0  0
   -0.9877   17.8395   46.5138 C   0  0  0  0  0  0  0  0  0  0  0  0
    0.3867   16.0502   45.0833 C   0  0  0  0  0  0  0  0  0  0  0  0
   -1.0888   16.5034   46.9355 C   0  0  0  0  0  0  0  0  0  0  0  0
    2.3908   18.5715   42.8856 C   0  0  0  0  0  0  0  0  0  0  0  0
    2.9343   14.6498   41.7048 C   0  0  0  0  0  0  0  0  0  0  0  0
   -0.0794   21.5884   44.3692 O   0  0  0  0  0  0  0  0  0  0  0  0
   -0.3880   15.6222   46.1299 C   0  0  0  0  0  0  0  0  0  0  0  0
    1.5233   17.5019   43.2465 C   0  0  1  0  0  0  0  0  0  0  0  0
    0.7446   19.9249   44.5816 O   0  0  0  0  0  0  0  0  0  0  0  0
    0.5642   17.2257   44.5169 C   0  0  0  0  0  0  0  0  0  0  0  0
    1.8638   19.4024   39.0320 C   0  0  0  0  0  0  0  0  0  0  0  0
    1.7307   18.8776   40.4002 C   0  0  0  0  0  0  0  0  0  0  0  0
   -0.1113   18.1805   45.4505 C   0  0  0  0  0  0  0  0  0  0  0  0
    1.0599   14.2188   43.0368 N   0  0  0  0  0  0  0  0  0  0  0  0
    2.8375   13.2570   41.6869 N   0  0  0  0  0  0  0  0  0  0  0  0
    2.7560   20.5942   38.8480 C   0  0  0  0  0  0  0  0  0  0  0  0
    1.4494   16.4249   42.3537 N   0  0  0  0  0  0  0  0  0  0  0  0
    3.5614   20.2239   41.3090 C   0  0  0  0  0  0  0  0  0  0  0  0
    1.2868   12.0265   42.9694 H   0  0  0  0  0  0  0  0  0  0  0  0
   -0.8323   19.3614   46.3491 H   0  0  0  0  0  0  0  0  0  0  0  0
   -1.7470   20.8695   46.0815 H   0  0  0  0  0  0  0  0  0  0  0  0
    4.3636   21.5972   39.8913 H   0  0  0  0  0  0  0  0  0  0  0  0
    4.6094   19.7979   39.5395 H   0  0  0  0  0  0  0  0  0  0  0  0
   -1.5863   18.6199   47.0066 H   0  0  0  0  0  0  0  0  0  0  0  0
    0.9816   15.2479   44.6222 H   0  0  0  0  0  0  0  0  0  0  0  0
   -1.6666   16.1890   47.8171 H   0  0  0  0  0  0  0  0  0  0  0  0
    3.4003   18.2185   43.1426 H   0  0  0  0  0  0  0  0  0  0  0  0
    1.8866   19.3967   43.4100 H   0  0  0  0  0  0  0  0  0  0  0  0
   -0.4551   14.5439   46.3364 H   0  0  0  0  0  0  0  0  0  0  0  0
    2.3547   17.0028   43.7657 H   0  0  0  0  0  0  0  0  0  0  0  0
    0.8587   19.6824   38.6839 H   0  0  0  0  0  0  0  0  0  0  0  0
    2.3419   18.5941   38.4592 H   0  0  0  0  0  0  0  0  0  0  0  0
    0.9256   18.1530   40.5916 H   0  0  0  0  0  0  0  0  0  0  0  0
    0.0910   19.2509   45.2978 H   0  0  0  0  0  0  0  0  0  0  0  0
    3.1748   20.5752   37.8310 H   0  0  0  0  0  0  0  0  0  0  0  0
    2.1580   21.5040   39.0046 H   0  0  0  0  0  0  0  0  0  0  0  0
    0.9347   16.6514   41.4907 H   0  0  0  0  0  0  0  0  0  0  0  0
    3.2172   21.1384   41.8142 H   0  0  0  0  0  0  0  0  0  0  0  0
    4.4713   19.7878   41.7471 H   0  0  0  0  0  0  0  0  0  0  0  0
  1 12  2  0
  2 21  1  0
  4 24  1  0
  4 21  2  0
  5 25  1  0
  5 11  1  0
  6  3  1  0
  7 25  1  0
  8 10  2  0
  9 14  2  0
 12  4  1  0
 13  6  1  0
 14 10  1  0
 15 11  1  0
 15 17  1  0
 16  6  2  0
 17  9  1  0
 17 20  2  0
 18 23  1  0
 18 19  1  0
 19  5  2  0
 20  8  1  0
 22 12  1  0
 22  2  2  0
 23  7  1  0
 24 15  1  0
  2 26  1  0
  3 27  1  0
  3 28  1  0
  7 29  1  0
  7 30  1  0
  8 31  1  0
  9 32  1  0
 10 33  1  0
 11 34  1  0
 11 35  1  0
 14 36  1  0
 15 37  1  1
 18 38  1  0
 18 39  1  0
 19 40  1  0
 20 41  1  0
 23 42  1  0
 23 43  1  0
 24 44  1  0
 25 45  1  0
 25 46  1  0
M  CHG  1  13  -1
M  END
>  <mol_id>  (35) 
2026-09-18-6fnk-s0-n100-refligand-0036

>  <rmsd_to_ref>  (35) 


$$$$

     RDKit          3D

 21 21  0  0  0  0  0  0  0  0999 V2000
    1.5599   17.6223   44.1476 C   0  0  0  0  0  0  0  0  0  0  0  0
    1.2902   16.7536   42.9890 N   0  0  0  0  0  0  0  0  0  0  0  0
    2.3146   19.0612   40.9635 O   0  0  0  0  0  0  0  0  0  0  0  0
    2.5196   21.2090   41.5357 N   0  0  0  0  0  0  0  0  0  0  0  0
    0.8404   21.1541   43.3986 C   0  0  0  0  0  0  0  0  0  0  0  0
    0.0285   19.1153   45.0781 C   0  0  0  0  0  0  0  0  0  0  0  0
   -0.0372   21.4362   44.4450 N   0  0  0  0  0  0  0  0  0  0  0  0
   -0.4645   20.3663   45.2523 C   0  0  0  0  0  0  0  0  0  0  0  0
    1.2830   19.8437   43.1062 C   0  0  0  0  0  0  0  0  0  0  0  0
    0.8296   18.8581   44.0296 C   0  0  0  0  0  0  0  0  0  0  0  0
    2.1267   19.9818   41.8122 C   0  0  0  0  0  0  0  0  0  0  0  0
    1.2509   17.1052   45.0681 H   0  0  0  0  0  0  0  0  0  0  0  0
    2.6364   17.8460   44.1829 H   0  0  0  0  0  0  0  0  0  0  0  0
    0.9333   15.8448   43.3170 H   0  0  0  0  0  0  0  0  0  0  0  0
    0.5878   17.1994   42.3817 H   0  0  0  0  0  0  0  0  0  0  0  0
    2.1608   16.6091   42.4581 H   0  0  0  0  0  0  0  0  0  0  0  0
    2.3707   21.9640   42.2203 H   0  0  0  0  0  0  0  0  0  0  0  0
    2.9756   21.4130   40.6349 H   0  0  0  0  0  0  0  0  0  0  0  0
    1.2028   21.9849   42.7754 H   0  0  0  0  0  0  0  0  0  0  0  0
   -0.2254   18.3161   45.7900 H   0  0  0  0  0  0  0  0  0  0  0  0
   -1.2118   20.5479   46.0388 H   0  0  0  0  0  0  0  0  0  0  0  0
  2  1  1  0
  3 11  2  0
  4 11  1  0
  5  7  1  0
  6  8  1  0
  7  8  2  0
  9  5  2  0
  9 10  1  0
 10  1  1  0
 10  6  2  0
 11  9  1  0
  1 12  1  0
  1 13  1  0
  2 14  1  0
  2 15  1  0
  2 16  1  0
  4 17  1  0
  4 18  1  0
  5 19  1  0
  6 20  1  0
  8 21  1  0
M  CHG  1   2   1
M  END
>  <mol_id>  (36) 
2026-09-18-6fnk-s0-n100-refligand-0037

>  <rmsd_to_ref>  (36) 


$$$$

     RDKit          3D

 19 20  0  0  0  0  0  0  0  0999 V2000
    2.0140   19.3660   41.8203 C   0  0  0  0  0  0  0  0  0  0  0  0
    1.8668   17.9261   41.6078 N   0  0  0  0  0  0  0  0  0  0  0  0
    2.2471   15.3627   41.9486 Cl  0  0  0  0  0  0  0  0  0  0  0  0
    0.6782   18.6381   43.3629 C   0  0  0  0  0  0  0  0  0  0  0  0
   -0.2348   16.7171   44.2097 C   0  0  0  0  0  0  0  0  0  0  0  0
    0.8164   16.4115   43.0316 N   0  0  0  0  0  0  0  0  0  0  0  0
    1.1937   19.8445   42.8715 C   0  0  0  0  0  0  0  0  0  0  0  0
    1.0377   21.0930   43.2210 N   0  0  0  0  0  0  0  0  0  0  0  0
    1.1275   17.5080   42.6246 N   0  0  0  0  0  0  0  0  0  0  0  0
   -1.0704   18.8282   45.3218 C   0  0  0  0  0  0  0  0  0  0  0  0
   -1.1021   20.1249   45.1907 O   0  0  0  0  0  0  0  0  0  0  0  0
   -0.1989   18.1062   44.3108 C   0  0  0  0  0  0  0  0  0  0  0  0
    2.6864   20.0057   41.2298 H   0  0  0  0  0  0  0  0  0  0  0  0
   -0.8353   16.0037   44.7930 H   0  0  0  0  0  0  0  0  0  0  0  0
    0.4141   21.3345   44.0044 H   0  0  0  0  0  0  0  0  0  0  0  0
    1.5382   21.8364   42.7132 H   0  0  0  0  0  0  0  0  0  0  0  0
   -0.6916   18.5954   46.3279 H   0  0  0  0  0  0  0  0  0  0  0  0
   -2.0982   18.4752   45.1520 H   0  0  0  0  0  0  0  0  0  0  0  0
   -1.2666   20.5419   46.0734 H   0  0  0  0  0  0  0  0  0  0  0  0
  1  7  1  0
  2  1  2  0
  2  9  1  0
  3  6  1  0
  4 12  1  0
  5 12  2  0
  6  5  1  0
  7  8  1  0
  7  4  2  0
  9  6  1  0
  9  4  1  0
 11 10  1  0
 12 10  1  0
  1 13  1  0
  5 14  1  0
  8 15  1  0
  8 16  1  0
 10 17  1  0
 10 18  1  0
 11 19  1  0
M  END
>  <mol_id>  (37) 
2026-09-18-6fnk-s0-n100-refligand-0038

>  <rmsd_to_ref>  (37) 


$$$$

     RDKit          3D

 44 47  0  0  0  0  0  0  0  0999 V2000
    2.9629   12.9362   42.9434 C   0  0  0  0  0  0  0  0  0  0  0  0
    4.3800   20.3147   41.4034 N   0  0  0  0  0  0  0  0  0  0  0  0
    2.8924   14.0105   41.8643 C   0  0  0  0  0  0  0  0  0  0  0  0
    0.0319   21.3060   44.0049 N   0  0  0  0  0  0  0  0  0  0  0  0
    3.2710   15.3606   42.4339 C   0  0  0  0  0  0  0  0  0  0  0  0
    1.9515   17.1580   43.3975 C   0  0  0  0  0  0  0  0  0  0  0  0
    2.2643   13.3530   44.1678 C   0  0  0  0  0  0  0  0  0  0  0  0
    2.7284   18.1127   42.8580 N   0  0  0  0  0  0  0  0  0  0  0  0
   -0.7838   19.5248   45.2729 N   0  0  0  0  0  0  0  0  0  0  0  0
   -0.0586   17.2922   44.8676 C   0  0  0  0  0  0  0  0  0  0  0  0
    2.3928   20.5766   42.2964 C   0  0  0  0  0  0  0  0  0  0  0  0
    1.0283   19.1141   43.7815 C   0  0  0  0  0  0  0  0  0  0  0  0
    0.9517   17.7547   44.0215 N   0  0  0  0  0  0  0  0  0  0  0  0
    0.1108   19.9791   44.3482 C   0  0  0  0  0  0  0  0  0  0  0  0
    3.3568   20.6647   41.4480 C   0  0  1  0  0  0  0  0  0  0  0  0
    2.1127   19.3182   42.9498 C   0  0  0  0  0  0  0  0  0  0  0  0
   -1.5574   17.7466   46.5614 N   0  0  0  0  0  0  0  0  0  0  0  0
   -0.7517   18.1970   45.5416 C   0  0  0  0  0  0  0  0  0  0  0  0
    2.1268   14.8577   44.4994 C   0  0  0  0  0  0  0  0  0  0  0  0
    3.9999   21.4406   40.7786 C   0  0  0  0  0  0  0  0  0  0  0  0
    2.2005   15.6805   43.3310 C   0  0  0  0  0  0  0  0  0  0  0  0
    4.0183   12.7402   43.1837 H   0  0  0  0  0  0  0  0  0  0  0  0
    2.4729   12.0294   42.5591 H   0  0  0  0  0  0  0  0  0  0  0  0
    4.9812   20.3629   42.2384 H   0  0  0  0  0  0  0  0  0  0  0  0
    4.8466   19.4400   41.1238 H   0  0  0  0  0  0  0  0  0  0  0  0
    1.8671   14.0593   41.4687 H   0  0  0  0  0  0  0  0  0  0  0  0
    3.5977   13.7535   41.0602 H   0  0  0  0  0  0  0  0  0  0  0  0
   -0.6684   21.9134   44.4539 H   0  0  0  0  0  0  0  0  0  0  0  0
    0.6730   21.6940   43.2982 H   0  0  0  0  0  0  0  0  0  0  0  0
    4.2273   15.3010   42.9743 H   0  0  0  0  0  0  0  0  0  0  0  0
    3.4060   16.1230   41.6526 H   0  0  0  0  0  0  0  0  0  0  0  0
    1.2443   12.9457   44.1069 H   0  0  0  0  0  0  0  0  0  0  0  0
    2.9103   12.9722   44.9726 H   0  0  0  0  0  0  0  0  0  0  0  0
   -0.2704   16.2177   44.9702 H   0  0  0  0  0  0  0  0  0  0  0  0
    1.4752   20.8683   41.7645 H   0  0  0  0  0  0  0  0  0  0  0  0
    2.7270   21.2200   43.1237 H   0  0  0  0  0  0  0  0  0  0  0  0
    2.3199   20.3093   41.3560 H   0  0  0  0  0  0  0  0  0  0  0  0
   -1.5692   16.7459   46.8048 H   0  0  0  0  0  0  0  0  0  0  0  0
   -2.1491   18.4101   47.0817 H   0  0  0  0  0  0  0  0  0  0  0  0
    1.1559   15.0247   44.9890 H   0  0  0  0  0  0  0  0  0  0  0  0
    2.9624   15.1345   45.1591 H   0  0  0  0  0  0  0  0  0  0  0  0
    4.2814   22.4336   41.1591 H   0  0  0  0  0  0  0  0  0  0  0  0
    3.9943   21.8691   39.7655 H   0  0  0  0  0  0  0  0  0  0  0  0
    1.2435   15.3429   42.9067 H   0  0  0  0  0  0  0  0  0  0  0  0
  1  7  1  0
  2 15  1  0
  3  5  1  0
  3  1  1  0
  4 14  1  0
  5 21  1  0
  6 21  1  0
  6 13  1  0
  7 19  1  0
  8 16  1  0
  8  6  2  0
  9 18  1  0
 10 18  2  0
 11 16  1  0
 12 13  1  0
 12 14  1  0
 13 10  1  0
 14  9  2  0
 15 11  1  0
 16 12  2  0
 18 17  1  0
 20  2  1  0
 20 15  1  0
 21 19  1  0
  1 22  1  0
  1 23  1  0
  2 24  1  0
  2 25  1  0
  3 26  1  0
  3 27  1  0
  4 28  1  0
  4 29  1  0
  5 30  1  0
  5 31  1  0
  7 32  1  0
  7 33  1  0
 10 34  1  0
 11 35  1  0
 11 36  1  0
 15 37  1  6
 17 38  1  0
 17 39  1  0
 19 40  1  0
 19 41  1  0
 20 42  1  0
 20 43  1  0
 21 44  1  0
M  CHG  1   2   1
M  END
>  <mol_id>  (38) 
2026-09-18-6fnk-s0-n100-refligand-0039

>  <rmsd_to_ref>  (38) 


$$$$

     RDKit          3D

 53 55  0  0  0  0  0  0  0  0999 V2000
    0.3600   13.9640   43.8490 C   0  0  0  0  0  0  0  0  0  0  0  0
    1.3040   14.7270   43.2360 C   0  0  0  0  0  0  0  0  0  0  0  0
    2.6700   20.4270   39.8680 C   0  0  0  0  0  0  0  0  0  0  0  0
    2.5510   15.7400   41.0700 C   0  0  2  0  0  0  0  0  0  0  0  0
    2.9210   14.3600   41.3590 C   0  0  0  0  0  0  0  0  0  0  0  0
    0.2300   14.2590   44.1150 C   0  0  0  0  0  0  0  0  0  0  0  0
    0.2520   15.5070   41.5390 C   0  0  0  0  0  0  0  0  0  0  0  0
    0.3180   17.6880   43.7860 C   0  0  0  0  0  0  0  0  0  0  0  0
    1.2660   21.6180   41.5550 N   0  0  0  0  0  0  0  0  0  0  0  0
    2.1950   19.4710   39.0470 O   0  0  0  0  0  0  0  0  0  0  0  0
    2.6290   17.2010   41.0020 C   0  0  0  0  0  0  0  0  0  0  0  0
   -0.1650   19.6930   44.6450 C   0  0  0  0  0  0  0  0  0  0  0  0
    1.5070   17.2620   43.0720 C   0  0  2  0  0  0  0  0  0  0  0  0
    0.5390   21.1770   42.5590 N   0  0  0  0  0  0  0  0  0  0  0  0
    0.7680   19.8480   42.8450 C   0  0  0  0  0  0  0  0  0  0  0  0
   -0.8070   18.7120   46.0170 C   0  0  0  0  0  0  0  0  0  0  0  0
    2.4890   13.8130   42.7280 C   0  0  0  0  0  0  0  0  0  0  0  0
    1.9420   20.5420   41.1020 C   0  0  0  0  0  0  0  0  0  0  0  0
    1.5990   19.3910   41.9350 C   0  0  0  0  0  0  0  0  0  0  0  0
    1.9270   18.0120   42.0220 C   0  0  0  0  0  0  0  0  0  0  0  0
   -0.3190   17.1610   44.6750 N   0  0  0  0  0  0  0  0  0  0  0  0
    0.2680   19.0690   43.7510 C   0  0  1  0  0  0  0  0  0  0  0  0
    2.7070   12.8850   43.2030 O   0  0  0  0  0  0  0  0  0  0  0  0
    1.2810   15.9580   42.3810 C   0  0  2  0  0  0  0  0  0  0  0  0
   -1.2720   17.4580   45.5850 C   0  0  0  0  0  0  0  0  0  0  0  0
    3.4680   21.2950   39.4660 O   0  0  0  0  0  0  0  0  0  0  0  0
   -0.9580   19.8730   45.3890 O   0  0  0  0  0  0  0  0  0  0  0  0
    0.7879   13.0896   44.3611 H   0  0  0  0  0  0  0  0  0  0  0  0
   -0.4019   13.4983   43.2066 H   0  0  0  0  0  0  0  0  0  0  0  0
    1.9221   15.2266   43.9964 H   0  0  0  0  0  0  0  0  0  0  0  0
    1.9413   14.0873   42.6078 H   0  0  0  0  0  0  0  0  0  0  0  0
    0.8122   15.4843   42.6078 H   0  0  0  0  0  0  0  0  0  0  0  0
    2.9901   15.5462   40.0803 H   0  0  0  0  0  0  0  0  0  0  0  0
    2.4686   13.7224   40.5852 H   0  0  0  0  0  0  0  0  0  0  0  0
    4.0209   14.3472   41.3713 H   0  0  0  0  0  0  0  0  0  0  0  0
    0.3821   13.9138   45.1483 H   0  0  0  0  0  0  0  0  0  0  0  0
    0.8047   15.1820   43.9484 H   0  0  0  0  0  0  0  0  0  0  0  0
   -0.8390   14.4576   43.9484 H   0  0  0  0  0  0  0  0  0  0  0  0
   -0.5864   15.1395   42.1490 H   0  0  0  0  0  0  0  0  0  0  0  0
   -0.0924   16.3367   40.9042 H   0  0  0  0  0  0  0  0  0  0  0  0
    0.6286   14.6914   40.9042 H   0  0  0  0  0  0  0  0  0  0  0  0
    3.2032   17.6903   40.2014 H   0  0  0  0  0  0  0  0  0  0  0  0
   -0.1564   20.6857   44.1712 H   0  0  0  0  0  0  0  0  0  0  0  0
    0.2952   18.9758   45.3406 H   0  0  0  0  0  0  0  0  0  0  0  0
    2.2373   17.2919   43.8941 H   0  0  0  0  0  0  0  0  0  0  0  0
   -0.1310   21.7632   43.0770 H   0  0  0  0  0  0  0  0  0  0  0  0
   -1.2654   18.8609   47.0058 H   0  0  0  0  0  0  0  0  0  0  0  0
    0.2729   18.5652   45.8680 H   0  0  0  0  0  0  0  0  0  0  0  0
    1.8501   14.4906   43.3134 H   0  0  0  0  0  0  0  0  0  0  0  0
   -0.6760   19.0206   43.1884 H   0  0  0  0  0  0  0  0  0  0  0  0
    1.1558   15.4614   43.3545 H   0  0  0  0  0  0  0  0  0  0  0  0
   -2.2690   17.5274   45.1255 H   0  0  0  0  0  0  0  0  0  0  0  0
   -1.4041   16.7109   46.3815 H   0  0  0  0  0  0  0  0  0  0  0  0
  1  6  1  0
  2  1  1  0
  3 18  1  0
  4  5  1  0
  4 24  1  0
  5 17  1  0
  8 21  2  0
  9 14  1  0
 10  3  2  0
 11  4  1  0
 11 20  2  0
 12 27  1  0
 13 20  1  0
 13  8  1  0
 14 15  1  0
 15 22  1  0
 17 23  2  0
 18  9  2  0
 18 19  1  0
 19 20  1  0
 19 15  2  0
 21 25  1  0
 22  8  1  0
 22 12  1  0
 24  7  1  0
 24 13  1  0
 25 16  1  0
 26  3  1  0
 27 16  1  0
  1 28  1  0
  1 29  1  0
  2 30  1  0
  2 31  1  0
  2 32  1  0
  4 33  1  6
  5 34  1  0
  5 35  1  0
  6 36  1  0
  6 37  1  0
  6 38  1  0
  7 39  1  0
  7 40  1  0
  7 41  1  0
 11 42  1  0
 12 43  1  0
 12 44  1  0
 13 45  1  1
 14 46  1  0
 16 47  1  0
 16 48  1  0
 17 49  1  0
 22 50  1  6
 24 51  1  1
 25 52  1  0
 25 53  1  0
M  CHG  1  26  -1
M  END
>  <mol_id>  (39) 
2026-09-18-6fnk-s0-n100-refligand-0040

>  <rmsd_to_ref>  (39) 


$$$$

     RDKit          3D

 54 56  0  0  0  0  0  0  0  0999 V2000
   -0.6580   20.9181   43.8468 N   0  0  0  0  0  0  0  0  0  0  0  0
    3.2315   15.6018   41.9112 C   0  0  0  0  0  0  0  0  0  0  0  0
    0.3576   17.7185   44.3004 C   0  0  0  0  0  0  0  0  0  0  0  0
    0.9356   15.8674   41.3480 C   0  0  1  0  0  0  0  0  0  0  0  0
    0.3170   18.6753   43.5142 C   0  0  1  0  0  0  0  0  0  0  0  0
    3.7289   15.0277   40.6780 C   0  0  0  0  0  0  0  0  0  0  0  0
    2.3101   20.1957   40.8937 C   0  0  2  0  0  0  0  0  0  0  0  0
    0.8411   18.5976   42.1087 C   0  0  2  0  0  0  0  0  0  0  0  0
    0.9309   20.3696   40.4472 C   0  0  0  0  0  0  0  0  0  0  0  0
    3.0122   19.7987   39.7388 O   0  0  0  0  0  0  0  0  0  0  0  0
   -0.6993   19.5303   43.9417 C   0  0  1  0  0  0  0  0  0  0  0  0
   -1.6596   17.6180   48.4797 N   0  0  0  0  0  0  0  0  0  0  0  0
   -1.0617   19.6147   45.5274 C   0  0  0  0  0  0  0  0  0  0  0  0
    2.7779   16.9742   42.0035 O   0  0  0  0  0  0  0  0  0  0  0  0
   -1.4683   17.9146   47.2945 C   0  0  0  0  0  0  0  0  0  0  0  0
    3.4891   21.0122   39.2909 O   0  0  0  0  0  0  0  0  0  0  0  0
    1.6765   15.7854   39.9931 C   0  0  2  0  0  0  0  0  0  0  0  0
    1.2537   17.2260   41.6322 C   0  0  1  0  0  0  0  0  0  0  0  0
    0.0519   21.2079   42.8859 O   0  0  0  0  0  0  0  0  0  0  0  0
   -0.4337   15.9854   41.2032 F   0  0  0  0  0  0  0  0  0  0  0  0
   -1.1333   18.3786   46.0814 C   0  0  2  0  0  0  0  0  0  0  0  0
   -0.5327   17.5973   45.4026 N   0  0  0  0  0  0  0  0  0  0  0  0
    3.1151   15.5651   39.4081 C   0  0  0  0  0  0  0  0  0  0  0  0
    1.6712   17.2888   40.0161 C   0  0  0  0  0  0  0  0  0  0  0  0
    2.0390   19.2122   42.0847 C   0  0  0  0  0  0  0  0  0  0  0  0
   -1.6087   21.2880   43.7043 H   0  0  0  0  0  0  0  0  0  0  0  0
    4.0439   15.4987   42.6457 H   0  0  0  0  0  0  0  0  0  0  0  0
    2.2945   15.0445   42.0575 H   0  0  0  0  0  0  0  0  0  0  0  0
    1.3722   17.7151   44.7252 H   0  0  0  0  0  0  0  0  0  0  0  0
    0.0364   16.8851   43.6583 H   0  0  0  0  0  0  0  0  0  0  0  0
    1.1813   15.0269   42.0137 H   0  0  0  0  0  0  0  0  0  0  0  0
    1.2563   19.2475   43.5001 H   0  0  0  0  0  0  0  0  0  0  0  0
    4.8125   15.2116   40.6331 H   0  0  0  0  0  0  0  0  0  0  0  0
    3.4569   13.9625   40.7136 H   0  0  0  0  0  0  0  0  0  0  0  0
    2.9475   21.0090   41.2708 H   0  0  0  0  0  0  0  0  0  0  0  0
    0.0188   19.0022   41.5003 H   0  0  0  0  0  0  0  0  0  0  0  0
    0.3175   20.7336   41.2847 H   0  0  0  0  0  0  0  0  0  0  0  0
    0.9008   21.1006   39.6258 H   0  0  0  0  0  0  0  0  0  0  0  0
    0.5352   19.4056   40.0948 H   0  0  0  0  0  0  0  0  0  0  0  0
   -1.3437   19.0054   43.2210 H   0  0  0  0  0  0  0  0  0  0  0  0
   -0.2820   20.1943   46.0432 H   0  0  0  0  0  0  0  0  0  0  0  0
   -2.0423   20.1014   45.6349 H   0  0  0  0  0  0  0  0  0  0  0  0
    3.5900   21.6305   40.0575 H   0  0  0  0  0  0  0  0  0  0  0  0
    1.2556   14.9018   39.4910 H   0  0  0  0  0  0  0  0  0  0  0  0
    0.7296   21.8733   43.1651 H   0  0  0  0  0  0  0  0  0  0  0  0
   -2.1649   18.6748   46.3224 H   0  0  0  0  0  0  0  0  0  0  0  0
   -1.2790   16.9924   45.0313 H   0  0  0  0  0  0  0  0  0  0  0  0
    0.2033   17.4126   46.0991 H   0  0  0  0  0  0  0  0  0  0  0  0
    3.1312   14.8335   38.5868 H   0  0  0  0  0  0  0  0  0  0  0  0
    3.6048   16.4351   38.9463 H   0  0  0  0  0  0  0  0  0  0  0  0
    2.6504   17.7492   39.8177 H   0  0  0  0  0  0  0  0  0  0  0  0
    1.0714   17.8656   39.2967 H   0  0  0  0  0  0  0  0  0  0  0  0
    2.8124   18.4307   42.0525 H   0  0  0  0  0  0  0  0  0  0  0  0
    2.0550   19.8429   42.9859 H   0  0  0  0  0  0  0  0  0  0  0  0
  2 14  1  0
  3 22  1  0
  4 20  1  0
  4 18  1  0
  5  8  1  0
  5  3  1  0
  5 11  1  0
  6  2  1  0
  7  9  1  0
  7 25  1  0
  8 25  1  0
 10  7  1  0
 11  1  1  0
 11 13  1  0
 13 21  1  0
 15 12  3  0
 16 10  1  0
 17 23  1  0
 17 24  1  0
 17  4  1  0
 18 14  1  1
 18  8  1  0
 19  1  1  0
 21 15  1  0
 22 21  1  0
 23  6  1  0
 24 18  1  0
  1 26  1  0
  2 27  1  0
  2 28  1  0
  3 29  1  0
  3 30  1  0
  4 31  1  1
  5 32  1  1
  6 33  1  0
  6 34  1  0
  7 35  1  1
  8 36  1  6
  9 37  1  0
  9 38  1  0
  9 39  1  0
 11 40  1  6
 13 41  1  0
 13 42  1  0
 16 43  1  0
 17 44  1  6
 19 45  1  0
 21 46  1  6
 22 47  1  0
 22 48  1  0
 23 49  1  0
 23 50  1  0
 24 51  1  0
 24 52  1  0
 25 53  1  0
 25 54  1  0
M  CHG  1  22   1
M  END
>  <mol_id>  (40) 
2026-09-18-6fnk-s0-n100-refligand-0041

>  <rmsd_to_ref>  (40) 


$$$$

     RDKit          3D

 46 50  0  0  0  0  0  0  0  0999 V2000
    1.5917   21.0323   41.8657 C   0  0  0  0  0  0  0  0  0  0  0  0
    2.6276   20.6817   41.0415 C   0  0  0  0  0  0  0  0  0  0  0  0
    0.3130   13.6888   43.4471 C   0  0  1  0  0  0  0  0  0  0  0  0
    2.6936   18.3778   41.8822 C   0  0  0  0  0  0  0  0  0  0  0  0
   -0.4653   13.2926   44.6935 C   0  0  0  0  0  0  0  0  0  0  0  0
    0.1835   20.1875   44.0003 C   0  0  0  0  0  0  0  0  0  0  0  0
   -0.2969   19.4061   45.0166 C   0  0  0  0  0  0  0  0  0  0  0  0
    0.5227   15.5040   43.7032 C   0  0  2  0  0  0  0  0  0  0  0  0
   -0.4123   18.1417   45.3154 C   0  0  0  0  0  0  0  0  0  0  0  0
    1.0772   20.0129   42.7375 C   0  0  0  0  0  0  0  0  0  0  0  0
   -0.1030   21.2902   44.1884 O   0  0  0  0  0  0  0  0  0  0  0  0
    3.2988   19.4127   41.2764 C   0  0  0  0  0  0  0  0  0  0  0  0
    0.1350   17.2394   44.3263 C   0  0  2  0  0  0  0  0  0  0  0  0
    1.0039   15.1907   43.2277 C   0  0  2  0  0  0  0  0  0  0  0  0
    2.2196   21.8679   39.1041 O   0  0  0  0  0  0  0  0  0  0  0  0
   -1.0867   14.4742   45.4167 C   0  0  0  0  0  0  0  0  0  0  0  0
    4.3097   21.7604   39.7751 O   0  0  0  0  0  0  0  0  0  0  0  0
   -0.5345   15.7258   44.9564 C   0  0  1  0  0  0  0  0  0  0  0  0
    1.5131   18.6950   42.6833 C   0  0  0  0  0  0  0  0  0  0  0  0
    2.3936   13.8071   42.5625 C   0  0  0  0  0  0  0  0  0  0  0  0
    3.1014   21.5566   39.8402 N   0  0  0  0  0  0  0  0  0  0  0  0
    1.9029   15.2733   42.2593 C   0  0  0  0  0  0  0  0  0  0  0  0
    0.8021   17.6473   43.3172 N   0  0  0  0  0  0  0  0  0  0  0  0
    1.1476   12.8588   42.7061 C   0  0  0  0  0  0  0  0  0  0  0  0
    1.1723   22.0491   41.8605 H   0  0  0  0  0  0  0  0  0  0  0  0
   -0.7349   13.5980   43.1249 H   0  0  0  0  0  0  0  0  0  0  0  0
    3.0661   17.3478   41.7810 H   0  0  0  0  0  0  0  0  0  0  0  0
   -1.2693   12.6024   44.3980 H   0  0  0  0  0  0  0  0  0  0  0  0
    0.2488   12.8256   45.3877 H   0  0  0  0  0  0  0  0  0  0  0  0
    0.2711   19.7874   45.8780 H   0  0  0  0  0  0  0  0  0  0  0  0
   -1.3342   19.4754   44.6572 H   0  0  0  0  0  0  0  0  0  0  0  0
    1.3555   15.4332   44.4183 H   0  0  0  0  0  0  0  0  0  0  0  0
    0.1089   17.9648   46.2677 H   0  0  0  0  0  0  0  0  0  0  0  0
   -1.4904   17.9302   45.3693 H   0  0  0  0  0  0  0  0  0  0  0  0
    4.3414   19.2962   40.9455 H   0  0  0  0  0  0  0  0  0  0  0  0
    1.7428   16.0021   43.1540 H   0  0  0  0  0  0  0  0  0  0  0  0
   -2.1716   14.4739   45.2354 H   0  0  0  0  0  0  0  0  0  0  0  0
   -0.8692   14.3751   46.4904 H   0  0  0  0  0  0  0  0  0  0  0  0
    0.2983   15.6551   45.6715 H   0  0  0  0  0  0  0  0  0  0  0  0
    2.9705   13.7996   43.4991 H   0  0  0  0  0  0  0  0  0  0  0  0
    3.0305   13.4548   41.7378 H   0  0  0  0  0  0  0  0  0  0  0  0
    2.6696   16.0441   42.4269 H   0  0  0  0  0  0  0  0  0  0  0  0
    1.5913   15.5498   41.2413 H   0  0  0  0  0  0  0  0  0  0  0  0
    0.8410   16.8496   42.6668 H   0  0  0  0  0  0  0  0  0  0  0  0
    1.3953   11.9350   43.2493 H   0  0  0  0  0  0  0  0  0  0  0  0
    0.7246   12.4942   41.7584 H   0  0  0  0  0  0  0  0  0  0  0  0
  1 10  1  0
  2 12  1  0
  2  1  2  0
  3 24  1  0
  3  5  1  0
  4 19  1  0
  5 16  1  0
  6  7  1  0
  7  9  1  0
  8 13  1  0
  8 18  1  0
 10 19  2  0
 10  6  1  0
 11  6  2  0
 12  4  2  0
 13  9  1  0
 13 18  1  0
 14  8  1  0
 14  3  1  0
 15 21  1  0
 17 21  2  0
 18 16  1  0
 19 23  1  0
 20 24  1  0
 21  2  1  0
 22 20  1  0
 22 14  1  0
 13 23  1  6
  1 25  1  0
  3 26  1  6
  4 27  1  0
  5 28  1  0
  5 29  1  0
  7 30  1  0
  7 31  1  0
  8 32  1  6
  9 33  1  0
  9 34  1  0
 12 35  1  0
 14 36  1  1
 16 37  1  0
 16 38  1  0
 18 39  1  1
 20 40  1  0
 20 41  1  0
 22 42  1  0
 22 43  1  0
 23 44  1  0
 24 45  1  0
 24 46  1  0
M  CHG  2  15  -1  21   1
M  END
>  <mol_id>  (41) 
2026-09-18-6fnk-s0-n100-refligand-0042

>  <rmsd_to_ref>  (41) 


$$$$

     RDKit          3D

 65 69  0  0  0  0  0  0  0  0999 V2000
    3.0599   18.3015   37.7787 C   0  0  0  0  0  0  0  0  0  0  0  0
   -1.7277   15.6581   47.3610 C   0  0  0  0  0  0  0  0  0  0  0  0
   -0.5672   16.4766   45.6877 C   0  0  0  0  0  0  0  0  0  0  0  0
   -0.0180   16.9448   44.6249 O   0  0  0  0  0  0  0  0  0  0  0  0
    2.4490   20.1817   39.4991 C   0  0  0  0  0  0  0  0  0  0  0  0
    1.8766   16.3118   42.1504 O   0  0  0  0  0  0  0  0  0  0  0  0
    1.7915   19.0758   39.5278 C   0  0  0  0  0  0  0  0  0  0  0  0
   -0.4869   20.2041   44.5864 N   0  0  0  0  0  0  0  0  0  0  0  0
    2.1156   14.3026   39.0683 C   0  0  0  0  0  0  0  0  0  0  0  0
    0.9989   19.7030   42.5420 C   0  0  0  0  0  0  0  0  0  0  0  0
    0.9698   18.7713   40.4377 O   0  0  0  0  0  0  0  0  0  0  0  0
    3.5263   19.5070   37.5593 C   0  0  0  0  0  0  0  0  0  0  0  0
    2.1399   17.9616   38.7281 C   0  0  0  0  0  0  0  0  0  0  0  0
    1.6663   16.6692   39.2895 C   0  0  2  0  0  0  0  0  0  0  0  0
   -1.7789   17.0081   47.5348 N   0  0  0  0  0  0  0  0  0  0  0  0
   -2.4602   14.7687   48.1981 C   0  0  0  0  0  0  0  0  0  0  0  0
    0.6680   14.3044   44.7566 C   0  0  0  0  0  0  0  0  0  0  0  0
    2.6637   13.9558   41.3764 C   0  0  0  0  0  0  0  0  0  0  0  0
   -0.7581   13.9302   45.8659 C   0  0  0  0  0  0  0  0  0  0  0  0
   -1.4749   12.9350   46.5854 C   0  0  0  0  0  0  0  0  0  0  0  0
   -2.2781   13.3631   47.7141 C   0  0  0  0  0  0  0  0  0  0  0  0
   -3.2622   15.2902   49.3758 C   0  0  0  0  0  0  0  0  0  0  0  0
    1.7315   14.6040   40.3833 C   0  0  0  0  0  0  0  0  0  0  0  0
    1.9062   16.1791   40.7923 C   0  0  2  0  0  0  0  0  0  0  0  0
   -1.2773   18.7545   45.9819 C   0  0  0  0  0  0  0  0  0  0  0  0
    1.0823   13.3876   41.2848 C   0  0  0  0  0  0  0  0  0  0  0  0
    2.5322   15.8085   38.6210 O   0  0  0  0  0  0  0  0  0  0  0  0
   -0.1489   19.4140   45.5841 C   0  0  0  0  0  0  0  0  0  0  0  0
   -1.1272   17.4143   46.4115 N   0  0  0  0  0  0  0  0  0  0  0  0
    3.3540   20.4065   38.5715 C   0  0  0  0  0  0  0  0  0  0  0  0
    1.2741   18.6236   41.8248 C   0  0  0  0  0  0  0  0  0  0  0  0
   -0.9517   15.2870   46.2282 C   0  0  0  0  0  0  0  0  0  0  0  0
    1.4273   14.2733   44.3316 N   0  0  0  0  0  0  0  0  0  0  0  0
   -0.4247   19.8406   43.1928 C   0  0  0  0  0  0  0  0  0  0  0  0
    3.4442   17.4918   37.1409 H   0  0  0  0  0  0  0  0  0  0  0  0
    2.2512   20.9500   40.2611 H   0  0  0  0  0  0  0  0  0  0  0  0
    2.4496   17.0727   42.4203 H   0  0  0  0  0  0  0  0  0  0  0  0
   -1.4685   20.4632   44.7602 H   0  0  0  0  0  0  0  0  0  0  0  0
    0.2705   20.9005   44.6330 H   0  0  0  0  0  0  0  0  0  0  0  0
    2.9644   13.6040   39.0294 H   0  0  0  0  0  0  0  0  0  0  0  0
    1.3639   13.7980   38.4435 H   0  0  0  0  0  0  0  0  0  0  0  0
    1.1377   20.5725   41.8827 H   0  0  0  0  0  0  0  0  0  0  0  0
    1.6779   19.6280   43.4042 H   0  0  0  0  0  0  0  0  0  0  0  0
    4.0259   19.7770   36.6172 H   0  0  0  0  0  0  0  0  0  0  0  0
    0.5708   16.7249   39.2071 H   0  0  0  0  0  0  0  0  0  0  0  0
   -2.1924   17.5627   48.2979 H   0  0  0  0  0  0  0  0  0  0  0  0
    3.4907   13.3260   41.0166 H   0  0  0  0  0  0  0  0  0  0  0  0
    3.2966   14.3332   42.1931 H   0  0  0  0  0  0  0  0  0  0  0  0
   -1.4219   11.8753   46.2952 H   0  0  0  0  0  0  0  0  0  0  0  0
   -2.8073   12.5759   48.2712 H   0  0  0  0  0  0  0  0  0  0  0  0
   -2.6450   15.2521   50.2855 H   0  0  0  0  0  0  0  0  0  0  0  0
   -3.5653   16.3297   49.1816 H   0  0  0  0  0  0  0  0  0  0  0  0
   -4.1580   14.6669   49.5141 H   0  0  0  0  0  0  0  0  0  0  0  0
    2.3746   17.1189   41.1201 H   0  0  0  0  0  0  0  0  0  0  0  0
   -1.9763   18.7533   45.1326 H   0  0  0  0  0  0  0  0  0  0  0  0
   -1.6245   19.2997   46.8720 H   0  0  0  0  0  0  0  0  0  0  0  0
    0.3571   13.6002   42.0840 H   0  0  0  0  0  0  0  0  0  0  0  0
    0.5729   12.4288   41.1082 H   0  0  0  0  0  0  0  0  0  0  0  0
    0.6111   18.6919   45.2512 H   0  0  0  0  0  0  0  0  0  0  0  0
    0.2744   19.9968   46.4154 H   0  0  0  0  0  0  0  0  0  0  0  0
    3.9702   21.3169   38.6112 H   0  0  0  0  0  0  0  0  0  0  0  0
    0.6880   17.7820   42.2227 H   0  0  0  0  0  0  0  0  0  0  0  0
    2.3575   18.4496   41.9027 H   0  0  0  0  0  0  0  0  0  0  0  0
   -0.9728   20.6084   42.6272 H   0  0  0  0  0  0  0  0  0  0  0  0
   -0.8525   18.8281   43.1478 H   0  0  0  0  0  0  0  0  0  0  0  0
  1 12  1  0
  1 13  2  0
  2 15  1  0
  2 16  2  0
  3 32  1  0
  3 29  1  0
  4  3  2  0
  7  5  2  0
  7 11  1  0
  8 28  1  0
  9 23  1  0
 10 34  1  0
 11 31  1  0
 12 30  2  0
 13  7  1  0
 14 13  1  0
 14 24  1  0
 16 22  1  0
 17 19  1  0
 19 20  1  0
 19 32  2  0
 20 21  2  0
 21 16  1  0
 23 26  1  0
 23 24  1  0
 23 18  1  0
 24  6  1  0
 25 29  1  0
 26 18  1  0
 27  9  1  0
 27 14  1  0
 28 25  1  0
 29 15  1  0
 30  5  1  0
 31 10  1  0
 32  2  1  0
 33 17  3  0
 34  8  1  0
  1 35  1  0
  5 36  1  0
  6 37  1  0
  8 38  1  0
  8 39  1  0
  9 40  1  0
  9 41  1  0
 10 42  1  0
 10 43  1  0
 12 44  1  0
 14 45  1  6
 15 46  1  0
 18 47  1  0
 18 48  1  0
 20 49  1  0
 21 50  1  0
 22 51  1  0
 22 52  1  0
 22 53  1  0
 24 54  1  6
 25 55  1  0
 25 56  1  0
 26 57  1  0
 26 58  1  0
 28 59  1  0
 28 60  1  0
 30 61  1  0
 31 62  1  0
 31 63  1  0
 34 64  1  0
 34 65  1  0
M  CHG  1   8   1
M  END
>  <mol_id>  (42) 
2026-09-18-6fnk-s0-n100-refligand-0043

>  <rmsd_to_ref>  (42) 


$$$$

     RDKit          3D

 25 25  0  0  0  0  0  0  0  0999 V2000
    2.0938   19.2325   41.8778 C   0  0  0  0  0  0  0  0  0  0  0  0
   -0.0189   20.8568   45.1355 C   0  0  0  0  0  0  0  0  0  0  0  0
    2.9742   18.9386   42.9174 C   0  0  0  0  0  0  0  0  0  0  0  0
   -0.4400   19.8045   45.9587 O   0  0  0  0  0  0  0  0  0  0  0  0
    1.7873   18.2644   43.0522 C   0  0  0  0  0  0  0  0  0  0  0  0
    0.8858   18.7684   44.0621 C   0  0  0  0  0  0  0  0  0  0  0  0
   -1.2929   18.8475   45.2234 C   0  0  0  0  0  0  0  0  0  0  0  0
   -0.4836   18.2024   44.0827 C   0  0  0  0  0  0  0  0  0  0  0  0
    1.6120   16.8105   42.5062 C   0  0  0  0  0  0  0  0  0  0  0  0
    1.6038   20.2154   41.8160 H   0  0  0  0  0  0  0  0  0  0  0  0
    2.1022   19.1875   40.7787 H   0  0  0  0  0  0  0  0  0  0  0  0
    0.2062   21.7384   45.7537 H   0  0  0  0  0  0  0  0  0  0  0  0
    0.8847   20.5538   44.5863 H   0  0  0  0  0  0  0  0  0  0  0  0
   -0.8169   21.1047   44.4201 H   0  0  0  0  0  0  0  0  0  0  0  0
    3.8830   18.3624   42.6893 H   0  0  0  0  0  0  0  0  0  0  0  0
    3.5200   19.5932   43.6128 H   0  0  0  0  0  0  0  0  0  0  0  0
    1.3419   18.5701   45.0432 H   0  0  0  0  0  0  0  0  0  0  0  0
    0.7518   19.8332   43.8206 H   0  0  0  0  0  0  0  0  0  0  0  0
   -1.6420   18.0644   45.9125 H   0  0  0  0  0  0  0  0  0  0  0  0
   -2.1579   19.3798   44.8010 H   0  0  0  0  0  0  0  0  0  0  0  0
   -0.9786   18.4067   43.1219 H   0  0  0  0  0  0  0  0  0  0  0  0
   -0.4271   17.1158   44.2444 H   0  0  0  0  0  0  0  0  0  0  0  0
    1.4141   16.1256   43.3439 H   0  0  0  0  0  0  0  0  0  0  0  0
    0.7671   16.7825   41.8023 H   0  0  0  0  0  0  0  0  0  0  0  0
    2.5314   16.5001   41.9881 H   0  0  0  0  0  0  0  0  0  0  0  0
  1  3  1  0
  1  5  1  0
  2  4  1  0
  3  5  1  0
  5  6  1  0
  6  8  1  0
  7  4  1  0
  8  7  1  0
  9  5  1  0
  1 10  1  0
  1 11  1  0
  2 12  1  0
  2 13  1  0
  2 14  1  0
  3 15  1  0
  3 16  1  0
  6 17  1  0
  6 18  1  0
  7 19  1  0
  7 20  1  0
  8 21  1  0
  8 22  1  0
  9 23  1  0
  9 24  1  0
  9 25  1  0
M  END
>  <mol_id>  (43) 
2026-09-18-6fnk-s0-n100-refligand-0044

>  <rmsd_to_ref>  (43) 


$$$$

     RDKit          3D

 57 59  0  0  0  0  0  0  0  0999 V2000
    0.8075   19.3024   42.4054 O   0  0  0  0  0  0  0  0  0  0  0  0
    5.0043   21.2724   38.0323 C   0  0  0  0  0  0  0  0  0  0  0  0
    0.8148   14.6336   41.7151 C   0  0  0  0  0  0  0  0  0  0  0  0
    0.6442   17.9458   40.0559 C   0  0  0  0  0  0  0  0  0  0  0  0
   -0.7425   19.2791   44.7163 C   0  0  0  0  0  0  0  0  0  0  0  0
    4.5362   21.0165   40.0885 C   0  0  0  0  0  0  0  0  0  0  0  0
   -1.2873   16.2829   45.5650 C   0  0  0  0  0  0  0  0  0  0  0  0
   -0.9881   19.2229   45.9441 N   0  0  0  0  0  0  0  0  0  0  0  0
   -1.5930   17.0809   46.6316 C   0  0  0  0  0  0  0  0  0  0  0  0
    3.1269   19.7962   38.5443 O   0  0  0  0  0  0  0  0  0  0  0  0
   -0.6707   20.4336   43.9428 N   0  0  0  0  0  0  0  0  0  0  0  0
    6.0067   22.3352   38.8227 S   0  0  0  0  0  0  0  0  0  0  0  0
    1.4800   15.7418   40.8726 C   0  0  0  0  0  0  0  0  0  0  0  0
   -1.7193   14.5990   45.5532 S   0  0  0  0  0  0  0  0  0  0  0  0
   -0.3639   13.3815   43.5922 C   0  0  0  0  0  0  0  0  0  0  0  0
    0.7027   16.9029   40.9791 C   0  0  2  0  0  0  0  0  0  0  0  0
    5.4075   21.9028   40.2666 C   0  0  0  0  0  0  0  0  0  0  0  0
   -0.3184   15.5003   43.8840 C   0  0  1  0  0  0  0  0  0  0  0  0
   -1.2974   18.3757   46.8912 C   0  0  0  0  0  0  0  0  0  0  0  0
   -0.8369   14.3903   44.1181 C   0  0  0  0  0  0  0  0  0  0  0  0
   -2.3029   16.4179   47.7485 O   0  0  0  0  0  0  0  0  0  0  0  0
   -0.5786   17.9568   44.1403 C   0  0  0  0  0  0  0  0  0  0  0  0
    1.6718   19.0993   40.3167 C   0  0  1  0  0  0  0  0  0  0  0  0
    2.9404   18.7088   42.2610 O   0  0  0  0  0  0  0  0  0  0  0  0
   -0.5812   16.3548   40.8431 O   0  0  0  0  0  0  0  0  0  0  0  0
   -0.6706   16.5730   44.5224 C   0  0  0  0  0  0  0  0  0  0  0  0
    4.2707   20.6375   38.8510 N   0  0  0  0  0  0  0  0  0  0  0  0
    2.0539   19.1035   41.6804 C   0  0  0  0  0  0  0  0  0  0  0  0
    2.8431   19.6463   39.4006 N   0  0  0  0  0  0  0  0  0  0  0  0
    0.6347   15.3220   42.9976 N   0  0  0  0  0  0  0  0  0  0  0  0
    5.6168   20.5540   37.4678 H   0  0  0  0  0  0  0  0  0  0  0  0
    4.3545   21.8453   37.3544 H   0  0  0  0  0  0  0  0  0  0  0  0
    1.4701   13.7561   41.8169 H   0  0  0  0  0  0  0  0  0  0  0  0
   -0.1141   14.2332   41.2828 H   0  0  0  0  0  0  0  0  0  0  0  0
    0.8388   17.5313   39.0557 H   0  0  0  0  0  0  0  0  0  0  0  0
   -0.3575   18.3909   40.1480 H   0  0  0  0  0  0  0  0  0  0  0  0
    4.0072   20.5667   40.9415 H   0  0  0  0  0  0  0  0  0  0  0  0
   -0.1343   19.6476   46.3335 H   0  0  0  0  0  0  0  0  0  0  0  0
   -1.9780   19.4623   45.7902 H   0  0  0  0  0  0  0  0  0  0  0  0
   -0.4786   21.2427   44.5506 H   0  0  0  0  0  0  0  0  0  0  0  0
    0.0859   20.3367   43.2508 H   0  0  0  0  0  0  0  0  0  0  0  0
   -1.5664   20.5759   43.4546 H   0  0  0  0  0  0  0  0  0  0  0  0
    1.5349   15.4263   39.8202 H   0  0  0  0  0  0  0  0  0  0  0  0
    2.4998   15.9340   41.2373 H   0  0  0  0  0  0  0  0  0  0  0  0
   -0.8117   12.3965   43.7903 H   0  0  0  0  0  0  0  0  0  0  0  0
    0.5063   13.4658   42.9245 H   0  0  0  0  0  0  0  0  0  0  0  0
    1.1285   17.4013   41.8624 H   0  0  0  0  0  0  0  0  0  0  0  0
    5.7132   22.3166   41.2388 H   0  0  0  0  0  0  0  0  0  0  0  0
   -1.0420   15.6672   43.0725 H   0  0  0  0  0  0  0  0  0  0  0  0
   -1.3179   18.7272   47.9333 H   0  0  0  0  0  0  0  0  0  0  0  0
   -2.5548   16.9373   48.5527 H   0  0  0  0  0  0  0  0  0  0  0  0
   -0.2954   18.0384   43.0805 H   0  0  0  0  0  0  0  0  0  0  0  0
    0.9882   19.8504   39.8943 H   0  0  0  0  0  0  0  0  0  0  0  0
   -0.9469   16.1449   41.7388 H   0  0  0  0  0  0  0  0  0  0  0  0
    3.6195   19.0619   39.7422 H   0  0  0  0  0  0  0  0  0  0  0  0
    1.3832   14.9059   43.5699 H   0  0  0  0  0  0  0  0  0  0  0  0
    0.4807   16.2392   42.5549 H   0  0  0  0  0  0  0  0  0  0  0  0
  2 27  1  0
  2 12  1  0
  3 30  1  0
  4 16  1  0
  5  8  1  0
  6 17  2  0
  7  9  1  0
  8 19  1  0
  9 19  2  0
  9 21  1  0
 10 27  1  0
 10 29  1  0
 11  5  1  0
 12 17  1  0
 13 16  1  0
 13  3  1  0
 14  7  1  0
 15 20  2  3
 16 25  1  0
 18 30  1  0
 18 20  1  0
 18 26  1  0
 20 14  1  0
 22 26  1  0
 22  5  2  0
 23  4  1  0
 23 28  1  0
 26  7  2  0
 27  6  1  0
 28  1  2  0
 28 24  1  0
 29 23  1  0
  2 31  1  0
  2 32  1  0
  3 33  1  0
  3 34  1  0
  4 35  1  0
  4 36  1  0
  6 37  1  0
  8 38  1  0
  8 39  1  0
 11 40  1  0
 11 41  1  0
 11 42  1  0
 13 43  1  0
 13 44  1  0
 15 45  1  0
 15 46  1  0
 16 47  1  1
 17 48  1  0
 18 49  1  6
 19 50  1  0
 21 51  1  0
 22 52  1  0
 23 53  1  1
 25 54  1  0
 29 55  1  0
 30 56  1  0
 30 57  1  0
M  CHG  4   8   1  11   1  24  -1  30   1
M  END
>  <mol_id>  (44) 
2026-09-18-6fnk-s0-n100-refligand-0045

>  <rmsd_to_ref>  (44) 


$$$$

     RDKit          3D

 12 12  0  0  0  0  0  0  0  0999 V2000
    1.6651   18.8087   43.6292 C   0  0  0  0  0  0  0  0  0  0  0  0
    1.5988   19.6588   42.9150 N   0  0  0  0  0  0  0  0  0  0  0  0
   -0.9373   19.8543   46.0988 O   0  0  0  0  0  0  0  0  0  0  0  0
    0.8492   20.8041   43.0496 C   0  0  0  0  0  0  0  0  0  0  0  0
    0.7493   18.7287   44.9779 C   0  0  0  0  0  0  0  0  0  0  0  0
   -0.0495   20.8560   44.1410 C   0  0  0  0  0  0  0  0  0  0  0  0
   -0.0883   19.8094   45.0566 C   0  0  0  0  0  0  0  0  0  0  0  0
    2.3729   17.9932   43.4193 H   0  0  0  0  0  0  0  0  0  0  0  0
   -1.5612   20.6167   46.1965 H   0  0  0  0  0  0  0  0  0  0  0  0
    0.9440   21.6406   42.3416 H   0  0  0  0  0  0  0  0  0  0  0  0
    0.7981   17.9188   45.7208 H   0  0  0  0  0  0  0  0  0  0  0  0
   -0.7162   21.7221   44.2653 H   0  0  0  0  0  0  0  0  0  0  0  0
  1  5  1  0
  2  4  1  0
  2  1  2  0
  4  6  2  0
  5  7  2  0
  6  7  1  0
  7  3  1  0
  1  8  1  0
  3  9  1  0
  4 10  1  0
  5 11  1  0
  6 12  1  0
M  END
>  <mol_id>  (45) 
2026-09-18-6fnk-s0-n100-refligand-0046

>  <rmsd_to_ref>  (45) 


$$$$

     RDKit          3D

 21 21  0  0  0  0  0  0  0  0999 V2000
   -0.5290   18.0151   44.8220 C   0  0  0  0  0  0  0  0  0  0  0  0
    1.7381   20.1557   42.2742 N   0  0  0  0  0  0  0  0  0  0  0  0
    0.8636   17.9464   42.9858 C   0  0  0  0  0  0  0  0  0  0  0  0
    0.8257   19.4396   42.9770 C   0  0  0  0  0  0  0  0  0  0  0  0
    3.0100   17.2026   41.7451 C   0  0  0  0  0  0  0  0  0  0  0  0
    0.1706   17.2264   43.9188 C   0  0  0  0  0  0  0  0  0  0  0  0
    1.5613   17.3518   41.9675 O   0  0  0  0  0  0  0  0  0  0  0  0
   -0.6295   21.4503   43.8845 C   0  0  0  0  0  0  0  0  0  0  0  0
   -0.8278   19.2454   44.7891 C   0  0  0  0  0  0  0  0  0  0  0  0
   -0.1817   20.0154   43.8704 C   0  0  0  0  0  0  0  0  0  0  0  0
   -0.8832   17.4819   45.7166 H   0  0  0  0  0  0  0  0  0  0  0  0
    1.6988   21.1849   42.2780 H   0  0  0  0  0  0  0  0  0  0  0  0
    2.4704   19.6703   41.7366 H   0  0  0  0  0  0  0  0  0  0  0  0
    3.4787   16.7858   42.6488 H   0  0  0  0  0  0  0  0  0  0  0  0
    3.1828   16.5245   40.8964 H   0  0  0  0  0  0  0  0  0  0  0  0
    3.4503   18.1861   41.5241 H   0  0  0  0  0  0  0  0  0  0  0  0
    0.1676   16.1269   43.9507 H   0  0  0  0  0  0  0  0  0  0  0  0
   -1.1521   21.6621   44.8290 H   0  0  0  0  0  0  0  0  0  0  0  0
    0.2471   22.1089   43.7948 H   0  0  0  0  0  0  0  0  0  0  0  0
   -1.3111   21.6301   43.0401 H   0  0  0  0  0  0  0  0  0  0  0  0
   -1.5763   19.6732   45.4724 H   0  0  0  0  0  0  0  0  0  0  0  0
  2  4  1  0
  3  6  1  0
  4  3  2  0
  4 10  1  0
  5  7  1  0
  6  1  2  0
  7  3  1  0
  8 10  1  0
  9  1  1  0
 10  9  2  0
  1 11  1  0
  2 12  1  0
  2 13  1  0
  5 14  1  0
  5 15  1  0
  5 16  1  0
  6 17  1  0
  8 18  1  0
  8 19  1  0
  8 20  1  0
  9 21  1  0
M  END
>  <mol_id>  (46) 
2026-09-18-6fnk-s0-n100-refligand-0047

>  <rmsd_to_ref>  (46) 


$$$$

     RDKit          3D

 22 23  0  0  0  0  0  0  0  0999 V2000
    0.2199   20.8978   44.4943 C   0  0  0  0  0  0  0  0  0  0  0  0
    0.9141   19.9775   43.2486 C   0  0  1  0  0  0  0  0  0  0  0  0
    0.8451   21.1868   43.2971 N   0  0  0  0  0  0  0  0  0  0  0  0
   -0.3250   16.9034   44.5019 C   0  0  0  0  0  0  0  0  0  0  0  0
    0.3665   17.6061   43.4555 C   0  0  0  0  0  0  0  0  0  0  0  0
   -0.7716   17.5318   45.5762 C   0  0  0  0  0  0  0  0  0  0  0  0
    0.4993   18.9344   43.5778 C   0  0  0  0  0  0  0  0  0  0  0  0
   -0.0018   19.5857   44.7435 C   0  0  0  0  0  0  0  0  0  0  0  0
   -0.7207   18.9167   45.6504 C   0  0  0  0  0  0  0  0  0  0  0  0
    0.1021   22.0075   45.2093 N   0  0  0  0  0  0  0  0  0  0  0  0
    1.3648   19.7168   41.6721 C   0  0  0  0  0  0  0  0  0  0  0  0
   -0.6232   15.3721   44.5915 O   0  0  0  0  0  0  0  0  0  0  0  0
    1.1528   20.0646   44.3189 H   0  0  0  0  0  0  0  0  0  0  0  0
    1.1140   22.0070   42.7351 H   0  0  0  0  0  0  0  0  0  0  0  0
    0.7728   17.0718   42.5841 H   0  0  0  0  0  0  0  0  0  0  0  0
   -1.1856   16.9538   46.4155 H   0  0  0  0  0  0  0  0  0  0  0  0
   -1.2627   19.4547   46.4421 H   0  0  0  0  0  0  0  0  0  0  0  0
    0.3375   22.9180   44.7894 H   0  0  0  0  0  0  0  0  0  0  0  0
    2.1135   18.9118   41.6331 H   0  0  0  0  0  0  0  0  0  0  0  0
    0.4832   19.4265   41.0819 H   0  0  0  0  0  0  0  0  0  0  0  0
    1.7965   20.6394   41.2568 H   0  0  0  0  0  0  0  0  0  0  0  0
   -0.3459   14.7699   43.8563 H   0  0  0  0  0  0  0  0  0  0  0  0
  1  8  1  0
  2 11  1  0
  2  7  1  0
  3  2  1  0
  3  1  1  0
  4  6  1  0
  4 12  1  0
  5  4  2  0
  7  8  2  0
  7  5  1  0
  8  9  1  0
  9  6  2  0
 10  1  2  3
  2 13  1  1
  3 14  1  0
  5 15  1  0
  6 16  1  0
  9 17  1  0
 10 18  1  0
 11 19  1  0
 11 20  1  0
 11 21  1  0
 12 22  1  0
M  END
>  <mol_id>  (47) 
2026-09-18-6fnk-s0-n100-refligand-0048

>  <rmsd_to_ref>  (47) 


$$$$

     RDKit          3D

 39 41  0  0  0  0  0  0  0  0999 V2000
    1.9827   16.1743   42.5531 O   0  0  0  0  0  0  0  0  0  0  0  0
    0.7611   21.1360   42.2453 C   0  0  0  0  0  0  0  0  0  0  0  0
    2.0188   14.5916   44.3228 C   0  0  0  0  0  0  0  0  0  0  0  0
    0.9166   19.8717   42.7723 C   0  0  0  0  0  0  0  0  0  0  0  0
    1.7110   18.9080   42.1715 C   0  0  0  0  0  0  0  0  0  0  0  0
   -0.4695   19.4457   46.2258 O   0  0  0  0  0  0  0  0  0  0  0  0
    0.7477   14.5711   45.1198 C   0  0  0  0  0  0  0  0  0  0  0  0
    0.3295   19.2547   44.0439 C   0  0  2  0  0  0  0  0  0  0  0  0
    2.5741   19.2462   41.1581 C   0  0  0  0  0  0  0  0  0  0  0  0
    0.7127   17.7386   43.8059 C   0  0  0  0  0  0  0  0  0  0  0  0
    3.0024   14.0870   42.0048 C   0  0  0  0  0  0  0  0  0  0  0  0
    1.5482   21.5319   41.1889 C   0  0  0  0  0  0  0  0  0  0  0  0
    1.3433   17.4981   42.5134 C   0  0  0  0  0  0  0  0  0  0  0  0
    2.5255   20.5755   40.6232 C   0  0  0  0  0  0  0  0  0  0  0  0
   -0.2555   15.6958   44.7833 C   0  0  2  0  0  0  0  0  0  0  0  0
   -0.7094   19.2572   45.0261 C   0  0  0  0  0  0  0  0  0  0  0  0
    0.3187   16.9511   44.9926 N   0  0  0  0  0  0  0  0  0  0  0  0
   -1.8717   18.9813   44.4631 O   0  0  0  0  0  0  0  0  0  0  0  0
    1.8975   14.7682   42.7924 C   0  0  2  0  0  0  0  0  0  0  0  0
   -1.6042   15.4405   45.4811 C   0  0  0  0  0  0  0  0  0  0  0  0
    0.0129   21.8235   42.6666 H   0  0  0  0  0  0  0  0  0  0  0  0
    2.6327   15.4214   44.7028 H   0  0  0  0  0  0  0  0  0  0  0  0
    2.4499   13.5884   44.4563 H   0  0  0  0  0  0  0  0  0  0  0  0
    0.2499   13.6063   44.9423 H   0  0  0  0  0  0  0  0  0  0  0  0
    1.0414   14.7266   46.1684 H   0  0  0  0  0  0  0  0  0  0  0  0
    0.5041   20.2138   44.5537 H   0  0  0  0  0  0  0  0  0  0  0  0
    3.2902   18.5101   40.7639 H   0  0  0  0  0  0  0  0  0  0  0  0
    3.8074   13.7830   42.6901 H   0  0  0  0  0  0  0  0  0  0  0  0
    2.5974   13.1987   41.4980 H   0  0  0  0  0  0  0  0  0  0  0  0
    3.4030   14.7858   41.2557 H   0  0  0  0  0  0  0  0  0  0  0  0
    1.4524   22.5449   40.7707 H   0  0  0  0  0  0  0  0  0  0  0  0
    3.2006   20.8782   39.8091 H   0  0  0  0  0  0  0  0  0  0  0  0
   -0.4973   15.6894   43.7102 H   0  0  0  0  0  0  0  0  0  0  0  0
    1.1655   16.8098   45.5617 H   0  0  0  0  0  0  0  0  0  0  0  0
   -0.4282   17.5060   45.4340 H   0  0  0  0  0  0  0  0  0  0  0  0
    0.9543   14.3094   42.4610 H   0  0  0  0  0  0  0  0  0  0  0  0
   -1.4876   15.5787   46.5661 H   0  0  0  0  0  0  0  0  0  0  0  0
   -2.3543   16.1490   45.0997 H   0  0  0  0  0  0  0  0  0  0  0  0
   -1.9341   14.4114   45.2758 H   0  0  0  0  0  0  0  0  0  0  0  0
  1 19  1  0
  1 13  1  0
  2  4  2  0
  3  7  1  0
  4  8  1  0
  5 13  1  0
  5  4  1  0
  8 16  1  0
  9  5  2  0
 10  8  1  0
 10 17  1  0
 12  2  1  0
 13 10  2  0
 14  9  1  0
 14 12  2  0
 15  7  1  0
 15 17  1  0
 15 20  1  0
 16  6  1  0
 18 16  2  0
 19 11  1  0
 19  3  1  0
  2 21  1  0
  3 22  1  0
  3 23  1  0
  7 24  1  0
  7 25  1  0
  8 26  1  1
  9 27  1  0
 11 28  1  0
 11 29  1  0
 11 30  1  0
 12 31  1  0
 14 32  1  0
 15 33  1  6
 17 34  1  0
 17 35  1  0
 19 36  1  6
 20 37  1  0
 20 38  1  0
 20 39  1  0
M  CHG  2   6  -1  17   1
M  END
>  <mol_id>  (48) 
2026-09-18-6fnk-s0-n100-refligand-0049

>  <rmsd_to_ref>  (48) 


$$$$

     RDKit          3D

 21 22  0  0  0  0  0  0  0  0999 V2000
    0.2815   17.5259   43.3283 C   0  0  0  0  0  0  0  0  0  0  0  0
   -0.1960   18.8275   43.7473 C   0  0  0  0  0  0  0  0  0  0  0  0
    0.9058   19.8315   41.8732 C   0  0  0  0  0  0  0  0  0  0  0  0
   -0.9284   20.3745   45.4998 O   0  0  0  0  0  0  0  0  0  0  0  0
    1.5994   18.6011   41.7145 C   0  0  0  0  0  0  0  0  0  0  0  0
    1.0995   17.3512   42.2419 C   0  0  0  0  0  0  0  0  0  0  0  0
   -0.2099   16.3309   43.9067 C   0  0  0  0  0  0  0  0  0  0  0  0
    1.1533   20.7461   40.9834 O   0  0  0  0  0  0  0  0  0  0  0  0
    0.5238   15.5863   42.8236 C   0  0  0  0  0  0  0  0  0  0  0  0
    0.0955   19.9894   42.9949 C   0  0  0  0  0  0  0  0  0  0  0  0
   -0.5116   19.0578   45.2312 C   0  0  0  0  0  0  0  0  0  0  0  0
   -0.8531   20.5529   46.4706 H   0  0  0  0  0  0  0  0  0  0  0  0
    2.5545   18.5997   41.1687 H   0  0  0  0  0  0  0  0  0  0  0  0
    0.1514   16.1320   44.9264 H   0  0  0  0  0  0  0  0  0  0  0  0
   -1.2829   16.1754   44.0921 H   0  0  0  0  0  0  0  0  0  0  0  0
    1.7441   20.5427   40.2155 H   0  0  0  0  0  0  0  0  0  0  0  0
   -0.1158   15.0436   42.1119 H   0  0  0  0  0  0  0  0  0  0  0  0
    1.2240   14.7631   43.0288 H   0  0  0  0  0  0  0  0  0  0  0  0
   -0.3004   20.9744   43.2832 H   0  0  0  0  0  0  0  0  0  0  0  0
   -1.3128   18.3668   45.5320 H   0  0  0  0  0  0  0  0  0  0  0  0
    0.4136   18.8799   45.7991 H   0  0  0  0  0  0  0  0  0  0  0  0
  1  7  1  0
  1  2  2  0
  2 11  1  0
  3 10  2  0
  5  6  2  0
  5  3  1  0
  6  9  1  0
  6  1  1  0
  8  3  1  0
  9  7  1  0
 10  2  1  0
 11  4  1  0
  4 12  1  0
  5 13  1  0
  7 14  1  0
  7 15  1  0
  8 16  1  0
  9 17  1  0
  9 18  1  0
 10 19  1  0
 11 20  1  0
 11 21  1  0
M  END
>  <mol_id>  (49) 
2026-09-18-6fnk-s0-n100-refligand-0050

>  <rmsd_to_ref>  (49) 


$$$$

     RDKit          3D

 19 20  0  0  0  0  0  0  0  0999 V2000
   -0.7981   18.1674   45.4153 N   0  0  0  0  0  0  0  0  0  0  0  0
    0.6747   16.5384   44.5273 C   0  0  0  0  0  0  0  0  0  0  0  0
   -0.1592   19.1712   44.6573 C   0  0  0  0  0  0  0  0  0  0  0  0
    1.2046   17.4669   43.7622 O   0  0  0  0  0  0  0  0  0  0  0  0
   -0.6864   16.8692   44.7717 C   0  0  0  0  0  0  0  0  0  0  0  0
    0.0094   21.3918   44.0111 C   0  0  0  0  0  0  0  0  0  0  0  0
   -0.5723   20.4783   44.9199 C   0  0  0  0  0  0  0  0  0  0  0  0
    0.9080   20.8823   42.9880 C   0  0  0  0  0  0  0  0  0  0  0  0
    0.6922   18.7637   43.7458 C   0  0  0  0  0  0  0  0  0  0  0  0
    1.1570   19.6138   42.8456 C   0  0  0  0  0  0  0  0  0  0  0  0
   -1.2814   18.3333   46.3096 H   0  0  0  0  0  0  0  0  0  0  0  0
    1.2203   16.4890   45.4811 H   0  0  0  0  0  0  0  0  0  0  0  0
    0.7381   15.5606   44.0275 H   0  0  0  0  0  0  0  0  0  0  0  0
   -1.2282   16.8941   43.8147 H   0  0  0  0  0  0  0  0  0  0  0  0
   -1.1181   16.1085   45.4386 H   0  0  0  0  0  0  0  0  0  0  0  0
   -0.2136   22.4670   44.0769 H   0  0  0  0  0  0  0  0  0  0  0  0
   -1.2614   20.7611   45.7293 H   0  0  0  0  0  0  0  0  0  0  0  0
    1.3956   21.5968   42.3086 H   0  0  0  0  0  0  0  0  0  0  0  0
    1.7455   19.2532   41.9891 H   0  0  0  0  0  0  0  0  0  0  0  0
  2  5  1  0
  3  7  2  0
  3  1  1  0
  4  2  1  0
  5  1  1  0
  6  7  1  0
  8  6  2  0
  9  4  1  0
  9  3  1  0
 10  8  1  0
 10  9  2  0
  1 11  1  0
  2 12  1  0
  2 13  1  0
  5 14  1  0
  5 15  1  0
  6 16  1  0
  7 17  1  0
  8 18  1  0
 10 19  1  0
M  END
>  <mol_id>  (50) 
2026-09-18-6fnk-s0-n100-refligand-0051

>  <rmsd_to_ref>  (50) 


$$$$

     RDKit          3D

 17 17  0  0  0  0  0  0  0  0999 V2000
   -1.1877   20.2215   45.9646 O   0  0  0  0  0  0  0  0  0  0  0  0
    0.8912   18.8602   46.1741 O   0  0  0  0  0  0  0  0  0  0  0  0
    0.9124   18.4358   44.0107 C   0  0  2  0  0  0  0  0  0  0  0  0
    0.3112   20.9122   44.2735 C   0  0  0  0  0  0  0  0  0  0  0  0
    0.6438   19.2565   45.5397 N   0  0  0  0  0  0  0  0  0  0  0  0
   -0.2882   20.2775   45.1765 C   0  0  0  0  0  0  0  0  0  0  0  0
    2.0051   17.4892   43.9606 N   0  0  0  0  0  0  0  0  0  0  0  0
    1.1956   20.1845   43.4258 C   0  0  0  0  0  0  0  0  0  0  0  0
    0.1385   18.7480   46.8074 H   0  0  0  0  0  0  0  0  0  0  0  0
    0.2125   17.7395   43.5257 H   0  0  0  0  0  0  0  0  0  0  0  0
   -0.4549   21.3715   43.6315 H   0  0  0  0  0  0  0  0  0  0  0  0
    0.9614   21.6158   44.8140 H   0  0  0  0  0  0  0  0  0  0  0  0
    2.0104   16.9250   44.8224 H   0  0  0  0  0  0  0  0  0  0  0  0
    1.8862   16.8704   43.1458 H   0  0  0  0  0  0  0  0  0  0  0  0
    2.8967   17.9981   43.8779 H   0  0  0  0  0  0  0  0  0  0  0  0
    0.9253   20.3029   42.3661 H   0  0  0  0  0  0  0  0  0  0  0  0
    2.2439   20.5129   43.4824 H   0  0  0  0  0  0  0  0  0  0  0  0
  3  7  1  0
  3  5  1  0
  4  6  1  0
  5  2  1  0
  6  5  1  0
  6  1  2  0
  8  4  1  0
  8  3  1  0
  2  9  1  0
  3 10  1  6
  4 11  1  0
  4 12  1  0
  7 13  1  0
  7 14  1  0
  7 15  1  0
  8 16  1  0
  8 17  1  0
M  CHG  1   7   1
M  END
>  <mol_id>  (51) 
2026-09-18-6fnk-s0-n100-refligand-0052

>  <rmsd_to_ref>  (51) 


$$$$

     RDKit          3D

 36 39  0  0  0  0  0  0  0  0999 V2000
    2.5732   16.4150   42.2756 C   0  0  0  0  0  0  0  0  0  0  0  0
   -0.5066   18.1207   44.9524 C   0  0  0  0  0  0  0  0  0  0  0  0
    2.7430   19.9150   38.5531 C   0  0  0  0  0  0  0  0  0  0  0  0
    1.5319   14.2041   42.6577 S   0  0  0  0  0  0  0  0  0  0  0  0
    1.4617   15.8315   42.9813 C   0  0  0  0  0  0  0  0  0  0  0  0
    0.9813   18.8913   43.2101 C   0  0  2  0  0  0  0  0  0  0  0  0
    2.4269   21.8510   37.2917 F   0  0  0  0  0  0  0  0  0  0  0  0
    3.0199   14.2932   41.7444 C   0  0  0  0  0  0  0  0  0  0  0  0
    2.3479   21.3464   40.8919 C   0  0  0  0  0  0  0  0  0  0  0  0
    2.4868   19.9606   40.8802 C   0  0  0  0  0  0  0  0  0  0  0  0
   -0.7657   17.1701   45.8454 N   0  0  0  0  0  0  0  0  0  0  0  0
    0.3055   17.7471   43.9307 C   0  0  1  0  0  0  0  0  0  0  0  0
   -1.0040   19.3628   45.0424 N   0  0  0  0  0  0  0  0  0  0  0  0
    0.3689   19.9093   43.2167 N   0  0  0  0  0  0  0  0  0  0  0  0
    2.9808   19.6695   43.0721 O   0  0  0  0  0  0  0  0  0  0  0  0
    0.4957   16.3752   43.7288 N   0  0  0  0  0  0  0  0  0  0  0  0
    2.4497   21.9698   39.6660 C   0  0  0  0  0  0  0  0  0  0  0  0
    2.8159   17.6449   41.9371 N   0  0  0  0  0  0  0  0  0  0  0  0
    2.5675   21.2734   38.4887 C   0  0  0  0  0  0  0  0  0  0  0  0
    2.2572   19.0014   42.1934 C   0  0  1  0  0  0  0  0  0  0  0  0
    2.7881   19.2757   39.8107 C   0  0  0  0  0  0  0  0  0  0  0  0
    3.5451   15.4116   41.8764 N   0  0  0  0  0  0  0  0  0  0  0  0
   -0.5369   20.0928   44.1368 C   0  0  0  0  0  0  0  0  0  0  0  0
    2.8482   19.3267   37.6296 H   0  0  0  0  0  0  0  0  0  0  0  0
    1.6871   18.2432   43.7503 H   0  0  0  0  0  0  0  0  0  0  0  0
    2.8025   14.1187   40.6803 H   0  0  0  0  0  0  0  0  0  0  0  0
    3.7143   13.5274   42.1202 H   0  0  0  0  0  0  0  0  0  0  0  0
    2.1683   21.9081   41.8205 H   0  0  0  0  0  0  0  0  0  0  0  0
   -1.3740   17.3728   46.6515 H   0  0  0  0  0  0  0  0  0  0  0  0
   -0.4965   17.7467   43.1779 H   0  0  0  0  0  0  0  0  0  0  0  0
   -1.6769   19.6741   45.7573 H   0  0  0  0  0  0  0  0  0  0  0  0
    2.7474   19.3713   43.9868 H   0  0  0  0  0  0  0  0  0  0  0  0
    2.4360   23.0692   39.6300 H   0  0  0  0  0  0  0  0  0  0  0  0
    3.0730   18.2161   39.8884 H   0  0  0  0  0  0  0  0  0  0  0  0
    4.5453   15.6035   41.7221 H   0  0  0  0  0  0  0  0  0  0  0  0
   -0.9843   21.0975   44.1132 H   0  0  0  0  0  0  0  0  0  0  0  0
  1  5  1  0
  2 11  2  3
  3 21  2  0
  4  5  1  0
  5 16  2  0
  6 14  1  0
  6 12  1  0
  7 19  1  0
  8 22  1  0
  8  4  1  0
  9 10  2  0
 10 20  1  0
 12 16  1  0
 12  2  1  0
 13  2  1  0
 14 23  2  0
 17  9  1  0
 18 20  1  0
 18  1  2  0
 19  3  1  0
 19 17  2  0
 20 15  1  1
 20  6  1  0
 21 10  1  0
 22  1  1  0
 23 13  1  0
  3 24  1  0
  6 25  1  1
  8 26  1  0
  8 27  1  0
  9 28  1  0
 11 29  1  0
 12 30  1  6
 13 31  1  0
 15 32  1  0
 17 33  1  0
 21 34  1  0
 22 35  1  0
 23 36  1  0
M  END
>  <mol_id>  (52) 
2026-09-18-6fnk-s0-n100-refligand-0053

>  <rmsd_to_ref>  (52) 


$$$$

     RDKit          3D

 21 21  0  0  0  0  0  0  0  0999 V2000
    1.3385   16.2171   43.7556 C   0  0  0  0  0  0  0  0  0  0  0  0
   -0.3629   20.5201   44.9502 C   0  0  0  0  0  0  0  0  0  0  0  0
    1.1299   21.4393   41.7771 O   0  0  0  0  0  0  0  0  0  0  0  0
    0.6372   18.5768   44.0078 C   0  0  0  0  0  0  0  0  0  0  0  0
    0.0233   15.4837   42.2498 O   0  0  0  0  0  0  0  0  0  0  0  0
    1.0357   15.4216   42.6739 C   0  0  0  0  0  0  0  0  0  0  0  0
    1.7909   14.3305   42.4057 O   0  0  0  0  0  0  0  0  0  0  0  0
    0.9912   17.2830   44.2547 C   0  0  0  0  0  0  0  0  0  0  0  0
    0.0866   21.2962   43.8875 C   0  0  0  0  0  0  0  0  0  0  0  0
    0.8012   20.6900   42.8374 C   0  0  0  0  0  0  0  0  0  0  0  0
    1.0428   19.2589   42.9239 C   0  0  0  0  0  0  0  0  0  0  0  0
   -0.0908   19.1670   44.9517 C   0  0  0  0  0  0  0  0  0  0  0  0
    2.4168   16.3815   43.6132 H   0  0  0  0  0  0  0  0  0  0  0  0
    0.7022   15.6300   44.4341 H   0  0  0  0  0  0  0  0  0  0  0  0
   -0.9264   20.9774   45.7768 H   0  0  0  0  0  0  0  0  0  0  0  0
    0.9387   22.4106   41.7790 H   0  0  0  0  0  0  0  0  0  0  0  0
    0.1058   16.9489   44.8153 H   0  0  0  0  0  0  0  0  0  0  0  0
    2.0440   17.5843   44.3597 H   0  0  0  0  0  0  0  0  0  0  0  0
   -0.1152   22.3773   43.8678 H   0  0  0  0  0  0  0  0  0  0  0  0
    1.5565   18.7360   42.1037 H   0  0  0  0  0  0  0  0  0  0  0  0
   -0.4933   18.5502   45.7687 H   0  0  0  0  0  0  0  0  0  0  0  0
  1  8  1  0
  2 12  1  0
  3 10  1  0
  4 12  2  0
  4  8  1  0
  5  6  2  0
  6  7  1  0
  6  1  1  0
  9  2  2  0
 10 11  2  0
 10  9  1  0
 11  4  1  0
  1 13  1  0
  1 14  1  0
  2 15  1  0
  3 16  1  0
  8 17  1  0
  8 18  1  0
  9 19  1  0
 11 20  1  0
 12 21  1  0
M  CHG  1   7  -1
M  END
>  <mol_id>  (53) 
2026-09-18-6fnk-s0-n100-refligand-0054

>  <rmsd_to_ref>  (53) 


$$$$

     RDKit          3D

 17 18  0  0  0  0  0  0  0  0999 V2000
    0.7409   17.0034   44.4137 N   0  0  0  0  0  0  0  0  0  0  0  0
    0.0407   20.9567   44.1488 N   0  0  0  0  0  0  0  0  0  0  0  0
   -0.4127   16.8704   46.4314 N   0  0  0  0  0  0  0  0  0  0  0  0
   -0.2158   18.9726   45.4125 N   0  0  0  0  0  0  0  0  0  0  0  0
    0.9987   19.1937   43.3535 C   0  0  1  0  0  0  0  0  0  0  0  0
    0.0369   17.6470   45.4147 C   0  0  0  0  0  0  0  0  0  0  0  0
    1.3442   20.2159   42.5329 C   0  0  0  0  0  0  0  0  0  0  0  0
    0.6006   21.3159   43.0775 C   0  0  0  0  0  0  0  0  0  0  0  0
    0.2380   19.6837   44.3313 C   0  0  0  0  0  0  0  0  0  0  0  0
    2.0237   17.1956   42.0505 S   0  0  0  0  0  0  0  0  0  0  0  0
    1.2123   17.7770   43.4986 C   0  0  0  0  0  0  0  0  0  0  0  0
   -0.9437   17.2931   47.2063 H   0  0  0  0  0  0  0  0  0  0  0  0
   -0.2233   15.8579   46.4288 H   0  0  0  0  0  0  0  0  0  0  0  0
   -0.7242   19.4275   46.1843 H   0  0  0  0  0  0  0  0  0  0  0  0
    1.8974   19.3774   43.9606 H   0  0  0  0  0  0  0  0  0  0  0  0
    2.0233   20.2050   41.6676 H   0  0  0  0  0  0  0  0  0  0  0  0
    0.5300   22.3180   42.6295 H   0  0  0  0  0  0  0  0  0  0  0  0
  1  6  2  0
  2  9  2  0
  4  6  1  0
  5  7  1  0
  5  9  1  0
  5 11  1  0
  6  3  1  0
  8  7  2  0
  8  2  1  0
  9  4  1  0
 10 11  2  0
 11  1  1  0
  3 12  1  0
  3 13  1  0
  4 14  1  0
  5 15  1  1
  7 16  1  0
  8 17  1  0
M  END
>  <mol_id>  (54) 
2026-09-18-6fnk-s0-n100-refligand-0055

>  <rmsd_to_ref>  (54) 


$$$$

     RDKit          3D

 17 18  0  0  0  0  0  0  0  0999 V2000
    0.1630   20.3100   43.9640 C   0  0  0  0  0  0  0  0  0  0  0  0
    1.3190   20.0560   43.4360 C   0  0  2  0  0  0  0  0  0  0  0  0
    0.9860   18.6800   42.2920 C   0  0  0  0  0  0  0  0  0  0  0  0
    0.6450   19.0940   44.3740 C   0  0  2  0  0  0  0  0  0  0  0  0
    0.9300   17.7780   44.1370 C   0  0  0  0  0  0  0  0  0  0  0  0
    2.0910   17.0040   42.0660 C   0  0  0  0  0  0  0  0  0  0  0  0
    1.3310   18.1490   42.7400 C   0  0  1  0  0  0  0  0  0  0  0  0
   -0.4010   21.1960   43.8810 O   0  0  0  0  0  0  0  0  0  0  0  0
    2.7780   16.8570   41.6060 O   0  0  0  0  0  0  0  0  0  0  0  0
    2.1650   20.7225   43.2122 H   0  0  0  0  0  0  0  0  0  0  0  0
   -0.0875   18.4901   42.1450 H   0  0  0  0  0  0  0  0  0  0  0  0
    1.3243   18.7784   41.2499 H   0  0  0  0  0  0  0  0  0  0  0  0
    0.3807   18.6052   45.3234 H   0  0  0  0  0  0  0  0  0  0  0  0
    1.7477   17.3730   44.7514 H   0  0  0  0  0  0  0  0  0  0  0  0
    0.1820   16.9932   44.3230 H   0  0  0  0  0  0  0  0  0  0  0  0
    1.5597   16.0573   42.2435 H   0  0  0  0  0  0  0  0  0  0  0  0
    1.9421   19.0301   42.9854 H   0  0  0  0  0  0  0  0  0  0  0  0
  1  4  1  0
  2  3  1  0
  2  1  1  0
  2  4  1  0
  3  7  1  0
  4  5  1  0
  7  6  1  0
  7  5  1  0
  8  1  2  0
  9  6  2  0
  2 10  1  1
  3 11  1  0
  3 12  1  0
  4 13  1  1
  5 14  1  0
  5 15  1  0
  6 16  1  0
  7 17  1  1
M  END
>  <mol_id>  (55) 
2026-09-18-6fnk-s0-n100-refligand-0056

>  <rmsd_to_ref>  (55) 


$$$$

     RDKit          3D

 43 45  0  0  0  0  0  0  0  0999 V2000
    2.1158   17.9898   40.2955 N   0  0  0  0  0  0  0  0  0  0  0  0
    2.8626   13.7167   39.6152 O   0  0  0  0  0  0  0  0  0  0  0  0
    3.5909   14.6485   40.1244 C   0  0  0  0  0  0  0  0  0  0  0  0
    4.7240   14.9695   39.5834 O   0  0  0  0  0  0  0  0  0  0  0  0
    2.2227   16.7296   39.7247 C   0  0  0  0  0  0  0  0  0  0  0  0
   -0.0558   18.0797   44.0737 C   0  0  1  0  0  0  0  0  0  0  0  0
   -1.0165   17.0310   46.4309 C   0  0  0  0  0  0  0  0  0  0  0  0
    2.2949   19.1872   39.5355 C   0  0  0  0  0  0  0  0  0  0  0  0
   -0.6681   18.8910   45.0718 C   0  0  0  0  0  0  0  0  0  0  0  0
   -1.5563   16.3781   47.6628 C   0  0  0  0  0  0  0  0  0  0  0  0
    0.3035   18.8115   42.9564 N   0  0  0  0  0  0  0  0  0  0  0  0
    0.0917   16.7206   44.2937 C   0  0  0  0  0  0  0  0  0  0  0  0
   -1.1463   18.3063   46.1947 N   0  0  0  0  0  0  0  0  0  0  0  0
   -0.4436   16.1502   45.5358 C   0  0  0  0  0  0  0  0  0  0  0  0
    1.6049   20.3940   41.7525 C   0  0  0  0  0  0  0  0  0  0  0  0
    3.0429   20.5076   41.4914 C   0  0  0  0  0  0  0  0  0  0  0  0
    3.2285   20.2384   40.0754 C   0  0  0  0  0  0  0  0  0  0  0  0
    2.3927   16.3313   42.1696 S   0  0  0  0  0  0  0  0  0  0  0  0
    2.8048   15.8938   40.5717 C   0  0  2  0  0  0  0  0  0  0  0  0
    1.3052   19.0244   42.1685 C   0  0  2  0  0  0  0  0  0  0  0  0
    1.8604   17.9178   41.5860 C   0  0  2  0  0  0  0  0  0  0  0  0
   -0.7205   20.1122   44.8514 O   0  0  0  0  0  0  0  0  0  0  0  0
    1.2180   16.3558   39.4775 H   0  0  0  0  0  0  0  0  0  0  0  0
    2.8318   16.7986   38.8114 H   0  0  0  0  0  0  0  0  0  0  0  0
   -1.0496   17.9012   43.6373 H   0  0  0  0  0  0  0  0  0  0  0  0
    2.6731   18.8920   38.5456 H   0  0  0  0  0  0  0  0  0  0  0  0
    1.3058   19.6684   39.5469 H   0  0  0  0  0  0  0  0  0  0  0  0
   -1.1399   16.8730   48.5526 H   0  0  0  0  0  0  0  0  0  0  0  0
   -2.6527   16.4658   47.6739 H   0  0  0  0  0  0  0  0  0  0  0  0
   -1.2734   15.3150   47.6684 H   0  0  0  0  0  0  0  0  0  0  0  0
   -0.4151   18.5088   42.2835 H   0  0  0  0  0  0  0  0  0  0  0  0
    0.5322   19.6375   43.5276 H   0  0  0  0  0  0  0  0  0  0  0  0
    0.5984   16.0828   43.5544 H   0  0  0  0  0  0  0  0  0  0  0  0
   -0.3906   15.0713   45.7435 H   0  0  0  0  0  0  0  0  0  0  0  0
    1.0435   20.6330   40.8373 H   0  0  0  0  0  0  0  0  0  0  0  0
    1.3140   21.0967   42.5472 H   0  0  0  0  0  0  0  0  0  0  0  0
    3.3942   21.5213   41.7346 H   0  0  0  0  0  0  0  0  0  0  0  0
    3.6160   19.8004   42.1089 H   0  0  0  0  0  0  0  0  0  0  0  0
    4.2630   19.8989   39.9183 H   0  0  0  0  0  0  0  0  0  0  0  0
    3.0092   21.1725   39.5374 H   0  0  0  0  0  0  0  0  0  0  0  0
    1.8825   15.2958   40.6156 H   0  0  0  0  0  0  0  0  0  0  0  0
    2.2275   19.2317   42.7309 H   0  0  0  0  0  0  0  0  0  0  0  0
    2.8658   18.3060   41.8066 H   0  0  0  0  0  0  0  0  0  0  0  0
  1  8  1  0
  1 21  1  0
  2  3  1  0
  4  3  2  0
  5  1  1  0
  5 19  1  0
  6 11  1  0
  6 12  1  0
  6  9  1  0
  7 10  1  0
  8 17  1  0
  9 13  1  0
 12 14  2  0
 13  7  2  0
 14  7  1  0
 15 20  1  0
 16 15  1  0
 17 16  1  0
 19  3  1  0
 19 18  1  0
 20 11  1  0
 21 20  1  0
 21 18  1  0
 22  9  2  0
  5 23  1  0
  5 24  1  0
  6 25  1  6
  8 26  1  0
  8 27  1  0
 10 28  1  0
 10 29  1  0
 10 30  1  0
 11 31  1  0
 11 32  1  0
 12 33  1  0
 14 34  1  0
 15 35  1  0
 15 36  1  0
 16 37  1  0
 16 38  1  0
 17 39  1  0
 17 40  1  0
 19 41  1  1
 20 42  1  1
 21 43  1  1
M  CHG  2   2  -1  11   1
M  END
>  <mol_id>  (56) 
2026-09-18-6fnk-s0-n100-refligand-0057

>  <rmsd_to_ref>  (56) 


$$$$

     RDKit          3D

 45 47  0  0  0  0  0  0  0  0999 V2000
    1.2012   15.6752   43.4029 C   0  0  1  0  0  0  0  0  0  0  0  0
    0.9278   18.7753   41.7785 N   0  0  0  0  0  0  0  0  0  0  0  0
    3.8335   20.8585   42.5401 O   0  0  0  0  0  0  0  0  0  0  0  0
    4.9276   21.9505   38.1337 F   0  0  0  0  0  0  0  0  0  0  0  0
    0.9844   15.1020   42.1494 C   0  0  0  0  0  0  0  0  0  0  0  0
   -0.2397   19.4603   43.7701 C   0  0  0  0  0  0  0  0  0  0  0  0
    2.3201   18.7620   41.6714 C   0  0  0  0  0  0  0  0  0  0  0  0
    2.4000   13.2077   41.8355 C   0  0  0  0  0  0  0  0  0  0  0  0
    0.6504   17.0749   43.6315 N   0  0  0  0  0  0  0  0  0  0  0  0
    0.4566   19.9412   42.5196 C   0  0  0  0  0  0  0  0  0  0  0  0
    1.8539   15.6288   45.6013 O   0  0  0  0  0  0  0  0  0  0  0  0
   -1.1714   19.2957   45.7163 N   0  0  0  0  0  0  0  0  0  0  0  0
   -0.0865   18.2030   44.2150 C   0  0  0  0  0  0  0  0  0  0  0  0
   -0.9110   20.1007   44.6215 N   0  0  0  0  0  0  0  0  0  0  0  0
    2.9126   13.2868   43.0921 C   0  0  0  0  0  0  0  0  0  0  0  0
    2.3285   19.8116   39.3848 C   0  0  0  0  0  0  0  0  0  0  0  0
    3.5864   20.7258   41.2328 C   0  0  0  0  0  0  0  0  0  0  0  0
    1.9155   15.1070   44.4406 C   0  0  0  0  0  0  0  0  0  0  0  0
    2.6704   19.7894   40.7183 C   0  0  0  0  0  0  0  0  0  0  0  0
    1.3989   14.0358   41.4579 C   0  0  0  0  0  0  0  0  0  0  0  0
    3.0813   20.5869   38.4957 C   0  0  0  0  0  0  0  0  0  0  0  0
   -0.6122   18.1268   45.4355 C   0  0  0  0  0  0  0  0  0  0  0  0
    2.6704   13.8931   44.2498 C   0  0  0  0  0  0  0  0  0  0  0  0
    4.1101   21.3457   39.0264 C   0  0  0  0  0  0  0  0  0  0  0  0
    4.3830   21.4214   40.3003 C   0  0  0  0  0  0  0  0  0  0  0  0
    2.1295   16.1063   43.0000 H   0  0  0  0  0  0  0  0  0  0  0  0
    0.6221   17.9222   42.2681 H   0  0  0  0  0  0  0  0  0  0  0  0
    0.5320   18.8163   40.8284 H   0  0  0  0  0  0  0  0  0  0  0  0
    4.4873   21.5323   42.8544 H   0  0  0  0  0  0  0  0  0  0  0  0
    0.2684   15.6968   41.5634 H   0  0  0  0  0  0  0  0  0  0  0  0
    2.7780   18.9780   42.6479 H   0  0  0  0  0  0  0  0  0  0  0  0
    2.6834   17.7766   41.3440 H   0  0  0  0  0  0  0  0  0  0  0  0
    2.7997   12.4694   41.1247 H   0  0  0  0  0  0  0  0  0  0  0  0
    1.0978   17.5602   42.8409 H   0  0  0  0  0  0  0  0  0  0  0  0
    1.3107   20.5787   42.7917 H   0  0  0  0  0  0  0  0  0  0  0  0
   -0.2388   20.5273   41.9009 H   0  0  0  0  0  0  0  0  0  0  0  0
   -1.2201   21.0778   44.5184 H   0  0  0  0  0  0  0  0  0  0  0  0
    3.8060   12.6509   43.1773 H   0  0  0  0  0  0  0  0  0  0  0  0
    1.4716   19.2254   39.0217 H   0  0  0  0  0  0  0  0  0  0  0  0
    0.8871   13.8149   40.5096 H   0  0  0  0  0  0  0  0  0  0  0  0
    2.8640   20.5931   37.4175 H   0  0  0  0  0  0  0  0  0  0  0  0
   -0.5872   17.2475   46.0959 H   0  0  0  0  0  0  0  0  0  0  0  0
    2.1594   13.1387   44.8663 H   0  0  0  0  0  0  0  0  0  0  0  0
    3.6797   14.2691   44.4733 H   0  0  0  0  0  0  0  0  0  0  0  0
    5.2335   22.0272   40.6461 H   0  0  0  0  0  0  0  0  0  0  0  0
  1  9  1  0
  1 18  1  0
  2 10  1  0
  4 24  1  0
  5  1  1  0
  6 13  2  0
  6 14  1  0
  7  2  1  0
  8 15  2  0
  9 13  1  0
 10  6  1  0
 13 22  1  0
 14 12  1  0
 15 23  1  0
 16 19  1  0
 17  3  1  0
 18 11  2  0
 19 17  2  0
 19  7  1  0
 20  8  1  0
 20  5  2  0
 21 24  1  0
 21 16  2  0
 22 12  2  0
 23 18  1  0
 24 25  2  0
 25 17  1  0
  1 26  1  6
  2 27  1  0
  2 28  1  0
  3 29  1  0
  5 30  1  0
  7 31  1  0
  7 32  1  0
  8 33  1  0
  9 34  1  0
 10 35  1  0
 10 36  1  0
 14 37  1  0
 15 38  1  0
 16 39  1  0
 20 40  1  0
 21 41  1  0
 22 42  1  0
 23 43  1  0
 23 44  1  0
 25 45  1  0
M  CHG  1   2   1
M  END
>  <mol_id>  (57) 
2026-09-18-6fnk-s0-n100-refligand-0058

>  <rmsd_to_ref>  (57) 


$$$$

     RDKit          3D

 35 37  0  0  0  0  0  0  0  0999 V2000
   -0.1572   17.8005   45.1242 N   0  0  0  0  0  0  0  0  0  0  0  0
    1.6253   21.1002   39.8518 C   0  0  0  0  0  0  0  0  0  0  0  0
   -1.7599   19.3470   44.9719 N   0  0  0  0  0  0  0  0  0  0  0  0
    1.6692   21.5237   41.1765 C   0  0  0  0  0  0  0  0  0  0  0  0
    1.4914   20.6232   42.2132 C   0  0  0  0  0  0  0  0  0  0  0  0
    2.3058   16.7889   41.5574 N   0  0  0  0  0  0  0  0  0  0  0  0
    1.5487   19.7486   39.5832 C   0  0  0  0  0  0  0  0  0  0  0  0
   -1.1413   19.3201   43.8015 N   0  0  0  0  0  0  0  0  0  0  0  0
   -0.0914   18.4650   43.9394 C   0  0  0  0  0  0  0  0  0  0  0  0
    1.6089   17.4716   40.4784 C   0  0  0  0  0  0  0  0  0  0  0  0
    1.4189   18.8382   40.5910 C   0  0  0  0  0  0  0  0  0  0  0  0
    0.9049   18.2893   42.8096 C   0  0  2  0  0  0  0  0  0  0  0  0
    1.6413   17.0123   42.8245 N   0  0  0  0  0  0  0  0  0  0  0  0
    1.9965   14.5492   43.3403 C   0  0  0  0  0  0  0  0  0  0  0  0
    3.3379   13.8539   43.2755 C   0  0  0  0  0  0  0  0  0  0  0  0
    2.0225   16.0234   43.8451 C   0  0  0  0  0  0  0  0  0  0  0  0
   -1.1877   18.4320   45.6876 C   0  0  0  0  0  0  0  0  0  0  0  0
    1.1752   19.3017   41.9165 C   0  0  0  0  0  0  0  0  0  0  0  0
    1.6512   21.8318   39.0308 H   0  0  0  0  0  0  0  0  0  0  0  0
    1.8471   22.5855   41.4026 H   0  0  0  0  0  0  0  0  0  0  0  0
    1.5990   20.9489   43.2583 H   0  0  0  0  0  0  0  0  0  0  0  0
    3.2703   17.1457   41.6149 H   0  0  0  0  0  0  0  0  0  0  0  0
    1.5929   19.4001   38.5408 H   0  0  0  0  0  0  0  0  0  0  0  0
   -1.4030   19.8433   42.9537 H   0  0  0  0  0  0  0  0  0  0  0  0
    0.6149   17.0094   40.3867 H   0  0  0  0  0  0  0  0  0  0  0  0
    2.2706   17.3567   39.6072 H   0  0  0  0  0  0  0  0  0  0  0  0
    0.1209   17.8300   42.1896 H   0  0  0  0  0  0  0  0  0  0  0  0
    1.3490   13.9719   44.0167 H   0  0  0  0  0  0  0  0  0  0  0  0
    1.6318   14.5939   42.3035 H   0  0  0  0  0  0  0  0  0  0  0  0
    3.7386   13.7346   44.2929 H   0  0  0  0  0  0  0  0  0  0  0  0
    3.2158   12.8642   42.8112 H   0  0  0  0  0  0  0  0  0  0  0  0
    4.0350   14.4571   42.6753 H   0  0  0  0  0  0  0  0  0  0  0  0
    3.0424   16.2542   44.1864 H   0  0  0  0  0  0  0  0  0  0  0  0
    1.2789   16.0965   44.6524 H   0  0  0  0  0  0  0  0  0  0  0  0
   -1.5324   18.1893   46.7036 H   0  0  0  0  0  0  0  0  0  0  0  0
  1 17  1  0
  2  4  2  0
  3 17  2  0
  4  5  1  0
  6 13  1  0
  7  2  1  0
  7 11  2  0
  8  9  1  0
  8  3  1  0
  9  1  2  0
 10 11  1  0
 10  6  1  0
 11 18  1  0
 12 13  1  0
 12  9  1  0
 13 16  1  0
 14 16  1  0
 15 14  1  0
 18  5  2  0
 18 12  1  0
  2 19  1  0
  4 20  1  0
  5 21  1  0
  6 22  1  0
  7 23  1  0
  8 24  1  0
 10 25  1  0
 10 26  1  0
 12 27  1  6
 14 28  1  0
 14 29  1  0
 15 30  1  0
 15 31  1  0
 15 32  1  0
 16 33  1  0
 16 34  1  0
 17 35  1  0
M  END
>  <mol_id>  (58) 
2026-09-18-6fnk-s0-n100-refligand-0059

>  <rmsd_to_ref>  (58) 


$$$$

     RDKit          3D

 53 56  0  0  0  0  0  0  0  0999 V2000
   -1.3784   12.7938   44.6964 C   0  0  0  0  0  0  0  0  0  0  0  0
   -0.7678   15.4746   44.3280 C   0  0  0  0  0  0  0  0  0  0  0  0
   -0.3550   14.4633   43.2969 C   0  0  0  0  0  0  0  0  0  0  0  0
    3.2287   20.9408   41.5260 C   0  0  0  0  0  0  0  0  0  0  0  0
    5.7991   22.3532   37.8033 C   0  0  0  0  0  0  0  0  0  0  0  0
   -0.7910   15.0369   45.7630 C   0  0  0  0  0  0  0  0  0  0  0  0
    1.9039   17.6157   41.4661 O   0  0  0  0  0  0  0  0  0  0  0  0
    3.7278   21.3688   38.3395 C   0  0  0  0  0  0  0  0  0  0  0  0
   -1.5005   13.7761   45.9605 C   0  0  0  0  0  0  0  0  0  0  0  0
    4.9365   21.7775   40.1052 C   0  0  0  0  0  0  0  0  0  0  0  0
    1.2151   17.9115   42.4969 C   0  0  0  0  0  0  0  0  0  0  0  0
   -1.4152   13.1690   43.7012 C   0  0  0  0  0  0  0  0  0  0  0  0
    6.3688   21.2480   38.5285 C   0  0  0  0  0  0  0  0  0  0  0  0
    0.8132   19.3640   42.3100 C   0  0  0  0  0  0  0  0  0  0  0  0
    0.0751   16.7331   44.1214 N   0  0  0  0  0  0  0  0  0  0  0  0
    4.3783   21.4439   41.2773 C   0  0  0  0  0  0  0  0  0  0  0  0
    5.0610   21.7453   38.8534 C   0  0  0  0  0  0  0  0  0  0  0  0
    2.5878   20.8804   39.2577 C   0  0  0  0  0  0  0  0  0  0  0  0
    1.0896   16.6925   43.5554 C   0  0  0  0  0  0  0  0  0  0  0  0
    2.2385   20.8061   40.5440 C   0  0  1  0  0  0  0  0  0  0  0  0
   -0.0536   19.8334   43.5492 C   0  0  0  0  0  0  0  0  0  0  0  0
   -0.5985   19.9152   45.8013 O   0  0  0  0  0  0  0  0  0  0  0  0
   -0.6431   21.1974   43.3792 O   0  0  0  0  0  0  0  0  0  0  0  0
   -0.4896   19.1286   44.8748 C   0  0  0  0  0  0  0  0  0  0  0  0
    0.8286   20.5530   41.2048 C   0  0  0  0  0  0  0  0  0  0  0  0
   -0.5885   17.8402   44.7665 N   0  0  0  0  0  0  0  0  0  0  0  0
    2.0057   15.8362   43.5176 O   0  0  0  0  0  0  0  0  0  0  0  0
   -0.4146   12.2733   44.7979 H   0  0  0  0  0  0  0  0  0  0  0  0
   -2.3025   12.2009   44.7634 H   0  0  0  0  0  0  0  0  0  0  0  0
   -1.8371   15.6614   44.1502 H   0  0  0  0  0  0  0  0  0  0  0  0
    0.7009   14.1755   43.4082 H   0  0  0  0  0  0  0  0  0  0  0  0
   -0.4253   14.8102   42.2554 H   0  0  0  0  0  0  0  0  0  0  0  0
    3.0095   20.6012   42.5490 H   0  0  0  0  0  0  0  0  0  0  0  0
    6.2087   23.3656   37.9346 H   0  0  0  0  0  0  0  0  0  0  0  0
    5.6056   22.5677   36.7420 H   0  0  0  0  0  0  0  0  0  0  0  0
    0.2457   14.9144   46.1096 H   0  0  0  0  0  0  0  0  0  0  0  0
   -1.3251   15.8097   46.3355 H   0  0  0  0  0  0  0  0  0  0  0  0
    3.5403   21.4397   37.2579 H   0  0  0  0  0  0  0  0  0  0  0  0
   -2.5644   13.9943   46.1356 H   0  0  0  0  0  0  0  0  0  0  0  0
   -1.0431   13.2681   46.8224 H   0  0  0  0  0  0  0  0  0  0  0  0
    4.8293   22.8676   40.2060 H   0  0  0  0  0  0  0  0  0  0  0  0
    5.4874   20.8262   40.1435 H   0  0  0  0  0  0  0  0  0  0  0  0
   -2.4429   13.5161   43.5183 H   0  0  0  0  0  0  0  0  0  0  0  0
   -1.0820   12.3291   43.0738 H   0  0  0  0  0  0  0  0  0  0  0  0
    6.4817   20.2679   38.0421 H   0  0  0  0  0  0  0  0  0  0  0  0
    7.3011   21.0753   39.0861 H   0  0  0  0  0  0  0  0  0  0  0  0
    5.0052   21.6317   42.1615 H   0  0  0  0  0  0  0  0  0  0  0  0
    1.7888   20.4436   38.6405 H   0  0  0  0  0  0  0  0  0  0  0  0
    2.0492   21.8896   40.5552 H   0  0  0  0  0  0  0  0  0  0  0  0
   -1.2033   21.5875   44.0962 H   0  0  0  0  0  0  0  0  0  0  0  0
    0.5058   21.4833   41.6950 H   0  0  0  0  0  0  0  0  0  0  0  0
    0.1527   20.2398   40.3954 H   0  0  0  0  0  0  0  0  0  0  0  0
   -1.3933   17.5005   45.3122 H   0  0  0  0  0  0  0  0  0  0  0  0
  1  9  1  0
  2  6  1  0
  3 12  1  0
  3  2  1  0
  5 13  1  0
  5 17  1  0
  6  9  1  0
  7 11  2  0
  8 17  1  0
  8 18  2  0
 10 16  1  0
 11 19  1  0
 12  1  1  0
 13 17  1  0
 14 11  1  0
 14 21  2  0
 15  2  1  0
 15 26  1  0
 16  4  2  0
 17 10  1  0
 18 20  1  0
 19 15  1  0
 20 25  1  0
 20  4  1  0
 21 24  1  0
 23 21  1  0
 24 22  2  0
 25 14  1  0
 26 24  1  0
 27 19  2  0
  1 28  1  0
  1 29  1  0
  2 30  1  0
  3 31  1  0
  3 32  1  0
  4 33  1  0
  5 34  1  0
  5 35  1  0
  6 36  1  0
  6 37  1  0
  8 38  1  0
  9 39  1  0
  9 40  1  0
 10 41  1  0
 10 42  1  0
 12 43  1  0
 12 44  1  0
 13 45  1  0
 13 46  1  0
 16 47  1  0
 18 48  1  0
 20 49  1  1
 23 50  1  0
 25 51  1  0
 25 52  1  0
 26 53  1  0
M  END
>  <mol_id>  (59) 
2026-09-18-6fnk-s0-n100-refligand-0060

>  <rmsd_to_ref>  (59) 


$$$$

     RDKit          3D

 32 33  0  0  0  0  0  0  0  0999 V2000
   -0.5230   17.7110   45.2580 C   0  0  0  0  0  0  0  0  0  0  0  0
    1.9780   16.8950   42.8470 O   0  0  0  0  0  0  0  0  0  0  0  0
   -1.1910   16.9410   46.0970 N   0  0  0  0  0  0  0  0  0  0  0  0
    0.3590   16.1170   44.3040 C   0  0  0  0  0  0  0  0  0  0  0  0
    0.3670   21.2700   42.6790 C   0  0  0  0  0  0  0  0  0  0  0  0
    1.2630   20.8760   41.7710 C   0  0  0  0  0  0  0  0  0  0  0  0
    0.8270   18.4200   43.5690 C   0  0  1  0  0  0  0  0  0  0  0  0
    0.4450   17.3350   44.2110 C   0  0  0  0  0  0  0  0  0  0  0  0
   -0.0710   19.3720   44.1270 C   0  0  1  0  0  0  0  0  0  0  0  0
    1.8670   15.6400   42.5940 C   0  0  0  0  0  0  0  0  0  0  0  0
    1.9840   18.7810   42.7950 C   0  0  0  0  0  0  0  0  0  0  0  0
    2.1860   19.8120   41.9640 C   0  0  0  0  0  0  0  0  0  0  0  0
    1.4290   21.5060   40.6910 O   0  0  0  0  0  0  0  0  0  0  0  0
    0.9680   15.2230   43.4360 C   0  0  0  0  0  0  0  0  0  0  0  0
   -0.6380   18.9550   45.2500 N   0  0  0  0  0  0  0  0  0  0  0  0
   -0.1280   20.6500   43.7990 C   0  0  0  0  0  0  0  0  0  0  0  0
    1.9903   17.0342   43.8271 H   0  0  0  0  0  0  0  0  0  0  0  0
   -1.8386   17.3621   46.7783 H   0  0  0  0  0  0  0  0  0  0  0  0
   -0.2401   15.7052   45.1295 H   0  0  0  0  0  0  0  0  0  0  0  0
   -0.5314   21.4853   42.0820 H   0  0  0  0  0  0  0  0  0  0  0  0
    1.0208   21.9817   43.2044 H   0  0  0  0  0  0  0  0  0  0  0  0
    1.1706   18.1356   42.5635 H   0  0  0  0  0  0  0  0  0  0  0  0
   -0.7435   19.4395   43.2591 H   0  0  0  0  0  0  0  0  0  0  0  0
    1.5354   15.4788   41.5576 H   0  0  0  0  0  0  0  0  0  0  0  0
    2.8217   15.1034   42.6970 H   0  0  0  0  0  0  0  0  0  0  0  0
    2.8416   18.1006   42.9028 H   0  0  0  0  0  0  0  0  0  0  0  0
    3.1266   19.8370   41.3942 H   0  0  0  0  0  0  0  0  0  0  0  0
    0.1656   14.7628   42.8407 H   0  0  0  0  0  0  0  0  0  0  0  0
    1.5396   14.5680   44.1100 H   0  0  0  0  0  0  0  0  0  0  0  0
   -1.0840   19.5393   45.9715 H   0  0  0  0  0  0  0  0  0  0  0  0
    0.3550   21.1715   44.6385 H   0  0  0  0  0  0  0  0  0  0  0  0
   -1.1983   20.7032   43.5507 H   0  0  0  0  0  0  0  0  0  0  0  0
  1  3  2  3
  5 16  1  0
  6 12  1  0
  6  5  1  0
  7 11  1  0
  7  9  1  0
  7  8  1  0
  8  4  2  3
  8  1  1  0
  9 16  1  0
  9 15  1  0
 10  2  1  0
 10 14  1  0
 12 11  2  0
 13  6  2  0
 14  4  1  0
 15  1  1  0
  2 17  1  0
  3 18  1  0
  4 19  1  0
  5 20  1  0
  5 21  1  0
  7 22  1  6
  9 23  1  6
 10 24  1  0
 10 25  1  0
 11 26  1  0
 12 27  1  0
 14 28  1  0
 14 29  1  0
 15 30  1  0
 16 31  1  0
 16 32  1  0
M  END
>  <mol_id>  (60) 
2026-09-18-6fnk-s0-n100-refligand-0061

>  <rmsd_to_ref>  (60) 


$$$$

     RDKit          3D

 47 49  0  0  0  0  0  0  0  0999 V2000
    2.4825   16.8270   39.8062 C   0  0  0  0  0  0  0  0  0  0  0  0
    0.0064   18.4057   44.1463 C   0  0  2  0  0  0  0  0  0  0  0  0
    2.2432   15.9748   42.1820 C   0  0  1  0  0  0  0  0  0  0  0  0
    2.8535   16.0683   40.8645 C   0  0  1  0  0  0  0  0  0  0  0  0
   -0.9469   15.1316   47.7855 C   0  0  0  0  0  0  0  0  0  0  0  0
   -0.0149   19.4787   43.1065 C   0  0  0  0  0  0  0  0  0  0  0  0
    1.2824   18.1906   41.5935 C   0  0  0  0  0  0  0  0  0  0  0  0
   -1.4904   19.4329   45.7598 O   0  0  0  0  0  0  0  0  0  0  0  0
    1.3215   17.1817   42.5439 C   0  0  1  0  0  0  0  0  0  0  0  0
    2.2861   20.7422   40.0308 F   0  0  0  0  0  0  0  0  0  0  0  0
   -0.6522   18.4804   45.4499 C   0  0  0  0  0  0  0  0  0  0  0  0
    1.8380   18.0081   40.1782 C   0  0  2  0  0  0  0  0  0  0  0  0
    2.8331   20.1811   37.7873 C   0  0  0  0  0  0  0  0  0  0  0  0
   -0.6328   20.4980   43.3725 O   0  0  0  0  0  0  0  0  0  0  0  0
   -1.3748   17.5960   47.5587 C   0  0  0  0  0  0  0  0  0  0  0  0
    0.6721   19.3119   41.9007 N   0  0  0  0  0  0  0  0  0  0  0  0
    2.5369   14.1274   41.0136 C   0  0  0  0  0  0  0  0  0  0  0  0
    1.7724   20.1667   38.8748 C   0  0  1  0  0  0  0  0  0  0  0  0
    2.0772   14.5511   42.4564 C   0  0  0  0  0  0  0  0  0  0  0  0
   -1.8762   16.2350   48.1579 C   0  0  0  0  0  0  0  0  0  0  0  0
    0.6017   17.2049   43.7317 C   0  0  0  0  0  0  0  0  0  0  0  0
    2.7837   19.3911   36.8164 O   0  0  0  0  0  0  0  0  0  0  0  0
    3.7044   21.1067   37.8817 O   0  0  0  0  0  0  0  0  0  0  0  0
    0.6468   16.2167   44.5407 O   0  0  0  0  0  0  0  0  0  0  0  0
    1.5618   18.7667   39.0560 O   0  0  0  0  0  0  0  0  0  0  0  0
   -0.5682   17.4781   46.4399 N   0  0  0  0  0  0  0  0  0  0  0  0
    3.7632   15.0269   40.8382 O   0  0  0  0  0  0  0  0  0  0  0  0
    1.7990   16.2388   39.1763 H   0  0  0  0  0  0  0  0  0  0  0  0
    3.3991   17.1092   39.2675 H   0  0  0  0  0  0  0  0  0  0  0  0
   -0.9037   17.9664   43.7117 H   0  0  0  0  0  0  0  0  0  0  0  0
    2.7834   16.2371   43.1036 H   0  0  0  0  0  0  0  0  0  0  0  0
    2.9939   17.0785   40.4524 H   0  0  0  0  0  0  0  0  0  0  0  0
   -0.3885   14.8062   48.6756 H   0  0  0  0  0  0  0  0  0  0  0  0
   -1.5244   14.2852   47.3852 H   0  0  0  0  0  0  0  0  0  0  0  0
   -0.2416   15.4886   47.0205 H   0  0  0  0  0  0  0  0  0  0  0  0
    2.1684   17.6802   43.0383 H   0  0  0  0  0  0  0  0  0  0  0  0
    2.2715   18.7728   40.8395 H   0  0  0  0  0  0  0  0  0  0  0  0
   -2.2563   18.1934   47.2830 H   0  0  0  0  0  0  0  0  0  0  0  0
   -0.7560   18.0665   48.3369 H   0  0  0  0  0  0  0  0  0  0  0  0
    1.7639   14.3426   40.2612 H   0  0  0  0  0  0  0  0  0  0  0  0
    2.7350   13.0522   40.8923 H   0  0  0  0  0  0  0  0  0  0  0  0
    0.8546   20.7225   38.6325 H   0  0  0  0  0  0  0  0  0  0  0  0
    2.7404   14.1802   43.2519 H   0  0  0  0  0  0  0  0  0  0  0  0
    1.1040   14.1953   42.8254 H   0  0  0  0  0  0  0  0  0  0  0  0
   -2.8790   16.0130   47.7644 H   0  0  0  0  0  0  0  0  0  0  0  0
   -1.9110   16.3183   49.2541 H   0  0  0  0  0  0  0  0  0  0  0  0
    0.0753   16.6811   46.3329 H   0  0  0  0  0  0  0  0  0  0  0  0
  1 12  1  0
  2 11  1  0
  3 19  1  0
  3  9  1  0
  4  1  1  0
  4  3  1  0
  5 20  1  0
  6  2  1  0
  6 14  2  0
  7 16  2  0
  9  7  1  0
  9 21  1  0
 11 26  1  0
 11  8  2  0
 12 25  1  0
 12  7  1  0
 13 23  1  0
 13 18  1  0
 15 20  1  0
 16  6  1  0
 17 27  1  0
 17 19  1  0
 18 10  1  0
 21 24  2  0
 21  2  1  0
 22 13  2  0
 25 18  1  0
 26 15  1  0
 27  4  1  0
  1 28  1  0
  1 29  1  0
  2 30  1  1
  3 31  1  1
  4 32  1  1
  5 33  1  0
  5 34  1  0
  5 35  1  0
  9 36  1  1
 12 37  1  1
 15 38  1  0
 15 39  1  0
 17 40  1  0
 17 41  1  0
 18 42  1  6
 19 43  1  0
 19 44  1  0
 20 45  1  0
 20 46  1  0
 26 47  1  0
M  CHG  1  23  -1
M  END
>  <mol_id>  (61) 
2026-09-18-6fnk-s0-n100-refligand-0062

>  <rmsd_to_ref>  (61) 


$$$$

     RDKit          3D

 51 55  0  0  0  0  0  0  0  0999 V2000
    4.3490   13.3658   39.5050 N   0  0  0  0  0  0  0  0  0  0  0  0
   -1.8910   16.7050   46.9711 C   0  0  0  0  0  0  0  0  0  0  0  0
    3.7559   14.4597   40.1058 C   0  0  0  0  0  0  0  0  0  0  0  0
    1.7156   15.7622   40.9922 O   0  0  0  0  0  0  0  0  0  0  0  0
    3.1632   20.7142   37.8687 C   0  0  0  0  0  0  0  0  0  0  0  0
    0.6157   19.1185   43.5557 N   0  0  0  0  0  0  0  0  0  0  0  0
   -1.2428   19.0753   46.4269 N   0  0  0  0  0  0  0  0  0  0  0  0
    3.0243   21.5338   40.1178 N   0  0  0  0  0  0  0  0  0  0  0  0
    2.2318   16.5952   40.3626 C   0  0  0  0  0  0  0  0  0  0  0  0
    3.2634   15.2578   39.2280 N   0  0  0  0  0  0  0  0  0  0  0  0
   -1.2956   17.7663   46.1999 C   0  0  0  0  0  0  0  0  0  0  0  0
   -0.2718   16.5699   44.2276 N   0  0  0  0  0  0  0  0  0  0  0  0
    1.7770   18.5763   41.6945 C   0  0  1  0  0  0  0  0  0  0  0  0
    3.9118   13.4029   38.2757 C   0  0  0  0  0  0  0  0  0  0  0  0
   -0.5879   17.6343   44.9851 C   0  0  0  0  0  0  0  0  0  0  0  0
    0.9877   18.0786   42.8040 C   0  0  0  0  0  0  0  0  0  0  0  0
    2.0618   18.0326   40.5502 N   0  0  0  0  0  0  0  0  0  0  0  0
   -0.5474   19.7796   45.5318 N   0  0  0  0  0  0  0  0  0  0  0  0
    2.5896   20.1707   40.2871 C   0  0  2  0  0  0  0  0  0  0  0  0
    2.2708   19.8511   41.5871 C   0  0  0  0  0  0  0  0  0  0  0  0
    3.4243   14.4955   38.0944 C   0  0  0  0  0  0  0  0  0  0  0  0
    3.1731   16.4367   39.1940 C   0  0  1  0  0  0  0  0  0  0  0  0
    0.5747   16.7758   43.0853 C   0  0  0  0  0  0  0  0  0  0  0  0
    2.9002   20.8199   39.2280 C   0  0  1  0  0  0  0  0  0  0  0  0
    2.1579   18.9277   39.6252 O   0  0  0  0  0  0  0  0  0  0  0  0
    2.7090   17.1891   37.9709 O   0  0  0  0  0  0  0  0  0  0  0  0
   -0.0393   18.8891   44.6147 C   0  0  0  0  0  0  0  0  0  0  0  0
    5.3756   13.4461   39.5308 H   0  0  0  0  0  0  0  0  0  0  0  0
    4.1200   12.4810   39.9799 H   0  0  0  0  0  0  0  0  0  0  0  0
   -1.8244   16.9479   48.0419 H   0  0  0  0  0  0  0  0  0  0  0  0
   -2.9474   16.5925   46.6858 H   0  0  0  0  0  0  0  0  0  0  0  0
   -1.3559   15.7642   46.7746 H   0  0  0  0  0  0  0  0  0  0  0  0
    2.9495   14.1126   40.7686 H   0  0  0  0  0  0  0  0  0  0  0  0
    4.5217   15.0013   40.6804 H   0  0  0  0  0  0  0  0  0  0  0  0
    4.2464   20.6038   37.7123 H   0  0  0  0  0  0  0  0  0  0  0  0
    2.6425   19.8349   37.4618 H   0  0  0  0  0  0  0  0  0  0  0  0
    2.8091   21.6203   37.3552 H   0  0  0  0  0  0  0  0  0  0  0  0
    2.3635   22.3116   40.2567 H   0  0  0  0  0  0  0  0  0  0  0  0
    3.7824   22.1202   40.4950 H   0  0  0  0  0  0  0  0  0  0  0  0
    2.6788   18.1248   42.1335 H   0  0  0  0  0  0  0  0  0  0  0  0
    4.7455   13.2431   37.5760 H   0  0  0  0  0  0  0  0  0  0  0  0
    3.1648   12.6133   38.1070 H   0  0  0  0  0  0  0  0  0  0  0  0
   -0.4155   20.8011   45.5282 H   0  0  0  0  0  0  0  0  0  0  0  0
    3.1763   19.9349   42.2062 H   0  0  0  0  0  0  0  0  0  0  0  0
    1.4912   20.5482   41.9280 H   0  0  0  0  0  0  0  0  0  0  0  0
    4.0754   15.0485   37.4013 H   0  0  0  0  0  0  0  0  0  0  0  0
    2.4135   14.3181   37.6983 H   0  0  0  0  0  0  0  0  0  0  0  0
    4.1724   16.8962   39.2025 H   0  0  0  0  0  0  0  0  0  0  0  0
    0.8874   15.9325   42.4520 H   0  0  0  0  0  0  0  0  0  0  0  0
    3.8788   20.3703   39.4523 H   0  0  0  0  0  0  0  0  0  0  0  0
    2.2260   18.0068   38.2502 H   0  0  0  0  0  0  0  0  0  0  0  0
  1  3  1  0
  6 27  1  0
  8 19  1  0
  9 17  1  0
  9  4  2  0
 10 22  1  0
 10  3  1  0
 11  7  2  0
 11  2  1  0
 12 15  1  0
 13 16  1  0
 14  1  1  0
 15 11  1  0
 16 23  1  0
 16  6  2  0
 17 13  1  0
 18  7  1  0
 19 20  1  0
 20 13  1  0
 21 14  1  0
 21 10  1  0
 22 26  1  0
 22  9  1  0
 23 12  2  0
 24  5  1  0
 24  8  1  0
 24 19  1  0
 19 25  1  1
 25 17  1  0
 27 15  2  0
 27 18  1  0
  1 28  1  0
  1 29  1  0
  2 30  1  0
  2 31  1  0
  2 32  1  0
  3 33  1  0
  3 34  1  0
  5 35  1  0
  5 36  1  0
  5 37  1  0
  8 38  1  0
  8 39  1  0
 13 40  1  1
 14 41  1  0
 14 42  1  0
 18 43  1  0
 20 44  1  0
 20 45  1  0
 21 46  1  0
 21 47  1  0
 22 48  1  1
 23 49  1  0
 24 50  1  6
 26 51  1  0
M  CHG  2   1   1   8   1
M  END
>  <mol_id>  (62) 
2026-09-18-6fnk-s0-n100-refligand-0063

>  <rmsd_to_ref>  (62) 


$$$$

     RDKit          3D

 65 69  0  0  0  0  0  0  0  0999 V2000
    1.0234   14.1249   38.2352 C   0  0  0  0  0  0  0  0  0  0  0  0
    4.3696   21.5156   41.1365 C   0  0  0  0  0  0  0  0  0  0  0  0
   -0.2709   19.0096   44.9162 C   0  0  0  0  0  0  0  0  0  0  0  0
    0.4730   14.4607   36.9040 C   0  0  0  0  0  0  0  0  0  0  0  0
    1.5361   18.8937   41.6558 C   0  0  1  0  0  0  0  0  0  0  0  0
    2.1937   19.9162   39.5650 N   0  0  0  0  0  0  0  0  0  0  0  0
    1.3325   16.4609   41.6561 N   0  0  0  0  0  0  0  0  0  0  0  0
    3.9052   20.0779   41.3639 C   0  0  0  0  0  0  0  0  0  0  0  0
    1.4883   16.5944   37.5369 C   0  0  0  0  0  0  0  0  0  0  0  0
    1.4683   17.6347   41.0969 C   0  0  0  0  0  0  0  0  0  0  0  0
    1.0321   16.2076   42.9197 C   0  0  0  0  0  0  0  0  0  0  0  0
    0.3221   18.6491   43.7197 C   0  0  0  0  0  0  0  0  0  0  0  0
   -0.0541   16.8289   45.0251 C   0  0  0  0  0  0  0  0  0  0  0  0
    2.3151   19.7196   38.4547 C   0  0  0  0  0  0  0  0  0  0  0  0
   -1.3220   13.7914   46.4866 O   0  0  0  0  0  0  0  0  0  0  0  0
    1.1616   16.6080   38.9737 N   0  0  0  0  0  0  0  0  0  0  0  0
    2.5261   19.6719   40.8736 C   0  0  1  0  0  0  0  0  0  0  0  0
    1.4636   20.4207   39.0041 O   0  0  0  0  0  0  0  0  0  0  0  0
   -0.0526   15.4494   45.4287 C   0  0  0  0  0  0  0  0  0  0  0  0
   -1.7822   15.8939   47.1470 N   0  0  0  0  0  0  0  0  0  0  0  0
    1.2693   14.9844   43.4878 C   0  0  0  0  0  0  0  0  0  0  0  0
    0.6395   14.5317   44.6588 C   0  0  0  0  0  0  0  0  0  0  0  0
   -1.0129   15.0337   46.4281 C   0  0  0  0  0  0  0  0  0  0  0  0
    2.8263   19.4029   37.5123 O   0  0  0  0  0  0  0  0  0  0  0  0
    1.9035   17.4871   39.8157 N   0  0  0  0  0  0  0  0  0  0  0  0
   -0.4294   17.9419   45.7504 N   0  0  0  0  0  0  0  0  0  0  0  0
    0.3403   15.9410   36.7862 C   0  0  0  0  0  0  0  0  0  0  0  0
    0.3943   15.2797   39.2443 C   0  0  0  0  0  0  0  0  0  0  0  0
    4.8797   21.8490   39.7486 C   0  0  0  0  0  0  0  0  0  0  0  0
    5.4799   21.7035   42.1486 C   0  0  0  0  0  0  0  0  0  0  0  0
    2.3291   14.1032   42.7684 C   0  0  0  0  0  0  0  0  0  0  0  0
    0.9088   19.3708   42.7158 N   0  0  0  0  0  0  0  0  0  0  0  0
    0.4442   17.1872   43.8300 C   0  0  2  0  0  0  0  0  0  0  0  0
    2.1223   14.1731   38.2255 H   0  0  0  0  0  0  0  0  0  0  0  0
    0.7625   13.1042   38.5516 H   0  0  0  0  0  0  0  0  0  0  0  0
    3.5065   22.1884   41.2472 H   0  0  0  0  0  0  0  0  0  0  0  0
   -0.5782   20.0359   45.1656 H   0  0  0  0  0  0  0  0  0  0  0  0
    1.1506   14.0888   36.1214 H   0  0  0  0  0  0  0  0  0  0  0  0
   -0.5144   13.9910   36.7837 H   0  0  0  0  0  0  0  0  0  0  0  0
    2.3426   18.5176   42.3023 H   0  0  0  0  0  0  0  0  0  0  0  0
    4.6327   19.4198   40.8663 H   0  0  0  0  0  0  0  0  0  0  0  0
    3.8371   19.9887   42.4582 H   0  0  0  0  0  0  0  0  0  0  0  0
    1.6269   17.6250   37.1784 H   0  0  0  0  0  0  0  0  0  0  0  0
    2.4177   16.0309   37.3677 H   0  0  0  0  0  0  0  0  0  0  0  0
    3.0229   18.7376   40.5731 H   0  0  0  0  0  0  0  0  0  0  0  0
   -2.4473   15.5303   47.8444 H   0  0  0  0  0  0  0  0  0  0  0  0
   -1.6999   16.9092   46.9942 H   0  0  0  0  0  0  0  0  0  0  0  0
    0.6952   13.4741   44.9562 H   0  0  0  0  0  0  0  0  0  0  0  0
    2.7335   17.9892   39.4694 H   0  0  0  0  0  0  0  0  0  0  0  0
    0.3775   16.2327   35.7262 H   0  0  0  0  0  0  0  0  0  0  0  0
   -0.6199   16.2663   37.2131 H   0  0  0  0  0  0  0  0  0  0  0  0
   -0.6772   15.4163   39.0366 H   0  0  0  0  0  0  0  0  0  0  0  0
    0.5048   14.9764   40.2959 H   0  0  0  0  0  0  0  0  0  0  0  0
    5.9212   22.1969   39.8144 H   0  0  0  0  0  0  0  0  0  0  0  0
    4.8325   20.9511   39.1150 H   0  0  0  0  0  0  0  0  0  0  0  0
    4.2557   22.6411   39.3090 H   0  0  0  0  0  0  0  0  0  0  0  0
    5.0957   21.4929   43.1576 H   0  0  0  0  0  0  0  0  0  0  0  0
    6.3056   21.0139   41.9194 H   0  0  0  0  0  0  0  0  0  0  0  0
    5.8450   22.7403   42.1042 H   0  0  0  0  0  0  0  0  0  0  0  0
    2.9517   13.5929   43.5181 H   0  0  0  0  0  0  0  0  0  0  0  0
    1.8203   13.3545   42.1435 H   0  0  0  0  0  0  0  0  0  0  0  0
    2.9652   14.7386   42.1347 H   0  0  0  0  0  0  0  0  0  0  0  0
    1.6026   19.9675   43.1885 H   0  0  0  0  0  0  0  0  0  0  0  0
    0.0616   19.7347   42.2567 H   0  0  0  0  0  0  0  0  0  0  0  0
   -0.5283   17.0682   43.3299 H   0  0  0  0  0  0  0  0  0  0  0  0
  1 28  1  0
  2  8  1  0
  2 30  1  0
  3 26  1  0
  4  1  1  0
  5 17  1  0
  5 32  1  0
  6 17  1  0
  7 11  1  0
  9 16  1  0
 10  5  1  0
 10  7  2  0
 11 21  2  0
 12 33  1  0
 12  3  2  0
 13 19  1  0
 13 26  2  0
 14 18  1  0
 14  6  1  0
 16 28  1  0
 16 25  1  0
 17  8  1  0
 18  6  1  0
 19 23  1  0
 21 22  1  0
 22 19  2  0
 23 15  2  0
 23 20  1  0
 24 14  2  0
 25 10  1  0
 27  4  1  0
 27  9  1  0
 29  2  1  0
 31 21  1  0
 32 12  1  0
 33 11  1  0
 33 13  1  0
  1 34  1  0
  1 35  1  0
  2 36  1  0
  3 37  1  0
  4 38  1  0
  4 39  1  0
  5 40  1  1
  8 41  1  0
  8 42  1  0
  9 43  1  0
  9 44  1  0
 17 45  1  1
 20 46  1  0
 20 47  1  0
 22 48  1  0
 25 49  1  0
 27 50  1  0
 27 51  1  0
 28 52  1  0
 28 53  1  0
 29 54  1  0
 29 55  1  0
 29 56  1  0
 30 57  1  0
 30 58  1  0
 30 59  1  0
 31 60  1  0
 31 61  1  0
 31 62  1  0
 32 63  1  0
 32 64  1  0
 33 65  1  6
M  CHG  1  32   1
M  END
>  <mol_id>  (63) 
2026-09-18-6fnk-s0-n100-refligand-0064

>  <rmsd_to_ref>  (63) 


$$$$

     RDKit          3D

 38 40  0  0  0  0  0  0  0  0999 V2000
    0.3170   18.7370   43.9700 C   0  0  2  0  0  0  0  0  0  0  0  0
    0.9620   19.2160   42.9500 C   0  0  0  0  0  0  0  0  0  0  0  0
   -0.3950   15.0460   45.1000 S   0  0  0  0  0  0  0  0  0  0  0  0
   -1.6050   17.0140   47.3460 C   0  0  0  0  0  0  0  0  0  0  0  0
    2.4600   20.4220   39.8010 C   0  0  0  0  0  0  0  0  0  0  0  0
   -0.4290   16.7880   45.2110 C   0  0  0  0  0  0  0  0  0  0  0  0
    0.9660   21.1270   41.4700 O   0  0  0  0  0  0  0  0  0  0  0  0
    1.8380   16.2950   42.4680 C   0  0  0  0  0  0  0  0  0  0  0  0
    1.7670   19.8090   41.7720 C   0  0  2  0  0  0  0  0  0  0  0  0
   -0.8660   18.8730   45.9770 C   0  0  0  0  0  0  0  0  0  0  0  0
   -0.0390   15.0790   43.6760 C   0  0  0  0  0  0  0  0  0  0  0  0
   -0.3210   19.4660   44.8690 C   0  0  0  0  0  0  0  0  0  0  0  0
   -0.9820   17.5590   46.1530 C   0  0  0  0  0  0  0  0  0  0  0  0
    0.7790   16.3880   43.5220 C   0  0  2  0  0  0  0  0  0  0  0  0
    2.2810   19.2540   40.5070 C   0  0  0  0  0  0  0  0  0  0  0  0
    0.2940   17.3340   44.1910 C   0  0  0  0  0  0  0  0  0  0  0  0
    1.6940   21.4520   40.3030 N   0  0  0  0  0  0  0  0  0  0  0  0
    3.2780   20.6070   38.5890 C   0  0  0  0  0  0  0  0  0  0  0  0
   -0.4410   20.7300   44.8440 O   0  0  0  0  0  0  0  0  0  0  0  0
   -0.5924   18.6553   43.3566 H   0  0  0  0  0  0  0  0  0  0  0  0
    1.0379   18.2103   42.5109 H   0  0  0  0  0  0  0  0  0  0  0  0
    0.3551   20.1322   42.9965 H   0  0  0  0  0  0  0  0  0  0  0  0
   -1.1210   17.4374   48.2385 H   0  0  0  0  0  0  0  0  0  0  0  0
   -2.6743   17.2719   47.3517 H   0  0  0  0  0  0  0  0  0  0  0  0
   -1.4916   15.9199   47.3517 H   0  0  0  0  0  0  0  0  0  0  0  0
    2.8248   16.2083   42.9463 H   0  0  0  0  0  0  0  0  0  0  0  0
    1.6551   15.4095   41.8416 H   0  0  0  0  0  0  0  0  0  0  0  0
    1.8123   17.1989   41.8416 H   0  0  0  0  0  0  0  0  0  0  0  0
    2.7747   19.6933   42.1976 H   0  0  0  0  0  0  0  0  0  0  0  0
   -1.2342   19.5300   46.7788 H   0  0  0  0  0  0  0  0  0  0  0  0
    0.5697   14.2037   43.4051 H   0  0  0  0  0  0  0  0  0  0  0  0
   -0.9209   15.0520   43.0191 H   0  0  0  0  0  0  0  0  0  0  0  0
    1.6295   17.0188   43.8199 H   0  0  0  0  0  0  0  0  0  0  0  0
    1.5493   18.5903   40.0231 H   0  0  0  0  0  0  0  0  0  0  0  0
    3.1773   18.6235   40.6029 H   0  0  0  0  0  0  0  0  0  0  0  0
    4.3133   20.8411   38.8776 H   0  0  0  0  0  0  0  0  0  0  0  0
    3.2637   19.6829   37.9924 H   0  0  0  0  0  0  0  0  0  0  0  0
    2.8675   21.4350   37.9924 H   0  0  0  0  0  0  0  0  0  0  0  0
  1  2  1  0
  1 16  1  0
  1 12  1  0
  3  6  1  0
  5 17  2  0
  5 15  1  0
  6 13  1  0
  7  9  1  0
  9  2  1  0
 10 13  2  0
 11  3  1  0
 12 10  1  0
 13  4  1  0
 14  8  1  0
 14 11  1  0
 14 16  1  0
 15  9  1  0
 16  6  2  0
 17  7  1  0
 18  5  1  0
 19 12  2  0
  1 20  1  6
  2 21  1  0
  2 22  1  0
  4 23  1  0
  4 24  1  0
  4 25  1  0
  8 26  1  0
  8 27  1  0
  8 28  1  0
  9 29  1  1
 10 30  1  0
 11 31  1  0
 11 32  1  0
 14 33  1  1
 15 34  1  0
 15 35  1  0
 18 36  1  0
 18 37  1  0
 18 38  1  0
M  END
>  <mol_id>  (64) 
2026-09-18-6fnk-s0-n100-refligand-0065

>  <rmsd_to_ref>  (64) 


$$$$

     RDKit          3D

 20 22  0  0  0  0  0  0  0  0999 V2000
    1.7355   19.5957   39.7976 C   0  0  0  0  0  0  0  0  0  0  0  0
    1.4605   16.9826   39.1081 Cl  0  0  0  0  0  0  0  0  0  0  0  0
   -0.2683   21.0397   45.1275 N   0  0  0  0  0  0  0  0  0  0  0  0
    0.3588   20.7799   44.0064 C   0  0  0  0  0  0  0  0  0  0  0  0
    1.6552   20.7503   40.6403 C   0  0  0  0  0  0  0  0  0  0  0  0
    1.3331   18.3134   40.1477 C   0  0  0  0  0  0  0  0  0  0  0  0
    0.9649   18.0796   41.5507 C   0  0  0  0  0  0  0  0  0  0  0  0
    0.2896   18.5336   45.1777 S   0  0  0  0  0  0  0  0  0  0  0  0
    0.8861   19.2444   42.3834 C   0  0  0  0  0  0  0  0  0  0  0  0
    0.6194   19.3877   43.7442 C   0  0  1  0  0  0  0  0  0  0  0  0
    0.7816   21.5276   42.8707 N   0  0  0  0  0  0  0  0  0  0  0  0
   -0.3539   19.9585   45.8255 C   0  0  0  0  0  0  0  0  0  0  0  0
    1.0931   20.5842   41.9144 C   0  0  0  0  0  0  0  0  0  0  0  0
    2.1504   19.7360   38.7886 H   0  0  0  0  0  0  0  0  0  0  0  0
    2.0208   21.7308   40.3012 H   0  0  0  0  0  0  0  0  0  0  0  0
    0.7617   17.0708   41.9394 H   0  0  0  0  0  0  0  0  0  0  0  0
    1.1137   18.4138   43.6134 H   0  0  0  0  0  0  0  0  0  0  0  0
    0.8417   22.5520   42.7826 H   0  0  0  0  0  0  0  0  0  0  0  0
    0.1615   20.1447   46.7793 H   0  0  0  0  0  0  0  0  0  0  0  0
   -1.4343   19.7631   45.8928 H   0  0  0  0  0  0  0  0  0  0  0  0
  1  6  1  0
  1  5  2  0
  2  6  1  0
  3 12  1  0
  4  3  2  0
  5 13  1  0
  6  7  2  0
  7  9  1  0
  8 12  1  0
 10  9  1  0
 10  4  1  0
 10  8  1  0
 11  4  1  0
 13  9  2  0
 13 11  1  0
  1 14  1  0
  5 15  1  0
  7 16  1  0
 10 17  1  1
 11 18  1  0
 12 19  1  0
 12 20  1  0
M  END
>  <mol_id>  (65) 
2026-09-18-6fnk-s0-n100-refligand-0066

>  <rmsd_to_ref>  (65) 


$$$$

     RDKit          3D

 44 46  0  0  0  0  0  0  0  0999 V2000
    1.1371   20.2900   42.5462 C   0  0  0  0  0  0  0  0  0  0  0  0
   -1.1930   17.1491   45.5795 C   0  0  0  0  0  0  0  0  0  0  0  0
    2.7004   21.6571   39.3566 C   0  0  0  0  0  0  0  0  0  0  0  0
   -0.5268   19.0554   44.4265 C   0  0  0  0  0  0  0  0  0  0  0  0
    1.9135   21.1621   40.3469 C   0  0  0  0  0  0  0  0  0  0  0  0
    2.1002   21.0129   41.7044 C   0  0  0  0  0  0  0  0  0  0  0  0
   -0.6258   14.6975   46.3399 N   0  0  0  0  0  0  0  0  0  0  0  0
    0.2215   20.9755   43.3163 C   0  0  0  0  0  0  0  0  0  0  0  0
    0.0059   15.0436   45.1981 C   0  0  0  0  0  0  0  0  0  0  0  0
    2.4872   15.5495   42.1123 C   0  0  0  0  0  0  0  0  0  0  0  0
   -0.9522   13.3005   46.5278 C   0  0  0  0  0  0  0  0  0  0  0  0
   -0.1769   16.4499   44.8900 C   0  0  2  0  0  0  0  0  0  0  0  0
    0.5389   14.2312   44.4937 O   0  0  0  0  0  0  0  0  0  0  0  0
    1.2508   18.9570   42.5943 N   0  0  0  0  0  0  0  0  0  0  0  0
    4.0639   21.9205   39.2855 C   0  0  0  0  0  0  0  0  0  0  0  0
   -1.2749   18.4629   45.4076 N   0  0  0  0  0  0  0  0  0  0  0  0
    6.1407   22.1609   40.1128 F   0  0  0  0  0  0  0  0  0  0  0  0
    2.5257   14.0265   41.8600 C   0  0  0  0  0  0  0  0  0  0  0  0
    1.7095   16.1304   42.8578 C   0  0  0  0  0  0  0  0  0  0  0  0
    0.4754   18.2849   43.6102 C   0  0  1  0  0  0  0  0  0  0  0  0
    0.6583   16.9024   43.7445 C   0  0  0  0  0  0  0  0  0  0  0  0
    4.8821   21.9569   40.3705 C   0  0  0  0  0  0  0  0  0  0  0  0
    4.5456   21.8636   41.7444 C   0  0  0  0  0  0  0  0  0  0  0  0
    5.3809   22.3926   42.5769 F   0  0  0  0  0  0  0  0  0  0  0  0
    3.3513   21.3224   42.2399 C   0  0  0  0  0  0  0  0  0  0  0  0
   -0.5987   20.3990   44.1968 N   0  0  0  0  0  0  0  0  0  0  0  0
   -2.1557   16.7182   45.2672 H   0  0  0  0  0  0  0  0  0  0  0  0
   -0.9364   17.0274   46.6422 H   0  0  0  0  0  0  0  0  0  0  0  0
    2.1535   21.8957   38.4324 H   0  0  0  0  0  0  0  0  0  0  0  0
    1.0043   21.7778   40.2812 H   0  0  0  0  0  0  0  0  0  0  0  0
    2.0586   20.1019   40.0920 H   0  0  0  0  0  0  0  0  0  0  0  0
   -0.8665   15.4023   47.0514 H   0  0  0  0  0  0  0  0  0  0  0  0
    0.1636   22.0675   43.1971 H   0  0  0  0  0  0  0  0  0  0  0  0
    3.2231   16.1660   41.5752 H   0  0  0  0  0  0  0  0  0  0  0  0
   -1.0456   13.0871   47.6028 H   0  0  0  0  0  0  0  0  0  0  0  0
   -1.9047   13.0758   46.0253 H   0  0  0  0  0  0  0  0  0  0  0  0
   -0.1547   12.6766   46.0980 H   0  0  0  0  0  0  0  0  0  0  0  0
   -0.8954   16.1836   44.1008 H   0  0  0  0  0  0  0  0  0  0  0  0
    4.5052   22.1100   38.2959 H   0  0  0  0  0  0  0  0  0  0  0  0
    2.4705   13.4941   42.8210 H   0  0  0  0  0  0  0  0  0  0  0  0
    1.6709   13.7373   41.2310 H   0  0  0  0  0  0  0  0  0  0  0  0
    3.4631   13.7632   41.3483 H   0  0  0  0  0  0  0  0  0  0  0  0
   -0.3278   18.1077   42.8798 H   0  0  0  0  0  0  0  0  0  0  0  0
    3.4159   21.0836   43.3118 H   0  0  0  0  0  0  0  0  0  0  0  0
  1 14  2  0
  1  8  1  0
  3  5  1  0
  4 16  2  0
  5  6  1  0
  6 25  2  0
  6  1  1  0
  7 11  1  0
  8 26  2  0
  9  7  1  0
 10 19  2  0
 12  9  1  0
 12  2  1  0
 13  9  2  0
 15  3  2  0
 15 22  1  0
 16  2  1  0
 17 22  1  0
 18 10  1  0
 19 21  2  0
 20 14  1  0
 20 21  1  0
 20  4  1  0
 21 12  1  0
 22 23  2  0
 23 25  1  0
 23 24  1  0
 26  4  1  0
  2 27  1  0
  2 28  1  0
  3 29  1  0
  5 30  1  0
  5 31  1  0
  7 32  1  0
  8 33  1  0
 10 34  1  0
 11 35  1  0
 11 36  1  0
 11 37  1  0
 12 38  1  1
 15 39  1  0
 18 40  1  0
 18 41  1  0
 18 42  1  0
 20 43  1  1
 25 44  1  0
M  END
>  <mol_id>  (66) 
2026-09-18-6fnk-s0-n100-refligand-0067

>  <rmsd_to_ref>  (66) 


$$$$

     RDKit          3D

 36 35  0  0  0  0  0  0  0  0999 V2000
    0.3188   17.7052   45.0132 O   0  0  0  0  0  0  0  0  0  0  0  0
    0.2282   16.6456   44.1209 C   0  0  0  0  0  0  0  0  0  0  0  0
    4.0443   21.1837   39.4393 N   0  0  0  0  0  0  0  0  0  0  0  0
    1.3431   15.0816   42.5287 C   0  0  0  0  0  0  0  0  0  0  0  0
    2.0242   19.6223   41.1362 N   0  0  0  0  0  0  0  0  0  0  0  0
    1.1899   17.5965   41.9584 C   0  0  0  0  0  0  0  0  0  0  0  0
    1.3542   19.1511   42.2187 C   0  0  1  0  0  0  0  0  0  0  0  0
   -0.5206   15.7296   44.4729 O   0  0  0  0  0  0  0  0  0  0  0  0
    3.3145   20.6538   38.4230 O   0  0  0  0  0  0  0  0  0  0  0  0
    1.0199   20.1142   43.1395 C   0  0  0  0  0  0  0  0  0  0  0  0
    0.5774   21.1944   43.7410 N   0  0  0  0  0  0  0  0  0  0  0  0
    4.1838   20.7297   41.5966 O   0  0  0  0  0  0  0  0  0  0  0  0
    0.8856   16.5501   42.9425 C   0  0  2  0  0  0  0  0  0  0  0  0
    3.4641   20.9897   40.5606 C   0  0  0  0  0  0  0  0  0  0  0  0
   -0.6859   17.9870   46.0268 C   0  0  0  0  0  0  0  0  0  0  0  0
    2.2102   20.9291   40.5812 C   0  0  0  0  0  0  0  0  0  0  0  0
    1.5106   17.2801   40.8574 O   0  0  0  0  0  0  0  0  0  0  0  0
    4.9422   21.6746   39.3216 H   0  0  0  0  0  0  0  0  0  0  0  0
    1.6070   14.5116   43.4317 H   0  0  0  0  0  0  0  0  0  0  0  0
    0.5198   14.5754   42.0033 H   0  0  0  0  0  0  0  0  0  0  0  0
    2.2183   15.1435   41.8653 H   0  0  0  0  0  0  0  0  0  0  0  0
    2.9880   19.2970   41.2975 H   0  0  0  0  0  0  0  0  0  0  0  0
    1.3250   19.3172   40.4440 H   0  0  0  0  0  0  0  0  0  0  0  0
    0.3979   19.3377   41.7081 H   0  0  0  0  0  0  0  0  0  0  0  0
    2.6813   19.9846   38.7854 H   0  0  0  0  0  0  0  0  0  0  0  0
    0.4505   19.4237   43.7791 H   0  0  0  0  0  0  0  0  0  0  0  0
    1.7881   20.7504   42.6756 H   0  0  0  0  0  0  0  0  0  0  0  0
    0.6973   21.0941   44.7590 H   0  0  0  0  0  0  0  0  0  0  0  0
    1.1090   22.0129   43.4117 H   0  0  0  0  0  0  0  0  0  0  0  0
   -0.4212   21.3236   43.5239 H   0  0  0  0  0  0  0  0  0  0  0  0
   -0.0895   16.3818   42.4621 H   0  0  0  0  0  0  0  0  0  0  0  0
   -0.2573   17.8162   47.0253 H   0  0  0  0  0  0  0  0  0  0  0  0
   -1.0095   19.0348   45.9410 H   0  0  0  0  0  0  0  0  0  0  0  0
   -1.5507   17.3230   45.8805 H   0  0  0  0  0  0  0  0  0  0  0  0
    1.7760   21.7093   41.2236 H   0  0  0  0  0  0  0  0  0  0  0  0
    1.7264   21.0875   39.6061 H   0  0  0  0  0  0  0  0  0  0  0  0
  1 15  1  0
  2  8  2  0
  2  1  1  0
  3 14  1  0
  5  7  1  0
  6  7  1  0
  6 13  1  0
  7 10  1  0
  9  3  1  0
 10 11  1  0
 13  4  1  0
 13  2  1  0
 14 12  2  0
 16 14  1  0
 16  5  1  0
 17  6  2  0
  3 18  1  0
  4 19  1  0
  4 20  1  0
  4 21  1  0
  5 22  1  0
  5 23  1  0
  7 24  1  6
  9 25  1  0
 10 26  1  0
 10 27  1  0
 11 28  1  0
 11 29  1  0
 11 30  1  0
 13 31  1  1
 15 32  1  0
 15 33  1  0
 15 34  1  0
 16 35  1  0
 16 36  1  0
M  CHG  2   5   1  11   1
M  END
>  <mol_id>  (67) 
2026-09-18-6fnk-s0-n100-refligand-0068

>  <rmsd_to_ref>  (67) 


$$$$

     RDKit          3D

 58 61  0  0  0  0  0  0  0  0999 V2000
    4.9464   21.3879   39.5833 C   0  0  0  0  0  0  0  0  0  0  0  0
   -1.9009   17.6075   47.9704 C   0  0  0  0  0  0  0  0  0  0  0  0
    2.2881   15.7452   42.1126 C   0  0  1  0  0  0  0  0  0  0  0  0
    0.9139   18.6512   44.6903 N   0  0  0  0  0  0  0  0  0  0  0  0
    4.3458   20.6338   37.6130 N   0  0  0  0  0  0  0  0  0  0  0  0
    2.3724   17.6471   40.6414 C   0  0  0  0  0  0  0  0  0  0  0  0
   -1.1601   18.5944   47.0496 C   0  0  0  0  0  0  0  0  0  0  0  0
    2.7028   19.2136   37.4040 O   0  0  0  0  0  0  0  0  0  0  0  0
    0.0245   19.2701   45.5397 C   0  0  0  0  0  0  0  0  0  0  0  0
    2.1618   18.4399   41.9702 C   0  0  2  0  0  0  0  0  0  0  0  0
   -3.2790   16.2570   49.8519 N   0  0  0  0  0  0  0  0  0  0  0  0
   -0.3695   16.7242   45.8929 C   0  0  0  0  0  0  0  0  0  0  0  0
    3.2799   19.8113   39.4483 N   0  0  0  0  0  0  0  0  0  0  0  0
    0.0166   20.7723   45.4739 C   0  0  0  0  0  0  0  0  0  0  0  0
    3.6953   20.2698   41.5215 O   0  0  0  0  0  0  0  0  0  0  0  0
    3.9728   20.5851   40.1526 C   0  0  0  0  0  0  0  0  0  0  0  0
   -0.8495   15.8427   46.9235 C   0  0  0  0  0  0  0  0  0  0  0  0
    1.8077   17.7524   42.9103 C   0  0  1  0  0  0  0  0  0  0  0  0
    2.0682   16.4340   43.2791 C   0  0  0  0  0  0  0  0  0  0  0  0
    2.3260   16.3634   40.8819 C   0  0  0  0  0  0  0  0  0  0  0  0
   -1.6455   16.4513   47.8737 C   0  0  0  0  0  0  0  0  0  0  0  0
    3.4473   19.8597   38.1607 C   0  0  0  0  0  0  0  0  0  0  0  0
    2.7411   14.3318   42.2454 N   0  0  0  0  0  0  0  0  0  0  0  0
   -2.3416   16.6055   48.8096 C   0  0  1  0  0  0  0  0  0  0  0  0
   -0.4915   21.2824   44.2520 O   0  0  0  0  0  0  0  0  0  0  0  0
    2.4773   19.4388   41.4758 C   0  0  0  0  0  0  0  0  0  0  0  0
   -0.5489   18.1800   46.0829 C   0  0  0  0  0  0  0  0  0  0  0  0
    5.0895   21.3456   38.2673 C   0  0  0  0  0  0  0  0  0  0  0  0
    1.5546   18.9145   43.9543 C   0  0  0  0  0  0  0  0  0  0  0  0
    4.7139   22.4282   39.8548 H   0  0  0  0  0  0  0  0  0  0  0  0
    5.8951   20.9952   39.9780 H   0  0  0  0  0  0  0  0  0  0  0  0
    1.2257   15.7326   41.8280 H   0  0  0  0  0  0  0  0  0  0  0  0
    1.5799   17.9141   39.9269 H   0  0  0  0  0  0  0  0  0  0  0  0
    3.3543   17.9027   40.2166 H   0  0  0  0  0  0  0  0  0  0  0  0
   -1.1836   19.6728   47.2656 H   0  0  0  0  0  0  0  0  0  0  0  0
    3.2081   18.2481   42.2505 H   0  0  0  0  0  0  0  0  0  0  0  0
   -2.9450   16.6289   50.7525 H   0  0  0  0  0  0  0  0  0  0  0  0
   -4.2008   16.6617   49.6340 H   0  0  0  0  0  0  0  0  0  0  0  0
   -3.3596   15.2319   49.9125 H   0  0  0  0  0  0  0  0  0  0  0  0
    0.1168   16.3270   44.9897 H   0  0  0  0  0  0  0  0  0  0  0  0
   -0.6066   21.1535   46.2963 H   0  0  0  0  0  0  0  0  0  0  0  0
    1.0619   21.1052   45.5537 H   0  0  0  0  0  0  0  0  0  0  0  0
   -0.6025   14.7711   46.9522 H   0  0  0  0  0  0  0  0  0  0  0  0
    1.1068   16.9737   42.5751 H   0  0  0  0  0  0  0  0  0  0  0  0
    1.2058   16.0106   43.8149 H   0  0  0  0  0  0  0  0  0  0  0  0
    2.9365   16.3704   43.9514 H   0  0  0  0  0  0  0  0  0  0  0  0
    1.4227   16.0117   40.3619 H   0  0  0  0  0  0  0  0  0  0  0  0
    3.3501   16.0940   40.5839 H   0  0  0  0  0  0  0  0  0  0  0  0
    2.9148   14.1187   43.2381 H   0  0  0  0  0  0  0  0  0  0  0  0
    2.0119   13.7019   41.8816 H   0  0  0  0  0  0  0  0  0  0  0  0
    3.6098   14.1977   41.7085 H   0  0  0  0  0  0  0  0  0  0  0  0
   -2.6966   16.1261   49.7337 H   0  0  0  0  0  0  0  0  0  0  0  0
   -0.9657   22.1347   44.4220 H   0  0  0  0  0  0  0  0  0  0  0  0
    2.3604   19.2308   40.4021 H   0  0  0  0  0  0  0  0  0  0  0  0
    1.8926   20.0776   42.1542 H   0  0  0  0  0  0  0  0  0  0  0  0
    5.8681   21.9438   37.7713 H   0  0  0  0  0  0  0  0  0  0  0  0
    2.5165   19.1925   44.4096 H   0  0  0  0  0  0  0  0  0  0  0  0
    1.1010   19.7547   43.4080 H   0  0  0  0  0  0  0  0  0  0  0  0
  1 16  1  0
  2 24  1  0
  3 23  1  0
  3 19  1  0
  4  9  2  3
  5 22  1  0
  5 28  2  0
  6 10  1  0
  7  2  1  0
  8 22  2  0
  9 14  1  0
  9 27  1  0
 10 26  1  0
 10 18  1  0
 12 27  1  0
 12 17  2  0
 13 16  2  0
 16 15  1  0
 17 21  1  0
 18 19  1  0
 18 29  1  0
 20  6  1  0
 20  3  1  0
 21  2  2  0
 21 24  1  0
 22 13  1  0
 24 11  1  0
 25 14  1  0
 26 15  1  0
 27  7  2  0
 28  1  1  0
 29  4  1  0
  1 30  1  0
  1 31  1  0
  3 32  1  6
  6 33  1  0
  6 34  1  0
  7 35  1  0
 10 36  1  1
 11 37  1  0
 11 38  1  0
 11 39  1  0
 12 40  1  0
 14 41  1  0
 14 42  1  0
 17 43  1  0
 18 44  1  6
 19 45  1  0
 19 46  1  0
 20 47  1  0
 20 48  1  0
 23 49  1  0
 23 50  1  0
 23 51  1  0
 24 52  1  1
 25 53  1  0
 26 54  1  0
 26 55  1  0
 28 56  1  0
 29 57  1  0
 29 58  1  0
M  CHG  2  11   1  23   1
M  END
>  <mol_id>  (68) 
2026-09-18-6fnk-s0-n100-refligand-0070

>  <rmsd_to_ref>  (68) 


$$$$

     RDKit          3D

 20 21  0  0  0  0  0  0  0  0999 V2000
    1.7054   16.4830   44.4704 N   0  0  0  0  0  0  0  0  0  0  0  0
   -0.3574   20.9367   44.8138 O   0  0  0  0  0  0  0  0  0  0  0  0
    3.4859   15.5045   41.5460 C   0  0  0  0  0  0  0  0  0  0  0  0
    1.7596   19.0997   42.7845 C   0  0  1  0  0  0  0  0  0  0  0  0
    2.8822   15.4582   42.6855 C   0  0  0  0  0  0  0  0  0  0  0  0
    2.3661   17.8379   42.5196 C   0  0  0  0  0  0  0  0  0  0  0  0
    2.2528   16.6182   43.2692 C   0  0  0  0  0  0  0  0  0  0  0  0
    3.0958   17.7974   41.4079 N   0  0  0  0  0  0  0  0  0  0  0  0
   -0.3333   19.9331   45.5261 N   0  0  0  0  0  0  0  0  0  0  0  0
    0.3040   20.7843   43.6377 N   0  0  0  0  0  0  0  0  0  0  0  0
    0.4600   19.0399   44.8931 N   0  0  0  0  0  0  0  0  0  0  0  0
    2.0437   20.1038   41.9982 O   0  0  0  0  0  0  0  0  0  0  0  0
    3.5885   16.6467   40.8498 N   0  0  0  0  0  0  0  0  0  0  0  0
    0.8712   19.4117   43.8632 C   0  0  0  0  0  0  0  0  0  0  0  0
    1.2466   17.2877   44.9208 H   0  0  0  0  0  0  0  0  0  0  0  0
    1.7393   15.5734   44.9524 H   0  0  0  0  0  0  0  0  0  0  0  0
    3.9273   14.5845   41.1352 H   0  0  0  0  0  0  0  0  0  0  0  0
    2.6206   19.3537   43.4201 H   0  0  0  0  0  0  0  0  0  0  0  0
    2.8462   14.5031   43.2298 H   0  0  0  0  0  0  0  0  0  0  0  0
    2.3435   20.8745   42.5425 H   0  0  0  0  0  0  0  0  0  0  0  0
  2  9  1  0
  3  5  2  0
  4 12  1  0
  4 14  1  0
  5  7  1  0
  6  4  1  0
  6  7  2  0
  7  1  1  0
  8  6  1  0
 10 14  2  0
 10  2  1  0
 11  9  2  0
 13  3  1  0
 13  8  2  0
 14 11  1  0
  1 15  1  0
  1 16  1  0
  3 17  1  0
  4 18  1  1
  5 19  1  0
 12 20  1  0
M  END
>  <mol_id>  (69) 
2026-09-18-6fnk-s0-n100-refligand-0071

>  <rmsd_to_ref>  (69) 


$$$$

     RDKit          3D

 55 57  0  0  0  0  0  0  0  0999 V2000
   -0.9350   18.5350   45.8250 C   0  0  0  0  0  0  0  0  0  0  0  0
   -1.4470   17.4090   44.8790 C   0  0  0  0  0  0  0  0  0  0  0  0
    0.8820   20.1000   42.8410 C   0  0  0  0  0  0  0  0  0  0  0  0
    1.7930   16.5110   39.3460 C   0  0  0  0  0  0  0  0  0  0  0  0
    3.2490   17.7250   41.2410 C   0  0  0  0  0  0  0  0  0  0  0  0
    0.2440   21.1110   43.5120 C   0  0  0  0  0  0  0  0  0  0  0  0
    0.5840   14.6090   43.8940 C   0  0  0  0  0  0  0  0  0  0  0  0
    0.1180   15.6660   44.6680 C   0  0  0  0  0  0  0  0  0  0  0  0
    2.7230   16.6780   37.9920 O   0  0  0  0  0  0  0  0  0  0  0  0
   -0.4810   20.7290   44.7400 O   0  0  0  0  0  0  0  0  0  0  0  0
    0.5040   19.0010   43.7660 C   0  0  2  0  0  0  0  0  0  0  0  0
    0.0450   17.7140   43.1790 C   0  0  0  0  0  0  0  0  0  0  0  0
   -0.0550   19.4690   45.0420 C   0  0  2  0  0  0  0  0  0  0  0  0
    3.1520   14.1050   41.1200 C   0  0  0  0  0  0  0  0  0  0  0  0
    1.9810   20.4840   40.5000 C   0  0  0  0  0  0  0  0  0  0  0  0
    3.4470   15.4780   40.4230 C   0  0  0  0  0  0  0  0  0  0  0  0
    2.8150   14.2570   42.6320 C   0  0  0  0  0  0  0  0  0  0  0  0
    1.4400   14.7400   42.6250 C   0  0  0  0  0  0  0  0  0  0  0  0
   -0.4050   16.7820   44.2120 N   0  0  0  0  0  0  0  0  0  0  0  0
    2.3560   16.4960   40.7910 C   0  0  2  0  0  0  0  0  0  0  0  0
    2.9080   18.9030   42.1550 C   0  0  0  0  0  0  0  0  0  0  0  0
    1.7480   19.8330   41.8340 C   0  0  1  0  0  0  0  0  0  0  0  0
   -1.7915   19.0911   46.2339 H   0  0  0  0  0  0  0  0  0  0  0  0
   -0.3630   18.0927   46.6540 H   0  0  0  0  0  0  0  0  0  0  0  0
   -1.9883   16.6608   45.4767 H   0  0  0  0  0  0  0  0  0  0  0  0
   -2.1064   17.8679   44.1276 H   0  0  0  0  0  0  0  0  0  0  0  0
    1.0719   17.3411   39.3161 H   0  0  0  0  0  0  0  0  0  0  0  0
    1.4593   15.4680   39.2419 H   0  0  0  0  0  0  0  0  0  0  0  0
    3.5523   18.1976   40.2951 H   0  0  0  0  0  0  0  0  0  0  0  0
    3.9025   17.1824   41.9399 H   0  0  0  0  0  0  0  0  0  0  0  0
    0.2708   22.1510   43.1546 H   0  0  0  0  0  0  0  0  0  0  0  0
    1.1755   13.9852   44.5803 H   0  0  0  0  0  0  0  0  0  0  0  0
   -0.3621   14.2624   43.4526 H   0  0  0  0  0  0  0  0  0  0  0  0
   -0.6543   15.2295   45.3184 H   0  0  0  0  0  0  0  0  0  0  0  0
    1.0723   16.0499   45.0577 H   0  0  0  0  0  0  0  0  0  0  0  0
    3.6623   16.8467   38.2555 H   0  0  0  0  0  0  0  0  0  0  0  0
    1.4632   18.5751   44.0953 H   0  0  0  0  0  0  0  0  0  0  0  0
   -0.7890   17.9131   42.4899 H   0  0  0  0  0  0  0  0  0  0  0  0
    0.8925   17.2562   42.6478 H   0  0  0  0  0  0  0  0  0  0  0  0
    0.6850   19.4918   45.8556 H   0  0  0  0  0  0  0  0  0  0  0  0
    4.0392   13.4624   41.0204 H   0  0  0  0  0  0  0  0  0  0  0  0
    2.2725   13.6652   40.6270 H   0  0  0  0  0  0  0  0  0  0  0  0
    2.3481   21.5098   40.6517 H   0  0  0  0  0  0  0  0  0  0  0  0
    2.7283   19.9068   39.9358 H   0  0  0  0  0  0  0  0  0  0  0  0
    1.0371   20.5121   39.9358 H   0  0  0  0  0  0  0  0  0  0  0  0
    3.4619   15.3376   39.3321 H   0  0  0  0  0  0  0  0  0  0  0  0
    4.4232   15.8544   40.7626 H   0  0  0  0  0  0  0  0  0  0  0  0
    2.8898   13.2900   43.1510 H   0  0  0  0  0  0  0  0  0  0  0  0
    3.5046   14.9323   43.1598 H   0  0  0  0  0  0  0  0  0  0  0  0
    1.4785   15.8104   42.3745 H   0  0  0  0  0  0  0  0  0  0  0  0
    0.9376   14.0765   41.9058 H   0  0  0  0  0  0  0  0  0  0  0  0
    1.5718   16.3901   41.5551 H   0  0  0  0  0  0  0  0  0  0  0  0
    2.7029   18.4786   43.1489 H   0  0  0  0  0  0  0  0  0  0  0  0
    3.7833   19.5594   42.0406 H   0  0  0  0  0  0  0  0  0  0  0  0
    0.6804   19.7604   41.5789 H   0  0  0  0  0  0  0  0  0  0  0  0
  2  1  1  0
  3  6  2  0
  3 11  1  0
  5 21  1  0
  6 10  1  0
  7  8  1  0
  9  4  1  0
 10 13  1  0
 11 12  1  0
 11 13  1  0
 13  1  1  0
 14 17  1  0
 16 20  1  0
 16 14  1  0
 18 17  1  0
 18  7  1  0
 19 12  1  0
 19  8  1  0
 19  2  1  0
 20  4  1  0
 20  5  1  0
 22 15  1  0
 22 21  1  0
 22  3  1  0
  1 23  1  0
  1 24  1  0
  2 25  1  0
  2 26  1  0
  4 27  1  0
  4 28  1  0
  5 29  1  0
  5 30  1  0
  6 31  1  0
  7 32  1  0
  7 33  1  0
  8 34  1  0
  8 35  1  0
  9 36  1  0
 11 37  1  1
 12 38  1  0
 12 39  1  0
 13 40  1  1
 14 41  1  0
 14 42  1  0
 15 43  1  0
 15 44  1  0
 15 45  1  0
 16 46  1  0
 16 47  1  0
 17 48  1  0
 17 49  1  0
 18 50  1  0
 18 51  1  0
 20 52  1  1
 21 53  1  0
 21 54  1  0
 22 55  1  6
M  END
>  <mol_id>  (70) 
2026-09-18-6fnk-s0-n100-refligand-0072

>  <rmsd_to_ref>  (70) 


$$$$

     RDKit          3D

 19 21  0  0  0  0  0  0  0  0999 V2000
   -0.1566   18.3859   44.7897 C   0  0  0  0  0  0  0  0  0  0  0  0
   -0.4057   17.1420   45.0428 C   0  0  0  0  0  0  0  0  0  0  0  0
    1.4237   16.8938   42.0663 N   0  0  0  0  0  0  0  0  0  0  0  0
    0.0227   20.8654   44.6778 C   0  0  0  0  0  0  0  0  0  0  0  0
    0.0773   16.3740   44.0313 N   0  0  0  0  0  0  0  0  0  0  0  0
    0.8829   20.6973   43.5142 C   0  0  0  0  0  0  0  0  0  0  0  0
    0.6477   18.4274   43.6908 C   0  0  0  0  0  0  0  0  0  0  0  0
   -1.0139   19.7615   46.4066 N   0  0  0  0  0  0  0  0  0  0  0  0
    0.7807   17.1384   43.1952 C   0  0  0  0  0  0  0  0  0  0  0  0
    1.9999   19.1988   41.9398 N   0  0  0  0  0  0  0  0  0  0  0  0
    1.2006   19.4333   43.0667 C   0  0  0  0  0  0  0  0  0  0  0  0
    1.9811   17.9396   41.4827 C   0  0  0  0  0  0  0  0  0  0  0  0
   -0.3564   19.7121   45.2932 C   0  0  0  0  0  0  0  0  0  0  0  0
   -0.9261   16.7655   45.9357 H   0  0  0  0  0  0  0  0  0  0  0  0
   -0.2980   21.8554   45.0342 H   0  0  0  0  0  0  0  0  0  0  0  0
    1.2793   21.5805   42.9920 H   0  0  0  0  0  0  0  0  0  0  0  0
   -1.2089   20.6707   46.8496 H   0  0  0  0  0  0  0  0  0  0  0  0
   -1.3421   18.8916   46.8497 H   0  0  0  0  0  0  0  0  0  0  0  0
    2.4823   17.7575   40.5207 H   0  0  0  0  0  0  0  0  0  0  0  0
  1  2  1  0
  1 13  2  0
  3  9  1  0
  4 13  1  0
  5  2  2  0
  6  4  2  0
  7  1  1  0
  9  7  2  0
  9  5  1  0
 10 11  2  0
 11  6  1  0
 11  7  1  0
 12 10  1  0
 12  3  2  0
 13  8  1  0
  2 14  1  0
  4 15  1  0
  6 16  1  0
  8 17  1  0
  8 18  1  0
 12 19  1  0
M  END
>  <mol_id>  (71) 
2026-09-18-6fnk-s0-n100-refligand-0073

>  <rmsd_to_ref>  (71) 


$$$$

     RDKit          3D

 39 43  0  0  0  0  0  0  0  0999 V2000
    0.5634   14.6049   43.2384 O   0  0  0  0  0  0  0  0  0  0  0  0
    4.7937   21.9946   39.3620 C   0  0  0  0  0  0  0  0  0  0  0  0
   -0.3390   19.8639   44.1943 C   0  0  0  0  0  0  0  0  0  0  0  0
    0.2422   18.7546   43.6361 C   0  0  0  0  0  0  0  0  0  0  0  0
    0.2612   16.1881   42.9339 C   0  0  1  0  0  0  0  0  0  0  0  0
    3.2771   13.5478   40.4998 O   0  0  0  0  0  0  0  0  0  0  0  0
    2.7163   20.4469   40.4222 C   0  0  0  0  0  0  0  0  0  0  0  0
    1.2829   14.0321   39.6323 O   0  0  0  0  0  0  0  0  0  0  0  0
   -1.0269   18.4842   45.8786 C   0  0  0  0  0  0  0  0  0  0  0  0
    0.0280   17.5774   44.2216 C   0  0  0  0  0  0  0  0  0  0  0  0
    3.5856   21.7326   38.6727 C   0  0  0  0  0  0  0  0  0  0  0  0
    3.8315   20.8681   41.2488 C   0  0  0  0  0  0  0  0  0  0  0  0
   -0.2119   21.1174   43.4794 C   0  0  0  0  0  0  0  0  0  0  0  0
   -0.9936   19.6761   45.3406 N   0  0  0  0  0  0  0  0  0  0  0  0
   -0.5793   17.4617   45.3418 N   0  0  0  0  0  0  0  0  0  0  0  0
    1.3577   18.9115   42.8230 C   0  0  0  0  0  0  0  0  0  0  0  0
    1.1039   20.0228   41.8124 C   0  0  0  0  0  0  0  0  0  0  0  0
    3.1627   15.9692   40.4370 O   0  0  0  0  0  0  0  0  0  0  0  0
    4.1321   20.4732   42.7778 Cl  0  0  0  0  0  0  0  0  0  0  0  0
    2.5621   20.9957   39.1779 C   0  0  0  0  0  0  0  0  0  0  0  0
    0.5611   21.1583   42.3961 C   0  0  0  0  0  0  0  0  0  0  0  0
    1.8089   16.4735   42.4400 C   0  0  2  0  0  0  0  0  0  0  0  0
    1.7628   19.6607   40.8333 O   0  0  0  0  0  0  0  0  0  0  0  0
    2.0798   17.7631   42.2508 O   0  0  0  0  0  0  0  0  0  0  0  0
    4.9036   21.5992   40.6609 C   0  0  0  0  0  0  0  0  0  0  0  0
    1.8534   15.7450   41.1772 C   0  0  2  0  0  0  0  0  0  0  0  0
    2.4362   14.6979   40.3377 P   0  0  2  0  0  5  0  0  0  0  0  0
    0.5525   14.4489   44.2159 H   0  0  0  0  0  0  0  0  0  0  0  0
    5.6270   22.5070   38.8590 H   0  0  0  0  0  0  0  0  0  0  0  0
   -0.6968   16.2496   42.3968 H   0  0  0  0  0  0  0  0  0  0  0  0
    3.3873   13.3530   41.4642 H   0  0  0  0  0  0  0  0  0  0  0  0
   -1.4829   18.3833   46.8745 H   0  0  0  0  0  0  0  0  0  0  0  0
    3.4677   22.1527   37.6630 H   0  0  0  0  0  0  0  0  0  0  0  0
   -0.7430   22.0168   43.8244 H   0  0  0  0  0  0  0  0  0  0  0  0
    1.6363   20.8445   38.6035 H   0  0  0  0  0  0  0  0  0  0  0  0
    0.7792   22.1368   41.9433 H   0  0  0  0  0  0  0  0  0  0  0  0
    2.5523   16.1609   43.1880 H   0  0  0  0  0  0  0  0  0  0  0  0
    5.8039   21.8401   41.2453 H   0  0  0  0  0  0  0  0  0  0  0  0
    0.7687   15.8057   41.3491 H   0  0  0  0  0  0  0  0  0  0  0  0
  2 25  1  0
  3 14  2  0
  4 10  2  0
  4  3  1  0
  5  1  1  0
  5 10  1  0
  7 23  1  0
  7 12  1  0
 10 15  1  0
 11 20  1  0
 11  2  2  0
 12 19  1  0
 13  3  1  0
 14  9  1  0
 15  9  2  0
 16  4  1  0
 17 21  1  0
 17 16  2  0
 20  7  2  0
 21 13  2  0
 22 24  1  0
 22  5  1  0
 23 17  1  0
 24 16  1  0
 25 12  2  0
 26 18  1  0
 26 22  1  0
 27  8  2  0
 27 18  1  0
 27  6  1  1
 27 26  1  0
  1 28  1  0
  2 29  1  0
  5 30  1  6
  6 31  1  0
  9 32  1  0
 11 33  1  0
 13 34  1  0
 20 35  1  0
 21 36  1  0
 22 37  1  1
 25 38  1  0
 26 39  1  6
M  END
>  <mol_id>  (72) 
2026-09-18-6fnk-s0-n100-refligand-0074

>  <rmsd_to_ref>  (72) 


$$$$

     RDKit          3D

 42 44  0  0  0  0  0  0  0  0999 V2000
   -1.3024   18.3433   46.8159 C   0  0  0  0  0  0  0  0  0  0  0  0
   -0.2766   16.1752   41.5652 C   0  0  0  0  0  0  0  0  0  0  0  0
   -1.1198   19.6105   46.2652 C   0  0  0  0  0  0  0  0  0  0  0  0
   -0.4033   19.8012   45.0515 C   0  0  0  0  0  0  0  0  0  0  0  0
   -0.6303   17.3422   46.1025 C   0  0  0  0  0  0  0  0  0  0  0  0
    2.0303   20.0197   40.8773 C   0  0  0  0  0  0  0  0  0  0  0  0
    0.2402   17.1624   40.5120 C   0  0  0  0  0  0  0  0  0  0  0  0
    2.0271   16.7399   42.3015 C   0  0  0  0  0  0  0  0  0  0  0  0
    1.0160   18.7206   43.5162 N   0  0  0  0  0  0  0  0  0  0  0  0
   -0.2071   17.5753   45.0384 C   0  0  0  0  0  0  0  0  0  0  0  0
   -0.1174   20.9917   44.4387 N   0  0  0  0  0  0  0  0  0  0  0  0
    4.2622   20.8485   40.3480 C   0  0  0  0  0  0  0  0  0  0  0  0
   -1.8993   18.1583   47.9645 F   0  0  0  0  0  0  0  0  0  0  0  0
    0.7454   15.8443   42.6269 C   0  0  0  0  0  0  0  0  0  0  0  0
    0.2169   18.7010   44.4825 C   0  0  0  0  0  0  0  0  0  0  0  0
    2.4022   19.8498   42.1444 C   0  0  0  0  0  0  0  0  0  0  0  0
    1.5492   16.9555   39.9438 N   0  0  0  0  0  0  0  0  0  0  0  0
    4.6324   20.5014   41.5867 C   0  0  0  0  0  0  0  0  0  0  0  0
    2.9525   20.5781   39.9824 C   0  0  0  0  0  0  0  0  0  0  0  0
    2.4483   16.5362   41.0044 N   0  0  0  0  0  0  0  0  0  0  0  0
    0.7298   21.0285   43.4993 C   0  0  0  0  0  0  0  0  0  0  0  0
    1.3396   19.8322   43.0848 C   0  0  0  0  0  0  0  0  0  0  0  0
    3.7316   19.9482   42.5067 C   0  0  0  0  0  0  0  0  0  0  0  0
   -0.5669   15.2435   41.0577 H   0  0  0  0  0  0  0  0  0  0  0  0
   -1.1279   16.6546   42.0708 H   0  0  0  0  0  0  0  0  0  0  0  0
   -1.5405   20.4855   46.7824 H   0  0  0  0  0  0  0  0  0  0  0  0
   -0.5017   16.3419   46.5417 H   0  0  0  0  0  0  0  0  0  0  0  0
    1.0240   19.7289   40.5415 H   0  0  0  0  0  0  0  0  0  0  0  0
   -0.4783   17.1509   39.6792 H   0  0  0  0  0  0  0  0  0  0  0  0
    0.3382   18.1093   41.0631 H   0  0  0  0  0  0  0  0  0  0  0  0
    1.7693   17.8010   42.4348 H   0  0  0  0  0  0  0  0  0  0  0  0
    2.8400   16.4554   42.9857 H   0  0  0  0  0  0  0  0  0  0  0  0
   -0.1502   16.6987   44.3763 H   0  0  0  0  0  0  0  0  0  0  0  0
    4.9659   21.3271   39.6511 H   0  0  0  0  0  0  0  0  0  0  0  0
    0.3522   16.0886   43.6248 H   0  0  0  0  0  0  0  0  0  0  0  0
    0.9931   14.7726   42.6263 H   0  0  0  0  0  0  0  0  0  0  0  0
    1.5023   16.2255   39.2186 H   0  0  0  0  0  0  0  0  0  0  0  0
    5.6778   20.6553   41.8924 H   0  0  0  0  0  0  0  0  0  0  0  0
    2.6271   20.8092   38.9573 H   0  0  0  0  0  0  0  0  0  0  0  0
    2.6166   15.5268   40.8876 H   0  0  0  0  0  0  0  0  0  0  0  0
    0.9850   21.9824   43.0147 H   0  0  0  0  0  0  0  0  0  0  0  0
    4.0745   19.6011   43.4926 H   0  0  0  0  0  0  0  0  0  0  0  0
  1 13  1  0
  2 14  1  0
  3  1  1  0
  4  3  2  0
  5  1  2  0
  6 16  1  0
  7  2  1  0
  8 14  1  0
  9 15  1  0
 10  5  1  0
 11  4  1  0
 12 18  2  0
 15 10  2  0
 15  4  1  0
 16 23  2  0
 16 22  1  0
 17  7  1  0
 17 20  1  0
 18 23  1  0
 19 12  1  0
 19  6  2  0
 20  8  1  0
 21 11  2  0
 22  9  2  0
 22 21  1  0
  2 24  1  0
  2 25  1  0
  3 26  1  0
  5 27  1  0
  6 28  1  0
  7 29  1  0
  7 30  1  0
  8 31  1  0
  8 32  1  0
 10 33  1  0
 12 34  1  0
 14 35  1  0
 14 36  1  0
 17 37  1  0
 18 38  1  0
 19 39  1  0
 20 40  1  0
 21 41  1  0
 23 42  1  0
M  END
>  <mol_id>  (73) 
2026-09-18-6fnk-s0-n100-refligand-0075

>  <rmsd_to_ref>  (73) 


$$$$

     RDKit          3D

 17 18  0  0  0  0  0  0  0  0999 V2000
    1.4376   19.3650   42.7504 C   0  0  0  0  0  0  0  0  0  0  0  0
   -0.0198   20.0938   44.9281 N   0  0  0  0  0  0  0  0  0  0  0  0
    0.2332   21.0007   43.9121 C   0  0  0  0  0  0  0  0  0  0  0  0
    0.4035   18.7926   44.7491 C   0  0  0  0  0  0  0  0  0  0  0  0
    2.5255   17.5484   42.2877 C   0  0  0  0  0  0  0  0  0  0  0  0
    2.2656   18.7149   41.7919 N   0  0  0  0  0  0  0  0  0  0  0  0
    1.1340   18.3950   43.5175 C   0  0  0  0  0  0  0  0  0  0  0  0
    1.7166   17.3176   43.2204 C   0  0  0  0  0  0  0  0  0  0  0  0
    1.0051   20.7161   42.7527 C   0  0  0  0  0  0  0  0  0  0  0  0
   -0.1924   22.0104   44.0090 H   0  0  0  0  0  0  0  0  0  0  0  0
    0.1979   18.0418   45.5263 H   0  0  0  0  0  0  0  0  0  0  0  0
    3.5540   17.5328   42.6775 H   0  0  0  0  0  0  0  0  0  0  0  0
    2.4269   16.7794   41.5074 H   0  0  0  0  0  0  0  0  0  0  0  0
    2.5902   19.0943   40.8910 H   0  0  0  0  0  0  0  0  0  0  0  0
    0.9760   16.5726   42.8941 H   0  0  0  0  0  0  0  0  0  0  0  0
    2.2525   16.9236   44.0966 H   0  0  0  0  0  0  0  0  0  0  0  0
    1.2363   21.4461   41.9630 H   0  0  0  0  0  0  0  0  0  0  0  0
  1  7  1  0
  2  4  1  0
  3  2  2  0
  5  8  1  0
  6  1  1  0
  6  5  1  0
  7  8  1  0
  7  4  2  0
  9  1  2  0
  9  3  1  0
  3 10  1  0
  4 11  1  0
  5 12  1  0
  5 13  1  0
  6 14  1  0
  8 15  1  0
  8 16  1  0
  9 17  1  0
M  END
>  <mol_id>  (74) 
2026-09-18-6fnk-s0-n100-refligand-0076

>  <rmsd_to_ref>  (74) 


$$$$

     RDKit          3D

 19 19  0  0  0  0  0  0  0  0999 V2000
    0.7410   18.2171   43.1564 C   0  0  0  0  0  0  0  0  0  0  0  0
    2.7230   21.1156   42.7378 O   0  0  0  0  0  0  0  0  0  0  0  0
    1.8042   20.3307   43.0613 C   0  0  0  0  0  0  0  0  0  0  0  0
   -0.1163   18.7468   44.1573 C   0  0  0  0  0  0  0  0  0  0  0  0
   -1.7062   16.9747   44.3766 N   0  0  0  0  0  0  0  0  0  0  0  0
   -0.2122   20.0414   44.3533 C   0  0  0  0  0  0  0  0  0  0  0  0
    1.7416   18.9754   42.7424 C   0  0  0  0  0  0  0  0  0  0  0  0
    0.7163   20.9087   43.7439 C   0  0  0  0  0  0  0  0  0  0  0  0
   -0.8049   17.8560   45.1280 C   0  0  0  0  0  0  0  0  0  0  0  0
    0.5782   17.2118   42.7406 H   0  0  0  0  0  0  0  0  0  0  0  0
   -2.0182   16.2039   44.9845 H   0  0  0  0  0  0  0  0  0  0  0  0
   -2.5243   17.5124   44.0566 H   0  0  0  0  0  0  0  0  0  0  0  0
   -1.2085   16.5891   43.5614 H   0  0  0  0  0  0  0  0  0  0  0  0
   -1.0127   20.4467   44.9895 H   0  0  0  0  0  0  0  0  0  0  0  0
    2.5410   18.5276   42.1340 H   0  0  0  0  0  0  0  0  0  0  0  0
    1.1295   21.5541   44.5331 H   0  0  0  0  0  0  0  0  0  0  0  0
    0.1410   21.4254   42.9616 H   0  0  0  0  0  0  0  0  0  0  0  0
   -0.0630   17.2539   45.6730 H   0  0  0  0  0  0  0  0  0  0  0  0
   -1.3742   18.4527   45.8560 H   0  0  0  0  0  0  0  0  0  0  0  0
  1  4  1  0
  2  3  2  0
  3  8  1  0
  3  7  1  0
  4  9  1  0
  6  4  2  0
  7  1  2  0
  8  6  1  0
  9  5  1  0
  1 10  1  0
  5 11  1  0
  5 12  1  0
  5 13  1  0
  6 14  1  0
  7 15  1  0
  8 16  1  0
  8 17  1  0
  9 18  1  0
  9 19  1  0
M  CHG  1   5   1
M  END
>  <mol_id>  (75) 
2026-09-18-6fnk-s0-n100-refligand-0077

>  <rmsd_to_ref>  (75) 


$$$$

     RDKit          3D

 27 29  0  0  0  0  0  0  0  0999 V2000
   -0.6497   20.8496   44.8071 O   0  0  0  0  0  0  0  0  0  0  0  0
    0.4103   19.5236   43.4417 N   0  0  0  0  0  0  0  0  0  0  0  0
    2.1092   15.9054   42.2246 C   0  0  0  0  0  0  0  0  0  0  0  0
   -0.2731   19.7678   44.6008 C   0  0  0  0  0  0  0  0  0  0  0  0
   -0.6862   16.6635   46.4996 C   0  0  0  0  0  0  0  0  0  0  0  0
    1.2532   19.2821   41.4347 C   0  0  0  0  0  0  0  0  0  0  0  0
   -0.4159   18.5169   45.3711 C   0  0  0  0  0  0  0  0  0  0  0  0
    3.0457   14.8977   41.6008 C   0  0  0  0  0  0  0  0  0  0  0  0
    0.6750   20.1828   42.2602 N   0  0  0  0  0  0  0  0  0  0  0  0
    0.7765   18.2472   43.4489 C   0  0  0  0  0  0  0  0  0  0  0  0
    0.1501   17.5911   44.5729 C   0  0  0  0  0  0  0  0  0  0  0  0
    1.3785   15.5953   43.0814 O   0  0  0  0  0  0  0  0  0  0  0  0
   -0.0529   16.3702   45.3552 C   0  0  0  0  0  0  0  0  0  0  0  0
    1.4253   18.1102   42.1326 C   0  0  0  0  0  0  0  0  0  0  0  0
    2.2305   17.1070   41.7615 N   0  0  0  0  0  0  0  0  0  0  0  0
   -0.8515   18.0137   46.5879 N   0  0  0  0  0  0  0  0  0  0  0  0
    1.6092   19.4835   39.9922 C   0  0  0  0  0  0  0  0  0  0  0  0
   -1.0196   15.9305   47.2490 H   0  0  0  0  0  0  0  0  0  0  0  0
    3.8119   14.6061   42.3342 H   0  0  0  0  0  0  0  0  0  0  0  0
    2.4755   14.0087   41.2931 H   0  0  0  0  0  0  0  0  0  0  0  0
    3.5316   15.3443   40.7208 H   0  0  0  0  0  0  0  0  0  0  0  0
    0.2665   15.3630   45.0494 H   0  0  0  0  0  0  0  0  0  0  0  0
    2.9773   17.3001   41.0790 H   0  0  0  0  0  0  0  0  0  0  0  0
   -1.2211   18.5468   47.3879 H   0  0  0  0  0  0  0  0  0  0  0  0
    2.3935   20.2506   39.9116 H   0  0  0  0  0  0  0  0  0  0  0  0
    1.9773   18.5369   39.5697 H   0  0  0  0  0  0  0  0  0  0  0  0
    0.7178   19.8108   39.4368 H   0  0  0  0  0  0  0  0  0  0  0  0
  2  4  1  0
  3 12  2  0
  4  7  1  0
  4  1  2  0
  5 16  1  0
  6 14  1  0
  6  9  2  0
  7 16  1  0
  8  3  1  0
  9  2  1  0
 10  2  1  0
 10 11  1  0
 11 13  1  0
 11  7  2  0
 13  5  2  0
 14 10  2  0
 15  3  1  0
 15 14  1  0
 17  6  1  0
  5 18  1  0
  8 19  1  0
  8 20  1  0
  8 21  1  0
 13 22  1  0
 15 23  1  0
 16 24  1  0
 17 25  1  0
 17 26  1  0
 17 27  1  0
M  END
>  <mol_id>  (76) 
2026-09-18-6fnk-s0-n100-refligand-0078

>  <rmsd_to_ref>  (76) 


$$$$

     RDKit          3D

 32 33  0  0  0  0  0  0  0  0999 V2000
   -1.3145   18.8208   43.6631 O   0  0  0  0  0  0  0  0  0  0  0  0
    1.7148   16.2076   43.2328 C   0  0  0  0  0  0  0  0  0  0  0  0
    3.0419   14.0407   42.7288 S   0  0  0  0  0  6  0  0  0  0  0  0
    3.4445   14.6874   41.4427 O   0  0  0  0  0  0  0  0  0  0  0  0
    2.2856   20.0661   40.6244 C   0  0  0  0  0  0  0  0  0  0  0  0
    2.6883   22.0900   39.8902 N   0  0  0  0  0  0  0  0  0  0  0  0
   -0.7903   17.7888   45.7716 C   0  0  0  0  0  0  0  0  0  0  0  0
    0.8615   19.5310   42.3851 N   0  0  0  0  0  0  0  0  0  0  0  0
    4.1195   13.4122   43.4141 O   0  0  0  0  0  0  0  0  0  0  0  0
    1.4748   20.4650   41.6226 C   0  0  0  0  0  0  0  0  0  0  0  0
    2.3352   15.1351   43.7487 N   0  0  0  0  0  0  0  0  0  0  0  0
    3.0810   20.3840   38.5915 O   0  0  0  0  0  0  0  0  0  0  0  0
    2.2561   17.8717   41.5056 C   0  0  0  0  0  0  0  0  0  0  0  0
    2.2324   16.7237   42.1548 N   0  0  0  0  0  0  0  0  0  0  0  0
    1.7924   12.8741   42.6002 C   0  0  0  0  0  0  0  0  0  0  0  0
    1.2284   18.3633   42.4676 C   0  0  0  0  0  0  0  0  0  0  0  0
    0.4967   17.1234   43.6199 C   0  0  2  0  0  0  0  0  0  0  0  0
    2.6972   20.9154   39.6622 C   0  0  0  0  0  0  0  0  0  0  0  0
    2.6911   18.7051   40.5562 C   0  0  0  0  0  0  0  0  0  0  0  0
   -0.6412   17.9588   44.2891 C   0  0  0  0  0  0  0  0  0  0  0  0
    2.3544   22.4351   40.8014 H   0  0  0  0  0  0  0  0  0  0  0  0
    3.0146   22.7559   39.1754 H   0  0  0  0  0  0  0  0  0  0  0  0
   -1.8339   17.9836   46.0598 H   0  0  0  0  0  0  0  0  0  0  0  0
   -0.5184   16.7604   46.0519 H   0  0  0  0  0  0  0  0  0  0  0  0
   -0.1282   18.4975   46.2904 H   0  0  0  0  0  0  0  0  0  0  0  0
    1.3132   21.5358   41.8153 H   0  0  0  0  0  0  0  0  0  0  0  0
    2.3709   14.9948   44.7685 H   0  0  0  0  0  0  0  0  0  0  0  0
    1.4120   12.6322   43.6035 H   0  0  0  0  0  0  0  0  0  0  0  0
    0.9748   13.2788   41.9857 H   0  0  0  0  0  0  0  0  0  0  0  0
    2.1888   11.9627   42.1288 H   0  0  0  0  0  0  0  0  0  0  0  0
   -0.0543   16.3466   44.1703 H   0  0  0  0  0  0  0  0  0  0  0  0
    3.3437   18.3487   39.7457 H   0  0  0  0  0  0  0  0  0  0  0  0
  1 20  2  0
  2 11  1  0
  2 17  1  0
  3 15  1  0
  3  9  2  0
  3 11  1  0
  4  3  2  0
  5 10  1  0
  8 16  1  0
 10  8  2  0
 12 18  2  0
 13 14  1  0
 13 16  2  0
 14  2  2  0
 16 17  1  0
 17 20  1  0
 18  6  1  0
 18  5  1  0
 19  5  2  0
 19 13  1  0
 20  7  1  0
  6 21  1  0
  6 22  1  0
  7 23  1  0
  7 24  1  0
  7 25  1  0
 10 26  1  0
 11 27  1  0
 15 28  1  0
 15 29  1  0
 15 30  1  0
 17 31  1  6
 19 32  1  0
M  END
>  <mol_id>  (77) 
2026-09-18-6fnk-s0-n100-refligand-0079

>  <rmsd_to_ref>  (77) 


$$$$

     RDKit          3D

 28 28  0  0  0  0  0  0  0  0999 V2000
   -0.8232   18.4767   45.4313 C   0  0  0  0  0  0  0  0  0  0  0  0
    2.5067   15.4654   41.8721 C   0  0  0  0  0  0  0  0  0  0  0  0
   -0.2134   19.1382   44.2621 C   0  0  2  0  0  0  0  0  0  0  0  0
    0.9460   18.6257   43.4816 C   0  0  0  0  0  0  0  0  0  0  0  0
    2.6692   17.7507   41.4484 C   0  0  0  0  0  0  0  0  0  0  0  0
    1.5772   20.9436   42.6757 N   0  0  0  0  0  0  0  0  0  0  0  0
    3.0730   20.1325   40.7589 C   0  0  0  0  0  0  0  0  0  0  0  0
    1.3460   17.2388   43.4340 C   0  0  0  0  0  0  0  0  0  0  0  0
    2.1005   16.8576   42.3067 C   0  0  0  0  0  0  0  0  0  0  0  0
    1.5884   19.5728   42.6651 C   0  0  0  0  0  0  0  0  0  0  0  0
   -0.2965   20.5408   44.1490 N   0  0  0  0  0  0  0  0  0  0  0  0
    2.4403   19.0693   41.5973 C   0  0  0  0  0  0  0  0  0  0  0  0
   -0.7296   17.1521   45.5313 O   0  0  0  0  0  0  0  0  0  0  0  0
   -1.3442   19.1826   46.2311 O   0  0  0  0  0  0  0  0  0  0  0  0
    2.4985   14.7926   42.7423 H   0  0  0  0  0  0  0  0  0  0  0  0
    1.7981   15.0959   41.1162 H   0  0  0  0  0  0  0  0  0  0  0  0
    3.5186   15.4961   41.4420 H   0  0  0  0  0  0  0  0  0  0  0  0
   -1.0307   18.5987   43.7613 H   0  0  0  0  0  0  0  0  0  0  0  0
    3.3159   17.3940   40.6332 H   0  0  0  0  0  0  0  0  0  0  0  0
    2.1256   21.4685   41.9795 H   0  0  0  0  0  0  0  0  0  0  0  0
    1.0205   21.4487   43.3798 H   0  0  0  0  0  0  0  0  0  0  0  0
    3.5211   20.8960   41.4118 H   0  0  0  0  0  0  0  0  0  0  0  0
    3.8549   19.6849   40.1278 H   0  0  0  0  0  0  0  0  0  0  0  0
    2.3087   20.5990   40.1200 H   0  0  0  0  0  0  0  0  0  0  0  0
    1.0786   16.5253   44.2273 H   0  0  0  0  0  0  0  0  0  0  0  0
   -0.4683   20.9506   45.0782 H   0  0  0  0  0  0  0  0  0  0  0  0
    0.5882   20.9077   43.7701 H   0  0  0  0  0  0  0  0  0  0  0  0
   -1.0701   20.7889   43.5159 H   0  0  0  0  0  0  0  0  0  0  0  0
  1 13  2  0
  1 14  1  0
  2  9  1  0
  3 11  1  0
  3  1  1  0
  4  8  2  0
  4  3  1  0
  5  9  2  0
  6 10  1  0
  7 12  1  0
  9  8  1  0
 10  4  1  0
 12  5  1  0
 12 10  2  0
  2 15  1  0
  2 16  1  0
  2 17  1  0
  3 18  1  6
  5 19  1  0
  6 20  1  0
  6 21  1  0
  7 22  1  0
  7 23  1  0
  7 24  1  0
  8 25  1  0
 11 26  1  0
 11 27  1  0
 11 28  1  0
M  CHG  2  11   1  14  -1
M  END
>  <mol_id>  (78) 
2026-09-18-6fnk-s0-n100-refligand-0080

>  <rmsd_to_ref>  (78) 


$$$$

     RDKit          3D

 15 15  0  0  0  0  0  0  0  0999 V2000
   -1.1377   20.2194   44.9848 C   0  0  0  0  0  0  0  0  0  0  0  0
   -0.2028   18.0024   44.4772 C   0  0  0  0  0  0  0  0  0  0  0  0
    1.6261   20.4094   42.4720 C   0  0  0  0  0  0  0  0  0  0  0  0
   -0.1973   20.7746   44.0755 C   0  0  0  0  0  0  0  0  0  0  0  0
    0.8082   20.0252   43.3515 C   0  0  0  0  0  0  0  0  0  0  0  0
    0.7082   18.6118   43.6260 C   0  0  0  0  0  0  0  0  0  0  0  0
    2.5248   20.2562   41.8199 O   0  0  0  0  0  0  0  0  0  0  0  0
    1.6435   17.8514   42.9668 O   0  0  0  0  0  0  0  0  0  0  0  0
   -1.1810   18.8055   45.0735 C   0  0  0  0  0  0  0  0  0  0  0  0
   -1.7998   20.8559   45.5902 H   0  0  0  0  0  0  0  0  0  0  0  0
   -0.1573   16.9217   44.6767 H   0  0  0  0  0  0  0  0  0  0  0  0
    1.2760   21.4180   42.2076 H   0  0  0  0  0  0  0  0  0  0  0  0
   -0.2363   21.8611   43.9081 H   0  0  0  0  0  0  0  0  0  0  0  0
    1.6582   16.8691   43.0890 H   0  0  0  0  0  0  0  0  0  0  0  0
   -2.0041   18.3277   45.6250 H   0  0  0  0  0  0  0  0  0  0  0  0
  1  9  2  0
  2  9  1  0
  3  5  1  0
  4  1  1  0
  5  6  1  0
  5  4  2  0
  6  2  2  0
  7  3  2  0
  8  6  1  0
  1 10  1  0
  2 11  1  0
  3 12  1  0
  4 13  1  0
  8 14  1  0
  9 15  1  0
M  END
>  <mol_id>  (79) 
2026-09-18-6fnk-s0-n100-refligand-0081

>  <rmsd_to_ref>  (79) 


$$$$

     RDKit          3D

 69 71  0  0  0  0  0  0  0  0999 V2000
    0.0491   20.7554   43.9226 C   0  0  0  0  0  0  0  0  0  0  0  0
    2.1188   16.9704   38.7055 O   0  0  0  0  0  0  0  0  0  0  0  0
   -0.4167   20.0770   45.1113 C   0  0  2  0  0  0  0  0  0  0  0  0
   -1.3576   16.7787   50.2076 C   0  0  0  0  0  0  0  0  0  0  0  0
    1.7228   19.2440   39.4541 C   0  0  1  0  0  0  0  0  0  0  0  0
    3.0112   21.1082   38.7224 C   0  0  1  0  0  0  0  0  0  0  0  0
    1.7880   20.4488   41.7343 C   0  0  0  0  0  0  0  0  0  0  0  0
   -0.9893   20.1324   45.9494 O   0  0  0  0  0  0  0  0  0  0  0  0
    4.4530   21.5422   38.5240 C   0  0  0  0  0  0  0  0  0  0  0  0
   -0.5346   18.2301   46.8382 C   0  0  0  0  0  0  0  0  0  0  0  0
   -1.0447   16.9635   46.5140 C   0  0  0  0  0  0  0  0  0  0  0  0
    1.7982   19.5241   40.8098 C   0  0  1  0  0  0  0  0  0  0  0  0
    2.2187   15.3581   40.4959 C   0  0  0  0  0  0  0  0  0  0  0  0
    0.9289   20.1526   43.4353 C   0  0  0  0  0  0  0  0  0  0  0  0
   -1.4603   16.1254   47.5487 C   0  0  1  0  0  0  0  0  0  0  0  0
    2.7819   19.6648   38.4771 C   0  0  0  0  0  0  0  0  0  0  0  0
    1.4308   18.6181   42.6967 C   0  0  0  0  0  0  0  0  0  0  0  0
    3.5536   14.8240   40.8073 C   0  0  0  0  0  0  0  0  0  0  0  0
   -1.1596   16.4301   45.2022 C   0  0  0  0  0  0  0  0  0  0  0  0
    1.4818   18.3192   41.6299 C   0  0  0  0  0  0  0  0  0  0  0  0
    2.8368   21.1984   40.0718 O   0  0  0  0  0  0  0  0  0  0  0  0
   -1.1952   16.3893   48.7829 C   0  0  2  0  0  0  0  0  0  0  0  0
    1.3169   17.8429   39.1523 C   0  0  0  0  0  0  0  0  0  0  0  0
    0.7380   19.6316   42.9516 C   0  0  2  0  0  0  0  0  0  0  0  0
    2.0337   15.5732   39.0227 C   0  0  0  0  0  0  0  0  0  0  0  0
   -2.2210   15.7393   48.5483 C   0  0  0  0  0  0  0  0  0  0  0  0
   -0.2029   19.1816   45.8380 C   0  0  1  0  0  0  0  0  0  0  0  0
   -0.7784   20.8381   43.2026 H   0  0  0  0  0  0  0  0  0  0  0  0
    0.4072   21.7589   44.1965 H   0  0  0  0  0  0  0  0  0  0  0  0
   -0.3197   20.4713   44.0890 H   0  0  0  0  0  0  0  0  0  0  0  0
   -0.7369   16.1262   50.8391 H   0  0  0  0  0  0  0  0  0  0  0  0
   -1.0429   17.8243   50.3400 H   0  0  0  0  0  0  0  0  0  0  0  0
   -2.4133   16.6739   50.4983 H   0  0  0  0  0  0  0  0  0  0  0  0
    0.9349   19.9848   39.2530 H   0  0  0  0  0  0  0  0  0  0  0  0
    2.3710   21.7055   38.0565 H   0  0  0  0  0  0  0  0  0  0  0  0
    1.3438   21.3876   41.3721 H   0  0  0  0  0  0  0  0  0  0  0  0
    2.7780   20.7592   42.0999 H   0  0  0  0  0  0  0  0  0  0  0  0
    4.9224   21.7134   39.5039 H   0  0  0  0  0  0  0  0  0  0  0  0
    5.0022   20.7551   37.9868 H   0  0  0  0  0  0  0  0  0  0  0  0
    4.4785   22.4726   37.9377 H   0  0  0  0  0  0  0  0  0  0  0  0
   -0.3878   18.4928   47.8962 H   0  0  0  0  0  0  0  0  0  0  0  0
    2.4081   20.1971   40.1893 H   0  0  0  0  0  0  0  0  0  0  0  0
    1.4588   14.6457   40.8498 H   0  0  0  0  0  0  0  0  0  0  0  0
    2.1139   16.3306   40.9989 H   0  0  0  0  0  0  0  0  0  0  0  0
    1.5798   20.8708   42.9152 H   0  0  0  0  0  0  0  0  0  0  0  0
    1.4147   19.6190   44.2655 H   0  0  0  0  0  0  0  0  0  0  0  0
   -1.3852   15.6157   46.5767 H   0  0  0  0  0  0  0  0  0  0  0  0
    3.7078   19.0960   38.6481 H   0  0  0  0  0  0  0  0  0  0  0  0
    2.4712   19.4762   37.4389 H   0  0  0  0  0  0  0  0  0  0  0  0
    2.4569   18.8169   43.0397 H   0  0  0  0  0  0  0  0  0  0  0  0
    0.9363   17.7832   43.2149 H   0  0  0  0  0  0  0  0  0  0  0  0
    3.7127   14.8458   41.8955 H   0  0  0  0  0  0  0  0  0  0  0  0
    3.6271   13.7873   40.4468 H   0  0  0  0  0  0  0  0  0  0  0  0
    4.3194   15.4394   40.3124 H   0  0  0  0  0  0  0  0  0  0  0  0
   -1.2014   15.3321   45.2551 H   0  0  0  0  0  0  0  0  0  0  0  0
   -2.0784   16.8097   44.7312 H   0  0  0  0  0  0  0  0  0  0  0  0
   -0.2880   16.7355   44.6046 H   0  0  0  0  0  0  0  0  0  0  0  0
    0.5138   17.9016   41.3160 H   0  0  0  0  0  0  0  0  0  0  0  0
    2.2622   17.5565   41.4916 H   0  0  0  0  0  0  0  0  0  0  0  0
    3.7173   21.1541   40.5221 H   0  0  0  0  0  0  0  0  0  0  0  0
   -0.1886   16.8010   48.9482 H   0  0  0  0  0  0  0  0  0  0  0  0
    0.5064   17.9157   38.4121 H   0  0  0  0  0  0  0  0  0  0  0  0
    1.1100   17.4536   40.1601 H   0  0  0  0  0  0  0  0  0  0  0  0
   -0.3160   19.3651   43.1190 H   0  0  0  0  0  0  0  0  0  0  0  0
    1.0462   15.1930   38.7222 H   0  0  0  0  0  0  0  0  0  0  0  0
    2.8267   15.0360   38.4817 H   0  0  0  0  0  0  0  0  0  0  0  0
   -3.2084   16.2011   48.6960 H   0  0  0  0  0  0  0  0  0  0  0  0
   -2.6196   14.7724   48.8891 H   0  0  0  0  0  0  0  0  0  0  0  0
    0.6410   18.4902   45.6976 H   0  0  0  0  0  0  0  0  0  0  0  0
  2 25  1  0
  2 23  1  0
  3  1  1  0
  3 27  1  0
  3  8  1  0
  5 16  1  0
  6  9  1  0
  6 21  1  0
  7 24  1  0
 11 10  2  3
 12  5  1  0
 12 20  1  0
 12  7  1  0
 13 18  1  0
 14  1  1  0
 15 11  1  0
 15 26  1  0
 15 22  1  0
 16  6  1  0
 17 24  1  0
 19 11  1  0
 20 17  1  0
 22  4  1  0
 23  5  1  0
 24 14  1  0
 25 13  1  0
 26 22  1  0
 27  8  1  0
 27 10  1  0
  1 28  1  0
  1 29  1  0
  3 30  1  6
  4 31  1  0
  4 32  1  0
  4 33  1  0
  5 34  1  6
  6 35  1  6
  7 36  1  0
  7 37  1  0
  9 38  1  0
  9 39  1  0
  9 40  1  0
 10 41  1  0
 12 42  1  6
 13 43  1  0
 13 44  1  0
 14 45  1  0
 14 46  1  0
 15 47  1  6
 16 48  1  0
 16 49  1  0
 17 50  1  0
 17 51  1  0
 18 52  1  0
 18 53  1  0
 18 54  1  0
 19 55  1  0
 19 56  1  0
 19 57  1  0
 20 58  1  0
 20 59  1  0
 21 60  1  0
 22 61  1  1
 23 62  1  0
 23 63  1  0
 24 64  1  6
 25 65  1  0
 25 66  1  0
 26 67  1  0
 26 68  1  0
 27 69  1  1
M  END
>  <mol_id>  (80) 
2026-09-18-6fnk-s0-n100-refligand-0082

>  <rmsd_to_ref>  (80) 


$$$$

     RDKit          3D

 58 60  0  0  0  0  0  0  0  0999 V2000
    2.4469   14.3593   43.8082 C   0  0  0  0  0  0  0  0  0  0  0  0
    0.6585   18.7581   42.8159 O   0  0  0  0  0  0  0  0  0  0  0  0
   -0.9668   17.3691   47.2746 O   0  0  0  0  0  0  0  0  0  0  0  0
    1.5966   13.6182   44.6927 O   0  0  0  0  0  0  0  0  0  0  0  0
   -1.4637   18.6399   44.7659 F   0  0  0  0  0  0  0  0  0  0  0  0
    0.5284   20.0260   44.7474 C   0  0  0  0  0  0  0  0  0  0  0  0
    2.2854   19.9497   39.7541 C   0  0  0  0  0  0  0  0  0  0  0  0
    1.5982   17.7617   40.5359 O   0  0  0  0  0  0  0  0  0  0  0  0
    4.2579   13.8264   41.1594 O   0  0  0  0  0  0  0  0  0  0  0  0
    5.3013   22.1755   41.4682 F   0  0  0  0  0  0  0  0  0  0  0  0
    2.7351   14.2140   41.1689 S   0  0  0  0  0  4  0  0  0  0  0  0
    3.1675   20.1637   37.7311 O   0  0  0  0  0  0  0  0  0  0  0  0
    1.9630   14.6177   42.6574 C   0  0  2  0  0  0  0  0  0  0  0  0
    2.3317   20.3724   41.3147 C   0  0  0  0  0  0  0  0  0  0  0  0
    0.6927   15.3584   42.2780 O   0  0  0  0  0  0  0  0  0  0  0  0
    3.2889   20.3259   39.0270 C   0  0  0  0  0  0  0  0  0  0  0  0
    4.3614   20.9706   39.5495 C   0  0  0  0  0  0  0  0  0  0  0  0
    1.9492   13.5655   40.1383 O   0  0  0  0  0  0  0  0  0  0  0  0
    3.5786   20.6684   41.9187 C   0  0  0  0  0  0  0  0  0  0  0  0
    2.9354   15.6574   40.6624 O   0  0  0  0  0  0  0  0  0  0  0  0
    0.1106   16.8477   46.6353 C   0  0  1  0  0  0  0  0  0  0  0  0
   -0.2987   20.6911   42.7157 O   0  0  0  0  0  0  0  0  0  0  0  0
    1.1665   16.4219   44.7569 C   0  0  0  0  0  0  0  0  0  0  0  0
    4.4046   21.2968   40.9099 C   0  0  0  0  0  0  0  0  0  0  0  0
    2.1747   17.3930   38.3315 O   0  0  0  0  0  0  0  0  0  0  0  0
    5.3314   21.5396   38.7949 O   0  0  0  0  0  0  0  0  0  0  0  0
    0.2298   15.4504   45.7925 S   0  0  0  0  0  0  0  0  0  0  0  0
    0.4201   15.8907   41.1151 C   0  0  0  0  0  0  0  0  0  0  0  0
    0.5547   19.8085   43.1172 S   0  0  0  0  0  6  0  0  0  0  0  0
    1.6876   16.3263   40.6010 C   0  0  1  0  0  0  0  0  0  0  0  0
    1.7825   17.3826   39.3341 C   0  0  0  0  0  0  0  0  0  0  0  0
   -0.6414   19.6010   46.3700 F   0  0  0  0  0  0  0  0  0  0  0  0
    1.7265   20.5106   42.1679 N   0  0  0  0  0  0  0  0  0  0  0  0
    3.9747   20.4111   43.1085 C   0  0  0  0  0  0  0  0  0  0  0  0
   -0.2876   18.8736   45.2386 C   0  0  0  0  0  0  0  0  0  0  0  0
    0.5565   17.6572   45.4434 C   0  0  1  0  0  0  0  0  0  0  0  0
    2.6879   15.3159   44.2951 H   0  0  0  0  0  0  0  0  0  0  0  0
    3.3205   13.7160   43.6263 H   0  0  0  0  0  0  0  0  0  0  0  0
   -0.8577   17.2551   48.2520 H   0  0  0  0  0  0  0  0  0  0  0  0
    1.8590   13.7979   45.6303 H   0  0  0  0  0  0  0  0  0  0  0  0
    0.0545   20.9835   45.0090 H   0  0  0  0  0  0  0  0  0  0  0  0
    1.5340   20.0600   45.1920 H   0  0  0  0  0  0  0  0  0  0  0  0
    1.4476   19.3743   39.3334 H   0  0  0  0  0  0  0  0  0  0  0  0
    4.5709   13.6953   42.0895 H   0  0  0  0  0  0  0  0  0  0  0  0
    2.3792   19.6911   37.3632 H   0  0  0  0  0  0  0  0  0  0  0  0
    1.4495   13.6449   42.6549 H   0  0  0  0  0  0  0  0  0  0  0  0
    1.2840   12.9651   40.5593 H   0  0  0  0  0  0  0  0  0  0  0  0
    0.6089   16.7692   47.6127 H   0  0  0  0  0  0  0  0  0  0  0  0
    0.9173   16.3234   43.6900 H   0  0  0  0  0  0  0  0  0  0  0  0
    2.2557   16.2901   44.6779 H   0  0  0  0  0  0  0  0  0  0  0  0
    6.0928   21.9980   39.2310 H   0  0  0  0  0  0  0  0  0  0  0  0
   -0.0336   15.1454   40.4454 H   0  0  0  0  0  0  0  0  0  0  0  0
   -0.2996   16.7186   41.1976 H   0  0  0  0  0  0  0  0  0  0  0  0
    1.9453   21.4351   42.5657 H   0  0  0  0  0  0  0  0  0  0  0  0
    3.2077   20.7336   43.8280 H   0  0  0  0  0  0  0  0  0  0  0  0
    4.1435   19.3292   43.2128 H   0  0  0  0  0  0  0  0  0  0  0  0
    4.9131   20.9495   43.3070 H   0  0  0  0  0  0  0  0  0  0  0  0
    1.2550   18.4478   45.1317 H   0  0  0  0  0  0  0  0  0  0  0  0
  1  4  1  0
  2 29  2  0
  5 35  1  0
  6 35  1  0
  7 14  1  0
 30  8  1  1
  9 11  1  0
 11 13  1  0
 12 16  1  0
 13  1  1  0
 14 19  2  0
 14 33  1  0
 15 13  1  0
 16 17  1  0
 16  7  2  0
 17 24  2  0
 18 11  1  0
 19 34  1  0
 20 11  1  0
 21  3  1  0
 22 29  2  0
 23 36  1  0
 23 27  1  0
 24 10  1  0
 24 19  1  0
 25 31  2  0
 26 17  1  0
 27 21  1  0
 28 15  1  0
 29  6  1  0
 30 20  1  0
 30 28  1  0
 31  8  1  0
 31 30  1  0
 33 29  1  0
 35 32  1  0
 36 35  1  0
 36 21  1  0
  1 37  1  0
  1 38  1  0
  3 39  1  0
  4 40  1  0
  6 41  1  0
  6 42  1  0
  7 43  1  0
  9 44  1  0
 12 45  1  0
 13 46  1  6
 18 47  1  0
 21 48  1  1
 23 49  1  0
 23 50  1  0
 26 51  1  0
 28 52  1  0
 28 53  1  0
 33 54  1  0
 34 55  1  0
 34 56  1  0
 34 57  1  0
 36 58  1  1
M  END
>  <mol_id>  (81) 
2026-09-18-6fnk-s0-n100-refligand-0083

>  <rmsd_to_ref>  (81) 


$$$$

     RDKit          3D

 51 53  0  0  0  0  0  0  0  0999 V2000
    1.1723   17.5860   40.3126 C   0  0  1  0  0  0  0  0  0  0  0  0
    4.7066   21.1651   40.0929 C   0  0  0  0  0  0  0  0  0  0  0  0
    4.9711   19.6136   43.4468 C   0  0  0  0  0  0  0  0  0  0  0  0
    0.8197   15.8239   42.8664 C   0  0  0  0  0  0  0  0  0  0  0  0
    0.5146   13.7790   44.2838 C   0  0  0  0  0  0  0  0  0  0  0  0
   -0.1200   20.5768   42.9522 N   0  0  0  0  0  0  0  0  0  0  0  0
    1.9737   11.8182   44.1395 Cl  0  0  0  0  0  0  0  0  0  0  0  0
    3.9583   20.7842   38.9614 C   0  0  0  0  0  0  0  0  0  0  0  0
    3.2370   16.6701   38.7666 O   0  0  0  0  0  0  0  0  0  0  0  0
   -0.0177   15.1414   43.9545 C   0  0  0  0  0  0  0  0  0  0  0  0
    4.3460   20.6243   41.3570 C   0  0  0  0  0  0  0  0  0  0  0  0
    2.7973   20.0309   39.1130 C   0  0  0  0  0  0  0  0  0  0  0  0
    3.1716   19.9691   41.4903 C   0  0  0  0  0  0  0  0  0  0  0  0
   -0.4325   21.7341   42.3875 O   0  0  0  0  0  0  0  0  0  0  0  0
    5.6652   22.0152   39.9798 F   0  0  0  0  0  0  0  0  0  0  0  0
    5.1480   20.6952   42.4809 O   0  0  0  0  0  0  0  0  0  0  0  0
    1.1948   18.9429   40.7096 C   0  0  2  0  0  0  0  0  0  0  0  0
   -0.1753   17.6950   44.3268 C   0  0  0  0  0  0  0  0  0  0  0  0
    1.5845   13.2389   43.5809 C   0  0  0  0  0  0  0  0  0  0  0  0
    0.9399   17.2296   38.0273 O   0  0  0  0  0  0  0  0  0  0  0  0
   -0.9276   19.9452   43.7267 C   0  0  0  0  0  0  0  0  0  0  0  0
   -0.6907   18.8083   44.6777 C   0  0  0  0  0  0  0  0  0  0  0  0
    1.3296   16.7124   40.3720 O   0  0  0  0  0  0  0  0  0  0  0  0
    2.3122   19.7224   40.3990 C   0  0  0  0  0  0  0  0  0  0  0  0
   -1.3310   18.7439   46.1261 C   0  0  0  0  0  0  0  0  0  0  0  0
    0.3873   17.3554   43.1353 C   0  0  1  0  0  0  0  0  0  0  0  0
    1.7612   15.0140   42.0657 C   0  0  0  0  0  0  0  0  0  0  0  0
    0.6057   18.2743   42.0089 C   0  0  2  0  0  0  0  0  0  0  0  0
    1.9873   17.2156   39.0077 S   0  0  0  0  0  4  0  0  0  0  0  0
    2.0958   13.8701   42.4590 C   0  0  0  0  0  0  0  0  0  0  0  0
    4.9584   20.0296   44.4650 H   0  0  0  0  0  0  0  0  0  0  0  0
    4.0198   19.0978   43.2496 H   0  0  0  0  0  0  0  0  0  0  0  0
    5.8020   18.8988   43.3532 H   0  0  0  0  0  0  0  0  0  0  0  0
    0.0508   13.1980   45.0945 H   0  0  0  0  0  0  0  0  0  0  0  0
    4.2919   21.0824   37.9565 H   0  0  0  0  0  0  0  0  0  0  0  0
   -0.8984   15.5944   44.4334 H   0  0  0  0  0  0  0  0  0  0  0  0
    2.2561   19.6748   38.2240 H   0  0  0  0  0  0  0  0  0  0  0  0
    2.8742   19.6146   42.4882 H   0  0  0  0  0  0  0  0  0  0  0  0
    0.2190   22.1886   41.7966 H   0  0  0  0  0  0  0  0  0  0  0  0
    0.7334   19.8734   40.3475 H   0  0  0  0  0  0  0  0  0  0  0  0
   -0.1875   16.9033   45.0903 H   0  0  0  0  0  0  0  0  0  0  0  0
    0.0861   17.4826   38.4601 H   0  0  0  0  0  0  0  0  0  0  0  0
   -1.9690   20.2972   43.6860 H   0  0  0  0  0  0  0  0  0  0  0  0
    1.3779   16.4500   41.3254 H   0  0  0  0  0  0  0  0  0  0  0  0
   -0.6920   19.2919   46.8341 H   0  0  0  0  0  0  0  0  0  0  0  0
   -2.3313   19.2010   46.1054 H   0  0  0  0  0  0  0  0  0  0  0  0
   -1.4141   17.6941   46.4439 H   0  0  0  0  0  0  0  0  0  0  0  0
   -0.6110   17.1458   42.7237 H   0  0  0  0  0  0  0  0  0  0  0  0
    2.1686   15.4135   41.1254 H   0  0  0  0  0  0  0  0  0  0  0  0
    0.1337   18.7814   42.8635 H   0  0  0  0  0  0  0  0  0  0  0  0
    2.8505   13.3290   41.8694 H   0  0  0  0  0  0  0  0  0  0  0  0
  1 23  1  1
  1 17  1  0
  1 28  1  0
  2 15  1  0
  2 11  2  0
  4 26  1  0
  4 10  1  0
  6 21  2  3
  8 12  2  0
  8  2  1  0
  9 29  2  0
 10  5  2  0
 11 13  1  0
 11 16  1  0
 12 24  1  0
 14  6  1  0
 16  3  1  0
 17 24  1  0
 17 28  1  0
 18 22  2  3
 19  7  1  0
 19  5  1  0
 21 22  1  0
 22 25  1  0
 24 13  2  0
 26 18  1  0
 27 30  1  0
 27  4  2  0
 28 26  1  0
 29 20  1  6
 29  1  1  0
 30 19  2  0
  3 31  1  0
  3 32  1  0
  3 33  1  0
  5 34  1  0
  8 35  1  0
 10 36  1  0
 12 37  1  0
 13 38  1  0
 14 39  1  0
 17 40  1  6
 18 41  1  0
 20 42  1  0
 21 43  1  0
 23 44  1  0
 25 45  1  0
 25 46  1  0
 25 47  1  0
 26 48  1  6
 27 49  1  0
 28 50  1  6
 30 51  1  0
M  END
>  <mol_id>  (82) 
2026-09-18-6fnk-s0-n100-refligand-0084

>  <rmsd_to_ref>  (82) 


$$$$

     RDKit          3D

 18 17  0  0  0  0  0  0  0  0999 V2000
   -0.5569   19.5085   46.1254 N   0  0  0  0  0  0  0  0  0  0  0  0
    1.1887   19.1121   44.1307 C   0  0  0  0  0  0  0  0  0  0  0  0
    2.2211   17.3605   42.2448 S   0  0  0  0  0  0  0  0  0  0  0  0
    0.8586   17.6619   43.6345 C   0  0  0  0  0  0  0  0  0  0  0  0
    1.2162   16.0473   41.5005 C   0  0  0  0  0  0  0  0  0  0  0  0
   -0.1551   19.8516   44.6208 C   0  0  0  0  0  0  0  0  0  0  0  0
    0.2648   19.6253   46.7354 H   0  0  0  0  0  0  0  0  0  0  0  0
   -1.3067   20.1438   46.4339 H   0  0  0  0  0  0  0  0  0  0  0  0
   -0.8885   18.5347   46.1787 H   0  0  0  0  0  0  0  0  0  0  0  0
    1.6384   19.6847   43.3062 H   0  0  0  0  0  0  0  0  0  0  0  0
    1.8928   19.0514   44.9736 H   0  0  0  0  0  0  0  0  0  0  0  0
   -0.1563   17.6079   43.2135 H   0  0  0  0  0  0  0  0  0  0  0  0
    0.8796   16.9101   44.4372 H   0  0  0  0  0  0  0  0  0  0  0  0
    0.9843   15.2873   42.2612 H   0  0  0  0  0  0  0  0  0  0  0  0
    0.2802   16.4764   41.1137 H   0  0  0  0  0  0  0  0  0  0  0  0
    1.7747   15.5814   40.6752 H   0  0  0  0  0  0  0  0  0  0  0  0
   -0.0039   20.9382   44.5399 H   0  0  0  0  0  0  0  0  0  0  0  0
   -0.9735   19.4954   43.9779 H   0  0  0  0  0  0  0  0  0  0  0  0
  2  6  1  0
  3  4  1  0
  4  2  1  0
  5  3  1  0
  6  1  1  0
  1  7  1  0
  1  8  1  0
  1  9  1  0
  2 10  1  0
  2 11  1  0
  4 12  1  0
  4 13  1  0
  5 14  1  0
  5 15  1  0
  5 16  1  0
  6 17  1  0
  6 18  1  0
M  CHG  1   1   1
M  END
>  <mol_id>  (83) 
2026-09-18-6fnk-s0-n100-refligand-0085

>  <rmsd_to_ref>  (83) 


$$$$

     RDKit          3D

 44 47  0  0  0  0  0  0  0  0999 V2000
    1.1396   14.9571   42.2314 O   0  0  0  0  0  0  0  0  0  0  0  0
   -1.0322   19.9843   44.9555 N   0  0  0  0  0  0  0  0  0  0  0  0
    1.2234   17.1029   41.4756 O   0  0  0  0  0  0  0  0  0  0  0  0
   -0.5516   18.1897   45.6648 C   0  0  0  0  0  0  0  0  0  0  0  0
    0.9544   14.1042   41.0203 C   0  0  0  0  0  0  0  0  0  0  0  0
    1.9913   21.5817   38.8911 O   0  0  0  0  0  0  0  0  0  0  0  0
    1.9645   12.9193   41.1183 C   0  0  0  0  0  0  0  0  0  0  0  0
    2.0267   18.1803   39.8862 C   0  0  0  0  0  0  0  0  0  0  0  0
    0.8703   20.7486   40.7722 C   0  0  0  0  0  0  0  0  0  0  0  0
   -0.2315   16.8979   45.7761 C   0  0  0  0  0  0  0  0  0  0  0  0
    0.8316   16.2795   42.3083 C   0  0  0  0  0  0  0  0  0  0  0  0
   -0.9155   19.2584   46.3843 N   0  0  0  0  0  0  0  0  0  0  0  0
    2.2098   12.3349   39.7580 C   0  0  0  0  0  0  0  0  0  0  0  0
    1.6274   20.6150   39.5665 C   0  0  0  0  0  0  0  0  0  0  0  0
    2.2023   19.2993   39.1626 C   0  0  0  0  0  0  0  0  0  0  0  0
   -0.5304   20.8599   42.6843 O   0  0  0  0  0  0  0  0  0  0  0  0
    2.9910   19.3778   38.1042 O   0  0  0  0  0  0  0  0  0  0  0  0
    0.0652   18.3202   43.3861 C   0  0  0  0  0  0  0  0  0  0  0  0
    3.8850   13.6650   38.5090 C   0  0  0  0  0  0  0  0  0  0  0  0
    1.3068   18.3084   41.1363 C   0  0  0  0  0  0  0  0  0  0  0  0
    0.3262   16.9777   43.4349 C   0  0  0  0  0  0  0  0  0  0  0  0
    3.5300   12.4302   39.2132 O   0  0  0  0  0  0  0  0  0  0  0  0
    0.8042   19.4384   41.6152 C   0  0  0  0  0  0  0  0  0  0  0  0
   -0.6483   18.7903   44.4870 C   0  0  0  0  0  0  0  0  0  0  0  0
    0.1479   16.2795   44.6189 C   0  0  0  0  0  0  0  0  0  0  0  0
    0.0137   19.6823   42.5957 C   0  0  0  0  0  0  0  0  0  0  0  0
   -1.2804   20.9121   44.5832 H   0  0  0  0  0  0  0  0  0  0  0  0
   -0.0749   13.7177   40.9877 H   0  0  0  0  0  0  0  0  0  0  0  0
    1.1323   14.6886   40.1055 H   0  0  0  0  0  0  0  0  0  0  0  0
    2.9151   13.2853   41.5334 H   0  0  0  0  0  0  0  0  0  0  0  0
    1.5440   12.1418   41.7729 H   0  0  0  0  0  0  0  0  0  0  0  0
    2.4132   17.2091   39.5436 H   0  0  0  0  0  0  0  0  0  0  0  0
   -0.1557   21.0443   40.5077 H   0  0  0  0  0  0  0  0  0  0  0  0
    1.3771   21.5048   41.3897 H   0  0  0  0  0  0  0  0  0  0  0  0
   -0.2708   16.3660   46.7382 H   0  0  0  0  0  0  0  0  0  0  0  0
   -1.0540   19.4993   47.3761 H   0  0  0  0  0  0  0  0  0  0  0  0
    1.9539   11.2664   39.8102 H   0  0  0  0  0  0  0  0  0  0  0  0
    1.5896   12.9424   39.0824 H   0  0  0  0  0  0  0  0  0  0  0  0
   -1.1432   21.0669   43.4338 H   0  0  0  0  0  0  0  0  0  0  0  0
    3.0773   20.2333   37.6135 H   0  0  0  0  0  0  0  0  0  0  0  0
    4.0948   14.4578   39.2421 H   0  0  0  0  0  0  0  0  0  0  0  0
    4.7783   13.4910   37.8912 H   0  0  0  0  0  0  0  0  0  0  0  0
    3.0482   13.9733   37.8649 H   0  0  0  0  0  0  0  0  0  0  0  0
    0.3174   15.1927   44.6268 H   0  0  0  0  0  0  0  0  0  0  0  0
  1 11  1  0
  2 12  1  0
  3 11  1  0
  4 12  1  0
  5  1  1  0
  6 14  2  0
  7  5  1  0
  8 20  1  0
  9 23  1  0
 10  4  1  0
 11 21  2  0
 13  7  1  0
 14  9  1  0
 15  8  2  0
 15 14  1  0
 17 15  1  0
 18 24  1  0
 19 22  1  0
 20  3  1  0
 20 23  2  0
 21 18  1  0
 21 25  1  0
 22 13  1  0
 23 26  1  0
 24  2  1  0
 24  4  2  0
 25 10  2  0
 26 16  1  0
 26 18  2  0
  2 27  1  0
  5 28  1  0
  5 29  1  0
  7 30  1  0
  7 31  1  0
  8 32  1  0
  9 33  1  0
  9 34  1  0
 10 35  1  0
 12 36  1  0
 13 37  1  0
 13 38  1  0
 16 39  1  0
 17 40  1  0
 19 41  1  0
 19 42  1  0
 19 43  1  0
 25 44  1  0
M  END
>  <mol_id>  (84) 
2026-09-18-6fnk-s0-n100-refligand-0086

>  <rmsd_to_ref>  (84) 


$$$$

     RDKit          3D

 51 53  0  0  0  0  0  0  0  0999 V2000
   -0.1508   15.9450   45.5488 C   0  0  0  0  0  0  0  0  0  0  0  0
    1.2150   19.6512   42.1954 C   0  0  0  0  0  0  0  0  0  0  0  0
    2.7513   17.8015   39.0993 C   0  0  0  0  0  0  0  0  0  0  0  0
    0.4696   19.6728   43.5397 C   0  0  1  0  0  0  0  0  0  0  0  0
    1.8433   18.5714   41.3172 C   0  0  0  0  0  0  0  0  0  0  0  0
    1.0945   13.6034   44.7307 C   0  0  0  0  0  0  0  0  0  0  0  0
   -0.9583   19.5209   46.1873 O   0  0  0  0  0  0  0  0  0  0  0  0
    2.7210   14.3983   38.9119 C   0  0  2  0  0  0  0  0  0  0  0  0
    3.1687   15.0037   41.3525 C   0  0  0  0  0  0  0  0  0  0  0  0
    4.2413   20.7028   39.6983 C   0  0  0  0  0  0  0  0  0  0  0  0
   -0.4380   18.3327   45.5405 C   0  0  0  0  0  0  0  0  0  0  0  0
    0.7583   17.1732   43.6935 C   0  0  0  0  0  0  0  0  0  0  0  0
    0.5479   15.9343   44.3927 C   0  0  0  0  0  0  0  0  0  0  0  0
    4.2756   13.1208   40.1108 O   0  0  0  0  0  0  0  0  0  0  0  0
    3.1146   13.8739   40.3012 C   0  0  2  0  0  0  0  0  0  0  0  0
   -0.6019   21.8071   44.4789 N   0  0  0  0  0  0  0  0  0  0  0  0
    2.9636   20.2907   39.7354 C   0  0  0  0  0  0  0  0  0  0  0  0
    1.0649   14.7875   43.8954 O   0  0  0  0  0  0  0  0  0  0  0  0
    1.9924   17.1805   41.6137 N   0  0  0  0  0  0  0  0  0  0  0  0
    0.2755   18.3191   44.2570 C   0  0  0  0  0  0  0  0  0  0  0  0
    2.4111   16.1306   40.7931 C   0  0  1  0  0  0  0  0  0  0  0  0
   -0.6177   17.1316   46.1853 C   0  0  0  0  0  0  0  0  0  0  0  0
    1.1932   20.8667   41.7265 O   0  0  0  0  0  0  0  0  0  0  0  0
   -0.1815   20.7903   44.2021 C   0  0  0  0  0  0  0  0  0  0  0  0
    2.8978   18.0254   37.9795 O   0  0  0  0  0  0  0  0  0  0  0  0
    3.4298   15.5825   38.7137 O   0  0  0  0  0  0  0  0  0  0  0  0
    1.3092   14.5779   38.7847 O   0  0  0  0  0  0  0  0  0  0  0  0
    2.8363   16.5285   39.5431 N   0  0  0  0  0  0  0  0  0  0  0  0
    2.5055   18.8953   40.0624 C   0  0  2  0  0  0  0  0  0  0  0  0
   -0.3728   14.9799   46.0276 H   0  0  0  0  0  0  0  0  0  0  0  0
   -0.4854   19.5304   43.0126 H   0  0  0  0  0  0  0  0  0  0  0  0
    1.0562   13.9003   45.7892 H   0  0  0  0  0  0  0  0  0  0  0  0
    0.2278   12.9678   44.4965 H   0  0  0  0  0  0  0  0  0  0  0  0
    2.0219   13.0434   44.5402 H   0  0  0  0  0  0  0  0  0  0  0  0
   -0.8504   20.4060   45.7572 H   0  0  0  0  0  0  0  0  0  0  0  0
    2.9795   13.6655   38.1334 H   0  0  0  0  0  0  0  0  0  0  0  0
    2.7106   14.6682   42.2946 H   0  0  0  0  0  0  0  0  0  0  0  0
    4.2069   15.2926   41.5727 H   0  0  0  0  0  0  0  0  0  0  0  0
    4.4751   21.7481   39.4477 H   0  0  0  0  0  0  0  0  0  0  0  0
    5.0541   19.9952   39.9187 H   0  0  0  0  0  0  0  0  0  0  0  0
    1.2929   17.1969   42.7324 H   0  0  0  0  0  0  0  0  0  0  0  0
    4.7496   13.0212   40.9742 H   0  0  0  0  0  0  0  0  0  0  0  0
    2.3582   13.2116   40.7476 H   0  0  0  0  0  0  0  0  0  0  0  0
    2.1870   21.0356   39.5076 H   0  0  0  0  0  0  0  0  0  0  0  0
    2.6518   17.1607   42.4047 H   0  0  0  0  0  0  0  0  0  0  0  0
    0.9916   16.9390   41.6458 H   0  0  0  0  0  0  0  0  0  0  0  0
    1.4407   15.6255   40.6786 H   0  0  0  0  0  0  0  0  0  0  0  0
   -1.1097   17.0876   47.1682 H   0  0  0  0  0  0  0  0  0  0  0  0
    1.6242   21.0703   40.8588 H   0  0  0  0  0  0  0  0  0  0  0  0
    0.9298   14.8416   39.6603 H   0  0  0  0  0  0  0  0  0  0  0  0
    3.4737   18.6900   40.5426 H   0  0  0  0  0  0  0  0  0  0  0  0
  1 22  2  0
  2  4  1  0
  3 28  1  0
  3 29  1  0
  4 20  1  0
  4 24  1  0
  5  2  2  3
  8 27  1  0
  8 26  1  0
  8 15  1  0
 11 22  1  0
 11  7  1  0
 12 13  2  0
 12 20  1  0
 13  1  1  0
 15 14  1  0
 15  9  1  0
 17 10  2  3
 18  6  1  0
 18 13  1  0
 19  5  1  0
 20 11  2  0
 21  9  1  0
 21 19  1  0
 23  2  1  0
 24 16  3  0
 25  3  2  0
 26 28  1  0
 28 21  1  0
 29 17  1  0
 29  5  1  0
  1 30  1  0
  4 31  1  1
  6 32  1  0
  6 33  1  0
  6 34  1  0
  7 35  1  0
  8 36  1  6
  9 37  1  0
  9 38  1  0
 10 39  1  0
 10 40  1  0
 12 41  1  0
 14 42  1  0
 15 43  1  1
 17 44  1  0
 19 45  1  0
 19 46  1  0
 21 47  1  6
 22 48  1  0
 23 49  1  0
 27 50  1  0
 29 51  1  1
M  CHG  1  19   1
M  END
>  <mol_id>  (85) 
2026-09-18-6fnk-s0-n100-refligand-0087

>  <rmsd_to_ref>  (85) 


$$$$

     RDKit          3D

 30 32  0  0  0  0  0  0  0  0999 V2000
    0.7270   16.8693   43.8563 C   0  0  0  0  0  0  0  0  0  0  0  0
    3.3212   14.7155   42.7840 C   0  0  0  0  0  0  0  0  0  0  0  0
    2.5396   17.5925   42.6793 C   0  0  0  0  0  0  0  0  0  0  0  0
    2.0821   15.1353   43.1969 C   0  0  0  0  0  0  0  0  0  0  0  0
    0.2897   20.3239   43.9937 C   0  0  0  0  0  0  0  0  0  0  0  0
    1.2034   21.1825   43.3316 C   0  0  0  0  0  0  0  0  0  0  0  0
    2.0788   18.9322   43.0710 C   0  0  0  0  0  0  0  0  0  0  0  0
    2.3262   20.3361   42.8367 C   0  0  0  0  0  0  0  0  0  0  0  0
    1.6292   16.5316   42.7774 C   0  0  1  0  0  0  0  0  0  0  0  0
    0.3209   18.1424   44.1534 C   0  0  0  0  0  0  0  0  0  0  0  0
    4.0357   20.0438   41.3650 O   0  0  0  0  0  0  0  0  0  0  0  0
    4.3603   21.2071   43.1016 O   0  0  0  0  0  0  0  0  0  0  0  0
   -0.8074   18.7029   44.8762 C   0  0  0  0  0  0  0  0  0  0  0  0
   -0.7244   20.0993   44.6891 N   0  0  0  0  0  0  0  0  0  0  0  0
    0.8764   19.0095   43.8016 C   0  0  0  0  0  0  0  0  0  0  0  0
    3.6086   20.5273   42.2000 C   0  0  0  0  0  0  0  0  0  0  0  0
    3.2596   13.2568   43.1030 N   0  0  0  0  0  0  0  0  0  0  0  0
    1.2279   14.3567   43.5841 O   0  0  0  0  0  0  0  0  0  0  0  0
    1.2041   16.4890   44.7717 H   0  0  0  0  0  0  0  0  0  0  0  0
   -0.2122   16.4362   43.4819 H   0  0  0  0  0  0  0  0  0  0  0  0
    4.1235   15.2167   43.3455 H   0  0  0  0  0  0  0  0  0  0  0  0
    3.5424   14.9363   41.7293 H   0  0  0  0  0  0  0  0  0  0  0  0
    2.8627   17.6511   41.6294 H   0  0  0  0  0  0  0  0  0  0  0  0
    3.3277   17.3481   43.4068 H   0  0  0  0  0  0  0  0  0  0  0  0
    1.1025   22.2707   43.2065 H   0  0  0  0  0  0  0  0  0  0  0  0
    1.2768   16.4486   41.7386 H   0  0  0  0  0  0  0  0  0  0  0  0
   -1.5682   18.1534   45.4500 H   0  0  0  0  0  0  0  0  0  0  0  0
    2.7670   13.1214   43.9974 H   0  0  0  0  0  0  0  0  0  0  0  0
    2.7536   12.7627   42.3542 H   0  0  0  0  0  0  0  0  0  0  0  0
    4.2157   12.8809   43.1773 H   0  0  0  0  0  0  0  0  0  0  0  0
  1 10  1  0
  2 17  1  0
  2  4  1  0
  3  7  1  0
  3  9  1  0
  4 18  2  0
  5 14  2  0
  6  5  1  0
  7 15  2  0
  8  7  1  0
  8  6  2  0
  9  4  1  0
  9  1  1  0
 10 13  2  0
 11 16  2  0
 14 13  1  0
 15  5  1  0
 15 10  1  0
 16 12  1  0
 16  8  1  0
  1 19  1  0
  1 20  1  0
  2 21  1  0
  2 22  1  0
  3 23  1  0
  3 24  1  0
  6 25  1  0
  9 26  1  6
 13 27  1  0
 17 28  1  0
 17 29  1  0
 17 30  1  0
M  CHG  2  12  -1  17   1
M  END
>  <mol_id>  (86) 
2026-09-18-6fnk-s0-n100-refligand-0088

>  <rmsd_to_ref>  (86) 


$$$$

     RDKit          3D

 46 49  0  0  0  0  0  0  0  0999 V2000
    2.2445   17.6194   42.9561 C   0  0  0  0  0  0  0  0  0  0  0  0
    2.4823   10.3930   41.6498 N   0  0  0  0  0  0  0  0  0  0  0  0
    1.9786   20.3236   42.0811 C   0  0  0  0  0  0  0  0  0  0  0  0
    3.7982   16.2376   40.4603 O   0  0  0  0  0  0  0  0  0  0  0  0
    0.0250   19.5671   45.0356 C   0  0  0  0  0  0  0  0  0  0  0  0
    1.3638   17.9191   44.0100 C   0  0  0  0  0  0  0  0  0  0  0  0
   -0.4871   18.6106   45.9510 N   0  0  0  0  0  0  0  0  0  0  0  0
    0.9386   16.9979   44.9552 C   0  0  0  0  0  0  0  0  0  0  0  0
   -0.2858   21.0052   44.5477 O   0  0  0  0  0  0  0  0  0  0  0  0
    2.3822   11.7562   41.2169 C   0  0  0  0  0  0  0  0  0  0  0  0
    2.5392   16.2337   42.7229 N   0  0  0  0  0  0  0  0  0  0  0  0
    3.0915   16.8101   41.2454 C   0  0  0  0  0  0  0  0  0  0  0  0
    1.7257   12.3523   43.5685 C   0  0  0  0  0  0  0  0  0  0  0  0
    1.6986   13.3577   44.5379 C   0  0  0  0  0  0  0  0  0  0  0  0
    0.8865   19.2444   44.0520 C   0  0  0  0  0  0  0  0  0  0  0  0
    1.2091   20.1286   43.0394 C   0  0  0  0  0  0  0  0  0  0  0  0
   -0.0658   17.3591   45.8496 C   0  0  0  0  0  0  0  0  0  0  0  0
    2.9954   19.5163   41.3695 C   0  0  0  0  0  0  0  0  0  0  0  0
   -0.8291   16.1346   46.6032 C   0  0  0  0  0  0  0  0  0  0  0  0
    2.4655   14.9528   43.0309 C   0  0  1  0  0  0  0  0  0  0  0  0
    3.7235   20.2253   40.5359 O   0  0  0  0  0  0  0  0  0  0  0  0
    2.8617   13.9756   42.1055 C   0  0  0  0  0  0  0  0  0  0  0  0
    2.0674   14.6481   44.2700 C   0  0  0  0  0  0  0  0  0  0  0  0
    2.7870   18.1036   41.5955 C   0  0  0  0  0  0  0  0  0  0  0  0
    4.7959   21.0952   41.0542 C   0  0  0  0  0  0  0  0  0  0  0  0
    2.2882   12.7260   42.3292 C   0  0  0  0  0  0  0  0  0  0  0  0
    2.4170   10.3532   42.6770 H   0  0  0  0  0  0  0  0  0  0  0  0
    1.7156    9.8439   41.2355 H   0  0  0  0  0  0  0  0  0  0  0  0
    3.3864   10.0023   41.3479 H   0  0  0  0  0  0  0  0  0  0  0  0
    1.8800   21.3365   41.6634 H   0  0  0  0  0  0  0  0  0  0  0  0
    1.3887   15.9951   44.9979 H   0  0  0  0  0  0  0  0  0  0  0  0
    3.2738   11.9977   40.6197 H   0  0  0  0  0  0  0  0  0  0  0  0
    1.4527   11.8421   40.6351 H   0  0  0  0  0  0  0  0  0  0  0  0
    1.3363   11.3410   43.7576 H   0  0  0  0  0  0  0  0  0  0  0  0
    1.3683   13.1024   45.5557 H   0  0  0  0  0  0  0  0  0  0  0  0
    0.5245   20.9870   43.1064 H   0  0  0  0  0  0  0  0  0  0  0  0
   -0.6971   16.2341   47.6907 H   0  0  0  0  0  0  0  0  0  0  0  0
   -1.9014   16.1657   46.3596 H   0  0  0  0  0  0  0  0  0  0  0  0
   -0.4047   15.1766   46.2684 H   0  0  0  0  0  0  0  0  0  0  0  0
    1.4412   14.9158   42.6315 H   0  0  0  0  0  0  0  0  0  0  0  0
    2.5747   14.3141   41.0990 H   0  0  0  0  0  0  0  0  0  0  0  0
    3.9496   13.8535   42.2133 H   0  0  0  0  0  0  0  0  0  0  0  0
    2.0369   15.4168   45.0562 H   0  0  0  0  0  0  0  0  0  0  0  0
    4.8464   21.0023   42.1491 H   0  0  0  0  0  0  0  0  0  0  0  0
    5.7581   20.7920   40.6157 H   0  0  0  0  0  0  0  0  0  0  0  0
    4.5831   22.1401   40.7843 H   0  0  0  0  0  0  0  0  0  0  0  0
  1  6  1  0
  3 16  1  0
  4 12  2  0
  5  7  1  0
  6  8  2  0
  7 17  2  0
  8 17  1  0
  9  5  2  0
 10  2  1  0
 10 26  1  0
 11  1  1  0
 11 20  1  0
 12 24  1  0
 12 11  1  0
 13 14  1  0
 15  6  1  0
 15  5  1  0
 16 15  2  0
 17 19  1  0
 18 24  1  0
 18  3  2  0
 20 22  1  0
 20 23  1  0
 21 25  1  0
 21 18  1  0
 22 26  1  0
 23 14  2  0
 24  1  2  0
 26 13  2  0
  2 27  1  0
  2 28  1  0
  2 29  1  0
  3 30  1  0
  8 31  1  0
 10 32  1  0
 10 33  1  0
 13 34  1  0
 14 35  1  0
 16 36  1  0
 19 37  1  0
 19 38  1  0
 19 39  1  0
 20 40  1  6
 22 41  1  0
 22 42  1  0
 23 43  1  0
 25 44  1  0
 25 45  1  0
 25 46  1  0
M  CHG  1   2   1
M  END
>  <mol_id>  (87) 
2026-09-18-6fnk-s0-n100-refligand-0089

>  <rmsd_to_ref>  (87) 


$$$$

     RDKit          3D

 16 16  0  0  0  0  0  0  0  0999 V2000
    1.8973   19.9536   43.1657 C   0  0  0  0  0  0  0  0  0  0  0  0
    0.5378   18.3872   44.2997 C   0  0  0  0  0  0  0  0  0  0  0  0
    2.7823   19.0099   42.8266 C   0  0  0  0  0  0  0  0  0  0  0  0
    0.7138   19.6411   43.9125 C   0  0  0  0  0  0  0  0  0  0  0  0
    1.3807   17.3480   43.7080 C   0  0  0  0  0  0  0  0  0  0  0  0
   -0.3082   21.8516   43.4143 N   0  0  0  0  0  0  0  0  0  0  0  0
   -0.2565   20.7932   44.1961 C   0  0  0  0  0  0  0  0  0  0  0  0
    2.4998   17.6548   43.1179 C   0  0  0  0  0  0  0  0  0  0  0  0
   -0.9228   20.6663   45.1646 O   0  0  0  0  0  0  0  0  0  0  0  0
    2.0820   20.9953   42.8643 H   0  0  0  0  0  0  0  0  0  0  0  0
   -0.2254   18.1324   45.0498 H   0  0  0  0  0  0  0  0  0  0  0  0
    3.7219   19.2851   42.3253 H   0  0  0  0  0  0  0  0  0  0  0  0
    1.0652   16.2956   43.7622 H   0  0  0  0  0  0  0  0  0  0  0  0
   -0.9677   22.6145   43.6234 H   0  0  0  0  0  0  0  0  0  0  0  0
    0.3110   21.9165   42.5938 H   0  0  0  0  0  0  0  0  0  0  0  0
    3.2192   16.8676   42.8484 H   0  0  0  0  0  0  0  0  0  0  0  0
  1  4  2  0
  3  8  2  0
  3  1  1  0
  4  2  1  0
  4  7  1  0
  5  2  2  0
  6  7  1  0
  7  9  2  0
  8  5  1  0
  1 10  1  0
  2 11  1  0
  3 12  1  0
  5 13  1  0
  6 14  1  0
  6 15  1  0
  8 16  1  0
M  END
>  <mol_id>  (88) 
2026-09-18-6fnk-s0-n100-refligand-0090

>  <rmsd_to_ref>  (88) 


$$$$

     RDKit          3D

 26 28  0  0  0  0  0  0  0  0999 V2000
    3.1341   14.8060   39.9968 C   0  0  0  0  0  0  0  0  0  0  0  0
    2.5306   15.5535   42.2223 C   0  0  0  0  0  0  0  0  0  0  0  0
    2.4603   16.8411   41.7161 C   0  0  0  0  0  0  0  0  0  0  0  0
   -0.3108   19.6226   44.8284 C   0  0  0  0  0  0  0  0  0  0  0  0
    1.2166   20.5493   43.2383 N   0  0  0  0  0  0  0  0  0  0  0  0
   -0.6982   20.7146   45.1361 O   0  0  0  0  0  0  0  0  0  0  0  0
    1.0967   18.1053   43.5654 C   0  0  0  0  0  0  0  0  0  0  0  0
   -0.4736   17.2836   45.1316 C   0  0  0  0  0  0  0  0  0  0  0  0
    2.1130   17.9671   42.5195 C   0  0  0  0  0  0  0  0  0  0  0  0
    2.2095   20.3497   42.4121 C   0  0  0  0  0  0  0  0  0  0  0  0
    2.5649   16.9556   40.3039 C   0  0  0  0  0  0  0  0  0  0  0  0
   -0.8655   18.5001   45.4462 N   0  0  0  0  0  0  0  0  0  0  0  0
    2.7606   19.1749   42.1730 C   0  0  0  0  0  0  0  0  0  0  0  0
    2.9200   16.0267   39.5150 N   0  0  0  0  0  0  0  0  0  0  0  0
    0.5260   16.9940   44.2041 C   0  0  0  0  0  0  0  0  0  0  0  0
    2.7863   14.4865   41.2857 C   0  0  0  0  0  0  0  0  0  0  0  0
    0.7200   19.4034   43.8297 C   0  0  0  0  0  0  0  0  0  0  0  0
    3.5961   14.0422   39.3541 H   0  0  0  0  0  0  0  0  0  0  0  0
    2.3969   15.3528   43.2954 H   0  0  0  0  0  0  0  0  0  0  0  0
   -0.9678   16.4390   45.6341 H   0  0  0  0  0  0  0  0  0  0  0  0
    2.6142   21.2225   41.8786 H   0  0  0  0  0  0  0  0  0  0  0  0
    2.3176   17.9299   39.8571 H   0  0  0  0  0  0  0  0  0  0  0  0
    3.7490   19.1344   41.6920 H   0  0  0  0  0  0  0  0  0  0  0  0
    0.0923   16.3438   43.4301 H   0  0  0  0  0  0  0  0  0  0  0  0
    1.3399   16.5221   44.7742 H   0  0  0  0  0  0  0  0  0  0  0  0
    2.7039   13.4353   41.5988 H   0  0  0  0  0  0  0  0  0  0  0  0
  1 16  1  0
  3  2  1  0
  3  9  1  0
  4 12  1  0
  4  6  2  0
  5 17  1  0
  7 15  1  0
  7 17  2  0
  8 12  2  0
  9  7  1  0
 10  5  2  0
 11  3  2  0
 13  9  2  0
 13 10  1  0
 14  1  2  0
 14 11  1  0
 15  8  1  0
 16  2  2  0
 17  4  1  0
  1 18  1  0
  2 19  1  0
  8 20  1  0
 10 21  1  0
 11 22  1  0
 13 23  1  0
 15 24  1  0
 15 25  1  0
 16 26  1  0
M  END
>  <mol_id>  (89) 
2026-09-18-6fnk-s0-n100-refligand-0091

>  <rmsd_to_ref>  (89) 


$$$$

     RDKit          3D

 46 50  0  0  0  0  0  0  0  0999 V2000
    0.7861   16.4395   42.9789 C   0  0  1  0  0  0  0  0  0  0  0  0
   -0.5108   16.4932   45.4553 C   0  0  0  0  0  0  0  0  0  0  0  0
    3.4177   20.8730   39.0166 N   0  0  0  0  0  0  0  0  0  0  0  0
    1.5338   18.4012   41.9575 C   0  0  0  0  0  0  0  0  0  0  0  0
    1.1700   20.3907   43.0399 C   0  0  0  0  0  0  0  0  0  0  0  0
   -0.1677   17.7625   46.2589 C   0  0  0  0  0  0  0  0  0  0  0  0
    1.1692   15.4871   42.2964 C   0  0  0  0  0  0  0  0  0  0  0  0
    4.3052   21.3393   38.1764 C   0  0  0  0  0  0  0  0  0  0  0  0
    5.7552   21.7637   39.9795 C   0  0  0  0  0  0  0  0  0  0  0  0
    2.3699   18.8603   41.1657 C   0  0  0  0  0  0  0  0  0  0  0  0
   -0.5963   19.0819   45.2468 S   0  0  0  0  0  0  0  0  0  0  0  0
    2.6039   20.2224   41.2449 C   0  0  0  0  0  0  0  0  0  0  0  0
    4.7597   21.3146   40.8583 C   0  0  0  0  0  0  0  0  0  0  0  0
    0.4664   18.4305   44.0007 C   0  0  1  0  0  0  0  0  0  0  0  0
    3.5505   20.8393   40.3803 C   0  0  0  0  0  0  0  0  0  0  0  0
    1.4857   14.0211   42.9529 C   0  0  1  0  0  0  0  0  0  0  0  0
    0.2937   16.1461   44.3220 C   0  0  2  0  0  0  0  0  0  0  0  0
    0.3946   21.0877   43.8611 O   0  0  0  0  0  0  0  0  0  0  0  0
    2.4177   11.0566   43.0087 O   0  0  0  0  0  0  0  0  0  0  0  0
    0.7674   17.1508   43.8093 C   0  0  1  0  0  0  0  0  0  0  0  0
    0.1277   11.1196   42.7166 O   0  0  0  0  0  0  0  0  0  0  0  0
    1.4653   11.7399   42.6425 C   0  0  0  0  0  0  0  0  0  0  0  0
    5.5001   21.7788   38.6661 N   0  0  0  0  0  0  0  0  0  0  0  0
    0.4745   14.1150   44.3871 S   0  0  0  0  0  0  0  0  0  0  0  0
    1.5899   13.0048   41.9012 C   0  0  0  0  0  0  0  0  0  0  0  0
    1.0439   19.0837   42.9760 C   0  0  0  0  0  0  0  0  0  0  0  0
    1.9634   21.0611   42.1802 C   0  0  0  0  0  0  0  0  0  0  0  0
    0.8269   16.7428   41.9223 H   0  0  0  0  0  0  0  0  0  0  0  0
   -0.4624   15.6462   46.1556 H   0  0  0  0  0  0  0  0  0  0  0  0
   -1.4955   16.7172   45.0191 H   0  0  0  0  0  0  0  0  0  0  0  0
    1.1814   17.3707   41.8033 H   0  0  0  0  0  0  0  0  0  0  0  0
   -0.7459   17.7927   47.1941 H   0  0  0  0  0  0  0  0  0  0  0  0
    0.8962   17.7924   46.5367 H   0  0  0  0  0  0  0  0  0  0  0  0
    0.3930   15.3223   41.5345 H   0  0  0  0  0  0  0  0  0  0  0  0
    2.1687   15.8183   41.9782 H   0  0  0  0  0  0  0  0  0  0  0  0
    4.0924   21.3764   37.0979 H   0  0  0  0  0  0  0  0  0  0  0  0
    6.7302   22.0985   40.3633 H   0  0  0  0  0  0  0  0  0  0  0  0
    2.8961   18.2214   40.4412 H   0  0  0  0  0  0  0  0  0  0  0  0
    4.9418   21.3401   41.9428 H   0  0  0  0  0  0  0  0  0  0  0  0
    1.3404   18.6485   44.6322 H   0  0  0  0  0  0  0  0  0  0  0  0
    2.4424   13.6703   43.3674 H   0  0  0  0  0  0  0  0  0  0  0  0
    0.4864   22.0722   43.9122 H   0  0  0  0  0  0  0  0  0  0  0  0
    1.5795   17.8429   44.0765 H   0  0  0  0  0  0  0  0  0  0  0  0
    0.7785   13.1130   41.1664 H   0  0  0  0  0  0  0  0  0  0  0  0
    2.5232   13.0761   41.3234 H   0  0  0  0  0  0  0  0  0  0  0  0
    2.0974   22.1526   42.2060 H   0  0  0  0  0  0  0  0  0  0  0  0
  1  7  1  0
  1 20  1  0
  1 17  1  0
  2  6  1  0
  3 15  2  0
  4 26  1  0
  5 26  2  0
  5 18  1  0
  7 16  1  0
  8 23  2  0
  8  3  1  0
  9 13  2  0
 10  4  2  0
 11  6  1  0
 12 10  1  0
 12 27  2  0
 14 26  1  0
 14 11  1  0
 15 13  1  0
 15 12  1  0
 16 25  1  0
 16 24  1  0
 17 24  1  1
 17  2  1  0
 20 14  1  0
 20 17  1  0
 22 21  2  0
 22 19  1  0
 23  9  1  0
 25 22  1  0
 27  5  1  0
  1 28  1  6
  2 29  1  0
  2 30  1  0
  4 31  1  0
  6 32  1  0
  6 33  1  0
  7 34  1  0
  7 35  1  0
  8 36  1  0
  9 37  1  0
 10 38  1  0
 13 39  1  0
 14 40  1  1
 16 41  1  1
 18 42  1  0
 20 43  1  1
 25 44  1  0
 25 45  1  0
 27 46  1  0
M  CHG  1  19  -1
M  END
>  <mol_id>  (90) 
2026-09-18-6fnk-s0-n100-refligand-0092

>  <rmsd_to_ref>  (90) 


$$$$

     RDKit          3D

 19 21  0  0  0  0  0  0  0  0999 V2000
    1.4966   19.1694   42.3977 C   0  0  0  0  0  0  0  0  0  0  0  0
    0.2074   18.2741   45.4030 N   0  0  0  0  0  0  0  0  0  0  0  0
   -0.0003   19.4120   44.7031 C   0  0  0  0  0  0  0  0  0  0  0  0
   -0.4956   17.0819   45.1329 C   0  0  0  0  0  0  0  0  0  0  0  0
    0.9074   17.1800   44.8808 C   0  0  0  0  0  0  0  0  0  0  0  0
    0.9953   21.4388   42.1781 N   0  0  0  0  0  0  0  0  0  0  0  0
    0.4336   19.7688   43.5751 C   0  0  0  0  0  0  0  0  0  0  0  0
    1.6841   20.2577   41.6848 C   0  0  0  0  0  0  0  0  0  0  0  0
   -0.5054   21.4753   44.2747 N   0  0  0  0  0  0  0  0  0  0  0  0
   -0.8106   20.4948   45.1060 N   0  0  0  0  0  0  0  0  0  0  0  0
    0.3074   21.0139   43.2416 C   0  0  0  0  0  0  0  0  0  0  0  0
    1.9107   18.1587   42.2677 H   0  0  0  0  0  0  0  0  0  0  0  0
   -0.8660   16.4592   45.9606 H   0  0  0  0  0  0  0  0  0  0  0  0
   -1.3811   16.8125   44.5386 H   0  0  0  0  0  0  0  0  0  0  0  0
    1.6201   16.6299   45.5127 H   0  0  0  0  0  0  0  0  0  0  0  0
    1.5553   17.0147   44.0074 H   0  0  0  0  0  0  0  0  0  0  0  0
    2.3143   20.2735   40.7834 H   0  0  0  0  0  0  0  0  0  0  0  0
   -0.8251   22.4491   44.3766 H   0  0  0  0  0  0  0  0  0  0  0  0
   -1.4910   20.5160   45.8790 H   0  0  0  0  0  0  0  0  0  0  0  0
  1  7  1  0
  3 10  1  0
  3  2  1  0
  4  2  1  0
  5  4  1  0
  5  2  1  0
  6 11  2  0
  7  3  2  0
  8  6  1  0
  8  1  2  0
  9 10  1  0
 11  7  1  0
 11  9  1  0
  1 12  1  0
  4 13  1  0
  4 14  1  0
  5 15  1  0
  5 16  1  0
  8 17  1  0
  9 18  1  0
 10 19  1  0
M  END
>  <mol_id>  (91) 
2026-09-18-6fnk-s0-n100-refligand-0093

>  <rmsd_to_ref>  (91) 


$$$$

     RDKit          3D

 14 14  0  0  0  0  0  0  0  0999 V2000
    2.5776   18.5377   42.7969 N   0  0  0  0  0  0  0  0  0  0  0  0
   -0.7727   20.3346   44.9521 N   0  0  0  0  0  0  0  0  0  0  0  0
   -0.0028   18.3624   45.4642 N   0  0  0  0  0  0  0  0  0  0  0  0
    2.5076   19.6539   42.1732 C   0  0  0  0  0  0  0  0  0  0  0  0
   -0.2868   21.5784   44.5161 O   0  0  0  0  0  0  0  0  0  0  0  0
    1.8624   18.4022   43.7145 N   0  0  0  0  0  0  0  0  0  0  0  0
    1.6549   20.4318   42.7253 N   0  0  0  0  0  0  0  0  0  0  0  0
    1.0669   19.7134   43.7327 C   0  0  0  0  0  0  0  0  0  0  0  0
    0.0231   19.4363   44.7277 C   0  0  0  0  0  0  0  0  0  0  0  0
    3.2304   17.7960   42.5061 H   0  0  0  0  0  0  0  0  0  0  0  0
   -1.6874   20.1974   45.4051 H   0  0  0  0  0  0  0  0  0  0  0  0
   -0.7622   18.2237   46.1460 H   0  0  0  0  0  0  0  0  0  0  0  0
    3.1006   19.9095   41.2827 H   0  0  0  0  0  0  0  0  0  0  0  0
   -0.2440   22.2032   45.2829 H   0  0  0  0  0  0  0  0  0  0  0  0
  1  6  1  0
  4  1  1  0
  4  7  2  0
  5  2  1  0
  6  8  2  0
  7  8  1  0
  8  9  1  0
  9  3  2  3
  9  2  1  0
  1 10  1  0
  2 11  1  0
  3 12  1  0
  4 13  1  0
  5 14  1  0
M  END
>  <mol_id>  (92) 
2026-09-18-6fnk-s0-n100-refligand-0094

>  <rmsd_to_ref>  (92) 


$$$$

     RDKit          3D

 32 35  0  0  0  0  0  0  0  0999 V2000
    2.0449   20.8132   39.8179 C   0  0  0  0  0  0  0  0  0  0  0  0
    0.0125   19.3407   44.9831 C   0  0  0  0  0  0  0  0  0  0  0  0
    0.4292   18.1428   44.3562 C   0  0  0  0  0  0  0  0  0  0  0  0
    1.7880   18.7936   42.3050 N   0  0  0  0  0  0  0  0  0  0  0  0
    5.2792   21.9635   41.4366 C   0  0  0  0  0  0  0  0  0  0  0  0
    4.0981   21.4680   40.6989 C   0  0  0  0  0  0  0  0  0  0  0  0
    4.2937   21.7452   38.9846 S   0  0  0  0  0  0  0  0  0  0  0  0
    0.1432   16.8491   44.9876 C   0  0  0  0  0  0  0  0  0  0  0  0
   -0.4845   16.7891   46.2546 C   0  0  0  0  0  0  0  0  0  0  0  0
    2.7240   21.2787   38.6014 C   0  0  0  0  0  0  0  0  0  0  0  0
    1.0045   20.9825   43.1344 C   0  0  0  0  0  0  0  0  0  0  0  0
    5.6590   22.4737   42.5707 C   0  0  0  0  0  0  0  0  0  0  0  0
    1.1479   17.8272   43.1328 C   0  0  0  0  0  0  0  0  0  0  0  0
   -0.7897   18.0253   46.8063 C   0  0  0  0  0  0  0  0  0  0  0  0
    0.5895   15.7248   44.1491 C   0  0  0  0  0  0  0  0  0  0  0  0
    2.7050   20.7540   41.0477 C   0  0  0  0  0  0  0  0  0  0  0  0
   -0.5507   19.2638   46.1678 N   0  0  0  0  0  0  0  0  0  0  0  0
    0.2368   20.7111   44.2905 C   0  0  0  0  0  0  0  0  0  0  0  0
    1.2241   16.3633   42.9703 C   0  0  0  0  0  0  0  0  0  0  0  0
    1.7250   20.1427   42.2239 C   0  0  0  0  0  0  0  0  0  0  0  0
    0.9909   20.5036   39.7591 H   0  0  0  0  0  0  0  0  0  0  0  0
    6.1614   21.8640   40.7873 H   0  0  0  0  0  0  0  0  0  0  0  0
   -0.7121   15.8395   46.7611 H   0  0  0  0  0  0  0  0  0  0  0  0
    2.2762   21.3163   37.5974 H   0  0  0  0  0  0  0  0  0  0  0  0
    1.0596   22.0522   42.8839 H   0  0  0  0  0  0  0  0  0  0  0  0
    6.7177   22.7232   42.7344 H   0  0  0  0  0  0  0  0  0  0  0  0
    4.9216   22.6558   43.3663 H   0  0  0  0  0  0  0  0  0  0  0  0
   -1.2476   18.0427   47.8063 H   0  0  0  0  0  0  0  0  0  0  0  0
    0.4772   14.6495   44.3518 H   0  0  0  0  0  0  0  0  0  0  0  0
   -0.8267   20.1332   46.6463 H   0  0  0  0  0  0  0  0  0  0  0  0
   -0.2612   21.5751   44.7545 H   0  0  0  0  0  0  0  0  0  0  0  0
    1.6756   15.8340   42.1182 H   0  0  0  0  0  0  0  0  0  0  0  0
  1 16  1  0
  2 17  1  0
  3  2  2  0
  3  8  1  0
  4 13  1  0
  5 12  2  3
  6 16  2  0
  6  5  1  0
  7  6  1  0
  8  9  1  0
  9 14  2  0
 10  7  1  0
 10  1  2  0
 11 18  2  0
 13  3  1  0
 15  8  2  0
 16 20  1  0
 17 14  1  0
 18  2  1  0
 19 13  2  0
 19 15  1  0
 20  4  2  0
 20 11  1  0
  1 21  1  0
  5 22  1  0
  9 23  1  0
 10 24  1  0
 11 25  1  0
 12 26  1  0
 12 27  1  0
 14 28  1  0
 15 29  1  0
 17 30  1  0
 18 31  1  0
 19 32  1  0
M  END
>  <mol_id>  (93) 
2026-09-18-6fnk-s0-n100-refligand-0095

>  <rmsd_to_ref>  (93) 


$$$$

     RDKit          3D

 26 26  0  0  0  0  0  0  0  0999 V2000
    1.1155   16.2035   45.4291 S   0  0  0  0  0  0  0  0  0  0  0  0
   -0.5912   18.0930   45.9684 C   0  0  0  0  0  0  0  0  0  0  0  0
    4.3009   15.6108   39.2634 O   0  0  0  0  0  0  0  0  0  0  0  0
    3.2204   15.7008   41.3354 C   0  0  0  0  0  0  0  0  0  0  0  0
    2.8322   18.1158   41.9160 C   0  0  0  0  0  0  0  0  0  0  0  0
   -0.1108   18.9102   44.7730 C   0  0  0  0  0  0  0  0  0  0  0  0
    3.7022   17.1449   41.6949 C   0  0  0  0  0  0  0  0  0  0  0  0
    0.8397   18.5931   43.8620 C   0  0  0  0  0  0  0  0  0  0  0  0
   -0.5307   16.6387   45.7950 C   0  0  0  0  0  0  0  0  0  0  0  0
   -0.7693   19.9188   44.6898 O   0  0  0  0  0  0  0  0  0  0  0  0
    4.3985   15.2033   40.6092 C   0  0  0  0  0  0  0  0  0  0  0  0
    1.2074   19.6920   42.8072 C   0  0  0  0  0  0  0  0  0  0  0  0
    0.5458   20.7530   42.5760 N   0  0  0  0  0  0  0  0  0  0  0  0
    2.2988   19.3719   41.9218 C   0  0  0  0  0  0  0  0  0  0  0  0
    5.6079   15.0876   40.9230 O   0  0  0  0  0  0  0  0  0  0  0  0
    1.4836   17.2422   43.9470 C   0  0  0  0  0  0  0  0  0  0  0  0
    0.0323   18.3586   46.8349 H   0  0  0  0  0  0  0  0  0  0  0  0
   -1.6548   18.3408   46.0999 H   0  0  0  0  0  0  0  0  0  0  0  0
    3.0159   15.1040   42.2365 H   0  0  0  0  0  0  0  0  0  0  0  0
    2.2785   15.6576   40.7689 H   0  0  0  0  0  0  0  0  0  0  0  0
    4.7796   17.3556   41.7647 H   0  0  0  0  0  0  0  0  0  0  0  0
   -1.1891   16.3343   44.9680 H   0  0  0  0  0  0  0  0  0  0  0  0
   -0.8631   16.1320   46.7131 H   0  0  0  0  0  0  0  0  0  0  0  0
    0.8711   21.4168   41.8588 H   0  0  0  0  0  0  0  0  0  0  0  0
    2.7030   20.1424   41.2487 H   0  0  0  0  0  0  0  0  0  0  0  0
    2.1534   16.8813   43.1525 H   0  0  0  0  0  0  0  0  0  0  0  0
  1  9  1  0
  3 11  2  0
  4  7  1  0
  5 14  2  0
  6 10  2  0
  6  2  1  0
  7  5  2  0
  8  6  1  0
  9  2  1  0
 11 15  1  0
 11  4  1  0
 12  8  1  0
 13 12  2  3
 14 12  1  0
 16  8  2  0
 16  1  1  0
  2 17  1  0
  2 18  1  0
  4 19  1  0
  4 20  1  0
  7 21  1  0
  9 22  1  0
  9 23  1  0
 13 24  1  0
 14 25  1  0
 16 26  1  0
M  CHG  1  15  -1
M  END
>  <mol_id>  (94) 
2026-09-18-6fnk-s0-n100-refligand-0098

>  <rmsd_to_ref>  (94) 


$$$$

     RDKit          3D

 32 32  0  0  0  0  0  0  0  0999 V2000
    3.0476   15.1901   41.4706 C   0  0  0  0  0  0  0  0  0  0  0  0
   -1.1555   20.1567   44.9220 N   0  0  0  0  0  0  0  0  0  0  0  0
    1.6698   20.9628   41.1756 N   0  0  0  0  0  0  0  0  0  0  0  0
    1.4386   17.3023   42.4059 C   0  0  0  0  0  0  0  0  0  0  0  0
    0.3227   19.0152   43.4101 C   0  0  0  0  0  0  0  0  0  0  0  0
    1.2316   18.5345   42.3425 N   0  0  0  0  0  0  0  0  0  0  0  0
   -0.4625   20.1357   43.8174 C   0  0  0  0  0  0  0  0  0  0  0  0
    2.0821   16.4037   41.2728 C   0  0  0  0  0  0  0  0  0  0  0  0
    2.8102   21.0836   41.3666 O   0  0  0  0  0  0  0  0  0  0  0  0
    1.2087   15.6489   44.0058 O   0  0  0  0  0  0  0  0  0  0  0  0
    0.9469   16.8592   43.5620 C   0  0  1  0  0  0  0  0  0  0  0  0
    0.1983   17.9005   44.1674 C   0  0  0  0  0  0  0  0  0  0  0  0
    3.2682   14.3939   40.1918 C   0  0  0  0  0  0  0  0  0  0  0  0
   -1.2393   19.0211   45.6651 C   0  0  0  0  0  0  0  0  0  0  0  0
    0.7489   21.3387   41.8312 O   0  0  0  0  0  0  0  0  0  0  0  0
    2.7069   12.9981   39.9932 C   0  0  0  0  0  0  0  0  0  0  0  0
   -0.5764   17.8817   45.3386 C   0  0  0  0  0  0  0  0  0  0  0  0
    4.0194   15.5681   41.8208 H   0  0  0  0  0  0  0  0  0  0  0  0
    2.5829   14.5147   42.2040 H   0  0  0  0  0  0  0  0  0  0  0  0
   -0.4842   21.0237   43.1686 H   0  0  0  0  0  0  0  0  0  0  0  0
    2.6374   17.1067   40.6345 H   0  0  0  0  0  0  0  0  0  0  0  0
    1.1827   15.8629   40.9434 H   0  0  0  0  0  0  0  0  0  0  0  0
    1.1044   15.6286   44.9901 H   0  0  0  0  0  0  0  0  0  0  0  0
    0.0597   16.4750   43.0374 H   0  0  0  0  0  0  0  0  0  0  0  0
    2.8581   15.0069   39.3757 H   0  0  0  0  0  0  0  0  0  0  0  0
    4.3499   14.1983   40.2318 H   0  0  0  0  0  0  0  0  0  0  0  0
   -1.8694   19.0254   46.5667 H   0  0  0  0  0  0  0  0  0  0  0  0
   -0.1777   21.1572   41.5333 H   0  0  0  0  0  0  0  0  0  0  0  0
    2.4162   12.5778   40.9673 H   0  0  0  0  0  0  0  0  0  0  0  0
    1.8253   13.0474   39.3373 H   0  0  0  0  0  0  0  0  0  0  0  0
    3.4723   12.3574   39.5312 H   0  0  0  0  0  0  0  0  0  0  0  0
   -0.6434   16.9807   45.9661 H   0  0  0  0  0  0  0  0  0  0  0  0
  2 14  2  0
  3  9  2  0
  3 15  1  0
  4 11  1  0
  5  7  2  0
  5 12  1  0
  6  4  2  0
  6  5  1  0
  7  2  1  0
  8  1  1  0
  8  4  1  0
 11 10  1  0
 11 12  1  0
 12 17  2  0
 13  1  1  0
 16 13  1  0
 17 14  1  0
  1 18  1  0
  1 19  1  0
  7 20  1  0
  8 21  1  0
  8 22  1  0
 10 23  1  0
 11 24  1  6
 13 25  1  0
 13 26  1  0
 14 27  1  0
 15 28  1  0
 16 29  1  0
 16 30  1  0
 16 31  1  0
 17 32  1  0
M  END
>  <mol_id>  (95) 
2026-09-18-6fnk-s0-n100-refligand-0099

>  <rmsd_to_ref>  (95) 


$$$$

     RDKit          3D

 27 27  0  0  0  0  0  0  0  0999 V2000
    1.0851   19.1073   44.8088 F   0  0  0  0  0  0  0  0  0  0  0  0
    3.4174   20.5502   41.6068 F   0  0  0  0  0  0  0  0  0  0  0  0
    1.6008   20.1938   42.2625 C   0  0  0  0  0  0  0  0  0  0  0  0
    1.1502   17.9160   40.7723 C   0  0  0  0  0  0  0  0  0  0  0  0
   -1.1537   18.6001   44.6227 C   0  0  0  0  0  0  0  0  0  0  0  0
    0.4492   17.0115   42.7152 O   0  0  0  0  0  0  0  0  0  0  0  0
    0.3036   19.2940   42.6664 C   0  0  2  0  0  0  0  0  0  0  0  0
   -1.6491   18.7147   45.5546 O   0  0  0  0  0  0  0  0  0  0  0  0
    0.0383   19.4332   44.0806 C   0  0  0  0  0  0  0  0  0  0  0  0
    0.8553   18.0938   42.0780 C   0  0  2  0  0  0  0  0  0  0  0  0
    1.9042   18.4275   39.8566 C   0  0  0  0  0  0  0  0  0  0  0  0
   -0.2514   20.6749   44.4813 F   0  0  0  0  0  0  0  0  0  0  0  0
    2.6926   19.3271   40.3347 N   0  0  0  0  0  0  0  0  0  0  0  0
    2.5554   19.9554   41.4657 C   0  0  1  0  0  0  0  0  0  0  0  0
    1.1658   21.1298   41.8822 H   0  0  0  0  0  0  0  0  0  0  0  0
    2.1631   20.0519   43.1973 H   0  0  0  0  0  0  0  0  0  0  0  0
    1.4736   16.8647   40.7613 H   0  0  0  0  0  0  0  0  0  0  0  0
    0.2703   18.4872   40.4412 H   0  0  0  0  0  0  0  0  0  0  0  0
   -1.5276   17.8001   43.9669 H   0  0  0  0  0  0  0  0  0  0  0  0
    0.4496   17.1830   43.6902 H   0  0  0  0  0  0  0  0  0  0  0  0
   -0.7270   19.4822   42.3309 H   0  0  0  0  0  0  0  0  0  0  0  0
    1.9071   18.3656   42.2507 H   0  0  0  0  0  0  0  0  0  0  0  0
    1.2674   18.8853   39.0853 H   0  0  0  0  0  0  0  0  0  0  0  0
    2.5213   17.6220   39.4320 H   0  0  0  0  0  0  0  0  0  0  0  0
    3.6146   18.8716   40.3919 H   0  0  0  0  0  0  0  0  0  0  0  0
    2.4841   20.0986   39.6851 H   0  0  0  0  0  0  0  0  0  0  0  0
    2.0038   19.0708   41.8168 H   0  0  0  0  0  0  0  0  0  0  0  0
  3  7  1  0
  4 10  1  0
  5  8  2  0
  7  9  1  0
  9 12  1  0
  9  5  1  0
  9  1  1  0
 10  7  1  0
 10  6  1  0
 11 13  1  0
 11  4  1  0
 13 14  1  0
 14  2  1  0
 14  3  1  0
  3 15  1  0
  3 16  1  0
  4 17  1  0
  4 18  1  0
  5 19  1  0
  6 20  1  0
  7 21  1  6
 10 22  1  1
 11 23  1  0
 11 24  1  0
 13 25  1  0
 13 26  1  0
 14 27  1  1
M  CHG  1  13   1
M  END
>  <mol_id>  (96) 
2026-09-18-6fnk-s0-n100-refligand-0100

>  <rmsd_to_ref>  (96) 


$$$$
