6fnk.A
     RDKit          3D

 27 29  0  0  0  0  0  0  0  0999 V2000
    2.9034   16.1161   40.7342 C   0  0  0  0  0  0  0  0  0  0  0  0
    3.3991   14.8730   40.3406 C   0  0  0  0  0  0  0  0  0  0  0  0
    3.2111   13.7637   41.1521 C   0  0  0  0  0  0  0  0  0  0  0  0
    2.5220   13.8922   42.3612 N   0  0  0  0  0  0  0  0  0  0  0  0
    2.0259   15.1442   42.7552 C   0  0  0  0  0  0  0  0  0  0  0  0
    2.2158   16.2597   41.9417 C   0  0  0  0  0  0  0  0  0  0  0  0
    1.7222   17.5068   42.3382 C   0  0  0  0  0  0  0  0  0  0  0  0
    2.0408   18.6212   41.6654 N   0  0  0  0  0  0  0  0  0  0  0  0
    0.9145   17.5957   43.3997 N   0  0  0  0  0  0  0  0  0  0  0  0
    0.4272   18.7780   43.8163 C   0  0  0  0  0  0  0  0  0  0  0  0
   -0.3708   19.1111   44.8422 N   0  0  0  0  0  0  0  0  0  0  0  0
   -0.9468   18.1844   45.8212 C   0  0  0  0  0  0  0  0  0  0  0  0
   -0.5738   20.3259   44.8557 N   0  0  0  0  0  0  0  0  0  0  0  0
    0.0681   20.8526   43.7999 C   0  0  0  0  0  0  0  0  0  0  0  0
    0.7283   19.8866   43.1473 C   0  0  0  0  0  0  0  0  0  0  0  0
    1.5428   19.8079   42.0593 C   0  0  0  0  0  0  0  0  0  0  0  0
    1.8732   20.9182   41.3561 N   0  0  0  0  0  0  0  0  0  0  0  0
    3.0555   16.9924   40.0870 H   0  0  0  0  0  0  0  0  0  0  0  0
    3.9387   14.7724   39.3873 H   0  0  0  0  0  0  0  0  0  0  0  0
    3.6041   12.7836   40.8441 H   0  0  0  0  0  0  0  0  0  0  0  0
    1.4860   15.2454   43.7082 H   0  0  0  0  0  0  0  0  0  0  0  0
   -0.7252   18.5408   46.8380 H   0  0  0  0  0  0  0  0  0  0  0  0
   -2.0365   18.1326   45.6801 H   0  0  0  0  0  0  0  0  0  0  0  0
   -0.5109   17.1844   45.6801 H   0  0  0  0  0  0  0  0  0  0  0  0
    0.0539   21.9149   43.5146 H   0  0  0  0  0  0  0  0  0  0  0  0
    1.5034   21.8366   41.6400 H   0  0  0  0  0  0  0  0  0  0  0  0
    2.4942   20.8437   40.5377 H   0  0  0  0  0  0  0  0  0  0  0  0
  1  2  2  0
  1  6  1  0
  2  3  1  0
  3  4  2  0
  4  5  1  0
  5  6  2  0
  6  7  1  0
  7  8  2  0
  7  9  1  0
  8 16  1  0
  9 10  2  0
 10 11  1  0
 10 15  1  0
 11 12  1  0
 11 13  1  0
 13 14  2  0
 14 15  1  0
 15 16  2  0
 16 17  1  0
  1 18  1  0
  2 19  1  0
  3 20  1  0
  5 21  1  0
 12 22  1  0
 12 23  1  0
 12 24  1  0
 14 25  1  0
 17 26  1  0
 17 27  1  0
M  END
>  <mol_id>  (1) 
2026-09-17-6fnk-s0-n100-0001

>  <rmsd_to_ref>  (1) 
0.0

>  <pose_kind>  (1) 
native

$$$$
6fnk.A
     RDKit          3D

 27 29  0  0  0  0  0  0  0  0999 V2000
    3.2006   15.8898   41.3722 C   0  0  0  0  0  0  0  0  0  0  0  0
    3.5201   14.6075   40.9717 C   0  0  0  0  0  0  0  0  0  0  0  0
    2.7884   13.5722   41.5632 C   0  0  0  0  0  0  0  0  0  0  0  0
    1.8414   13.8116   42.4584 N   0  0  0  0  0  0  0  0  0  0  0  0
    1.5537   15.0596   42.8268 C   0  0  0  0  0  0  0  0  0  0  0  0
    2.2125   16.1466   42.3068 C   0  0  0  0  0  0  0  0  0  0  0  0
    1.9244   17.5246   42.6862 C   0  0  0  0  0  0  0  0  0  0  0  0
    2.6027   18.5572   42.1438 N   0  0  0  0  0  0  0  0  0  0  0  0
    0.9624   17.7775   43.5964 N   0  0  0  0  0  0  0  0  0  0  0  0
    0.6648   19.0542   43.9763 C   0  0  0  0  0  0  0  0  0  0  0  0
   -0.2203   19.5891   44.8384 N   0  0  0  0  0  0  0  0  0  0  0  0
   -1.1786   18.8463   45.6635 C   0  0  0  0  0  0  0  0  0  0  0  0
   -0.0770   20.9044   44.8138 N   0  0  0  0  0  0  0  0  0  0  0  0
    0.8801   21.2657   43.9587 C   0  0  0  0  0  0  0  0  0  0  0  0
    1.3686   20.0982   43.4112 C   0  0  0  0  0  0  0  0  0  0  0  0
    2.3559   19.8400   42.4773 C   0  0  0  0  0  0  0  0  0  0  0  0
    3.1074   20.8939   41.8689 N   0  0  0  0  0  0  0  0  0  0  0  0
    3.7485   16.7209   40.9338 H   0  0  0  0  0  0  0  0  0  0  0  0
    4.2957   14.4125   40.2387 H   0  0  0  0  0  0  0  0  0  0  0  0
    3.0597   12.5695   41.2302 H   0  0  0  0  0  0  0  0  0  0  0  0
    0.7787   15.2051   43.5551 H   0  0  0  0  0  0  0  0  0  0  0  0
   -1.3976   19.4844   46.5424 H   0  0  0  0  0  0  0  0  0  0  0  0
   -2.1576   18.7521   45.1326 H   0  0  0  0  0  0  0  0  0  0  0  0
   -0.7834   17.8589   45.9166 H   0  0  0  0  0  0  0  0  0  0  0  0
    1.2552   22.2474   43.6923 H   0  0  0  0  0  0  0  0  0  0  0  0
    4.1655   20.8142   41.8402 H   0  0  0  0  0  0  0  0  0  0  0  0
    2.6082   21.7200   41.4650 H   0  0  0  0  0  0  0  0  0  0  0  0
  1  2  2  0
  1  6  1  0
  2  3  1  0
  3  4  2  0
  4  5  1  0
  5  6  2  0
  6  7  1  0
  7  8  2  0
  7  9  1  0
  8 16  1  0
  9 10  2  0
 10 11  1  0
 10 15  1  0
 11 12  1  0
 11 13  1  0
 13 14  2  0
 14 15  1  0
 15 16  2  0
 16 17  1  0
  1 18  1  0
  2 19  1  0
  3 20  1  0
  5 21  1  0
 12 22  1  0
 12 23  1  0
 12 24  1  0
 14 25  1  0
 17 26  1  0
 17 27  1  0
M  END
>  <mol_id>  (2) 
2026-09-17-6fnk-s0-n100-0002

>  <rmsd_to_ref>  (2) 
0.5000000000050919

>  <pose_kind>  (2) 
conformer

$$$$
6fnk.A
     RDKit          3D

 27 29  0  0  0  0  0  0  0  0999 V2000
    2.7405   16.1326   40.4080 C   0  0  0  0  0  0  0  0  0  0  0  0
    3.0410   14.8795   39.8739 C   0  0  0  0  0  0  0  0  0  0  0  0
    2.5528   13.7321   40.4819 C   0  0  0  0  0  0  0  0  0  0  0  0
    1.7573   13.8333   41.6265 N   0  0  0  0  0  0  0  0  0  0  0  0
    1.4580   15.0951   42.1624 C   0  0  0  0  0  0  0  0  0  0  0  0
    1.9495   16.2484   41.5536 C   0  0  0  0  0  0  0  0  0  0  0  0
    1.6515   17.5046   42.0914 C   0  0  0  0  0  0  0  0  0  0  0  0
    2.2511   18.6119   41.6329 N   0  0  0  0  0  0  0  0  0  0  0  0
    0.7510   17.6111   43.0737 N   0  0  0  0  0  0  0  0  0  0  0  0
    0.4446   18.8004   43.6217 C   0  0  0  0  0  0  0  0  0  0  0  0
   -0.3968   19.1467   44.6079 N   0  0  0  0  0  0  0  0  0  0  0  0
   -1.2498   18.2322   45.3727 C   0  0  0  0  0  0  0  0  0  0  0  0
   -0.3708   20.3644   44.7912 N   0  0  0  0  0  0  0  0  0  0  0  0
    0.4817   20.8879   43.8947 C   0  0  0  0  0  0  0  0  0  0  0  0
    1.0256   19.9052   43.1644 C   0  0  0  0  0  0  0  0  0  0  0  0
    1.9378   19.8108   42.1583 C   0  0  0  0  0  0  0  0  0  0  0  0
    2.5519   20.9158   41.6703 N   0  0  0  0  0  0  0  0  0  0  0  0
    3.1305   17.0391   39.9221 H   0  0  0  0  0  0  0  0  0  0  0  0
    3.6648   14.8011   38.9713 H   0  0  0  0  0  0  0  0  0  0  0  0
    2.7916   12.7433   40.0633 H   0  0  0  0  0  0  0  0  0  0  0  0
    0.8341   15.1742   43.0649 H   0  0  0  0  0  0  0  0  0  0  0  0
   -1.0917   18.3968   46.4488 H   0  0  0  0  0  0  0  0  0  0  0  0
   -2.3047   18.4206   45.1241 H   0  0  0  0  0  0  0  0  0  0  0  0
   -0.9933   17.1930   45.1192 H   0  0  0  0  0  0  0  0  0  0  0  0
    0.6999   21.9597   43.7781 H   0  0  0  0  0  0  0  0  0  0  0  0
    2.3272   21.8434   42.0578 H   0  0  0  0  0  0  0  0  0  0  0  0
    3.2433   20.8283   40.9119 H   0  0  0  0  0  0  0  0  0  0  0  0
  1  2  2  0
  1  6  1  0
  2  3  1  0
  3  4  2  0
  4  5  1  0
  5  6  2  0
  6  7  1  0
  7  8  2  0
  7  9  1  0
  8 16  1  0
  9 10  2  0
 10 11  1  0
 10 15  1  0
 11 12  1  0
 11 13  1  0
 13 14  2  0
 14 15  1  0
 15 16  2  0
 16 17  1  0
  1 18  1  0
  2 19  1  0
  3 20  1  0
  5 21  1  0
 12 22  1  0
 12 23  1  0
 12 24  1  0
 14 25  1  0
 17 26  1  0
 17 27  1  0
M  END
>  <mol_id>  (3) 
2026-09-17-6fnk-s0-n100-0003

>  <rmsd_to_ref>  (3) 
0.5459183673479185

>  <pose_kind>  (3) 
rigid

$$$$
6fnk.A
     RDKit          3D

 27 29  0  0  0  0  0  0  0  0999 V2000
    3.2821   15.6582   42.1637 C   0  0  0  0  0  0  0  0  0  0  0  0
    3.7085   14.3704   41.9063 C   0  0  0  0  0  0  0  0  0  0  0  0
    2.9676   13.3415   42.4973 C   0  0  0  0  0  0  0  0  0  0  0  0
    1.9149   13.5916   43.2620 N   0  0  0  0  0  0  0  0  0  0  0  0
    1.5252   14.8447   43.4937 C   0  0  0  0  0  0  0  0  0  0  0  0
    2.1831   15.9263   42.9613 C   0  0  0  0  0  0  0  0  0  0  0  0
    1.7852   17.3097   43.1934 C   0  0  0  0  0  0  0  0  0  0  0  0
    2.4678   18.3365   42.6455 N   0  0  0  0  0  0  0  0  0  0  0  0
    0.7152   17.5736   43.9700 N   0  0  0  0  0  0  0  0  0  0  0  0
    0.3129   18.8556   44.2098 C   0  0  0  0  0  0  0  0  0  0  0  0
   -0.6895   19.4010   44.9242 N   0  0  0  0  0  0  0  0  0  0  0  0
   -1.6964   18.6675   45.6983 C   0  0  0  0  0  0  0  0  0  0  0  0
   -0.6104   20.7169   44.8079 N   0  0  0  0  0  0  0  0  0  0  0  0
    0.4176   21.0682   44.0352 C   0  0  0  0  0  0  0  0  0  0  0  0
    1.0228   19.8936   43.6412 C   0  0  0  0  0  0  0  0  0  0  0  0
    2.1209   19.6241   42.8442 C   0  0  0  0  0  0  0  0  0  0  0  0
    2.8825   20.6714   42.2370 N   0  0  0  0  0  0  0  0  0  0  0  0
    3.8334   16.4847   41.7210 H   0  0  0  0  0  0  0  0  0  0  0  0
    4.5708   14.1666   41.2801 H   0  0  0  0  0  0  0  0  0  0  0  0
    3.3247   12.3342   42.2788 H   0  0  0  0  0  0  0  0  0  0  0  0
    0.6667   14.9991   44.1192 H   0  0  0  0  0  0  0  0  0  0  0  0
   -2.0449   19.3562   46.4931 H   0  0  0  0  0  0  0  0  0  0  0  0
   -2.6032   18.4760   45.0736 H   0  0  0  0  0  0  0  0  0  0  0  0
   -1.2832   17.7272   46.0726 H   0  0  0  0  0  0  0  0  0  0  0  0
    0.7708   22.0474   43.7319 H   0  0  0  0  0  0  0  0  0  0  0  0
    3.9397   20.6522   42.3298 H   0  0  0  0  0  0  0  0  0  0  0  0
    2.3912   21.4338   41.7152 H   0  0  0  0  0  0  0  0  0  0  0  0
  1  2  2  0
  1  6  1  0
  2  3  1  0
  3  4  2  0
  4  5  1  0
  5  6  2  0
  6  7  1  0
  7  8  2  0
  7  9  1  0
  8 16  1  0
  9 10  2  0
 10 11  1  0
 10 15  1  0
 11 12  1  0
 11 13  1  0
 13 14  2  0
 14 15  1  0
 15 16  2  0
 16 17  1  0
  1 18  1  0
  2 19  1  0
  3 20  1  0
  5 21  1  0
 12 22  1  0
 12 23  1  0
 12 24  1  0
 14 25  1  0
 17 26  1  0
 17 27  1  0
M  END
>  <mol_id>  (4) 
2026-09-17-6fnk-s0-n100-0004

>  <rmsd_to_ref>  (4) 
0.5918367346950798

>  <pose_kind>  (4) 
conformer

$$$$
6fnk.A
     RDKit          3D

 27 29  0  0  0  0  0  0  0  0999 V2000
    2.3745   16.3627   40.6377 C   0  0  0  0  0  0  0  0  0  0  0  0
    2.8654   15.1491   40.1557 C   0  0  0  0  0  0  0  0  0  0  0  0
    2.7391   13.9983   40.9198 C   0  0  0  0  0  0  0  0  0  0  0  0
    2.1172   14.0553   42.1702 N   0  0  0  0  0  0  0  0  0  0  0  0
    1.6259   15.2777   42.6530 C   0  0  0  0  0  0  0  0  0  0  0  0
    1.7538   16.4350   41.8870 C   0  0  0  0  0  0  0  0  0  0  0  0
    1.2653   17.6524   42.3721 C   0  0  0  0  0  0  0  0  0  0  0  0
    1.5295   18.8038   41.7392 N   0  0  0  0  0  0  0  0  0  0  0  0
    0.5171   17.6752   43.4798 N   0  0  0  0  0  0  0  0  0  0  0  0
    0.0370   18.8270   43.9813 C   0  0  0  0  0  0  0  0  0  0  0  0
   -0.7070   19.0956   45.0651 N   0  0  0  0  0  0  0  0  0  0  0  0
   -1.2137   18.1121   46.0269 C   0  0  0  0  0  0  0  0  0  0  0  0
   -0.9264   20.3046   45.1506 N   0  0  0  0  0  0  0  0  0  0  0  0
   -0.3524   20.8934   44.0885 C   0  0  0  0  0  0  0  0  0  0  0  0
    0.2840   19.9721   43.3529 C   0  0  0  0  0  0  0  0  0  0  0  0
    1.0373   19.9610   42.2190 C   0  0  0  0  0  0  0  0  0  0  0  0
    1.3116   21.1100   41.5550 N   0  0  0  0  0  0  0  0  0  0  0  0
    2.4775   17.2723   40.0278 H   0  0  0  0  0  0  0  0  0  0  0  0
    3.3521   15.1048   39.1702 H   0  0  0  0  0  0  0  0  0  0  0  0
    3.1285   13.0413   40.5420 H   0  0  0  0  0  0  0  0  0  0  0  0
    1.1389   15.3228   43.6383 H   0  0  0  0  0  0  0  0  0  0  0  0
   -0.9407   18.4220   47.0464 H   0  0  0  0  0  0  0  0  0  0  0  0
   -2.3087   18.0486   45.9439 H   0  0  0  0  0  0  0  0  0  0  0  0
   -0.7720   17.1279   45.8121 H   0  0  0  0  0  0  0  0  0  0  0  0
   -0.3979   21.9680   43.8579 H   0  0  0  0  0  0  0  0  0  0  0  0
    0.9451   22.0069   41.9044 H   0  0  0  0  0  0  0  0  0  0  0  0
    1.8868   21.0865   40.7008 H   0  0  0  0  0  0  0  0  0  0  0  0
  1  2  2  0
  1  6  1  0
  2  3  1  0
  3  4  2  0
  4  5  1  0
  5  6  2  0
  6  7  1  0
  7  8  2  0
  7  9  1  0
  8 16  1  0
  9 10  2  0
 10 11  1  0
 10 15  1  0
 11 12  1  0
 11 13  1  0
 13 14  2  0
 14 15  1  0
 15 16  2  0
 16 17  1  0
  1 18  1  0
  2 19  1  0
  3 20  1  0
  5 21  1  0
 12 22  1  0
 12 23  1  0
 12 24  1  0
 14 25  1  0
 17 26  1  0
 17 27  1  0
M  END
>  <mol_id>  (5) 
2026-09-17-6fnk-s0-n100-0005

>  <rmsd_to_ref>  (5) 
0.6377551020451819

>  <pose_kind>  (5) 
rigid

$$$$
6fnk.A
     RDKit          3D

 27 29  0  0  0  0  0  0  0  0999 V2000
    3.0896   15.7166   41.3511 C   0  0  0  0  0  0  0  0  0  0  0  0
    3.4748   14.4814   40.8691 C   0  0  0  0  0  0  0  0  0  0  0  0
    2.8048   13.3726   41.3972 C   0  0  0  0  0  0  0  0  0  0  0  0
    1.8530   13.5033   42.3097 N   0  0  0  0  0  0  0  0  0  0  0  0
    1.5011   14.7081   42.7573 C   0  0  0  0  0  0  0  0  0  0  0  0
    2.0961   15.8600   42.3042 C   0  0  0  0  0  0  0  0  0  0  0  0
    1.7368   17.1938   42.7711 C   0  0  0  0  0  0  0  0  0  0  0  0
    2.3539   18.2938   42.2921 N   0  0  0  0  0  0  0  0  0  0  0  0
    0.7695   17.3362   43.6994 N   0  0  0  0  0  0  0  0  0  0  0  0
    0.4061   18.5684   44.1603 C   0  0  0  0  0  0  0  0  0  0  0  0
   -0.5000   18.9991   45.0582 N   0  0  0  0  0  0  0  0  0  0  0  0
   -1.4104   18.1548   45.8388 C   0  0  0  0  0  0  0  0  0  0  0  0
   -0.4282   20.3193   45.1160 N   0  0  0  0  0  0  0  0  0  0  0  0
    0.5012   20.7850   44.2815 C   0  0  0  0  0  0  0  0  0  0  0  0
    1.0481   19.6827   43.6593 C   0  0  0  0  0  0  0  0  0  0  0  0
    2.0407   19.5377   42.7069 C   0  0  0  0  0  0  0  0  0  0  0  0
    2.7294   20.6672   42.1630 N   0  0  0  0  0  0  0  0  0  0  0  0
    3.5882   16.6022   40.9638 H   0  0  0  0  0  0  0  0  0  0  0  0
    4.2543   14.3753   40.1219 H   0  0  0  0  0  0  0  0  0  0  0  0
    3.1274   12.4090   41.0004 H   0  0  0  0  0  0  0  0  0  0  0  0
    0.7250   14.7652   43.4966 H   0  0  0  0  0  0  0  0  0  0  0  0
   -1.6569   18.7236   46.7571 H   0  0  0  0  0  0  0  0  0  0  0  0
   -2.3868   18.0411   45.3072 H   0  0  0  0  0  0  0  0  0  0  0  0
   -0.9604   17.1765   46.0275 H   0  0  0  0  0  0  0  0  0  0  0  0
    0.8207   21.8005   44.0760 H   0  0  0  0  0  0  0  0  0  0  0  0
    3.7900   20.6472   42.1248 H   0  0  0  0  0  0  0  0  0  0  0  0
    2.1832   21.4886   41.8142 H   0  0  0  0  0  0  0  0  0  0  0  0
  1  2  2  0
  1  6  1  0
  2  3  1  0
  3  4  2  0
  4  5  1  0
  5  6  2  0
  6  7  1  0
  7  8  2  0
  7  9  1  0
  8 16  1  0
  9 10  2  0
 10 11  1  0
 10 15  1  0
 11 12  1  0
 11 13  1  0
 13 14  2  0
 14 15  1  0
 15 16  2  0
 16 17  1  0
  1 18  1  0
  2 19  1  0
  3 20  1  0
  5 21  1  0
 12 22  1  0
 12 23  1  0
 12 24  1  0
 14 25  1  0
 17 26  1  0
 17 27  1  0
M  END
>  <mol_id>  (6) 
2026-09-17-6fnk-s0-n100-0006

>  <rmsd_to_ref>  (6) 
0.6836734693949572

>  <pose_kind>  (6) 
conformer

$$$$
6fnk.A
     RDKit          3D

 27 29  0  0  0  0  0  0  0  0999 V2000
    3.4948   16.6000   40.8834 C   0  0  0  0  0  0  0  0  0  0  0  0
    4.1448   15.4291   40.4930 C   0  0  0  0  0  0  0  0  0  0  0  0
    4.0557   14.2913   41.2817 C   0  0  0  0  0  0  0  0  0  0  0  0
    3.3118   14.3185   42.4646 N   0  0  0  0  0  0  0  0  0  0  0  0
    2.6603   15.4981   42.8554 C   0  0  0  0  0  0  0  0  0  0  0  0
    2.7507   16.6423   42.0649 C   0  0  0  0  0  0  0  0  0  0  0  0
    2.1021   17.8174   42.4583 C   0  0  0  0  0  0  0  0  0  0  0  0
    2.3151   18.9727   41.8134 N   0  0  0  0  0  0  0  0  0  0  0  0
    1.2506   17.7943   43.4885 N   0  0  0  0  0  0  0  0  0  0  0  0
    0.6151   18.9054   43.9015 C   0  0  0  0  0  0  0  0  0  0  0  0
   -0.2538   19.1265   44.8998 N   0  0  0  0  0  0  0  0  0  0  0  0
   -0.7553   18.1227   45.8430 C   0  0  0  0  0  0  0  0  0  0  0  0
   -0.5957   20.3096   44.9215 N   0  0  0  0  0  0  0  0  0  0  0  0
    0.0201   20.9251   43.8987 C   0  0  0  0  0  0  0  0  0  0  0  0
    0.8111   20.0528   43.2596 C   0  0  0  0  0  0  0  0  0  0  0  0
    1.6694   20.0873   42.2033 C   0  0  0  0  0  0  0  0  0  0  0  0
    1.8956   21.2404   41.5284 N   0  0  0  0  0  0  0  0  0  0  0  0
    3.5690   17.4992   40.2544 H   0  0  0  0  0  0  0  0  0  0  0  0
    4.7277   15.4079   39.5603 H   0  0  0  0  0  0  0  0  0  0  0  0
    4.5703   13.3683   40.9763 H   0  0  0  0  0  0  0  0  0  0  0  0
    2.0771   15.5199   43.7878 H   0  0  0  0  0  0  0  0  0  0  0  0
   -0.6144   18.4841   46.8723 H   0  0  0  0  0  0  0  0  0  0  0  0
   -1.8257   17.9488   45.6588 H   0  0  0  0  0  0  0  0  0  0  0  0
   -0.2021   17.1819   45.7058 H   0  0  0  0  0  0  0  0  0  0  0  0
   -0.1058   21.9836   43.6272 H   0  0  0  0  0  0  0  0  0  0  0  0
    1.4120   22.1053   41.8099 H   0  0  0  0  0  0  0  0  0  0  0  0
    2.5511   21.2522   40.7340 H   0  0  0  0  0  0  0  0  0  0  0  0
  1  2  2  0
  1  6  1  0
  2  3  1  0
  3  4  2  0
  4  5  1  0
  5  6  2  0
  6  7  1  0
  7  8  2  0
  7  9  1  0
  8 16  1  0
  9 10  2  0
 10 11  1  0
 10 15  1  0
 11 12  1  0
 11 13  1  0
 13 14  2  0
 14 15  1  0
 15 16  2  0
 16 17  1  0
  1 18  1  0
  2 19  1  0
  3 20  1  0
  5 21  1  0
 12 22  1  0
 12 23  1  0
 12 24  1  0
 14 25  1  0
 17 26  1  0
 17 27  1  0
M  END
>  <mol_id>  (7) 
2026-09-17-6fnk-s0-n100-0007

>  <rmsd_to_ref>  (7) 
0.7295918367376566

>  <pose_kind>  (7) 
rigid

$$$$
6fnk.A
     RDKit          3D

 27 29  0  0  0  0  0  0  0  0999 V2000
    2.9179   16.4680   41.1371 C   0  0  0  0  0  0  0  0  0  0  0  0
    3.3560   15.3443   40.4649 C   0  0  0  0  0  0  0  0  0  0  0  0
    2.7756   14.1290   40.8435 C   0  0  0  0  0  0  0  0  0  0  0  0
    1.8561   14.0626   41.7950 N   0  0  0  0  0  0  0  0  0  0  0  0
    1.4516   15.1635   42.4277 C   0  0  0  0  0  0  0  0  0  0  0  0
    1.9577   16.4054   42.1322 C   0  0  0  0  0  0  0  0  0  0  0  0
    1.5390   17.6304   42.8033 C   0  0  0  0  0  0  0  0  0  0  0  0
    2.0692   18.8263   42.4736 N   0  0  0  0  0  0  0  0  0  0  0  0
    0.6039   17.5721   43.7727 N   0  0  0  0  0  0  0  0  0  0  0  0
    0.1869   18.6973   44.4231 C   0  0  0  0  0  0  0  0  0  0  0  0
   -0.7055   18.9320   45.4035 N   0  0  0  0  0  0  0  0  0  0  0  0
   -1.5312   17.9253   46.0785 C   0  0  0  0  0  0  0  0  0  0  0  0
   -0.7104   20.2314   45.6545 N   0  0  0  0  0  0  0  0  0  0  0  0
    0.1546   20.8739   44.8692 C   0  0  0  0  0  0  0  0  0  0  0  0
    0.7401   19.9123   44.0731 C   0  0  0  0  0  0  0  0  0  0  0  0
    1.6996   19.9732   43.0785 C   0  0  0  0  0  0  0  0  0  0  0  0
    2.2968   21.2125   42.6869 N   0  0  0  0  0  0  0  0  0  0  0  0
    3.3465   17.4312   40.8701 H   0  0  0  0  0  0  0  0  0  0  0  0
    4.1090   15.3996   39.6859 H   0  0  0  0  0  0  0  0  0  0  0  0
    3.1385   13.2569   40.2978 H   0  0  0  0  0  0  0  0  0  0  0  0
    0.7045   15.0612   43.1918 H   0  0  0  0  0  0  0  0  0  0  0  0
   -1.7731   18.3363   47.0786 H   0  0  0  0  0  0  0  0  0  0  0  0
   -2.5201   17.8272   45.5672 H   0  0  0  0  0  0  0  0  0  0  0  0
   -1.0162   16.9613   46.1052 H   0  0  0  0  0  0  0  0  0  0  0  0
    0.4042   21.9272   44.8069 H   0  0  0  0  0  0  0  0  0  0  0  0
    3.3543   21.2673   42.6124 H   0  0  0  0  0  0  0  0  0  0  0  0
    1.6886   22.0387   42.4816 H   0  0  0  0  0  0  0  0  0  0  0  0
  1  2  2  0
  1  6  1  0
  2  3  1  0
  3  4  2  0
  4  5  1  0
  5  6  2  0
  6  7  1  0
  7  8  2  0
  7  9  1  0
  8 16  1  0
  9 10  2  0
 10 11  1  0
 10 15  1  0
 11 12  1  0
 11 13  1  0
 13 14  2  0
 14 15  1  0
 15 16  2  0
 16 17  1  0
  1 18  1  0
  2 19  1  0
  3 20  1  0
  5 21  1  0
 12 22  1  0
 12 23  1  0
 12 24  1  0
 14 25  1  0
 17 26  1  0
 17 27  1  0
M  END
>  <mol_id>  (8) 
2026-09-17-6fnk-s0-n100-0008

>  <rmsd_to_ref>  (8) 
0.7755102040834724

>  <pose_kind>  (8) 
conformer

$$$$
6fnk.A
     RDKit          3D

 27 29  0  0  0  0  0  0  0  0999 V2000
    2.9030   16.3565   40.9811 C   0  0  0  0  0  0  0  0  0  0  0  0
    3.3047   15.1630   40.3811 C   0  0  0  0  0  0  0  0  0  0  0  0
    2.9043   13.9484   40.9186 C   0  0  0  0  0  0  0  0  0  0  0  0
    2.0959   13.9220   42.0584 N   0  0  0  0  0  0  0  0  0  0  0  0
    1.6948   15.1242   42.6607 C   0  0  0  0  0  0  0  0  0  0  0  0
    2.0980   16.3451   42.1227 C   0  0  0  0  0  0  0  0  0  0  0  0
    1.6985   17.5416   42.7266 C   0  0  0  0  0  0  0  0  0  0  0  0
    2.2121   18.7167   42.3372 N   0  0  0  0  0  0  0  0  0  0  0  0
    0.7860   17.5216   43.7035 N   0  0  0  0  0  0  0  0  0  0  0  0
    0.3835   18.6504   44.3138 C   0  0  0  0  0  0  0  0  0  0  0  0
   -0.4888   18.8735   45.3085 N   0  0  0  0  0  0  0  0  0  0  0  0
   -1.2723   17.8532   46.0117 C   0  0  0  0  0  0  0  0  0  0  0  0
   -0.5600   20.0772   45.5599 N   0  0  0  0  0  0  0  0  0  0  0  0
    0.2544   20.7156   44.7035 C   0  0  0  0  0  0  0  0  0  0  0  0
    0.8787   19.8213   43.9253 C   0  0  0  0  0  0  0  0  0  0  0  0
    1.8021   19.8557   42.9255 C   0  0  0  0  0  0  0  0  0  0  0  0
    2.3304   21.0312   42.5067 N   0  0  0  0  0  0  0  0  0  0  0  0
    3.2236   17.3168   40.5509 H   0  0  0  0  0  0  0  0  0  0  0  0
    3.9384   15.1849   39.4824 H   0  0  0  0  0  0  0  0  0  0  0  0
    3.2228   13.0065   40.4480 H   0  0  0  0  0  0  0  0  0  0  0  0
    1.0608   15.1031   43.5594 H   0  0  0  0  0  0  0  0  0  0  0  0
   -1.1345   17.9685   47.0969 H   0  0  0  0  0  0  0  0  0  0  0  0
   -2.3371   17.9723   45.7626 H   0  0  0  0  0  0  0  0  0  0  0  0
   -0.9331   16.8533   45.7032 H   0  0  0  0  0  0  0  0  0  0  0  0
    0.3884   21.8060   44.6493 H   0  0  0  0  0  0  0  0  0  0  0  0
    2.0309   21.9149   42.9431 H   0  0  0  0  0  0  0  0  0  0  0  0
    3.0314   21.0411   41.7523 H   0  0  0  0  0  0  0  0  0  0  0  0
  1  2  2  0
  1  6  1  0
  2  3  1  0
  3  4  2  0
  4  5  1  0
  5  6  2  0
  6  7  1  0
  7  8  2  0
  7  9  1  0
  8 16  1  0
  9 10  2  0
 10 11  1  0
 10 15  1  0
 11 12  1  0
 11 13  1  0
 13 14  2  0
 14 15  1  0
 15 16  2  0
 16 17  1  0
  1 18  1  0
  2 19  1  0
  3 20  1  0
  5 21  1  0
 12 22  1  0
 12 23  1  0
 12 24  1  0
 14 25  1  0
 17 26  1  0
 17 27  1  0
M  END
>  <mol_id>  (9) 
2026-09-17-6fnk-s0-n100-0009

>  <rmsd_to_ref>  (9) 
0.8214285714320889

>  <pose_kind>  (9) 
rigid

$$$$
6fnk.A
     RDKit          3D

 27 29  0  0  0  0  0  0  0  0999 V2000
    2.5427   16.3022   41.1318 C   0  0  0  0  0  0  0  0  0  0  0  0
    3.2024   15.1349   40.8019 C   0  0  0  0  0  0  0  0  0  0  0  0
    3.1063   14.0863   41.7229 C   0  0  0  0  0  0  0  0  0  0  0  0
    2.4194   14.2090   42.8492 N   0  0  0  0  0  0  0  0  0  0  0  0
    1.7921   15.3476   43.1424 C   0  0  0  0  0  0  0  0  0  0  0  0
    1.8235   16.4369   42.3067 C   0  0  0  0  0  0  0  0  0  0  0  0
    1.1496   17.6974   42.5950 C   0  0  0  0  0  0  0  0  0  0  0  0
    1.2127   18.7377   41.7382 N   0  0  0  0  0  0  0  0  0  0  0  0
    0.4483   17.8311   43.7388 N   0  0  0  0  0  0  0  0  0  0  0  0
   -0.1955   18.9956   44.0427 C   0  0  0  0  0  0  0  0  0  0  0  0
   -0.9483   19.4018   45.0823 N   0  0  0  0  0  0  0  0  0  0  0  0
   -1.2926   18.6030   46.2631 C   0  0  0  0  0  0  0  0  0  0  0  0
   -1.3258   20.6498   44.8556 N   0  0  0  0  0  0  0  0  0  0  0  0
   -0.8465   21.0910   43.6924 C   0  0  0  0  0  0  0  0  0  0  0  0
   -0.1202   20.0494   43.1548 C   0  0  0  0  0  0  0  0  0  0  0  0
    0.5989   19.9133   41.9810 C   0  0  0  0  0  0  0  0  0  0  0  0
    0.7010   20.9815   41.0353 N   0  0  0  0  0  0  0  0  0  0  0  0
    2.5947   17.1398   40.4399 H   0  0  0  0  0  0  0  0  0  0  0  0
    3.7646   15.0354   39.8794 H   0  0  0  0  0  0  0  0  0  0  0  0
    3.6359   13.1757   41.4391 H   0  0  0  0  0  0  0  0  0  0  0  0
    1.2479   15.4009   44.0661 H   0  0  0  0  0  0  0  0  0  0  0  0
   -1.4903   19.3221   47.0825 H   0  0  0  0  0  0  0  0  0  0  0  0
   -2.2672   18.0787   46.1071 H   0  0  0  0  0  0  0  0  0  0  0  0
   -0.5007   17.8824   46.4838 H   0  0  0  0  0  0  0  0  0  0  0  0
   -0.9579   22.0512   43.2013 H   0  0  0  0  0  0  0  0  0  0  0  0
    1.6602   21.2419   40.6625 H   0  0  0  0  0  0  0  0  0  0  0  0
   -0.1627   21.4857   40.7280 H   0  0  0  0  0  0  0  0  0  0  0  0
  1  2  2  0
  1  6  1  0
  2  3  1  0
  3  4  2  0
  4  5  1  0
  5  6  2  0
  6  7  1  0
  7  8  2  0
  7  9  1  0
  8 16  1  0
  9 10  2  0
 10 11  1  0
 10 15  1  0
 11 12  1  0
 11 13  1  0
 13 14  2  0
 14 15  1  0
 15 16  2  0
 16 17  1  0
  1 18  1  0
  2 19  1  0
  3 20  1  0
  5 21  1  0
 12 22  1  0
 12 23  1  0
 12 24  1  0
 14 25  1  0
 17 26  1  0
 17 27  1  0
M  END
>  <mol_id>  (10) 
2026-09-17-6fnk-s0-n100-0010

>  <rmsd_to_ref>  (10) 
0.8673469387773844

>  <pose_kind>  (10) 
conformer

$$$$
6fnk.A
     RDKit          3D

 27 29  0  0  0  0  0  0  0  0999 V2000
    2.4736   16.8831   41.0286 C   0  0  0  0  0  0  0  0  0  0  0  0
    3.0746   15.7553   40.4694 C   0  0  0  0  0  0  0  0  0  0  0  0
    3.1074   14.5639   41.1794 C   0  0  0  0  0  0  0  0  0  0  0  0
    2.5348   14.4942   42.4525 N   0  0  0  0  0  0  0  0  0  0  0  0
    1.9325   15.6307   43.0129 C   0  0  0  0  0  0  0  0  0  0  0  0
    1.9006   16.8286   42.3014 C   0  0  0  0  0  0  0  0  0  0  0  0
    1.3015   17.9604   42.8636 C   0  0  0  0  0  0  0  0  0  0  0  0
    1.4112   19.1617   42.2798 N   0  0  0  0  0  0  0  0  0  0  0  0
    0.6016   17.8490   43.9972 N   0  0  0  0  0  0  0  0  0  0  0  0
    0.0187   18.9159   44.5722 C   0  0  0  0  0  0  0  0  0  0  0  0
   -0.7050   19.0500   45.6941 N   0  0  0  0  0  0  0  0  0  0  0  0
   -1.0605   17.9734   46.6233 C   0  0  0  0  0  0  0  0  0  0  0  0
   -1.0524   20.2217   45.8474 N   0  0  0  0  0  0  0  0  0  0  0  0
   -0.5909   20.9188   44.7960 C   0  0  0  0  0  0  0  0  0  0  0  0
    0.1122   20.1089   43.9932 C   0  0  0  0  0  0  0  0  0  0  0  0
    0.8148   20.2336   42.8338 C   0  0  0  0  0  0  0  0  0  0  0  0
    0.9335   21.4351   42.2184 N   0  0  0  0  0  0  0  0  0  0  0  0
    2.4506   17.8253   40.4613 H   0  0  0  0  0  0  0  0  0  0  0  0
    3.5222   15.8105   39.4661 H   0  0  0  0  0  0  0  0  0  0  0  0
    3.5837   13.6747   40.7407 H   0  0  0  0  0  0  0  0  0  0  0  0
    1.4844   15.5761   44.0160 H   0  0  0  0  0  0  0  0  0  0  0  0
   -0.7814   18.2651   47.6465 H   0  0  0  0  0  0  0  0  0  0  0  0
   -2.1443   17.7915   46.5766 H   0  0  0  0  0  0  0  0  0  0  0  0
   -0.5224   17.0555   46.3441 H   0  0  0  0  0  0  0  0  0  0  0  0
   -0.7637   21.9909   44.6210 H   0  0  0  0  0  0  0  0  0  0  0  0
    0.4852   22.2685   42.6250 H   0  0  0  0  0  0  0  0  0  0  0  0
    1.4721   21.5148   41.3441 H   0  0  0  0  0  0  0  0  0  0  0  0
  1  2  2  0
  1  6  1  0
  2  3  1  0
  3  4  2  0
  4  5  1  0
  5  6  2  0
  6  7  1  0
  7  8  2  0
  7  9  1  0
  8 16  1  0
  9 10  2  0
 10 11  1  0
 10 15  1  0
 11 12  1  0
 11 13  1  0
 13 14  2  0
 14 15  1  0
 15 16  2  0
 16 17  1  0
  1 18  1  0
  2 19  1  0
  3 20  1  0
  5 21  1  0
 12 22  1  0
 12 23  1  0
 12 24  1  0
 14 25  1  0
 17 26  1  0
 17 27  1  0
M  END
>  <mol_id>  (11) 
2026-09-17-6fnk-s0-n100-0011

>  <rmsd_to_ref>  (11) 
0.9132653061260174

>  <pose_kind>  (11) 
rigid

$$$$
6fnk.A
     RDKit          3D

 27 29  0  0  0  0  0  0  0  0999 V2000
    4.1364   16.7237   41.4522 C   0  0  0  0  0  0  0  0  0  0  0  0
    4.8196   15.6256   40.9686 C   0  0  0  0  0  0  0  0  0  0  0  0
    4.3743   14.3744   41.4083 C   0  0  0  0  0  0  0  0  0  0  0  0
    3.3527   14.2525   42.2431 N   0  0  0  0  0  0  0  0  0  0  0  0
    2.7111   15.3298   42.6944 C   0  0  0  0  0  0  0  0  0  0  0  0
    3.0684   16.6031   42.3245 C   0  0  0  0  0  0  0  0  0  0  0  0
    2.3898   17.8036   42.7980 C   0  0  0  0  0  0  0  0  0  0  0  0
    2.7821   19.0325   42.4027 N   0  0  0  0  0  0  0  0  0  0  0  0
    1.3494   17.6890   43.6477 N   0  0  0  0  0  0  0  0  0  0  0  0
    0.6896   18.7899   44.1123 C   0  0  0  0  0  0  0  0  0  0  0  0
   -0.3529   18.9709   44.9447 N   0  0  0  0  0  0  0  0  0  0  0  0
   -1.1092   17.9137   45.6239 C   0  0  0  0  0  0  0  0  0  0  0  0
   -0.5792   20.2709   45.0458 N   0  0  0  0  0  0  0  0  0  0  0  0
    0.2831   20.9660   44.3037 C   0  0  0  0  0  0  0  0  0  0  0  0
    1.1044   20.0390   43.6973 C   0  0  0  0  0  0  0  0  0  0  0  0
    2.1719   20.1578   42.8255 C   0  0  0  0  0  0  0  0  0  0  0  0
    2.6320   21.4340   42.3723 N   0  0  0  0  0  0  0  0  0  0  0  0
    4.4541   17.7135   41.1324 H   0  0  0  0  0  0  0  0  0  0  0  0
    5.6561   15.7264   40.2849 H   0  0  0  0  0  0  0  0  0  0  0  0
    4.9303   13.5236   41.0120 H   0  0  0  0  0  0  0  0  0  0  0  0
    1.8893   15.1823   43.3691 H   0  0  0  0  0  0  0  0  0  0  0  0
   -1.5421   18.3723   46.5348 H   0  0  0  0  0  0  0  0  0  0  0  0
   -1.9944   17.6141   45.0111 H   0  0  0  0  0  0  0  0  0  0  0  0
   -0.4691   17.0496   45.8210 H   0  0  0  0  0  0  0  0  0  0  0  0
    0.3844   22.0350   44.1539 H   0  0  0  0  0  0  0  0  0  0  0  0
    3.6706   21.6476   42.4205 H   0  0  0  0  0  0  0  0  0  0  0  0
    1.9448   22.1315   42.0034 H   0  0  0  0  0  0  0  0  0  0  0  0
  1  2  2  0
  1  6  1  0
  2  3  1  0
  3  4  2  0
  4  5  1  0
  5  6  2  0
  6  7  1  0
  7  8  2  0
  7  9  1  0
  8 16  1  0
  9 10  2  0
 10 11  1  0
 10 15  1  0
 11 12  1  0
 11 13  1  0
 13 14  2  0
 14 15  1  0
 15 16  2  0
 16 17  1  0
  1 18  1  0
  2 19  1  0
  3 20  1  0
  5 21  1  0
 12 22  1  0
 12 23  1  0
 12 24  1  0
 14 25  1  0
 17 26  1  0
 17 27  1  0
M  END
>  <mol_id>  (12) 
2026-09-17-6fnk-s0-n100-0012

>  <rmsd_to_ref>  (12) 
0.9591836734740249

>  <pose_kind>  (12) 
conformer

$$$$
6fnk.A
     RDKit          3D

 27 29  0  0  0  0  0  0  0  0999 V2000
    2.8442   16.7086   41.4374 C   0  0  0  0  0  0  0  0  0  0  0  0
    3.3349   15.5121   40.9146 C   0  0  0  0  0  0  0  0  0  0  0  0
    2.9051   14.3004   41.4357 C   0  0  0  0  0  0  0  0  0  0  0  0
    1.9780   14.2799   42.4814 N   0  0  0  0  0  0  0  0  0  0  0  0
    1.4874   15.4851   43.0063 C   0  0  0  0  0  0  0  0  0  0  0  0
    1.9198   16.7030   42.4849 C   0  0  0  0  0  0  0  0  0  0  0  0
    1.4308   17.9027   43.0118 C   0  0  0  0  0  0  0  0  0  0  0  0
    1.9578   19.0810   42.6511 N   0  0  0  0  0  0  0  0  0  0  0  0
    0.4179   17.8823   43.8840 N   0  0  0  0  0  0  0  0  0  0  0  0
   -0.0734   19.0143   44.4186 C   0  0  0  0  0  0  0  0  0  0  0  0
   -1.0537   19.2382   45.3070 N   0  0  0  0  0  0  0  0  0  0  0  0
   -1.8865   18.2152   45.9464 C   0  0  0  0  0  0  0  0  0  0  0  0
   -1.1782   20.4452   45.5189 N   0  0  0  0  0  0  0  0  0  0  0  0
   -0.2895   21.0839   44.7402 C   0  0  0  0  0  0  0  0  0  0  0  0
    0.4353   20.1881   44.0569 C   0  0  0  0  0  0  0  0  0  0  0  0
    1.4612   20.2225   43.1627 C   0  0  0  0  0  0  0  0  0  0  0  0
    2.0061   21.4009   42.7743 N   0  0  0  0  0  0  0  0  0  0  0  0
    3.1886   17.6664   41.0206 H   0  0  0  0  0  0  0  0  0  0  0  0
    4.0623   15.5293   40.0896 H   0  0  0  0  0  0  0  0  0  0  0  0
    3.2937   13.3563   41.0262 H   0  0  0  0  0  0  0  0  0  0  0  0
    0.7598   15.4687   43.8312 H   0  0  0  0  0  0  0  0  0  0  0  0
   -1.8704   18.3583   47.0370 H   0  0  0  0  0  0  0  0  0  0  0  0
   -2.9201   18.3025   45.5804 H   0  0  0  0  0  0  0  0  0  0  0  0
   -1.4939   17.2173   45.7016 H   0  0  0  0  0  0  0  0  0  0  0  0
   -0.1745   22.1758   44.6736 H   0  0  0  0  0  0  0  0  0  0  0  0
    1.6415   22.2866   43.1532 H   0  0  0  0  0  0  0  0  0  0  0  0
    2.7848   21.4110   42.1003 H   0  0  0  0  0  0  0  0  0  0  0  0
  1  2  2  0
  1  6  1  0
  2  3  1  0
  3  4  2  0
  4  5  1  0
  5  6  2  0
  6  7  1  0
  7  8  2  0
  7  9  1  0
  8 16  1  0
  9 10  2  0
 10 11  1  0
 10 15  1  0
 11 12  1  0
 11 13  1  0
 13 14  2  0
 14 15  1  0
 15 16  2  0
 16 17  1  0
  1 18  1  0
  2 19  1  0
  3 20  1  0
  5 21  1  0
 12 22  1  0
 12 23  1  0
 12 24  1  0
 14 25  1  0
 17 26  1  0
 17 27  1  0
M  END
>  <mol_id>  (13) 
2026-09-17-6fnk-s0-n100-0013

>  <rmsd_to_ref>  (13) 
1.005102040816571

>  <pose_kind>  (13) 
rigid

$$$$
6fnk.A
     RDKit          3D

 27 29  0  0  0  0  0  0  0  0999 V2000
    3.4397   16.5627   41.7217 C   0  0  0  0  0  0  0  0  0  0  0  0
    3.8524   15.3110   41.3099 C   0  0  0  0  0  0  0  0  0  0  0  0
    3.1152   14.2245   41.7927 C   0  0  0  0  0  0  0  0  0  0  0  0
    2.0782   14.3899   42.6007 N   0  0  0  0  0  0  0  0  0  0  0  0
    1.7016   15.6099   42.9824 C   0  0  0  0  0  0  0  0  0  0  0  0
    2.3573   16.7424   42.5656 C   0  0  0  0  0  0  0  0  0  0  0  0
    1.9734   18.0918   42.9627 C   0  0  0  0  0  0  0  0  0  0  0  0
    2.6530   19.1715   42.5236 N   0  0  0  0  0  0  0  0  0  0  0  0
    0.9196   18.2696   43.7846 N   0  0  0  0  0  0  0  0  0  0  0  0
    0.5306   19.5174   44.1778 C   0  0  0  0  0  0  0  0  0  0  0  0
   -0.4548   19.9819   44.9690 N   0  0  0  0  0  0  0  0  0  0  0  0
   -1.4524   19.1690   45.6725 C   0  0  0  0  0  0  0  0  0  0  0  0
   -0.3686   21.3020   45.0034 N   0  0  0  0  0  0  0  0  0  0  0  0
    0.6475   21.7349   44.2568 C   0  0  0  0  0  0  0  0  0  0  0  0
    1.2372   20.6105   43.7190 C   0  0  0  0  0  0  0  0  0  0  0  0
    2.3187   20.4292   42.8757 C   0  0  0  0  0  0  0  0  0  0  0  0
    3.0764   21.5360   42.3786 N   0  0  0  0  0  0  0  0  0  0  0  0
    3.9887   17.4318   41.3667 H   0  0  0  0  0  0  0  0  0  0  0  0
    4.7016   15.1764   40.6483 H   0  0  0  0  0  0  0  0  0  0  0  0
    3.4612   13.2472   41.4529 H   0  0  0  0  0  0  0  0  0  0  0  0
    0.8558   15.6954   43.6377 H   0  0  0  0  0  0  0  0  0  0  0  0
   -1.7816   19.7632   46.5477 H   0  0  0  0  0  0  0  0  0  0  0  0
   -2.3718   19.0551   45.0473 H   0  0  0  0  0  0  0  0  0  0  0  0
   -1.0391   18.1898   45.9283 H   0  0  0  0  0  0  0  0  0  0  0  0
    1.0020   22.7408   44.0615 H   0  0  0  0  0  0  0  0  0  0  0  0
    4.1350   21.5010   42.4487 H   0  0  0  0  0  0  0  0  0  0  0  0
    2.5810   22.3556   41.9574 H   0  0  0  0  0  0  0  0  0  0  0  0
  1  2  2  0
  1  6  1  0
  2  3  1  0
  3  4  2  0
  4  5  1  0
  5  6  2  0
  6  7  1  0
  7  8  2  0
  7  9  1  0
  8 16  1  0
  9 10  2  0
 10 11  1  0
 10 15  1  0
 11 12  1  0
 11 13  1  0
 13 14  2  0
 14 15  1  0
 15 16  2  0
 16 17  1  0
  1 18  1  0
  2 19  1  0
  3 20  1  0
  5 21  1  0
 12 22  1  0
 12 23  1  0
 12 24  1  0
 14 25  1  0
 17 26  1  0
 17 27  1  0
M  END
>  <mol_id>  (14) 
2026-09-17-6fnk-s0-n100-0014

>  <rmsd_to_ref>  (14) 
1.051020408166902

>  <pose_kind>  (14) 
conformer

$$$$
6fnk.A
     RDKit          3D

 27 29  0  0  0  0  0  0  0  0999 V2000
    3.7152   16.2722   41.9769 C   0  0  0  0  0  0  0  0  0  0  0  0
    4.2716   15.0182   41.7240 C   0  0  0  0  0  0  0  0  0  0  0  0
    3.8262   13.9082   42.4268 C   0  0  0  0  0  0  0  0  0  0  0  0
    2.8179   14.0471   43.3846 N   0  0  0  0  0  0  0  0  0  0  0  0
    2.2613   15.3099   43.6379 C   0  0  0  0  0  0  0  0  0  0  0  0
    2.7093   16.4261   42.9339 C   0  0  0  0  0  0  0  0  0  0  0  0
    2.1542   17.6840   43.1901 C   0  0  0  0  0  0  0  0  0  0  0  0
    2.6841   18.7940   42.6582 N   0  0  0  0  0  0  0  0  0  0  0  0
    1.0745   17.7880   43.9715 N   0  0  0  0  0  0  0  0  0  0  0  0
    0.5179   18.9808   44.2479 C   0  0  0  0  0  0  0  0  0  0  0  0
   -0.5356   19.3289   45.0022 N   0  0  0  0  0  0  0  0  0  0  0  0
   -1.3961   18.4116   45.7552 C   0  0  0  0  0  0  0  0  0  0  0  0
   -0.7020   20.5491   44.9763 N   0  0  0  0  0  0  0  0  0  0  0  0
    0.2335   21.0653   44.1623 C   0  0  0  0  0  0  0  0  0  0  0  0
    1.0300   20.0856   43.7144 C   0  0  0  0  0  0  0  0  0  0  0  0
    2.1241   19.9917   42.9097 C   0  0  0  0  0  0  0  0  0  0  0  0
    2.6741   21.0975   42.3520 N   0  0  0  0  0  0  0  0  0  0  0  0
    4.0723   17.1490   41.4168 H   0  0  0  0  0  0  0  0  0  0  0  0
    5.0630   14.9096   40.9678 H   0  0  0  0  0  0  0  0  0  0  0  0
    4.2662   12.9195   42.2304 H   0  0  0  0  0  0  0  0  0  0  0  0
    1.4697   15.4192   44.3938 H   0  0  0  0  0  0  0  0  0  0  0  0
   -1.4717   18.7527   46.7983 H   0  0  0  0  0  0  0  0  0  0  0  0
   -2.3982   18.3935   45.3019 H   0  0  0  0  0  0  0  0  0  0  0  0
   -0.9643   17.4002   45.7305 H   0  0  0  0  0  0  0  0  0  0  0  0
    0.3308   22.1299   43.9031 H   0  0  0  0  0  0  0  0  0  0  0  0
    2.2616   22.0241   42.5311 H   0  0  0  0  0  0  0  0  0  0  0  0
    3.5046   21.0114   41.7489 H   0  0  0  0  0  0  0  0  0  0  0  0
  1  2  2  0
  1  6  1  0
  2  3  1  0
  3  4  2  0
  4  5  1  0
  5  6  2  0
  6  7  1  0
  7  8  2  0
  7  9  1  0
  8 16  1  0
  9 10  2  0
 10 11  1  0
 10 15  1  0
 11 12  1  0
 11 13  1  0
 13 14  2  0
 14 15  1  0
 15 16  2  0
 16 17  1  0
  1 18  1  0
  2 19  1  0
  3 20  1  0
  5 21  1  0
 12 22  1  0
 12 23  1  0
 12 24  1  0
 14 25  1  0
 17 26  1  0
 17 27  1  0
M  END
>  <mol_id>  (15) 
2026-09-17-6fnk-s0-n100-0015

>  <rmsd_to_ref>  (15) 
1.0969387755146776

>  <pose_kind>  (15) 
rigid

$$$$
6fnk.A
     RDKit          3D

 27 29  0  0  0  0  0  0  0  0999 V2000
    4.0015   16.7736   41.3923 C   0  0  0  0  0  0  0  0  0  0  0  0
    4.6512   15.6545   40.9105 C   0  0  0  0  0  0  0  0  0  0  0  0
    4.1660   14.4181   41.3497 C   0  0  0  0  0  0  0  0  0  0  0  0
    3.1393   14.3284   42.1823 N   0  0  0  0  0  0  0  0  0  0  0  0
    2.5307   15.4254   42.6320 C   0  0  0  0  0  0  0  0  0  0  0  0
    2.9284   16.6868   42.2623 C   0  0  0  0  0  0  0  0  0  0  0  0
    2.2865   17.9081   42.7340 C   0  0  0  0  0  0  0  0  0  0  0  0
    2.7179   19.1240   42.3390 N   0  0  0  0  0  0  0  0  0  0  0  0
    1.2413   17.8264   43.5815 N   0  0  0  0  0  0  0  0  0  0  0  0
    0.6152   18.9475   44.0441 C   0  0  0  0  0  0  0  0  0  0  0  0
   -0.4229   19.1614   44.8744 N   0  0  0  0  0  0  0  0  0  0  0  0
   -1.2132   18.1285   45.5523 C   0  0  0  0  0  0  0  0  0  0  0  0
   -0.6087   20.4678   44.9744 N   0  0  0  0  0  0  0  0  0  0  0  0
    0.2764   21.1354   44.2339 C   0  0  0  0  0  0  0  0  0  0  0  0
    1.0697   20.1830   43.6297 C   0  0  0  0  0  0  0  0  0  0  0  0
    2.1421   20.2680   42.7602 C   0  0  0  0  0  0  0  0  0  0  0  0
    2.6428   21.5290   42.3074 N   0  0  0  0  0  0  0  0  0  0  0  0
    4.3505   17.7529   41.0728 H   0  0  0  0  0  0  0  0  0  0  0  0
    5.4917   15.7289   40.2286 H   0  0  0  0  0  0  0  0  0  0  0  0
    4.6960   13.5501   40.9549 H   0  0  0  0  0  0  0  0  0  0  0  0
    1.7034   15.3039   43.3049 H   0  0  0  0  0  0  0  0  0  0  0  0
   -1.6335   18.6009   46.4622 H   0  0  0  0  0  0  0  0  0  0  0  0
   -2.1061   17.8563   44.9378 H   0  0  0  0  0  0  0  0  0  0  0  0
   -0.6008   17.2450   45.7511 H   0  0  0  0  0  0  0  0  0  0  0  0
    0.4114   22.2006   44.0840 H   0  0  0  0  0  0  0  0  0  0  0  0
    3.6876   21.7101   42.3577 H   0  0  0  0  0  0  0  0  0  0  0  0
    1.9785   22.2474   41.9368 H   0  0  0  0  0  0  0  0  0  0  0  0
  1  2  2  0
  1  6  1  0
  2  3  1  0
  3  4  2  0
  4  5  1  0
  5  6  2  0
  6  7  1  0
  7  8  2  0
  7  9  1  0
  8 16  1  0
  9 10  2  0
 10 11  1  0
 10 15  1  0
 11 12  1  0
 11 13  1  0
 13 14  2  0
 14 15  1  0
 15 16  2  0
 16 17  1  0
  1 18  1  0
  2 19  1  0
  3 20  1  0
  5 21  1  0
 12 22  1  0
 12 23  1  0
 12 24  1  0
 14 25  1  0
 17 26  1  0
 17 27  1  0
M  END
>  <mol_id>  (16) 
2026-09-17-6fnk-s0-n100-0016

>  <rmsd_to_ref>  (16) 
1.142857142857452

>  <pose_kind>  (16) 
conformer

$$$$
6fnk.A
     RDKit          3D

 27 29  0  0  0  0  0  0  0  0999 V2000
    3.2532   16.7205   40.3112 C   0  0  0  0  0  0  0  0  0  0  0  0
    3.7222   15.5383   39.7382 C   0  0  0  0  0  0  0  0  0  0  0  0
    3.4910   14.3241   40.3680 C   0  0  0  0  0  0  0  0  0  0  0  0
    2.7854   14.2864   41.5738 N   0  0  0  0  0  0  0  0  0  0  0  0
    2.3163   15.4774   42.1485 C   0  0  0  0  0  0  0  0  0  0  0  0
    2.5495   16.6980   41.5177 C   0  0  0  0  0  0  0  0  0  0  0  0
    2.0826   17.8837   42.0941 C   0  0  0  0  0  0  0  0  0  0  0  0
    2.4421   19.0780   41.6038 N   0  0  0  0  0  0  0  0  0  0  0  0
    1.2599   17.8328   43.1465 N   0  0  0  0  0  0  0  0  0  0  0  0
    0.7973   18.9513   43.7330 C   0  0  0  0  0  0  0  0  0  0  0  0
   -0.0087   19.1468   44.7877 N   0  0  0  0  0  0  0  0  0  0  0  0
   -0.6256   18.0986   45.6060 C   0  0  0  0  0  0  0  0  0  0  0  0
   -0.1796   20.3508   44.9844 N   0  0  0  0  0  0  0  0  0  0  0  0
    0.4938   21.0136   44.0297 C   0  0  0  0  0  0  0  0  0  0  0  0
    1.1390   20.1399   43.2453 C   0  0  0  0  0  0  0  0  0  0  0  0
    1.9692   20.2047   42.1684 C   0  0  0  0  0  0  0  0  0  0  0  0
    2.3409   21.3993   41.6476 N   0  0  0  0  0  0  0  0  0  0  0  0
    3.4394   17.6807   39.8076 H   0  0  0  0  0  0  0  0  0  0  0  0
    4.2748   15.5689   38.7877 H   0  0  0  0  0  0  0  0  0  0  0  0
    3.8630   13.3915   39.9186 H   0  0  0  0  0  0  0  0  0  0  0  0
    1.7632   15.4476   43.0988 H   0  0  0  0  0  0  0  0  0  0  0  0
   -0.4117   18.2892   46.6682 H   0  0  0  0  0  0  0  0  0  0  0  0
   -1.7137   18.1004   45.4451 H   0  0  0  0  0  0  0  0  0  0  0  0
   -0.2141   17.1197   45.3191 H   0  0  0  0  0  0  0  0  0  0  0  0
    0.5128   22.1070   43.9102 H   0  0  0  0  0  0  0  0  0  0  0  0
    1.9909   22.2739   42.0640 H   0  0  0  0  0  0  0  0  0  0  0  0
    2.9734   21.4326   40.8353 H   0  0  0  0  0  0  0  0  0  0  0  0
  1  2  2  0
  1  6  1  0
  2  3  1  0
  3  4  2  0
  4  5  1  0
  5  6  2  0
  6  7  1  0
  7  8  2  0
  7  9  1  0
  8 16  1  0
  9 10  2  0
 10 11  1  0
 10 15  1  0
 11 12  1  0
 11 13  1  0
 13 14  2  0
 14 15  1  0
 15 16  2  0
 16 17  1  0
  1 18  1  0
  2 19  1  0
  3 20  1  0
  5 21  1  0
 12 22  1  0
 12 23  1  0
 12 24  1  0
 14 25  1  0
 17 26  1  0
 17 27  1  0
M  END
>  <mol_id>  (17) 
2026-09-17-6fnk-s0-n100-0017

>  <rmsd_to_ref>  (17) 
1.1887755102068445

>  <pose_kind>  (17) 
rigid

$$$$
6fnk.A
     RDKit          3D

 27 29  0  0  0  0  0  0  0  0999 V2000
    2.7597   17.1325   41.2123 C   0  0  0  0  0  0  0  0  0  0  0  0
    3.4341   16.1065   40.5805 C   0  0  0  0  0  0  0  0  0  0  0  0
    3.2006   14.8167   41.0693 C   0  0  0  0  0  0  0  0  0  0  0  0
    2.3771   14.5944   42.0832 N   0  0  0  0  0  0  0  0  0  0  0  0
    1.7390   15.6038   42.6748 C   0  0  0  0  0  0  0  0  0  0  0  0
    1.8982   16.9070   42.2719 C   0  0  0  0  0  0  0  0  0  0  0  0
    1.2168   18.0353   42.8953 C   0  0  0  0  0  0  0  0  0  0  0  0
    1.4093   19.2977   42.4597 N   0  0  0  0  0  0  0  0  0  0  0  0
    0.3771   17.8185   43.9275 N   0  0  0  0  0  0  0  0  0  0  0  0
   -0.2783   18.8496   44.5360 C   0  0  0  0  0  0  0  0  0  0  0  0
   -1.1506   18.9269   45.5586 N   0  0  0  0  0  0  0  0  0  0  0  0
   -1.6589   17.7996   46.3471 C   0  0  0  0  0  0  0  0  0  0  0  0
   -1.4721   20.1990   45.7313 N   0  0  0  0  0  0  0  0  0  0  0  0
   -0.8390   20.9762   44.8523 C   0  0  0  0  0  0  0  0  0  0  0  0
   -0.0696   20.1344   44.0774 C   0  0  0  0  0  0  0  0  0  0  0  0
    0.7918   20.3581   43.0184 C   0  0  0  0  0  0  0  0  0  0  0  0
    1.0347   21.6742   42.5138 N   0  0  0  0  0  0  0  0  0  0  0  0
    2.9162   18.1494   40.8597 H   0  0  0  0  0  0  0  0  0  0  0  0
    4.1082   16.2894   39.7503 H   0  0  0  0  0  0  0  0  0  0  0  0
    3.7449   14.0243   40.5535 H   0  0  0  0  0  0  0  0  0  0  0  0
    1.0818   15.3758   43.4922 H   0  0  0  0  0  0  0  0  0  0  0  0
   -1.9465   18.2108   47.3348 H   0  0  0  0  0  0  0  0  0  0  0  0
   -2.6150   17.4197   45.9105 H   0  0  0  0  0  0  0  0  0  0  0  0
   -0.9156   16.9993   46.3965 H   0  0  0  0  0  0  0  0  0  0  0  0
   -0.8681   22.0508   44.7104 H   0  0  0  0  0  0  0  0  0  0  0  0
    2.0386   21.9854   42.3649 H   0  0  0  0  0  0  0  0  0  0  0  0
    0.2274   22.3047   42.3011 H   0  0  0  0  0  0  0  0  0  0  0  0
  1  2  2  0
  1  6  1  0
  2  3  1  0
  3  4  2  0
  4  5  1  0
  5  6  2  0
  6  7  1  0
  7  8  2  0
  7  9  1  0
  8 16  1  0
  9 10  2  0
 10 11  1  0
 10 15  1  0
 11 12  1  0
 11 13  1  0
 13 14  2  0
 14 15  1  0
 15 16  2  0
 16 17  1  0
  1 18  1  0
  2 19  1  0
  3 20  1  0
  5 21  1  0
 12 22  1  0
 12 23  1  0
 12 24  1  0
 14 25  1  0
 17 26  1  0
 17 27  1  0
M  END
>  <mol_id>  (18) 
2026-09-17-6fnk-s0-n100-0018

>  <rmsd_to_ref>  (18) 
1.2346938775527505

>  <pose_kind>  (18) 
conformer

$$$$
6fnk.A
     RDKit          3D

 27 29  0  0  0  0  0  0  0  0999 V2000
    3.4674   16.3371   42.0877 C   0  0  0  0  0  0  0  0  0  0  0  0
    4.1429   15.1452   41.8246 C   0  0  0  0  0  0  0  0  0  0  0  0
    3.8031   13.9899   42.5131 C   0  0  0  0  0  0  0  0  0  0  0  0
    2.7819   14.0206   43.4669 N   0  0  0  0  0  0  0  0  0  0  0  0
    2.1053   15.2214   43.7304 C   0  0  0  0  0  0  0  0  0  0  0  0
    2.4471   16.3831   43.0407 C   0  0  0  0  0  0  0  0  0  0  0  0
    1.7726   17.5790   43.3073 C   0  0  0  0  0  0  0  0  0  0  0  0
    2.1958   18.7405   42.7899 N   0  0  0  0  0  0  0  0  0  0  0  0
    0.6845   17.5702   44.0838 N   0  0  0  0  0  0  0  0  0  0  0  0
    0.0146   18.7009   44.3697 C   0  0  0  0  0  0  0  0  0  0  0  0
   -1.0709   18.9378   45.1218 N   0  0  0  0  0  0  0  0  0  0  0  0
   -1.8426   17.9338   45.8603 C   0  0  0  0  0  0  0  0  0  0  0  0
   -1.3535   20.1365   45.1079 N   0  0  0  0  0  0  0  0  0  0  0  0
   -0.4684   20.7491   44.3046 C   0  0  0  0  0  0  0  0  0  0  0  0
    0.4205   19.8555   43.8506 C   0  0  0  0  0  0  0  0  0  0  0  0
    1.5221   19.8760   43.0510 C   0  0  0  0  0  0  0  0  0  0  0  0
    1.9658   21.0356   42.5082 N   0  0  0  0  0  0  0  0  0  0  0  0
    3.7412   17.2503   41.5389 H   0  0  0  0  0  0  0  0  0  0  0  0
    4.9444   15.1215   41.0717 H   0  0  0  0  0  0  0  0  0  0  0  0
    4.3369   13.0502   42.3086 H   0  0  0  0  0  0  0  0  0  0  0  0
    1.3035   15.2457   44.4831 H   0  0  0  0  0  0  0  0  0  0  0  0
   -1.9552   18.2545   46.9065 H   0  0  0  0  0  0  0  0  0  0  0  0
   -2.8363   17.8246   45.4014 H   0  0  0  0  0  0  0  0  0  0  0  0
   -1.3154   16.9689   45.8273 H   0  0  0  0  0  0  0  0  0  0  0  0
   -0.4726   21.8210   44.0572 H   0  0  0  0  0  0  0  0  0  0  0  0
    1.4654   21.9164   42.6948 H   0  0  0  0  0  0  0  0  0  0  0  0
    2.8035   21.0364   41.9088 H   0  0  0  0  0  0  0  0  0  0  0  0
  1  2  2  0
  1  6  1  0
  2  3  1  0
  3  4  2  0
  4  5  1  0
  5  6  2  0
  6  7  1  0
  7  8  2  0
  7  9  1  0
  8 16  1  0
  9 10  2  0
 10 11  1  0
 10 15  1  0
 11 12  1  0
 11 13  1  0
 13 14  2  0
 14 15  1  0
 15 16  2  0
 16 17  1  0
  1 18  1  0
  2 19  1  0
  3 20  1  0
  5 21  1  0
 12 22  1  0
 12 23  1  0
 12 24  1  0
 14 25  1  0
 17 26  1  0
 17 27  1  0
M  END
>  <mol_id>  (19) 
2026-09-17-6fnk-s0-n100-0019

>  <rmsd_to_ref>  (19) 
1.2806122448996489

>  <pose_kind>  (19) 
rigid

$$$$
6fnk.A
     RDKit          3D

 27 29  0  0  0  0  0  0  0  0999 V2000
    3.1415   16.9139   42.0945 C   0  0  0  0  0  0  0  0  0  0  0  0
    3.9058   15.8117   41.7666 C   0  0  0  0  0  0  0  0  0  0  0  0
    3.6679   14.6489   42.5071 C   0  0  0  0  0  0  0  0  0  0  0  0
    2.7582   14.6099   43.4697 N   0  0  0  0  0  0  0  0  0  0  0  0
    2.0343   15.6890   43.7652 C   0  0  0  0  0  0  0  0  0  0  0  0
    2.1897   16.8797   43.0989 C   0  0  0  0  0  0  0  0  0  0  0  0
    1.4158   18.0794   43.3952 C   0  0  0  0  0  0  0  0  0  0  0  0
    1.6087   19.2250   42.7090 N   0  0  0  0  0  0  0  0  0  0  0  0
    0.4882   18.0489   44.3729 N   0  0  0  0  0  0  0  0  0  0  0  0
   -0.2553   19.1519   44.6786 C   0  0  0  0  0  0  0  0  0  0  0  0
   -1.2241   19.4043   45.5791 N   0  0  0  0  0  0  0  0  0  0  0  0
   -1.7694   18.4506   46.5506 C   0  0  0  0  0  0  0  0  0  0  0  0
   -1.6011   20.6648   45.4369 N   0  0  0  0  0  0  0  0  0  0  0  0
   -0.9116   21.2641   44.4660 C   0  0  0  0  0  0  0  0  0  0  0  0
   -0.0448   20.3152   43.9665 C   0  0  0  0  0  0  0  0  0  0  0  0
    0.9068   20.3477   42.9630 C   0  0  0  0  0  0  0  0  0  0  0  0
    1.1549   21.5333   42.2024 N   0  0  0  0  0  0  0  0  0  0  0  0
    3.2983   17.8364   41.5402 H   0  0  0  0  0  0  0  0  0  0  0  0
    4.6505   15.8446   40.9782 H   0  0  0  0  0  0  0  0  0  0  0  0
    4.2842   13.7929   42.2288 H   0  0  0  0  0  0  0  0  0  0  0  0
    1.3091   15.6103   44.5527 H   0  0  0  0  0  0  0  0  0  0  0  0
   -2.1637   19.0514   47.3938 H   0  0  0  0  0  0  0  0  0  0  0  0
   -2.6665   17.9353   46.1279 H   0  0  0  0  0  0  0  0  0  0  0  0
   -1.0092   17.7203   46.8405 H   0  0  0  0  0  0  0  0  0  0  0  0
   -0.9613   22.2789   44.0874 H   0  0  0  0  0  0  0  0  0  0  0  0
    2.1580   21.8567   42.0758 H   0  0  0  0  0  0  0  0  0  0  0  0
    0.3520   22.0593   41.7860 H   0  0  0  0  0  0  0  0  0  0  0  0
  1  2  2  0
  1  6  1  0
  2  3  1  0
  3  4  2  0
  4  5  1  0
  5  6  2  0
  6  7  1  0
  7  8  2  0
  7  9  1  0
  8 16  1  0
  9 10  2  0
 10 11  1  0
 10 15  1  0
 11 12  1  0
 11 13  1  0
 13 14  2  0
 14 15  1  0
 15 16  2  0
 16 17  1  0
  1 18  1  0
  2 19  1  0
  3 20  1  0
  5 21  1  0
 12 22  1  0
 12 23  1  0
 12 24  1  0
 14 25  1  0
 17 26  1  0
 17 27  1  0
M  END
>  <mol_id>  (20) 
2026-09-17-6fnk-s0-n100-0020

>  <rmsd_to_ref>  (20) 
1.3265306122467984

>  <pose_kind>  (20) 
conformer

$$$$
6fnk.A
     RDKit          3D

 27 29  0  0  0  0  0  0  0  0999 V2000
    3.5217   16.5267   41.1790 C   0  0  0  0  0  0  0  0  0  0  0  0
    4.0782   15.3458   40.6874 C   0  0  0  0  0  0  0  0  0  0  0  0
    3.7467   14.1299   41.2673 C   0  0  0  0  0  0  0  0  0  0  0  0
    2.8528   14.0894   42.3409 N   0  0  0  0  0  0  0  0  0  0  0  0
    2.2960   15.2790   42.8343 C   0  0  0  0  0  0  0  0  0  0  0  0
    2.6296   16.5013   42.2537 C   0  0  0  0  0  0  0  0  0  0  0  0
    2.0747   17.6857   42.7490 C   0  0  0  0  0  0  0  0  0  0  0  0
    2.5099   18.8812   42.3276 N   0  0  0  0  0  0  0  0  0  0  0  0
    1.0904   17.6325   43.6520 N   0  0  0  0  0  0  0  0  0  0  0  0
    0.5381   18.7496   44.1578 C   0  0  0  0  0  0  0  0  0  0  0  0
   -0.4299   18.9428   45.0665 N   0  0  0  0  0  0  0  0  0  0  0  0
   -1.1729   17.8927   45.7697 C   0  0  0  0  0  0  0  0  0  0  0  0
   -0.6305   20.1462   45.2359 N   0  0  0  0  0  0  0  0  0  0  0  0
    0.1904   20.8113   44.4065 C   0  0  0  0  0  0  0  0  0  0  0  0
    0.9553   19.9393   43.7361 C   0  0  0  0  0  0  0  0  0  0  0  0
    1.9510   20.0065   42.8102 C   0  0  0  0  0  0  0  0  0  0  0  0
    2.4032   21.2023   42.3607 N   0  0  0  0  0  0  0  0  0  0  0  0
    3.7882   17.4881   40.7155 H   0  0  0  0  0  0  0  0  0  0  0  0
    4.7793   15.3785   39.8404 H   0  0  0  0  0  0  0  0  0  0  0  0
    4.1872   13.1983   40.8825 H   0  0  0  0  0  0  0  0  0  0  0  0
    1.5946   15.2470   43.6810 H   0  0  0  0  0  0  0  0  0  0  0  0
   -1.1361   18.0802   46.8529 H   0  0  0  0  0  0  0  0  0  0  0  0
   -2.2198   17.8956   45.4324 H   0  0  0  0  0  0  0  0  0  0  0  0
   -0.7200   16.9142   45.5513 H   0  0  0  0  0  0  0  0  0  0  0  0
    0.2288   21.9049   44.2948 H   0  0  0  0  0  0  0  0  0  0  0  0
    1.9898   22.0760   42.7165 H   0  0  0  0  0  0  0  0  0  0  0  0
    3.1604   21.2375   41.6633 H   0  0  0  0  0  0  0  0  0  0  0  0
  1  2  2  0
  1  6  1  0
  2  3  1  0
  3  4  2  0
  4  5  1  0
  5  6  2  0
  6  7  1  0
  7  8  2  0
  7  9  1  0
  8 16  1  0
  9 10  2  0
 10 11  1  0
 10 15  1  0
 11 12  1  0
 11 13  1  0
 13 14  2  0
 14 15  1  0
 15 16  2  0
 16 17  1  0
  1 18  1  0
  2 19  1  0
  3 20  1  0
  5 21  1  0
 12 22  1  0
 12 23  1  0
 12 24  1  0
 14 25  1  0
 17 26  1  0
 17 27  1  0
M  END
>  <mol_id>  (21) 
2026-09-17-6fnk-s0-n100-0021

>  <rmsd_to_ref>  (21) 
1.3724489795919124

>  <pose_kind>  (21) 
rigid

$$$$
6fnk.A
     RDKit          3D

 27 29  0  0  0  0  0  0  0  0999 V2000
    3.1095   15.8739   40.9809 C   0  0  0  0  0  0  0  0  0  0  0  0
    3.4242   14.6424   40.4416 C   0  0  0  0  0  0  0  0  0  0  0  0
    2.6600   13.5574   40.8842 C   0  0  0  0  0  0  0  0  0  0  0  0
    1.6880   13.7060   41.7723 N   0  0  0  0  0  0  0  0  0  0  0  0
    1.4056   14.9068   42.2766 C   0  0  0  0  0  0  0  0  0  0  0  0
    2.0953   16.0358   41.9090 C   0  0  0  0  0  0  0  0  0  0  0  0
    1.8138   17.3645   42.4396 C   0  0  0  0  0  0  0  0  0  0  0  0
    2.5231   18.4418   42.0438 N   0  0  0  0  0  0  0  0  0  0  0  0
    0.8267   17.5251   43.3436 N   0  0  0  0  0  0  0  0  0  0  0  0
    0.5342   18.7532   43.8624 C   0  0  0  0  0  0  0  0  0  0  0  0
   -0.3708   19.1980   44.7545 N   0  0  0  0  0  0  0  0  0  0  0  0
   -1.3652   18.3800   45.4566 C   0  0  0  0  0  0  0  0  0  0  0  0
   -0.2090   20.5044   44.8898 N   0  0  0  0  0  0  0  0  0  0  0  0
    0.7798   20.9473   44.1128 C   0  0  0  0  0  0  0  0  0  0  0  0
    1.2698   19.8441   43.4463 C   0  0  0  0  0  0  0  0  0  0  0  0
    2.2831   19.6806   42.5189 C   0  0  0  0  0  0  0  0  0  0  0  0
    3.0680   20.7857   42.0623 N   0  0  0  0  0  0  0  0  0  0  0  0
    3.6823   16.7412   40.6607 H   0  0  0  0  0  0  0  0  0  0  0  0
    4.2204   14.5216   39.7146 H   0  0  0  0  0  0  0  0  0  0  0  0
    2.9283   12.5963   40.4434 H   0  0  0  0  0  0  0  0  0  0  0  0
    0.6095   14.9789   42.9932 H   0  0  0  0  0  0  0  0  0  0  0  0
   -1.6036   18.9138   46.3977 H   0  0  0  0  0  0  0  0  0  0  0  0
   -2.3277   18.3658   44.8888 H   0  0  0  0  0  0  0  0  0  0  0  0
   -0.9917   17.3630   45.6032 H   0  0  0  0  0  0  0  0  0  0  0  0
    1.1766   21.9470   43.9757 H   0  0  0  0  0  0  0  0  0  0  0  0
    4.1253   20.6916   42.0564 H   0  0  0  0  0  0  0  0  0  0  0  0
    2.5931   21.6620   41.7438 H   0  0  0  0  0  0  0  0  0  0  0  0
  1  2  2  0
  1  6  1  0
  2  3  1  0
  3  4  2  0
  4  5  1  0
  5  6  2  0
  6  7  1  0
  7  8  2  0
  7  9  1  0
  8 16  1  0
  9 10  2  0
 10 11  1  0
 10 15  1  0
 11 12  1  0
 11 13  1  0
 13 14  2  0
 14 15  1  0
 15 16  2  0
 16 17  1  0
  1 18  1  0
  2 19  1  0
  3 20  1  0
  5 21  1  0
 12 22  1  0
 12 23  1  0
 12 24  1  0
 14 25  1  0
 17 26  1  0
 17 27  1  0
M  END
>  <mol_id>  (22) 
2026-09-17-6fnk-s0-n100-0022

>  <rmsd_to_ref>  (22) 
1.4183673469388873

>  <pose_kind>  (22) 
conformer

$$$$
6fnk.A
     RDKit          3D

 27 29  0  0  0  0  0  0  0  0999 V2000
    3.3482   17.0135   41.6294 C   0  0  0  0  0  0  0  0  0  0  0  0
    3.8319   15.8098   41.1166 C   0  0  0  0  0  0  0  0  0  0  0  0
    3.3568   14.6047   41.6128 C   0  0  0  0  0  0  0  0  0  0  0  0
    2.3913   14.5980   42.6232 N   0  0  0  0  0  0  0  0  0  0  0  0
    1.9076   15.8104   43.1381 C   0  0  0  0  0  0  0  0  0  0  0  0
    2.3856   17.0217   42.6417 C   0  0  0  0  0  0  0  0  0  0  0  0
    1.9033   18.2285   43.1585 C   0  0  0  0  0  0  0  0  0  0  0  0
    2.4688   19.3972   42.8261 N   0  0  0  0  0  0  0  0  0  0  0  0
    0.8585   18.2248   43.9925 N   0  0  0  0  0  0  0  0  0  0  0  0
    0.3722   19.3641   44.5165 C   0  0  0  0  0  0  0  0  0  0  0  0
   -0.6354   19.6038   45.3694 N   0  0  0  0  0  0  0  0  0  0  0  0
   -1.5136   18.5952   45.9701 C   0  0  0  0  0  0  0  0  0  0  0  0
   -0.7415   20.8118   45.5851 N   0  0  0  0  0  0  0  0  0  0  0  0
    0.1892   21.4358   44.8445 C   0  0  0  0  0  0  0  0  0  0  0  0
    0.9194   20.5286   44.1822 C   0  0  0  0  0  0  0  0  0  0  0  0
    1.9784   20.5461   43.3269 C   0  0  0  0  0  0  0  0  0  0  0  0
    2.5628   21.7148   42.9675 N   0  0  0  0  0  0  0  0  0  0  0  0
    3.7285   17.9663   41.2325 H   0  0  0  0  0  0  0  0  0  0  0  0
    4.5898   15.8163   40.3193 H   0  0  0  0  0  0  0  0  0  0  0  0
    3.7399   13.6549   41.2113 H   0  0  0  0  0  0  0  0  0  0  0  0
    1.1496   15.8046   43.9352 H   0  0  0  0  0  0  0  0  0  0  0  0
   -1.5350   18.7310   47.0615 H   0  0  0  0  0  0  0  0  0  0  0  0
   -2.5306   18.7075   45.5666 H   0  0  0  0  0  0  0  0  0  0  0  0
   -1.1337   17.5905   45.7331 H   0  0  0  0  0  0  0  0  0  0  0  0
    0.3303   22.5253   44.7899 H   0  0  0  0  0  0  0  0  0  0  0  0
    2.2036   22.6057   43.3390 H   0  0  0  0  0  0  0  0  0  0  0  0
    3.3662   21.7119   42.3230 H   0  0  0  0  0  0  0  0  0  0  0  0
  1  2  2  0
  1  6  1  0
  2  3  1  0
  3  4  2  0
  4  5  1  0
  5  6  2  0
  6  7  1  0
  7  8  2  0
  7  9  1  0
  8 16  1  0
  9 10  2  0
 10 11  1  0
 10 15  1  0
 11 12  1  0
 11 13  1  0
 13 14  2  0
 14 15  1  0
 15 16  2  0
 16 17  1  0
  1 18  1  0
  2 19  1  0
  3 20  1  0
  5 21  1  0
 12 22  1  0
 12 23  1  0
 12 24  1  0
 14 25  1  0
 17 26  1  0
 17 27  1  0
M  END
>  <mol_id>  (23) 
2026-09-17-6fnk-s0-n100-0023

>  <rmsd_to_ref>  (23) 
1.464285714285791

>  <pose_kind>  (23) 
rigid

$$$$
6fnk.A
     RDKit          3D

 27 29  0  0  0  0  0  0  0  0999 V2000
    3.2548   17.0921   41.4842 C   0  0  0  0  0  0  0  0  0  0  0  0
    4.0648   16.0680   41.0350 C   0  0  0  0  0  0  0  0  0  0  0  0
    3.9976   14.8657   41.7470 C   0  0  0  0  0  0  0  0  0  0  0  0
    3.1997   14.7202   42.7947 N   0  0  0  0  0  0  0  0  0  0  0  0
    2.4282   15.7256   43.2067 C   0  0  0  0  0  0  0  0  0  0  0  0
    2.4190   16.9464   42.5779 C   0  0  0  0  0  0  0  0  0  0  0  0
    1.5886   18.0680   43.0007 C   0  0  0  0  0  0  0  0  0  0  0  0
    1.6181   19.2475   42.3464 N   0  0  0  0  0  0  0  0  0  0  0  0
    0.7737   17.9288   44.0656 N   0  0  0  0  0  0  0  0  0  0  0  0
   -0.0179   18.9562   44.4907 C   0  0  0  0  0  0  0  0  0  0  0  0
   -0.9038   19.0980   45.4946 N   0  0  0  0  0  0  0  0  0  0  0  0
   -1.2679   18.0710   46.4762 C   0  0  0  0  0  0  0  0  0  0  0  0
   -1.3915   20.3272   45.4438 N   0  0  0  0  0  0  0  0  0  0  0  0
   -0.8566   21.0129   44.4333 C   0  0  0  0  0  0  0  0  0  0  0  0
    0.0250   20.1557   43.8096 C   0  0  0  0  0  0  0  0  0  0  0  0
    0.8608   20.2996   42.7168 C   0  0  0  0  0  0  0  0  0  0  0  0
    0.9341   21.5261   41.9846 N   0  0  0  0  0  0  0  0  0  0  0  0
    3.2799   18.0422   40.9555 H   0  0  0  0  0  0  0  0  0  0  0  0
    4.7180   16.1882   40.1770 H   0  0  0  0  0  0  0  0  0  0  0  0
    4.6468   14.0730   41.3724 H   0  0  0  0  0  0  0  0  0  0  0  0
    1.7978   15.5616   44.0599 H   0  0  0  0  0  0  0  0  0  0  0  0
   -1.6176   18.6092   47.3793 H   0  0  0  0  0  0  0  0  0  0  0  0
   -2.1612   17.4979   46.1260 H   0  0  0  0  0  0  0  0  0  0  0  0
   -0.4265   17.3967   46.6569 H   0  0  0  0  0  0  0  0  0  0  0  0
   -1.0251   22.0322   44.1041 H   0  0  0  0  0  0  0  0  0  0  0  0
    1.8898   21.9351   41.7700 H   0  0  0  0  0  0  0  0  0  0  0  0
    0.0532   21.9976   41.6741 H   0  0  0  0  0  0  0  0  0  0  0  0
  1  2  2  0
  1  6  1  0
  2  3  1  0
  3  4  2  0
  4  5  1  0
  5  6  2  0
  6  7  1  0
  7  8  2  0
  7  9  1  0
  8 16  1  0
  9 10  2  0
 10 11  1  0
 10 15  1  0
 11 12  1  0
 11 13  1  0
 13 14  2  0
 14 15  1  0
 15 16  2  0
 16 17  1  0
  1 18  1  0
  2 19  1  0
  3 20  1  0
  5 21  1  0
 12 22  1  0
 12 23  1  0
 12 24  1  0
 14 25  1  0
 17 26  1  0
 17 27  1  0
M  END
>  <mol_id>  (24) 
2026-09-17-6fnk-s0-n100-0024

>  <rmsd_to_ref>  (24) 
1.5102040816381597

>  <pose_kind>  (24) 
conformer

$$$$
6fnk.A
     RDKit          3D

 27 29  0  0  0  0  0  0  0  0999 V2000
    2.6938   17.2387   41.1388 C   0  0  0  0  0  0  0  0  0  0  0  0
    3.1576   16.1014   40.4773 C   0  0  0  0  0  0  0  0  0  0  0  0
    2.8090   14.8407   40.9394 C   0  0  0  0  0  0  0  0  0  0  0  0
    1.9904   14.7116   42.0648 N   0  0  0  0  0  0  0  0  0  0  0  0
    1.5267   15.8573   42.7290 C   0  0  0  0  0  0  0  0  0  0  0  0
    1.8778   17.1243   42.2669 C   0  0  0  0  0  0  0  0  0  0  0  0
    1.4159   18.2644   42.9324 C   0  0  0  0  0  0  0  0  0  0  0  0
    1.8778   19.4824   42.6174 N   0  0  0  0  0  0  0  0  0  0  0  0
    0.4949   18.1461   43.8941 N   0  0  0  0  0  0  0  0  0  0  0  0
    0.0330   19.2181   44.5622 C   0  0  0  0  0  0  0  0  0  0  0  0
   -0.8596   19.3429   45.5561 N   0  0  0  0  0  0  0  0  0  0  0  0
   -1.6017   18.2488   46.1894 C   0  0  0  0  0  0  0  0  0  0  0  0
   -0.9900   20.5256   45.8744 N   0  0  0  0  0  0  0  0  0  0  0  0
   -0.1973   21.2492   45.0668 C   0  0  0  0  0  0  0  0  0  0  0  0
    0.4768   20.4310   44.2476 C   0  0  0  0  0  0  0  0  0  0  0  0
    1.4083   20.5655   43.2639 C   0  0  0  0  0  0  0  0  0  0  0  0
    1.8853   21.7864   42.9199 N   0  0  0  0  0  0  0  0  0  0  0  0
    2.9735   18.2359   40.7682 H   0  0  0  0  0  0  0  0  0  0  0  0
    3.7994   16.2043   39.5899 H   0  0  0  0  0  0  0  0  0  0  0  0
    3.1766   13.9433   40.4204 H   0  0  0  0  0  0  0  0  0  0  0  0
    0.8847   15.7551   43.6164 H   0  0  0  0  0  0  0  0  0  0  0  0
   -1.4813   18.3078   47.2812 H   0  0  0  0  0  0  0  0  0  0  0  0
   -2.6681   18.3325   45.9331 H   0  0  0  0  0  0  0  0  0  0  0  0
   -1.2126   17.2850   45.8291 H   0  0  0  0  0  0  0  0  0  0  0  0
   -0.1143   22.3460   45.0767 H   0  0  0  0  0  0  0  0  0  0  0  0
    1.5397   22.6287   43.4016 H   0  0  0  0  0  0  0  0  0  0  0  0
    2.5933   21.8721   42.1767 H   0  0  0  0  0  0  0  0  0  0  0  0
  1  2  2  0
  1  6  1  0
  2  3  1  0
  3  4  2  0
  4  5  1  0
  5  6  2  0
  6  7  1  0
  7  8  2  0
  7  9  1  0
  8 16  1  0
  9 10  2  0
 10 11  1  0
 10 15  1  0
 11 12  1  0
 11 13  1  0
 13 14  2  0
 14 15  1  0
 15 16  2  0
 16 17  1  0
  1 18  1  0
  2 19  1  0
  3 20  1  0
  5 21  1  0
 12 22  1  0
 12 23  1  0
 12 24  1  0
 14 25  1  0
 17 26  1  0
 17 27  1  0
M  END
>  <mol_id>  (25) 
2026-09-17-6fnk-s0-n100-0025

>  <rmsd_to_ref>  (25) 
1.55612244898173

>  <pose_kind>  (25) 
rigid

$$$$
6fnk.A
     RDKit          3D

 27 29  0  0  0  0  0  0  0  0999 V2000
    3.6860   16.5787   41.1657 C   0  0  0  0  0  0  0  0  0  0  0  0
    4.2004   15.3927   40.6806 C   0  0  0  0  0  0  0  0  0  0  0  0
    3.6149   14.2182   41.1651 C   0  0  0  0  0  0  0  0  0  0  0  0
    2.6215   14.2450   42.0413 N   0  0  0  0  0  0  0  0  0  0  0  0
    2.1443   15.4043   42.4929 C   0  0  0  0  0  0  0  0  0  0  0  0
    2.6483   16.6136   42.0812 C   0  0  0  0  0  0  0  0  0  0  0  0
    2.1512   17.9003   42.5537 C   0  0  0  0  0  0  0  0  0  0  0  0
    2.6831   19.0605   42.1160 N   0  0  0  0  0  0  0  0  0  0  0  0
    1.1406   17.9371   43.4451 N   0  0  0  0  0  0  0  0  0  0  0  0
    0.6490   19.1224   43.9101 C   0  0  0  0  0  0  0  0  0  0  0  0
   -0.3260   19.4522   44.7781 N   0  0  0  0  0  0  0  0  0  0  0  0
   -1.1844   18.5145   45.5094 C   0  0  0  0  0  0  0  0  0  0  0  0
   -0.3773   20.7722   44.8587 N   0  0  0  0  0  0  0  0  0  0  0  0
    0.5366   21.3360   44.0685 C   0  0  0  0  0  0  0  0  0  0  0  0
    1.2049   20.2995   43.4517 C   0  0  0  0  0  0  0  0  0  0  0  0
    2.2420   20.2629   42.5369 C   0  0  0  0  0  0  0  0  0  0  0  0
    2.8447   21.4602   42.0378 N   0  0  0  0  0  0  0  0  0  0  0  0
    4.1160   17.5129   40.8118 H   0  0  0  0  0  0  0  0  0  0  0  0
    5.0140   15.3718   39.9632 H   0  0  0  0  0  0  0  0  0  0  0  0
    4.0391   13.2954   40.7667 H   0  0  0  0  0  0  0  0  0  0  0  0
    1.3388   15.3769   43.2019 H   0  0  0  0  0  0  0  0  0  0  0  0
   -1.5162   19.0413   46.4259 H   0  0  0  0  0  0  0  0  0  0  0  0
   -2.1255   18.3226   44.9381 H   0  0  0  0  0  0  0  0  0  0  0  0
   -0.6543   17.5777   45.7008 H   0  0  0  0  0  0  0  0  0  0  0  0
    0.7695   22.3799   43.8911 H   0  0  0  0  0  0  0  0  0  0  0  0
    3.9034   21.5372   42.0411 H   0  0  0  0  0  0  0  0  0  0  0  0
    2.2392   22.2350   41.6803 H   0  0  0  0  0  0  0  0  0  0  0  0
  1  2  2  0
  1  6  1  0
  2  3  1  0
  3  4  2  0
  4  5  1  0
  5  6  2  0
  6  7  1  0
  7  8  2  0
  7  9  1  0
  8 16  1  0
  9 10  2  0
 10 11  1  0
 10 15  1  0
 11 12  1  0
 11 13  1  0
 13 14  2  0
 14 15  1  0
 15 16  2  0
 16 17  1  0
  1 18  1  0
  2 19  1  0
  3 20  1  0
  5 21  1  0
 12 22  1  0
 12 23  1  0
 12 24  1  0
 14 25  1  0
 17 26  1  0
 17 27  1  0
M  END
>  <mol_id>  (26) 
2026-09-17-6fnk-s0-n100-0026

>  <rmsd_to_ref>  (26) 
1.6020408163276607

>  <pose_kind>  (26) 
conformer

$$$$
6fnk.A
     RDKit          3D

 27 29  0  0  0  0  0  0  0  0999 V2000
    3.8525   16.2209   41.5674 C   0  0  0  0  0  0  0  0  0  0  0  0
    4.2969   14.9318   41.2730 C   0  0  0  0  0  0  0  0  0  0  0  0
    3.7535   13.8428   41.9389 C   0  0  0  0  0  0  0  0  0  0  0  0
    2.7590   14.0383   42.9010 N   0  0  0  0  0  0  0  0  0  0  0  0
    2.3150   15.3363   43.1961 C   0  0  0  0  0  0  0  0  0  0  0  0
    2.8615   16.4312   42.5293 C   0  0  0  0  0  0  0  0  0  0  0  0
    2.4187   17.7239   42.8272 C   0  0  0  0  0  0  0  0  0  0  0  0
    3.0458   18.7999   42.3321 N   0  0  0  0  0  0  0  0  0  0  0  0
    1.3504   17.8969   43.6120 N   0  0  0  0  0  0  0  0  0  0  0  0
    0.9003   19.1243   43.9277 C   0  0  0  0  0  0  0  0  0  0  0  0
   -0.1206   19.5389   44.6935 N   0  0  0  0  0  0  0  0  0  0  0  0
   -1.0605   18.6767   45.4160 C   0  0  0  0  0  0  0  0  0  0  0  0
   -0.1787   20.7691   44.7080 N   0  0  0  0  0  0  0  0  0  0  0  0
    0.8008   21.2274   43.9112 C   0  0  0  0  0  0  0  0  0  0  0  0
    1.5090   20.1966   43.4308 C   0  0  0  0  0  0  0  0  0  0  0  0
    2.5927   20.0333   42.6233 C   0  0  0  0  0  0  0  0  0  0  0  0
    3.2395   21.1042   42.1023 N   0  0  0  0  0  0  0  0  0  0  0  0
    4.2870   17.0808   41.0366 H   0  0  0  0  0  0  0  0  0  0  0  0
    5.0777   14.7789   40.5135 H   0  0  0  0  0  0  0  0  0  0  0  0
    4.1054   12.8261   41.7097 H   0  0  0  0  0  0  0  0  0  0  0  0
    1.5341   15.4899   43.9555 H   0  0  0  0  0  0  0  0  0  0  0  0
   -1.1084   18.9885   46.4697 H   0  0  0  0  0  0  0  0  0  0  0  0
   -2.0591   18.7619   44.9625 H   0  0  0  0  0  0  0  0  0  0  0  0
   -0.7193   17.6325   45.3577 H   0  0  0  0  0  0  0  0  0  0  0  0
    0.9922   22.2872   43.6874 H   0  0  0  0  0  0  0  0  0  0  0  0
    2.9098   22.0572   42.3122 H   0  0  0  0  0  0  0  0  0  0  0  0
    4.0608   20.9651   41.4965 H   0  0  0  0  0  0  0  0  0  0  0  0
  1  2  2  0
  1  6  1  0
  2  3  1  0
  3  4  2  0
  4  5  1  0
  5  6  2  0
  6  7  1  0
  7  8  2  0
  7  9  1  0
  8 16  1  0
  9 10  2  0
 10 11  1  0
 10 15  1  0
 11 12  1  0
 11 13  1  0
 13 14  2  0
 14 15  1  0
 15 16  2  0
 16 17  1  0
  1 18  1  0
  2 19  1  0
  3 20  1  0
  5 21  1  0
 12 22  1  0
 12 23  1  0
 12 24  1  0
 14 25  1  0
 17 26  1  0
 17 27  1  0
M  END
>  <mol_id>  (27) 
2026-09-17-6fnk-s0-n100-0027

>  <rmsd_to_ref>  (27) 
1.64795918367673

>  <pose_kind>  (27) 
rigid

$$$$
6fnk.A
     RDKit          3D

 27 29  0  0  0  0  0  0  0  0999 V2000
    2.9561   17.3345   41.5874 C   0  0  0  0  0  0  0  0  0  0  0  0
    3.5981   16.2937   40.9461 C   0  0  0  0  0  0  0  0  0  0  0  0
    3.8438   15.1497   41.7127 C   0  0  0  0  0  0  0  0  0  0  0  0
    3.4795   15.0715   42.9842 N   0  0  0  0  0  0  0  0  0  0  0  0
    2.8611   16.0915   43.5783 C   0  0  0  0  0  0  0  0  0  0  0  0
    2.5730   17.2593   42.9154 C   0  0  0  0  0  0  0  0  0  0  0  0
    1.8983   18.3948   43.5330 C   0  0  0  0  0  0  0  0  0  0  0  0
    1.6390   19.5201   42.8352 N   0  0  0  0  0  0  0  0  0  0  0  0
    1.5241   18.3241   44.8262 N   0  0  0  0  0  0  0  0  0  0  0  0
    0.8905   19.3666   45.4383 C   0  0  0  0  0  0  0  0  0  0  0  0
    0.4156   19.5700   46.6816 N   0  0  0  0  0  0  0  0  0  0  0  0
    0.4725   18.6161   47.7941 C   0  0  0  0  0  0  0  0  0  0  0  0
   -0.1131   20.7822   46.7280 N   0  0  0  0  0  0  0  0  0  0  0  0
   -0.0056   21.3968   45.5499 C   0  0  0  0  0  0  0  0  0  0  0  0
    0.6333   20.5099   44.7093 C   0  0  0  0  0  0  0  0  0  0  0  0
    1.0169   20.5837   43.3823 C   0  0  0  0  0  0  0  0  0  0  0  0
    0.7686   21.7505   42.5932 N   0  0  0  0  0  0  0  0  0  0  0  0
    2.7480   18.2408   41.0233 H   0  0  0  0  0  0  0  0  0  0  0  0
    3.8960   16.3587   39.9049 H   0  0  0  0  0  0  0  0  0  0  0  0
    4.3517   14.3423   41.1833 H   0  0  0  0  0  0  0  0  0  0  0  0
    2.5847   15.9829   44.6098 H   0  0  0  0  0  0  0  0  0  0  0  0
    0.4439   19.2165   48.7248 H   0  0  0  0  0  0  0  0  0  0  0  0
   -0.4601   18.0010   47.8268 H   0  0  0  0  0  0  0  0  0  0  0  0
    1.3525   17.9736   47.7048 H   0  0  0  0  0  0  0  0  0  0  0  0
   -0.3264   22.3840   45.2365 H   0  0  0  0  0  0  0  0  0  0  0  0
    1.5655   22.1590   42.0233 H   0  0  0  0  0  0  0  0  0  0  0  0
   -0.1855   22.1799   42.5893 H   0  0  0  0  0  0  0  0  0  0  0  0
  1  2  2  0
  1  6  1  0
  2  3  1  0
  3  4  2  0
  4  5  1  0
  5  6  2  0
  6  7  1  0
  7  8  2  0
  7  9  1  0
  8 16  1  0
  9 10  2  0
 10 11  1  0
 10 15  1  0
 11 12  1  0
 11 13  1  0
 13 14  2  0
 14 15  1  0
 15 16  2  0
 16 17  1  0
  1 18  1  0
  2 19  1  0
  3 20  1  0
  5 21  1  0
 12 22  1  0
 12 23  1  0
 12 24  1  0
 14 25  1  0
 17 26  1  0
 17 27  1  0
M  END
>  <mol_id>  (28) 
2026-09-17-6fnk-s0-n100-0028

>  <rmsd_to_ref>  (28) 
1.6938775510225488

>  <pose_kind>  (28) 
conformer

$$$$
6fnk.A
     RDKit          3D

 27 29  0  0  0  0  0  0  0  0999 V2000
    3.6617   17.0457   40.6677 C   0  0  0  0  0  0  0  0  0  0  0  0
    4.3134   15.9132   40.1790 C   0  0  0  0  0  0  0  0  0  0  0  0
    4.1784   14.6987   40.8357 C   0  0  0  0  0  0  0  0  0  0  0  0
    3.3866   14.6105   41.9840 N   0  0  0  0  0  0  0  0  0  0  0  0
    2.7334   15.7515   42.4740 C   0  0  0  0  0  0  0  0  0  0  0  0
    2.8698   16.9726   41.8162 C   0  0  0  0  0  0  0  0  0  0  0  0
    2.2195   18.1088   42.3084 C   0  0  0  0  0  0  0  0  0  0  0  0
    2.4725   19.3233   41.8013 N   0  0  0  0  0  0  0  0  0  0  0  0
    1.3258   17.9886   43.2953 N   0  0  0  0  0  0  0  0  0  0  0  0
    0.6869   19.0588   43.8004 C   0  0  0  0  0  0  0  0  0  0  0  0
   -0.2198   19.1853   44.7813 N   0  0  0  0  0  0  0  0  0  0  0  0
   -0.7716   18.0940   45.5896 C   0  0  0  0  0  0  0  0  0  0  0  0
   -0.5485   20.3646   44.9173 N   0  0  0  0  0  0  0  0  0  0  0  0
    0.1164   21.0765   43.9926 C   0  0  0  0  0  0  0  0  0  0  0  0
    0.9228   20.2655   43.2949 C   0  0  0  0  0  0  0  0  0  0  0  0
    1.8243   20.3997   42.2835 C   0  0  0  0  0  0  0  0  0  0  0  0
    2.0919   21.6150   41.7470 N   0  0  0  0  0  0  0  0  0  0  0  0
    3.7724   18.0062   40.1432 H   0  0  0  0  0  0  0  0  0  0  0  0
    4.9340   15.9832   39.2735 H   0  0  0  0  0  0  0  0  0  0  0  0
    4.6943   13.8057   40.4529 H   0  0  0  0  0  0  0  0  0  0  0  0
    2.1124   15.6822   43.3793 H   0  0  0  0  0  0  0  0  0  0  0  0
   -0.6693   18.3401   46.6569 H   0  0  0  0  0  0  0  0  0  0  0  0
   -1.8355   17.9583   45.3451 H   0  0  0  0  0  0  0  0  0  0  0  0
   -0.2244   17.1646   45.3735 H   0  0  0  0  0  0  0  0  0  0  0  0
    0.0143   22.1600   43.8325 H   0  0  0  0  0  0  0  0  0  0  0  0
    1.6073   22.4522   42.1009 H   0  0  0  0  0  0  0  0  0  0  0  0
    2.7798   21.7015   40.9853 H   0  0  0  0  0  0  0  0  0  0  0  0
  1  2  2  0
  1  6  1  0
  2  3  1  0
  3  4  2  0
  4  5  1  0
  5  6  2  0
  6  7  1  0
  7  8  2  0
  7  9  1  0
  8 16  1  0
  9 10  2  0
 10 11  1  0
 10 15  1  0
 11 12  1  0
 11 13  1  0
 13 14  2  0
 14 15  1  0
 15 16  2  0
 16 17  1  0
  1 18  1  0
  2 19  1  0
  3 20  1  0
  5 21  1  0
 12 22  1  0
 12 23  1  0
 12 24  1  0
 14 25  1  0
 17 26  1  0
 17 27  1  0
M  END
>  <mol_id>  (29) 
2026-09-17-6fnk-s0-n100-0029

>  <rmsd_to_ref>  (29) 
1.739795918372865

>  <pose_kind>  (29) 
rigid

$$$$
6fnk.A
     RDKit          3D

 27 29  0  0  0  0  0  0  0  0999 V2000
    3.1114   17.0330   41.3977 C   0  0  0  0  0  0  0  0  0  0  0  0
    3.8519   15.9609   40.9406 C   0  0  0  0  0  0  0  0  0  0  0  0
    3.7337   14.7706   41.6660 C   0  0  0  0  0  0  0  0  0  0  0  0
    2.9531   14.6794   42.7328 N   0  0  0  0  0  0  0  0  0  0  0  0
    2.2492   15.7304   43.1519 C   0  0  0  0  0  0  0  0  0  0  0  0
    2.2942   16.9443   42.5114 C   0  0  0  0  0  0  0  0  0  0  0  0
    1.5383   18.1146   42.9417 C   0  0  0  0  0  0  0  0  0  0  0  0
    1.6191   19.2849   42.2751 N   0  0  0  0  0  0  0  0  0  0  0  0
    0.7416   18.0310   44.0260 N   0  0  0  0  0  0  0  0  0  0  0  0
    0.0190   19.1050   44.4585 C   0  0  0  0  0  0  0  0  0  0  0  0
   -0.8340   19.3055   45.4808 N   0  0  0  0  0  0  0  0  0  0  0  0
   -1.2326   18.3092   46.4806 C   0  0  0  0  0  0  0  0  0  0  0  0
   -1.2527   20.5597   45.4287 N   0  0  0  0  0  0  0  0  0  0  0  0
   -0.7036   21.2054   44.3996 C   0  0  0  0  0  0  0  0  0  0  0  0
    0.1137   20.2943   43.7648 C   0  0  0  0  0  0  0  0  0  0  0  0
    0.9308   20.3813   42.6520 C   0  0  0  0  0  0  0  0  0  0  0  0
    1.0562   21.5953   41.9061 N   0  0  0  0  0  0  0  0  0  0  0  0
    3.1778   17.9756   40.8592 H   0  0  0  0  0  0  0  0  0  0  0  0
    4.4908   16.0366   40.0670 H   0  0  0  0  0  0  0  0  0  0  0  0
    4.3283   13.9392   41.2847 H   0  0  0  0  0  0  0  0  0  0  0  0
    1.6305   15.6097   44.0208 H   0  0  0  0  0  0  0  0  0  0  0  0
   -1.5305   18.8741   47.3859 H   0  0  0  0  0  0  0  0  0  0  0  0
   -2.1646   17.7845   46.1563 H   0  0  0  0  0  0  0  0  0  0  0  0
   -0.4265   17.5900   46.6489 H   0  0  0  0  0  0  0  0  0  0  0  0
   -0.8221   22.2296   44.0642 H   0  0  0  0  0  0  0  0  0  0  0  0
    2.0282   21.9477   41.6661 H   0  0  0  0  0  0  0  0  0  0  0  0
    0.1963   22.1130   41.6109 H   0  0  0  0  0  0  0  0  0  0  0  0
  1  2  2  0
  1  6  1  0
  2  3  1  0
  3  4  2  0
  4  5  1  0
  5  6  2  0
  6  7  1  0
  7  8  2  0
  7  9  1  0
  8 16  1  0
  9 10  2  0
 10 11  1  0
 10 15  1  0
 11 12  1  0
 11 13  1  0
 13 14  2  0
 14 15  1  0
 15 16  2  0
 16 17  1  0
  1 18  1  0
  2 19  1  0
  3 20  1  0
  5 21  1  0
 12 22  1  0
 12 23  1  0
 12 24  1  0
 14 25  1  0
 17 26  1  0
 17 27  1  0
M  END
>  <mol_id>  (30) 
2026-09-17-6fnk-s0-n100-0030

>  <rmsd_to_ref>  (30) 
1.7857142857175374

>  <pose_kind>  (30) 
conformer

$$$$
6fnk.A
     RDKit          3D

 27 29  0  0  0  0  0  0  0  0999 V2000
    3.4072   16.7268   40.9648 C   0  0  0  0  0  0  0  0  0  0  0  0
    4.0038   15.5734   40.4550 C   0  0  0  0  0  0  0  0  0  0  0  0
    3.7709   14.3473   41.0606 C   0  0  0  0  0  0  0  0  0  0  0  0
    2.9358   14.2685   42.1786 N   0  0  0  0  0  0  0  0  0  0  0  0
    2.3383   15.4305   42.6900 C   0  0  0  0  0  0  0  0  0  0  0  0
    2.5730   16.6631   42.0835 C   0  0  0  0  0  0  0  0  0  0  0  0
    1.9779   17.8200   42.5970 C   0  0  0  0  0  0  0  0  0  0  0  0
    2.3233   19.0332   42.1446 N   0  0  0  0  0  0  0  0  0  0  0  0
    1.0448   17.7216   43.5493 N   0  0  0  0  0  0  0  0  0  0  0  0
    0.4566   18.8115   44.0735 C   0  0  0  0  0  0  0  0  0  0  0  0
   -0.4739   18.9601   45.0287 N   0  0  0  0  0  0  0  0  0  0  0  0
   -1.1202   17.8778   45.7770 C   0  0  0  0  0  0  0  0  0  0  0  0
   -0.7332   20.1521   45.1985 N   0  0  0  0  0  0  0  0  0  0  0  0
    0.0063   20.8531   44.3232 C   0  0  0  0  0  0  0  0  0  0  0  0
    0.7845   20.0180   43.6218 C   0  0  0  0  0  0  0  0  0  0  0  0
    1.7269   20.1308   42.6460 C   0  0  0  0  0  0  0  0  0  0  0  0
    2.0879   21.3449   42.1646 N   0  0  0  0  0  0  0  0  0  0  0  0
    3.5954   17.6964   40.4807 H   0  0  0  0  0  0  0  0  0  0  0  0
    4.6586   15.6362   39.5733 H   0  0  0  0  0  0  0  0  0  0  0  0
    4.2433   13.4377   40.6614 H   0  0  0  0  0  0  0  0  0  0  0  0
    1.6833   15.3684   43.5715 H   0  0  0  0  0  0  0  0  0  0  0  0
   -1.0397   18.0788   46.8555 H   0  0  0  0  0  0  0  0  0  0  0  0
   -2.1813   17.8186   45.4933 H   0  0  0  0  0  0  0  0  0  0  0  0
   -0.6246   16.9239   45.5437 H   0  0  0  0  0  0  0  0  0  0  0  0
   -0.0227   21.9459   44.2009 H   0  0  0  0  0  0  0  0  0  0  0  0
    1.6444   22.1980   42.5339 H   0  0  0  0  0  0  0  0  0  0  0  0
    2.8059   21.4149   41.4293 H   0  0  0  0  0  0  0  0  0  0  0  0
  1  2  2  0
  1  6  1  0
  2  3  1  0
  3  4  2  0
  4  5  1  0
  5  6  2  0
  6  7  1  0
  7  8  2  0
  7  9  1  0
  8 16  1  0
  9 10  2  0
 10 11  1  0
 10 15  1  0
 11 12  1  0
 11 13  1  0
 13 14  2  0
 14 15  1  0
 15 16  2  0
 16 17  1  0
  1 18  1  0
  2 19  1  0
  3 20  1  0
  5 21  1  0
 12 22  1  0
 12 23  1  0
 12 24  1  0
 14 25  1  0
 17 26  1  0
 17 27  1  0
M  END
>  <mol_id>  (31) 
2026-09-17-6fnk-s0-n100-0031

>  <rmsd_to_ref>  (31) 
1.8316326530668439

>  <pose_kind>  (31) 
rigid

$$$$
6fnk.A
     RDKit          3D

 27 29  0  0  0  0  0  0  0  0999 V2000
    3.3020   16.2241   41.1921 C   0  0  0  0  0  0  0  0  0  0  0  0
    3.7081   15.0599   40.5707 C   0  0  0  0  0  0  0  0  0  0  0  0
    2.8047   13.9923   40.6014 C   0  0  0  0  0  0  0  0  0  0  0  0
    1.6245   14.0951   41.1947 N   0  0  0  0  0  0  0  0  0  0  0  0
    1.2580   15.2312   41.7870 C   0  0  0  0  0  0  0  0  0  0  0  0
    2.0704   16.3380   41.8138 C   0  0  0  0  0  0  0  0  0  0  0  0
    1.7025   17.5964   42.4519 C   0  0  0  0  0  0  0  0  0  0  0  0
    2.5395   18.6546   42.4491 N   0  0  0  0  0  0  0  0  0  0  0  0
    0.5036   17.7100   43.0581 N   0  0  0  0  0  0  0  0  0  0  0  0
    0.1246   18.8718   43.6659 C   0  0  0  0  0  0  0  0  0  0  0  0
   -0.9805   19.2605   44.3295 N   0  0  0  0  0  0  0  0  0  0  0  0
   -2.1681   18.4386   44.5848 C   0  0  0  0  0  0  0  0  0  0  0  0
   -0.8111   20.5155   44.7137 N   0  0  0  0  0  0  0  0  0  0  0  0
    0.3773   20.9786   44.3254 C   0  0  0  0  0  0  0  0  0  0  0  0
    0.9933   19.9441   43.6533 C   0  0  0  0  0  0  0  0  0  0  0  0
    2.2236   19.8287   43.0316 C   0  0  0  0  0  0  0  0  0  0  0  0
    3.1517   20.9165   42.9968 N   0  0  0  0  0  0  0  0  0  0  0  0
    3.9779   17.0761   41.1887 H   0  0  0  0  0  0  0  0  0  0  0  0
    4.6747   14.9766   40.0851 H   0  0  0  0  0  0  0  0  0  0  0  0
    3.1492   13.0845   40.1038 H   0  0  0  0  0  0  0  0  0  0  0  0
    0.2926   15.2680   42.2550 H   0  0  0  0  0  0  0  0  0  0  0  0
   -2.6461   18.8509   45.4952 H   0  0  0  0  0  0  0  0  0  0  0  0
   -2.9252   18.5881   43.7764 H   0  0  0  0  0  0  0  0  0  0  0  0
   -1.8950   17.3829   44.6636 H   0  0  0  0  0  0  0  0  0  0  0  0
    0.8376   21.9499   44.4678 H   0  0  0  0  0  0  0  0  0  0  0  0
    4.1609   20.7341   43.2711 H   0  0  0  0  0  0  0  0  0  0  0  0
    2.8256   21.8666   42.7043 H   0  0  0  0  0  0  0  0  0  0  0  0
  1  2  2  0
  1  6  1  0
  2  3  1  0
  3  4  2  0
  4  5  1  0
  5  6  2  0
  6  7  1  0
  7  8  2  0
  7  9  1  0
  8 16  1  0
  9 10  2  0
 10 11  1  0
 10 15  1  0
 11 12  1  0
 11 13  1  0
 13 14  2  0
 14 15  1  0
 15 16  2  0
 16 17  1  0
  1 18  1  0
  2 19  1  0
  3 20  1  0
  5 21  1  0
 12 22  1  0
 12 23  1  0
 12 24  1  0
 14 25  1  0
 17 26  1  0
 17 27  1  0
M  END
>  <mol_id>  (32) 
2026-09-17-6fnk-s0-n100-0032

>  <rmsd_to_ref>  (32) 
1.8775510204085604

>  <pose_kind>  (32) 
conformer

$$$$
6fnk.A
     RDKit          3D

 27 29  0  0  0  0  0  0  0  0999 V2000
    3.0778   16.7677   41.6922 C   0  0  0  0  0  0  0  0  0  0  0  0
    3.5439   15.5061   41.3216 C   0  0  0  0  0  0  0  0  0  0  0  0
    3.1328   14.3821   42.0231 C   0  0  0  0  0  0  0  0  0  0  0  0
    2.2493   14.5146   43.0979 N   0  0  0  0  0  0  0  0  0  0  0  0
    1.7833   15.7850   43.4693 C   0  0  0  0  0  0  0  0  0  0  0  0
    2.1972   16.9151   42.7665 C   0  0  0  0  0  0  0  0  0  0  0  0
    1.7328   18.1803   43.1405 C   0  0  0  0  0  0  0  0  0  0  0  0
    2.2475   19.2927   42.5986 N   0  0  0  0  0  0  0  0  0  0  0  0
    0.7565   18.2894   44.0472 N   0  0  0  0  0  0  0  0  0  0  0  0
    0.2900   19.4886   44.4384 C   0  0  0  0  0  0  0  0  0  0  0  0
   -0.6525   19.8417   45.3256 N   0  0  0  0  0  0  0  0  0  0  0  0
   -1.4609   18.9241   46.1340 C   0  0  0  0  0  0  0  0  0  0  0  0
   -0.7653   21.0673   45.3724 N   0  0  0  0  0  0  0  0  0  0  0  0
    0.0922   21.5845   44.4773 C   0  0  0  0  0  0  0  0  0  0  0  0
    0.7865   20.5965   43.8968 C   0  0  0  0  0  0  0  0  0  0  0  0
    1.7750   20.4982   42.9660 C   0  0  0  0  0  0  0  0  0  0  0  0
    2.3064   21.6069   42.3960 N   0  0  0  0  0  0  0  0  0  0  0  0
    3.4071   17.6555   41.1327 H   0  0  0  0  0  0  0  0  0  0  0  0
    4.2369   15.4028   40.4737 H   0  0  0  0  0  0  0  0  0  0  0  0
    3.5020   13.3872   41.7336 H   0  0  0  0  0  0  0  0  0  0  0  0
    1.0901   15.8891   44.3169 H   0  0  0  0  0  0  0  0  0  0  0  0
   -1.3999   19.2171   47.1925 H   0  0  0  0  0  0  0  0  0  0  0  0
   -2.5084   18.9680   45.8012 H   0  0  0  0  0  0  0  0  0  0  0  0
   -1.0810   17.8986   46.0150 H   0  0  0  0  0  0  0  0  0  0  0  0
    0.2071   22.6557   44.2549 H   0  0  0  0  0  0  0  0  0  0  0  0
    1.9597   22.5395   42.6623 H   0  0  0  0  0  0  0  0  0  0  0  0
    3.0570   21.5169   41.6963 H   0  0  0  0  0  0  0  0  0  0  0  0
  1  2  2  0
  1  6  1  0
  2  3  1  0
  3  4  2  0
  4  5  1  0
  5  6  2  0
  6  7  1  0
  7  8  2  0
  7  9  1  0
  8 16  1  0
  9 10  2  0
 10 11  1  0
 10 15  1  0
 11 12  1  0
 11 13  1  0
 13 14  2  0
 14 15  1  0
 15 16  2  0
 16 17  1  0
  1 18  1  0
  2 19  1  0
  3 20  1  0
  5 21  1  0
 12 22  1  0
 12 23  1  0
 12 24  1  0
 14 25  1  0
 17 26  1  0
 17 27  1  0
M  END
>  <mol_id>  (33) 
2026-09-17-6fnk-s0-n100-0033

>  <rmsd_to_ref>  (33) 
1.9234693877607454

>  <pose_kind>  (33) 
rigid

$$$$
6fnk.A
     RDKit          3D

 27 29  0  0  0  0  0  0  0  0999 V2000
    5.0310   17.2003   41.5475 C   0  0  0  0  0  0  0  0  0  0  0  0
    5.7641   16.1448   41.0421 C   0  0  0  0  0  0  0  0  0  0  0  0
    5.2372   14.8662   41.2527 C   0  0  0  0  0  0  0  0  0  0  0  0
    4.0972   14.6805   41.9017 N   0  0  0  0  0  0  0  0  0  0  0  0
    3.4100   15.7176   42.3792 C   0  0  0  0  0  0  0  0  0  0  0  0
    3.8395   17.0131   42.2266 C   0  0  0  0  0  0  0  0  0  0  0  0
    3.1140   18.1711   42.7353 C   0  0  0  0  0  0  0  0  0  0  0  0
    3.5814   19.4242   42.5575 N   0  0  0  0  0  0  0  0  0  0  0  0
    1.9532   17.9916   43.3970 N   0  0  0  0  0  0  0  0  0  0  0  0
    1.2464   19.0512   43.8875 C   0  0  0  0  0  0  0  0  0  0  0  0
    0.0907   19.1673   44.5683 N   0  0  0  0  0  0  0  0  0  0  0  0
   -0.7774   18.0630   44.9904 C   0  0  0  0  0  0  0  0  0  0  0  0
   -0.1287   20.4529   44.7924 N   0  0  0  0  0  0  0  0  0  0  0  0
    0.8483   21.2017   44.2804 C   0  0  0  0  0  0  0  0  0  0  0  0
    1.7393   20.3261   43.6965 C   0  0  0  0  0  0  0  0  0  0  0  0
    2.9302   20.5115   43.0177 C   0  0  0  0  0  0  0  0  0  0  0  0
    3.4742   21.8162   42.7993 N   0  0  0  0  0  0  0  0  0  0  0  0
    5.4093   18.2097   41.4033 H   0  0  0  0  0  0  0  0  0  0  0  0
    6.6976   16.2979   40.5107 H   0  0  0  0  0  0  0  0  0  0  0  0
    5.8348   14.0501   40.8440 H   0  0  0  0  0  0  0  0  0  0  0  0
    2.4917   15.5190   42.8983 H   0  0  0  0  0  0  0  0  0  0  0  0
   -1.3388   18.4247   45.8743 H   0  0  0  0  0  0  0  0  0  0  0  0
   -1.5617   17.8684   44.2184 H   0  0  0  0  0  0  0  0  0  0  0  0
   -0.1886   17.1604   45.1747 H   0  0  0  0  0  0  0  0  0  0  0  0
    0.9877   22.2769   44.2799 H   0  0  0  0  0  0  0  0  0  0  0  0
    4.4961   21.9873   43.0302 H   0  0  0  0  0  0  0  0  0  0  0  0
    2.8630   22.5752   42.4188 H   0  0  0  0  0  0  0  0  0  0  0  0
  1  2  2  0
  1  6  1  0
  2  3  1  0
  3  4  2  0
  4  5  1  0
  5  6  2  0
  6  7  1  0
  7  8  2  0
  7  9  1  0
  8 16  1  0
  9 10  2  0
 10 11  1  0
 10 15  1  0
 11 12  1  0
 11 13  1  0
 13 14  2  0
 14 15  1  0
 15 16  2  0
 16 17  1  0
  1 18  1  0
  2 19  1  0
  3 20  1  0
  5 21  1  0
 12 22  1  0
 12 23  1  0
 12 24  1  0
 14 25  1  0
 17 26  1  0
 17 27  1  0
M  END
>  <mol_id>  (34) 
2026-09-17-6fnk-s0-n100-0034

>  <rmsd_to_ref>  (34) 
1.9693877551062735

>  <pose_kind>  (34) 
conformer

$$$$
6fnk.A
     RDKit          3D

 27 29  0  0  0  0  0  0  0  0999 V2000
    3.3934   16.9132   41.7903 C   0  0  0  0  0  0  0  0  0  0  0  0
    4.0055   15.7334   41.3671 C   0  0  0  0  0  0  0  0  0  0  0  0
    3.6987   14.5320   41.9893 C   0  0  0  0  0  0  0  0  0  0  0  0
    2.7738   14.5048   43.0368 N   0  0  0  0  0  0  0  0  0  0  0  0
    2.1609   15.6934   43.4612 C   0  0  0  0  0  0  0  0  0  0  0  0
    2.4698   16.9011   42.8382 C   0  0  0  0  0  0  0  0  0  0  0  0
    1.8589   18.0848   43.2651 C   0  0  0  0  0  0  0  0  0  0  0  0
    2.2651   19.2762   42.8052 N   0  0  0  0  0  0  0  0  0  0  0  0
    0.8495   18.0344   44.1401 N   0  0  0  0  0  0  0  0  0  0  0  0
    0.2432   19.1513   44.5803 C   0  0  0  0  0  0  0  0  0  0  0  0
   -0.7587   19.3477   45.4508 N   0  0  0  0  0  0  0  0  0  0  0  0
   -1.4861   18.3022   46.1766 C   0  0  0  0  0  0  0  0  0  0  0  0
   -1.0062   20.5492   45.5617 N   0  0  0  0  0  0  0  0  0  0  0  0
   -0.1835   21.2077   44.7288 C   0  0  0  0  0  0  0  0  0  0  0  0
    0.6318   20.3363   44.1198 C   0  0  0  0  0  0  0  0  0  0  0  0
    1.6527   20.4000   43.2216 C   0  0  0  0  0  0  0  0  0  0  0  0
    2.0768   21.5913   42.7341 N   0  0  0  0  0  0  0  0  0  0  0  0
    3.6405   17.8630   41.2936 H   0  0  0  0  0  0  0  0  0  0  0  0
    4.7311   15.7554   40.5407 H   0  0  0  0  0  0  0  0  0  0  0  0
    4.1831   13.6014   41.6585 H   0  0  0  0  0  0  0  0  0  0  0  0
    1.4350   15.6719   44.2875 H   0  0  0  0  0  0  0  0  0  0  0  0
   -1.4896   18.5367   47.2514 H   0  0  0  0  0  0  0  0  0  0  0  0
   -2.5216   18.2532   45.8087 H   0  0  0  0  0  0  0  0  0  0  0  0
   -0.9930   17.3324   46.0145 H   0  0  0  0  0  0  0  0  0  0  0  0
   -0.1797   22.2963   44.5708 H   0  0  0  0  0  0  0  0  0  0  0  0
    1.6224   22.4637   43.0393 H   0  0  0  0  0  0  0  0  0  0  0  0
    2.8536   21.6241   42.0585 H   0  0  0  0  0  0  0  0  0  0  0  0
  1  2  2  0
  1  6  1  0
  2  3  1  0
  3  4  2  0
  4  5  1  0
  5  6  2  0
  6  7  1  0
  7  8  2  0
  7  9  1  0
  8 16  1  0
  9 10  2  0
 10 11  1  0
 10 15  1  0
 11 12  1  0
 11 13  1  0
 13 14  2  0
 14 15  1  0
 15 16  2  0
 16 17  1  0
  1 18  1  0
  2 19  1  0
  3 20  1  0
  5 21  1  0
 12 22  1  0
 12 23  1  0
 12 24  1  0
 14 25  1  0
 17 26  1  0
 17 27  1  0
M  END
>  <mol_id>  (35) 
2026-09-17-6fnk-s0-n100-0035

>  <rmsd_to_ref>  (35) 
2.015306122451059

>  <pose_kind>  (35) 
rigid

$$$$
6fnk.A
     RDKit          3D

 27 29  0  0  0  0  0  0  0  0999 V2000
    3.6065   16.2633   42.3355 C   0  0  0  0  0  0  0  0  0  0  0  0
    4.2428   15.1120   41.9156 C   0  0  0  0  0  0  0  0  0  0  0  0
    3.5654   13.9096   42.1450 C   0  0  0  0  0  0  0  0  0  0  0  0
    2.3785   13.8798   42.7330 N   0  0  0  0  0  0  0  0  0  0  0  0
    1.7871   15.0067   43.1283 C   0  0  0  0  0  0  0  0  0  0  0  0
    2.3666   16.2390   42.9504 C   0  0  0  0  0  0  0  0  0  0  0  0
    1.7491   17.4915   43.3700 C   0  0  0  0  0  0  0  0  0  0  0  0
    2.3627   18.6764   43.1707 N   0  0  0  0  0  0  0  0  0  0  0  0
    0.5416   17.4706   43.9690 N   0  0  0  0  0  0  0  0  0  0  0  0
   -0.0674   18.6226   44.3754 C   0  0  0  0  0  0  0  0  0  0  0  0
   -1.2379   18.8955   44.9823 N   0  0  0  0  0  0  0  0  0  0  0  0
   -2.2456   17.9134   45.3957 C   0  0  0  0  0  0  0  0  0  0  0  0
   -1.3237   20.2063   45.1424 N   0  0  0  0  0  0  0  0  0  0  0  0
   -0.2428   20.8193   44.6594 C   0  0  0  0  0  0  0  0  0  0  0  0
    0.5746   19.8257   44.1636 C   0  0  0  0  0  0  0  0  0  0  0  0
    1.8137   19.8482   43.5490 C   0  0  0  0  0  0  0  0  0  0  0  0
    2.5114   21.0741   43.3117 N   0  0  0  0  0  0  0  0  0  0  0  0
    4.1026   17.2175   42.1741 H   0  0  0  0  0  0  0  0  0  0  0  0
    5.2148   15.1373   41.4342 H   0  0  0  0  0  0  0  0  0  0  0  0
    4.0890   13.0152   41.8043 H   0  0  0  0  0  0  0  0  0  0  0  0
    0.8258   14.9337   43.6002 H   0  0  0  0  0  0  0  0  0  0  0  0
   -2.8098   18.3742   46.2304 H   0  0  0  0  0  0  0  0  0  0  0  0
   -3.0042   17.7709   44.5874 H   0  0  0  0  0  0  0  0  0  0  0  0
   -1.7725   16.9610   45.6495 H   0  0  0  0  0  0  0  0  0  0  0  0
    0.0160   21.8716   44.6250 H   0  0  0  0  0  0  0  0  0  0  0  0
    3.5319   21.1425   43.5951 H   0  0  0  0  0  0  0  0  0  0  0  0
    2.0103   21.8776   42.8666 H   0  0  0  0  0  0  0  0  0  0  0  0
  1  2  2  0
  1  6  1  0
  2  3  1  0
  3  4  2  0
  4  5  1  0
  5  6  2  0
  6  7  1  0
  7  8  2  0
  7  9  1  0
  8 16  1  0
  9 10  2  0
 10 11  1  0
 10 15  1  0
 11 12  1  0
 11 13  1  0
 13 14  2  0
 14 15  1  0
 15 16  2  0
 16 17  1  0
  1 18  1  0
  2 19  1  0
  3 20  1  0
  5 21  1  0
 12 22  1  0
 12 23  1  0
 12 24  1  0
 14 25  1  0
 17 26  1  0
 17 27  1  0
M  END
>  <mol_id>  (36) 
2026-09-17-6fnk-s0-n100-0036

>  <rmsd_to_ref>  (36) 
2.0612244898022376

>  <pose_kind>  (36) 
conformer

$$$$
6fnk.A
     RDKit          3D

 27 29  0  0  0  0  0  0  0  0999 V2000
    2.6605   16.4519   41.3104 C   0  0  0  0  0  0  0  0  0  0  0  0
    3.0382   15.2435   40.7246 C   0  0  0  0  0  0  0  0  0  0  0  0
    2.7266   14.0442   41.3481 C   0  0  0  0  0  0  0  0  0  0  0  0
    2.0313   14.0478   42.5605 N   0  0  0  0  0  0  0  0  0  0  0  0
    1.6541   15.2649   43.1481 C   0  0  0  0  0  0  0  0  0  0  0  0
    1.9682   16.4706   42.5235 C   0  0  0  0  0  0  0  0  0  0  0  0
    1.5929   17.6821   43.1128 C   0  0  0  0  0  0  0  0  0  0  0  0
    2.0323   18.8514   42.6273 N   0  0  0  0  0  0  0  0  0  0  0  0
    0.7784   17.6822   44.1728 N   0  0  0  0  0  0  0  0  0  0  0  0
    0.4026   18.8264   44.7716 C   0  0  0  0  0  0  0  0  0  0  0  0
   -0.3774   19.0711   45.8355 N   0  0  0  0  0  0  0  0  0  0  0  0
   -1.0601   18.0634   46.6526 C   0  0  0  0  0  0  0  0  0  0  0  0
   -0.4596   20.2825   46.0422 N   0  0  0  0  0  0  0  0  0  0  0  0
    0.2505   20.9029   45.0857 C   0  0  0  0  0  0  0  0  0  0  0  0
    0.8241   19.9912   44.2889 C   0  0  0  0  0  0  0  0  0  0  0  0
    1.6468   20.0046   43.2044 C   0  0  0  0  0  0  0  0  0  0  0  0
    2.0981   21.1735   42.6882 N   0  0  0  0  0  0  0  0  0  0  0  0
    2.9103   17.4000   40.8117 H   0  0  0  0  0  0  0  0  0  0  0  0
    3.5828   15.2417   39.7688 H   0  0  0  0  0  0  0  0  0  0  0  0
    3.0266   13.0908   40.8886 H   0  0  0  0  0  0  0  0  0  0  0  0
    1.1092   15.2675   44.1036 H   0  0  0  0  0  0  0  0  0  0  0  0
   -0.8232   18.2301   47.7138 H   0  0  0  0  0  0  0  0  0  0  0  0
   -2.1467   18.1443   46.5023 H   0  0  0  0  0  0  0  0  0  0  0  0
   -0.7225   17.0598   46.3548 H   0  0  0  0  0  0  0  0  0  0  0  0
    0.3465   21.9928   44.9736 H   0  0  0  0  0  0  0  0  0  0  0  0
    1.8155   22.0677   43.1141 H   0  0  0  0  0  0  0  0  0  0  0  0
    2.7237   21.1677   41.8699 H   0  0  0  0  0  0  0  0  0  0  0  0
  1  2  2  0
  1  6  1  0
  2  3  1  0
  3  4  2  0
  4  5  1  0
  5  6  2  0
  6  7  1  0
  7  8  2  0
  7  9  1  0
  8 16  1  0
  9 10  2  0
 10 11  1  0
 10 15  1  0
 11 12  1  0
 11 13  1  0
 13 14  2  0
 14 15  1  0
 15 16  2  0
 16 17  1  0
  1 18  1  0
  2 19  1  0
  3 20  1  0
  5 21  1  0
 12 22  1  0
 12 23  1  0
 12 24  1  0
 14 25  1  0
 17 26  1  0
 17 27  1  0
M  END
>  <mol_id>  (37) 
2026-09-17-6fnk-s0-n100-0037

>  <rmsd_to_ref>  (37) 
2.1071428571486197

>  <pose_kind>  (37) 
rigid

$$$$
6fnk.A
     RDKit          3D

 27 29  0  0  0  0  0  0  0  0999 V2000
    2.8925   15.1757   41.9859 C   0  0  0  0  0  0  0  0  0  0  0  0
    3.5835   14.5112   40.9923 C   0  0  0  0  0  0  0  0  0  0  0  0
    3.7835   15.2135   39.7990 C   0  0  0  0  0  0  0  0  0  0  0  0
    3.3333   16.4487   39.6340 N   0  0  0  0  0  0  0  0  0  0  0  0
    2.6691   17.0664   40.6101 C   0  0  0  0  0  0  0  0  0  0  0  0
    2.4197   16.4659   41.8197 C   0  0  0  0  0  0  0  0  0  0  0  0
    1.6968   17.1111   42.9094 C   0  0  0  0  0  0  0  0  0  0  0  0
    1.4788   16.4750   44.0791 N   0  0  0  0  0  0  0  0  0  0  0  0
    1.2353   18.3678   42.7502 N   0  0  0  0  0  0  0  0  0  0  0  0
    0.5545   19.0040   43.7476 C   0  0  0  0  0  0  0  0  0  0  0  0
   -0.0058   20.2226   43.8650 N   0  0  0  0  0  0  0  0  0  0  0  0
   -0.0192   21.2692   42.8377 C   0  0  0  0  0  0  0  0  0  0  0  0
   -0.5443   20.3146   45.0703 N   0  0  0  0  0  0  0  0  0  0  0  0
   -0.3602   19.1910   45.7639 C   0  0  0  0  0  0  0  0  0  0  0  0
    0.3405   18.3383   44.9374 C   0  0  0  0  0  0  0  0  0  0  0  0
    0.8138   17.0488   45.1019 C   0  0  0  0  0  0  0  0  0  0  0  0
    0.6127   16.3254   46.3193 N   0  0  0  0  0  0  0  0  0  0  0  0
    2.7177   14.6614   42.9281 H   0  0  0  0  0  0  0  0  0  0  0  0
    3.9517   13.4997   41.1283 H   0  0  0  0  0  0  0  0  0  0  0  0
    4.3317   14.6668   39.0305 H   0  0  0  0  0  0  0  0  0  0  0  0
    2.3234   18.0668   40.4312 H   0  0  0  0  0  0  0  0  0  0  0  0
   -0.9033   21.9035   43.0466 H   0  0  0  0  0  0  0  0  0  0  0  0
    0.8552   21.9528   42.9679 H   0  0  0  0  0  0  0  0  0  0  0  0
   -0.0142   20.8265   41.8381 H   0  0  0  0  0  0  0  0  0  0  0  0
   -0.6651   18.9239   46.7695 H   0  0  0  0  0  0  0  0  0  0  0  0
    0.2372   15.3339   46.2666 H   0  0  0  0  0  0  0  0  0  0  0  0
    0.8365   16.7795   47.2349 H   0  0  0  0  0  0  0  0  0  0  0  0
  1  2  2  0
  1  6  1  0
  2  3  1  0
  3  4  2  0
  4  5  1  0
  5  6  2  0
  6  7  1  0
  7  8  2  0
  7  9  1  0
  8 16  1  0
  9 10  2  0
 10 11  1  0
 10 15  1  0
 11 12  1  0
 11 13  1  0
 13 14  2  0
 14 15  1  0
 15 16  2  0
 16 17  1  0
  1 18  1  0
  2 19  1  0
  3 20  1  0
  5 21  1  0
 12 22  1  0
 12 23  1  0
 12 24  1  0
 14 25  1  0
 17 26  1  0
 17 27  1  0
M  END
>  <mol_id>  (38) 
2026-09-17-6fnk-s0-n100-0038

>  <rmsd_to_ref>  (38) 
2.153061224494499

>  <pose_kind>  (38) 
conformer

$$$$
6fnk.A
     RDKit          3D

 27 29  0  0  0  0  0  0  0  0999 V2000
    3.4793   16.3701   41.4434 C   0  0  0  0  0  0  0  0  0  0  0  0
    4.2508   15.3351   40.9147 C   0  0  0  0  0  0  0  0  0  0  0  0
    4.2795   14.1002   41.5462 C   0  0  0  0  0  0  0  0  0  0  0  0
    3.5325   13.8935   42.7091 N   0  0  0  0  0  0  0  0  0  0  0  0
    2.7586   14.9369   43.2395 C   0  0  0  0  0  0  0  0  0  0  0  0
    2.7305   16.1785   42.6071 C   0  0  0  0  0  0  0  0  0  0  0  0
    1.9601   17.2174   43.1393 C   0  0  0  0  0  0  0  0  0  0  0  0
    2.0521   18.4634   42.6549 N   0  0  0  0  0  0  0  0  0  0  0  0
    1.1119   16.9699   44.1425 N   0  0  0  0  0  0  0  0  0  0  0  0
    0.3610   17.9445   44.6860 C   0  0  0  0  0  0  0  0  0  0  0  0
   -0.5300   17.9403   45.6892 N   0  0  0  0  0  0  0  0  0  0  0  0
   -0.9261   16.7741   46.4841 C   0  0  0  0  0  0  0  0  0  0  0  0
   -0.9951   19.0681   45.8594 N   0  0  0  0  0  0  0  0  0  0  0  0
   -0.4439   19.8738   44.9369 C   0  0  0  0  0  0  0  0  0  0  0  0
    0.4372   19.1807   44.2032 C   0  0  0  0  0  0  0  0  0  0  0  0
    1.2908   19.4435   43.1758 C   0  0  0  0  0  0  0  0  0  0  0  0
    1.3964   20.6928   42.6615 N   0  0  0  0  0  0  0  0  0  0  0  0
    3.4604   17.3472   40.9388 H   0  0  0  0  0  0  0  0  0  0  0  0
    4.8360   15.4980   39.9977 H   0  0  0  0  0  0  0  0  0  0  0  0
    4.8898   13.2843   41.1318 H   0  0  0  0  0  0  0  0  0  0  0  0
    2.1729   14.7746   44.1564 H   0  0  0  0  0  0  0  0  0  0  0  0
   -0.8280   17.0093   47.5542 H   0  0  0  0  0  0  0  0  0  0  0  0
   -1.9715   16.5154   46.2600 H   0  0  0  0  0  0  0  0  0  0  0  0
   -0.2760   15.9224   46.2348 H   0  0  0  0  0  0  0  0  0  0  0  0
   -0.6799   20.9399   44.8040 H   0  0  0  0  0  0  0  0  0  0  0  0
    0.8232   21.4578   43.0450 H   0  0  0  0  0  0  0  0  0  0  0  0
    2.0500   20.8775   41.8871 H   0  0  0  0  0  0  0  0  0  0  0  0
  1  2  2  0
  1  6  1  0
  2  3  1  0
  3  4  2  0
  4  5  1  0
  5  6  2  0
  6  7  1  0
  7  8  2  0
  7  9  1  0
  8 16  1  0
  9 10  2  0
 10 11  1  0
 10 15  1  0
 11 12  1  0
 11 13  1  0
 13 14  2  0
 14 15  1  0
 15 16  2  0
 16 17  1  0
  1 18  1  0
  2 19  1  0
  3 20  1  0
  5 21  1  0
 12 22  1  0
 12 23  1  0
 12 24  1  0
 14 25  1  0
 17 26  1  0
 17 27  1  0
M  END
>  <mol_id>  (39) 
2026-09-17-6fnk-s0-n100-0039

>  <rmsd_to_ref>  (39) 
2.198979591841587

>  <pose_kind>  (39) 
rigid

$$$$
6fnk.A
     RDKit          3D

 27 29  0  0  0  0  0  0  0  0999 V2000
    3.4127   16.7911   41.7475 C   0  0  0  0  0  0  0  0  0  0  0  0
    4.2209   15.7516   41.3317 C   0  0  0  0  0  0  0  0  0  0  0  0
    3.9738   14.5029   41.9119 C   0  0  0  0  0  0  0  0  0  0  0  0
    3.0161   14.3297   42.8110 N   0  0  0  0  0  0  0  0  0  0  0  0
    2.2506   15.3509   43.1942 C   0  0  0  0  0  0  0  0  0  0  0  0
    2.4106   16.6167   42.6864 C   0  0  0  0  0  0  0  0  0  0  0  0
    1.5922   17.7567   43.0823 C   0  0  0  0  0  0  0  0  0  0  0  0
    1.7919   18.9809   42.5512 N   0  0  0  0  0  0  0  0  0  0  0  0
    0.6154   17.5896   43.9965 N   0  0  0  0  0  0  0  0  0  0  0  0
   -0.1707   18.6330   44.3917 C   0  0  0  0  0  0  0  0  0  0  0  0
   -1.1914   18.7555   45.2611 N   0  0  0  0  0  0  0  0  0  0  0  0
   -1.7628   17.6802   46.0786 C   0  0  0  0  0  0  0  0  0  0  0  0
   -1.5923   20.0167   45.2518 N   0  0  0  0  0  0  0  0  0  0  0  0
   -0.8680   20.7427   44.3998 C   0  0  0  0  0  0  0  0  0  0  0  0
    0.0476   19.8782   43.8382 C   0  0  0  0  0  0  0  0  0  0  0  0
    1.0495   20.0508   42.9001 C   0  0  0  0  0  0  0  0  0  0  0  0
    1.3071   21.3248   42.3032 N   0  0  0  0  0  0  0  0  0  0  0  0
    3.5751   17.7771   41.3184 H   0  0  0  0  0  0  0  0  0  0  0  0
    5.0049   15.8944   40.5955 H   0  0  0  0  0  0  0  0  0  0  0  0
    4.6254   13.6989   41.5667 H   0  0  0  0  0  0  0  0  0  0  0  0
    1.4872   15.1632   43.9252 H   0  0  0  0  0  0  0  0  0  0  0  0
   -2.2159   18.1661   46.9652 H   0  0  0  0  0  0  0  0  0  0  0  0
   -2.6232   17.2038   45.5478 H   0  0  0  0  0  0  0  0  0  0  0  0
   -1.0006   16.9344   46.3196 H   0  0  0  0  0  0  0  0  0  0  0  0
   -0.9234   21.7950   44.1445 H   0  0  0  0  0  0  0  0  0  0  0  0
    2.3070   21.6800   42.2722 H   0  0  0  0  0  0  0  0  0  0  0  0
    0.5142   21.8826   41.9097 H   0  0  0  0  0  0  0  0  0  0  0  0
  1  2  2  0
  1  6  1  0
  2  3  1  0
  3  4  2  0
  4  5  1  0
  5  6  2  0
  6  7  1  0
  7  8  2  0
  7  9  1  0
  8 16  1  0
  9 10  2  0
 10 11  1  0
 10 15  1  0
 11 12  1  0
 11 13  1  0
 13 14  2  0
 14 15  1  0
 15 16  2  0
 16 17  1  0
  1 18  1  0
  2 19  1  0
  3 20  1  0
  5 21  1  0
 12 22  1  0
 12 23  1  0
 12 24  1  0
 14 25  1  0
 17 26  1  0
 17 27  1  0
M  END
>  <mol_id>  (40) 
2026-09-17-6fnk-s0-n100-0040

>  <rmsd_to_ref>  (40) 
2.2448979591882416

>  <pose_kind>  (40) 
conformer

$$$$
6fnk.A
     RDKit          3D

 27 29  0  0  0  0  0  0  0  0999 V2000
    2.7545   17.1832   40.5335 C   0  0  0  0  0  0  0  0  0  0  0  0
    3.2406   16.1073   39.7905 C   0  0  0  0  0  0  0  0  0  0  0  0
    3.1194   14.8155   40.2812 C   0  0  0  0  0  0  0  0  0  0  0  0
    2.5069   14.5932   41.5176 N   0  0  0  0  0  0  0  0  0  0  0  0
    2.0203   15.6775   42.2635 C   0  0  0  0  0  0  0  0  0  0  0  0
    2.1433   16.9759   41.7724 C   0  0  0  0  0  0  0  0  0  0  0  0
    1.6594   18.0550   42.5192 C   0  0  0  0  0  0  0  0  0  0  0  0
    1.9197   19.3183   42.1555 N   0  0  0  0  0  0  0  0  0  0  0  0
    0.9197   17.8308   43.6099 N   0  0  0  0  0  0  0  0  0  0  0  0
    0.4442   18.8422   44.3581 C   0  0  0  0  0  0  0  0  0  0  0  0
   -0.2913   18.8629   45.4800 N   0  0  0  0  0  0  0  0  0  0  0  0
   -0.7915   17.6901   46.2034 C   0  0  0  0  0  0  0  0  0  0  0  0
   -0.5091   20.0226   45.8332 N   0  0  0  0  0  0  0  0  0  0  0  0
    0.0573   20.8330   44.9240 C   0  0  0  0  0  0  0  0  0  0  0  0
    0.6874   20.0985   43.9975 C   0  0  0  0  0  0  0  0  0  0  0  0
    1.4321   20.3398   42.8837 C   0  0  0  0  0  0  0  0  0  0  0  0
    1.7023   21.6077   42.4892 N   0  0  0  0  0  0  0  0  0  0  0  0
    2.8535   18.2056   40.1397 H   0  0  0  0  0  0  0  0  0  0  0  0
    3.7199   16.2831   38.8161 H   0  0  0  0  0  0  0  0  0  0  0  0
    3.5050   13.9666   39.6976 H   0  0  0  0  0  0  0  0  0  0  0  0
    1.5408   15.5024   43.2379 H   0  0  0  0  0  0  0  0  0  0  0  0
   -0.5105   17.7663   47.2642 H   0  0  0  0  0  0  0  0  0  0  0  0
   -1.8871   17.6456   46.1167 H   0  0  0  0  0  0  0  0  0  0  0  0
   -0.3522   16.7784   45.7724 H   0  0  0  0  0  0  0  0  0  0  0  0
    0.0109   21.9319   44.9379 H   0  0  0  0  0  0  0  0  0  0  0  0
    1.3391   22.4044   43.0316 H   0  0  0  0  0  0  0  0  0  0  0  0
    2.2709   21.7748   41.6467 H   0  0  0  0  0  0  0  0  0  0  0  0
  1  2  2  0
  1  6  1  0
  2  3  1  0
  3  4  2  0
  4  5  1  0
  5  6  2  0
  6  7  1  0
  7  8  2  0
  7  9  1  0
  8 16  1  0
  9 10  2  0
 10 11  1  0
 10 15  1  0
 11 12  1  0
 11 13  1  0
 13 14  2  0
 14 15  1  0
 15 16  2  0
 16 17  1  0
  1 18  1  0
  2 19  1  0
  3 20  1  0
  5 21  1  0
 12 22  1  0
 12 23  1  0
 12 24  1  0
 14 25  1  0
 17 26  1  0
 17 27  1  0
M  END
>  <mol_id>  (41) 
2026-09-17-6fnk-s0-n100-0041

>  <rmsd_to_ref>  (41) 
2.2908163265327772

>  <pose_kind>  (41) 
rigid

$$$$
6fnk.A
     RDKit          3D

 27 29  0  0  0  0  0  0  0  0999 V2000
    3.4618   16.8131   40.8855 C   0  0  0  0  0  0  0  0  0  0  0  0
    3.9872   15.7127   40.2378 C   0  0  0  0  0  0  0  0  0  0  0  0
    3.5342   14.4622   40.6719 C   0  0  0  0  0  0  0  0  0  0  0  0
    2.6496   14.3431   41.6511 N   0  0  0  0  0  0  0  0  0  0  0  0
    2.1588   15.4227   42.2590 C   0  0  0  0  0  0  0  0  0  0  0  0
    2.5373   16.6955   41.9091 C   0  0  0  0  0  0  0  0  0  0  0  0
    2.0216   17.8984   42.5518 C   0  0  0  0  0  0  0  0  0  0  0  0
    2.4277   19.1266   42.1687 N   0  0  0  0  0  0  0  0  0  0  0  0
    1.1212   17.7866   43.5489 N   0  0  0  0  0  0  0  0  0  0  0  0
    0.6161   18.8898   44.1742 C   0  0  0  0  0  0  0  0  0  0  0  0
   -0.2694   19.0739   45.1714 N   0  0  0  0  0  0  0  0  0  0  0  0
   -0.9785   18.0183   45.9021 C   0  0  0  0  0  0  0  0  0  0  0  0
   -0.3909   20.3750   45.3804 N   0  0  0  0  0  0  0  0  0  0  0  0
    0.3891   21.0679   44.5503 C   0  0  0  0  0  0  0  0  0  0  0  0
    1.0427   20.1383   43.7694 C   0  0  0  0  0  0  0  0  0  0  0  0
    1.9666   20.2541   42.7463 C   0  0  0  0  0  0  0  0  0  0  0  0
    2.4336   21.5296   42.2979 N   0  0  0  0  0  0  0  0  0  0  0  0
    3.7903   17.8024   40.5753 H   0  0  0  0  0  0  0  0  0  0  0  0
    4.7115   15.8111   39.4362 H   0  0  0  0  0  0  0  0  0  0  0  0
    3.9642   13.6095   40.1446 H   0  0  0  0  0  0  0  0  0  0  0  0
    1.4444   15.2774   43.0469 H   0  0  0  0  0  0  0  0  0  0  0  0
   -1.2329   18.4394   46.8948 H   0  0  0  0  0  0  0  0  0  0  0  0
   -1.9665   17.8101   45.4227 H   0  0  0  0  0  0  0  0  0  0  0  0
   -0.3741   17.1084   45.9453 H   0  0  0  0  0  0  0  0  0  0  0  0
    0.5361   22.1372   44.4468 H   0  0  0  0  0  0  0  0  0  0  0  0
    3.4789   21.6808   42.1915 H   0  0  0  0  0  0  0  0  0  0  0  0
    1.7448   22.2874   42.0834 H   0  0  0  0  0  0  0  0  0  0  0  0
  1  2  2  0
  1  6  1  0
  2  3  1  0
  3  4  2  0
  4  5  1  0
  5  6  2  0
  6  7  1  0
  7  8  2  0
  7  9  1  0
  8 16  1  0
  9 10  2  0
 10 11  1  0
 10 15  1  0
 11 12  1  0
 11 13  1  0
 13 14  2  0
 14 15  1  0
 15 16  2  0
 16 17  1  0
  1 18  1  0
  2 19  1  0
  3 20  1  0
  5 21  1  0
 12 22  1  0
 12 23  1  0
 12 24  1  0
 14 25  1  0
 17 26  1  0
 17 27  1  0
M  END
>  <mol_id>  (42) 
2026-09-17-6fnk-s0-n100-0042

>  <rmsd_to_ref>  (42) 
2.336734693882066

>  <pose_kind>  (42) 
conformer

$$$$
6fnk.A
     RDKit          3D

 27 29  0  0  0  0  0  0  0  0999 V2000
    2.4370   16.1506   40.5335 C   0  0  0  0  0  0  0  0  0  0  0  0
    2.8816   14.9097   40.0769 C   0  0  0  0  0  0  0  0  0  0  0  0
    2.7503   13.7877   40.8820 C   0  0  0  0  0  0  0  0  0  0  0  0
    2.1694   13.9013   42.1481 N   0  0  0  0  0  0  0  0  0  0  0  0
    1.7245   15.1510   42.6052 C   0  0  0  0  0  0  0  0  0  0  0  0
    1.8576   16.2793   41.7980 C   0  0  0  0  0  0  0  0  0  0  0  0
    1.4155   17.5241   42.2573 C   0  0  0  0  0  0  0  0  0  0  0  0
    1.6888   18.6473   41.5792 N   0  0  0  0  0  0  0  0  0  0  0  0
    0.7032   17.6021   43.3859 N   0  0  0  0  0  0  0  0  0  0  0  0
    0.2682   18.7817   43.8636 C   0  0  0  0  0  0  0  0  0  0  0  0
   -0.4344   19.1044   44.9601 N   0  0  0  0  0  0  0  0  0  0  0  0
   -0.9356   18.1661   45.9687 C   0  0  0  0  0  0  0  0  0  0  0  0
   -0.6204   20.3209   45.0123 N   0  0  0  0  0  0  0  0  0  0  0  0
   -0.0653   20.8601   43.9145 C   0  0  0  0  0  0  0  0  0  0  0  0
    0.5244   19.8992   43.1906 C   0  0  0  0  0  0  0  0  0  0  0  0
    1.2413   19.8318   42.0353 C   0  0  0  0  0  0  0  0  0  0  0  0
    1.5238   20.9512   41.3258 N   0  0  0  0  0  0  0  0  0  0  0  0
    2.5439   17.0371   39.8909 H   0  0  0  0  0  0  0  0  0  0  0  0
    3.3360   14.8209   39.0790 H   0  0  0  0  0  0  0  0  0  0  0  0
    3.1032   12.8092   40.5242 H   0  0  0  0  0  0  0  0  0  0  0  0
    1.2699   15.2404   43.6028 H   0  0  0  0  0  0  0  0  0  0  0  0
   -0.6231   18.5012   46.9687 H   0  0  0  0  0  0  0  0  0  0  0  0
   -2.0339   18.1287   45.9212 H   0  0  0  0  0  0  0  0  0  0  0  0
   -0.5258   17.1642   45.7731 H   0  0  0  0  0  0  0  0  0  0  0  0
   -0.0907   21.9275   43.6501 H   0  0  0  0  0  0  0  0  0  0  0  0
    1.1911   21.8682   41.6565 H   0  0  0  0  0  0  0  0  0  0  0  0
    2.0711   20.8851   40.4557 H   0  0  0  0  0  0  0  0  0  0  0  0
  1  2  2  0
  1  6  1  0
  2  3  1  0
  3  4  2  0
  4  5  1  0
  5  6  2  0
  6  7  1  0
  7  8  2  0
  7  9  1  0
  8 16  1  0
  9 10  2  0
 10 11  1  0
 10 15  1  0
 11 12  1  0
 11 13  1  0
 13 14  2  0
 14 15  1  0
 15 16  2  0
 16 17  1  0
  1 18  1  0
  2 19  1  0
  3 20  1  0
  5 21  1  0
 12 22  1  0
 12 23  1  0
 12 24  1  0
 14 25  1  0
 17 26  1  0
 17 27  1  0
M  END
>  <mol_id>  (43) 
2026-09-17-6fnk-s0-n100-0043

>  <rmsd_to_ref>  (43) 
2.3826530612262182

>  <pose_kind>  (43) 
rigid

$$$$
6fnk.A
     RDKit          3D

 27 29  0  0  0  0  0  0  0  0999 V2000
    3.7642   17.6724   41.4572 C   0  0  0  0  0  0  0  0  0  0  0  0
    4.6910   16.7448   41.0244 C   0  0  0  0  0  0  0  0  0  0  0  0
    4.6523   15.4923   41.6460 C   0  0  0  0  0  0  0  0  0  0  0  0
    3.7734   15.2136   42.5977 N   0  0  0  0  0  0  0  0  0  0  0  0
    2.8899   16.1280   42.9961 C   0  0  0  0  0  0  0  0  0  0  0  0
    2.8436   17.3876   42.4508 C   0  0  0  0  0  0  0  0  0  0  0  0
    1.8914   18.4125   42.8618 C   0  0  0  0  0  0  0  0  0  0  0  0
    1.8891   19.6357   42.2923 N   0  0  0  0  0  0  0  0  0  0  0  0
    0.9936   18.1379   43.8293 N   0  0  0  0  0  0  0  0  0  0  0  0
    0.0870   19.0718   44.2402 C   0  0  0  0  0  0  0  0  0  0  0  0
   -0.8976   19.0759   45.1585 N   0  0  0  0  0  0  0  0  0  0  0  0
   -1.2702   17.9566   46.0298 C   0  0  0  0  0  0  0  0  0  0  0  0
   -1.4737   20.2671   45.1402 N   0  0  0  0  0  0  0  0  0  0  0  0
   -0.9021   21.0614   44.2348 C   0  0  0  0  0  0  0  0  0  0  0  0
    0.0990   20.3176   43.6467 C   0  0  0  0  0  0  0  0  0  0  0  0
    1.0197   20.6007   42.6538 C   0  0  0  0  0  0  0  0  0  0  0  0
    1.0646   21.8793   42.0145 N   0  0  0  0  0  0  0  0  0  0  0  0
    3.7639   18.6578   40.9970 H   0  0  0  0  0  0  0  0  0  0  0  0
    5.4103   16.9740   40.2452 H   0  0  0  0  0  0  0  0  0  0  0  0
    5.3941   14.7778   41.2866 H   0  0  0  0  0  0  0  0  0  0  0  0
    2.1971   15.8574   43.7701 H   0  0  0  0  0  0  0  0  0  0  0  0
   -1.7444   18.4009   46.9271 H   0  0  0  0  0  0  0  0  0  0  0  0
   -2.0786   17.3475   45.5559 H   0  0  0  0  0  0  0  0  0  0  0  0
   -0.3990   17.3333   46.2484 H   0  0  0  0  0  0  0  0  0  0  0  0
   -1.1188   22.0872   43.9579 H   0  0  0  0  0  0  0  0  0  0  0  0
    2.0010   22.3707   41.9231 H   0  0  0  0  0  0  0  0  0  0  0  0
    0.1823   22.3074   41.6498 H   0  0  0  0  0  0  0  0  0  0  0  0
  1  2  2  0
  1  6  1  0
  2  3  1  0
  3  4  2  0
  4  5  1  0
  5  6  2  0
  6  7  1  0
  7  8  2  0
  7  9  1  0
  8 16  1  0
  9 10  2  0
 10 11  1  0
 10 15  1  0
 11 12  1  0
 11 13  1  0
 13 14  2  0
 14 15  1  0
 15 16  2  0
 16 17  1  0
  1 18  1  0
  2 19  1  0
  3 20  1  0
  5 21  1  0
 12 22  1  0
 12 23  1  0
 12 24  1  0
 14 25  1  0
 17 26  1  0
 17 27  1  0
M  END
>  <mol_id>  (44) 
2026-09-17-6fnk-s0-n100-0044

>  <rmsd_to_ref>  (44) 
2.4285714285751583

>  <pose_kind>  (44) 
conformer

$$$$
6fnk.A
     RDKit          3D

 27 29  0  0  0  0  0  0  0  0999 V2000
    1.9288   14.6287   42.3020 C   0  0  0  0  0  0  0  0  0  0  0  0
    2.7604   13.8815   41.4677 C   0  0  0  0  0  0  0  0  0  0  0  0
    3.6203   14.5254   40.5898 C   0  0  0  0  0  0  0  0  0  0  0  0
    3.6550   15.9218   40.5451 N   0  0  0  0  0  0  0  0  0  0  0  0
    2.8160   16.6707   41.3844 C   0  0  0  0  0  0  0  0  0  0  0  0
    1.9505   16.0250   42.2654 C   0  0  0  0  0  0  0  0  0  0  0  0
    1.1139   16.7741   43.0990 C   0  0  0  0  0  0  0  0  0  0  0  0
    0.1536   16.1839   43.8240 N   0  0  0  0  0  0  0  0  0  0  0  0
    1.2726   18.0987   43.1841 N   0  0  0  0  0  0  0  0  0  0  0  0
    0.4820   18.8533   43.9679 C   0  0  0  0  0  0  0  0  0  0  0  0
    0.4413   20.1745   44.1988 N   0  0  0  0  0  0  0  0  0  0  0  0
    1.3271   21.1801   43.6045 C   0  0  0  0  0  0  0  0  0  0  0  0
   -0.4520   20.4460   45.0022 N   0  0  0  0  0  0  0  0  0  0  0  0
   -1.0294   19.2895   45.3674 C   0  0  0  0  0  0  0  0  0  0  0  0
   -0.4648   18.2744   44.6998 C   0  0  0  0  0  0  0  0  0  0  0  0
   -0.6305   16.9251   44.6284 C   0  0  0  0  0  0  0  0  0  0  0  0
   -1.5880   16.3025   45.3579 N   0  0  0  0  0  0  0  0  0  0  0  0
    1.2488   14.1129   42.9959 H   0  0  0  0  0  0  0  0  0  0  0  0
    2.7346   12.7825   41.5059 H   0  0  0  0  0  0  0  0  0  0  0  0
    4.2744   13.9372   39.9295 H   0  0  0  0  0  0  0  0  0  0  0  0
    2.8417   17.7697   41.3469 H   0  0  0  0  0  0  0  0  0  0  0  0
    0.7226   21.9847   43.1606 H   0  0  0  0  0  0  0  0  0  0  0  0
    1.9804   21.5996   44.3838 H   0  0  0  0  0  0  0  0  0  0  0  0
    1.9431   20.7105   42.8235 H   0  0  0  0  0  0  0  0  0  0  0  0
   -1.8419   19.1910   46.1025 H   0  0  0  0  0  0  0  0  0  0  0  0
   -2.1993   16.8504   45.9800 H   0  0  0  0  0  0  0  0  0  0  0  0
   -1.7045   15.2813   45.2901 H   0  0  0  0  0  0  0  0  0  0  0  0
  1  2  2  0
  1  6  1  0
  2  3  1  0
  3  4  2  0
  4  5  1  0
  5  6  2  0
  6  7  1  0
  7  8  2  0
  7  9  1  0
  8 16  1  0
  9 10  2  0
 10 11  1  0
 10 15  1  0
 11 12  1  0
 11 13  1  0
 13 14  2  0
 14 15  1  0
 15 16  2  0
 16 17  1  0
  1 18  1  0
  2 19  1  0
  3 20  1  0
  5 21  1  0
 12 22  1  0
 12 23  1  0
 12 24  1  0
 14 25  1  0
 17 26  1  0
 17 27  1  0
M  END
>  <mol_id>  (45) 
2026-09-17-6fnk-s0-n100-0045

>  <rmsd_to_ref>  (45) 
2.4744897959202152

>  <pose_kind>  (45) 
rigid

$$$$
6fnk.A
     RDKit          3D

 27 29  0  0  0  0  0  0  0  0999 V2000
    2.3959   15.9079   40.7415 C   0  0  0  0  0  0  0  0  0  0  0  0
    2.7343   14.6372   40.3204 C   0  0  0  0  0  0  0  0  0  0  0  0
    2.2530   13.5774   41.0964 C   0  0  0  0  0  0  0  0  0  0  0  0
    1.5130   13.7843   42.1758 N   0  0  0  0  0  0  0  0  0  0  0  0
    1.2013   15.0219   42.5595 C   0  0  0  0  0  0  0  0  0  0  0  0
    1.6232   16.1308   41.8681 C   0  0  0  0  0  0  0  0  0  0  0  0
    1.3016   17.4983   42.2585 C   0  0  0  0  0  0  0  0  0  0  0  0
    1.7425   18.5536   41.5425 N   0  0  0  0  0  0  0  0  0  0  0  0
    0.5493   17.7182   43.3553 N   0  0  0  0  0  0  0  0  0  0  0  0
    0.2278   18.9841   43.7517 C   0  0  0  0  0  0  0  0  0  0  0  0
   -0.4867   19.4885   44.7753 N   0  0  0  0  0  0  0  0  0  0  0  0
   -1.1627   18.7134   45.8209 C   0  0  0  0  0  0  0  0  0  0  0  0
   -0.4747   20.8081   44.6760 N   0  0  0  0  0  0  0  0  0  0  0  0
    0.2283   21.2018   43.6139 C   0  0  0  0  0  0  0  0  0  0  0  0
    0.6873   20.0517   43.0075 C   0  0  0  0  0  0  0  0  0  0  0  0
    1.4594   19.8273   41.8818 C   0  0  0  0  0  0  0  0  0  0  0  0
    1.9546   20.9064   41.0842 N   0  0  0  0  0  0  0  0  0  0  0  0
    2.7521   16.7573   40.1631 H   0  0  0  0  0  0  0  0  0  0  0  0
    3.3403   14.4688   39.4363 H   0  0  0  0  0  0  0  0  0  0  0  0
    2.5340   12.5844   40.7428 H   0  0  0  0  0  0  0  0  0  0  0  0
    0.5994   15.1408   43.4404 H   0  0  0  0  0  0  0  0  0  0  0  0
   -1.2368   19.3764   46.7053 H   0  0  0  0  0  0  0  0  0  0  0  0
   -2.2228   18.5109   45.5306 H   0  0  0  0  0  0  0  0  0  0  0  0
   -0.6313   17.7767   46.0089 H   0  0  0  0  0  0  0  0  0  0  0  0
    0.4419   22.1959   43.2374 H   0  0  0  0  0  0  0  0  0  0  0  0
    2.9820   20.9129   40.8174 H   0  0  0  0  0  0  0  0  0  0  0  0
    1.3033   21.6660   40.7784 H   0  0  0  0  0  0  0  0  0  0  0  0
  1  2  2  0
  1  6  1  0
  2  3  1  0
  3  4  2  0
  4  5  1  0
  5  6  2  0
  6  7  1  0
  7  8  2  0
  7  9  1  0
  8 16  1  0
  9 10  2  0
 10 11  1  0
 10 15  1  0
 11 12  1  0
 11 13  1  0
 13 14  2  0
 14 15  1  0
 15 16  2  0
 16 17  1  0
  1 18  1  0
  2 19  1  0
  3 20  1  0
  5 21  1  0
 12 22  1  0
 12 23  1  0
 12 24  1  0
 14 25  1  0
 17 26  1  0
 17 27  1  0
M  END
>  <mol_id>  (46) 
2026-09-17-6fnk-s0-n100-0046

>  <rmsd_to_ref>  (46) 
2.520408163270152

>  <pose_kind>  (46) 
conformer

$$$$
6fnk.A
     RDKit          3D

 27 29  0  0  0  0  0  0  0  0999 V2000
    3.3427   16.7373   40.8963 C   0  0  0  0  0  0  0  0  0  0  0  0
    3.8462   15.5581   40.3470 C   0  0  0  0  0  0  0  0  0  0  0  0
    3.5075   14.3341   40.9052 C   0  0  0  0  0  0  0  0  0  0  0  0
    2.6593   14.2837   42.0148 N   0  0  0  0  0  0  0  0  0  0  0  0
    2.1558   15.4717   42.5661 C   0  0  0  0  0  0  0  0  0  0  0  0
    2.4968   16.7021   42.0075 C   0  0  0  0  0  0  0  0  0  0  0  0
    1.9951   17.8846   42.5607 C   0  0  0  0  0  0  0  0  0  0  0  0
    2.4436   19.0809   42.1559 N   0  0  0  0  0  0  0  0  0  0  0  0
    1.0492   17.8290   43.5036 N   0  0  0  0  0  0  0  0  0  0  0  0
    0.5488   18.9440   44.0651 C   0  0  0  0  0  0  0  0  0  0  0  0
   -0.3743   19.1341   45.0202 N   0  0  0  0  0  0  0  0  0  0  0  0
   -1.1142   18.0824   45.7240 C   0  0  0  0  0  0  0  0  0  0  0  0
   -0.5354   20.3365   45.2330 N   0  0  0  0  0  0  0  0  0  0  0  0
    0.2669   21.0054   44.3885 C   0  0  0  0  0  0  0  0  0  0  0  0
    0.9791   20.1350   43.6605 C   0  0  0  0  0  0  0  0  0  0  0  0
    1.9360   20.2048   42.6946 C   0  0  0  0  0  0  0  0  0  0  0  0
    2.4002   21.4018   42.2609 N   0  0  0  0  0  0  0  0  0  0  0  0
    3.6147   17.7052   40.4499 H   0  0  0  0  0  0  0  0  0  0  0  0
    4.5112   15.5987   39.4718 H   0  0  0  0  0  0  0  0  0  0  0  0
    3.9063   13.4036   40.4747 H   0  0  0  0  0  0  0  0  0  0  0  0
    1.4904   15.4318   43.4413 H   0  0  0  0  0  0  0  0  0  0  0  0
   -1.0264   18.2361   46.8097 H   0  0  0  0  0  0  0  0  0  0  0  0
   -2.1742   18.1220   45.4326 H   0  0  0  0  0  0  0  0  0  0  0  0
   -0.6973   17.0998   45.4579 H   0  0  0  0  0  0  0  0  0  0  0  0
    0.3295   22.1005   44.3070 H   0  0  0  0  0  0  0  0  0  0  0  0
    2.0257   22.2746   42.6596 H   0  0  0  0  0  0  0  0  0  0  0  0
    3.1276   21.4389   41.5327 H   0  0  0  0  0  0  0  0  0  0  0  0
  1  2  2  0
  1  6  1  0
  2  3  1  0
  3  4  2  0
  4  5  1  0
  5  6  2  0
  6  7  1  0
  7  8  2  0
  7  9  1  0
  8 16  1  0
  9 10  2  0
 10 11  1  0
 10 15  1  0
 11 12  1  0
 11 13  1  0
 13 14  2  0
 14 15  1  0
 15 16  2  0
 16 17  1  0
  1 18  1  0
  2 19  1  0
  3 20  1  0
  5 21  1  0
 12 22  1  0
 12 23  1  0
 12 24  1  0
 14 25  1  0
 17 26  1  0
 17 27  1  0
M  END
>  <mol_id>  (47) 
2026-09-17-6fnk-s0-n100-0047

>  <rmsd_to_ref>  (47) 
2.566326530616575

>  <pose_kind>  (47) 
rigid

$$$$
6fnk.A
     RDKit          3D

 27 29  0  0  0  0  0  0  0  0999 V2000
    2.2610   15.3375   41.6633 C   0  0  0  0  0  0  0  0  0  0  0  0
    2.6727   14.0530   41.3678 C   0  0  0  0  0  0  0  0  0  0  0  0
    2.4106   13.0788   42.3369 C   0  0  0  0  0  0  0  0  0  0  0  0
    1.8006   13.3748   43.4751 N   0  0  0  0  0  0  0  0  0  0  0  0
    1.4138   14.6235   43.7345 C   0  0  0  0  0  0  0  0  0  0  0  0
    1.6232   15.6533   42.8506 C   0  0  0  0  0  0  0  0  0  0  0  0
    1.2140   17.0302   43.1009 C   0  0  0  0  0  0  0  0  0  0  0  0
    1.4445   18.0052   42.1971 N   0  0  0  0  0  0  0  0  0  0  0  0
    0.5927   17.3405   44.2565 N   0  0  0  0  0  0  0  0  0  0  0  0
    0.1950   18.6181   44.5259 C   0  0  0  0  0  0  0  0  0  0  0  0
   -0.4285   19.2015   45.5668 N   0  0  0  0  0  0  0  0  0  0  0  0
   -0.8769   18.5302   46.7912 C   0  0  0  0  0  0  0  0  0  0  0  0
   -0.5678   20.4892   45.2952 N   0  0  0  0  0  0  0  0  0  0  0  0
   -0.0547   20.7846   44.1006 C   0  0  0  0  0  0  0  0  0  0  0  0
    0.4388   19.6027   43.5902 C   0  0  0  0  0  0  0  0  0  0  0  0
    1.0763   19.2854   42.4041 C   0  0  0  0  0  0  0  0  0  0  0  0
    1.3472   20.2768   41.4093 N   0  0  0  0  0  0  0  0  0  0  0  0
    2.4477   16.1220   40.9336 H   0  0  0  0  0  0  0  0  0  0  0  0
    3.1722   13.8115   40.4353 H   0  0  0  0  0  0  0  0  0  0  0  0
    2.7455   12.0730   42.0794 H   0  0  0  0  0  0  0  0  0  0  0  0
    0.9232   14.8161   44.6697 H   0  0  0  0  0  0  0  0  0  0  0  0
   -0.9038   19.3048   47.5827 H   0  0  0  0  0  0  0  0  0  0  0  0
   -1.9388   18.1980   46.6857 H   0  0  0  0  0  0  0  0  0  0  0  0
   -0.2303   17.6793   47.0216 H   0  0  0  0  0  0  0  0  0  0  0  0
    0.0024   21.7287   43.5704 H   0  0  0  0  0  0  0  0  0  0  0  0
    2.3245   20.3328   40.9988 H   0  0  0  0  0  0  0  0  0  0  0  0
    0.5856   20.9258   41.1038 H   0  0  0  0  0  0  0  0  0  0  0  0
  1  2  2  0
  1  6  1  0
  2  3  1  0
  3  4  2  0
  4  5  1  0
  5  6  2  0
  6  7  1  0
  7  8  2  0
  7  9  1  0
  8 16  1  0
  9 10  2  0
 10 11  1  0
 10 15  1  0
 11 12  1  0
 11 13  1  0
 13 14  2  0
 14 15  1  0
 15 16  2  0
 16 17  1  0
  1 18  1  0
  2 19  1  0
  3 20  1  0
  5 21  1  0
 12 22  1  0
 12 23  1  0
 12 24  1  0
 14 25  1  0
 17 26  1  0
 17 27  1  0
M  END
>  <mol_id>  (48) 
2026-09-17-6fnk-s0-n100-0048

>  <rmsd_to_ref>  (48) 
2.612244897963881

>  <pose_kind>  (48) 
conformer

$$$$
6fnk.A
     RDKit          3D

 27 29  0  0  0  0  0  0  0  0999 V2000
    3.7653   16.0831   42.2889 C   0  0  0  0  0  0  0  0  0  0  0  0
    4.3550   14.8237   42.1792 C   0  0  0  0  0  0  0  0  0  0  0  0
    3.9903   13.8096   43.0527 C   0  0  0  0  0  0  0  0  0  0  0  0
    3.0300   14.0499   44.0392 N   0  0  0  0  0  0  0  0  0  0  0  0
    2.4397   15.3182   44.1481 C   0  0  0  0  0  0  0  0  0  0  0  0
    2.8066   16.3384   43.2724 C   0  0  0  0  0  0  0  0  0  0  0  0
    2.2183   17.6022   43.3849 C   0  0  0  0  0  0  0  0  0  0  0  0
    2.6763   18.6427   42.6754 N   0  0  0  0  0  0  0  0  0  0  0  0
    1.1786   17.7813   44.2060 N   0  0  0  0  0  0  0  0  0  0  0  0
    0.5922   18.9834   44.3473 C   0  0  0  0  0  0  0  0  0  0  0  0
   -0.4322   19.4011   45.1063 N   0  0  0  0  0  0  0  0  0  0  0  0
   -1.2157   18.5721   46.0271 C   0  0  0  0  0  0  0  0  0  0  0  0
   -0.6463   20.6000   44.9225 N   0  0  0  0  0  0  0  0  0  0  0  0
    0.2242   21.0259   43.9923 C   0  0  0  0  0  0  0  0  0  0  0  0
    1.0324   20.0179   43.6380 C   0  0  0  0  0  0  0  0  0  0  0  0
    2.0850   19.8461   42.7917 C   0  0  0  0  0  0  0  0  0  0  0  0
    2.5618   20.8796   42.0562 N   0  0  0  0  0  0  0  0  0  0  0  0
    4.0584   16.8837   41.5939 H   0  0  0  0  0  0  0  0  0  0  0  0
    5.1086   14.6348   41.4006 H   0  0  0  0  0  0  0  0  0  0  0  0
    4.4568   12.8169   42.9691 H   0  0  0  0  0  0  0  0  0  0  0  0
    1.6858   15.5077   44.9265 H   0  0  0  0  0  0  0  0  0  0  0  0
   -1.2486   19.0529   47.0159 H   0  0  0  0  0  0  0  0  0  0  0  0
   -2.2391   18.4603   45.6395 H   0  0  0  0  0  0  0  0  0  0  0  0
   -0.7475   17.5807   46.1168 H   0  0  0  0  0  0  0  0  0  0  0  0
    0.2667   22.0463   43.5839 H   0  0  0  0  0  0  0  0  0  0  0  0
    2.1243   21.8091   42.1297 H   0  0  0  0  0  0  0  0  0  0  0  0
    3.3618   20.7355   41.4236 H   0  0  0  0  0  0  0  0  0  0  0  0
  1  2  2  0
  1  6  1  0
  2  3  1  0
  3  4  2  0
  4  5  1  0
  5  6  2  0
  6  7  1  0
  7  8  2  0
  7  9  1  0
  8 16  1  0
  9 10  2  0
 10 11  1  0
 10 15  1  0
 11 12  1  0
 11 13  1  0
 13 14  2  0
 14 15  1  0
 15 16  2  0
 16 17  1  0
  1 18  1  0
  2 19  1  0
  3 20  1  0
  5 21  1  0
 12 22  1  0
 12 23  1  0
 12 24  1  0
 14 25  1  0
 17 26  1  0
 17 27  1  0
M  END
>  <mol_id>  (49) 
2026-09-17-6fnk-s0-n100-0049

>  <rmsd_to_ref>  (49) 
2.6581632653100766

>  <pose_kind>  (49) 
rigid

$$$$
6fnk.A
     RDKit          3D

 27 29  0  0  0  0  0  0  0  0999 V2000
    3.4353   16.5604   40.8689 C   0  0  0  0  0  0  0  0  0  0  0  0
    3.6371   15.3935   40.1588 C   0  0  0  0  0  0  0  0  0  0  0  0
    2.5354   14.5394   40.0426 C   0  0  0  0  0  0  0  0  0  0  0  0
    1.3635   14.8360   40.5851 N   0  0  0  0  0  0  0  0  0  0  0  0
    1.1967   15.9696   41.2655 C   0  0  0  0  0  0  0  0  0  0  0  0
    2.2137   16.8762   41.4380 C   0  0  0  0  0  0  0  0  0  0  0  0
    2.0673   18.1254   42.1758 C   0  0  0  0  0  0  0  0  0  0  0  0
    3.1004   18.9819   42.3154 N   0  0  0  0  0  0  0  0  0  0  0  0
    0.8786   18.4355   42.7310 N   0  0  0  0  0  0  0  0  0  0  0  0
    0.7037   19.5954   43.4287 C   0  0  0  0  0  0  0  0  0  0  0  0
   -0.3412   20.1491   44.0722 N   0  0  0  0  0  0  0  0  0  0  0  0
   -1.6857   19.5748   44.1890 C   0  0  0  0  0  0  0  0  0  0  0  0
    0.0536   21.3041   44.5830 N   0  0  0  0  0  0  0  0  0  0  0  0
    1.3349   21.5398   44.2995 C   0  0  0  0  0  0  0  0  0  0  0  0
    1.7714   20.4599   43.5616 C   0  0  0  0  0  0  0  0  0  0  0  0
    2.9916   20.1428   42.9923 C   0  0  0  0  0  0  0  0  0  0  0  0
    4.1218   21.0118   43.1075 N   0  0  0  0  0  0  0  0  0  0  0  0
    4.2692   17.2496   40.9805 H   0  0  0  0  0  0  0  0  0  0  0  0
    4.5970   15.1513   39.7150 H   0  0  0  0  0  0  0  0  0  0  0  0
    2.7206   13.6248   39.4774 H   0  0  0  0  0  0  0  0  0  0  0  0
    0.2297   16.1678   41.6873 H   0  0  0  0  0  0  0  0  0  0  0  0
   -2.1301   19.9999   45.1106 H   0  0  0  0  0  0  0  0  0  0  0  0
   -2.3403   19.9466   43.3630 H   0  0  0  0  0  0  0  0  0  0  0  0
   -1.6392   18.4826   44.1791 H   0  0  0  0  0  0  0  0  0  0  0  0
    1.9725   22.3781   44.5569 H   0  0  0  0  0  0  0  0  0  0  0  0
    5.0518   20.6003   43.4117 H   0  0  0  0  0  0  0  0  0  0  0  0
    4.0164   22.0303   42.8923 H   0  0  0  0  0  0  0  0  0  0  0  0
  1  2  2  0
  1  6  1  0
  2  3  1  0
  3  4  2  0
  4  5  1  0
  5  6  2  0
  6  7  1  0
  7  8  2  0
  7  9  1  0
  8 16  1  0
  9 10  2  0
 10 11  1  0
 10 15  1  0
 11 12  1  0
 11 13  1  0
 13 14  2  0
 14 15  1  0
 15 16  2  0
 16 17  1  0
  1 18  1  0
  2 19  1  0
  3 20  1  0
  5 21  1  0
 12 22  1  0
 12 23  1  0
 12 24  1  0
 14 25  1  0
 17 26  1  0
 17 27  1  0
M  END
>  <mol_id>  (50) 
2026-09-17-6fnk-s0-n100-0050

>  <rmsd_to_ref>  (50) 
2.704081632653864

>  <pose_kind>  (50) 
conformer

$$$$
6fnk.A
     RDKit          3D

 27 29  0  0  0  0  0  0  0  0999 V2000
    3.4670   16.1049   42.3184 C   0  0  0  0  0  0  0  0  0  0  0  0
    4.7859   15.8062   41.9762 C   0  0  0  0  0  0  0  0  0  0  0  0
    5.7936   16.7236   42.2353 C   0  0  0  0  0  0  0  0  0  0  0  0
    5.4869   17.9445   42.8424 N   0  0  0  0  0  0  0  0  0  0  0  0
    4.1590   18.2429   43.1841 C   0  0  0  0  0  0  0  0  0  0  0  0
    3.1455   17.3228   42.9226 C   0  0  0  0  0  0  0  0  0  0  0  0
    1.8226   17.6240   43.2622 C   0  0  0  0  0  0  0  0  0  0  0  0
    0.8119   16.8385   42.8655 N   0  0  0  0  0  0  0  0  0  0  0  0
    1.5550   18.7069   43.9990 N   0  0  0  0  0  0  0  0  0  0  0  0
    0.2952   19.0337   44.3381 C   0  0  0  0  0  0  0  0  0  0  0  0
   -0.2101   20.0583   45.0416 N   0  0  0  0  0  0  0  0  0  0  0  0
    0.5603   21.1423   45.6584 C   0  0  0  0  0  0  0  0  0  0  0  0
   -1.4363   19.9689   45.1163 N   0  0  0  0  0  0  0  0  0  0  0  0
   -1.7968   18.8422   44.4799 C   0  0  0  0  0  0  0  0  0  0  0  0
   -0.7120   18.2533   43.9591 C   0  0  0  0  0  0  0  0  0  0  0  0
   -0.4514   17.1429   43.2158 C   0  0  0  0  0  0  0  0  0  0  0  0
   -1.4542   16.3269   42.8094 N   0  0  0  0  0  0  0  0  0  0  0  0
    2.6717   15.3740   42.1104 H   0  0  0  0  0  0  0  0  0  0  0  0
    5.0266   14.8437   41.5011 H   0  0  0  0  0  0  0  0  0  0  0  0
    6.8336   16.4903   41.9632 H   0  0  0  0  0  0  0  0  0  0  0  0
    3.9176   19.2050   43.6595 H   0  0  0  0  0  0  0  0  0  0  0  0
    0.1430   22.1116   45.3475 H   0  0  0  0  0  0  0  0  0  0  0  0
    0.5058   21.0540   46.7534 H   0  0  0  0  0  0  0  0  0  0  0  0
    1.6101   21.0750   45.3369 H   0  0  0  0  0  0  0  0  0  0  0  0
   -2.8256   18.4615   44.3986 H   0  0  0  0  0  0  0  0  0  0  0  0
   -2.4284   16.5409   43.0663 H   0  0  0  0  0  0  0  0  0  0  0  0
   -1.2421   15.4927   42.2437 H   0  0  0  0  0  0  0  0  0  0  0  0
  1  2  2  0
  1  6  1  0
  2  3  1  0
  3  4  2  0
  4  5  1  0
  5  6  2  0
  6  7  1  0
  7  8  2  0
  7  9  1  0
  8 16  1  0
  9 10  2  0
 10 11  1  0
 10 15  1  0
 11 12  1  0
 11 13  1  0
 13 14  2  0
 14 15  1  0
 15 16  2  0
 16 17  1  0
  1 18  1  0
  2 19  1  0
  3 20  1  0
  5 21  1  0
 12 22  1  0
 12 23  1  0
 12 24  1  0
 14 25  1  0
 17 26  1  0
 17 27  1  0
M  END
>  <mol_id>  (51) 
2026-09-17-6fnk-s0-n100-0051

>  <rmsd_to_ref>  (51) 
2.7500000000020033

>  <pose_kind>  (51) 
rigid

$$$$
6fnk.A
     RDKit          3D

 27 29  0  0  0  0  0  0  0  0999 V2000
    1.9383   15.0879   40.9511 C   0  0  0  0  0  0  0  0  0  0  0  0
    2.9179   14.2444   40.4659 C   0  0  0  0  0  0  0  0  0  0  0  0
    4.2316   14.5329   40.8504 C   0  0  0  0  0  0  0  0  0  0  0  0
    4.5177   15.5598   41.6374 N   0  0  0  0  0  0  0  0  0  0  0  0
    3.5520   16.3580   42.0914 C   0  0  0  0  0  0  0  0  0  0  0  0
    2.2305   16.1623   41.7735 C   0  0  0  0  0  0  0  0  0  0  0  0
    1.1485   17.0148   42.2519 C   0  0  0  0  0  0  0  0  0  0  0  0
   -0.1345   16.7774   41.9086 N   0  0  0  0  0  0  0  0  0  0  0  0
    1.4303   18.0619   43.0529 N   0  0  0  0  0  0  0  0  0  0  0  0
    0.4443   18.8818   43.5201 C   0  0  0  0  0  0  0  0  0  0  0  0
    0.4329   19.9702   44.3124 N   0  0  0  0  0  0  0  0  0  0  0  0
    1.6044   20.6019   44.9285 C   0  0  0  0  0  0  0  0  0  0  0  0
   -0.8209   20.3740   44.4408 N   0  0  0  0  0  0  0  0  0  0  0  0
   -1.6500   19.5859   43.7560 C   0  0  0  0  0  0  0  0  0  0  0  0
   -0.8626   18.6242   43.1590 C   0  0  0  0  0  0  0  0  0  0  0  0
   -1.1529   17.5501   42.3370 C   0  0  0  0  0  0  0  0  0  0  0  0
   -2.4939   17.2498   41.9402 N   0  0  0  0  0  0  0  0  0  0  0  0
    0.9046   14.8951   40.6734 H   0  0  0  0  0  0  0  0  0  0  0  0
    2.6828   13.4038   39.8215 H   0  0  0  0  0  0  0  0  0  0  0  0
    4.9864   13.8523   40.4540 H   0  0  0  0  0  0  0  0  0  0  0  0
    3.8311   17.1774   42.7262 H   0  0  0  0  0  0  0  0  0  0  0  0
    1.3365   21.6635   45.0979 H   0  0  0  0  0  0  0  0  0  0  0  0
    1.7760   20.1877   45.9522 H   0  0  0  0  0  0  0  0  0  0  0  0
    2.4904   20.4597   44.3041 H   0  0  0  0  0  0  0  0  0  0  0  0
   -2.7275   19.6245   43.6413 H   0  0  0  0  0  0  0  0  0  0  0  0
   -2.6938   17.0734   40.9128 H   0  0  0  0  0  0  0  0  0  0  0  0
   -3.2509   17.2089   42.6615 H   0  0  0  0  0  0  0  0  0  0  0  0
  1  2  2  0
  1  6  1  0
  2  3  1  0
  3  4  2  0
  4  5  1  0
  5  6  2  0
  6  7  1  0
  7  8  2  0
  7  9  1  0
  8 16  1  0
  9 10  2  0
 10 11  1  0
 10 15  1  0
 11 12  1  0
 11 13  1  0
 13 14  2  0
 14 15  1  0
 15 16  2  0
 16 17  1  0
  1 18  1  0
  2 19  1  0
  3 20  1  0
  5 21  1  0
 12 22  1  0
 12 23  1  0
 12 24  1  0
 14 25  1  0
 17 26  1  0
 17 27  1  0
M  END
>  <mol_id>  (52) 
2026-09-17-6fnk-s0-n100-0052

>  <rmsd_to_ref>  (52) 
2.795918367350887

>  <pose_kind>  (52) 
conformer

$$$$
6fnk.A
     RDKit          3D

 27 29  0  0  0  0  0  0  0  0999 V2000
    2.4761   15.9690   41.6322 C   0  0  0  0  0  0  0  0  0  0  0  0
    2.9052   14.7309   41.1539 C   0  0  0  0  0  0  0  0  0  0  0  0
    2.6707   13.5824   41.8958 C   0  0  0  0  0  0  0  0  0  0  0  0
    2.0016   13.6667   43.1199 N   0  0  0  0  0  0  0  0  0  0  0  0
    1.5726   14.9137   43.5993 C   0  0  0  0  0  0  0  0  0  0  0  0
    1.8092   16.0684   42.8558 C   0  0  0  0  0  0  0  0  0  0  0  0
    1.3825   17.3101   43.3373 C   0  0  0  0  0  0  0  0  0  0  0  0
    1.7490   18.4485   42.7324 N   0  0  0  0  0  0  0  0  0  0  0  0
    0.5914   17.3704   44.4133 N   0  0  0  0  0  0  0  0  0  0  0  0
    0.1679   18.5460   44.9107 C   0  0  0  0  0  0  0  0  0  0  0  0
   -0.6017   18.8514   45.9665 N   0  0  0  0  0  0  0  0  0  0  0  0
   -1.2128   17.8932   46.8924 C   0  0  0  0  0  0  0  0  0  0  0  0
   -0.7438   20.0713   46.0598 N   0  0  0  0  0  0  0  0  0  0  0  0
   -0.0876   20.6325   45.0310 C   0  0  0  0  0  0  0  0  0  0  0  0
    0.5168   19.6791   44.3094 C   0  0  0  0  0  0  0  0  0  0  0  0
    1.3149   19.6305   43.2075 C   0  0  0  0  0  0  0  0  0  0  0  0
    1.6927   20.7660   42.5718 N   0  0  0  0  0  0  0  0  0  0  0  0
    2.6648   16.8765   41.0400 H   0  0  0  0  0  0  0  0  0  0  0  0
    3.4290   14.6652   40.1888 H   0  0  0  0  0  0  0  0  0  0  0  0
    3.0112   12.6059   41.5208 H   0  0  0  0  0  0  0  0  0  0  0  0
    1.0483   14.9800   44.5641 H   0  0  0  0  0  0  0  0  0  0  0  0
   -0.9631   18.1725   47.9267 H   0  0  0  0  0  0  0  0  0  0  0  0
   -2.3052   17.9040   46.7632 H   0  0  0  0  0  0  0  0  0  0  0  0
   -0.8287   16.8841   46.6821 H   0  0  0  0  0  0  0  0  0  0  0  0
   -0.0519   21.7103   44.8139 H   0  0  0  0  0  0  0  0  0  0  0  0
    1.3720   21.6814   42.9184 H   0  0  0  0  0  0  0  0  0  0  0  0
    2.3006   20.7137   41.7419 H   0  0  0  0  0  0  0  0  0  0  0  0
  1  2  2  0
  1  6  1  0
  2  3  1  0
  3  4  2  0
  4  5  1  0
  5  6  2  0
  6  7  1  0
  7  8  2  0
  7  9  1  0
  8 16  1  0
  9 10  2  0
 10 11  1  0
 10 15  1  0
 11 12  1  0
 11 13  1  0
 13 14  2  0
 14 15  1  0
 15 16  2  0
 16 17  1  0
  1 18  1  0
  2 19  1  0
  3 20  1  0
  5 21  1  0
 12 22  1  0
 12 23  1  0
 12 24  1  0
 14 25  1  0
 17 26  1  0
 17 27  1  0
M  END
>  <mol_id>  (53) 
2026-09-17-6fnk-s0-n100-0053

>  <rmsd_to_ref>  (53) 
2.8418367346989717

>  <pose_kind>  (53) 
rigid

$$$$
6fnk.A
     RDKit          3D

 27 29  0  0  0  0  0  0  0  0999 V2000
    3.3763   17.4255   41.2934 C   0  0  0  0  0  0  0  0  0  0  0  0
    4.2562   16.6168   40.6017 C   0  0  0  0  0  0  0  0  0  0  0  0
    4.2631   15.2631   40.9543 C   0  0  0  0  0  0  0  0  0  0  0  0
    3.4678   14.7855   41.9004 N   0  0  0  0  0  0  0  0  0  0  0  0
    2.6280   15.5889   42.5522 C   0  0  0  0  0  0  0  0  0  0  0  0
    2.5430   16.9328   42.2828 C   0  0  0  0  0  0  0  0  0  0  0  0
    1.6366   17.8410   42.9754 C   0  0  0  0  0  0  0  0  0  0  0  0
    1.5931   19.1548   42.6711 N   0  0  0  0  0  0  0  0  0  0  0  0
    0.8238   17.3637   43.9393 N   0  0  0  0  0  0  0  0  0  0  0  0
   -0.0378   18.1834   44.6092 C   0  0  0  0  0  0  0  0  0  0  0  0
   -0.9393   17.9882   45.5899 N   0  0  0  0  0  0  0  0  0  0  0  0
   -1.2427   16.7100   46.2420 C   0  0  0  0  0  0  0  0  0  0  0  0
   -1.5071   19.1513   45.8659 N   0  0  0  0  0  0  0  0  0  0  0  0
   -1.0107   20.1207   45.0968 C   0  0  0  0  0  0  0  0  0  0  0  0
   -0.0689   19.5245   44.2851 C   0  0  0  0  0  0  0  0  0  0  0  0
    0.7645   20.0153   43.2961 C   0  0  0  0  0  0  0  0  0  0  0  0
    0.7623   21.3982   42.9310 N   0  0  0  0  0  0  0  0  0  0  0  0
    3.3427   18.4842   41.0468 H   0  0  0  0  0  0  0  0  0  0  0  0
    4.9070   17.0088   39.8272 H   0  0  0  0  0  0  0  0  0  0  0  0
    4.9666   14.6459   40.3936 H   0  0  0  0  0  0  0  0  0  0  0  0
    2.0028   15.1576   43.3108 H   0  0  0  0  0  0  0  0  0  0  0  0
   -1.6348   16.9557   47.2486 H   0  0  0  0  0  0  0  0  0  0  0  0
   -2.0930   16.2018   45.7244 H   0  0  0  0  0  0  0  0  0  0  0  0
   -0.3599   16.0651   46.2525 H   0  0  0  0  0  0  0  0  0  0  0  0
   -1.2437   21.1787   45.0558 H   0  0  0  0  0  0  0  0  0  0  0  0
    1.6906   21.9084   42.8622 H   0  0  0  0  0  0  0  0  0  0  0  0
   -0.1453   21.8819   42.7389 H   0  0  0  0  0  0  0  0  0  0  0  0
  1  2  2  0
  1  6  1  0
  2  3  1  0
  3  4  2  0
  4  5  1  0
  5  6  2  0
  6  7  1  0
  7  8  2  0
  7  9  1  0
  8 16  1  0
  9 10  2  0
 10 11  1  0
 10 15  1  0
 11 12  1  0
 11 13  1  0
 13 14  2  0
 14 15  1  0
 15 16  2  0
 16 17  1  0
  1 18  1  0
  2 19  1  0
  3 20  1  0
  5 21  1  0
 12 22  1  0
 12 23  1  0
 12 24  1  0
 14 25  1  0
 17 26  1  0
 17 27  1  0
M  END
>  <mol_id>  (54) 
2026-09-17-6fnk-s0-n100-0054

>  <rmsd_to_ref>  (54) 
2.887755102040955

>  <pose_kind>  (54) 
conformer

$$$$
6fnk.A
     RDKit          3D

 27 29  0  0  0  0  0  0  0  0999 V2000
    3.0551   16.4176   41.2058 C   0  0  0  0  0  0  0  0  0  0  0  0
    3.6094   15.1905   40.8408 C   0  0  0  0  0  0  0  0  0  0  0  0
    3.3455   14.0587   41.5982 C   0  0  0  0  0  0  0  0  0  0  0  0
    2.5219   14.1483   42.7238 N   0  0  0  0  0  0  0  0  0  0  0  0
    1.9672   15.3843   43.0893 C   0  0  0  0  0  0  0  0  0  0  0  0
    2.2330   16.5224   42.3302 C   0  0  0  0  0  0  0  0  0  0  0  0
    1.6805   17.7534   42.6984 C   0  0  0  0  0  0  0  0  0  0  0  0
    2.0582   18.8882   42.0937 N   0  0  0  0  0  0  0  0  0  0  0  0
    0.7563   17.8061   43.6629 N   0  0  0  0  0  0  0  0  0  0  0  0
    0.2087   18.9719   44.0501 C   0  0  0  0  0  0  0  0  0  0  0  0
   -0.7051   19.2697   44.9862 N   0  0  0  0  0  0  0  0  0  0  0  0
   -1.3758   18.3117   45.8703 C   0  0  0  0  0  0  0  0  0  0  0  0
   -0.9249   20.4815   45.0063 N   0  0  0  0  0  0  0  0  0  0  0  0
   -0.1746   21.0422   44.0437 C   0  0  0  0  0  0  0  0  0  0  0  0
    0.5686   20.1006   43.4470 C   0  0  0  0  0  0  0  0  0  0  0  0
    1.5024   20.0590   42.4573 C   0  0  0  0  0  0  0  0  0  0  0  0
    1.8954   21.1906   41.8237 N   0  0  0  0  0  0  0  0  0  0  0  0
    3.2677   17.3120   40.6017 H   0  0  0  0  0  0  0  0  0  0  0  0
    4.2550   15.1206   39.9530 H   0  0  0  0  0  0  0  0  0  0  0  0
    3.7844   13.0911   41.3131 H   0  0  0  0  0  0  0  0  0  0  0  0
    1.3212   15.4550   43.9768 H   0  0  0  0  0  0  0  0  0  0  0  0
   -1.2761   18.6442   46.9141 H   0  0  0  0  0  0  0  0  0  0  0  0
   -2.4416   18.2519   45.6048 H   0  0  0  0  0  0  0  0  0  0  0  0
   -0.9130   17.3206   45.7553 H   0  0  0  0  0  0  0  0  0  0  0  0
   -0.1707   22.1113   43.7848 H   0  0  0  0  0  0  0  0  0  0  0  0
    1.4831   22.0973   42.0860 H   0  0  0  0  0  0  0  0  0  0  0  0
    2.6062   21.1440   41.0797 H   0  0  0  0  0  0  0  0  0  0  0  0
  1  2  2  0
  1  6  1  0
  2  3  1  0
  3  4  2  0
  4  5  1  0
  5  6  2  0
  6  7  1  0
  7  8  2  0
  7  9  1  0
  8 16  1  0
  9 10  2  0
 10 11  1  0
 10 15  1  0
 11 12  1  0
 11 13  1  0
 13 14  2  0
 14 15  1  0
 15 16  2  0
 16 17  1  0
  1 18  1  0
  2 19  1  0
  3 20  1  0
  5 21  1  0
 12 22  1  0
 12 23  1  0
 12 24  1  0
 14 25  1  0
 17 26  1  0
 17 27  1  0
M  END
>  <mol_id>  (55) 
2026-09-17-6fnk-s0-n100-0055

>  <rmsd_to_ref>  (55) 
2.9336734693885553

>  <pose_kind>  (55) 
rigid

$$$$
6fnk.A
     RDKit          3D

 27 29  0  0  0  0  0  0  0  0999 V2000
    3.4267   15.9464   42.3220 C   0  0  0  0  0  0  0  0  0  0  0  0
    4.1505   15.2317   41.3883 C   0  0  0  0  0  0  0  0  0  0  0  0
    4.4827   15.9087   40.2100 C   0  0  0  0  0  0  0  0  0  0  0  0
    4.1214   17.1666   40.0036 N   0  0  0  0  0  0  0  0  0  0  0  0
    3.4229   17.8328   40.9223 C   0  0  0  0  0  0  0  0  0  0  0  0
    3.0462   17.2607   42.1126 C   0  0  0  0  0  0  0  0  0  0  0  0
    2.2823   17.9589   43.1398 C   0  0  0  0  0  0  0  0  0  0  0  0
    1.9378   17.3489   44.2929 N   0  0  0  0  0  0  0  0  0  0  0  0
    1.9105   19.2390   42.9384 N   0  0  0  0  0  0  0  0  0  0  0  0
    1.1949   19.9247   43.8768 C   0  0  0  0  0  0  0  0  0  0  0  0
    0.7014   21.1756   43.9438 N   0  0  0  0  0  0  0  0  0  0  0  0
    0.8293   22.2105   42.9126 C   0  0  0  0  0  0  0  0  0  0  0  0
    0.0790   21.3119   45.1037 N   0  0  0  0  0  0  0  0  0  0  0  0
    0.1418   20.1865   45.8158 C   0  0  0  0  0  0  0  0  0  0  0  0
    0.8512   19.2852   45.0505 C   0  0  0  0  0  0  0  0  0  0  0  0
    1.2322   17.9718   45.2583 C   0  0  0  0  0  0  0  0  0  0  0  0
    0.8957   17.2741   46.4607 N   0  0  0  0  0  0  0  0  0  0  0  0
    3.1499   15.4530   43.2510 H   0  0  0  0  0  0  0  0  0  0  0  0
    4.4458   14.2016   41.5581 H   0  0  0  0  0  0  0  0  0  0  0  0
    5.0542   15.3225   39.4890 H   0  0  0  0  0  0  0  0  0  0  0  0
    3.1525   18.8500   40.7116 H   0  0  0  0  0  0  0  0  0  0  0  0
   -0.0285   22.8983   43.0493 H   0  0  0  0  0  0  0  0  0  0  0  0
    1.7307   22.8424   43.1057 H   0  0  0  0  0  0  0  0  0  0  0  0
    0.8841   21.7581   41.9189 H   0  0  0  0  0  0  0  0  0  0  0  0
   -0.2544   19.9484   46.7965 H   0  0  0  0  0  0  0  0  0  0  0  0
    0.4665   16.3062   46.3850 H   0  0  0  0  0  0  0  0  0  0  0  0
    1.0758   17.7236   47.3882 H   0  0  0  0  0  0  0  0  0  0  0  0
  1  2  2  0
  1  6  1  0
  2  3  1  0
  3  4  2  0
  4  5  1  0
  5  6  2  0
  6  7  1  0
  7  8  2  0
  7  9  1  0
  8 16  1  0
  9 10  2  0
 10 11  1  0
 10 15  1  0
 11 12  1  0
 11 13  1  0
 13 14  2  0
 14 15  1  0
 15 16  2  0
 16 17  1  0
  1 18  1  0
  2 19  1  0
  3 20  1  0
  5 21  1  0
 12 22  1  0
 12 23  1  0
 12 24  1  0
 14 25  1  0
 17 26  1  0
 17 27  1  0
M  END
>  <mol_id>  (56) 
2026-09-17-6fnk-s0-n100-0056

>  <rmsd_to_ref>  (56) 
2.979591836734763

>  <pose_kind>  (56) 
conformer

$$$$
6fnk.A
     RDKit          3D

 27 29  0  0  0  0  0  0  0  0999 V2000
    0.8705   17.5130   45.2411 C   0  0  0  0  0  0  0  0  0  0  0  0
    0.1456   17.0375   46.3340 C   0  0  0  0  0  0  0  0  0  0  0  0
   -0.9643   17.7363   46.7861 C   0  0  0  0  0  0  0  0  0  0  0  0
   -1.3571   18.9137   46.1435 N   0  0  0  0  0  0  0  0  0  0  0  0
   -0.6249   19.3903   45.0454 C   0  0  0  0  0  0  0  0  0  0  0  0
    0.4913   18.6901   44.5917 C   0  0  0  0  0  0  0  0  0  0  0  0
    1.2204   19.1690   43.4984 C   0  0  0  0  0  0  0  0  0  0  0  0
    2.3913   18.6156   43.1535 N   0  0  0  0  0  0  0  0  0  0  0  0
    0.7454   20.1897   42.7775 N   0  0  0  0  0  0  0  0  0  0  0  0
    1.4219   20.6830   41.7250 C   0  0  0  0  0  0  0  0  0  0  0  0
    1.1593   21.6906   40.8788 N   0  0  0  0  0  0  0  0  0  0  0  0
   -0.0269   22.5516   40.9067 C   0  0  0  0  0  0  0  0  0  0  0  0
    2.0591   21.8010   40.0450 N   0  0  0  0  0  0  0  0  0  0  0  0
    2.9559   20.8317   40.2905 C   0  0  0  0  0  0  0  0  0  0  0  0
    2.5780   20.1320   41.3687 C   0  0  0  0  0  0  0  0  0  0  0  0
    3.0680   19.0861   42.0895 C   0  0  0  0  0  0  0  0  0  0  0  0
    4.2449   18.5028   41.7567 N   0  0  0  0  0  0  0  0  0  0  0  0
    1.7499   16.9551   44.8871 H   0  0  0  0  0  0  0  0  0  0  0  0
    0.4538   16.1092   46.8371 H   0  0  0  0  0  0  0  0  0  0  0  0
   -1.5350   17.3640   47.6496 H   0  0  0  0  0  0  0  0  0  0  0  0
   -0.9328   20.3184   44.5418 H   0  0  0  0  0  0  0  0  0  0  0  0
    0.2854   23.6063   40.9015 H   0  0  0  0  0  0  0  0  0  0  0  0
   -0.6481   22.3487   40.0219 H   0  0  0  0  0  0  0  0  0  0  0  0
   -0.6080   22.3457   41.8178 H   0  0  0  0  0  0  0  0  0  0  0  0
    3.8624   20.6415   39.6970 H   0  0  0  0  0  0  0  0  0  0  0  0
    4.7793   18.8470   40.9462 H   0  0  0  0  0  0  0  0  0  0  0  0
    4.6051   17.7152   42.3142 H   0  0  0  0  0  0  0  0  0  0  0  0
  1  2  2  0
  1  6  1  0
  2  3  1  0
  3  4  2  0
  4  5  1  0
  5  6  2  0
  6  7  1  0
  7  8  2  0
  7  9  1  0
  8 16  1  0
  9 10  2  0
 10 11  1  0
 10 15  1  0
 11 12  1  0
 11 13  1  0
 13 14  2  0
 14 15  1  0
 15 16  2  0
 16 17  1  0
  1 18  1  0
  2 19  1  0
  3 20  1  0
  5 21  1  0
 12 22  1  0
 12 23  1  0
 12 24  1  0
 14 25  1  0
 17 26  1  0
 17 27  1  0
M  END
>  <mol_id>  (57) 
2026-09-17-6fnk-s0-n100-0057

>  <rmsd_to_ref>  (57) 
3.0255102040834014

>  <pose_kind>  (57) 
rigid

$$$$
6fnk.A
     RDKit          3D

 27 29  0  0  0  0  0  0  0  0999 V2000
    3.9990   16.7220   40.9827 C   0  0  0  0  0  0  0  0  0  0  0  0
    4.5606   15.6586   40.3041 C   0  0  0  0  0  0  0  0  0  0  0  0
    3.9275   14.4205   40.4574 C   0  0  0  0  0  0  0  0  0  0  0  0
    2.8483   14.2786   41.2128 N   0  0  0  0  0  0  0  0  0  0  0  0
    2.3273   15.3224   41.8569 C   0  0  0  0  0  0  0  0  0  0  0  0
    2.8718   16.5803   41.7734 C   0  0  0  0  0  0  0  0  0  0  0  0
    2.3287   17.7443   42.4638 C   0  0  0  0  0  0  0  0  0  0  0  0
    2.9037   18.9593   42.3474 N   0  0  0  0  0  0  0  0  0  0  0  0
    1.2309   17.6092   43.2346 N   0  0  0  0  0  0  0  0  0  0  0  0
    0.6942   18.6757   43.8958 C   0  0  0  0  0  0  0  0  0  0  0  0
   -0.3656   18.8308   44.7116 N   0  0  0  0  0  0  0  0  0  0  0  0
   -1.2957   17.7764   45.1287 C   0  0  0  0  0  0  0  0  0  0  0  0
   -0.4246   20.1023   45.0741 N   0  0  0  0  0  0  0  0  0  0  0  0
    0.5668   20.8034   44.5235 C   0  0  0  0  0  0  0  0  0  0  0  0
    1.2952   19.9112   43.7655 C   0  0  0  0  0  0  0  0  0  0  0  0
    2.4217   20.0510   42.9748 C   0  0  0  0  0  0  0  0  0  0  0  0
    3.0735   21.3140   42.8141 N   0  0  0  0  0  0  0  0  0  0  0  0
    4.4638   17.7006   40.8878 H   0  0  0  0  0  0  0  0  0  0  0  0
    5.4443   15.7757   39.6857 H   0  0  0  0  0  0  0  0  0  0  0  0
    4.3904   13.5973   39.9114 H   0  0  0  0  0  0  0  0  0  0  0  0
    1.4524   15.1598   42.4573 H   0  0  0  0  0  0  0  0  0  0  0  0
   -1.7209   18.0982   46.0999 H   0  0  0  0  0  0  0  0  0  0  0  0
   -2.1725   17.7355   44.4368 H   0  0  0  0  0  0  0  0  0  0  0  0
   -0.7888   16.8084   45.1627 H   0  0  0  0  0  0  0  0  0  0  0  0
    0.8172   21.8553   44.6039 H   0  0  0  0  0  0  0  0  0  0  0  0
    4.1262   21.3638   42.9414 H   0  0  0  0  0  0  0  0  0  0  0  0
    2.5088   22.1619   42.5756 H   0  0  0  0  0  0  0  0  0  0  0  0
  1  2  2  0
  1  6  1  0
  2  3  1  0
  3  4  2  0
  4  5  1  0
  5  6  2  0
  6  7  1  0
  7  8  2  0
  7  9  1  0
  8 16  1  0
  9 10  2  0
 10 11  1  0
 10 15  1  0
 11 12  1  0
 11 13  1  0
 13 14  2  0
 14 15  1  0
 15 16  2  0
 16 17  1  0
  1 18  1  0
  2 19  1  0
  3 20  1  0
  5 21  1  0
 12 22  1  0
 12 23  1  0
 12 24  1  0
 14 25  1  0
 17 26  1  0
 17 27  1  0
M  END
>  <mol_id>  (58) 
2026-09-17-6fnk-s0-n100-0058

>  <rmsd_to_ref>  (58) 
3.071428571433226

>  <pose_kind>  (58) 
conformer

$$$$
6fnk.A
     RDKit          3D

 27 29  0  0  0  0  0  0  0  0999 V2000
    2.3517   19.2526   39.9755 C   0  0  0  0  0  0  0  0  0  0  0  0
    3.2279   18.5596   39.1401 C   0  0  0  0  0  0  0  0  0  0  0  0
    3.7577   17.3440   39.5473 C   0  0  0  0  0  0  0  0  0  0  0  0
    3.4099   16.8131   40.7925 N   0  0  0  0  0  0  0  0  0  0  0  0
    2.5295   17.5132   41.6314 C   0  0  0  0  0  0  0  0  0  0  0  0
    1.9982   18.7355   41.2243 C   0  0  0  0  0  0  0  0  0  0  0  0
    1.1228   19.4321   42.0635 C   0  0  0  0  0  0  0  0  0  0  0  0
    0.7381   20.6830   41.7748 N   0  0  0  0  0  0  0  0  0  0  0  0
    0.6532   18.8454   43.1692 N   0  0  0  0  0  0  0  0  0  0  0  0
   -0.1832   19.4863   44.0050 C   0  0  0  0  0  0  0  0  0  0  0  0
   -0.7608   19.1167   45.1582 N   0  0  0  0  0  0  0  0  0  0  0  0
   -0.6040   17.8194   45.8228 C   0  0  0  0  0  0  0  0  0  0  0  0
   -1.4674   20.0244   45.5987 N   0  0  0  0  0  0  0  0  0  0  0  0
   -1.4105   21.0399   44.7215 C   0  0  0  0  0  0  0  0  0  0  0  0
   -0.5794   20.7228   43.7197 C   0  0  0  0  0  0  0  0  0  0  0  0
   -0.1151   21.3277   42.5919 C   0  0  0  0  0  0  0  0  0  0  0  0
   -0.4954   22.5885   42.2721 N   0  0  0  0  0  0  0  0  0  0  0  0
    1.9347   20.2163   39.6478 H   0  0  0  0  0  0  0  0  0  0  0  0
    3.4985   18.9770   38.1590 H   0  0  0  0  0  0  0  0  0  0  0  0
    4.4510   16.7981   38.8905 H   0  0  0  0  0  0  0  0  0  0  0  0
    2.2582   17.0963   42.6125 H   0  0  0  0  0  0  0  0  0  0  0  0
   -0.3152   17.9776   46.8723 H   0  0  0  0  0  0  0  0  0  0  0  0
   -1.5560   17.2697   45.7833 H   0  0  0  0  0  0  0  0  0  0  0  0
    0.1769   17.2375   45.3113 H   0  0  0  0  0  0  0  0  0  0  0  0
   -1.9620   21.9874   44.8119 H   0  0  0  0  0  0  0  0  0  0  0  0
   -1.1476   23.1003   42.8833 H   0  0  0  0  0  0  0  0  0  0  0  0
   -0.1322   23.0349   41.4178 H   0  0  0  0  0  0  0  0  0  0  0  0
  1  2  2  0
  1  6  1  0
  2  3  1  0
  3  4  2  0
  4  5  1  0
  5  6  2  0
  6  7  1  0
  7  8  2  0
  7  9  1  0
  8 16  1  0
  9 10  2  0
 10 11  1  0
 10 15  1  0
 11 12  1  0
 11 13  1  0
 13 14  2  0
 14 15  1  0
 15 16  2  0
 16 17  1  0
  1 18  1  0
  2 19  1  0
  3 20  1  0
  5 21  1  0
 12 22  1  0
 12 23  1  0
 12 24  1  0
 14 25  1  0
 17 26  1  0
 17 27  1  0
M  END
>  <mol_id>  (59) 
2026-09-17-6fnk-s0-n100-0059

>  <rmsd_to_ref>  (59) 
3.117346938778266

>  <pose_kind>  (59) 
rigid

$$$$
6fnk.A
     RDKit          3D

 27 29  0  0  0  0  0  0  0  0999 V2000
    2.7185   15.2315   42.7038 C   0  0  0  0  0  0  0  0  0  0  0  0
    3.0474   14.0555   42.0594 C   0  0  0  0  0  0  0  0  0  0  0  0
    2.7755   14.0020   40.6882 C   0  0  0  0  0  0  0  0  0  0  0  0
    2.2319   15.0252   40.0454 N   0  0  0  0  0  0  0  0  0  0  0  0
    1.9244   16.1488   40.6924 C   0  0  0  0  0  0  0  0  0  0  0  0
    2.1505   16.3040   42.0380 C   0  0  0  0  0  0  0  0  0  0  0  0
    1.8268   17.5180   42.7780 C   0  0  0  0  0  0  0  0  0  0  0  0
    2.0702   17.6179   44.1014 N   0  0  0  0  0  0  0  0  0  0  0  0
    1.2735   18.5639   42.1320 N   0  0  0  0  0  0  0  0  0  0  0  0
    0.9570   19.7165   42.7912 C   0  0  0  0  0  0  0  0  0  0  0  0
    0.4114   20.8880   42.4134 N   0  0  0  0  0  0  0  0  0  0  0  0
   -0.0193   21.2422   41.0569 C   0  0  0  0  0  0  0  0  0  0  0  0
    0.3297   21.6678   43.4794 N   0  0  0  0  0  0  0  0  0  0  0  0
    0.8059   21.0511   44.5613 C   0  0  0  0  0  0  0  0  0  0  0  0
    1.2128   19.8012   44.1447 C   0  0  0  0  0  0  0  0  0  0  0  0
    1.7805   18.7286   44.8086 C   0  0  0  0  0  0  0  0  0  0  0  0
    2.0611   18.7769   46.2103 N   0  0  0  0  0  0  0  0  0  0  0  0
    2.9153   15.3103   43.7705 H   0  0  0  0  0  0  0  0  0  0  0  0
    3.4925   13.2182   42.5867 H   0  0  0  0  0  0  0  0  0  0  0  0
    3.0444   13.0628   40.2027 H   0  0  0  0  0  0  0  0  0  0  0  0
    1.4857   16.9513   40.1303 H   0  0  0  0  0  0  0  0  0  0  0  0
   -0.8044   22.0159   41.1682 H   0  0  0  0  0  0  0  0  0  0  0  0
    0.8076   21.7564   40.5085 H   0  0  0  0  0  0  0  0  0  0  0  0
   -0.3448   20.3518   40.5123 H   0  0  0  0  0  0  0  0  0  0  0  0
    0.8907   21.3902   45.5876 H   0  0  0  0  0  0  0  0  0  0  0  0
    1.7437   17.9691   46.8214 H   0  0  0  0  0  0  0  0  0  0  0  0
    2.5700   19.5996   46.6088 H   0  0  0  0  0  0  0  0  0  0  0  0
  1  2  2  0
  1  6  1  0
  2  3  1  0
  3  4  2  0
  4  5  1  0
  5  6  2  0
  6  7  1  0
  7  8  2  0
  7  9  1  0
  8 16  1  0
  9 10  2  0
 10 11  1  0
 10 15  1  0
 11 12  1  0
 11 13  1  0
 13 14  2  0
 14 15  1  0
 15 16  2  0
 16 17  1  0
  1 18  1  0
  2 19  1  0
  3 20  1  0
  5 21  1  0
 12 22  1  0
 12 23  1  0
 12 24  1  0
 14 25  1  0
 17 26  1  0
 17 27  1  0
M  END
>  <mol_id>  (60) 
2026-09-17-6fnk-s0-n100-0060

>  <rmsd_to_ref>  (60) 
3.1632653061227938

>  <pose_kind>  (60) 
conformer

$$$$
6fnk.A
     RDKit          3D

 27 29  0  0  0  0  0  0  0  0999 V2000
    2.9080   17.4271   40.6917 C   0  0  0  0  0  0  0  0  0  0  0  0
    3.5538   16.5006   39.8728 C   0  0  0  0  0  0  0  0  0  0  0  0
    3.4452   15.1440   40.1420 C   0  0  0  0  0  0  0  0  0  0  0  0
    2.6858   14.7071   41.2308 N   0  0  0  0  0  0  0  0  0  0  0  0
    2.0386   15.6414   42.0536 C   0  0  0  0  0  0  0  0  0  0  0  0
    2.1485   17.0046   41.7854 C   0  0  0  0  0  0  0  0  0  0  0  0
    1.5043   17.9337   42.6087 C   0  0  0  0  0  0  0  0  0  0  0  0
    1.7350   19.2475   42.4795 N   0  0  0  0  0  0  0  0  0  0  0  0
    0.6389   17.5129   43.5365 N   0  0  0  0  0  0  0  0  0  0  0  0
    0.0068   18.3753   44.3522 C   0  0  0  0  0  0  0  0  0  0  0  0
   -0.8735   18.1914   45.3480 N   0  0  0  0  0  0  0  0  0  0  0  0
   -1.3955   16.9013   45.8084 C   0  0  0  0  0  0  0  0  0  0  0  0
   -1.2063   19.2721   45.8363 N   0  0  0  0  0  0  0  0  0  0  0  0
   -0.5720   20.2363   45.1492 C   0  0  0  0  0  0  0  0  0  0  0  0
    0.2205   19.6810   44.2226 C   0  0  0  0  0  0  0  0  0  0  0  0
    1.0929   20.1226   43.2755 C   0  0  0  0  0  0  0  0  0  0  0  0
    1.3373   21.4462   43.1181 N   0  0  0  0  0  0  0  0  0  0  0  0
    2.9978   18.5016   40.4739 H   0  0  0  0  0  0  0  0  0  0  0  0
    4.1489   16.8454   39.0143 H   0  0  0  0  0  0  0  0  0  0  0  0
    3.9564   14.4126   39.4987 H   0  0  0  0  0  0  0  0  0  0  0  0
    1.4432   15.2973   42.9121 H   0  0  0  0  0  0  0  0  0  0  0  0
   -1.2655   16.8210   46.8978 H   0  0  0  0  0  0  0  0  0  0  0  0
   -2.4648   16.8288   45.5605 H   0  0  0  0  0  0  0  0  0  0  0  0
   -0.8481   16.0862   45.3127 H   0  0  0  0  0  0  0  0  0  0  0  0
   -0.6859   21.3168   45.3209 H   0  0  0  0  0  0  0  0  0  0  0  0
    0.8570   22.1333   43.7164 H   0  0  0  0  0  0  0  0  0  0  0  0
    2.0034   21.7651   42.4002 H   0  0  0  0  0  0  0  0  0  0  0  0
  1  2  2  0
  1  6  1  0
  2  3  1  0
  3  4  2  0
  4  5  1  0
  5  6  2  0
  6  7  1  0
  7  8  2  0
  7  9  1  0
  8 16  1  0
  9 10  2  0
 10 11  1  0
 10 15  1  0
 11 12  1  0
 11 13  1  0
 13 14  2  0
 14 15  1  0
 15 16  2  0
 16 17  1  0
  1 18  1  0
  2 19  1  0
  3 20  1  0
  5 21  1  0
 12 22  1  0
 12 23  1  0
 12 24  1  0
 14 25  1  0
 17 26  1  0
 17 27  1  0
M  END
>  <mol_id>  (61) 
2026-09-17-6fnk-s0-n100-0061

>  <rmsd_to_ref>  (61) 
3.209183673472281

>  <pose_kind>  (61) 
rigid

$$$$
6fnk.A
     RDKit          3D

 27 29  0  0  0  0  0  0  0  0999 V2000
    2.9333   16.7226   40.1976 C   0  0  0  0  0  0  0  0  0  0  0  0
    3.2923   15.5890   39.4958 C   0  0  0  0  0  0  0  0  0  0  0  0
    2.7291   14.3849   39.9317 C   0  0  0  0  0  0  0  0  0  0  0  0
    1.8970   14.3375   40.9618 N   0  0  0  0  0  0  0  0  0  0  0  0
    1.5676   15.4476   41.6212 C   0  0  0  0  0  0  0  0  0  0  0  0
    2.0646   16.6799   41.2744 C   0  0  0  0  0  0  0  0  0  0  0  0
    1.7264   17.9144   41.9728 C   0  0  0  0  0  0  0  0  0  0  0  0
    2.2438   19.1003   41.5902 N   0  0  0  0  0  0  0  0  0  0  0  0
    0.8805   17.8756   43.0219 N   0  0  0  0  0  0  0  0  0  0  0  0
    0.5407   19.0104   43.7000 C   0  0  0  0  0  0  0  0  0  0  0  0
   -0.2573   19.2639   44.7544 N   0  0  0  0  0  0  0  0  0  0  0  0
   -1.0351   18.2735   45.5062 C   0  0  0  0  0  0  0  0  0  0  0  0
   -0.2195   20.5642   44.9971 N   0  0  0  0  0  0  0  0  0  0  0  0
    0.5820   21.1891   44.1343 C   0  0  0  0  0  0  0  0  0  0  0  0
    1.0793   20.2148   43.2950 C   0  0  0  0  0  0  0  0  0  0  0  0
    1.9474   20.2557   42.2186 C   0  0  0  0  0  0  0  0  0  0  0  0
    2.5266   21.4835   41.7681 N   0  0  0  0  0  0  0  0  0  0  0  0
    3.3514   17.6776   39.8878 H   0  0  0  0  0  0  0  0  0  0  0  0
    3.9739   15.6287   38.6526 H   0  0  0  0  0  0  0  0  0  0  0  0
    3.0284   13.5045   39.3611 H   0  0  0  0  0  0  0  0  0  0  0  0
    0.8899   15.3609   42.4492 H   0  0  0  0  0  0  0  0  0  0  0  0
   -1.1807   18.6929   46.5213 H   0  0  0  0  0  0  0  0  0  0  0  0
   -2.0670   18.1890   45.0854 H   0  0  0  0  0  0  0  0  0  0  0  0
   -0.5349   17.3016   45.4928 H   0  0  0  0  0  0  0  0  0  0  0  0
    0.8414   22.2380   44.0437 H   0  0  0  0  0  0  0  0  0  0  0  0
    3.5739   21.5209   41.5996 H   0  0  0  0  0  0  0  0  0  0  0  0
    1.9155   22.3183   41.6128 H   0  0  0  0  0  0  0  0  0  0  0  0
  1  2  2  0
  1  6  1  0
  2  3  1  0
  3  4  2  0
  4  5  1  0
  5  6  2  0
  6  7  1  0
  7  8  2  0
  7  9  1  0
  8 16  1  0
  9 10  2  0
 10 11  1  0
 10 15  1  0
 11 12  1  0
 11 13  1  0
 13 14  2  0
 14 15  1  0
 15 16  2  0
 16 17  1  0
  1 18  1  0
  2 19  1  0
  3 20  1  0
  5 21  1  0
 12 22  1  0
 12 23  1  0
 12 24  1  0
 14 25  1  0
 17 26  1  0
 17 27  1  0
M  END
>  <mol_id>  (62) 
2026-09-17-6fnk-s0-n100-0062

>  <rmsd_to_ref>  (62) 
3.2551020408205225

>  <pose_kind>  (62) 
conformer

$$$$
6fnk.A
     RDKit          3D

 27 29  0  0  0  0  0  0  0  0999 V2000
    3.0745   15.6936   42.4365 C   0  0  0  0  0  0  0  0  0  0  0  0
    3.3800   14.3373   42.5522 C   0  0  0  0  0  0  0  0  0  0  0  0
    3.0676   13.6539   43.7182 C   0  0  0  0  0  0  0  0  0  0  0  0
    2.4438   14.3240   44.7742 N   0  0  0  0  0  0  0  0  0  0  0  0
    2.1392   15.6886   44.6556 C   0  0  0  0  0  0  0  0  0  0  0  0
    2.4542   16.3767   43.4854 C   0  0  0  0  0  0  0  0  0  0  0  0
    2.1515   17.7373   43.3709 C   0  0  0  0  0  0  0  0  0  0  0  0
    2.5985   18.4594   42.3341 N   0  0  0  0  0  0  0  0  0  0  0  0
    1.3999   18.3323   44.3027 N   0  0  0  0  0  0  0  0  0  0  0  0
    1.0951   19.6403   44.2314 C   0  0  0  0  0  0  0  0  0  0  0  0
    0.3856   20.4441   45.0382 N   0  0  0  0  0  0  0  0  0  0  0  0
   -0.2799   20.0455   46.2821 C   0  0  0  0  0  0  0  0  0  0  0  0
    0.3533   21.5900   44.5877 N   0  0  0  0  0  0  0  0  0  0  0  0
    1.0262   21.5842   43.4251 C   0  0  0  0  0  0  0  0  0  0  0  0
    1.5241   20.3609   43.2000 C   0  0  0  0  0  0  0  0  0  0  0  0
    2.2830   19.7643   42.2400 C   0  0  0  0  0  0  0  0  0  0  0  0
    2.7401   20.4695   41.1769 N   0  0  0  0  0  0  0  0  0  0  0  0
    3.3247   16.2307   41.5097 H   0  0  0  0  0  0  0  0  0  0  0  0
    3.8683   13.8102   41.7193 H   0  0  0  0  0  0  0  0  0  0  0  0
    3.3107   12.5851   43.8117 H   0  0  0  0  0  0  0  0  0  0  0  0
    1.6507   16.2162   45.4880 H   0  0  0  0  0  0  0  0  0  0  0  0
    0.0228   20.7237   47.0935 H   0  0  0  0  0  0  0  0  0  0  0  0
   -1.3704   20.0982   46.1476 H   0  0  0  0  0  0  0  0  0  0  0  0
    0.0085   19.0153   46.5384 H   0  0  0  0  0  0  0  0  0  0  0  0
    1.1495   22.4512   42.7597 H   0  0  0  0  0  0  0  0  0  0  0  0
    2.5106   21.4694   41.0850 H   0  0  0  0  0  0  0  0  0  0  0  0
    3.3170   20.0056   40.4607 H   0  0  0  0  0  0  0  0  0  0  0  0
  1  2  2  0
  1  6  1  0
  2  3  1  0
  3  4  2  0
  4  5  1  0
  5  6  2  0
  6  7  1  0
  7  8  2  0
  7  9  1  0
  8 16  1  0
  9 10  2  0
 10 11  1  0
 10 15  1  0
 11 12  1  0
 11 13  1  0
 13 14  2  0
 14 15  1  0
 15 16  2  0
 16 17  1  0
  1 18  1  0
  2 19  1  0
  3 20  1  0
  5 21  1  0
 12 22  1  0
 12 23  1  0
 12 24  1  0
 14 25  1  0
 17 26  1  0
 17 27  1  0
M  END
>  <mol_id>  (63) 
2026-09-17-6fnk-s0-n100-0063

>  <rmsd_to_ref>  (63) 
3.301020408171018

>  <pose_kind>  (63) 
rigid

$$$$
6fnk.A
     RDKit          3D

 27 29  0  0  0  0  0  0  0  0999 V2000
    1.5749   14.4783   41.3847 C   0  0  0  0  0  0  0  0  0  0  0  0
    2.5614   13.8853   40.6221 C   0  0  0  0  0  0  0  0  0  0  0  0
    3.7508   14.6071   40.4756 C   0  0  0  0  0  0  0  0  0  0  0  0
    3.9189   15.7946   41.0389 N   0  0  0  0  0  0  0  0  0  0  0  0
    2.9495   16.3436   41.7701 C   0  0  0  0  0  0  0  0  0  0  0  0
    1.7442   15.7185   41.9757 C   0  0  0  0  0  0  0  0  0  0  0  0
    0.6621   16.2891   42.7691 C   0  0  0  0  0  0  0  0  0  0  0  0
   -0.5038   15.6316   42.9395 N   0  0  0  0  0  0  0  0  0  0  0  0
    0.8244   17.4968   43.3458 N   0  0  0  0  0  0  0  0  0  0  0  0
   -0.1660   18.0626   44.0954 C   0  0  0  0  0  0  0  0  0  0  0  0
   -0.2791   19.2222   44.7701 N   0  0  0  0  0  0  0  0  0  0  0  0
    0.7463   20.2660   44.8706 C   0  0  0  0  0  0  0  0  0  0  0  0
   -1.4780   19.2592   45.3290 N   0  0  0  0  0  0  0  0  0  0  0  0
   -2.1716   18.1560   45.0473 C   0  0  0  0  0  0  0  0  0  0  0  0
   -1.3520   17.3760   44.2592 C   0  0  0  0  0  0  0  0  0  0  0  0
   -1.5197   16.1367   43.6679 C   0  0  0  0  0  0  0  0  0  0  0  0
   -2.7331   15.3938   43.8138 N   0  0  0  0  0  0  0  0  0  0  0  0
    0.6358   13.9469   41.5210 H   0  0  0  0  0  0  0  0  0  0  0  0
    2.4228   12.9129   40.1612 H   0  0  0  0  0  0  0  0  0  0  0  0
    4.5138   14.1171   39.8691 H   0  0  0  0  0  0  0  0  0  0  0  0
    3.1308   17.3072   42.2069 H   0  0  0  0  0  0  0  0  0  0  0  0
    0.2101   21.2160   45.0641 H   0  0  0  0  0  0  0  0  0  0  0  0
    1.3751   20.1068   45.7808 H   0  0  0  0  0  0  0  0  0  0  0  0
    1.3691   20.2805   43.9722 H   0  0  0  0  0  0  0  0  0  0  0  0
   -3.1730   17.8581   45.3372 H   0  0  0  0  0  0  0  0  0  0  0  0
   -3.1899   14.9886   42.9455 H   0  0  0  0  0  0  0  0  0  0  0  0
   -3.1487   15.2618   44.7650 H   0  0  0  0  0  0  0  0  0  0  0  0
  1  2  2  0
  1  6  1  0
  2  3  1  0
  3  4  2  0
  4  5  1  0
  5  6  2  0
  6  7  1  0
  7  8  2  0
  7  9  1  0
  8 16  1  0
  9 10  2  0
 10 11  1  0
 10 15  1  0
 11 12  1  0
 11 13  1  0
 13 14  2  0
 14 15  1  0
 15 16  2  0
 16 17  1  0
  1 18  1  0
  2 19  1  0
  3 20  1  0
  5 21  1  0
 12 22  1  0
 12 23  1  0
 12 24  1  0
 14 25  1  0
 17 26  1  0
 17 27  1  0
M  END
>  <mol_id>  (64) 
2026-09-17-6fnk-s0-n100-0064

>  <rmsd_to_ref>  (64) 
3.346938775513577

>  <pose_kind>  (64) 
conformer

$$$$
6fnk.A
     RDKit          3D

 27 29  0  0  0  0  0  0  0  0999 V2000
    2.0657   15.2752   41.9098 C   0  0  0  0  0  0  0  0  0  0  0  0
    3.1974   14.7394   41.2948 C   0  0  0  0  0  0  0  0  0  0  0  0
    4.3581   15.4936   41.2024 C   0  0  0  0  0  0  0  0  0  0  0  0
    4.3933   16.7877   41.7287 N   0  0  0  0  0  0  0  0  0  0  0  0
    3.2529   17.3246   42.3453 C   0  0  0  0  0  0  0  0  0  0  0  0
    2.0857   16.5686   42.4372 C   0  0  0  0  0  0  0  0  0  0  0  0
    0.9499   17.1072   43.0503 C   0  0  0  0  0  0  0  0  0  0  0  0
   -0.2299   16.4736   42.9965 N   0  0  0  0  0  0  0  0  0  0  0  0
    1.0359   18.2682   43.7074 N   0  0  0  0  0  0  0  0  0  0  0  0
   -0.0361   18.8216   44.3019 C   0  0  0  0  0  0  0  0  0  0  0  0
   -0.1941   19.9622   44.9906 N   0  0  0  0  0  0  0  0  0  0  0  0
    0.8544   20.9445   45.2819 C   0  0  0  0  0  0  0  0  0  0  0  0
   -1.3606   20.0820   45.3673 N   0  0  0  0  0  0  0  0  0  0  0  0
   -2.0281   18.9888   44.9630 C   0  0  0  0  0  0  0  0  0  0  0  0
   -1.2071   18.1937   44.2638 C   0  0  0  0  0  0  0  0  0  0  0  0
   -1.3055   17.0062   43.6052 C   0  0  0  0  0  0  0  0  0  0  0  0
   -2.4844   16.3408   43.5435 N   0  0  0  0  0  0  0  0  0  0  0  0
    1.1480   14.6729   41.9802 H   0  0  0  0  0  0  0  0  0  0  0  0
    3.1695   13.7196   40.8835 H   0  0  0  0  0  0  0  0  0  0  0  0
    5.2501   15.0732   40.7150 H   0  0  0  0  0  0  0  0  0  0  0  0
    3.2802   18.3442   42.7571 H   0  0  0  0  0  0  0  0  0  0  0  0
    0.5142   21.9451   44.9769 H   0  0  0  0  0  0  0  0  0  0  0  0
    1.0686   20.9430   46.3608 H   0  0  0  0  0  0  0  0  0  0  0  0
    1.7669   20.6823   44.7265 H   0  0  0  0  0  0  0  0  0  0  0  0
   -3.0870   18.7784   45.1736 H   0  0  0  0  0  0  0  0  0  0  0  0
   -3.3203   16.7303   44.0023 H   0  0  0  0  0  0  0  0  0  0  0  0
   -2.5446   15.4456   43.0377 H   0  0  0  0  0  0  0  0  0  0  0  0
  1  2  2  0
  1  6  1  0
  2  3  1  0
  3  4  2  0
  4  5  1  0
  5  6  2  0
  6  7  1  0
  7  8  2  0
  7  9  1  0
  8 16  1  0
  9 10  2  0
 10 11  1  0
 10 15  1  0
 11 12  1  0
 11 13  1  0
 13 14  2  0
 14 15  1  0
 15 16  2  0
 16 17  1  0
  1 18  1  0
  2 19  1  0
  3 20  1  0
  5 21  1  0
 12 22  1  0
 12 23  1  0
 12 24  1  0
 14 25  1  0
 17 26  1  0
 17 27  1  0
M  END
>  <mol_id>  (65) 
2026-09-17-6fnk-s0-n100-0065

>  <rmsd_to_ref>  (65) 
3.39285714286077

>  <pose_kind>  (65) 
rigid

$$$$
6fnk.A
     RDKit          3D

 27 29  0  0  0  0  0  0  0  0999 V2000
    2.6057   17.0083   40.6898 C   0  0  0  0  0  0  0  0  0  0  0  0
    3.3422   15.9819   40.1326 C   0  0  0  0  0  0  0  0  0  0  0  0
    3.3732   14.7805   40.8487 C   0  0  0  0  0  0  0  0  0  0  0  0
    2.7302   14.6379   41.9984 N   0  0  0  0  0  0  0  0  0  0  0  0
    2.0266   15.6457   42.5133 C   0  0  0  0  0  0  0  0  0  0  0  0
    1.9317   16.8658   41.8904 C   0  0  0  0  0  0  0  0  0  0  0  0
    1.1715   17.9898   42.4243 C   0  0  0  0  0  0  0  0  0  0  0  0
    1.1113   19.1686   41.7707 N   0  0  0  0  0  0  0  0  0  0  0  0
    0.5142   17.8538   43.5935 N   0  0  0  0  0  0  0  0  0  0  0  0
   -0.2075   18.8834   44.1242 C   0  0  0  0  0  0  0  0  0  0  0  0
   -0.9430   19.0285   45.2425 N   0  0  0  0  0  0  0  0  0  0  0  0
   -1.1678   18.0034   46.2671 C   0  0  0  0  0  0  0  0  0  0  0  0
   -1.4302   20.2588   45.2591 N   0  0  0  0  0  0  0  0  0  0  0  0
   -1.0413   20.9422   44.1825 C   0  0  0  0  0  0  0  0  0  0  0  0
   -0.2581   20.0822   43.4422 C   0  0  0  0  0  0  0  0  0  0  0  0
    0.4160   20.2229   42.2424 C   0  0  0  0  0  0  0  0  0  0  0  0
    0.3883   21.4484   41.5054 N   0  0  0  0  0  0  0  0  0  0  0  0
    2.5583   17.9578   40.1615 H   0  0  0  0  0  0  0  0  0  0  0  0
    3.8684   16.0995   39.1912 H   0  0  0  0  0  0  0  0  0  0  0  0
    3.9615   13.9858   40.3877 H   0  0  0  0  0  0  0  0  0  0  0  0
    1.5221   15.4840   43.4470 H   0  0  0  0  0  0  0  0  0  0  0  0
   -1.3858   18.5434   47.2096 H   0  0  0  0  0  0  0  0  0  0  0  0
   -2.1026   17.4320   46.0468 H   0  0  0  0  0  0  0  0  0  0  0  0
   -0.3108   17.3273   46.3285 H   0  0  0  0  0  0  0  0  0  0  0  0
   -1.2522   21.9615   43.8789 H   0  0  0  0  0  0  0  0  0  0  0  0
    1.3053   21.8549   41.1581 H   0  0  0  0  0  0  0  0  0  0  0  0
   -0.5264   21.9217   41.3213 H   0  0  0  0  0  0  0  0  0  0  0  0
  1  2  2  0
  1  6  1  0
  2  3  1  0
  3  4  2  0
  4  5  1  0
  5  6  2  0
  6  7  1  0
  7  8  2  0
  7  9  1  0
  8 16  1  0
  9 10  2  0
 10 11  1  0
 10 15  1  0
 11 12  1  0
 11 13  1  0
 13 14  2  0
 14 15  1  0
 15 16  2  0
 16 17  1  0
  1 18  1  0
  2 19  1  0
  3 20  1  0
  5 21  1  0
 12 22  1  0
 12 23  1  0
 12 24  1  0
 14 25  1  0
 17 26  1  0
 17 27  1  0
M  END
>  <mol_id>  (66) 
2026-09-17-6fnk-s0-n100-0066

>  <rmsd_to_ref>  (66) 
3.4387755102092874

>  <pose_kind>  (66) 
conformer

$$$$
6fnk.A
     RDKit          3D

 27 29  0  0  0  0  0  0  0  0999 V2000
    4.1385   16.7278   42.9459 C   0  0  0  0  0  0  0  0  0  0  0  0
    4.8286   15.8555   42.1041 C   0  0  0  0  0  0  0  0  0  0  0  0
    4.1339   14.9012   41.3753 C   0  0  0  0  0  0  0  0  0  0  0  0
    2.7430   14.8175   41.4826 N   0  0  0  0  0  0  0  0  0  0  0  0
    2.0516   15.6953   42.3314 C   0  0  0  0  0  0  0  0  0  0  0  0
    2.7488   16.6531   43.0654 C   0  0  0  0  0  0  0  0  0  0  0  0
    2.0571   17.5251   43.9124 C   0  0  0  0  0  0  0  0  0  0  0  0
    2.7133   18.3329   44.7567 N   0  0  0  0  0  0  0  0  0  0  0  0
    0.7212   17.5637   43.8804 N   0  0  0  0  0  0  0  0  0  0  0  0
    0.0213   18.3826   44.6855 C   0  0  0  0  0  0  0  0  0  0  0  0
   -1.2965   18.5810   44.8411 N   0  0  0  0  0  0  0  0  0  0  0  0
   -2.3631   17.8981   44.1027 C   0  0  0  0  0  0  0  0  0  0  0  0
   -1.5066   19.4395   45.6989 N   0  0  0  0  0  0  0  0  0  0  0  0
   -0.3124   19.8758   46.1321 C   0  0  0  0  0  0  0  0  0  0  0  0
    0.6647   19.1960   45.5172 C   0  0  0  0  0  0  0  0  0  0  0  0
    2.0255   19.1723   45.5528 C   0  0  0  0  0  0  0  0  0  0  0  0
    2.7135   19.9850   46.3909 N   0  0  0  0  0  0  0  0  0  0  0  0
    4.6945   17.4824   43.5216 H   0  0  0  0  0  0  0  0  0  0  0  0
    5.9232   15.9243   42.0182 H   0  0  0  0  0  0  0  0  0  0  0  0
    4.6774   14.2109   40.7134 H   0  0  0  0  0  0  0  0  0  0  0  0
    0.9571   15.6272   42.4176 H   0  0  0  0  0  0  0  0  0  0  0  0
   -3.0900   17.4779   44.8134 H   0  0  0  0  0  0  0  0  0  0  0  0
   -2.8698   18.6168   43.4419 H   0  0  0  0  0  0  0  0  0  0  0  0
   -1.9298   17.0871   43.4989 H   0  0  0  0  0  0  0  0  0  0  0  0
   -0.1599   20.6699   46.8778 H   0  0  0  0  0  0  0  0  0  0  0  0
    2.2072   20.6351   47.0089 H   0  0  0  0  0  0  0  0  0  0  0  0
    3.7429   19.9527   46.4099 H   0  0  0  0  0  0  0  0  0  0  0  0
  1  2  2  0
  1  6  1  0
  2  3  1  0
  3  4  2  0
  4  5  1  0
  5  6  2  0
  6  7  1  0
  7  8  2  0
  7  9  1  0
  8 16  1  0
  9 10  2  0
 10 11  1  0
 10 15  1  0
 11 12  1  0
 11 13  1  0
 13 14  2  0
 14 15  1  0
 15 16  2  0
 16 17  1  0
  1 18  1  0
  2 19  1  0
  3 20  1  0
  5 21  1  0
 12 22  1  0
 12 23  1  0
 12 24  1  0
 14 25  1  0
 17 26  1  0
 17 27  1  0
M  END
>  <mol_id>  (67) 
2026-09-17-6fnk-s0-n100-0067

>  <rmsd_to_ref>  (67) 
3.484693877556446

>  <pose_kind>  (67) 
rigid

$$$$
6fnk.A
     RDKit          3D

 27 29  0  0  0  0  0  0  0  0999 V2000
    3.4356   16.0751   42.3413 C   0  0  0  0  0  0  0  0  0  0  0  0
    4.2162   14.9391   42.4240 C   0  0  0  0  0  0  0  0  0  0  0  0
    4.5181   14.4860   43.7126 C   0  0  0  0  0  0  0  0  0  0  0  0
    4.0781   15.1142   44.7929 N   0  0  0  0  0  0  0  0  0  0  0  0
    3.3260   16.2089   44.6839 C   0  0  0  0  0  0  0  0  0  0  0  0
    2.9726   16.7360   43.4660 C   0  0  0  0  0  0  0  0  0  0  0  0
    2.1520   17.9310   43.3090 C   0  0  0  0  0  0  0  0  0  0  0  0
    1.8338   18.4069   42.0874 N   0  0  0  0  0  0  0  0  0  0  0  0
    1.6999   18.5766   44.4028 N   0  0  0  0  0  0  0  0  0  0  0  0
    0.9294   19.6980   44.2953 C   0  0  0  0  0  0  0  0  0  0  0  0
    0.3544   20.5246   45.1892 N   0  0  0  0  0  0  0  0  0  0  0  0
    0.4272   20.4027   46.6489 C   0  0  0  0  0  0  0  0  0  0  0  0
   -0.2901   21.4689   44.5228 N   0  0  0  0  0  0  0  0  0  0  0  0
   -0.1627   21.2979   43.2069 C   0  0  0  0  0  0  0  0  0  0  0  0
    0.6136   20.1710   43.0379 C   0  0  0  0  0  0  0  0  0  0  0  0
    1.0770   19.5093   41.9150 C   0  0  0  0  0  0  0  0  0  0  0  0
    0.7718   19.9675   40.5948 N   0  0  0  0  0  0  0  0  0  0  0  0
    3.1800   16.4573   41.3557 H   0  0  0  0  0  0  0  0  0  0  0  0
    4.5762   14.4254   41.5388 H   0  0  0  0  0  0  0  0  0  0  0  0
    5.1357   13.5876   43.7507 H   0  0  0  0  0  0  0  0  0  0  0  0
    2.9923   16.6842   45.5866 H   0  0  0  0  0  0  0  0  0  0  0  0
    0.2785   21.4219   47.0573 H   0  0  0  0  0  0  0  0  0  0  0  0
   -0.4421   19.8152   47.0339 H   0  0  0  0  0  0  0  0  0  0  0  0
    1.3689   19.9352   46.9490 H   0  0  0  0  0  0  0  0  0  0  0  0
   -0.5548   21.8770   42.3783 H   0  0  0  0  0  0  0  0  0  0  0  0
    1.5625   20.0620   39.8929 H   0  0  0  0  0  0  0  0  0  0  0  0
   -0.2166   20.2003   40.3427 H   0  0  0  0  0  0  0  0  0  0  0  0
  1  2  2  0
  1  6  1  0
  2  3  1  0
  3  4  2  0
  4  5  1  0
  5  6  2  0
  6  7  1  0
  7  8  2  0
  7  9  1  0
  8 16  1  0
  9 10  2  0
 10 11  1  0
 10 15  1  0
 11 12  1  0
 11 13  1  0
 13 14  2  0
 14 15  1  0
 15 16  2  0
 16 17  1  0
  1 18  1  0
  2 19  1  0
  3 20  1  0
  5 21  1  0
 12 22  1  0
 12 23  1  0
 12 24  1  0
 14 25  1  0
 17 26  1  0
 17 27  1  0
M  END
>  <mol_id>  (68) 
2026-09-17-6fnk-s0-n100-0068

>  <rmsd_to_ref>  (68) 
3.530612244899808

>  <pose_kind>  (68) 
conformer

$$$$
6fnk.A
     RDKit          3D

 27 29  0  0  0  0  0  0  0  0999 V2000
    3.6198   16.2857   42.7480 C   0  0  0  0  0  0  0  0  0  0  0  0
    4.2666   15.0502   42.7088 C   0  0  0  0  0  0  0  0  0  0  0  0
    3.9340   14.0648   43.6268 C   0  0  0  0  0  0  0  0  0  0  0  0
    2.9486   14.3096   44.5873 N   0  0  0  0  0  0  0  0  0  0  0  0
    2.3010   15.5537   44.6252 C   0  0  0  0  0  0  0  0  0  0  0  0
    2.6356   16.5451   43.7047 C   0  0  0  0  0  0  0  0  0  0  0  0
    1.9899   17.7851   43.7465 C   0  0  0  0  0  0  0  0  0  0  0  0
    2.4122   18.8092   42.9922 N   0  0  0  0  0  0  0  0  0  0  0  0
    0.9307   17.9572   44.5437 N   0  0  0  0  0  0  0  0  0  0  0  0
    0.2893   19.1370   44.6173 C   0  0  0  0  0  0  0  0  0  0  0  0
   -0.7643   19.5447   45.3410 N   0  0  0  0  0  0  0  0  0  0  0  0
   -1.5243   18.7272   46.2913 C   0  0  0  0  0  0  0  0  0  0  0  0
   -1.0286   20.7223   45.0950 N   0  0  0  0  0  0  0  0  0  0  0  0
   -0.1636   21.1409   44.1564 C   0  0  0  0  0  0  0  0  0  0  0  0
    0.6941   20.1543   43.8633 C   0  0  0  0  0  0  0  0  0  0  0  0
    1.7662   19.9890   43.0408 C   0  0  0  0  0  0  0  0  0  0  0  0
    2.2079   21.0055   42.2611 N   0  0  0  0  0  0  0  0  0  0  0  0
    3.8877   17.0635   42.0179 H   0  0  0  0  0  0  0  0  0  0  0  0
    5.0398   14.8576   41.9506 H   0  0  0  0  0  0  0  0  0  0  0  0
    4.4453   13.0913   43.5988 H   0  0  0  0  0  0  0  0  0  0  0  0
    1.5275   15.7470   45.3830 H   0  0  0  0  0  0  0  0  0  0  0  0
   -1.5938   19.2541   47.2545 H   0  0  0  0  0  0  0  0  0  0  0  0
   -2.5356   18.5506   45.8962 H   0  0  0  0  0  0  0  0  0  0  0  0
   -1.0138   17.7638   46.4364 H   0  0  0  0  0  0  0  0  0  0  0  0
   -0.1602   22.1410   43.6983 H   0  0  0  0  0  0  0  0  0  0  0  0
    1.7285   21.9168   42.2826 H   0  0  0  0  0  0  0  0  0  0  0  0
    3.0232   20.8668   41.6471 H   0  0  0  0  0  0  0  0  0  0  0  0
  1  2  2  0
  1  6  1  0
  2  3  1  0
  3  4  2  0
  4  5  1  0
  5  6  2  0
  6  7  1  0
  7  8  2  0
  7  9  1  0
  8 16  1  0
  9 10  2  0
 10 11  1  0
 10 15  1  0
 11 12  1  0
 11 13  1  0
 13 14  2  0
 14 15  1  0
 15 16  2  0
 16 17  1  0
  1 18  1  0
  2 19  1  0
  3 20  1  0
  5 21  1  0
 12 22  1  0
 12 23  1  0
 12 24  1  0
 14 25  1  0
 17 26  1  0
 17 27  1  0
M  END
>  <mol_id>  (69) 
2026-09-17-6fnk-s0-n100-0069

>  <rmsd_to_ref>  (69) 
3.5765306122459477

>  <pose_kind>  (69) 
rigid

$$$$
6fnk.A
     RDKit          3D

 27 29  0  0  0  0  0  0  0  0999 V2000
    2.4919   15.4649   41.9358 C   0  0  0  0  0  0  0  0  0  0  0  0
    3.7717   14.9477   41.9031 C   0  0  0  0  0  0  0  0  0  0  0  0
    4.8112   15.8465   42.1655 C   0  0  0  0  0  0  0  0  0  0  0  0
    4.5778   17.1235   42.4304 N   0  0  0  0  0  0  0  0  0  0  0  0
    3.3320   17.5960   42.4555 C   0  0  0  0  0  0  0  0  0  0  0  0
    2.2413   16.7980   42.2119 C   0  0  0  0  0  0  0  0  0  0  0  0
    0.8655   17.2804   42.2309 C   0  0  0  0  0  0  0  0  0  0  0  0
   -0.1709   16.4525   41.9843 N   0  0  0  0  0  0  0  0  0  0  0  0
    0.6187   18.5783   42.4997 N   0  0  0  0  0  0  0  0  0  0  0  0
   -0.6558   19.0661   42.5262 C   0  0  0  0  0  0  0  0  0  0  0  0
   -1.1851   20.2820   42.7592 N   0  0  0  0  0  0  0  0  0  0  0  0
   -0.4366   21.5034   43.0739 C   0  0  0  0  0  0  0  0  0  0  0  0
   -2.5008   20.1860   42.6553 N   0  0  0  0  0  0  0  0  0  0  0  0
   -2.8678   18.9391   42.3589 C   0  0  0  0  0  0  0  0  0  0  0  0
   -1.7039   18.2051   42.2715 C   0  0  0  0  0  0  0  0  0  0  0  0
   -1.4517   16.8732   41.9957 C   0  0  0  0  0  0  0  0  0  0  0  0
   -2.5100   15.9493   41.7266 N   0  0  0  0  0  0  0  0  0  0  0  0
    1.6577   14.7960   41.7367 H   0  0  0  0  0  0  0  0  0  0  0  0
    3.9619   13.9019   41.6860 H   0  0  0  0  0  0  0  0  0  0  0  0
    5.8120   15.4134   42.1336 H   0  0  0  0  0  0  0  0  0  0  0  0
    3.1913   18.6374   42.6748 H   0  0  0  0  0  0  0  0  0  0  0  0
   -1.0705   22.3527   42.7508 H   0  0  0  0  0  0  0  0  0  0  0  0
   -0.3422   21.6272   44.1807 H   0  0  0  0  0  0  0  0  0  0  0  0
    0.5509   21.4804   42.6052 H   0  0  0  0  0  0  0  0  0  0  0  0
   -3.8515   18.5107   42.2031 H   0  0  0  0  0  0  0  0  0  0  0  0
   -2.4329   15.3204   40.8750 H   0  0  0  0  0  0  0  0  0  0  0  0
   -3.3365   15.9074   42.3668 H   0  0  0  0  0  0  0  0  0  0  0  0
  1  2  2  0
  1  6  1  0
  2  3  1  0
  3  4  2  0
  4  5  1  0
  5  6  2  0
  6  7  1  0
  7  8  2  0
  7  9  1  0
  8 16  1  0
  9 10  2  0
 10 11  1  0
 10 15  1  0
 11 12  1  0
 11 13  1  0
 13 14  2  0
 14 15  1  0
 15 16  2  0
 16 17  1  0
  1 18  1  0
  2 19  1  0
  3 20  1  0
  5 21  1  0
 12 22  1  0
 12 23  1  0
 12 24  1  0
 14 25  1  0
 17 26  1  0
 17 27  1  0
M  END
>  <mol_id>  (70) 
2026-09-17-6fnk-s0-n100-0070

>  <rmsd_to_ref>  (70) 
3.6224489795921913

>  <pose_kind>  (70) 
conformer

$$$$
6fnk.A
     RDKit          3D

 27 29  0  0  0  0  0  0  0  0999 V2000
    2.0411   18.9696   40.2031 C   0  0  0  0  0  0  0  0  0  0  0  0
    2.5968   18.4358   39.0403 C   0  0  0  0  0  0  0  0  0  0  0  0
    2.8156   17.0696   38.9410 C   0  0  0  0  0  0  0  0  0  0  0  0
    2.4756   16.2292   40.0046 N   0  0  0  0  0  0  0  0  0  0  0  0
    1.9183   16.7692   41.1737 C   0  0  0  0  0  0  0  0  0  0  0  0
    1.6997   18.1418   41.2753 C   0  0  0  0  0  0  0  0  0  0  0  0
    1.1462   18.6775   42.4428 C   0  0  0  0  0  0  0  0  0  0  0  0
    1.0887   20.0025   42.6347 N   0  0  0  0  0  0  0  0  0  0  0  0
    0.6592   17.8617   43.3832 N   0  0  0  0  0  0  0  0  0  0  0  0
    0.1273   18.3391   44.5224 C   0  0  0  0  0  0  0  0  0  0  0  0
   -0.3985   17.7282   45.5951 N   0  0  0  0  0  0  0  0  0  0  0  0
   -0.5299   16.2804   45.7832 C   0  0  0  0  0  0  0  0  0  0  0  0
   -0.7770   18.5578   46.4232 N   0  0  0  0  0  0  0  0  0  0  0  0
   -0.5418   19.7759   45.9084 C   0  0  0  0  0  0  0  0  0  0  0  0
    0.0551   19.6524   44.7153 C   0  0  0  0  0  0  0  0  0  0  0  0
    0.5397   20.4938   43.7611 C   0  0  0  0  0  0  0  0  0  0  0  0
    0.4856   21.8377   43.9264 N   0  0  0  0  0  0  0  0  0  0  0  0
    1.8699   20.0538   40.2766 H   0  0  0  0  0  0  0  0  0  0  0  0
    2.8612   19.0979   38.2025 H   0  0  0  0  0  0  0  0  0  0  0  0
    3.2565   16.6479   38.0256 H   0  0  0  0  0  0  0  0  0  0  0  0
    1.6533   16.1077   42.0117 H   0  0  0  0  0  0  0  0  0  0  0  0
   -0.0950   15.9956   46.7525 H   0  0  0  0  0  0  0  0  0  0  0  0
   -1.5943   16.0032   45.7632 H   0  0  0  0  0  0  0  0  0  0  0  0
    0.0007   15.7560   44.9748 H   0  0  0  0  0  0  0  0  0  0  0  0
   -0.7999   20.7294   46.3925 H   0  0  0  0  0  0  0  0  0  0  0  0
    0.0698   22.2352   44.7808 H   0  0  0  0  0  0  0  0  0  0  0  0
    0.8605   22.4617   43.1977 H   0  0  0  0  0  0  0  0  0  0  0  0
  1  2  2  0
  1  6  1  0
  2  3  1  0
  3  4  2  0
  4  5  1  0
  5  6  2  0
  6  7  1  0
  7  8  2  0
  7  9  1  0
  8 16  1  0
  9 10  2  0
 10 11  1  0
 10 15  1  0
 11 12  1  0
 11 13  1  0
 13 14  2  0
 14 15  1  0
 15 16  2  0
 16 17  1  0
  1 18  1  0
  2 19  1  0
  3 20  1  0
  5 21  1  0
 12 22  1  0
 12 23  1  0
 12 24  1  0
 14 25  1  0
 17 26  1  0
 17 27  1  0
M  END
>  <mol_id>  (71) 
2026-09-17-6fnk-s0-n100-0071

>  <rmsd_to_ref>  (71) 
3.668367346945241

>  <pose_kind>  (71) 
rigid

$$$$
6fnk.A
     RDKit          3D

 27 29  0  0  0  0  0  0  0  0999 V2000
    4.9715   20.6012   46.1049 C   0  0  0  0  0  0  0  0  0  0  0  0
    6.1818   20.2916   46.6931 C   0  0  0  0  0  0  0  0  0  0  0  0
    6.2030   19.1547   47.5079 C   0  0  0  0  0  0  0  0  0  0  0  0
    5.1199   18.4170   47.7029 N   0  0  0  0  0  0  0  0  0  0  0  0
    3.9644   18.7390   47.1225 C   0  0  0  0  0  0  0  0  0  0  0  0
    3.8363   19.8347   46.3046 C   0  0  0  0  0  0  0  0  0  0  0  0
    2.5889   20.2169   45.6535 C   0  0  0  0  0  0  0  0  0  0  0  0
    2.5180   21.3047   44.8587 N   0  0  0  0  0  0  0  0  0  0  0  0
    1.4817   19.4721   45.8464 N   0  0  0  0  0  0  0  0  0  0  0  0
    0.2964   19.7986   45.2538 C   0  0  0  0  0  0  0  0  0  0  0  0
   -0.9347   19.2538   45.2667 N   0  0  0  0  0  0  0  0  0  0  0  0
   -1.3382   18.0495   46.0002 C   0  0  0  0  0  0  0  0  0  0  0  0
   -1.7213   19.9935   44.5016 N   0  0  0  0  0  0  0  0  0  0  0  0
   -1.0509   21.0192   43.9763 C   0  0  0  0  0  0  0  0  0  0  0  0
    0.2421   20.9146   44.4438 C   0  0  0  0  0  0  0  0  0  0  0  0
    1.3774   21.6796   44.2452 C   0  0  0  0  0  0  0  0  0  0  0  0
    1.3623   22.8430   43.4134 N   0  0  0  0  0  0  0  0  0  0  0  0
    4.9162   21.4785   45.4644 H   0  0  0  0  0  0  0  0  0  0  0  0
    7.0683   20.8963   46.5329 H   0  0  0  0  0  0  0  0  0  0  0  0
    7.1703   18.9318   47.9604 H   0  0  0  0  0  0  0  0  0  0  0  0
    3.1134   18.1120   47.3095 H   0  0  0  0  0  0  0  0  0  0  0  0
   -2.4273   18.1420   46.1815 H   0  0  0  0  0  0  0  0  0  0  0  0
   -1.2363   17.1462   45.3501 H   0  0  0  0  0  0  0  0  0  0  0  0
   -0.7427   17.9363   46.9100 H   0  0  0  0  0  0  0  0  0  0  0  0
   -1.3788   21.8118   43.3130 H   0  0  0  0  0  0  0  0  0  0  0  0
    1.7837   23.7426   43.7878 H   0  0  0  0  0  0  0  0  0  0  0  0
    0.9402   22.7911   42.4574 H   0  0  0  0  0  0  0  0  0  0  0  0
  1  2  2  0
  1  6  1  0
  2  3  1  0
  3  4  2  0
  4  5  1  0
  5  6  2  0
  6  7  1  0
  7  8  2  0
  7  9  1  0
  8 16  1  0
  9 10  2  0
 10 11  1  0
 10 15  1  0
 11 12  1  0
 11 13  1  0
 13 14  2  0
 14 15  1  0
 15 16  2  0
 16 17  1  0
  1 18  1  0
  2 19  1  0
  3 20  1  0
  5 21  1  0
 12 22  1  0
 12 23  1  0
 12 24  1  0
 14 25  1  0
 17 26  1  0
 17 27  1  0
M  END
>  <mol_id>  (72) 
2026-09-17-6fnk-s0-n100-0072

>  <rmsd_to_ref>  (72) 
3.714285714291869

>  <pose_kind>  (72) 
conformer

$$$$
6fnk.A
     RDKit          3D

 27 29  0  0  0  0  0  0  0  0999 V2000
    0.1440   18.2746   39.2081 C   0  0  0  0  0  0  0  0  0  0  0  0
    0.4124   17.3293   38.2179 C   0  0  0  0  0  0  0  0  0  0  0  0
    1.2284   16.2434   38.4996 C   0  0  0  0  0  0  0  0  0  0  0  0
    1.7777   16.0958   39.7763 N   0  0  0  0  0  0  0  0  0  0  0  0
    1.5072   17.0490   40.7699 C   0  0  0  0  0  0  0  0  0  0  0  0
    0.6891   18.1414   40.4875 C   0  0  0  0  0  0  0  0  0  0  0  0
    0.4232   19.0910   41.4791 C   0  0  0  0  0  0  0  0  0  0  0  0
   -0.2114   20.2348   41.1874 N   0  0  0  0  0  0  0  0  0  0  0  0
    0.7993   18.8587   42.7407 N   0  0  0  0  0  0  0  0  0  0  0  0
    0.5689   19.7517   43.7197 C   0  0  0  0  0  0  0  0  0  0  0  0
    0.8615   19.7468   45.0292 N   0  0  0  0  0  0  0  0  0  0  0  0
    1.5511   18.6748   45.7533 C   0  0  0  0  0  0  0  0  0  0  0  0
    0.4596   20.7798   45.5662 N   0  0  0  0  0  0  0  0  0  0  0  0
   -0.1558   21.5106   44.6219 C   0  0  0  0  0  0  0  0  0  0  0  0
   -0.0711   20.8831   43.4413 C   0  0  0  0  0  0  0  0  0  0  0  0
   -0.4669   21.1274   42.1619 C   0  0  0  0  0  0  0  0  0  0  0  0
   -1.1182   22.2718   41.8419 N   0  0  0  0  0  0  0  0  0  0  0  0
   -0.5034   19.1338   38.9792 H   0  0  0  0  0  0  0  0  0  0  0  0
   -0.0228   17.4449   37.2143 H   0  0  0  0  0  0  0  0  0  0  0  0
    1.4431   15.4991   37.7188 H   0  0  0  0  0  0  0  0  0  0  0  0
    1.9418   16.9339   41.7737 H   0  0  0  0  0  0  0  0  0  0  0  0
    2.3944   19.0980   46.3187 H   0  0  0  0  0  0  0  0  0  0  0  0
    0.8490   18.1916   46.4488 H   0  0  0  0  0  0  0  0  0  0  0  0
    1.9271   17.9306   45.0359 H   0  0  0  0  0  0  0  0  0  0  0  0
   -0.6533   22.4768   44.7921 H   0  0  0  0  0  0  0  0  0  0  0  0
   -1.3240   22.9687   42.5719 H   0  0  0  0  0  0  0  0  0  0  0  0
   -1.4076   22.4448   40.8686 H   0  0  0  0  0  0  0  0  0  0  0  0
  1  2  2  0
  1  6  1  0
  2  3  1  0
  3  4  2  0
  4  5  1  0
  5  6  2  0
  6  7  1  0
  7  8  2  0
  7  9  1  0
  8 16  1  0
  9 10  2  0
 10 11  1  0
 10 15  1  0
 11 12  1  0
 11 13  1  0
 13 14  2  0
 14 15  1  0
 15 16  2  0
 16 17  1  0
  1 18  1  0
  2 19  1  0
  3 20  1  0
  5 21  1  0
 12 22  1  0
 12 23  1  0
 12 24  1  0
 14 25  1  0
 17 26  1  0
 17 27  1  0
M  END
>  <mol_id>  (73) 
2026-09-17-6fnk-s0-n100-0073

>  <rmsd_to_ref>  (73) 
3.7602040816334683

>  <pose_kind>  (73) 
rigid

$$$$
6fnk.A
     RDKit          3D

 27 29  0  0  0  0  0  0  0  0999 V2000
   -2.1042   17.2149   42.8433 C   0  0  0  0  0  0  0  0  0  0  0  0
   -3.2885   16.5441   43.0756 C   0  0  0  0  0  0  0  0  0  0  0  0
   -3.1928   15.1601   43.2558 C   0  0  0  0  0  0  0  0  0  0  0  0
   -2.0283   14.5299   43.2061 N   0  0  0  0  0  0  0  0  0  0  0  0
   -0.9004   15.2025   42.9803 C   0  0  0  0  0  0  0  0  0  0  0  0
   -0.8845   16.5625   42.7902 C   0  0  0  0  0  0  0  0  0  0  0  0
    0.3297   17.3304   42.5410 C   0  0  0  0  0  0  0  0  0  0  0  0
    0.2890   18.6669   42.3607 N   0  0  0  0  0  0  0  0  0  0  0  0
    1.5188   16.6974   42.4887 N   0  0  0  0  0  0  0  0  0  0  0  0
    2.6764   17.3826   42.2576 C   0  0  0  0  0  0  0  0  0  0  0  0
    3.9697   17.0225   42.1554 N   0  0  0  0  0  0  0  0  0  0  0  0
    4.4992   15.6606   42.2816 C   0  0  0  0  0  0  0  0  0  0  0  0
    4.6840   18.1115   41.9205 N   0  0  0  0  0  0  0  0  0  0  0  0
    3.9047   19.1918   41.8627 C   0  0  0  0  0  0  0  0  0  0  0  0
    2.6162   18.7493   42.0755 C   0  0  0  0  0  0  0  0  0  0  0  0
    1.3965   19.3999   42.1290 C   0  0  0  0  0  0  0  0  0  0  0  0
    1.2920   20.8145   41.9455 N   0  0  0  0  0  0  0  0  0  0  0  0
   -2.1389   18.2922   42.6983 H   0  0  0  0  0  0  0  0  0  0  0  0
   -4.2416   17.0610   43.1161 H   0  0  0  0  0  0  0  0  0  0  0  0
   -4.1418   14.6538   43.4377 H   0  0  0  0  0  0  0  0  0  0  0  0
    0.0193   14.6499   42.9487 H   0  0  0  0  0  0  0  0  0  0  0  0
    5.4470   15.6374   41.7083 H   0  0  0  0  0  0  0  0  0  0  0  0
    4.8034   15.4582   43.3377 H   0  0  0  0  0  0  0  0  0  0  0  0
    3.7588   14.9282   41.9489 H   0  0  0  0  0  0  0  0  0  0  0  0
    4.1526   20.2329   41.6894 H   0  0  0  0  0  0  0  0  0  0  0  0
    0.5660   21.1879   41.2669 H   0  0  0  0  0  0  0  0  0  0  0  0
    1.9263   21.4543   42.4774 H   0  0  0  0  0  0  0  0  0  0  0  0
  1  2  2  0
  1  6  1  0
  2  3  1  0
  3  4  2  0
  4  5  1  0
  5  6  2  0
  6  7  1  0
  7  8  2  0
  7  9  1  0
  8 16  1  0
  9 10  2  0
 10 11  1  0
 10 15  1  0
 11 12  1  0
 11 13  1  0
 13 14  2  0
 14 15  1  0
 15 16  2  0
 16 17  1  0
  1 18  1  0
  2 19  1  0
  3 20  1  0
  5 21  1  0
 12 22  1  0
 12 23  1  0
 12 24  1  0
 14 25  1  0
 17 26  1  0
 17 27  1  0
M  END
>  <mol_id>  (74) 
2026-09-17-6fnk-s0-n100-0074

>  <rmsd_to_ref>  (74) 
3.8061224489839853

>  <pose_kind>  (74) 
conformer

$$$$
6fnk.A
     RDKit          3D

 27 29  0  0  0  0  0  0  0  0999 V2000
    2.7440   16.8159   40.8746 C   0  0  0  0  0  0  0  0  0  0  0  0
    3.6073   15.9592   40.1914 C   0  0  0  0  0  0  0  0  0  0  0  0
    3.9682   14.7446   40.7561 C   0  0  0  0  0  0  0  0  0  0  0  0
    3.4634   14.3791   42.0071 N   0  0  0  0  0  0  0  0  0  0  0  0
    2.5965   15.2436   42.6925 C   0  0  0  0  0  0  0  0  0  0  0  0
    2.2347   16.4649   42.1271 C   0  0  0  0  0  0  0  0  0  0  0  0
    1.3721   17.3255   42.8137 C   0  0  0  0  0  0  0  0  0  0  0  0
    1.1489   18.5726   42.3768 N   0  0  0  0  0  0  0  0  0  0  0  0
    0.7524   16.9027   43.9202 N   0  0  0  0  0  0  0  0  0  0  0  0
   -0.0772   17.7039   44.6121 C   0  0  0  0  0  0  0  0  0  0  0  0
   -0.7848   17.5113   45.7356 N   0  0  0  0  0  0  0  0  0  0  0  0
   -0.8235   16.2787   46.5282 C   0  0  0  0  0  0  0  0  0  0  0  0
   -1.4243   18.5240   46.0231 N   0  0  0  0  0  0  0  0  0  0  0  0
   -1.1864   19.4352   45.0655 C   0  0  0  0  0  0  0  0  0  0  0  0
   -0.3137   18.9382   44.1787 C   0  0  0  0  0  0  0  0  0  0  0  0
    0.3047   19.3775   43.0482 C   0  0  0  0  0  0  0  0  0  0  0  0
    0.0893   20.6308   42.5799 N   0  0  0  0  0  0  0  0  0  0  0  0
    2.4613   17.7779   40.4222 H   0  0  0  0  0  0  0  0  0  0  0  0
    4.0017   16.2466   39.2056 H   0  0  0  0  0  0  0  0  0  0  0  0
    4.6514   14.0697   40.2197 H   0  0  0  0  0  0  0  0  0  0  0  0
    2.2015   14.9567   43.6783 H   0  0  0  0  0  0  0  0  0  0  0  0
   -0.6076   16.5129   47.5811 H   0  0  0  0  0  0  0  0  0  0  0  0
   -1.8223   15.8242   46.4510 H   0  0  0  0  0  0  0  0  0  0  0  0
   -0.0696   15.5740   46.1473 H   0  0  0  0  0  0  0  0  0  0  0  0
   -1.6390   20.4366   45.0166 H   0  0  0  0  0  0  0  0  0  0  0  0
   -0.5528   21.2635   43.0782 H   0  0  0  0  0  0  0  0  0  0  0  0
    0.5679   20.9506   41.7258 H   0  0  0  0  0  0  0  0  0  0  0  0
  1  2  2  0
  1  6  1  0
  2  3  1  0
  3  4  2  0
  4  5  1  0
  5  6  2  0
  6  7  1  0
  7  8  2  0
  7  9  1  0
  8 16  1  0
  9 10  2  0
 10 11  1  0
 10 15  1  0
 11 12  1  0
 11 13  1  0
 13 14  2  0
 14 15  1  0
 15 16  2  0
 16 17  1  0
  1 18  1  0
  2 19  1  0
  3 20  1  0
  5 21  1  0
 12 22  1  0
 12 23  1  0
 12 24  1  0
 14 25  1  0
 17 26  1  0
 17 27  1  0
M  END
>  <mol_id>  (75) 
2026-09-17-6fnk-s0-n100-0075

>  <rmsd_to_ref>  (75) 
3.8520408163331195

>  <pose_kind>  (75) 
rigid

$$$$
6fnk.A
     RDKit          3D

 27 29  0  0  0  0  0  0  0  0999 V2000
    1.8332   16.6197   40.7553 C   0  0  0  0  0  0  0  0  0  0  0  0
    2.0408   15.6954   39.7507 C   0  0  0  0  0  0  0  0  0  0  0  0
    1.3261   14.4972   39.8525 C   0  0  0  0  0  0  0  0  0  0  0  0
    0.4961   14.2643   40.8586 N   0  0  0  0  0  0  0  0  0  0  0  0
    0.3147   15.1745   41.8149 C   0  0  0  0  0  0  0  0  0  0  0  0
    0.9675   16.3826   41.8091 C   0  0  0  0  0  0  0  0  0  0  0  0
    0.7936   17.4012   42.8379 C   0  0  0  0  0  0  0  0  0  0  0  0
    1.4606   18.5727   42.7839 N   0  0  0  0  0  0  0  0  0  0  0  0
   -0.0489   17.1727   43.8652 N   0  0  0  0  0  0  0  0  0  0  0  0
   -0.2374   18.1023   44.8467 C   0  0  0  0  0  0  0  0  0  0  0  0
   -0.9944   18.1445   45.9593 N   0  0  0  0  0  0  0  0  0  0  0  0
   -1.8937   17.0868   46.4322 C   0  0  0  0  0  0  0  0  0  0  0  0
   -0.7874   19.3077   46.5553 N   0  0  0  0  0  0  0  0  0  0  0  0
    0.0876   20.0463   45.8726 C   0  0  0  0  0  0  0  0  0  0  0  0
    0.4530   19.2952   44.7755 C   0  0  0  0  0  0  0  0  0  0  0  0
    1.3178   19.5306   43.7218 C   0  0  0  0  0  0  0  0  0  0  0  0
    2.0514   20.7535   43.6120 N   0  0  0  0  0  0  0  0  0  0  0  0
    2.3717   17.5635   40.7102 H   0  0  0  0  0  0  0  0  0  0  0  0
    2.7207   15.8869   38.9273 H   0  0  0  0  0  0  0  0  0  0  0  0
    1.5077   13.7842   39.0469 H   0  0  0  0  0  0  0  0  0  0  0  0
   -0.3676   14.9420   42.6104 H   0  0  0  0  0  0  0  0  0  0  0  0
   -1.9824   17.2165   47.5289 H   0  0  0  0  0  0  0  0  0  0  0  0
   -2.9284   17.2540   46.0440 H   0  0  0  0  0  0  0  0  0  0  0  0
   -1.5243   16.1039   46.1277 H   0  0  0  0  0  0  0  0  0  0  0  0
    0.4813   21.0371   46.0700 H   0  0  0  0  0  0  0  0  0  0  0  0
    3.0945   20.7065   43.4212 H   0  0  0  0  0  0  0  0  0  0  0  0
    1.5540   21.6677   43.7204 H   0  0  0  0  0  0  0  0  0  0  0  0
  1  2  2  0
  1  6  1  0
  2  3  1  0
  3  4  2  0
  4  5  1  0
  5  6  2  0
  6  7  1  0
  7  8  2  0
  7  9  1  0
  8 16  1  0
  9 10  2  0
 10 11  1  0
 10 15  1  0
 11 12  1  0
 11 13  1  0
 13 14  2  0
 14 15  1  0
 15 16  2  0
 16 17  1  0
  1 18  1  0
  2 19  1  0
  3 20  1  0
  5 21  1  0
 12 22  1  0
 12 23  1  0
 12 24  1  0
 14 25  1  0
 17 26  1  0
 17 27  1  0
M  END
>  <mol_id>  (76) 
2026-09-17-6fnk-s0-n100-0076

>  <rmsd_to_ref>  (76) 
3.8979591836735072

>  <pose_kind>  (76) 
conformer

$$$$
6fnk.A
     RDKit          3D

 27 29  0  0  0  0  0  0  0  0999 V2000
    4.1839   17.2349   44.1253 C   0  0  0  0  0  0  0  0  0  0  0  0
    4.7190   15.9819   44.4246 C   0  0  0  0  0  0  0  0  0  0  0  0
    3.8901   14.8712   44.4848 C   0  0  0  0  0  0  0  0  0  0  0  0
    2.5205   15.0083   44.2417 N   0  0  0  0  0  0  0  0  0  0  0  0
    1.9851   16.2703   43.9425 C   0  0  0  0  0  0  0  0  0  0  0  0
    2.8165   17.3872   43.8836 C   0  0  0  0  0  0  0  0  0  0  0  0
    2.2795   18.6442   43.5874 C   0  0  0  0  0  0  0  0  0  0  0  0
    3.0212   19.7551   43.6966 N   0  0  0  0  0  0  0  0  0  0  0  0
    1.0097   18.7464   43.1823 N   0  0  0  0  0  0  0  0  0  0  0  0
    0.4558   19.9382   42.8968 C   0  0  0  0  0  0  0  0  0  0  0  0
   -0.7771   20.2846   42.4962 N   0  0  0  0  0  0  0  0  0  0  0  0
   -1.8930   19.3659   42.2519 C   0  0  0  0  0  0  0  0  0  0  0  0
   -0.8562   21.5045   42.3453 N   0  0  0  0  0  0  0  0  0  0  0  0
    0.3537   22.0222   42.6144 C   0  0  0  0  0  0  0  0  0  0  0  0
    1.1880   21.0439   42.9906 C   0  0  0  0  0  0  0  0  0  0  0  0
    2.4850   20.9518   43.3936 C   0  0  0  0  0  0  0  0  0  0  0  0
    3.2593   22.0586   43.5037 N   0  0  0  0  0  0  0  0  0  0  0  0
    4.8458   18.1124   44.0791 H   0  0  0  0  0  0  0  0  0  0  0  0
    5.7974   15.8746   44.6128 H   0  0  0  0  0  0  0  0  0  0  0  0
    4.3103   13.8831   44.7237 H   0  0  0  0  0  0  0  0  0  0  0  0
    0.9068   16.3783   43.7539 H   0  0  0  0  0  0  0  0  0  0  0  0
   -2.7775   19.7068   42.8099 H   0  0  0  0  0  0  0  0  0  0  0  0
   -2.1229   19.3462   41.1764 H   0  0  0  0  0  0  0  0  0  0  0  0
   -1.6157   18.3552   42.5862 H   0  0  0  0  0  0  0  0  0  0  0  0
    0.6190   23.0870   42.5374 H   0  0  0  0  0  0  0  0  0  0  0  0
    2.8693   22.9845   43.2769 H   0  0  0  0  0  0  0  0  0  0  0  0
    4.2377   21.9738   43.8143 H   0  0  0  0  0  0  0  0  0  0  0  0
  1  2  2  0
  1  6  1  0
  2  3  1  0
  3  4  2  0
  4  5  1  0
  5  6  2  0
  6  7  1  0
  7  8  2  0
  7  9  1  0
  8 16  1  0
  9 10  2  0
 10 11  1  0
 10 15  1  0
 11 12  1  0
 11 13  1  0
 13 14  2  0
 14 15  1  0
 15 16  2  0
 16 17  1  0
  1 18  1  0
  2 19  1  0
  3 20  1  0
  5 21  1  0
 12 22  1  0
 12 23  1  0
 12 24  1  0
 14 25  1  0
 17 26  1  0
 17 27  1  0
M  END
>  <mol_id>  (77) 
2026-09-17-6fnk-s0-n100-0077

>  <rmsd_to_ref>  (77) 
3.9438775510231

>  <pose_kind>  (77) 
rigid

$$$$
6fnk.A
     RDKit          3D

 27 29  0  0  0  0  0  0  0  0999 V2000
   -0.8768   15.6329   42.9513 C   0  0  0  0  0  0  0  0  0  0  0  0
   -2.1071   15.0969   42.6265 C   0  0  0  0  0  0  0  0  0  0  0  0
   -3.1544   16.0079   42.4522 C   0  0  0  0  0  0  0  0  0  0  0  0
   -2.9731   17.3130   42.5918 N   0  0  0  0  0  0  0  0  0  0  0  0
   -1.7744   17.8031   42.9058 C   0  0  0  0  0  0  0  0  0  0  0  0
   -0.6807   16.9953   43.0985 C   0  0  0  0  0  0  0  0  0  0  0  0
    0.6445   17.4963   43.4428 C   0  0  0  0  0  0  0  0  0  0  0  0
    1.6863   16.6577   43.6212 N   0  0  0  0  0  0  0  0  0  0  0  0
    0.8382   18.8228   43.5867 N   0  0  0  0  0  0  0  0  0  0  0  0
    2.0643   19.3288   43.9083 C   0  0  0  0  0  0  0  0  0  0  0  0
    2.5367   20.5733   44.1107 N   0  0  0  0  0  0  0  0  0  0  0  0
    1.7617   21.8154   44.0242 C   0  0  0  0  0  0  0  0  0  0  0  0
    3.8244   20.4835   44.4020 N   0  0  0  0  0  0  0  0  0  0  0  0
    4.2281   19.2129   44.4005 C   0  0  0  0  0  0  0  0  0  0  0  0
    3.1187   18.4563   44.0872 C   0  0  0  0  0  0  0  0  0  0  0  0
    2.9211   17.0952   43.9397 C   0  0  0  0  0  0  0  0  0  0  0  0
    3.9877   16.1587   44.1165 N   0  0  0  0  0  0  0  0  0  0  0  0
   -0.0382   14.9554   43.0948 H   0  0  0  0  0  0  0  0  0  0  0  0
   -2.2547   14.0282   42.5125 H   0  0  0  0  0  0  0  0  0  0  0  0
   -4.1155   15.5596   42.1964 H   0  0  0  0  0  0  0  0  0  0  0  0
   -1.6750   18.8671   43.0083 H   0  0  0  0  0  0  0  0  0  0  0  0
    2.2776   22.5534   44.6695 H   0  0  0  0  0  0  0  0  0  0  0  0
    1.8296   22.2450   42.9946 H   0  0  0  0  0  0  0  0  0  0  0  0
    0.7182   21.6369   44.2970 H   0  0  0  0  0  0  0  0  0  0  0  0
    5.2039   18.7817   44.5940 H   0  0  0  0  0  0  0  0  0  0  0  0
    3.8253   15.3127   44.7368 H   0  0  0  0  0  0  0  0  0  0  0  0
    4.9034   16.3195   43.6365 H   0  0  0  0  0  0  0  0  0  0  0  0
  1  2  2  0
  1  6  1  0
  2  3  1  0
  3  4  2  0
  4  5  1  0
  5  6  2  0
  6  7  1  0
  7  8  2  0
  7  9  1  0
  8 16  1  0
  9 10  2  0
 10 11  1  0
 10 15  1  0
 11 12  1  0
 11 13  1  0
 13 14  2  0
 14 15  1  0
 15 16  2  0
 16 17  1  0
  1 18  1  0
  2 19  1  0
  3 20  1  0
  5 21  1  0
 12 22  1  0
 12 23  1  0
 12 24  1  0
 14 25  1  0
 17 26  1  0
 17 27  1  0
M  END
>  <mol_id>  (78) 
2026-09-17-6fnk-s0-n100-0078

>  <rmsd_to_ref>  (78) 
3.9897959183702714

>  <pose_kind>  (78) 
conformer

$$$$
6fnk.A
     RDKit          3D

 27 29  0  0  0  0  0  0  0  0999 V2000
   -0.2108   16.4734   45.9220 C   0  0  0  0  0  0  0  0  0  0  0  0
   -1.0764   16.1017   46.9508 C   0  0  0  0  0  0  0  0  0  0  0  0
   -1.9555   17.0315   47.4865 C   0  0  0  0  0  0  0  0  0  0  0  0
   -1.9754   18.3386   46.9921 N   0  0  0  0  0  0  0  0  0  0  0  0
   -1.1025   18.7100   45.9583 C   0  0  0  0  0  0  0  0  0  0  0  0
   -0.2176   17.7772   45.4207 C   0  0  0  0  0  0  0  0  0  0  0  0
    0.6530   18.1510   44.3918 C   0  0  0  0  0  0  0  0  0  0  0  0
    1.6284   17.3293   43.9800 N   0  0  0  0  0  0  0  0  0  0  0  0
    0.5122   19.3418   43.8010 N   0  0  0  0  0  0  0  0  0  0  0  0
    1.3352   19.7399   42.8145 C   0  0  0  0  0  0  0  0  0  0  0  0
    1.3981   20.8719   42.0971 N   0  0  0  0  0  0  0  0  0  0  0  0
    0.5060   22.0273   42.2316 C   0  0  0  0  0  0  0  0  0  0  0  0
    2.3189   20.8163   41.2808 N   0  0  0  0  0  0  0  0  0  0  0  0
    2.8941   19.6088   41.4052 C   0  0  0  0  0  0  0  0  0  0  0  0
    2.2975   18.9260   42.3916 C   0  0  0  0  0  0  0  0  0  0  0  0
    2.4455   17.7070   42.9794 C   0  0  0  0  0  0  0  0  0  0  0  0
    3.4178   16.8537   42.5758 N   0  0  0  0  0  0  0  0  0  0  0  0
    0.4845   15.7321   45.5011 H   0  0  0  0  0  0  0  0  0  0  0  0
   -1.0619   15.0718   47.3371 H   0  0  0  0  0  0  0  0  0  0  0  0
   -2.6364   16.7402   48.2998 H   0  0  0  0  0  0  0  0  0  0  0  0
   -1.1166   19.7396   45.5713 H   0  0  0  0  0  0  0  0  0  0  0  0
    1.1057   22.9413   42.3535 H   0  0  0  0  0  0  0  0  0  0  0  0
   -0.1180   22.1157   41.3300 H   0  0  0  0  0  0  0  0  0  0  0  0
   -0.1391   21.8919   43.1122 H   0  0  0  0  0  0  0  0  0  0  0  0
    3.7276   19.2373   40.7911 H   0  0  0  0  0  0  0  0  0  0  0  0
    4.0543   17.1224   41.8118 H   0  0  0  0  0  0  0  0  0  0  0  0
    3.5204   15.9365   43.0330 H   0  0  0  0  0  0  0  0  0  0  0  0
  1  2  2  0
  1  6  1  0
  2  3  1  0
  3  4  2  0
  4  5  1  0
  5  6  2  0
  6  7  1  0
  7  8  2  0
  7  9  1  0
  8 16  1  0
  9 10  2  0
 10 11  1  0
 10 15  1  0
 11 12  1  0
 11 13  1  0
 13 14  2  0
 14 15  1  0
 15 16  2  0
 16 17  1  0
  1 18  1  0
  2 19  1  0
  3 20  1  0
  5 21  1  0
 12 22  1  0
 12 23  1  0
 12 24  1  0
 14 25  1  0
 17 26  1  0
 17 27  1  0
M  END
>  <mol_id>  (79) 
2026-09-17-6fnk-s0-n100-0079

>  <rmsd_to_ref>  (79) 
4.035714285716131

>  <pose_kind>  (79) 
rigid

$$$$
6fnk.A
     RDKit          3D

 27 29  0  0  0  0  0  0  0  0999 V2000
    1.6766   18.9174   39.6713 C   0  0  0  0  0  0  0  0  0  0  0  0
    1.5394   18.9768   38.2986 C   0  0  0  0  0  0  0  0  0  0  0  0
    0.2424   18.8236   37.7974 C   0  0  0  0  0  0  0  0  0  0  0  0
   -0.7959   18.6321   38.5979 N   0  0  0  0  0  0  0  0  0  0  0  0
   -0.6346   18.5790   39.9197 C   0  0  0  0  0  0  0  0  0  0  0  0
    0.5961   18.7177   40.5131 C   0  0  0  0  0  0  0  0  0  0  0  0
    0.8096   18.6650   41.9545 C   0  0  0  0  0  0  0  0  0  0  0  0
    2.0416   18.8073   42.4860 N   0  0  0  0  0  0  0  0  0  0  0  0
   -0.2410   18.4706   42.7767 N   0  0  0  0  0  0  0  0  0  0  0  0
   -0.0799   18.4156   44.1309 C   0  0  0  0  0  0  0  0  0  0  0  0
   -0.9240   18.2380   45.1647 N   0  0  0  0  0  0  0  0  0  0  0  0
   -2.3742   18.0400   45.0710 C   0  0  0  0  0  0  0  0  0  0  0  0
   -0.2186   18.2728   46.2839 N   0  0  0  0  0  0  0  0  0  0  0  0
    1.0751   18.4689   46.0284 C   0  0  0  0  0  0  0  0  0  0  0  0
    1.1872   18.5631   44.6573 C   0  0  0  0  0  0  0  0  0  0  0  0
    2.2660   18.7626   43.8147 C   0  0  0  0  0  0  0  0  0  0  0  0
    3.5945   18.9199   44.3209 N   0  0  0  0  0  0  0  0  0  0  0  0
    2.6703   19.0323   40.0979 H   0  0  0  0  0  0  0  0  0  0  0  0
    2.3901   19.1335   37.6439 H   0  0  0  0  0  0  0  0  0  0  0  0
    0.1608   18.8744   36.7107 H   0  0  0  0  0  0  0  0  0  0  0  0
   -1.5046   18.4223   40.5287 H   0  0  0  0  0  0  0  0  0  0  0  0
   -2.6749   17.4832   45.9803 H   0  0  0  0  0  0  0  0  0  0  0  0
   -2.9062   19.0196   45.1515 H   0  0  0  0  0  0  0  0  0  0  0  0
   -2.6338   17.5387   44.1348 H   0  0  0  0  0  0  0  0  0  0  0  0
    1.9231   18.5493   46.6992 H   0  0  0  0  0  0  0  0  0  0  0  0
    4.3756   18.3454   43.8888 H   0  0  0  0  0  0  0  0  0  0  0  0
    3.7751   19.5923   45.1019 H   0  0  0  0  0  0  0  0  0  0  0  0
  1  2  2  0
  1  6  1  0
  2  3  1  0
  3  4  2  0
  4  5  1  0
  5  6  2  0
  6  7  1  0
  7  8  2  0
  7  9  1  0
  8 16  1  0
  9 10  2  0
 10 11  1  0
 10 15  1  0
 11 12  1  0
 11 13  1  0
 13 14  2  0
 14 15  1  0
 15 16  2  0
 16 17  1  0
  1 18  1  0
  2 19  1  0
  3 20  1  0
  5 21  1  0
 12 22  1  0
 12 23  1  0
 12 24  1  0
 14 25  1  0
 17 26  1  0
 17 27  1  0
M  END
>  <mol_id>  (80) 
2026-09-17-6fnk-s0-n100-0080

>  <rmsd_to_ref>  (80) 
4.08163265306494

>  <pose_kind>  (80) 
conformer

$$$$
6fnk.A
     RDKit          3D

 27 29  0  0  0  0  0  0  0  0999 V2000
    4.3981   15.5079   43.6282 C   0  0  0  0  0  0  0  0  0  0  0  0
    5.3479   14.7754   42.9161 C   0  0  0  0  0  0  0  0  0  0  0  0
    5.2340   14.6467   41.5396 C   0  0  0  0  0  0  0  0  0  0  0  0
    4.1698   15.2541   40.8674 N   0  0  0  0  0  0  0  0  0  0  0  0
    3.2151   15.9890   41.5867 C   0  0  0  0  0  0  0  0  0  0  0  0
    3.3275   16.1175   42.9699 C   0  0  0  0  0  0  0  0  0  0  0  0
    2.3730   16.8487   43.6843 C   0  0  0  0  0  0  0  0  0  0  0  0
    2.3587   16.8413   45.0244 N   0  0  0  0  0  0  0  0  0  0  0  0
    1.4618   17.5735   43.0276 N   0  0  0  0  0  0  0  0  0  0  0  0
    0.5232   18.2825   43.6795 C   0  0  0  0  0  0  0  0  0  0  0  0
   -0.4837   19.0558   43.2453 N   0  0  0  0  0  0  0  0  0  0  0  0
   -0.8142   19.3325   41.8441 C   0  0  0  0  0  0  0  0  0  0  0  0
   -1.1092   19.5261   44.1964 N   0  0  0  0  0  0  0  0  0  0  0  0
   -0.5107   19.1008   45.3211 C   0  0  0  0  0  0  0  0  0  0  0  0
    0.5095   18.2905   45.0089 C   0  0  0  0  0  0  0  0  0  0  0  0
    1.4377   17.5633   45.6892 C   0  0  0  0  0  0  0  0  0  0  0  0
    1.4509   17.5458   47.0442 N   0  0  0  0  0  0  0  0  0  0  0  0
    4.4933   15.6065   44.7197 H   0  0  0  0  0  0  0  0  0  0  0  0
    6.1868   14.3001   43.4456 H   0  0  0  0  0  0  0  0  0  0  0  0
    5.9807   14.0667   40.9773 H   0  0  0  0  0  0  0  0  0  0  0  0
    2.3761   16.4648   41.0577 H   0  0  0  0  0  0  0  0  0  0  0  0
   -1.8797   19.1214   41.6701 H   0  0  0  0  0  0  0  0  0  0  0  0
   -0.6087   20.3898   41.6209 H   0  0  0  0  0  0  0  0  0  0  0  0
   -0.2023   18.6940   41.1900 H   0  0  0  0  0  0  0  0  0  0  0  0
   -0.8122   19.3758   46.3426 H   0  0  0  0  0  0  0  0  0  0  0  0
    0.7553   18.0910   47.5730 H   0  0  0  0  0  0  0  0  0  0  0  0
    2.1565   16.9873   47.5452 H   0  0  0  0  0  0  0  0  0  0  0  0
  1  2  2  0
  1  6  1  0
  2  3  1  0
  3  4  2  0
  4  5  1  0
  5  6  2  0
  6  7  1  0
  7  8  2  0
  7  9  1  0
  8 16  1  0
  9 10  2  0
 10 11  1  0
 10 15  1  0
 11 12  1  0
 11 13  1  0
 13 14  2  0
 14 15  1  0
 15 16  2  0
 16 17  1  0
  1 18  1  0
  2 19  1  0
  3 20  1  0
  5 21  1  0
 12 22  1  0
 12 23  1  0
 12 24  1  0
 14 25  1  0
 17 26  1  0
 17 27  1  0
M  END
>  <mol_id>  (81) 
2026-09-17-6fnk-s0-n100-0081

>  <rmsd_to_ref>  (81) 
4.127551020409601

>  <pose_kind>  (81) 
rigid

$$$$
6fnk.A
     RDKit          3D

 27 29  0  0  0  0  0  0  0  0999 V2000
    4.1386   16.5230   42.9678 C   0  0  0  0  0  0  0  0  0  0  0  0
    4.9415   15.7148   42.1877 C   0  0  0  0  0  0  0  0  0  0  0  0
    5.1655   16.1440   40.8752 C   0  0  0  0  0  0  0  0  0  0  0  0
    4.6351   17.2649   40.4086 N   0  0  0  0  0  0  0  0  0  0  0  0
    3.8635   18.0261   41.1838 C   0  0  0  0  0  0  0  0  0  0  0  0
    3.5814   17.6951   42.4865 C   0  0  0  0  0  0  0  0  0  0  0  0
    2.7421   18.5035   43.3629 C   0  0  0  0  0  0  0  0  0  0  0  0
    2.4967   18.1316   44.6364 N   0  0  0  0  0  0  0  0  0  0  0  0
    2.1982   19.6455   42.8966 N   0  0  0  0  0  0  0  0  0  0  0  0
    1.4074   20.4279   43.6874 C   0  0  0  0  0  0  0  0  0  0  0  0
    0.7501   21.5869   43.4942 N   0  0  0  0  0  0  0  0  0  0  0  0
    0.7249   22.3686   42.2536 C   0  0  0  0  0  0  0  0  0  0  0  0
    0.1284   21.9011   44.6194 N   0  0  0  0  0  0  0  0  0  0  0  0
    0.3511   20.9843   45.5614 C   0  0  0  0  0  0  0  0  0  0  0  0
    1.1670   20.0323   44.9876 C   0  0  0  0  0  0  0  0  0  0  0  0
    1.7245   18.8607   45.4671 C   0  0  0  0  0  0  0  0  0  0  0  0
    1.4994   18.4164   46.8079 N   0  0  0  0  0  0  0  0  0  0  0  0
    3.9418   16.2217   43.9941 H   0  0  0  0  0  0  0  0  0  0  0  0
    5.3755   14.7971   42.5706 H   0  0  0  0  0  0  0  0  0  0  0  0
    5.8027   15.4885   40.2798 H   0  0  0  0  0  0  0  0  0  0  0  0
    3.4556   18.9254   40.7628 H   0  0  0  0  0  0  0  0  0  0  0  0
   -0.2165   22.9528   42.2691 H   0  0  0  0  0  0  0  0  0  0  0  0
    1.5347   23.1387   42.2628 H   0  0  0  0  0  0  0  0  0  0  0  0
    0.8288   21.7135   41.3845 H   0  0  0  0  0  0  0  0  0  0  0  0
    0.0020   20.9256   46.5862 H   0  0  0  0  0  0  0  0  0  0  0  0
    1.2042   17.4095   46.9682 H   0  0  0  0  0  0  0  0  0  0  0  0
    1.6277   19.0840   47.6034 H   0  0  0  0  0  0  0  0  0  0  0  0
  1  2  2  0
  1  6  1  0
  2  3  1  0
  3  4  2  0
  4  5  1  0
  5  6  2  0
  6  7  1  0
  7  8  2  0
  7  9  1  0
  8 16  1  0
  9 10  2  0
 10 11  1  0
 10 15  1  0
 11 12  1  0
 11 13  1  0
 13 14  2  0
 14 15  1  0
 15 16  2  0
 16 17  1  0
  1 18  1  0
  2 19  1  0
  3 20  1  0
  5 21  1  0
 12 22  1  0
 12 23  1  0
 12 24  1  0
 14 25  1  0
 17 26  1  0
 17 27  1  0
M  END
>  <mol_id>  (82) 
2026-09-17-6fnk-s0-n100-0082

>  <rmsd_to_ref>  (82) 
4.173469387755513

>  <pose_kind>  (82) 
conformer

$$$$
6fnk.A
     RDKit          3D

 27 29  0  0  0  0  0  0  0  0999 V2000
   -0.5064   15.9862   39.6940 C   0  0  0  0  0  0  0  0  0  0  0  0
   -1.3033   15.0204   39.0791 C   0  0  0  0  0  0  0  0  0  0  0  0
   -2.2460   14.3248   39.8220 C   0  0  0  0  0  0  0  0  0  0  0  0
   -2.3988   14.5952   41.1846 N   0  0  0  0  0  0  0  0  0  0  0  0
   -1.5947   15.5662   41.8006 C   0  0  0  0  0  0  0  0  0  0  0  0
   -0.6461   16.2643   41.0558 C   0  0  0  0  0  0  0  0  0  0  0  0
    0.1556   17.2299   41.6731 C   0  0  0  0  0  0  0  0  0  0  0  0
    1.1881   17.7869   41.0254 N   0  0  0  0  0  0  0  0  0  0  0  0
   -0.1099   17.6129   42.9261 N   0  0  0  0  0  0  0  0  0  0  0  0
    0.6434   18.5321   43.5558 C   0  0  0  0  0  0  0  0  0  0  0  0
    0.5822   19.0527   44.7908 N   0  0  0  0  0  0  0  0  0  0  0  0
   -0.4061   18.7150   45.8195 C   0  0  0  0  0  0  0  0  0  0  0  0
    1.4790   19.8807   44.9562 N   0  0  0  0  0  0  0  0  0  0  0  0
    2.1642   19.9669   43.8042 C   0  0  0  0  0  0  0  0  0  0  0  0
    1.6620   19.0985   42.9162 C   0  0  0  0  0  0  0  0  0  0  0  0
    1.9371   18.7233   41.6368 C   0  0  0  0  0  0  0  0  0  0  0  0
    2.9698   19.2773   40.9563 N   0  0  0  0  0  0  0  0  0  0  0  0
    0.2398   16.5347   39.1002 H   0  0  0  0  0  0  0  0  0  0  0  0
   -1.1842   14.8105   38.0059 H   0  0  0  0  0  0  0  0  0  0  0  0
   -2.8729   13.5609   39.3388 H   0  0  0  0  0  0  0  0  0  0  0  0
   -1.7134   15.7768   42.8737 H   0  0  0  0  0  0  0  0  0  0  0  0
    0.1121   18.4523   46.7536 H   0  0  0  0  0  0  0  0  0  0  0  0
   -1.0626   19.5800   45.9953 H   0  0  0  0  0  0  0  0  0  0  0  0
   -1.0093   17.8595   45.4818 H   0  0  0  0  0  0  0  0  0  0  0  0
    3.0089   20.6466   43.6183 H   0  0  0  0  0  0  0  0  0  0  0  0
    3.5558   19.9957   41.4050 H   0  0  0  0  0  0  0  0  0  0  0  0
    3.1686   18.9801   39.9904 H   0  0  0  0  0  0  0  0  0  0  0  0
  1  2  2  0
  1  6  1  0
  2  3  1  0
  3  4  2  0
  4  5  1  0
  5  6  2  0
  6  7  1  0
  7  8  2  0
  7  9  1  0
  8 16  1  0
  9 10  2  0
 10 11  1  0
 10 15  1  0
 11 12  1  0
 11 13  1  0
 13 14  2  0
 14 15  1  0
 15 16  2  0
 16 17  1  0
  1 18  1  0
  2 19  1  0
  3 20  1  0
  5 21  1  0
 12 22  1  0
 12 23  1  0
 12 24  1  0
 14 25  1  0
 17 26  1  0
 17 27  1  0
M  END
>  <mol_id>  (83) 
2026-09-17-6fnk-s0-n100-0083

>  <rmsd_to_ref>  (83) 
4.219387755102335

>  <pose_kind>  (83) 
rigid

$$$$
6fnk.A
     RDKit          3D

 27 29  0  0  0  0  0  0  0  0999 V2000
   -1.2143   19.6504   42.6345 C   0  0  0  0  0  0  0  0  0  0  0  0
   -2.4795   19.6600   43.1875 C   0  0  0  0  0  0  0  0  0  0  0  0
   -2.5466   19.6187   44.5842 C   0  0  0  0  0  0  0  0  0  0  0  0
   -1.4546   19.5729   45.3332 N   0  0  0  0  0  0  0  0  0  0  0  0
   -0.2457   19.5647   44.7727 C   0  0  0  0  0  0  0  0  0  0  0  0
   -0.0696   19.6027   43.4113 C   0  0  0  0  0  0  0  0  0  0  0  0
    1.2370   19.5951   42.7640 C   0  0  0  0  0  0  0  0  0  0  0  0
    1.3535   19.6337   41.4204 N   0  0  0  0  0  0  0  0  0  0  0  0
    2.3535   19.5486   43.5182 N   0  0  0  0  0  0  0  0  0  0  0  0
    3.5935   19.5400   42.9481 C   0  0  0  0  0  0  0  0  0  0  0  0
    4.8463   19.4987   43.4394 N   0  0  0  0  0  0  0  0  0  0  0  0
    5.2162   19.4477   44.8577 C   0  0  0  0  0  0  0  0  0  0  0  0
    5.6900   19.5122   42.4198 N   0  0  0  0  0  0  0  0  0  0  0  0
    5.0367   19.5614   41.2587 C   0  0  0  0  0  0  0  0  0  0  0  0
    3.6941   19.5799   41.5723 C   0  0  0  0  0  0  0  0  0  0  0  0
    2.5492   19.6276   40.7974 C   0  0  0  0  0  0  0  0  0  0  0  0
    2.6111   19.6701   39.3690 N   0  0  0  0  0  0  0  0  0  0  0  0
   -1.1223   19.6816   41.5512 H   0  0  0  0  0  0  0  0  0  0  0  0
   -3.3731   19.6975   42.5735 H   0  0  0  0  0  0  0  0  0  0  0  0
   -3.5568   19.6273   44.9960 H   0  0  0  0  0  0  0  0  0  0  0  0
    0.6104   19.5270   45.4193 H   0  0  0  0  0  0  0  0  0  0  0  0
    6.2135   18.9675   44.9054 H   0  0  0  0  0  0  0  0  0  0  0  0
    5.3809   20.4795   45.2538 H   0  0  0  0  0  0  0  0  0  0  0  0
    4.4454   18.9329   45.4374 H   0  0  0  0  0  0  0  0  0  0  0  0
    5.4077   19.5847   40.2401 H   0  0  0  0  0  0  0  0  0  0  0  0
    2.0057   18.9985   38.8127 H   0  0  0  0  0  0  0  0  0  0  0  0
    3.2458   20.3556   38.8980 H   0  0  0  0  0  0  0  0  0  0  0  0
  1  2  2  0
  1  6  1  0
  2  3  1  0
  3  4  2  0
  4  5  1  0
  5  6  2  0
  6  7  1  0
  7  8  2  0
  7  9  1  0
  8 16  1  0
  9 10  2  0
 10 11  1  0
 10 15  1  0
 11 12  1  0
 11 13  1  0
 13 14  2  0
 14 15  1  0
 15 16  2  0
 16 17  1  0
  1 18  1  0
  2 19  1  0
  3 20  1  0
  5 21  1  0
 12 22  1  0
 12 23  1  0
 12 24  1  0
 14 25  1  0
 17 26  1  0
 17 27  1  0
M  END
>  <mol_id>  (84) 
2026-09-17-6fnk-s0-n100-0084

>  <rmsd_to_ref>  (84) 
4.265306122453909

>  <pose_kind>  (84) 
conformer

$$$$
6fnk.A
     RDKit          3D

 27 29  0  0  0  0  0  0  0  0999 V2000
   -2.5627   17.2549   42.6495 C   0  0  0  0  0  0  0  0  0  0  0  0
   -3.8699   16.8505   42.3781 C   0  0  0  0  0  0  0  0  0  0  0  0
   -4.9137   17.3022   43.1724 C   0  0  0  0  0  0  0  0  0  0  0  0
   -4.6548   18.1648   44.2411 N   0  0  0  0  0  0  0  0  0  0  0  0
   -3.3387   18.5686   44.5126 C   0  0  0  0  0  0  0  0  0  0  0  0
   -2.2890   18.1140   43.7165 C   0  0  0  0  0  0  0  0  0  0  0  0
   -0.9780   18.5164   43.9909 C   0  0  0  0  0  0  0  0  0  0  0  0
    0.0625   17.9595   43.3557 N   0  0  0  0  0  0  0  0  0  0  0  0
   -0.7516   19.4748   44.8948 N   0  0  0  0  0  0  0  0  0  0  0  0
    0.4952   19.8820   45.1918 C   0  0  0  0  0  0  0  0  0  0  0  0
    0.9613   20.7962   46.0563 N   0  0  0  0  0  0  0  0  0  0  0  0
    0.1497   21.6343   46.9441 C   0  0  0  0  0  0  0  0  0  0  0  0
    2.1906   20.8536   46.0045 N   0  0  0  0  0  0  0  0  0  0  0  0
    2.5943   19.9855   45.0623 C   0  0  0  0  0  0  0  0  0  0  0  0
    1.5321   19.3438   44.5574 C   0  0  0  0  0  0  0  0  0  0  0  0
    1.3140   18.3729   43.6283 C   0  0  0  0  0  0  0  0  0  0  0  0
    2.3477   17.8000   42.9653 N   0  0  0  0  0  0  0  0  0  0  0  0
   -1.7388   16.8934   42.0166 H   0  0  0  0  0  0  0  0  0  0  0  0
   -4.0729   16.1739   41.5349 H   0  0  0  0  0  0  0  0  0  0  0  0
   -5.9446   16.9817   42.9612 H   0  0  0  0  0  0  0  0  0  0  0  0
   -3.1350   19.2454   45.3554 H   0  0  0  0  0  0  0  0  0  0  0  0
    0.5242   21.5464   47.9746 H   0  0  0  0  0  0  0  0  0  0  0  0
    0.2145   22.6830   46.6186 H   0  0  0  0  0  0  0  0  0  0  0  0
   -0.8981   21.3021   46.9050 H   0  0  0  0  0  0  0  0  0  0  0  0
    3.6376   19.8258   44.7525 H   0  0  0  0  0  0  0  0  0  0  0  0
    3.3136   18.1011   43.1583 H   0  0  0  0  0  0  0  0  0  0  0  0
    2.1674   17.0634   42.2682 H   0  0  0  0  0  0  0  0  0  0  0  0
  1  2  2  0
  1  6  1  0
  2  3  1  0
  3  4  2  0
  4  5  1  0
  5  6  2  0
  6  7  1  0
  7  8  2  0
  7  9  1  0
  8 16  1  0
  9 10  2  0
 10 11  1  0
 10 15  1  0
 11 12  1  0
 11 13  1  0
 13 14  2  0
 14 15  1  0
 15 16  2  0
 16 17  1  0
  1 18  1  0
  2 19  1  0
  3 20  1  0
  5 21  1  0
 12 22  1  0
 12 23  1  0
 12 24  1  0
 14 25  1  0
 17 26  1  0
 17 27  1  0
M  END
>  <mol_id>  (85) 
2026-09-17-6fnk-s0-n100-0085

>  <rmsd_to_ref>  (85) 
4.311224489798775

>  <pose_kind>  (85) 
rigid

$$$$
6fnk.A
     RDKit          3D

 27 29  0  0  0  0  0  0  0  0999 V2000
    2.7469   18.9520   40.7533 C   0  0  0  0  0  0  0  0  0  0  0  0
    3.3935   18.5997   39.5853 C   0  0  0  0  0  0  0  0  0  0  0  0
    3.4799   17.2302   39.3126 C   0  0  0  0  0  0  0  0  0  0  0  0
    2.9686   16.3230   40.1318 N   0  0  0  0  0  0  0  0  0  0  0  0
    2.3495   16.6914   41.2530 C   0  0  0  0  0  0  0  0  0  0  0  0
    2.2106   18.0092   41.6134 C   0  0  0  0  0  0  0  0  0  0  0  0
    1.5400   18.4483   42.8314 C   0  0  0  0  0  0  0  0  0  0  0  0
    1.4312   19.7577   43.1382 N   0  0  0  0  0  0  0  0  0  0  0  0
    1.0167   17.5323   43.6708 N   0  0  0  0  0  0  0  0  0  0  0  0
    0.3820   17.9054   44.8200 C   0  0  0  0  0  0  0  0  0  0  0  0
   -0.2188   17.2281   45.8165 N   0  0  0  0  0  0  0  0  0  0  0  0
   -0.3476   15.7704   45.9146 C   0  0  0  0  0  0  0  0  0  0  0  0
   -0.6746   18.1060   46.6957 N   0  0  0  0  0  0  0  0  0  0  0  0
   -0.3959   19.3530   46.3155 C   0  0  0  0  0  0  0  0  0  0  0  0
    0.2798   19.2490   45.1180 C   0  0  0  0  0  0  0  0  0  0  0  0
    0.8163   20.1899   44.2575 C   0  0  0  0  0  0  0  0  0  0  0  0
    0.7313   21.5913   44.5307 N   0  0  0  0  0  0  0  0  0  0  0  0
    2.6602   20.0079   40.9991 H   0  0  0  0  0  0  0  0  0  0  0  0
    3.8119   19.3432   38.9151 H   0  0  0  0  0  0  0  0  0  0  0  0
    3.9950   16.9783   38.3846 H   0  0  0  0  0  0  0  0  0  0  0  0
    1.9509   15.9215   41.8860 H   0  0  0  0  0  0  0  0  0  0  0  0
   -0.4456   15.5352   46.9928 H   0  0  0  0  0  0  0  0  0  0  0  0
   -1.3133   15.4344   45.4637 H   0  0  0  0  0  0  0  0  0  0  0  0
    0.4963   15.2765   45.4254 H   0  0  0  0  0  0  0  0  0  0  0  0
   -0.6182   20.3023   46.7900 H   0  0  0  0  0  0  0  0  0  0  0  0
    1.6115   22.1797   44.4537 H   0  0  0  0  0  0  0  0  0  0  0  0
   -0.1883   22.0120   44.7997 H   0  0  0  0  0  0  0  0  0  0  0  0
  1  2  2  0
  1  6  1  0
  2  3  1  0
  3  4  2  0
  4  5  1  0
  5  6  2  0
  6  7  1  0
  7  8  2  0
  7  9  1  0
  8 16  1  0
  9 10  2  0
 10 11  1  0
 10 15  1  0
 11 12  1  0
 11 13  1  0
 13 14  2  0
 14 15  1  0
 15 16  2  0
 16 17  1  0
  1 18  1  0
  2 19  1  0
  3 20  1  0
  5 21  1  0
 12 22  1  0
 12 23  1  0
 12 24  1  0
 14 25  1  0
 17 26  1  0
 17 27  1  0
M  END
>  <mol_id>  (86) 
2026-09-17-6fnk-s0-n100-0086

>  <rmsd_to_ref>  (86) 
4.3571428571489275

>  <pose_kind>  (86) 
conformer

$$$$
6fnk.A
     RDKit          3D

 27 29  0  0  0  0  0  0  0  0999 V2000
    0.8740   17.5937   45.4415 C   0  0  0  0  0  0  0  0  0  0  0  0
    0.0056   17.1016   46.4159 C   0  0  0  0  0  0  0  0  0  0  0  0
   -1.1678   17.7825   46.7057 C   0  0  0  0  0  0  0  0  0  0  0  0
   -1.4801   18.9587   46.0184 N   0  0  0  0  0  0  0  0  0  0  0  0
   -0.6039   19.4521   45.0398 C   0  0  0  0  0  0  0  0  0  0  0  0
    0.5761   18.7699   44.7492 C   0  0  0  0  0  0  0  0  0  0  0  0
    1.4488   19.2653   43.7750 C   0  0  0  0  0  0  0  0  0  0  0  0
    2.6649   18.7299   43.6006 N   0  0  0  0  0  0  0  0  0  0  0  0
    1.0685   20.2842   42.9975 N   0  0  0  0  0  0  0  0  0  0  0  0
    1.8830   20.7934   42.0561 C   0  0  0  0  0  0  0  0  0  0  0  0
    1.7312   21.8027   41.1852 N   0  0  0  0  0  0  0  0  0  0  0  0
    0.5414   22.6475   41.0452 C   0  0  0  0  0  0  0  0  0  0  0  0
    2.7405   21.9305   40.4908 N   0  0  0  0  0  0  0  0  0  0  0  0
    3.6060   20.9717   40.8592 C   0  0  0  0  0  0  0  0  0  0  0  0
    3.0862   20.2600   41.8683 C   0  0  0  0  0  0  0  0  0  0  0  0
    3.4815   19.2163   42.6477 C   0  0  0  0  0  0  0  0  0  0  0  0
    4.7024   18.6508   42.4861 N   0  0  0  0  0  0  0  0  0  0  0  0
    1.8032   17.0499   45.2159 H   0  0  0  0  0  0  0  0  0  0  0  0
    0.2509   16.1742   46.9542 H   0  0  0  0  0  0  0  0  0  0  0  0
   -1.8519   17.3971   47.4761 H   0  0  0  0  0  0  0  0  0  0  0  0
   -0.8488   20.3792   44.5010 H   0  0  0  0  0  0  0  0  0  0  0  0
    0.8362   23.7063   41.0898 H   0  0  0  0  0  0  0  0  0  0  0  0
    0.0575   22.4421   40.0789 H   0  0  0  0  0  0  0  0  0  0  0  0
   -0.1623   22.4280   41.8616 H   0  0  0  0  0  0  0  0  0  0  0  0
    4.5913   20.7974   40.4022 H   0  0  0  0  0  0  0  0  0  0  0  0
    5.3433   19.0073   41.7629 H   0  0  0  0  0  0  0  0  0  0  0  0
    4.9893   17.8646   43.0863 H   0  0  0  0  0  0  0  0  0  0  0  0
  1  2  2  0
  1  6  1  0
  2  3  1  0
  3  4  2  0
  4  5  1  0
  5  6  2  0
  6  7  1  0
  7  8  2  0
  7  9  1  0
  8 16  1  0
  9 10  2  0
 10 11  1  0
 10 15  1  0
 11 12  1  0
 11 13  1  0
 13 14  2  0
 14 15  1  0
 15 16  2  0
 16 17  1  0
  1 18  1  0
  2 19  1  0
  3 20  1  0
  5 21  1  0
 12 22  1  0
 12 23  1  0
 12 24  1  0
 14 25  1  0
 17 26  1  0
 17 27  1  0
M  END
>  <mol_id>  (87) 
2026-09-17-6fnk-s0-n100-0087

>  <rmsd_to_ref>  (87) 
4.403061224492224

>  <pose_kind>  (87) 
rigid

$$$$
6fnk.A
     RDKit          3D

 27 29  0  0  0  0  0  0  0  0999 V2000
    3.6347   16.6024   45.0030 C   0  0  0  0  0  0  0  0  0  0  0  0
    4.3922   15.4596   45.1662 C   0  0  0  0  0  0  0  0  0  0  0  0
    4.9436   14.9092   44.0043 C   0  0  0  0  0  0  0  0  0  0  0  0
    4.7482   15.4565   42.8136 N   0  0  0  0  0  0  0  0  0  0  0  0
    4.0123   16.5600   42.6850 C   0  0  0  0  0  0  0  0  0  0  0  0
    3.4267   17.1790   43.7619 C   0  0  0  0  0  0  0  0  0  0  0  0
    2.6158   18.3865   43.6585 C   0  0  0  0  0  0  0  0  0  0  0  0
    2.0628   18.9547   44.7501 N   0  0  0  0  0  0  0  0  0  0  0  0
    2.4118   18.9501   42.4510 N   0  0  0  0  0  0  0  0  0  0  0  0
    1.6588   20.0803   42.3150 C   0  0  0  0  0  0  0  0  0  0  0  0
    1.2970   20.8400   41.2639 N   0  0  0  0  0  0  0  0  0  0  0  0
    1.6662   20.6082   39.8636 C   0  0  0  0  0  0  0  0  0  0  0  0
    0.5486   21.8351   41.7122 N   0  0  0  0  0  0  0  0  0  0  0  0
    0.3989   21.7631   43.0350 C   0  0  0  0  0  0  0  0  0  0  0  0
    1.1007   20.6482   43.4422 C   0  0  0  0  0  0  0  0  0  0  0  0
    1.3094   20.0707   44.6818 C   0  0  0  0  0  0  0  0  0  0  0  0
    0.7485   20.6285   45.8735 N   0  0  0  0  0  0  0  0  0  0  0  0
    3.1896   17.0590   45.8841 H   0  0  0  0  0  0  0  0  0  0  0  0
    4.5516   15.0121   46.1417 H   0  0  0  0  0  0  0  0  0  0  0  0
    5.5373   14.0073   44.1601 H   0  0  0  0  0  0  0  0  0  0  0  0
    3.8814   16.9676   41.7006 H   0  0  0  0  0  0  0  0  0  0  0  0
    0.8763   21.0817   39.2477 H   0  0  0  0  0  0  0  0  0  0  0  0
    2.5976   21.1711   39.6089 H   0  0  0  0  0  0  0  0  0  0  0  0
    1.7998   19.5400   39.6732 H   0  0  0  0  0  0  0  0  0  0  0  0
   -0.1433   22.4049   43.7203 H   0  0  0  0  0  0  0  0  0  0  0  0
    0.2318   19.9862   46.5424 H   0  0  0  0  0  0  0  0  0  0  0  0
    0.8546   21.6513   46.0666 H   0  0  0  0  0  0  0  0  0  0  0  0
  1  2  2  0
  1  6  1  0
  2  3  1  0
  3  4  2  0
  4  5  1  0
  5  6  2  0
  6  7  1  0
  7  8  2  0
  7  9  1  0
  8 16  1  0
  9 10  2  0
 10 11  1  0
 10 15  1  0
 11 12  1  0
 11 13  1  0
 13 14  2  0
 14 15  1  0
 15 16  2  0
 16 17  1  0
  1 18  1  0
  2 19  1  0
  3 20  1  0
  5 21  1  0
 12 22  1  0
 12 23  1  0
 12 24  1  0
 14 25  1  0
 17 26  1  0
 17 27  1  0
M  END
>  <mol_id>  (88) 
2026-09-17-6fnk-s0-n100-0088

>  <rmsd_to_ref>  (88) 
4.448979591838181

>  <pose_kind>  (88) 
conformer

$$$$
6fnk.A
     RDKit          3D

 27 29  0  0  0  0  0  0  0  0999 V2000
    4.0781   17.2429   42.3336 C   0  0  0  0  0  0  0  0  0  0  0  0
    5.1105   16.7410   41.5409 C   0  0  0  0  0  0  0  0  0  0  0  0
    5.0200   15.4609   41.0141 C   0  0  0  0  0  0  0  0  0  0  0  0
    3.8928   14.6769   41.2752 N   0  0  0  0  0  0  0  0  0  0  0  0
    2.8567   15.1837   42.0742 C   0  0  0  0  0  0  0  0  0  0  0  0
    2.9473   16.4689   42.6054 C   0  0  0  0  0  0  0  0  0  0  0  0
    1.9140   16.9705   43.4033 C   0  0  0  0  0  0  0  0  0  0  0  0
    2.0527   18.1267   44.0665 N   0  0  0  0  0  0  0  0  0  0  0  0
    0.7648   16.2951   43.5058 N   0  0  0  0  0  0  0  0  0  0  0  0
   -0.2480   16.7411   44.2700 C   0  0  0  0  0  0  0  0  0  0  0  0
   -1.4635   16.2389   44.5355 N   0  0  0  0  0  0  0  0  0  0  0  0
   -2.0134   14.9883   44.0039 C   0  0  0  0  0  0  0  0  0  0  0  0
   -2.0829   16.9842   45.2958 N   0  0  0  0  0  0  0  0  0  0  0  0
   -1.2994   18.0466   45.5441 C   0  0  0  0  0  0  0  0  0  0  0  0
   -0.1232   17.8932   44.9214 C   0  0  0  0  0  0  0  0  0  0  0  0
    1.0389   18.5947   44.8180 C   0  0  0  0  0  0  0  0  0  0  0  0
    1.2018   19.7709   45.4711 N   0  0  0  0  0  0  0  0  0  0  0  0
    4.1552   18.2585   42.7488 H   0  0  0  0  0  0  0  0  0  0  0  0
    5.9958   17.3601   41.3337 H   0  0  0  0  0  0  0  0  0  0  0  0
    5.8349   15.0631   40.3915 H   0  0  0  0  0  0  0  0  0  0  0  0
    1.9709   14.5653   42.2816 H   0  0  0  0  0  0  0  0  0  0  0  0
   -2.3873   14.3702   44.8335 H   0  0  0  0  0  0  0  0  0  0  0  0
   -2.8398   15.2151   43.3141 H   0  0  0  0  0  0  0  0  0  0  0  0
   -1.2258   14.4412   43.4651 H   0  0  0  0  0  0  0  0  0  0  0  0
   -1.5807   18.9106   46.1641 H   0  0  0  0  0  0  0  0  0  0  0  0
    0.4388   20.1476   46.0516 H   0  0  0  0  0  0  0  0  0  0  0  0
    2.0885   20.2882   45.3869 H   0  0  0  0  0  0  0  0  0  0  0  0
  1  2  2  0
  1  6  1  0
  2  3  1  0
  3  4  2  0
  4  5  1  0
  5  6  2  0
  6  7  1  0
  7  8  2  0
  7  9  1  0
  8 16  1  0
  9 10  2  0
 10 11  1  0
 10 15  1  0
 11 12  1  0
 11 13  1  0
 13 14  2  0
 14 15  1  0
 15 16  2  0
 16 17  1  0
  1 18  1  0
  2 19  1  0
  3 20  1  0
  5 21  1  0
 12 22  1  0
 12 23  1  0
 12 24  1  0
 14 25  1  0
 17 26  1  0
 17 27  1  0
M  END
>  <mol_id>  (89) 
2026-09-17-6fnk-s0-n100-0089

>  <rmsd_to_ref>  (89) 
4.4948979591841365

>  <pose_kind>  (89) 
rigid

$$$$
6fnk.A
     RDKit          3D

 27 29  0  0  0  0  0  0  0  0999 V2000
    0.2286   15.1479   43.7377 C   0  0  0  0  0  0  0  0  0  0  0  0
   -0.6813   14.2622   44.2799 C   0  0  0  0  0  0  0  0  0  0  0  0
   -1.5106   14.7640   45.2887 C   0  0  0  0  0  0  0  0  0  0  0  0
   -1.4254   16.0208   45.6997 N   0  0  0  0  0  0  0  0  0  0  0  0
   -0.5376   16.8543   45.1586 C   0  0  0  0  0  0  0  0  0  0  0  0
    0.3226   16.4620   44.1626 C   0  0  0  0  0  0  0  0  0  0  0  0
    1.3059   17.3462   43.5481 C   0  0  0  0  0  0  0  0  0  0  0  0
    2.1279   16.9089   42.5717 N   0  0  0  0  0  0  0  0  0  0  0  0
    1.3995   18.6264   43.9599 N   0  0  0  0  0  0  0  0  0  0  0  0
    2.3075   19.4832   43.4084 C   0  0  0  0  0  0  0  0  0  0  0  0
    2.6153   20.7775   43.6161 N   0  0  0  0  0  0  0  0  0  0  0  0
    1.9790   21.6706   44.5900 C   0  0  0  0  0  0  0  0  0  0  0  0
    3.5937   21.1067   42.7882 N   0  0  0  0  0  0  0  0  0  0  0  0
    3.9500   20.0688   42.0313 C   0  0  0  0  0  0  0  0  0  0  0  0
    3.1405   19.0191   42.4108 C   0  0  0  0  0  0  0  0  0  0  0  0
    3.0452   17.7056   41.9873 C   0  0  0  0  0  0  0  0  0  0  0  0
    3.8900   17.1864   40.9565 N   0  0  0  0  0  0  0  0  0  0  0  0
    0.8905   14.7937   42.9509 H   0  0  0  0  0  0  0  0  0  0  0  0
   -0.7503   13.2333   43.9429 H   0  0  0  0  0  0  0  0  0  0  0  0
   -2.2202   14.0449   45.7003 H   0  0  0  0  0  0  0  0  0  0  0  0
   -0.5049   17.8634   45.5234 H   0  0  0  0  0  0  0  0  0  0  0  0
    2.7246   22.4532   44.8329 H   0  0  0  0  0  0  0  0  0  0  0  0
    1.1332   22.2250   44.1143 H   0  0  0  0  0  0  0  0  0  0  0  0
    1.6272   21.1053   45.4571 H   0  0  0  0  0  0  0  0  0  0  0  0
    4.7060   19.9847   41.2585 H   0  0  0  0  0  0  0  0  0  0  0  0
    4.3899   16.2649   41.1234 H   0  0  0  0  0  0  0  0  0  0  0  0
    4.0017   17.7172   40.0618 H   0  0  0  0  0  0  0  0  0  0  0  0
  1  2  2  0
  1  6  1  0
  2  3  1  0
  3  4  2  0
  4  5  1  0
  5  6  2  0
  6  7  1  0
  7  8  2  0
  7  9  1  0
  8 16  1  0
  9 10  2  0
 10 11  1  0
 10 15  1  0
 11 12  1  0
 11 13  1  0
 13 14  2  0
 14 15  1  0
 15 16  2  0
 16 17  1  0
  1 18  1  0
  2 19  1  0
  3 20  1  0
  5 21  1  0
 12 22  1  0
 12 23  1  0
 12 24  1  0
 14 25  1  0
 17 26  1  0
 17 27  1  0
M  END
>  <mol_id>  (90) 
2026-09-17-6fnk-s0-n100-0090

>  <rmsd_to_ref>  (90) 
4.540816326531542

>  <pose_kind>  (90) 
conformer

$$$$
6fnk.A
     RDKit          3D

 27 29  0  0  0  0  0  0  0  0999 V2000
    3.1920   17.7305   42.6812 C   0  0  0  0  0  0  0  0  0  0  0  0
    4.3367   17.9277   41.9088 C   0  0  0  0  0  0  0  0  0  0  0  0
    4.7649   19.2154   41.6210 C   0  0  0  0  0  0  0  0  0  0  0  0
    4.0507   20.3136   42.1083 N   0  0  0  0  0  0  0  0  0  0  0  0
    2.8987   20.1122   42.8836 C   0  0  0  0  0  0  0  0  0  0  0  0
    2.4666   18.8189   43.1718 C   0  0  0  0  0  0  0  0  0  0  0  0
    1.3166   18.6212   43.9429 C   0  0  0  0  0  0  0  0  0  0  0  0
    0.7832   17.4003   44.0867 N   0  0  0  0  0  0  0  0  0  0  0  0
    0.7388   19.6602   44.5542 N   0  0  0  0  0  0  0  0  0  0  0  0
   -0.3727   19.5109   45.2967 C   0  0  0  0  0  0  0  0  0  0  0  0
   -1.1246   20.3891   45.9775 N   0  0  0  0  0  0  0  0  0  0  0  0
   -0.8827   21.8312   46.0813 C   0  0  0  0  0  0  0  0  0  0  0  0
   -2.0658   19.8169   46.5288 N   0  0  0  0  0  0  0  0  0  0  0  0
   -1.9549   18.5064   46.2561 C   0  0  0  0  0  0  0  0  0  0  0  0
   -0.9012   18.3014   45.4545 C   0  0  0  0  0  0  0  0  0  0  0  0
   -0.3168   17.2339   44.8443 C   0  0  0  0  0  0  0  0  0  0  0  0
   -0.8307   15.9875   44.9807 N   0  0  0  0  0  0  0  0  0  0  0  0
    2.8568   16.7072   42.9062 H   0  0  0  0  0  0  0  0  0  0  0  0
    4.8997   17.0627   41.5284 H   0  0  0  0  0  0  0  0  0  0  0  0
    5.6657   19.3722   41.0095 H   0  0  0  0  0  0  0  0  0  0  0  0
    2.3354   20.9767   43.2646 H   0  0  0  0  0  0  0  0  0  0  0  0
   -1.7990   22.3771   45.8122 H   0  0  0  0  0  0  0  0  0  0  0  0
   -0.5966   22.0817   47.1136 H   0  0  0  0  0  0  0  0  0  0  0  0
   -0.0710   22.1171   45.3962 H   0  0  0  0  0  0  0  0  0  0  0  0
   -2.6266   17.7212   46.6335 H   0  0  0  0  0  0  0  0  0  0  0  0
   -1.6719   15.8374   45.5559 H   0  0  0  0  0  0  0  0  0  0  0  0
   -0.3802   15.1902   44.5094 H   0  0  0  0  0  0  0  0  0  0  0  0
  1  2  2  0
  1  6  1  0
  2  3  1  0
  3  4  2  0
  4  5  1  0
  5  6  2  0
  6  7  1  0
  7  8  2  0
  7  9  1  0
  8 16  1  0
  9 10  2  0
 10 11  1  0
 10 15  1  0
 11 12  1  0
 11 13  1  0
 13 14  2  0
 14 15  1  0
 15 16  2  0
 16 17  1  0
  1 18  1  0
  2 19  1  0
  3 20  1  0
  5 21  1  0
 12 22  1  0
 12 23  1  0
 12 24  1  0
 14 25  1  0
 17 26  1  0
 17 27  1  0
M  END
>  <mol_id>  (91) 
2026-09-17-6fnk-s0-n100-0091

>  <rmsd_to_ref>  (91) 
4.586734693878652

>  <pose_kind>  (91) 
rigid

$$$$
6fnk.A
     RDKit          3D

 27 29  0  0  0  0  0  0  0  0999 V2000
    0.2901   19.4290   43.9979 C   0  0  0  0  0  0  0  0  0  0  0  0
   -0.9896   19.6589   44.4625 C   0  0  0  0  0  0  0  0  0  0  0  0
   -1.6719   18.5507   44.9759 C   0  0  0  0  0  0  0  0  0  0  0  0
   -1.1182   17.3475   45.0133 N   0  0  0  0  0  0  0  0  0  0  0  0
    0.1191   17.1541   44.5579 C   0  0  0  0  0  0  0  0  0  0  0  0
    0.8743   18.1746   44.0341 C   0  0  0  0  0  0  0  0  0  0  0  0
    2.2302   17.9995   43.5271 C   0  0  0  0  0  0  0  0  0  0  0  0
    2.9289   19.0375   43.0223 N   0  0  0  0  0  0  0  0  0  0  0  0
    2.8014   16.7788   43.5612 N   0  0  0  0  0  0  0  0  0  0  0  0
    4.0684   16.5766   43.0958 C   0  0  0  0  0  0  0  0  0  0  0  0
    4.8690   15.4977   43.0071 N   0  0  0  0  0  0  0  0  0  0  0  0
    4.5333   14.1360   43.4361 C   0  0  0  0  0  0  0  0  0  0  0  0
    6.0148   15.8776   42.4647 N   0  0  0  0  0  0  0  0  0  0  0  0
    6.0040   17.1816   42.1875 C   0  0  0  0  0  0  0  0  0  0  0  0
    4.7686   17.6495   42.5827 C   0  0  0  0  0  0  0  0  0  0  0  0
    4.1835   18.9025   42.5474 C   0  0  0  0  0  0  0  0  0  0  0  0
    4.8756   20.0394   42.0237 N   0  0  0  0  0  0  0  0  0  0  0  0
    0.8519   20.2667   43.5914 H   0  0  0  0  0  0  0  0  0  0  0  0
   -1.4422   20.6444   44.4315 H   0  0  0  0  0  0  0  0  0  0  0  0
   -2.6804   18.7587   45.3362 H   0  0  0  0  0  0  0  0  0  0  0  0
    0.5264   16.1623   44.6085 H   0  0  0  0  0  0  0  0  0  0  0  0
    5.1591   13.4520   42.8295 H   0  0  0  0  0  0  0  0  0  0  0  0
    4.8687   13.9662   44.4886 H   0  0  0  0  0  0  0  0  0  0  0  0
    3.4587   13.9577   43.3427 H   0  0  0  0  0  0  0  0  0  0  0  0
    6.7640   17.8159   41.7452 H   0  0  0  0  0  0  0  0  0  0  0  0
    4.3784   20.6588   41.3196 H   0  0  0  0  0  0  0  0  0  0  0  0
    5.8525   20.2418   42.3394 H   0  0  0  0  0  0  0  0  0  0  0  0
  1  2  2  0
  1  6  1  0
  2  3  1  0
  3  4  2  0
  4  5  1  0
  5  6  2  0
  6  7  1  0
  7  8  2  0
  7  9  1  0
  8 16  1  0
  9 10  2  0
 10 11  1  0
 10 15  1  0
 11 12  1  0
 11 13  1  0
 13 14  2  0
 14 15  1  0
 15 16  2  0
 16 17  1  0
  1 18  1  0
  2 19  1  0
  3 20  1  0
  5 21  1  0
 12 22  1  0
 12 23  1  0
 12 24  1  0
 14 25  1  0
 17 26  1  0
 17 27  1  0
M  END
>  <mol_id>  (92) 
2026-09-17-6fnk-s0-n100-0092

>  <rmsd_to_ref>  (92) 
4.632653061226943

>  <pose_kind>  (92) 
conformer

$$$$
6fnk.A
     RDKit          3D

 27 29  0  0  0  0  0  0  0  0999 V2000
    1.3428   18.7172   44.7889 C   0  0  0  0  0  0  0  0  0  0  0  0
    1.4126   19.7845   45.6845 C   0  0  0  0  0  0  0  0  0  0  0  0
    0.5072   20.8310   45.5870 C   0  0  0  0  0  0  0  0  0  0  0  0
   -0.4760   20.8129   44.5941 N   0  0  0  0  0  0  0  0  0  0  0  0
   -0.5429   19.7388   43.6936 C   0  0  0  0  0  0  0  0  0  0  0  0
    0.3673   18.6878   43.7894 C   0  0  0  0  0  0  0  0  0  0  0  0
    0.2998   17.6197   42.8891 C   0  0  0  0  0  0  0  0  0  0  0  0
    1.2637   16.6896   42.8474 N   0  0  0  0  0  0  0  0  0  0  0  0
   -0.7425   17.5147   42.0585 N   0  0  0  0  0  0  0  0  0  0  0  0
   -0.8382   16.5069   41.1732 C   0  0  0  0  0  0  0  0  0  0  0  0
   -1.7618   16.2072   40.2472 N   0  0  0  0  0  0  0  0  0  0  0  0
   -2.9825   16.9704   39.9702 C   0  0  0  0  0  0  0  0  0  0  0  0
   -1.4541   15.1768   39.6467 N   0  0  0  0  0  0  0  0  0  0  0  0
   -0.3081   14.7258   40.1830 C   0  0  0  0  0  0  0  0  0  0  0  0
    0.1074   15.5732   41.1338 C   0  0  0  0  0  0  0  0  0  0  0  0
    1.1695   15.6644   41.9807 C   0  0  0  0  0  0  0  0  0  0  0  0
    2.1532   14.7325   41.9652 N   0  0  0  0  0  0  0  0  0  0  0  0
    2.0634   17.8902   44.8706 H   0  0  0  0  0  0  0  0  0  0  0  0
    2.1851   19.7963   46.4675 H   0  0  0  0  0  0  0  0  0  0  0  0
    0.5633   21.6745   46.2908 H   0  0  0  0  0  0  0  0  0  0  0  0
   -1.3153   19.7263   42.9106 H   0  0  0  0  0  0  0  0  0  0  0  0
   -3.0413   17.1901   38.8940 H   0  0  0  0  0  0  0  0  0  0  0  0
   -3.8603   16.3803   40.2726 H   0  0  0  0  0  0  0  0  0  0  0  0
   -2.9618   17.9132   40.5364 H   0  0  0  0  0  0  0  0  0  0  0  0
    0.2100   13.8019   39.8866 H   0  0  0  0  0  0  0  0  0  0  0  0
    2.1012   13.9395   41.3099 H   0  0  0  0  0  0  0  0  0  0  0  0
    2.9529   14.8171   42.6088 H   0  0  0  0  0  0  0  0  0  0  0  0
  1  2  2  0
  1  6  1  0
  2  3  1  0
  3  4  2  0
  4  5  1  0
  5  6  2  0
  6  7  1  0
  7  8  2  0
  7  9  1  0
  8 16  1  0
  9 10  2  0
 10 11  1  0
 10 15  1  0
 11 12  1  0
 11 13  1  0
 13 14  2  0
 14 15  1  0
 15 16  2  0
 16 17  1  0
  1 18  1  0
  2 19  1  0
  3 20  1  0
  5 21  1  0
 12 22  1  0
 12 23  1  0
 12 24  1  0
 14 25  1  0
 17 26  1  0
 17 27  1  0
M  END
>  <mol_id>  (93) 
2026-09-17-6fnk-s0-n100-0093

>  <rmsd_to_ref>  (93) 
4.678571428571712

>  <pose_kind>  (93) 
rigid

$$$$
6fnk.A
     RDKit          3D

 27 29  0  0  0  0  0  0  0  0999 V2000
    4.5582   15.3267   43.0579 C   0  0  0  0  0  0  0  0  0  0  0  0
    5.4558   14.3054   42.8177 C   0  0  0  0  0  0  0  0  0  0  0  0
    5.5210   13.8330   41.5025 C   0  0  0  0  0  0  0  0  0  0  0  0
    4.7620   14.3396   40.5419 N   0  0  0  0  0  0  0  0  0  0  0  0
    3.9039   15.3254   40.8020 C   0  0  0  0  0  0  0  0  0  0  0  0
    3.7626   15.8603   42.0587 C   0  0  0  0  0  0  0  0  0  0  0  0
    2.8346   16.9384   42.3794 C   0  0  0  0  0  0  0  0  0  0  0  0
    2.7353   17.4279   43.6328 N   0  0  0  0  0  0  0  0  0  0  0  0
    2.0586   17.4599   41.4082 N   0  0  0  0  0  0  0  0  0  0  0  0
    1.1784   18.4696   41.6705 C   0  0  0  0  0  0  0  0  0  0  0  0
    0.3030   19.1634   40.9188 N   0  0  0  0  0  0  0  0  0  0  0  0
    0.0610   18.9788   39.4842 C   0  0  0  0  0  0  0  0  0  0  0  0
   -0.3038   20.0435   41.6990 N   0  0  0  0  0  0  0  0  0  0  0  0
    0.1410   19.9584   42.9529 C   0  0  0  0  0  0  0  0  0  0  0  0
    1.0900   18.9581   42.9582 C   0  0  0  0  0  0  0  0  0  0  0  0
    1.8858   18.4238   43.9556 C   0  0  0  0  0  0  0  0  0  0  0  0
    1.8239   18.9023   45.3021 N   0  0  0  0  0  0  0  0  0  0  0  0
    4.4795   15.7200   44.0688 H   0  0  0  0  0  0  0  0  0  0  0  0
    6.0768   13.8911   43.6049 H   0  0  0  0  0  0  0  0  0  0  0  0
    6.2372   13.0265   41.3390 H   0  0  0  0  0  0  0  0  0  0  0  0
    3.3098   15.7044   39.9922 H   0  0  0  0  0  0  0  0  0  0  0  0
   -0.9719   19.3305   39.2918 H   0  0  0  0  0  0  0  0  0  0  0  0
    0.7088   19.6679   38.8889 H   0  0  0  0  0  0  0  0  0  0  0  0
    0.2393   17.9397   39.1950 H   0  0  0  0  0  0  0  0  0  0  0  0
   -0.1332   20.5198   43.8390 H   0  0  0  0  0  0  0  0  0  0  0  0
    1.7349   18.1965   46.0900 H   0  0  0  0  0  0  0  0  0  0  0  0
    1.8669   19.9309   45.4889 H   0  0  0  0  0  0  0  0  0  0  0  0
  1  2  2  0
  1  6  1  0
  2  3  1  0
  3  4  2  0
  4  5  1  0
  5  6  2  0
  6  7  1  0
  7  8  2  0
  7  9  1  0
  8 16  1  0
  9 10  2  0
 10 11  1  0
 10 15  1  0
 11 12  1  0
 11 13  1  0
 13 14  2  0
 14 15  1  0
 15 16  2  0
 16 17  1  0
  1 18  1  0
  2 19  1  0
  3 20  1  0
  5 21  1  0
 12 22  1  0
 12 23  1  0
 12 24  1  0
 14 25  1  0
 17 26  1  0
 17 27  1  0
M  END
>  <mol_id>  (94) 
2026-09-17-6fnk-s0-n100-0094

>  <rmsd_to_ref>  (94) 
4.724489795919655

>  <pose_kind>  (94) 
conformer

$$$$
6fnk.A
     RDKit          3D

 27 29  0  0  0  0  0  0  0  0999 V2000
   -1.0296   17.4529   43.4594 C   0  0  0  0  0  0  0  0  0  0  0  0
   -2.2419   17.7236   44.0941 C   0  0  0  0  0  0  0  0  0  0  0  0
   -2.2800   18.5973   45.1711 C   0  0  0  0  0  0  0  0  0  0  0  0
   -1.1044   19.2081   45.6162 N   0  0  0  0  0  0  0  0  0  0  0  0
    0.1137   18.9327   44.9767 C   0  0  0  0  0  0  0  0  0  0  0  0
    0.1536   18.0537   43.8959 C   0  0  0  0  0  0  0  0  0  0  0  0
    1.3697   17.7793   43.2619 C   0  0  0  0  0  0  0  0  0  0  0  0
    1.4649   16.8110   42.3403 N   0  0  0  0  0  0  0  0  0  0  0  0
    2.4566   18.4939   43.5700 N   0  0  0  0  0  0  0  0  0  0  0  0
    3.6452   18.2537   42.9881 C   0  0  0  0  0  0  0  0  0  0  0  0
    4.8532   18.8165   43.1435 N   0  0  0  0  0  0  0  0  0  0  0  0
    5.1793   19.9177   44.0546 C   0  0  0  0  0  0  0  0  0  0  0  0
    5.6773   18.2851   42.3982 N   0  0  0  0  0  0  0  0  0  0  0  0
    5.0286   17.3521   41.6819 C   0  0  0  0  0  0  0  0  0  0  0  0
    3.7456   17.3033   42.0640 C   0  0  0  0  0  0  0  0  0  0  0  0
    2.6436   16.5746   41.7352 C   0  0  0  0  0  0  0  0  0  0  0  0
    2.7106   15.5959   40.8003 N   0  0  0  0  0  0  0  0  0  0  0  0
   -1.0050   16.7591   42.6061 H   0  0  0  0  0  0  0  0  0  0  0  0
   -3.1670   17.2445   43.7411 H   0  0  0  0  0  0  0  0  0  0  0  0
   -3.2349   18.8092   45.6743 H   0  0  0  0  0  0  0  0  0  0  0  0
    1.0392   19.4115   45.3290 H   0  0  0  0  0  0  0  0  0  0  0  0
    6.0454   19.6382   44.6724 H   0  0  0  0  0  0  0  0  0  0  0  0
    5.4209   20.8177   43.4702 H   0  0  0  0  0  0  0  0  0  0  0  0
    4.3162   20.1235   44.7049 H   0  0  0  0  0  0  0  0  0  0  0  0
    5.4818   16.7241   40.9006 H   0  0  0  0  0  0  0  0  0  0  0  0
    3.6027   15.3981   40.3248 H   0  0  0  0  0  0  0  0  0  0  0  0
    1.8695   15.0498   40.5652 H   0  0  0  0  0  0  0  0  0  0  0  0
  1  2  2  0
  1  6  1  0
  2  3  1  0
  3  4  2  0
  4  5  1  0
  5  6  2  0
  6  7  1  0
  7  8  2  0
  7  9  1  0
  8 16  1  0
  9 10  2  0
 10 11  1  0
 10 15  1  0
 11 12  1  0
 11 13  1  0
 13 14  2  0
 14 15  1  0
 15 16  2  0
 16 17  1  0
  1 18  1  0
  2 19  1  0
  3 20  1  0
  5 21  1  0
 12 22  1  0
 12 23  1  0
 12 24  1  0
 14 25  1  0
 17 26  1  0
 17 27  1  0
M  END
>  <mol_id>  (95) 
2026-09-17-6fnk-s0-n100-0095

>  <rmsd_to_ref>  (95) 
4.770408163270917

>  <pose_kind>  (95) 
rigid

$$$$
6fnk.A
     RDKit          3D

 27 29  0  0  0  0  0  0  0  0999 V2000
   -0.4644   18.2648   43.3126 C   0  0  0  0  0  0  0  0  0  0  0  0
   -0.8242   18.6509   44.5886 C   0  0  0  0  0  0  0  0  0  0  0  0
   -0.0267   18.1673   45.6314 C   0  0  0  0  0  0  0  0  0  0  0  0
    1.0161   17.3821   45.4044 N   0  0  0  0  0  0  0  0  0  0  0  0
    1.3406   17.0249   44.1623 C   0  0  0  0  0  0  0  0  0  0  0  0
    0.6237   17.4448   43.0688 C   0  0  0  0  0  0  0  0  0  0  0  0
    0.9497   17.0741   41.6968 C   0  0  0  0  0  0  0  0  0  0  0  0
    0.2110   17.5151   40.6575 N   0  0  0  0  0  0  0  0  0  0  0  0
    2.0089   16.2755   41.4565 N   0  0  0  0  0  0  0  0  0  0  0  0
    2.3447   15.9075   40.1858 C   0  0  0  0  0  0  0  0  0  0  0  0
    3.3214   15.1423   39.6631 N   0  0  0  0  0  0  0  0  0  0  0  0
    4.3700   14.4469   40.4166 C   0  0  0  0  0  0  0  0  0  0  0  0
    3.1726   15.1247   38.3482 N   0  0  0  0  0  0  0  0  0  0  0  0
    2.1229   15.8574   37.9755 C   0  0  0  0  0  0  0  0  0  0  0  0
    1.5779   16.3678   39.1347 C   0  0  0  0  0  0  0  0  0  0  0  0
    0.4909   17.1873   39.3800 C   0  0  0  0  0  0  0  0  0  0  0  0
   -0.3283   17.6850   38.3184 N   0  0  0  0  0  0  0  0  0  0  0  0
   -1.0611   18.6212   42.4761 H   0  0  0  0  0  0  0  0  0  0  0  0
   -1.6782   19.2940   44.7735 H   0  0  0  0  0  0  0  0  0  0  0  0
   -0.3317   18.4865   46.6289 H   0  0  0  0  0  0  0  0  0  0  0  0
    2.1937   16.3874   44.0267 H   0  0  0  0  0  0  0  0  0  0  0  0
    4.6865   13.5866   39.7943 H   0  0  0  0  0  0  0  0  0  0  0  0
    5.2819   15.0882   40.4959 H   0  0  0  0  0  0  0  0  0  0  0  0
    4.0090   14.1694   41.4105 H   0  0  0  0  0  0  0  0  0  0  0  0
    1.7170   16.0598   36.9907 H   0  0  0  0  0  0  0  0  0  0  0  0
   -1.3825   17.5939   38.4028 H   0  0  0  0  0  0  0  0  0  0  0  0
    0.1191   18.1272   37.4824 H   0  0  0  0  0  0  0  0  0  0  0  0
  1  2  2  0
  1  6  1  0
  2  3  1  0
  3  4  2  0
  4  5  1  0
  5  6  2  0
  6  7  1  0
  7  8  2  0
  7  9  1  0
  8 16  1  0
  9 10  2  0
 10 11  1  0
 10 15  1  0
 11 12  1  0
 11 13  1  0
 13 14  2  0
 14 15  1  0
 15 16  2  0
 16 17  1  0
  1 18  1  0
  2 19  1  0
  3 20  1  0
  5 21  1  0
 12 22  1  0
 12 23  1  0
 12 24  1  0
 14 25  1  0
 17 26  1  0
 17 27  1  0
M  END
>  <mol_id>  (96) 
2026-09-17-6fnk-s0-n100-0096

>  <rmsd_to_ref>  (96) 
4.816326530616163

>  <pose_kind>  (96) 
conformer

$$$$
6fnk.A
     RDKit          3D

 27 29  0  0  0  0  0  0  0  0999 V2000
   -1.0982   15.4072   45.9314 C   0  0  0  0  0  0  0  0  0  0  0  0
   -1.9197   14.9993   46.9824 C   0  0  0  0  0  0  0  0  0  0  0  0
   -2.3763   15.9285   47.9058 C   0  0  0  0  0  0  0  0  0  0  0  0
   -2.0157   17.2729   47.7796 N   0  0  0  0  0  0  0  0  0  0  0  0
   -1.1881   17.6800   46.7223 C   0  0  0  0  0  0  0  0  0  0  0  0
   -0.7272   16.7471   45.7952 C   0  0  0  0  0  0  0  0  0  0  0  0
    0.0996   17.1556   44.7436 C   0  0  0  0  0  0  0  0  0  0  0  0
    0.6958   16.2590   43.9458 N   0  0  0  0  0  0  0  0  0  0  0  0
    0.2977   18.4587   44.5207 N   0  0  0  0  0  0  0  0  0  0  0  0
    1.0926   18.8896   43.5251 C   0  0  0  0  0  0  0  0  0  0  0  0
    1.4482   20.1204   43.1262 N   0  0  0  0  0  0  0  0  0  0  0  0
    1.0102   21.3817   43.7313 C   0  0  0  0  0  0  0  0  0  0  0  0
    2.2029   20.0591   42.1548 N   0  0  0  0  0  0  0  0  0  0  0  0
    2.3551   18.7611   41.8450 C   0  0  0  0  0  0  0  0  0  0  0  0
    1.6779   18.0072   42.7214 C   0  0  0  0  0  0  0  0  0  0  0  0
    1.4768   16.6775   42.9326 C   0  0  0  0  0  0  0  0  0  0  0  0
    2.0606   15.7504   42.1351 N   0  0  0  0  0  0  0  0  0  0  0  0
   -0.7388   14.6662   45.2023 H   0  0  0  0  0  0  0  0  0  0  0  0
   -2.2051   13.9414   47.0790 H   0  0  0  0  0  0  0  0  0  0  0  0
   -3.0216   15.6075   48.7367 H   0  0  0  0  0  0  0  0  0  0  0  0
   -0.9024   18.7379   46.6249 H   0  0  0  0  0  0  0  0  0  0  0  0
    1.8885   22.0026   43.9610 H   0  0  0  0  0  0  0  0  0  0  0  0
    0.3558   21.9179   43.0282 H   0  0  0  0  0  0  0  0  0  0  0  0
    0.4574   21.1710   44.6587 H   0  0  0  0  0  0  0  0  0  0  0  0
    2.9456   18.3758   41.0006 H   0  0  0  0  0  0  0  0  0  0  0  0
    2.6623   16.0485   41.3539 H   0  0  0  0  0  0  0  0  0  0  0  0
    1.9028   14.7477   42.3100 H   0  0  0  0  0  0  0  0  0  0  0  0
  1  2  2  0
  1  6  1  0
  2  3  1  0
  3  4  2  0
  4  5  1  0
  5  6  2  0
  6  7  1  0
  7  8  2  0
  7  9  1  0
  8 16  1  0
  9 10  2  0
 10 11  1  0
 10 15  1  0
 11 12  1  0
 11 13  1  0
 13 14  2  0
 14 15  1  0
 15 16  2  0
 16 17  1  0
  1 18  1  0
  2 19  1  0
  3 20  1  0
  5 21  1  0
 12 22  1  0
 12 23  1  0
 12 24  1  0
 14 25  1  0
 17 26  1  0
 17 27  1  0
M  END
>  <mol_id>  (97) 
2026-09-17-6fnk-s0-n100-0097

>  <rmsd_to_ref>  (97) 
4.862244897960793

>  <pose_kind>  (97) 
rigid

$$$$
6fnk.A
     RDKit          3D

 27 29  0  0  0  0  0  0  0  0999 V2000
    0.2145   20.9535   44.0657 C   0  0  0  0  0  0  0  0  0  0  0  0
    0.7511   21.8659   43.1790 C   0  0  0  0  0  0  0  0  0  0  0  0
    1.4736   21.3359   42.1047 C   0  0  0  0  0  0  0  0  0  0  0  0
    1.6328   20.0299   41.9487 N   0  0  0  0  0  0  0  0  0  0  0  0
    1.1037   19.1716   42.8200 C   0  0  0  0  0  0  0  0  0  0  0  0
    0.3771   19.5879   43.9085 C   0  0  0  0  0  0  0  0  0  0  0  0
   -0.2158   18.6779   44.8815 C   0  0  0  0  0  0  0  0  0  0  0  0
   -0.9213   19.1406   45.9343 N   0  0  0  0  0  0  0  0  0  0  0  0
   -0.0589   17.3474   44.7306 N   0  0  0  0  0  0  0  0  0  0  0  0
   -0.5991   16.4651   45.6209 C   0  0  0  0  0  0  0  0  0  0  0  0
   -0.6033   15.1223   45.7184 N   0  0  0  0  0  0  0  0  0  0  0  0
    0.0417   14.1874   44.7906 C   0  0  0  0  0  0  0  0  0  0  0  0
   -1.2914   14.7893   46.7986 N   0  0  0  0  0  0  0  0  0  0  0  0
   -1.7486   15.8722   47.4276 C   0  0  0  0  0  0  0  0  0  0  0  0
   -1.3178   16.9559   46.6920 C   0  0  0  0  0  0  0  0  0  0  0  0
   -1.4794   18.3210   46.8478 C   0  0  0  0  0  0  0  0  0  0  0  0
   -2.2169   18.8690   47.9439 N   0  0  0  0  0  0  0  0  0  0  0  0
   -0.3539   21.3282   44.9138 H   0  0  0  0  0  0  0  0  0  0  0  0
    0.6203   22.9351   43.3075 H   0  0  0  0  0  0  0  0  0  0  0  0
    1.8871   22.0769   41.4191 H   0  0  0  0  0  0  0  0  0  0  0  0
    1.2587   18.1226   42.6531 H   0  0  0  0  0  0  0  0  0  0  0  0
    0.2525   13.2660   45.3686 H   0  0  0  0  0  0  0  0  0  0  0  0
   -0.6792   13.8653   43.9996 H   0  0  0  0  0  0  0  0  0  0  0  0
    0.9272   14.6432   44.3396 H   0  0  0  0  0  0  0  0  0  0  0  0
   -2.3406   15.9670   48.3311 H   0  0  0  0  0  0  0  0  0  0  0  0
   -1.7820   19.6562   48.5076 H   0  0  0  0  0  0  0  0  0  0  0  0
   -3.1650   18.4896   48.1718 H   0  0  0  0  0  0  0  0  0  0  0  0
  1  2  2  0
  1  6  1  0
  2  3  1  0
  3  4  2  0
  4  5  1  0
  5  6  2  0
  6  7  1  0
  7  8  2  0
  7  9  1  0
  8 16  1  0
  9 10  2  0
 10 11  1  0
 10 15  1  0
 11 12  1  0
 11 13  1  0
 13 14  2  0
 14 15  1  0
 15 16  2  0
 16 17  1  0
  1 18  1  0
  2 19  1  0
  3 20  1  0
  5 21  1  0
 12 22  1  0
 12 23  1  0
 12 24  1  0
 14 25  1  0
 17 26  1  0
 17 27  1  0
M  END
>  <mol_id>  (98) 
2026-09-17-6fnk-s0-n100-0098

>  <rmsd_to_ref>  (98) 
4.908163265308384

>  <pose_kind>  (98) 
conformer

$$$$
6fnk.A
     RDKit          3D

 27 29  0  0  0  0  0  0  0  0999 V2000
   -1.1335   15.7206   39.2067 C   0  0  0  0  0  0  0  0  0  0  0  0
   -2.1931   15.1647   38.4896 C   0  0  0  0  0  0  0  0  0  0  0  0
   -3.4301   15.0017   39.0961 C   0  0  0  0  0  0  0  0  0  0  0  0
   -3.6141   15.3981   40.4236 N   0  0  0  0  0  0  0  0  0  0  0  0
   -2.5459   15.9554   41.1429 C   0  0  0  0  0  0  0  0  0  0  0  0
   -1.3024   16.1179   40.5352 C   0  0  0  0  0  0  0  0  0  0  0  0
   -0.2389   16.6716   41.2554 C   0  0  0  0  0  0  0  0  0  0  0  0
    1.0047   16.6771   40.7559 N   0  0  0  0  0  0  0  0  0  0  0  0
   -0.4597   17.2114   42.4583 N   0  0  0  0  0  0  0  0  0  0  0  0
    0.5387   17.7454   43.1841 C   0  0  0  0  0  0  0  0  0  0  0  0
    0.5626   18.3177   44.3974 N   0  0  0  0  0  0  0  0  0  0  0  0
   -0.5914   18.5139   45.2798 C   0  0  0  0  0  0  0  0  0  0  0  0
    1.7053   18.6775   44.6837 N   0  0  0  0  0  0  0  0  0  0  0  0
    2.4941   18.3808   43.6378 C   0  0  0  0  0  0  0  0  0  0  0  0
    1.7730   17.7659   42.6909 C   0  0  0  0  0  0  0  0  0  0  0  0
    2.0090   17.2272   41.4630 C   0  0  0  0  0  0  0  0  0  0  0  0
    3.2554   17.2280   40.9311 N   0  0  0  0  0  0  0  0  0  0  0  0
   -0.1547   15.8473   38.7209 H   0  0  0  0  0  0  0  0  0  0  0  0
   -2.0480   14.8558   37.4439 H   0  0  0  0  0  0  0  0  0  0  0  0
   -4.2656   14.5608   38.5325 H   0  0  0  0  0  0  0  0  0  0  0  0
   -2.6905   16.2648   42.1885 H   0  0  0  0  0  0  0  0  0  0  0  0
   -0.3629   18.1108   46.2775 H   0  0  0  0  0  0  0  0  0  0  0  0
   -0.8130   19.5883   45.3605 H   0  0  0  0  0  0  0  0  0  0  0  0
   -1.4644   17.9897   44.8637 H   0  0  0  0  0  0  0  0  0  0  0  0
    3.5682   18.6082   43.5692 H   0  0  0  0  0  0  0  0  0  0  0  0
    4.0387   17.6437   41.4550 H   0  0  0  0  0  0  0  0  0  0  0  0
    3.4194   16.8126   40.0029 H   0  0  0  0  0  0  0  0  0  0  0  0
  1  2  2  0
  1  6  1  0
  2  3  1  0
  3  4  2  0
  4  5  1  0
  5  6  2  0
  6  7  1  0
  7  8  2  0
  7  9  1  0
  8 16  1  0
  9 10  2  0
 10 11  1  0
 10 15  1  0
 11 12  1  0
 11 13  1  0
 13 14  2  0
 14 15  1  0
 15 16  2  0
 16 17  1  0
  1 18  1  0
  2 19  1  0
  3 20  1  0
  5 21  1  0
 12 22  1  0
 12 23  1  0
 12 24  1  0
 14 25  1  0
 17 26  1  0
 17 27  1  0
M  END
>  <mol_id>  (99) 
2026-09-17-6fnk-s0-n100-0099

>  <rmsd_to_ref>  (99) 
4.954081632656076

>  <pose_kind>  (99) 
rigid

$$$$
6fnk.A
     RDKit          3D

 27 29  0  0  0  0  0  0  0  0999 V2000
    4.1509   17.9106   41.3889 C   0  0  0  0  0  0  0  0  0  0  0  0
    5.2328   18.1317   40.5598 C   0  0  0  0  0  0  0  0  0  0  0  0
    5.5891   19.4677   40.3474 C   0  0  0  0  0  0  0  0  0  0  0  0
    4.9235   20.4646   40.9118 N   0  0  0  0  0  0  0  0  0  0  0  0
    3.8827   20.2223   41.7081 C   0  0  0  0  0  0  0  0  0  0  0  0
    3.4513   18.9476   41.9817 C   0  0  0  0  0  0  0  0  0  0  0  0
    2.3174   18.6456   42.8472 C   0  0  0  0  0  0  0  0  0  0  0  0
    1.9351   17.3733   43.0829 N   0  0  0  0  0  0  0  0  0  0  0  0
    1.6344   19.6537   43.4258 N   0  0  0  0  0  0  0  0  0  0  0  0
    0.5678   19.4098   44.2419 C   0  0  0  0  0  0  0  0  0  0  0  0
   -0.2763   20.1971   44.9348 N   0  0  0  0  0  0  0  0  0  0  0  0
   -0.2471   21.6627   44.9826 C   0  0  0  0  0  0  0  0  0  0  0  0
   -1.1400   19.4195   45.5678 N   0  0  0  0  0  0  0  0  0  0  0  0
   -0.8977   18.1325   45.3180 C   0  0  0  0  0  0  0  0  0  0  0  0
    0.1906   18.1023   44.4719 C   0  0  0  0  0  0  0  0  0  0  0  0
    0.8908   17.0673   43.8787 C   0  0  0  0  0  0  0  0  0  0  0  0
    0.5315   15.6993   44.0919 N   0  0  0  0  0  0  0  0  0  0  0  0
    3.8441   16.8845   41.5777 H   0  0  0  0  0  0  0  0  0  0  0  0
    5.7772   17.3147   40.0980 H   0  0  0  0  0  0  0  0  0  0  0  0
    6.4464   19.6153   39.6890 H   0  0  0  0  0  0  0  0  0  0  0  0
    3.3739   21.0614   42.1432 H   0  0  0  0  0  0  0  0  0  0  0  0
   -1.2787   21.9902   45.2195 H   0  0  0  0  0  0  0  0  0  0  0  0
    0.3654   22.0113   45.8499 H   0  0  0  0  0  0  0  0  0  0  0  0
    0.1462   22.0698   44.0473 H   0  0  0  0  0  0  0  0  0  0  0  0
   -1.4021   17.2384   45.6666 H   0  0  0  0  0  0  0  0  0  0  0  0
    0.4338   15.0610   43.2495 H   0  0  0  0  0  0  0  0  0  0  0  0
    0.3718   15.3513   45.0657 H   0  0  0  0  0  0  0  0  0  0  0  0
  1  2  2  0
  1  6  1  0
  2  3  1  0
  3  4  2  0
  4  5  1  0
  5  6  2  0
  6  7  1  0
  7  8  2  0
  7  9  1  0
  8 16  1  0
  9 10  2  0
 10 11  1  0
 10 15  1  0
 11 12  1  0
 11 13  1  0
 13 14  2  0
 14 15  1  0
 15 16  2  0
 16 17  1  0
  1 18  1  0
  2 19  1  0
  3 20  1  0
  5 21  1  0
 12 22  1  0
 12 23  1  0
 12 24  1  0
 14 25  1  0
 17 26  1  0
 17 27  1  0
M  END
>  <mol_id>  (100) 
2026-09-17-6fnk-s0-n100-0100

>  <rmsd_to_ref>  (100) 
5.000000000000223

>  <pose_kind>  (100) 
conformer

$$$$
