
     RDKit          3D

 61 64  0  0  0  0  0  0  0  0999 V2000
    2.0407   19.1718   40.3232 C   0  0  0  0  0  0  0  0  0  0  0  0
    1.3538   16.6881   41.0105 C   0  0  0  0  0  0  0  0  0  0  0  0
    3.0149   18.3165   36.9191 C   0  0  0  0  0  0  0  0  0  0  0  0
   -0.5822   12.7765   45.0392 C   0  0  0  0  0  0  0  0  0  0  0  0
    0.9002   17.7763   41.9274 C   0  0  0  0  0  0  0  0  0  0  0  0
    1.2491   18.9565   41.5049 C   0  0  0  0  0  0  0  0  0  0  0  0
   -0.5216   15.1350   44.3750 N   0  0  0  0  0  0  0  0  0  0  0  0
    3.9242   20.5699   34.9520 N   0  0  0  0  0  0  0  0  0  0  0  0
    0.3814   15.0631   43.4862 O   0  0  0  0  0  0  0  0  0  0  0  0
    2.0257   21.3390   38.0591 C   0  0  0  0  0  0  0  0  0  0  0  0
    3.0857   21.0173   35.8043 C   0  0  0  0  0  0  0  0  0  0  0  0
   -1.4028   13.9042   44.3908 C   0  0  0  0  0  0  0  0  0  0  0  0
    2.6198   20.6484   36.9431 C   0  0  1  0  0  0  0  0  0  0  0  0
    0.0609   20.3587   42.9753 C   0  0  0  0  0  0  0  0  0  0  0  0
   -0.3687   19.3092   43.8201 C   0  0  0  0  0  0  0  0  0  0  0  0
   -0.2022   18.0797   46.7427 S   0  0  0  0  0  0  0  0  0  0  0  0
   -0.9475   16.5264   48.9597 C   0  0  0  0  0  0  0  0  0  0  0  0
    0.0038   17.8533   43.6866 C   0  0  0  0  0  0  0  0  0  0  0  0
    2.1242   16.9078   39.9553 C   0  0  0  0  0  0  0  0  0  0  0  0
   -0.9371   15.6740   46.6233 N   0  0  0  0  0  0  0  0  0  0  0  0
    2.5198   22.0287   35.4409 N   0  0  0  0  0  0  0  0  0  0  0  0
   -0.7303   19.7563   44.9396 O   0  0  0  0  0  0  0  0  0  0  0  0
   -2.3486   16.1372   49.3809 C   0  0  0  0  0  0  0  0  0  0  0  0
    2.5393   18.2201   39.5806 C   0  0  0  0  0  0  0  0  0  0  0  0
   -0.5991   16.0759   45.3904 C   0  0  1  0  0  0  0  0  0  0  0  0
    2.7583   19.9370   38.1658 C   0  0  2  0  0  0  0  0  0  0  0  0
    2.9999   22.4240   34.3499 O   0  0  0  0  0  0  0  0  0  0  0  0
   -0.3249   17.3551   45.1726 N   0  0  0  0  0  0  0  0  0  0  0  0
   -0.7637   16.5943   47.5325 C   0  0  0  0  0  0  0  0  0  0  0  0
    0.8430   20.1491   41.9922 C   0  0  0  0  0  0  0  0  0  0  0  0
    3.9176   21.5506   34.0199 N   0  0  0  0  0  0  0  0  0  0  0  0
    2.9175   18.6013   38.1988 N   0  0  0  0  0  0  0  0  0  0  0  0
    2.2400   20.2114   40.0239 H   0  0  0  0  0  0  0  0  0  0  0  0
    1.0335   15.6570   41.2209 H   0  0  0  0  0  0  0  0  0  0  0  0
    3.6000   17.3937   36.7924 H   0  0  0  0  0  0  0  0  0  0  0  0
    2.0089   18.1738   36.4976 H   0  0  0  0  0  0  0  0  0  0  0  0
    3.5173   19.1439   36.3966 H   0  0  0  0  0  0  0  0  0  0  0  0
   -0.5936   12.8968   46.1326 H   0  0  0  0  0  0  0  0  0  0  0  0
   -1.0211   11.8038   44.7727 H   0  0  0  0  0  0  0  0  0  0  0  0
    0.4552   12.8226   44.6761 H   0  0  0  0  0  0  0  0  0  0  0  0
    0.3353   17.6001   42.8547 H   0  0  0  0  0  0  0  0  0  0  0  0
    1.2649   14.9613   43.9210 H   0  0  0  0  0  0  0  0  0  0  0  0
    0.9324   21.4100   38.1578 H   0  0  0  0  0  0  0  0  0  0  0  0
    2.1166   22.3290   38.5299 H   0  0  0  0  0  0  0  0  0  0  0  0
   -2.3119   14.0972   44.9794 H   0  0  0  0  0  0  0  0  0  0  0  0
   -1.7142   13.6294   43.3722 H   0  0  0  0  0  0  0  0  0  0  0  0
    2.5537   20.2805   35.9086 H   0  0  0  0  0  0  0  0  0  0  0  0
   -0.2894   21.3827   43.1723 H   0  0  0  0  0  0  0  0  0  0  0  0
   -0.7202   17.5149   49.3854 H   0  0  0  0  0  0  0  0  0  0  0  0
   -0.2731   15.7408   49.3311 H   0  0  0  0  0  0  0  0  0  0  0  0
   -0.6145   17.3394   42.9359 H   0  0  0  0  0  0  0  0  0  0  0  0
    1.0331   17.6640   43.3477 H   0  0  0  0  0  0  0  0  0  0  0  0
    2.4542   16.0512   39.3491 H   0  0  0  0  0  0  0  0  0  0  0  0
    1.7572   22.4945   35.9530 H   0  0  0  0  0  0  0  0  0  0  0  0
   -2.3946   16.0635   50.4775 H   0  0  0  0  0  0  0  0  0  0  0  0
   -3.0610   16.9004   49.0345 H   0  0  0  0  0  0  0  0  0  0  0  0
   -2.6081   15.1649   48.9369 H   0  0  0  0  0  0  0  0  0  0  0  0
   -1.6602   16.2435   45.1541 H   0  0  0  0  0  0  0  0  0  0  0  0
    3.2083   19.5372   39.0865 H   0  0  0  0  0  0  0  0  0  0  0  0
    1.2325   21.0419   41.4811 H   0  0  0  0  0  0  0  0  0  0  0  0
    4.5295   21.6015   33.1929 H   0  0  0  0  0  0  0  0  0  0  0  0
  1  6  2  0
  2  5  2  0
  3 32  1  0
  6 30  1  0
  6  5  1  0
  8 11  2  0
  9  7  1  0
 10 26  1  0
 12  7  1  0
 12  4  1  0
 13 11  1  0
 13 10  1  0
 13 26  1  0
 14 15  1  0
 15 22  2  0
 16 29  1  0
 17 23  1  0
 18 15  1  0
 18 28  1  0
 19  2  1  0
 20 29  2  0
 21 11  1  0
 24 19  2  0
 24  1  1  0
 25  7  1  0
 25 20  1  0
 26 32  1  0
 27 21  1  0
 28 25  1  0
 28 16  1  0
 29 17  1  0
 30 14  2  3
 31 27  1  0
 31  8  1  0
 32 24  1  0
  1 33  1  0
  2 34  1  0
  3 35  1  0
  3 36  1  0
  3 37  1  0
  4 38  1  0
  4 39  1  0
  4 40  1  0
  5 41  1  0
  9 42  1  0
 10 43  1  0
 10 44  1  0
 12 45  1  0
 12 46  1  0
 13 47  1  6
 14 48  1  0
 17 49  1  0
 17 50  1  0
 18 51  1  0
 18 52  1  0
 19 53  1  0
 21 54  1  0
 23 55  1  0
 23 56  1  0
 23 57  1  0
 25 58  1  6
 26 59  1  1
 30 60  1  0
 31 61  1  0
M  END
>  <mol_id>  (1) 
2026-08-23-6tgu-s0-n100-prep-0001

>  <rmsd_to_ref>  (1) 


$$$$

     RDKit          3D

 35 38  0  0  0  0  0  0  0  0999 V2000
   -0.8513   17.7871   45.2048 C   0  0  0  0  0  0  0  0  0  0  0  0
   -0.2789   20.4528   41.6028 N   0  0  0  0  0  0  0  0  0  0  0  0
    1.5783   17.1169   41.5267 C   0  0  0  0  0  0  0  0  0  0  0  0
    0.8498   17.0991   42.8800 C   0  0  0  0  0  0  0  0  0  0  0  0
   -1.1772   16.4690   44.6302 N   0  0  0  0  0  0  0  0  0  0  0  0
    2.9736   16.5572   39.0059 O   0  0  0  0  0  0  0  0  0  0  0  0
    0.0104   21.2030   40.5988 C   0  0  0  0  0  0  0  0  0  0  0  0
    3.2824   18.2744   37.5726 C   0  0  0  0  0  0  0  0  0  0  0  0
    3.9661   17.2783   36.9523 N   0  0  0  0  0  0  0  0  0  0  0  0
    0.8203   21.1084   39.5136 C   0  0  0  0  0  0  0  0  0  0  0  0
    0.3823   19.2423   41.8144 C   0  0  0  0  0  0  0  0  0  0  0  0
    2.6555   17.8491   38.7999 C   0  0  0  0  0  0  0  0  0  0  0  0
    3.7113   16.2427   37.7744 C   0  0  0  0  0  0  0  0  0  0  0  0
   -1.2181   19.8904   44.1866 O   0  0  0  0  0  0  0  0  0  0  0  0
    1.8152   18.7004   39.5936 C   0  0  0  0  0  0  0  0  0  0  0  0
    2.2779   20.3601   37.6603 C   0  0  0  0  0  0  0  0  0  0  0  0
    3.0727   19.5832   36.9781 N   0  0  0  0  0  0  0  0  0  0  0  0
    1.6690   20.0819   38.9477 C   0  0  0  0  0  0  0  0  0  0  0  0
    1.2382   18.4884   40.8963 C   0  0  0  0  0  0  0  0  0  0  0  0
   -0.6542   18.8582   44.0934 C   0  0  0  0  0  0  0  0  0  0  0  0
    3.9675   14.7746   37.4882 C   0  0  0  0  0  0  0  0  0  0  0  0
    0.1515   18.5425   42.9860 C   0  0  0  0  0  0  0  0  0  0  0  0
   -1.6729   18.1029   45.8644 H   0  0  0  0  0  0  0  0  0  0  0  0
    0.0889   17.6961   45.7683 H   0  0  0  0  0  0  0  0  0  0  0  0
    2.2076   16.3233   41.0976 H   0  0  0  0  0  0  0  0  0  0  0  0
    0.8143   16.2799   43.6133 H   0  0  0  0  0  0  0  0  0  0  0  0
   -1.3916   15.8070   45.3896 H   0  0  0  0  0  0  0  0  0  0  0  0
   -1.9951   16.5573   44.0106 H   0  0  0  0  0  0  0  0  0  0  0  0
   -0.3724   16.1218   44.0892 H   0  0  0  0  0  0  0  0  0  0  0  0
   -0.5335   22.1587   40.6265 H   0  0  0  0  0  0  0  0  0  0  0  0
    0.8349   22.0353   38.9217 H   0  0  0  0  0  0  0  0  0  0  0  0
    2.0428   21.3355   37.2093 H   0  0  0  0  0  0  0  0  0  0  0  0
    4.0849   14.2310   38.4373 H   0  0  0  0  0  0  0  0  0  0  0  0
    3.1177   14.3563   36.9288 H   0  0  0  0  0  0  0  0  0  0  0  0
    4.8856   14.6722   36.8910 H   0  0  0  0  0  0  0  0  0  0  0  0
  2 11  1  0
  3  4  2  0
  4 22  1  0
  5  1  1  0
  7  2  2  0
  8 12  2  0
  9 13  2  0
  9  8  1  0
 10  7  1  0
 11 22  2  0
 12  6  1  0
 12 15  1  0
 13  6  1  0
 15 19  2  0
 16 18  1  0
 17  8  1  0
 17 16  2  0
 18 15  1  0
 18 10  2  0
 19  3  1  0
 19 11  1  0
 20 14  2  0
 20  1  1  0
 21 13  1  0
 22 20  1  0
  1 23  1  0
  1 24  1  0
  3 25  1  0
  4 26  1  0
  5 27  1  0
  5 28  1  0
  5 29  1  0
  7 30  1  0
 10 31  1  0
 16 32  1  0
 21 33  1  0
 21 34  1  0
 21 35  1  0
M  CHG  1   5   1
M  END
>  <mol_id>  (2) 
2026-08-23-6tgu-s0-n100-prep-0002

>  <rmsd_to_ref>  (2) 


$$$$

     RDKit          3D

 35 38  0  0  0  0  0  0  0  0999 V2000
    3.3620   20.1480   37.3300 C   0  0  2  0  0  0  0  0  0  0  0  0
   -0.3390   18.8140   43.7840 C   0  0  0  0  0  0  0  0  0  0  0  0
   -1.0090   19.9460   43.7870 N   0  0  0  0  0  0  0  0  0  0  0  0
    3.0080   17.5180   39.0160 C   0  0  0  0  0  0  0  0  0  0  0  0
    2.0510   19.7180   39.4990 C   0  0  1  0  0  0  0  0  0  0  0  0
    3.9570   18.0290   37.9520 C   0  0  0  0  0  0  0  0  0  0  0  0
    1.7180   16.6380   40.9350 N   0  0  0  0  0  0  0  0  0  0  0  0
    1.9560   20.9520   39.2650 C   0  0  0  0  0  0  0  0  0  0  0  0
    1.7760   14.0370   41.5930 Cl  0  0  0  0  0  0  0  0  0  0  0  0
    3.4460   16.1070   38.6920 C   0  0  0  0  0  0  0  0  0  0  0  0
    2.2290   15.3970   40.6010 C   0  0  0  0  0  0  0  0  0  0  0  0
    2.7510   21.0260   36.4540 O   0  0  0  0  0  0  0  0  0  0  0  0
    0.6350   19.1680   41.5800 C   0  0  0  0  0  0  0  0  0  0  0  0
    1.5030   18.9920   40.4530 C   0  0  1  0  0  0  0  0  0  0  0  0
   -0.8530   20.6960   42.7280 C   0  0  0  0  0  0  0  0  0  0  0  0
    2.0300   17.5560   40.2180 C   0  0  0  0  0  0  0  0  0  0  0  0
    3.5560   18.8270   36.8880 O   0  0  0  0  0  0  0  0  0  0  0  0
   -0.1070   20.3460   41.6350 C   0  0  0  0  0  0  0  0  0  0  0  0
    2.5070   20.0300   38.4760 N   0  0  0  0  0  0  0  0  0  0  0  0
    0.4700   18.4150   42.7900 C   0  0  0  0  0  0  0  0  0  0  0  0
    2.9970   15.1370   39.4600 C   0  0  0  0  0  0  0  0  0  0  0  0
    4.3612   20.5771   37.4955 H   0  0  0  0  0  0  0  0  0  0  0  0
   -0.4490   18.1501   44.6541 H   0  0  0  0  0  0  0  0  0  0  0  0
    2.1900   18.7383   39.9794 H   0  0  0  0  0  0  0  0  0  0  0  0
    4.7266   18.6049   38.4867 H   0  0  0  0  0  0  0  0  0  0  0  0
    4.2215   17.0957   37.4333 H   0  0  0  0  0  0  0  0  0  0  0  0
    0.9877   21.4094   39.0135 H   0  0  0  0  0  0  0  0  0  0  0  0
    2.2508   21.8978   39.7432 H   0  0  0  0  0  0  0  0  0  0  0  0
    4.1159   15.8989   37.8447 H   0  0  0  0  0  0  0  0  0  0  0  0
    2.2674   21.7210   36.9670 H   0  0  0  0  0  0  0  0  0  0  0  0
    2.3758   19.1783   41.0961 H   0  0  0  0  0  0  0  0  0  0  0  0
   -1.3551   21.6746   42.7142 H   0  0  0  0  0  0  0  0  0  0  0  0
   -0.0928   21.0209   40.7665 H   0  0  0  0  0  0  0  0  0  0  0  0
    1.0280   17.4744   42.9077 H   0  0  0  0  0  0  0  0  0  0  0  0
    3.2314   14.0946   39.1983 H   0  0  0  0  0  0  0  0  0  0  0  0
  1 12  1  0
  1 19  1  0
  2  3  2  0
  4 16  2  0
  5  8  1  0
  5 14  1  0
  6  4  1  0
 10  4  1  0
 10 21  2  0
 11  7  2  0
 11  9  1  0
 13 18  1  0
 13 20  2  0
 14 13  1  0
 15  3  1  0
 16 14  1  0
 16  7  1  0
 17  1  1  0
 17  6  1  0
 18 15  2  0
 19  8  1  0
 19  5  1  0
 20  2  1  0
 21 11  1  0
  1 22  1  1
  2 23  1  0
  5 24  1  1
  6 25  1  0
  6 26  1  0
  8 27  1  0
  8 28  1  0
 10 29  1  0
 12 30  1  0
 14 31  1  1
 15 32  1  0
 18 33  1  0
 20 34  1  0
 21 35  1  0
M  END
>  <mol_id>  (3) 
2026-08-23-6tgu-s0-n100-prep-0003

>  <rmsd_to_ref>  (3) 


$$$$

     RDKit          3D

 24 25  0  0  0  0  0  0  0  0999 V2000
    2.5510   20.6930   37.8110 C   0  0  0  0  0  0  0  0  0  0  0  0
   -0.2110   17.3200   43.6090 C   0  0  0  0  0  0  0  0  0  0  0  0
    2.1360   18.2460   40.5270 C   0  0  0  0  0  0  0  0  0  0  0  0
    3.9410   18.6530   36.7640 C   0  0  0  0  0  0  0  0  0  0  0  0
    3.7480   19.7610   36.0800 N   0  0  0  0  0  0  0  0  0  0  0  0
    2.7930   19.5990   38.6480 C   0  0  0  0  0  0  0  0  0  0  0  0
    1.5470   20.5490   40.6090 C   0  0  0  0  0  0  0  0  0  0  0  0
    0.8500   20.3700   41.7710 C   0  0  0  0  0  0  0  0  0  0  0  0
    0.0180   18.7740   43.3540 O   0  0  0  0  0  0  0  0  0  0  0  0
    0.8030   19.0860   42.2950 C   0  0  0  0  0  0  0  0  0  0  0  0
    2.1470   19.4700   39.9130 C   0  0  0  0  0  0  0  0  0  0  0  0
    1.4970   18.0030   41.7710 C   0  0  0  0  0  0  0  0  0  0  0  0
    3.0540   20.7870   36.5910 N   0  0  0  0  0  0  0  0  0  0  0  0
    3.4900   18.5520   38.0840 C   0  0  0  0  0  0  0  0  0  0  0  0
    1.9154   21.5101   38.1829 H   0  0  0  0  0  0  0  0  0  0  0  0
   -0.2397   17.1380   44.6935 H   0  0  0  0  0  0  0  0  0  0  0  0
   -1.1682   17.0154   43.1607 H   0  0  0  0  0  0  0  0  0  0  0  0
    0.6062   16.7359   43.1607 H   0  0  0  0  0  0  0  0  0  0  0  0
    2.6484   17.4085   40.0310 H   0  0  0  0  0  0  0  0  0  0  0  0
    4.4590   17.8032   36.2955 H   0  0  0  0  0  0  0  0  0  0  0  0
    1.6457   21.5654   40.2000 H   0  0  0  0  0  0  0  0  0  0  0  0
    0.3463   21.2104   42.2709 H   0  0  0  0  0  0  0  0  0  0  0  0
    1.5476   17.0300   42.2817 H   0  0  0  0  0  0  0  0  0  0  0  0
    3.6904   17.6422   38.6688 H   0  0  0  0  0  0  0  0  0  0  0  0
  1  6  2  0
  3 12  1  0
  4 14  2  0
  5 13  2  0
  5  4  1  0
  6 11  1  0
  7  8  2  0
  8 10  1  0
  9  2  1  0
 10  9  1  0
 11  3  2  0
 11  7  1  0
 12 10  2  0
 13  1  1  0
 14  6  1  0
  1 15  1  0
  2 16  1  0
  2 17  1  0
  2 18  1  0
  3 19  1  0
  4 20  1  0
  7 21  1  0
  8 22  1  0
 12 23  1  0
 14 24  1  0
M  END
>  <mol_id>  (4) 
2026-08-23-6tgu-s0-n100-prep-0004

>  <rmsd_to_ref>  (4) 


$$$$

     RDKit          3D

 30 32  0  0  0  0  0  0  0  0999 V2000
    0.0951   17.7041   43.9177 C   0  0  0  0  0  0  0  0  0  0  0  0
   -0.2607   19.8879   43.3701 C   0  0  0  0  0  0  0  0  0  0  0  0
    1.3228   19.9100   41.0868 C   0  0  0  0  0  0  0  0  0  0  0  0
    3.6506   19.0959   38.0808 C   0  0  0  0  0  0  0  0  0  0  0  0
    1.6683   20.8486   38.7941 C   0  0  0  0  0  0  0  0  0  0  0  0
    1.1740   18.6970   41.8233 C   0  0  0  0  0  0  0  0  0  0  0  0
    0.6265   16.2883   43.8304 C   0  0  0  0  0  0  0  0  0  0  0  0
    0.1044   15.5029   44.8942 N   0  0  0  0  0  0  0  0  0  0  0  0
   -0.7877   18.3001   44.8544 C   0  0  0  0  0  0  0  0  0  0  0  0
    0.4333   18.6938   42.9756 C   0  0  0  0  0  0  0  0  0  0  0  0
    3.3882   20.0902   37.2638 N   0  0  0  0  0  0  0  0  0  0  0  0
    0.7358   21.0094   41.5614 C   0  0  0  0  0  0  0  0  0  0  0  0
    2.8939   18.9327   39.2904 C   0  0  0  0  0  0  0  0  0  0  0  0
   -0.9466   19.6646   44.4560 N   0  0  0  0  0  0  0  0  0  0  0  0
    2.3828   20.9402   37.5701 C   0  0  0  0  0  0  0  0  0  0  0  0
   -0.0572   21.0093   42.6983 N   0  0  0  0  0  0  0  0  0  0  0  0
    2.0363   19.8422   39.7342 C   0  0  0  0  0  0  0  0  0  0  0  0
    4.4538   18.3848   37.8374 H   0  0  0  0  0  0  0  0  0  0  0  0
    0.8441   21.5434   39.0133 H   0  0  0  0  0  0  0  0  0  0  0  0
    1.6507   17.7713   41.4684 H   0  0  0  0  0  0  0  0  0  0  0  0
    0.3253   15.8454   42.8696 H   0  0  0  0  0  0  0  0  0  0  0  0
    1.7238   16.3108   43.9050 H   0  0  0  0  0  0  0  0  0  0  0  0
    0.2338   16.0026   45.7855 H   0  0  0  0  0  0  0  0  0  0  0  0
   -0.8997   15.3359   44.7370 H   0  0  0  0  0  0  0  0  0  0  0  0
    0.6008   14.6011   44.9310 H   0  0  0  0  0  0  0  0  0  0  0  0
   -1.2584   17.8087   45.7187 H   0  0  0  0  0  0  0  0  0  0  0  0
    0.8876   21.9588   41.0269 H   0  0  0  0  0  0  0  0  0  0  0  0
    3.0317   18.0115   39.8756 H   0  0  0  0  0  0  0  0  0  0  0  0
    2.1100   21.7259   36.8501 H   0  0  0  0  0  0  0  0  0  0  0  0
   -0.4901   21.8862   43.0216 H   0  0  0  0  0  0  0  0  0  0  0  0
  1  9  2  0
  2 14  2  0
  3  6  1  0
  3 12  2  0
  4 13  1  0
  5 17  1  0
  6 10  2  0
  7  1  1  0
  7  8  1  0
 10  2  1  0
 10  1  1  0
 11 15  1  0
 11  4  2  0
 12 16  1  0
 13 17  2  0
 14  9  1  0
 15  5  2  0
 16  2  1  0
 17  3  1  0
  4 18  1  0
  5 19  1  0
  6 20  1  0
  7 21  1  0
  7 22  1  0
  8 23  1  0
  8 24  1  0
  8 25  1  0
  9 26  1  0
 12 27  1  0
 13 28  1  0
 15 29  1  0
 16 30  1  0
M  CHG  1   8   1
M  END
>  <mol_id>  (5) 
2026-08-23-6tgu-s0-n100-prep-0005

>  <rmsd_to_ref>  (5) 


$$$$

     RDKit          3D

 52 56  0  0  0  0  0  0  0  0999 V2000
   -0.3870   21.1601   44.7031 N   0  0  0  0  0  0  0  0  0  0  0  0
    2.9605   19.1055   39.3179 C   0  0  2  0  0  0  0  0  0  0  0  0
    0.1872   15.5469   46.7895 C   0  0  0  0  0  0  0  0  0  0  0  0
    2.1421   19.3244   40.5644 C   0  0  0  0  0  0  0  0  0  0  0  0
    3.3788   16.7676   38.8075 C   0  0  1  0  0  0  0  0  0  0  0  0
   -0.1487   20.0724   42.6088 C   0  0  2  0  0  0  0  0  0  0  0  0
    1.7664   20.7859   36.5447 C   0  0  0  0  0  0  0  0  0  0  0  0
    1.9135   18.3207   41.4630 N   0  0  0  0  0  0  0  0  0  0  0  0
    2.7492   20.0568   36.1648 N   0  0  0  0  0  0  0  0  0  0  0  0
   -0.3975   21.2229   43.3478 C   0  0  0  0  0  0  0  0  0  0  0  0
    3.8520   15.7283   37.9642 C   0  0  0  0  0  0  0  0  0  0  0  0
   -0.1093   15.5942   48.2430 C   0  0  0  0  0  0  0  0  0  0  0  0
    0.7534   16.5368   44.3201 C   0  0  0  0  0  0  0  0  0  0  0  0
    1.3120   16.7891   43.0946 C   0  0  0  0  0  0  0  0  0  0  0  0
    2.5179   15.9337   40.9900 C   0  0  0  0  0  0  0  0  0  0  0  0
    2.8082   14.5898   40.5595 O   0  0  0  0  0  0  0  0  0  0  0  0
   -0.0110   19.9582   45.3232 C   0  0  0  0  0  0  0  0  0  0  0  0
    0.4871   18.9956   43.1992 C   0  0  0  0  0  0  0  0  0  0  0  0
    3.2870   19.3998   37.1943 N   0  0  0  0  0  0  0  0  0  0  0  0
    0.2559   18.9022   44.6378 C   0  0  0  0  0  0  0  0  0  0  0  0
   -0.5359   22.3356   42.7055 O   0  0  0  0  0  0  0  0  0  0  0  0
    2.6079   16.7431   39.5556 O   0  0  0  0  0  0  0  0  0  0  0  0
    1.2458   18.0599   42.5783 C   0  0  0  0  0  0  0  0  0  0  0  0
    2.6157   19.7897   38.1808 C   0  0  0  0  0  0  0  0  0  0  0  0
    0.1465   16.9400   46.4259 C   0  0  0  0  0  0  0  0  0  0  0  0
    1.9382   15.6857   42.3849 C   0  0  0  0  0  0  0  0  0  0  0  0
    1.6836   20.7062   37.8887 C   0  0  0  0  0  0  0  0  0  0  0  0
    4.0631   18.0472   38.9533 C   0  0  0  0  0  0  0  0  0  0  0  0
   -0.0874   17.7960   47.4902 N   0  0  0  0  0  0  0  0  0  0  0  0
   -0.2716   16.8883   48.5895 N   0  0  0  0  0  0  0  0  0  0  0  0
    1.8993   20.5735   40.7723 O   0  0  0  0  0  0  0  0  0  0  0  0
    0.3766   17.4714   45.1190 C   0  0  0  0  0  0  0  0  0  0  0  0
   -0.6146   20.0753   41.3752 F   0  0  0  0  0  0  0  0  0  0  0  0
    3.3628   19.2329   40.3338 H   0  0  0  0  0  0  0  0  0  0  0  0
    0.3868   14.6722   46.1531 H   0  0  0  0  0  0  0  0  0  0  0  0
    3.0065   16.2308   37.9226 H   0  0  0  0  0  0  0  0  0  0  0  0
   -1.1175   19.7005   42.9737 H   0  0  0  0  0  0  0  0  0  0  0  0
    1.1062   21.3735   35.8898 H   0  0  0  0  0  0  0  0  0  0  0  0
    2.4381   17.4818   41.1767 H   0  0  0  0  0  0  0  0  0  0  0  0
    4.4422   15.0145   38.5576 H   0  0  0  0  0  0  0  0  0  0  0  0
    2.9968   15.2076   37.5088 H   0  0  0  0  0  0  0  0  0  0  0  0
    4.4838   16.1574   37.1725 H   0  0  0  0  0  0  0  0  0  0  0  0
   -1.0303   15.0317   48.4555 H   0  0  0  0  0  0  0  0  0  0  0  0
    0.7132   15.1432   48.8175 H   0  0  0  0  0  0  0  0  0  0  0  0
    0.6218   15.4907   44.6338 H   0  0  0  0  0  0  0  0  0  0  0  0
    0.0570   19.9180   46.4205 H   0  0  0  0  0  0  0  0  0  0  0  0
    1.1792   14.8961   42.2827 H   0  0  0  0  0  0  0  0  0  0  0  0
    2.8194   15.4444   42.9974 H   0  0  0  0  0  0  0  0  0  0  0  0
    1.9150   21.6730   38.3595 H   0  0  0  0  0  0  0  0  0  0  0  0
    0.6794   20.4429   38.2521 H   0  0  0  0  0  0  0  0  0  0  0  0
    4.8127   17.9877   39.7561 H   0  0  0  0  0  0  0  0  0  0  0  0
    4.5887   18.3242   38.0275 H   0  0  0  0  0  0  0  0  0  0  0  0
  1 17  2  0
  2 24  1  0
  2  4  1  0
  3 12  1  0
  4 31  2  0
  4  8  1  0
  5 11  1  0
  5 28  1  0
  5 22  1  0
  6 33  1  0
  6 18  1  0
  6 10  1  0
  7 27  1  0
  8 23  1  0
  9  7  2  0
  9 19  1  0
 10  1  1  0
 12 30  1  0
 13 32  2  0
 14 13  1  0
 15 26  1  0
 16 15  2  0
 18 20  2  0
 19 24  2  0
 20 32  1  0
 20 17  1  0
 21 10  2  0
 22 15  1  0
 23 14  2  0
 23 18  1  0
 25  3  2  0
 25 29  1  0
 26 14  1  0
 27 24  1  0
 28  2  1  0
 29 30  2  0
 32 25  1  0
  2 34  1  1
  3 35  1  0
  5 36  1  6
  6 37  1  6
  7 38  1  0
  8 39  1  0
 11 40  1  0
 11 41  1  0
 11 42  1  0
 12 43  1  0
 12 44  1  0
 13 45  1  0
 17 46  1  0
 26 47  1  0
 26 48  1  0
 27 49  1  0
 27 50  1  0
 28 51  1  0
 28 52  1  0
M  END
>  <mol_id>  (6) 
2026-08-23-6tgu-s0-n100-prep-0006

>  <rmsd_to_ref>  (6) 


$$$$

     RDKit          3D

 46 48  0  0  0  0  0  0  0  0999 V2000
    0.3264   21.4238   42.8580 C   0  0  0  0  0  0  0  0  0  0  0  0
    2.2339   21.8337   37.1713 O   0  0  0  0  0  0  0  0  0  0  0  0
    3.5514   19.1173   39.5774 C   0  0  0  0  0  0  0  0  0  0  0  0
   -0.2012   19.4735   44.2533 C   0  0  0  0  0  0  0  0  0  0  0  0
    0.3321   19.9323   43.1029 C   0  0  0  0  0  0  0  0  0  0  0  0
    2.7592   21.3682   38.5007 C   0  0  0  0  0  0  0  0  0  0  0  0
    1.4553   19.4075   40.9148 C   0  0  0  0  0  0  0  0  0  0  0  0
    3.1446   22.2973   36.1730 C   0  0  0  0  0  0  0  0  0  0  0  0
    1.5141   15.3426   41.9227 C   0  0  0  0  0  0  0  0  0  0  0  0
   -0.3537   18.1332   44.5927 C   0  0  0  0  0  0  0  0  0  0  0  0
    3.3508   19.3203   37.1725 C   0  0  0  0  0  0  0  0  0  0  0  0
    3.2505   18.1732   37.4602 C   0  0  0  0  0  0  0  0  0  0  0  0
    0.2651   17.1352   43.7085 C   0  0  0  0  0  0  0  0  0  0  0  0
    1.6521   16.7443   41.6881 C   0  0  0  0  0  0  0  0  0  0  0  0
    0.9309   18.9581   42.2464 C   0  0  0  0  0  0  0  0  0  0  0  0
    3.7049   21.7320   35.1387 N   0  0  0  0  0  0  0  0  0  0  0  0
    2.3838   17.1742   40.6313 N   0  0  0  0  0  0  0  0  0  0  0  0
    3.3070   19.9615   38.3323 C   0  0  2  0  0  0  0  0  0  0  0  0
    0.8211   14.8864   43.0669 C   0  0  0  0  0  0  0  0  0  0  0  0
    0.9027   17.6326   42.5222 C   0  0  0  0  0  0  0  0  0  0  0  0
    2.4141   18.4512   40.3249 C   0  0  2  0  0  0  0  0  0  0  0  0
    0.1971   15.7919   43.9365 C   0  0  0  0  0  0  0  0  0  0  0  0
    1.0677   20.3322   40.3583 O   0  0  0  0  0  0  0  0  0  0  0  0
   -0.7989   20.4026   45.0333 O   0  0  0  0  0  0  0  0  0  0  0  0
    0.3752   21.9536   43.8207 H   0  0  0  0  0  0  0  0  0  0  0  0
    1.1970   21.6980   42.2441 H   0  0  0  0  0  0  0  0  0  0  0  0
   -0.5973   21.7054   42.3310 H   0  0  0  0  0  0  0  0  0  0  0  0
    4.2364   18.3115   39.2750 H   0  0  0  0  0  0  0  0  0  0  0  0
    3.9008   19.8666   40.3030 H   0  0  0  0  0  0  0  0  0  0  0  0
    3.5605   22.0411   38.8401 H   0  0  0  0  0  0  0  0  0  0  0  0
    1.9529   21.3734   39.2490 H   0  0  0  0  0  0  0  0  0  0  0  0
    3.4339   23.3505   36.3032 H   0  0  0  0  0  0  0  0  0  0  0  0
    1.9460   14.6198   41.2148 H   0  0  0  0  0  0  0  0  0  0  0  0
   -0.9159   17.8315   45.4887 H   0  0  0  0  0  0  0  0  0  0  0  0
    4.3054   19.5099   36.6598 H   0  0  0  0  0  0  0  0  0  0  0  0
    2.5579   19.6486   36.4843 H   0  0  0  0  0  0  0  0  0  0  0  0
    3.2959   18.0642   38.5539 H   0  0  0  0  0  0  0  0  0  0  0  0
    2.2888   17.7858   37.0927 H   0  0  0  0  0  0  0  0  0  0  0  0
    4.0738   17.6065   37.0009 H   0  0  0  0  0  0  0  0  0  0  0  0
    4.3466   22.2724   34.5410 H   0  0  0  0  0  0  0  0  0  0  0  0
    2.9175   16.4978   40.0670 H   0  0  0  0  0  0  0  0  0  0  0  0
    4.1925   20.5507   38.0515 H   0  0  0  0  0  0  0  0  0  0  0  0
    0.7708   13.8079   43.2777 H   0  0  0  0  0  0  0  0  0  0  0  0
    1.9758   17.8094   39.5465 H   0  0  0  0  0  0  0  0  0  0  0  0
   -0.3529   15.4154   44.8115 H   0  0  0  0  0  0  0  0  0  0  0  0
   -0.7077   21.3642   44.8160 H   0  0  0  0  0  0  0  0  0  0  0  0
  1  5  1  0
  2  6  1  0
  4 10  2  0
  4 24  1  0
  5  4  1  0
  7 15  1  0
  8  2  1  0
  9 19  2  0
 11 12  1  0
 13 22  2  0
 13 10  1  0
 14  9  1  0
 14 20  2  0
 15 20  1  0
 15  5  2  0
 16  8  2  3
 17 14  1  0
 18 11  1  0
 18  6  1  0
 18  3  1  0
 19 22  1  0
 20 13  1  0
 21  3  1  0
 21 17  1  0
 21  7  1  0
 23  7  2  0
  1 25  1  0
  1 26  1  0
  1 27  1  0
  3 28  1  0
  3 29  1  0
  6 30  1  0
  6 31  1  0
  8 32  1  0
  9 33  1  0
 10 34  1  0
 11 35  1  0
 11 36  1  0
 12 37  1  0
 12 38  1  0
 12 39  1  0
 16 40  1  0
 17 41  1  0
 18 42  1  6
 19 43  1  0
 21 44  1  6
 22 45  1  0
 24 46  1  0
M  END
>  <mol_id>  (7) 
2026-08-23-6tgu-s0-n100-prep-0007

>  <rmsd_to_ref>  (7) 


$$$$

     RDKit          3D

 40 43  0  0  0  0  0  0  0  0999 V2000
    0.5077   20.4806   42.5821 C   0  0  0  0  0  0  0  0  0  0  0  0
    4.2844   19.4164   36.7763 N   0  0  0  0  0  0  0  0  0  0  0  0
    0.7241   19.1170   42.5161 N   0  0  0  0  0  0  0  0  0  0  0  0
    2.9578   20.4782   38.1440 C   0  0  0  0  0  0  0  0  0  0  0  0
    4.0167   18.5241   37.6714 C   0  0  0  0  0  0  0  0  0  0  0  0
    0.9428   21.3250   42.0214 C   0  0  0  0  0  0  0  0  0  0  0  0
    4.5737   17.0129   37.6267 C   0  0  0  0  0  0  0  0  0  0  0  0
    0.7686   16.6420   43.2250 S   0  0  0  0  0  0  0  0  0  0  0  0
    0.1681   15.4305   44.2933 C   0  0  0  0  0  0  0  0  0  0  0  0
    3.3304   19.1592   38.6277 C   0  0  0  0  0  0  0  0  0  0  0  0
   -0.3158   18.4630   44.8414 C   0  0  0  0  0  0  0  0  0  0  0  0
    3.6360   20.5878   37.0923 N   0  0  0  0  0  0  0  0  0  0  0  0
    1.4231   19.0853   41.8272 N   0  0  0  0  0  0  0  0  0  0  0  0
   -1.0612   17.2874   45.4413 C   0  0  0  0  0  0  0  0  0  0  0  0
   -0.3871   15.9939   45.5248 C   0  0  0  0  0  0  0  0  0  0  0  0
    1.3395   20.3064   41.1043 C   0  0  2  0  0  0  0  0  0  0  0  0
    2.7490   18.8278   39.8273 C   0  0  0  0  0  0  0  0  0  0  0  0
    2.2683   21.1528   39.0332 C   0  0  0  0  0  0  0  0  0  0  0  0
   -0.0933   18.0886   43.3867 C   0  0  1  0  0  0  0  0  0  0  0  0
    2.1414   20.1253   40.1551 C   0  0  0  0  0  0  0  0  0  0  0  0
   -0.5727   20.5797   42.4010 H   0  0  0  0  0  0  0  0  0  0  0  0
    1.0658   20.6500   43.5148 H   0  0  0  0  0  0  0  0  0  0  0  0
    0.2200   22.0570   41.6318 H   0  0  0  0  0  0  0  0  0  0  0  0
    1.6377   22.0561   42.4601 H   0  0  0  0  0  0  0  0  0  0  0  0
    4.6885   16.6339   38.6529 H   0  0  0  0  0  0  0  0  0  0  0  0
    3.8636   16.3765   37.0782 H   0  0  0  0  0  0  0  0  0  0  0  0
    5.5490   16.9964   37.1185 H   0  0  0  0  0  0  0  0  0  0  0  0
   -0.6214   14.8648   43.7770 H   0  0  0  0  0  0  0  0  0  0  0  0
    1.0126   14.7834   44.5730 H   0  0  0  0  0  0  0  0  0  0  0  0
   -0.9174   19.3809   44.9164 H   0  0  0  0  0  0  0  0  0  0  0  0
    0.6306   18.6621   45.3655 H   0  0  0  0  0  0  0  0  0  0  0  0
    2.3505   18.9955   42.2664 H   0  0  0  0  0  0  0  0  0  0  0  0
   -1.3424   17.5719   46.4659 H   0  0  0  0  0  0  0  0  0  0  0  0
   -1.8885   17.1108   44.7382 H   0  0  0  0  0  0  0  0  0  0  0  0
   -1.1158   15.2693   45.9172 H   0  0  0  0  0  0  0  0  0  0  0  0
    0.4895   16.1802   46.1628 H   0  0  0  0  0  0  0  0  0  0  0  0
    0.6243   20.7999   40.4299 H   0  0  0  0  0  0  0  0  0  0  0  0
    2.7407   17.8757   40.3782 H   0  0  0  0  0  0  0  0  0  0  0  0
    1.8845   22.1824   38.9836 H   0  0  0  0  0  0  0  0  0  0  0  0
   -1.1299   18.0368   43.0223 H   0  0  0  0  0  0  0  0  0  0  0  0
  2 12  2  0
  2  5  1  0
  3  1  1  0
  3 19  1  0
  4 10  1  0
  4 18  2  0
  5 10  2  0
  6  1  1  0
  7  5  1  0
  8 19  1  0
  8  9  1  0
  9 15  1  0
 10 17  1  0
 11 14  1  0
 12  4  1  0
 13  3  1  0
 14 15  1  0
 16 20  1  0
 16 13  1  0
 16  6  1  0
 17 20  2  0
 18 20  1  0
 19 11  1  0
  1 21  1  0
  1 22  1  0
  6 23  1  0
  6 24  1  0
  7 25  1  0
  7 26  1  0
  7 27  1  0
  9 28  1  0
  9 29  1  0
 11 30  1  0
 11 31  1  0
 13 32  1  0
 14 33  1  0
 14 34  1  0
 15 35  1  0
 15 36  1  0
 16 37  1  6
 17 38  1  0
 18 39  1  0
 19 40  1  6
M  END
>  <mol_id>  (8) 
2026-08-23-6tgu-s0-n100-prep-0008

>  <rmsd_to_ref>  (8) 


$$$$

     RDKit          3D

 35 38  0  0  0  0  0  0  0  0999 V2000
    0.9714   21.1973   41.3648 C   0  0  0  0  0  0  0  0  0  0  0  0
    0.6152   15.3475   43.9038 C   0  0  0  0  0  0  0  0  0  0  0  0
    3.5469   18.5075   37.0413 C   0  0  0  0  0  0  0  0  0  0  0  0
    1.3604   18.6404   41.1652 O   0  0  0  0  0  0  0  0  0  0  0  0
    2.2941   20.2059   38.9296 C   0  0  0  0  0  0  0  0  0  0  0  0
    2.4902   18.3410   40.4421 O   0  0  0  0  0  0  0  0  0  0  0  0
    3.2366   18.0327   38.2573 C   0  0  0  0  0  0  0  0  0  0  0  0
    0.7812   20.1631   42.4903 C   0  0  0  0  0  0  0  0  0  0  0  0
    3.1475   19.8293   36.7162 C   0  0  0  0  0  0  0  0  0  0  0  0
    1.0450   18.7634   42.2689 C   0  0  0  0  0  0  0  0  0  0  0  0
    2.6127   18.8793   39.2201 C   0  0  0  0  0  0  0  0  0  0  0  0
    2.5586   20.6601   37.6535 C   0  0  0  0  0  0  0  0  0  0  0  0
    1.0919   16.2482   43.0414 C   0  0  0  0  0  0  0  0  0  0  0  0
    0.1282   20.5136   43.6229 N   0  0  0  0  0  0  0  0  0  0  0  0
    3.3935   20.3080   35.5338 O   0  0  0  0  0  0  0  0  0  0  0  0
   -0.1955   15.8502   45.0026 C   0  0  0  0  0  0  0  0  0  0  0  0
    0.0244   18.0858   44.2755 C   0  0  0  0  0  0  0  0  0  0  0  0
    0.7226   17.6663   43.0704 C   0  0  0  0  0  0  0  0  0  0  0  0
   -0.2049   19.4861   44.4206 C   0  0  0  0  0  0  0  0  0  0  0  0
    1.6640   21.0813   40.0268 C   0  0  0  0  0  0  0  0  0  0  0  0
   -0.3896   17.1579   45.1649 N   0  0  0  0  0  0  0  0  0  0  0  0
    1.9061   15.6352   41.9152 C   0  0  0  0  0  0  0  0  0  0  0  0
   -0.6873   15.0494   45.7603 O   0  0  0  0  0  0  0  0  0  0  0  0
    0.5299   22.1839   41.5689 H   0  0  0  0  0  0  0  0  0  0  0  0
    0.8256   14.2740   43.7889 H   0  0  0  0  0  0  0  0  0  0  0  0
    4.0958   17.8887   36.3163 H   0  0  0  0  0  0  0  0  0  0  0  0
    3.4643   16.9871   38.5122 H   0  0  0  0  0  0  0  0  0  0  0  0
    2.2988   21.6931   37.3786 H   0  0  0  0  0  0  0  0  0  0  0  0
    3.1154   21.2303   35.3055 H   0  0  0  0  0  0  0  0  0  0  0  0
   -0.7431   19.7712   45.3365 H   0  0  0  0  0  0  0  0  0  0  0  0
    1.7665   22.1150   39.6649 H   0  0  0  0  0  0  0  0  0  0  0  0
   -0.8805   17.4777   46.0121 H   0  0  0  0  0  0  0  0  0  0  0  0
    2.8207   15.1841   42.3274 H   0  0  0  0  0  0  0  0  0  0  0  0
    1.3098   14.8601   41.4115 H   0  0  0  0  0  0  0  0  0  0  0  0
    2.1774   16.4175   41.1910 H   0  0  0  0  0  0  0  0  0  0  0  0
  1  8  1  0
  2 16  1  0
  3  7  1  0
  4 10  1  0
  5 11  1  0
  5 20  1  0
  6  4  1  0
  7 11  2  0
  8 14  1  0
  9  3  2  0
  9 12  1  0
 10  8  2  0
 10 18  1  0
 11  6  1  0
 12  5  2  0
 13 18  1  0
 13  2  2  0
 14 19  2  0
 15  9  1  0
 16 21  1  0
 16 23  2  0
 17 19  1  0
 17 21  1  0
 18 17  2  0
 20  1  2  0
 22 13  1  0
  1 24  1  0
  2 25  1  0
  3 26  1  0
  7 27  1  0
 12 28  1  0
 15 29  1  0
 19 30  1  0
 20 31  1  0
 21 32  1  0
 22 33  1  0
 22 34  1  0
 22 35  1  0
M  END
>  <mol_id>  (9) 
2026-08-23-6tgu-s0-n100-prep-0009

>  <rmsd_to_ref>  (9) 


$$$$

     RDKit          3D

 16 15  0  0  0  0  0  0  0  0999 V2000
    0.7309   21.3093   40.5674 O   0  0  0  0  0  0  0  0  0  0  0  0
    3.0340   19.0458   37.9763 C   0  0  0  0  0  0  0  0  0  0  0  0
    0.5124   19.4093   41.9202 C   0  0  0  0  0  0  0  0  0  0  0  0
    1.3907   17.4020   41.1698 O   0  0  0  0  0  0  0  0  0  0  0  0
    2.8374   18.9298   36.7383 O   0  0  0  0  0  0  0  0  0  0  0  0
    0.7909   18.0847   42.1195 C   0  0  0  0  0  0  0  0  0  0  0  0
    0.6344   17.3926   43.1544 O   0  0  0  0  0  0  0  0  0  0  0  0
    0.8983   20.1224   40.7086 C   0  0  0  0  0  0  0  0  0  0  0  0
    3.9783   18.3882   38.6834 O   0  0  0  0  0  0  0  0  0  0  0  0
    2.0760   19.9767   38.6019 C   0  0  0  0  0  0  0  0  0  0  0  0
    1.4799   19.3505   39.7728 N   0  0  0  0  0  0  0  0  0  0  0  0
   -0.5810   19.5049   41.9944 H   0  0  0  0  0  0  0  0  0  0  0  0
    1.1541   19.8879   42.6746 H   0  0  0  0  0  0  0  0  0  0  0  0
    2.6019   20.8941   38.9052 H   0  0  0  0  0  0  0  0  0  0  0  0
    1.2854   20.2272   37.8793 H   0  0  0  0  0  0  0  0  0  0  0  0
    1.5032   18.3267   39.8837 H   0  0  0  0  0  0  0  0  0  0  0  0
  2  9  1  0
  2 10  1  0
  4  6  2  0
  5  2  2  0
  6  3  1  0
  6  7  1  0
  8  1  2  0
  8  3  1  0
 10 11  1  0
 11  8  1  0
  3 12  1  0
  3 13  1  0
 10 14  1  0
 10 15  1  0
 11 16  1  0
M  CHG  2   7  -1   9  -1
M  END
>  <mol_id>  (10) 
2026-08-23-6tgu-s0-n100-prep-0010

>  <rmsd_to_ref>  (10) 


$$$$

     RDKit          3D

 29 31  0  0  0  0  0  0  0  0999 V2000
    0.6761   21.5442   41.6942 N   0  0  0  0  0  0  0  0  0  0  0  0
    2.1285   17.1783   39.5898 F   0  0  0  0  0  0  0  0  0  0  0  0
    2.3048   18.2063   38.8136 C   0  0  0  0  0  0  0  0  0  0  0  0
    1.9749   20.5139   38.2642 C   0  0  0  0  0  0  0  0  0  0  0  0
    0.7288   19.2656   41.6003 C   0  0  0  0  0  0  0  0  0  0  0  0
   -0.2397   17.5458   43.2125 C   0  0  0  0  0  0  0  0  0  0  0  0
    1.2968   21.1392   40.6989 N   0  0  0  0  0  0  0  0  0  0  0  0
    3.0061   19.1221   36.6033 N   0  0  0  0  0  0  0  0  0  0  0  0
   -1.0865   18.1375   44.0207 C   0  0  0  0  0  0  0  0  0  0  0  0
   -1.3980   19.4612   43.8621 C   0  0  0  0  0  0  0  0  0  0  0  0
    1.3648   19.8002   40.4487 C   0  0  0  0  0  0  0  0  0  0  0  0
    0.1588   20.4277   42.1468 C   0  0  1  0  0  0  0  0  0  0  0  0
    2.8333   18.0652   37.4691 C   0  0  0  0  0  0  0  0  0  0  0  0
    3.3622   16.8618   37.1286 N   0  0  0  0  0  0  0  0  0  0  0  0
   -0.9505   20.3287   43.0023 C   0  0  0  0  0  0  0  0  0  0  0  0
    0.5471   18.0909   42.2359 C   0  0  0  0  0  0  0  0  0  0  0  0
    2.6060   20.2601   37.0937 C   0  0  0  0  0  0  0  0  0  0  0  0
    1.9040   19.4795   39.1773 C   0  0  0  0  0  0  0  0  0  0  0  0
    0.5902   22.5011   42.0654 H   0  0  0  0  0  0  0  0  0  0  0  0
    1.5377   21.5002   38.4787 H   0  0  0  0  0  0  0  0  0  0  0  0
   -0.1498   16.4566   43.3380 H   0  0  0  0  0  0  0  0  0  0  0  0
   -1.5518   17.5635   44.8355 H   0  0  0  0  0  0  0  0  0  0  0  0
   -2.1422   19.8517   44.5719 H   0  0  0  0  0  0  0  0  0  0  0  0
   -0.5849   20.4439   41.3366 H   0  0  0  0  0  0  0  0  0  0  0  0
    3.2489   16.0531   37.7565 H   0  0  0  0  0  0  0  0  0  0  0  0
    3.8768   16.7576   36.2425 H   0  0  0  0  0  0  0  0  0  0  0  0
   -1.6077   21.2075   42.9259 H   0  0  0  0  0  0  0  0  0  0  0  0
    1.2493   17.3375   41.8494 H   0  0  0  0  0  0  0  0  0  0  0  0
    2.8101   21.1411   36.4675 H   0  0  0  0  0  0  0  0  0  0  0  0
  1 12  1  0
  3 18  1  0
  3  2  1  0
  4 18  2  0
  5 16  2  0
  5 12  1  0
  6  9  2  0
  7  1  1  0
  8 17  2  0
  8 13  1  0
 10  9  1  0
 11  7  2  0
 11  5  1  0
 12 15  1  0
 13  3  2  0
 14 13  1  0
 15 10  2  0
 16  6  1  0
 17  4  1  0
 18 11  1  0
  1 19  1  0
  4 20  1  0
  6 21  1  0
  9 22  1  0
 10 23  1  0
 12 24  1  1
 14 25  1  0
 14 26  1  0
 15 27  1  0
 16 28  1  0
 17 29  1  0
M  END
>  <mol_id>  (11) 
2026-08-23-6tgu-s0-n100-prep-0011

>  <rmsd_to_ref>  (11) 


$$$$

     RDKit          3D

 49 51  0  0  0  0  0  0  0  0999 V2000
    0.5298   20.4870   42.2596 C   0  0  0  0  0  0  0  0  0  0  0  0
    1.7753   15.3588   42.3456 C   0  0  0  0  0  0  0  0  0  0  0  0
   -0.3066   16.6827   45.1918 C   0  0  0  0  0  0  0  0  0  0  0  0
    3.8651   19.5732   38.6311 C   0  0  0  0  0  0  0  0  0  0  0  0
    3.4749   19.4894   36.1761 N   0  0  0  0  0  0  0  0  0  0  0  0
    1.4865   19.2492   40.5503 C   0  0  0  0  0  0  0  0  0  0  0  0
    0.4732   16.2063   44.0179 C   0  0  0  0  0  0  0  0  0  0  0  0
    2.7065   20.5548   38.7400 N   0  0  0  0  0  0  0  0  0  0  0  0
    0.9312   19.2615   41.8753 C   0  0  2  0  0  0  0  0  0  0  0  0
    1.0573   14.9248   43.4013 N   0  0  0  0  0  0  0  0  0  0  0  0
    1.9810   20.5162   39.9566 C   0  0  0  0  0  0  0  0  0  0  0  0
    2.7479   21.4480   35.2398 O   0  0  0  0  0  0  0  0  0  0  0  0
    1.6201   16.6428   42.0921 N   0  0  0  0  0  0  0  0  0  0  0  0
    0.0102   21.0726   43.2667 O   0  0  0  0  0  0  0  0  0  0  0  0
    3.4682   18.7246   37.4386 C   0  0  0  0  0  0  0  0  0  0  0  0
    2.3682   21.0628   37.5491 C   0  0  0  0  0  0  0  0  0  0  0  0
    1.6507   21.7316   40.5919 C   0  0  0  0  0  0  0  0  0  0  0  0
    0.2509   18.4409   43.1299 C   0  0  0  0  0  0  0  0  0  0  0  0
    0.8843   21.6975   41.6784 C   0  0  0  0  0  0  0  0  0  0  0  0
    0.2036   13.5036   45.5497 C   0  0  0  0  0  0  0  0  0  0  0  0
    0.8025   17.1290   43.0885 C   0  0  0  0  0  0  0  0  0  0  0  0
   -0.8146   13.2068   44.4901 C   0  0  0  0  0  0  0  0  0  0  0  0
   -0.9112   17.9737   45.2741 C   0  0  0  0  0  0  0  0  0  0  0  0
    2.6083   14.3805   41.5594 C   0  0  0  0  0  0  0  0  0  0  0  0
    2.8461   20.7376   36.3232 C   0  0  0  0  0  0  0  0  0  0  0  0
   -0.6390   18.8729   44.2043 N   0  0  0  0  0  0  0  0  0  0  0  0
   -0.4242   16.0004   46.0466 H   0  0  0  0  0  0  0  0  0  0  0  0
    4.8141   20.0979   38.4469 H   0  0  0  0  0  0  0  0  0  0  0  0
    4.0314   18.9889   39.5482 H   0  0  0  0  0  0  0  0  0  0  0  0
    3.8891   19.1503   35.2962 H   0  0  0  0  0  0  0  0  0  0  0  0
    1.5444   18.3096   39.9813 H   0  0  0  0  0  0  0  0  0  0  0  0
    1.6018   18.4289   41.6168 H   0  0  0  0  0  0  0  0  0  0  0  0
    2.0270   17.1742   41.3092 H   0  0  0  0  0  0  0  0  0  0  0  0
    2.4553   18.3302   37.6072 H   0  0  0  0  0  0  0  0  0  0  0  0
    4.2058   17.9142   37.3435 H   0  0  0  0  0  0  0  0  0  0  0  0
    1.2838   20.8931   37.4755 H   0  0  0  0  0  0  0  0  0  0  0  0
    2.8513   22.0457   37.6525 H   0  0  0  0  0  0  0  0  0  0  0  0
    2.0200   22.6893   40.1963 H   0  0  0  0  0  0  0  0  0  0  0  0
    0.5272   22.6388   42.1216 H   0  0  0  0  0  0  0  0  0  0  0  0
   -0.2464   13.3551   46.5425 H   0  0  0  0  0  0  0  0  0  0  0  0
    1.0631   12.8274   45.4319 H   0  0  0  0  0  0  0  0  0  0  0  0
    0.5410   14.5460   45.4523 H   0  0  0  0  0  0  0  0  0  0  0  0
   -1.7626   12.9132   44.9645 H   0  0  0  0  0  0  0  0  0  0  0  0
   -0.9752   14.1040   43.8743 H   0  0  0  0  0  0  0  0  0  0  0  0
   -0.4531   12.3854   43.8540 H   0  0  0  0  0  0  0  0  0  0  0  0
   -1.5539   18.2587   46.1201 H   0  0  0  0  0  0  0  0  0  0  0  0
    3.2261   13.7873   42.2496 H   0  0  0  0  0  0  0  0  0  0  0  0
    1.9472   13.7101   40.9906 H   0  0  0  0  0  0  0  0  0  0  0  0
    3.2598   14.9297   40.8638 H   0  0  0  0  0  0  0  0  0  0  0  0
  1 14  2  0
  2 10  2  0
  3 23  1  0
  4  8  1  0
  5 25  1  0
  5 15  1  0
  6  9  1  0
  7  3  2  0
  8 11  1  0
  9  1  1  0
  9 18  1  0
 10  7  1  0
 11  6  2  0
 11 17  1  0
 12 25  2  0
 13  2  1  0
 13 21  1  0
 15  4  1  0
 16  8  1  0
 17 19  2  0
 18 26  1  0
 19  1  1  0
 21 18  2  0
 21  7  1  0
 22 20  1  0
 24  2  1  0
 25 16  1  0
 26 23  2  0
  3 27  1  0
  4 28  1  0
  4 29  1  0
  5 30  1  0
  6 31  1  0
  9 32  1  1
 13 33  1  0
 15 34  1  0
 15 35  1  0
 16 36  1  0
 16 37  1  0
 17 38  1  0
 19 39  1  0
 20 40  1  0
 20 41  1  0
 20 42  1  0
 22 43  1  0
 22 44  1  0
 22 45  1  0
 23 46  1  0
 24 47  1  0
 24 48  1  0
 24 49  1  0
M  END
>  <mol_id>  (12) 
2026-08-23-6tgu-s0-n100-prep-0012

>  <rmsd_to_ref>  (12) 


$$$$

     RDKit          3D

 31 34  0  0  0  0  0  0  0  0999 V2000
   -1.0430   18.6800   44.8740 C   0  0  0  0  0  0  0  0  0  0  0  0
    1.3950   17.6990   41.6540 N   0  0  0  0  0  0  0  0  0  0  0  0
   -0.1240   16.9330   43.7830 C   0  0  0  0  0  0  0  0  0  0  0  0
    2.9330   18.2710   39.2110 C   0  0  0  0  0  0  0  0  0  0  0  0
    3.2320   19.4030   37.2030 C   0  0  0  0  0  0  0  0  0  0  0  0
    1.4800   18.9770   41.0580 C   0  0  0  0  0  0  0  0  0  0  0  0
    2.1620   19.1770   39.8250 C   0  0  0  0  0  0  0  0  0  0  0  0
    3.4510   18.3000   37.9990 C   0  0  0  0  0  0  0  0  0  0  0  0
    2.7040   20.5000   37.6960 C   0  0  0  0  0  0  0  0  0  0  0  0
    0.7040   21.5550   41.6970 Cl  0  0  0  0  0  0  0  0  0  0  0  0
    0.7100   19.9280   41.9260 C   0  0  0  0  0  0  0  0  0  0  0  0
    0.1130   19.2440   42.9730 C   0  0  0  0  0  0  0  0  0  0  0  0
    2.8750   21.0030   36.7150 O   0  0  0  0  0  0  0  0  0  0  0  0
    2.9430   15.3310   38.0690 C   0  0  0  0  0  0  0  0  0  0  0  0
    3.7830   16.0660   37.4320 C   0  0  0  0  0  0  0  0  0  0  0  0
    0.0630   15.2620   43.4960 S   0  0  0  0  0  0  0  0  0  0  0  0
    4.2580   17.2110   37.3520 O   0  0  0  0  0  0  0  0  0  0  0  0
   -0.6500   19.6360   43.9870 N   0  0  0  0  0  0  0  0  0  0  0  0
    3.6390   15.0020   37.0030 N   0  0  0  0  0  0  0  0  0  0  0  0
   -0.8320   17.3260   44.8090 N   0  0  0  0  0  0  0  0  0  0  0  0
    0.4960   17.9050   42.7470 C   0  0  2  0  0  0  0  0  0  0  0  0
    2.0750   20.3780   38.9770 C   0  0  0  0  0  0  0  0  0  0  0  0
   -1.5993   19.0385   45.7526 H   0  0  0  0  0  0  0  0  0  0  0  0
    3.1680   17.3738   39.8025 H   0  0  0  0  0  0  0  0  0  0  0  0
    3.5036   19.3643   36.1378 H   0  0  0  0  0  0  0  0  0  0  0  0
    3.1864   14.9153   39.0579 H   0  0  0  0  0  0  0  0  0  0  0  0
    1.8873   15.3733   38.3753 H   0  0  0  0  0  0  0  0  0  0  0  0
   -0.9323   20.6203   44.0978 H   0  0  0  0  0  0  0  0  0  0  0  0
    1.3515   18.0351   43.4261 H   0  0  0  0  0  0  0  0  0  0  0  0
    2.4748   21.2025   39.5855 H   0  0  0  0  0  0  0  0  0  0  0  0
    1.0139   20.3542   38.6881 H   0  0  0  0  0  0  0  0  0  0  0  0
  3 20  1  0
  4  7  2  0
  5  9  1  0
  5  8  2  0
  6  2  2  0
  6 11  1  0
  7  6  1  0
  8  4  1  0
  9 22  1  0
 10 11  1  0
 11 12  2  0
 12 18  1  0
 13  9  2  0
 15 14  1  0
 16  3  2  0
 17 15  1  0
 17  8  1  0
 18  1  1  0
 19 15  2  0
 19 14  1  0
 20  1  2  0
 21  2  1  0
 21 12  1  0
 21  3  1  0
 22  7  1  0
  1 23  1  0
  4 24  1  0
  5 25  1  0
 14 26  1  0
 14 27  1  0
 18 28  1  0
 21 29  1  1
 22 30  1  0
 22 31  1  0
M  END
>  <mol_id>  (13) 
2026-08-23-6tgu-s0-n100-prep-0013

>  <rmsd_to_ref>  (13) 


$$$$

     RDKit          3D

 31 32  0  0  0  0  0  0  0  0999 V2000
    1.5150   17.6890   41.0770 C   0  0  0  0  0  0  0  0  0  0  0  0
    1.0480   18.9410   41.2500 C   0  0  0  0  0  0  0  0  0  0  0  0
    2.3970   18.8080   39.2190 C   0  0  1  0  0  0  0  0  0  0  0  0
   -0.1240   16.2840   43.9870 N   0  0  0  0  0  0  0  0  0  0  0  0
   -0.6090   18.9060   44.6340 C   0  0  0  0  0  0  0  0  0  0  0  0
    0.2870   17.2020   43.1420 C   0  0  0  0  0  0  0  0  0  0  0  0
    2.4370   21.2680   36.9460 O   0  0  0  0  0  0  0  0  0  0  0  0
    2.6390   18.9640   37.7710 C   0  0  0  0  0  0  0  0  0  0  0  0
    1.6680   20.0770   40.1030 S   0  0  0  0  0  0  0  0  0  0  0  0
    4.0720   20.8500   35.5840 O   0  0  0  0  0  0  0  0  0  0  0  0
    3.4050   20.4780   36.6190 C   0  0  0  0  0  0  0  0  0  0  0  0
   -0.0150   19.4390   42.1420 C   0  0  1  0  0  0  0  0  0  0  0  0
    3.8030   19.4270   37.4010 C   0  0  0  0  0  0  0  0  0  0  0  0
   -0.0420   18.5020   43.3770 N   0  0  0  0  0  0  0  0  0  0  0  0
    1.0250   16.7550   42.0850 N   0  0  0  0  0  0  0  0  0  0  0  0
   -0.1520   20.9060   42.5100 C   0  0  0  0  0  0  0  0  0  0  0  0
    2.4750   17.2780   39.8320 S   0  0  0  0  0  0  0  0  0  0  0  0
    3.3545   19.1611   39.6295 H   0  0  0  0  0  0  0  0  0  0  0  0
    0.1137   15.2945   43.8282 H   0  0  0  0  0  0  0  0  0  0  0  0
   -0.6839   16.5538   44.8084 H   0  0  0  0  0  0  0  0  0  0  0  0
   -0.0148   18.4826   45.4572 H   0  0  0  0  0  0  0  0  0  0  0  0
   -0.6019   20.0038   44.7035 H   0  0  0  0  0  0  0  0  0  0  0  0
   -1.6443   18.5409   44.7035 H   0  0  0  0  0  0  0  0  0  0  0  0
    2.5157   17.9740   37.3077 H   0  0  0  0  0  0  0  0  0  0  0  0
    1.9172   19.7281   37.4467 H   0  0  0  0  0  0  0  0  0  0  0  0
   -0.9126   19.4041   41.5071 H   0  0  0  0  0  0  0  0  0  0  0  0
    4.3736   18.6833   36.8253 H   0  0  0  0  0  0  0  0  0  0  0  0
    4.4782   19.6947   38.2271 H   0  0  0  0  0  0  0  0  0  0  0  0
   -0.1617   21.0100   43.6050 H   0  0  0  0  0  0  0  0  0  0  0  0
    0.6975   21.4688   42.0958 H   0  0  0  0  0  0  0  0  0  0  0  0
   -1.0910   21.3018   42.0958 H   0  0  0  0  0  0  0  0  0  0  0  0
  1  2  2  0
  1 15  1  0
  2 12  1  0
  3  8  1  0
  3 17  1  0
  3  9  1  0
  6 14  1  0
  6  4  1  0
  9  2  1  0
 10 11  2  0
 11  7  1  0
 11 13  1  0
 12 16  1  0
 12 14  1  0
 13  8  1  0
 14  5  1  0
 15  6  2  0
 17  1  1  0
  3 18  1  1
  4 19  1  0
  4 20  1  0
  5 21  1  0
  5 22  1  0
  5 23  1  0
  8 24  1  0
  8 25  1  0
 12 26  1  6
 13 27  1  0
 13 28  1  0
 16 29  1  0
 16 30  1  0
 16 31  1  0
M  CHG  1   7  -1
M  END
>  <mol_id>  (14) 
2026-08-23-6tgu-s0-n100-prep-0014

>  <rmsd_to_ref>  (14) 


$$$$

     RDKit          3D

 44 47  0  0  0  0  0  0  0  0999 V2000
   -0.5510   17.1010   45.7860 C   0  0  2  0  0  0  0  0  0  0  0  0
    1.4860   18.0920   41.2230 C   0  0  0  0  0  0  0  0  0  0  0  0
    1.4560   15.5130   41.9630 S   0  0  0  0  0  0  0  0  0  0  0  0
    0.2040   17.3960   43.3820 C   0  0  0  0  0  0  0  0  0  0  0  0
    3.3900   18.9170   38.5760 C   0  0  2  0  0  0  0  0  0  0  0  0
    2.2320   17.2580   40.1790 C   0  0  0  0  0  0  0  0  0  0  0  0
    1.6050   20.1810   39.9120 C   0  0  0  0  0  0  0  0  0  0  0  0
    1.3060   19.5030   40.9300 C   0  0  0  0  0  0  0  0  0  0  0  0
    3.8150   19.7470   36.1750 C   0  0  0  0  0  0  0  0  0  0  0  0
    3.0190   20.9680   36.3150 C   0  0  0  0  0  0  0  0  0  0  0  0
    3.7820   18.7430   37.0710 C   0  0  0  0  0  0  0  0  0  0  0  0
   -0.0010   18.6290   43.5790 N   0  0  0  0  0  0  0  0  0  0  0  0
    2.1420   15.8040   40.4950 C   0  0  0  0  0  0  0  0  0  0  0  0
   -0.2990   16.4290   44.4310 C   0  0  0  0  0  0  0  0  0  0  0  0
    2.9240   17.6520   39.0190 C   0  0  0  0  0  0  0  0  0  0  0  0
   -1.5230   16.5010   46.6070 O   0  0  0  0  0  0  0  0  0  0  0  0
    2.3710   21.1560   37.7250 C   0  0  0  0  0  0  0  0  0  0  0  0
    1.0170   17.0330   42.2000 C   0  0  0  0  0  0  0  0  0  0  0  0
   -0.9160   20.5030   44.4190 O   0  0  0  0  0  0  0  0  0  0  0  0
    2.4320   19.9980   38.6920 C   0  0  1  0  0  0  0  0  0  0  0  0
   -1.0990   18.4880   45.5130 N   0  0  0  0  0  0  0  0  0  0  0  0
   -0.6540   19.1590   44.5130 C   0  0  0  0  0  0  0  0  0  0  0  0
    2.7920   21.8020   35.4730 O   0  0  0  0  0  0  0  0  0  0  0  0
    4.2790   19.4060   39.8010 C   0  0  0  0  0  0  0  0  0  0  0  0
    0.4155   17.0465   46.3085 H   0  0  0  0  0  0  0  0  0  0  0  0
    1.1269   21.1715   39.9314 H   0  0  0  0  0  0  0  0  0  0  0  0
    0.8261   20.0781   41.7356 H   0  0  0  0  0  0  0  0  0  0  0  0
    3.5223   19.3033   35.2120 H   0  0  0  0  0  0  0  0  0  0  0  0
    4.8356   20.1328   36.3148 H   0  0  0  0  0  0  0  0  0  0  0  0
    3.0754   18.0049   36.6637 H   0  0  0  0  0  0  0  0  0  0  0  0
    4.8539   18.5133   37.1626 H   0  0  0  0  0  0  0  0  0  0  0  0
    2.4959   15.0108   39.8200 H   0  0  0  0  0  0  0  0  0  0  0  0
   -1.2418   15.9861   44.0775 H   0  0  0  0  0  0  0  0  0  0  0  0
    0.4797   15.6663   44.5791 H   0  0  0  0  0  0  0  0  0  0  0  0
    2.2695   17.3166   38.2010 H   0  0  0  0  0  0  0  0  0  0  0  0
    3.9054   17.2554   39.3184 H   0  0  0  0  0  0  0  0  0  0  0  0
   -1.2875   16.6464   47.5575 H   0  0  0  0  0  0  0  0  0  0  0  0
    2.8724   22.0096   38.2045 H   0  0  0  0  0  0  0  0  0  0  0  0
    1.2983   21.2870   37.5197 H   0  0  0  0  0  0  0  0  0  0  0  0
    2.0566   19.1510   38.0989 H   0  0  0  0  0  0  0  0  0  0  0  0
   -1.8233   18.8892   46.1256 H   0  0  0  0  0  0  0  0  0  0  0  0
    3.7841   19.1338   40.7449 H   0  0  0  0  0  0  0  0  0  0  0  0
    5.2667   18.9242   39.7526 H   0  0  0  0  0  0  0  0  0  0  0  0
    4.4010   20.4981   39.7526 H   0  0  0  0  0  0  0  0  0  0  0  0
  1 16  1  0
  2 18  2  0
  3 18  1  0
  4 12  2  0
  4 14  1  0
  5 20  1  0
  5 15  1  0
  5 24  1  1
  6 13  2  0
  6  2  1  0
  7  8  2  0
  8  2  1  0
  9 10  1  0
  9 11  1  0
 10 17  1  0
 11  5  1  0
 12 22  1  0
 13  3  1  0
 14  1  1  0
 15  6  1  0
 18  4  1  0
 19 22  2  0
 20 17  1  0
 20  7  1  0
 21  1  1  0
 22 21  1  0
 23 10  2  0
  1 25  1  1
  7 26  1  0
  8 27  1  0
  9 28  1  0
  9 29  1  0
 11 30  1  0
 11 31  1  0
 13 32  1  0
 14 33  1  0
 14 34  1  0
 15 35  1  0
 15 36  1  0
 16 37  1  0
 17 38  1  0
 17 39  1  0
 20 40  1  6
 21 41  1  0
 24 42  1  0
 24 43  1  0
 24 44  1  0
M  END
>  <mol_id>  (15) 
2026-08-23-6tgu-s0-n100-prep-0015

>  <rmsd_to_ref>  (15) 


$$$$

     RDKit          3D

 49 49  0  0  0  0  0  0  0  0999 V2000
    1.8280   21.0840   39.5400 F   0  0  0  0  0  0  0  0  0  0  0  0
    1.1660   15.7340   42.2150 C   0  0  0  0  0  0  0  0  0  0  0  0
    3.0280   20.4800   37.0190 C   0  0  0  0  0  0  0  0  0  0  0  0
   -0.9210   19.4790   44.6600 O   0  0  0  0  0  0  0  0  0  0  0  0
   -0.0760   18.2200   46.2680 C   0  0  0  0  0  0  0  0  0  0  0  0
    3.1250   18.5290   38.5040 C   0  0  0  0  0  0  0  0  0  0  0  0
   -0.0610   20.6910   42.8100 C   0  0  0  0  0  0  0  0  0  0  0  0
   -1.2230   18.2130   45.3020 C   0  0  0  0  0  0  0  0  0  0  0  0
    0.6160   18.9150   41.3280 C   0  0  0  0  0  0  0  0  0  0  0  0
   -0.2190   19.5360   43.5610 C   0  0  2  0  0  0  0  0  0  0  0  0
   -0.2870   14.6830   44.1170 S   0  0  0  0  0  0  0  0  0  0  0  0
   -0.0550   18.2590   42.3760 C   0  0  2  0  0  0  0  0  0  0  0  0
    2.2640   13.6460   41.4440 C   0  0  0  0  0  0  0  0  0  0  0  0
    2.3310   15.3040   40.9950 S   0  0  0  0  0  0  0  0  0  0  0  0
   -0.2810   13.1210   44.6640 C   0  0  0  0  0  0  0  0  0  0  0  0
    0.7200   17.0490   42.6040 N   0  0  0  0  0  0  0  0  0  0  0  0
    1.9660   20.1290   39.1490 N   0  0  0  0  0  0  0  0  0  0  0  0
    3.7060   20.4020   36.1740 O   0  0  0  0  0  0  0  0  0  0  0  0
    2.4040   21.5200   36.7760 O   0  0  0  0  0  0  0  0  0  0  0  0
    3.1000   17.7080   39.2780 O   0  0  0  0  0  0  0  0  0  0  0  0
    1.4860   13.4320   42.4140 N   0  0  0  0  0  0  0  0  0  0  0  0
    2.7670   19.7050   38.1870 C   0  0  1  0  0  0  0  0  0  0  0  0
    0.5170   20.3810   41.5770 C   0  0  0  0  0  0  0  0  0  0  0  0
    3.7600   17.6710   37.3290 C   0  0  0  0  0  0  0  0  0  0  0  0
    3.6760   17.6020   36.3510 N   0  0  0  0  0  0  0  0  0  0  0  0
    0.8490   14.6560   42.8540 C   0  0  0  0  0  0  0  0  0  0  0  0
    4.6560   17.0140   37.8100 O   0  0  0  0  0  0  0  0  0  0  0  0
   -0.4636   18.2176   47.2974 H   0  0  0  0  0  0  0  0  0  0  0  0
    0.5440   17.3256   46.1076 H   0  0  0  0  0  0  0  0  0  0  0  0
    0.5330   19.1219   46.1076 H   0  0  0  0  0  0  0  0  0  0  0  0
   -1.0441   21.1563   42.6453 H   0  0  0  0  0  0  0  0  0  0  0  0
    0.5945   21.3885   43.3520 H   0  0  0  0  0  0  0  0  0  0  0  0
   -2.1996   18.2202   45.8082 H   0  0  0  0  0  0  0  0  0  0  0  0
   -1.3076   17.3353   44.6444 H   0  0  0  0  0  0  0  0  0  0  0  0
    0.1442   18.6653   40.3662 H   0  0  0  0  0  0  0  0  0  0  0  0
    1.6693   18.6005   41.2871 H   0  0  0  0  0  0  0  0  0  0  0  0
    0.5008   19.4064   44.3826 H   0  0  0  0  0  0  0  0  0  0  0  0
   -1.0729   17.8540   42.2772 H   0  0  0  0  0  0  0  0  0  0  0  0
    2.8385   12.8554   40.9392 H   0  0  0  0  0  0  0  0  0  0  0  0
   -0.2810   13.1177   45.7640 H   0  0  0  0  0  0  0  0  0  0  0  0
   -1.1772   12.6001   44.2958 H   0  0  0  0  0  0  0  0  0  0  0  0
    0.6191   12.6070   44.2958 H   0  0  0  0  0  0  0  0  0  0  0  0
    1.1914   17.2183   43.5040 H   0  0  0  0  0  0  0  0  0  0  0  0
    2.2346   19.5615   39.9655 H   0  0  0  0  0  0  0  0  0  0  0  0
    1.8584   19.3015   37.7162 H   0  0  0  0  0  0  0  0  0  0  0  0
    1.5295   20.8099   41.5476 H   0  0  0  0  0  0  0  0  0  0  0  0
   -0.1326   20.8025   40.7958 H   0  0  0  0  0  0  0  0  0  0  0  0
    2.9399   18.1282   35.8589 H   0  0  0  0  0  0  0  0  0  0  0  0
    4.3242   17.0036   35.8194 H   0  0  0  0  0  0  0  0  0  0  0  0
  2 16  1  0
  2 26  2  0
  4  8  1  0
  6 20  2  0
  7 10  1  0
  8  5  1  0
  9 23  1  0
  9 12  1  0
 10  4  1  0
 11 15  1  0
 12 16  1  0
 12 10  1  0
 13 21  2  0
 14 13  1  0
 14  2  1  0
 17  1  1  0
 18  3  2  0
 19  3  1  0
 21 26  1  0
 22  3  1  0
 22  6  1  0
 22 17  1  0
 23  7  1  0
 24 27  2  0
 24  6  1  0
 25 24  1  0
 26 11  1  0
  5 28  1  0
  5 29  1  0
  5 30  1  0
  7 31  1  0
  7 32  1  0
  8 33  1  0
  8 34  1  0
  9 35  1  0
  9 36  1  0
 10 37  1  1
 12 38  1  6
 13 39  1  0
 15 40  1  0
 15 41  1  0
 15 42  1  0
 16 43  1  0
 17 44  1  0
 22 45  1  1
 23 46  1  0
 23 47  1  0
 25 48  1  0
 25 49  1  0
M  CHG  1  19  -1
M  END
>  <mol_id>  (16) 
2026-08-23-6tgu-s0-n100-prep-0016

>  <rmsd_to_ref>  (16) 


$$$$

     RDKit          3D

 64 67  0  0  0  0  0  0  0  0999 V2000
    4.7150   14.5490   35.8980 C   0  0  0  0  0  0  0  0  0  0  0  0
   -0.7900   16.1800   45.6980 O   0  0  0  0  0  0  0  0  0  0  0  0
    4.7240   11.0010   36.2630 O   0  0  0  0  0  0  0  0  0  0  0  0
    3.3640   16.9870   38.1660 C   0  0  0  0  0  0  0  0  0  0  0  0
    4.4990   12.1500   37.7570 O   0  0  0  0  0  0  0  0  0  0  0  0
   -1.7080   19.6450   45.8000 F   0  0  0  0  0  0  0  0  0  0  0  0
    3.2010   20.6540   40.5870 C   0  0  0  0  0  0  0  0  0  0  0  0
    2.2900   21.2020   36.9860 O   0  0  0  0  0  0  0  0  0  0  0  0
    4.9460   13.2680   35.6340 C   0  0  2  0  0  0  0  0  0  0  0  0
   -0.1950   19.2510   44.1090 C   0  0  0  0  0  0  0  0  0  0  0  0
    4.6300   12.3830   36.5630 C   0  0  1  0  0  0  0  0  0  0  0  0
    3.9580   13.0150   38.5890 C   0  0  0  0  0  0  0  0  0  0  0  0
    4.0690   16.3070   37.2240 N   0  0  0  0  0  0  0  0  0  0  0  0
    2.9840   16.4210   39.3410 N   0  0  0  0  0  0  0  0  0  0  0  0
    4.6370   10.6950   35.4870 O   0  0  0  0  0  0  0  0  0  0  0  0
    6.0640   12.9960   34.2150 S   0  0  0  0  0  0  0  0  0  0  0  0
    4.2970   14.9900   37.1280 C   0  0  0  0  0  0  0  0  0  0  0  0
   -0.7230   18.6130   45.3860 C   0  0  0  0  0  0  0  0  0  0  0  0
    1.0680   19.1470   41.0590 C   0  0  1  0  0  0  0  0  0  0  0  0
   -1.2110   20.0950   43.7650 C   0  0  0  0  0  0  0  0  0  0  0  0
    3.2140   20.4460   36.5700 C   0  0  0  0  0  0  0  0  0  0  0  0
   -1.2410   17.2270   44.9210 C   0  0  1  0  0  0  0  0  0  0  0  0
    2.2930   17.5170   40.0570 C   0  0  0  0  0  0  0  0  0  0  0  0
    4.0930   20.7920   35.8020 O   0  0  0  0  0  0  0  0  0  0  0  0
    1.9750   19.8660   40.1240 C   0  0  2  0  0  0  0  0  0  0  0  0
    1.4420   17.6160   41.2690 C   0  0  0  0  0  0  0  0  0  0  0  0
    3.0410   18.4670   38.1000 C   0  0  0  0  0  0  0  0  0  0  0  0
   -0.7690   17.0030   43.6100 O   0  0  0  0  0  0  0  0  0  0  0  0
    0.2350   18.5120   46.2460 F   0  0  0  0  0  0  0  0  0  0  0  0
    0.6240   20.1630   42.0350 C   0  0  1  0  0  0  0  0  0  0  0  0
    4.0960   14.2890   38.1510 C   0  0  0  0  0  0  0  0  0  0  0  0
    2.4790   18.6720   39.2830 C   0  0  0  0  0  0  0  0  0  0  0  0
    1.0420   21.0280   39.8800 O   0  0  0  0  0  0  0  0  0  0  0  0
   -0.3640   14.9850   45.1350 C   0  0  0  0  0  0  0  0  0  0  0  0
   -0.9420   21.4090   43.6440 O   0  0  0  0  0  0  0  0  0  0  0  0
   -2.1190   19.5980   43.0690 O   0  0  0  0  0  0  0  0  0  0  0  0
    0.7680   19.3920   43.1140 N   0  0  0  0  0  0  0  0  0  0  0  0
    0.8120   21.4860   41.2970 C   0  0  0  0  0  0  0  0  0  0  0  0
    3.4050   19.1850   36.8650 C   0  0  0  0  0  0  0  0  0  0  0  0
    3.9463   14.8735   35.1812 H   0  0  0  0  0  0  0  0  0  0  0  0
    5.7280   14.9740   35.8417 H   0  0  0  0  0  0  0  0  0  0  0  0
    3.2308   20.6732   41.6864 H   0  0  0  0  0  0  0  0  0  0  0  0
    4.1127   20.1723   40.2038 H   0  0  0  0  0  0  0  0  0  0  0  0
    3.1414   21.6834   40.2038 H   0  0  0  0  0  0  0  0  0  0  0  0
    4.1548   12.6878   35.1365 H   0  0  0  0  0  0  0  0  0  0  0  0
    4.2240   13.3976   36.4379 H   0  0  0  0  0  0  0  0  0  0  0  0
    2.8866   12.7880   38.6915 H   0  0  0  0  0  0  0  0  0  0  0  0
    4.4752   12.9283   39.5559 H   0  0  0  0  0  0  0  0  0  0  0  0
    4.4863   16.8844   36.4801 H   0  0  0  0  0  0  0  0  0  0  0  0
    4.3666    9.7439   35.5357 H   0  0  0  0  0  0  0  0  0  0  0  0
    7.3183   12.6908   34.6738 H   0  0  0  0  0  0  0  0  0  0  0  0
    0.0792   18.7689   40.7603 H   0  0  0  0  0  0  0  0  0  0  0  0
   -2.3383   17.2535   44.9937 H   0  0  0  0  0  0  0  0  0  0  0  0
    1.9998   17.4353   42.1997 H   0  0  0  0  0  0  0  0  0  0  0  0
    0.6139   16.8989   41.3695 H   0  0  0  0  0  0  0  0  0  0  0  0
    0.1247   16.5789   43.6490 H   0  0  0  0  0  0  0  0  0  0  0  0
   -0.1615   20.7526   42.5303 H   0  0  0  0  0  0  0  0  0  0  0  0
    3.9938   14.9625   39.0147 H   0  0  0  0  0  0  0  0  0  0  0  0
   -0.1102   14.2731   45.9342 H   0  0  0  0  0  0  0  0  0  0  0  0
   -1.1681   14.5658   44.5123 H   0  0  0  0  0  0  0  0  0  0  0  0
    0.5239   15.1690   44.5123 H   0  0  0  0  0  0  0  0  0  0  0  0
    1.6808   22.0389   41.6838 H   0  0  0  0  0  0  0  0  0  0  0  0
   -0.0363   22.1777   41.4061 H   0  0  0  0  0  0  0  0  0  0  0  0
    3.9019   18.5826   36.0903 H   0  0  0  0  0  0  0  0  0  0  0  0
  1 17  1  0
  4 14  2  0
  5 12  1  0
  9 16  1  0
  9  1  1  0
  9 11  1  0
 10 18  1  0
 11  3  1  0
 11  5  1  0
 13  4  1  0
 14 23  1  0
 15  3  1  0
 17 13  1  0
 17 31  2  0
 18  6  1  0
 18 29  1  0
 19 26  1  0
 19 30  1  0
 20 10  1  0
 21 39  1  0
 21  8  1  0
 22 28  1  0
 22 18  1  0
 22  2  1  0
 23 26  1  0
 24 21  2  0
 25  7  1  1
 25 19  1  0
 27  4  1  0
 27 32  1  0
 30 37  1  0
 31 12  1  0
 32 23  2  0
 32 25  1  0
 33 25  1  0
 33 38  1  0
 34  2  1  0
 35 20  1  0
 36 20  2  0
 37 10  2  3
 38 30  1  0
 39 27  2  3
  1 40  1  0
  1 41  1  0
  7 42  1  0
  7 43  1  0
  7 44  1  0
  9 45  1  6
 11 46  1  6
 12 47  1  0
 12 48  1  0
 13 49  1  0
 15 50  1  0
 16 51  1  0
 19 52  1  6
 22 53  1  6
 26 54  1  0
 26 55  1  0
 28 56  1  0
 30 57  1  6
 31 58  1  0
 34 59  1  0
 34 60  1  0
 34 61  1  0
 38 62  1  0
 38 63  1  0
 39 64  1  0
M  CHG  2   8  -1  35  -1
M  END
>  <mol_id>  (17) 
2026-08-23-6tgu-s0-n100-prep-0017

>  <rmsd_to_ref>  (17) 


$$$$

     RDKit          3D

 31 34  0  0  0  0  0  0  0  0999 V2000
   -0.7734   20.2033   43.8388 C   0  0  0  0  0  0  0  0  0  0  0  0
    1.1036   20.6452   40.9110 C   0  0  0  0  0  0  0  0  0  0  0  0
    3.1616   16.7971   37.4405 N   0  0  0  0  0  0  0  0  0  0  0  0
    0.5270   17.8236   43.0949 C   0  0  0  0  0  0  0  0  0  0  0  0
    0.3747   21.1729   41.8546 N   0  0  0  0  0  0  0  0  0  0  0  0
    2.6317   19.0558   36.8629 N   0  0  0  0  0  0  0  0  0  0  0  0
    0.7104   19.0037   42.3117 C   0  0  0  0  0  0  0  0  0  0  0  0
    1.3516   19.2972   41.0745 C   0  0  0  0  0  0  0  0  0  0  0  0
    1.9865   18.3360   40.2035 C   0  0  0  0  0  0  0  0  0  0  0  0
    1.8523   20.9029   37.7942 O   0  0  0  0  0  0  0  0  0  0  0  0
    2.5675   18.0378   37.6786 C   0  0  1  0  0  0  0  0  0  0  0  0
    2.1838   18.4505   38.8604 C   0  0  2  0  0  0  0  0  0  0  0  0
   -0.2274   17.8650   44.2397 C   0  0  0  0  0  0  0  0  0  0  0  0
    2.1807   19.6094   38.0301 C   0  0  2  0  0  0  0  0  0  0  0  0
    0.0373   20.1693   42.7089 C   0  0  0  0  0  0  0  0  0  0  0  0
   -0.9002   19.0541   44.5924 C   0  0  0  0  0  0  0  0  0  0  0  0
   -1.3014   21.1249   44.1251 H   0  0  0  0  0  0  0  0  0  0  0  0
    1.4878   21.2241   40.0582 H   0  0  0  0  0  0  0  0  0  0  0  0
    3.4809   16.3925   38.3322 H   0  0  0  0  0  0  0  0  0  0  0  0
    2.4750   16.1659   37.0034 H   0  0  0  0  0  0  0  0  0  0  0  0
    3.9672   16.9175   36.8101 H   0  0  0  0  0  0  0  0  0  0  0  0
    0.9923   16.8783   42.7790 H   0  0  0  0  0  0  0  0  0  0  0  0
    3.5687   19.3396   36.5428 H   0  0  0  0  0  0  0  0  0  0  0  0
    2.2064   19.1355   35.9282 H   0  0  0  0  0  0  0  0  0  0  0  0
    2.9917   18.1914   40.6261 H   0  0  0  0  0  0  0  0  0  0  0  0
    1.2081   17.5588   40.2016 H   0  0  0  0  0  0  0  0  0  0  0  0
    1.8352   21.4005   38.6499 H   0  0  0  0  0  0  0  0  0  0  0  0
    1.1799   18.0398   38.6779 H   0  0  0  0  0  0  0  0  0  0  0  0
   -0.3075   16.9745   44.8805 H   0  0  0  0  0  0  0  0  0  0  0  0
   -0.5660   19.3105   45.6086 H   0  0  0  0  0  0  0  0  0  0  0  0
   -1.9554   18.7844   44.4379 H   0  0  0  0  0  0  0  0  0  0  0  0
  1 16  1  0
  2  8  1  0
  2  5  2  0
  4 13  2  0
  5 15  1  0
  6 11  1  0
  6 14  1  0
  7 15  1  0
  7  4  1  0
  8  7  2  0
  9  8  1  0
 11  3  1  1
 11 14  1  0
 11 12  1  0
 12  9  1  0
 13 16  1  0
 14 10  1  6
 14 12  1  0
 15  1  2  0
  1 17  1  0
  2 18  1  0
  3 19  1  0
  3 20  1  0
  3 21  1  0
  4 22  1  0
  6 23  1  0
  6 24  1  0
  9 25  1  0
  9 26  1  0
 10 27  1  0
 12 28  1  6
 13 29  1  0
 16 30  1  0
 16 31  1  0
M  CHG  2   3   1   6   1
M  END
>  <mol_id>  (18) 
2026-08-23-6tgu-s0-n100-prep-0018

>  <rmsd_to_ref>  (18) 


$$$$

     RDKit          3D

 32 34  0  0  0  0  0  0  0  0999 V2000
    2.9842   19.7643   36.6550 C   0  0  0  0  0  0  0  0  0  0  0  0
    0.0448   13.6060   43.1681 C   0  0  0  0  0  0  0  0  0  0  0  0
    2.3648   20.2756   37.8698 C   0  0  1  0  0  0  0  0  0  0  0  0
    1.0579   19.0261   41.4367 C   0  0  0  0  0  0  0  0  0  0  0  0
    0.0555   16.1697   43.6037 O   0  0  0  0  0  0  0  0  0  0  0  0
    0.2233   14.9363   42.9355 C   0  0  0  0  0  0  0  0  0  0  0  0
    0.3363   17.4963   42.9365 C   0  0  0  0  0  0  0  0  0  0  0  0
    1.2839   21.1367   40.5504 C   0  0  0  0  0  0  0  0  0  0  0  0
    0.6208   19.9579   42.2455 N   0  0  0  0  0  0  0  0  0  0  0  0
    2.3659   17.9566   38.6370 C   0  0  0  0  0  0  0  0  0  0  0  0
    0.9083   17.6799   41.7744 N   0  0  0  0  0  0  0  0  0  0  0  0
    2.9285   17.5254   37.4653 C   0  0  0  0  0  0  0  0  0  0  0  0
    3.2024   18.4041   36.4817 N   0  0  0  0  0  0  0  0  0  0  0  0
    2.0257   21.6134   37.8811 Cl  0  0  0  0  0  0  0  0  0  0  0  0
   -0.7298   18.1892   45.1695 C   0  0  0  0  0  0  0  0  0  0  0  0
   -0.2701   20.6795   44.1930 O   0  0  0  0  0  0  0  0  0  0  0  0
    1.4874   19.7996   40.2046 C   0  0  0  0  0  0  0  0  0  0  0  0
    2.0990   19.3198   38.9053 C   0  0  0  0  0  0  0  0  0  0  0  0
    3.2440   20.5742   35.7626 O   0  0  0  0  0  0  0  0  0  0  0  0
    0.7751   21.2528   41.7758 N   0  0  0  0  0  0  0  0  0  0  0  0
    0.0261   19.7566   43.4810 C   0  0  0  0  0  0  0  0  0  0  0  0
   -0.1111   18.4961   43.8398 N   0  0  0  0  0  0  0  0  0  0  0  0
    0.2899   12.8731   42.3853 H   0  0  0  0  0  0  0  0  0  0  0  0
   -0.3445   13.2648   44.1387 H   0  0  0  0  0  0  0  0  0  0  0  0
    3.3582   20.5240   38.2718 H   0  0  0  0  0  0  0  0  0  0  0  0
    0.6169   15.0994   41.9213 H   0  0  0  0  0  0  0  0  0  0  0  0
    1.5150   21.9879   39.8930 H   0  0  0  0  0  0  0  0  0  0  0  0
    2.1102   17.2100   39.4034 H   0  0  0  0  0  0  0  0  0  0  0  0
    3.1575   16.4584   37.3269 H   0  0  0  0  0  0  0  0  0  0  0  0
   -0.0108   18.4177   45.9700 H   0  0  0  0  0  0  0  0  0  0  0  0
   -1.6341   18.8012   45.3031 H   0  0  0  0  0  0  0  0  0  0  0  0
   -0.9989   17.1234   45.2115 H   0  0  0  0  0  0  0  0  0  0  0  0
  1  3  1  0
  3 14  1  0
  3 18  1  0
  4 11  1  0
  4  9  1  0
  6  2  2  3
  6  5  1  0
  7  5  1  0
  7 22  1  0
  8 20  2  0
  9 21  1  0
 10 18  2  0
 11  7  2  0
 12 10  1  0
 13  1  1  0
 13 12  2  0
 17  8  1  0
 17  4  2  0
 18 17  1  0
 19  1  2  0
 20  9  1  0
 21 22  1  0
 21 16  2  0
 22 15  1  0
  2 23  1  0
  2 24  1  0
  3 25  1  1
  6 26  1  0
  8 27  1  0
 10 28  1  0
 12 29  1  0
 15 30  1  0
 15 31  1  0
 15 32  1  0
M  END
>  <mol_id>  (19) 
2026-08-23-6tgu-s0-n100-prep-0019

>  <rmsd_to_ref>  (19) 


$$$$

     RDKit          3D

 38 41  0  0  0  0  0  0  0  0999 V2000
    2.0472   16.2267   41.0967 C   0  0  2  0  0  0  0  0  0  0  0  0
    0.1446   20.9288   42.7395 C   0  0  0  0  0  0  0  0  0  0  0  0
   -0.8869   20.6993   44.5359 N   0  0  0  0  0  0  0  0  0  0  0  0
    0.1191   19.6015   42.9840 C   0  0  0  0  0  0  0  0  0  0  0  0
    1.8478   19.7313   39.8065 C   0  0  0  0  0  0  0  0  0  0  0  0
    1.3258   16.3162   42.4902 C   0  0  0  0  0  0  0  0  0  0  0  0
    2.5081   14.9868   40.7702 N   0  0  0  0  0  0  0  0  0  0  0  0
    3.0812   18.2430   38.4004 C   0  0  0  0  0  0  0  0  0  0  0  0
    2.9466   20.5809   37.8593 C   0  0  0  0  0  0  0  0  0  0  0  0
    3.3818   19.3294   37.5732 C   0  0  0  0  0  0  0  0  0  0  0  0
    0.8164   21.2111   41.5180 C   0  0  0  0  0  0  0  0  0  0  0  0
   -0.7456   18.1755   44.9936 C   0  0  0  0  0  0  0  0  0  0  0  0
    2.1805   20.7695   38.9233 C   0  0  0  0  0  0  0  0  0  0  0  0
    0.8351   18.8608   41.9930 C   0  0  0  0  0  0  0  0  0  0  0  0
    0.7878   17.5823   42.3997 N   0  0  0  0  0  0  0  0  0  0  0  0
    2.1977   17.2941   40.4019 N   0  0  0  0  0  0  0  0  0  0  0  0
   -0.5490   19.4472   44.2092 C   0  0  0  0  0  0  0  0  0  0  0  0
    2.3410   18.4291   39.5858 C   0  0  0  0  0  0  0  0  0  0  0  0
    3.2861   21.5934   37.1079 O   0  0  0  0  0  0  0  0  0  0  0  0
    1.1851   19.9514   41.0817 C   0  0  0  0  0  0  0  0  0  0  0  0
   -0.5416   21.6080   43.6932 N   0  0  0  0  0  0  0  0  0  0  0  0
    1.0860   15.9966   40.6139 H   0  0  0  0  0  0  0  0  0  0  0  0
    0.5460   15.5477   42.5964 H   0  0  0  0  0  0  0  0  0  0  0  0
    1.9773   16.1505   43.3610 H   0  0  0  0  0  0  0  0  0  0  0  0
    2.6865   14.4494   41.6305 H   0  0  0  0  0  0  0  0  0  0  0  0
    1.8035   14.4979   40.1998 H   0  0  0  0  0  0  0  0  0  0  0  0
    3.3826   15.0760   40.2334 H   0  0  0  0  0  0  0  0  0  0  0  0
    3.4247   17.2352   38.1240 H   0  0  0  0  0  0  0  0  0  0  0  0
    3.9859   19.1647   36.6688 H   0  0  0  0  0  0  0  0  0  0  0  0
    0.9971   22.1855   41.0408 H   0  0  0  0  0  0  0  0  0  0  0  0
   -0.7283   18.4022   46.0699 H   0  0  0  0  0  0  0  0  0  0  0  0
   -1.7146   17.7274   44.7287 H   0  0  0  0  0  0  0  0  0  0  0  0
    0.0628   17.4687   44.7548 H   0  0  0  0  0  0  0  0  0  0  0  0
    1.7902   21.7786   39.1221 H   0  0  0  0  0  0  0  0  0  0  0  0
    0.6528   17.7550   43.4061 H   0  0  0  0  0  0  0  0  0  0  0  0
    0.4186   17.3294   41.4720 H   0  0  0  0  0  0  0  0  0  0  0  0
    2.5224   17.8163   41.2282 H   0  0  0  0  0  0  0  0  0  0  0  0
    3.8588   21.4500   36.3131 H   0  0  0  0  0  0  0  0  0  0  0  0
  1  7  1  0
  1  6  1  0
  2  4  1  0
  2 21  1  0
  4 17  2  0
  5 20  1  0
  8 18  1  0
  9 13  2  0
 10  9  1  0
 10  8  2  0
 11  2  2  0
 13  5  1  0
 14 15  1  0
 14  4  1  0
 15  6  1  0
 16  1  1  0
 17  3  1  0
 17 12  1  0
 18  5  2  0
 18 16  1  0
 19  9  1  0
 20 11  1  0
 20 14  2  0
 21  3  2  0
  1 22  1  6
  6 23  1  0
  6 24  1  0
  7 25  1  0
  7 26  1  0
  7 27  1  0
  8 28  1  0
 10 29  1  0
 11 30  1  0
 12 31  1  0
 12 32  1  0
 12 33  1  0
 13 34  1  0
 15 35  1  0
 15 36  1  0
 16 37  1  0
 19 38  1  0
M  CHG  2   7   1  15   1
M  END
>  <mol_id>  (20) 
2026-08-23-6tgu-s0-n100-prep-0020

>  <rmsd_to_ref>  (20) 


$$$$

     RDKit          3D

 40 44  0  0  0  0  0  0  0  0999 V2000
    2.4210   15.5520   40.7220 C   0  0  0  0  0  0  0  0  0  0  0  0
    2.2420   19.1490   39.2410 C   0  0  0  0  0  0  0  0  0  0  0  0
   -0.5440   16.8240   44.7240 C   0  0  0  0  0  0  0  0  0  0  0  0
    1.5140   18.8770   40.4450 C   0  0  0  0  0  0  0  0  0  0  0  0
   -1.3160   20.4070   43.9790 N   0  0  0  0  0  0  0  0  0  0  0  0
    1.6760   13.3820   42.3060 C   0  0  0  0  0  0  0  0  0  0  0  0
   -1.1450   19.1830   44.5630 N   0  0  0  0  0  0  0  0  0  0  0  0
    3.8660   20.5970   35.7100 O   0  0  0  0  0  0  0  0  0  0  0  0
    1.2040   21.1150   40.0750 C   0  0  0  0  0  0  0  0  0  0  0  0
    0.9350   17.2900   41.9840 C   0  0  0  0  0  0  0  0  0  0  0  0
    3.2600   20.1610   36.8370 C   0  0  0  0  0  0  0  0  0  0  0  0
    0.1850   18.3380   42.7360 C   0  0  0  0  0  0  0  0  0  0  0  0
   -0.4830   18.1610   44.0030 C   0  0  0  0  0  0  0  0  0  0  0  0
    2.6030   13.2410   41.2460 C   0  0  0  0  0  0  0  0  0  0  0  0
    1.1320   14.6240   42.6080 C   0  0  0  0  0  0  0  0  0  0  0  0
    2.0410   20.5020   38.9270 C   0  0  0  0  0  0  0  0  0  0  0  0
    0.9660   19.9110   40.9440 C   0  0  0  0  0  0  0  0  0  0  0  0
    2.9190   14.2830   40.4360 C   0  0  0  0  0  0  0  0  0  0  0  0
    2.5640   20.9660   37.6730 C   0  0  0  0  0  0  0  0  0  0  0  0
    0.1580   19.6380   42.0930 C   0  0  0  0  0  0  0  0  0  0  0  0
    3.1110   18.3840   38.3890 C   0  0  0  0  0  0  0  0  0  0  0  0
   -0.6310   20.6550   42.8480 C   0  0  0  0  0  0  0  0  0  0  0  0
    1.4360   17.8060   40.8050 N   0  0  0  0  0  0  0  0  0  0  0  0
    1.4930   15.8150   41.7980 C   0  0  0  0  0  0  0  0  0  0  0  0
    3.5530   18.7790   37.2220 C   0  0  0  0  0  0  0  0  0  0  0  0
    2.7505   16.3957   40.0979 H   0  0  0  0  0  0  0  0  0  0  0  0
   -0.5363   16.9929   45.8109 H   0  0  0  0  0  0  0  0  0  0  0  0
   -1.4671   16.2968   44.4414 H   0  0  0  0  0  0  0  0  0  0  0  0
    0.3273   16.2149   44.4414 H   0  0  0  0  0  0  0  0  0  0  0  0
    1.3838   12.5006   42.8958 H   0  0  0  0  0  0  0  0  0  0  0  0
    3.7124   21.5216   35.3914 H   0  0  0  0  0  0  0  0  0  0  0  0
    0.8718   22.1539   40.2174 H   0  0  0  0  0  0  0  0  0  0  0  0
    3.0785   12.2640   41.0746 H   0  0  0  0  0  0  0  0  0  0  0  0
    0.4315   14.7255   43.4500 H   0  0  0  0  0  0  0  0  0  0  0  0
    3.5644   14.1264   39.5591 H   0  0  0  0  0  0  0  0  0  0  0  0
    2.3929   22.0128   37.3815 H   0  0  0  0  0  0  0  0  0  0  0  0
    3.4283   17.3925   38.7443 H   0  0  0  0  0  0  0  0  0  0  0  0
   -0.6542   21.6808   42.4514 H   0  0  0  0  0  0  0  0  0  0  0  0
    1.7976   17.1022   40.1457 H   0  0  0  0  0  0  0  0  0  0  0  0
    4.1179   18.1046   36.5617 H   0  0  0  0  0  0  0  0  0  0  0  0
  1 24  1  0
  2  4  2  0
  4 23  1  0
  4 17  1  0
  5  7  1  0
  6 15  1  0
  8 11  1  0
  9 17  1  0
 10 12  2  0
 11 25  1  0
 11 19  2  0
 12 13  1  0
 13  7  2  0
 13  3  1  0
 14  6  2  0
 16  2  1  0
 16  9  2  0
 17 20  2  0
 18  1  2  0
 18 14  1  0
 19 16  1  0
 20 12  1  0
 20 22  1  0
 21  2  1  0
 22  5  2  0
 23 10  1  0
 24 10  1  0
 24 15  2  0
 25 21  2  0
  1 26  1  0
  3 27  1  0
  3 28  1  0
  3 29  1  0
  6 30  1  0
  8 31  1  0
  9 32  1  0
 14 33  1  0
 15 34  1  0
 18 35  1  0
 19 36  1  0
 21 37  1  0
 22 38  1  0
 23 39  1  0
 25 40  1  0
M  END
>  <mol_id>  (21) 
2026-08-23-6tgu-s0-n100-prep-0021

>  <rmsd_to_ref>  (21) 


$$$$

     RDKit          3D

 57 58  0  0  0  0  0  0  0  0999 V2000
    3.1247   18.3411   38.1809 C   0  0  0  0  0  0  0  0  0  0  0  0
   -1.4827   16.6815   46.3884 C   0  0  2  0  0  0  0  0  0  0  0  0
    1.2600   19.2168   41.2795 C   0  0  0  0  0  0  0  0  0  0  0  0
   -1.0321   14.2117   46.5444 C   0  0  0  0  0  0  0  0  0  0  0  0
    3.7603   17.5297   37.3253 C   0  0  0  0  0  0  0  0  0  0  0  0
    2.9085   19.7781   37.6069 C   0  0  0  0  0  0  0  0  0  0  0  0
   -0.4771   20.6298   42.1693 C   0  0  0  0  0  0  0  0  0  0  0  0
    3.4354   21.1581   35.8300 C   0  0  0  0  0  0  0  0  0  0  0  0
    2.6721   18.0966   39.4191 C   0  0  0  0  0  0  0  0  0  0  0  0
    3.5601   13.5963   40.0448 C   0  0  0  0  0  0  0  0  0  0  0  0
    2.6960   16.6464   39.7236 C   0  0  0  0  0  0  0  0  0  0  0  0
    3.0580   12.4010   40.0197 O   0  0  0  0  0  0  0  0  0  0  0  0
   -0.6731   19.7009   43.2348 C   0  0  0  0  0  0  0  0  0  0  0  0
    4.2927   21.2230   34.9320 O   0  0  0  0  0  0  0  0  0  0  0  0
    2.2641   16.2559   40.7628 O   0  0  0  0  0  0  0  0  0  0  0  0
    3.7298   16.1580   37.6213 C   0  0  0  0  0  0  0  0  0  0  0  0
    2.9844   12.4267   37.4651 O   0  0  0  0  0  0  0  0  0  0  0  0
    0.5171   20.4496   41.2027 C   0  0  0  0  0  0  0  0  0  0  0  0
   -0.7657   15.4807   45.8195 C   0  0  0  0  0  0  0  0  0  0  0  0
    3.7353   13.5540   37.5581 C   0  0  0  0  0  0  0  0  0  0  0  0
    1.0963   18.2684   42.3365 C   0  0  0  0  0  0  0  0  0  0  0  0
    3.1541   15.6760   38.7716 N   0  0  0  0  0  0  0  0  0  0  0  0
    2.1172   20.6833   38.0172 O   0  0  0  0  0  0  0  0  0  0  0  0
    2.3627   21.7063   35.9326 O   0  0  0  0  0  0  0  0  0  0  0  0
    3.1146   14.2184   38.7650 C   0  0  0  0  0  0  0  0  0  0  0  0
   -1.4028   17.6228   45.3298 N   0  0  0  0  0  0  0  0  0  0  0  0
   -1.5484   14.5638   47.7655 O   0  0  0  0  0  0  0  0  0  0  0  0
    3.7055   20.1505   36.7217 O   0  0  0  0  0  0  0  0  0  0  0  0
    0.0825   18.4476   43.2942 C   0  0  0  0  0  0  0  0  0  0  0  0
    2.2503   19.1183   40.2655 N   0  0  0  0  0  0  0  0  0  0  0  0
   -0.6553   18.1261   46.5651 C   0  0  0  0  0  0  0  0  0  0  0  0
   -1.5612   19.9276   44.0608 O   0  0  0  0  0  0  0  0  0  0  0  0
   -2.1795   16.1847   47.0797 H   0  0  0  0  0  0  0  0  0  0  0  0
    0.5624   18.6402   40.6541 H   0  0  0  0  0  0  0  0  0  0  0  0
   -0.0982   13.6452   46.6753 H   0  0  0  0  0  0  0  0  0  0  0  0
   -1.7313   13.5724   45.9853 H   0  0  0  0  0  0  0  0  0  0  0  0
    4.2794   17.9183   36.4367 H   0  0  0  0  0  0  0  0  0  0  0  0
   -1.1279   21.5144   42.1064 H   0  0  0  0  0  0  0  0  0  0  0  0
    3.1746   14.1614   40.9061 H   0  0  0  0  0  0  0  0  0  0  0  0
    4.6555   13.5865   40.1447 H   0  0  0  0  0  0  0  0  0  0  0  0
    2.8883   12.0948   40.9457 H   0  0  0  0  0  0  0  0  0  0  0  0
    4.1800   15.4483   36.9115 H   0  0  0  0  0  0  0  0  0  0  0  0
    2.7376   12.1188   38.3731 H   0  0  0  0  0  0  0  0  0  0  0  0
    0.7204   21.2046   40.4289 H   0  0  0  0  0  0  0  0  0  0  0  0
   -1.0823   15.3535   44.7737 H   0  0  0  0  0  0  0  0  0  0  0  0
    0.3116   15.6803   45.9176 H   0  0  0  0  0  0  0  0  0  0  0  0
    4.7965   13.3191   37.7280 H   0  0  0  0  0  0  0  0  0  0  0  0
    3.7346   14.1743   36.6498 H   0  0  0  0  0  0  0  0  0  0  0  0
    1.7646   17.3970   42.4006 H   0  0  0  0  0  0  0  0  0  0  0  0
    2.0386   14.0101   38.6715 H   0  0  0  0  0  0  0  0  0  0  0  0
   -0.8553   17.3742   44.4935 H   0  0  0  0  0  0  0  0  0  0  0  0
   -2.1406   18.0635   44.7620 H   0  0  0  0  0  0  0  0  0  0  0  0
   -1.0151   14.1400   48.4839 H   0  0  0  0  0  0  0  0  0  0  0  0
   -0.1332   17.6814   44.0535 H   0  0  0  0  0  0  0  0  0  0  0  0
    2.7707   19.9961   40.1258 H   0  0  0  0  0  0  0  0  0  0  0  0
   -1.0589   18.9423   47.1823 H   0  0  0  0  0  0  0  0  0  0  0  0
    0.3576   18.4637   46.8296 H   0  0  0  0  0  0  0  0  0  0  0  0
  1  9  2  0
  2 19  1  0
  2 31  1  0
  3 30  1  0
  3 21  1  0
  4 27  1  0
  5 16  2  0
  5  1  1  0
  6 23  2  0
  6  1  1  0
  7 13  1  0
  8 24  1  0
  8 28  1  0
  9 11  1  0
  9 30  1  0
 11 15  2  0
 12 10  1  0
 13 29  1  0
 13 32  2  0
 14  8  2  0
 16 22  1  0
 17 20  1  0
 18  3  1  0
 18  7  2  0
 19  4  1  0
 20 25  1  0
 21 29  2  0
 22 11  1  0
 25 22  1  0
 25 10  1  0
 26  2  1  0
 26 31  1  0
 28  6  1  0
  2 33  1  1
  3 34  1  0
  4 35  1  0
  4 36  1  0
  5 37  1  0
  7 38  1  0
 10 39  1  0
 10 40  1  0
 12 41  1  0
 16 42  1  0
 17 43  1  0
 18 44  1  0
 19 45  1  0
 19 46  1  0
 20 47  1  0
 20 48  1  0
 21 49  1  0
 25 50  1  0
 26 51  1  0
 26 52  1  0
 27 53  1  0
 29 54  1  0
 30 55  1  0
 31 56  1  0
 31 57  1  0
M  CHG  2  24  -1  26   1
M  END
>  <mol_id>  (22) 
2026-08-23-6tgu-s0-n100-prep-0022

>  <rmsd_to_ref>  (22) 


$$$$

     RDKit          3D

 26 26  0  0  0  0  0  0  0  0999 V2000
    3.8696   19.9019   38.9147 C   0  0  0  0  0  0  0  0  0  0  0  0
    3.5002   19.1824   36.7615 O   0  0  0  0  0  0  0  0  0  0  0  0
    0.0158   19.1883   43.2056 C   0  0  0  0  0  0  0  0  0  0  0  0
    2.1038   18.7872   40.1336 C   0  0  0  0  0  0  0  0  0  0  0  0
    1.4908   20.8770   41.7142 C   0  0  0  0  0  0  0  0  0  0  0  0
    0.9202   18.7370   41.0022 C   0  0  0  0  0  0  0  0  0  0  0  0
    2.7349   19.9042   39.9128 C   0  0  0  0  0  0  0  0  0  0  0  0
    0.8625   19.6645   41.9890 C   0  0  0  0  0  0  0  0  0  0  0  0
    3.1480   21.2267   37.1536 O   0  0  0  0  0  0  0  0  0  0  0  0
   -1.1646   20.0985   43.5630 C   0  0  0  0  0  0  0  0  0  0  0  0
    2.3681   20.9829   40.6619 C   0  0  0  0  0  0  0  0  0  0  0  0
    3.4591   20.1253   37.5410 C   0  0  0  0  0  0  0  0  0  0  0  0
   -1.7744   19.7293   44.8172 N   0  0  0  0  0  0  0  0  0  0  0  0
    4.5770   20.6958   39.1960 H   0  0  0  0  0  0  0  0  0  0  0  0
    4.3167   18.8975   38.9497 H   0  0  0  0  0  0  0  0  0  0  0  0
    0.6788   19.1279   44.0813 H   0  0  0  0  0  0  0  0  0  0  0  0
   -0.4167   18.2177   42.9208 H   0  0  0  0  0  0  0  0  0  0  0  0
    2.4642   17.8620   39.6601 H   0  0  0  0  0  0  0  0  0  0  0  0
    1.2834   21.7552   42.3434 H   0  0  0  0  0  0  0  0  0  0  0  0
    0.1259   17.9894   40.8600 H   0  0  0  0  0  0  0  0  0  0  0  0
   -0.8038   21.1351   43.6357 H   0  0  0  0  0  0  0  0  0  0  0  0
   -1.9237   19.9944   42.7738 H   0  0  0  0  0  0  0  0  0  0  0  0
    2.7880   21.9694   40.4160 H   0  0  0  0  0  0  0  0  0  0  0  0
   -1.1070   19.8922   45.5845 H   0  0  0  0  0  0  0  0  0  0  0  0
   -2.6185   20.2995   44.9696 H   0  0  0  0  0  0  0  0  0  0  0  0
   -2.0331   18.7326   44.7929 H   0  0  0  0  0  0  0  0  0  0  0  0
  1  7  1  0
  2 12  2  0
  3 10  1  0
  4  6  2  0
  5  8  2  0
  6  8  1  0
  7  4  1  0
  7 11  2  0
  8  3  1  0
  9 12  1  0
 10 13  1  0
 11  5  1  0
 12  1  1  0
  1 14  1  0
  1 15  1  0
  3 16  1  0
  3 17  1  0
  4 18  1  0
  5 19  1  0
  6 20  1  0
 10 21  1  0
 10 22  1  0
 11 23  1  0
 13 24  1  0
 13 25  1  0
 13 26  1  0
M  CHG  2   9  -1  13   1
M  END
>  <mol_id>  (23) 
2026-08-23-6tgu-s0-n100-prep-0023

>  <rmsd_to_ref>  (23) 


$$$$

     RDKit          3D

 38 40  0  0  0  0  0  0  0  0999 V2000
    4.7680   16.5110   36.3190 C   0  0  0  0  0  0  0  0  0  0  0  0
    3.5790   17.1440   38.1980 O   0  0  0  0  0  0  0  0  0  0  0  0
    0.3530   18.5560   42.4870 C   0  0  1  0  0  0  0  0  0  0  0  0
    3.4720   20.6430   36.5460 O   0  0  0  0  0  0  0  0  0  0  0  0
   -0.1650   16.9300   43.8440 C   0  0  0  0  0  0  0  0  0  0  0  0
    0.6340   20.7930   41.6140 C   0  0  0  0  0  0  0  0  0  0  0  0
    2.7440   20.5030   37.5000 C   0  0  0  0  0  0  0  0  0  0  0  0
    1.6650   18.9320   40.4880 C   0  0  0  0  0  0  0  0  0  0  0  0
    0.9110   19.4550   41.4940 C   0  0  0  0  0  0  0  0  0  0  0  0
    0.4730   17.2230   42.6350 N   0  0  0  0  0  0  0  0  0  0  0  0
   -1.4540   18.1740   45.5970 N   0  0  0  0  0  0  0  0  0  0  0  0
   -0.7410   18.1030   44.3890 C   0  0  0  0  0  0  0  0  0  0  0  0
    1.8280   21.6870   37.7240 C   0  0  0  0  0  0  0  0  0  0  0  0
    4.0940   17.3820   37.0590 C   0  0  0  0  0  0  0  0  0  0  0  0
   -0.3810   19.1820   43.5590 C   0  0  0  0  0  0  0  0  0  0  0  0
    4.1470   18.4090   36.4160 N   0  0  0  0  0  0  0  0  0  0  0  0
   -0.1710   21.2340   42.6830 C   0  0  0  0  0  0  0  0  0  0  0  0
    2.0350   19.6150   39.4810 N   0  0  0  0  0  0  0  0  0  0  0  0
    2.1380   17.6640   40.1460 C   0  0  0  0  0  0  0  0  0  0  0  0
    2.8550   17.9560   38.9530 C   0  0  0  0  0  0  0  0  0  0  0  0
   -0.6220   20.4390   43.6380 N   0  0  0  0  0  0  0  0  0  0  0  0
    2.6410   19.3480   38.5450 C   0  0  0  0  0  0  0  0  0  0  0  0
    5.3082   15.8129   36.9753 H   0  0  0  0  0  0  0  0  0  0  0  0
    4.0670   15.9494   35.6841 H   0  0  0  0  0  0  0  0  0  0  0  0
    5.4876   17.0487   35.6841 H   0  0  0  0  0  0  0  0  0  0  0  0
   -0.5333   18.4058   41.8530 H   0  0  0  0  0  0  0  0  0  0  0  0
   -0.2126   15.9325   44.3051 H   0  0  0  0  0  0  0  0  0  0  0  0
    1.0352   21.5125   40.8850 H   0  0  0  0  0  0  0  0  0  0  0  0
   -0.7972   18.1086   46.3877 H   0  0  0  0  0  0  0  0  0  0  0  0
   -1.9605   19.0696   45.6446 H   0  0  0  0  0  0  0  0  0  0  0  0
   -2.1272   17.3959   45.6446 H   0  0  0  0  0  0  0  0  0  0  0  0
    1.7000   21.8524   38.8039 H   0  0  0  0  0  0  0  0  0  0  0  0
    2.2695   22.5841   37.2654 H   0  0  0  0  0  0  0  0  0  0  0  0
    0.8488   21.4849   37.2654 H   0  0  0  0  0  0  0  0  0  0  0  0
    3.6934   19.2629   36.7710 H   0  0  0  0  0  0  0  0  0  0  0  0
   -0.4393   22.2999   42.7253 H   0  0  0  0  0  0  0  0  0  0  0  0
    2.7986   17.2554   40.9249 H   0  0  0  0  0  0  0  0  0  0  0  0
    1.3526   16.9028   40.0289 H   0  0  0  0  0  0  0  0  0  0  0  0
  1 14  1  0
  2 20  1  0
  3  9  1  0
  3 10  1  0
  3 15  1  0
  4  7  2  0
  5 12  1  0
  6 17  1  0
  7 13  1  0
  7 22  1  0
  8  9  1  0
  9  6  2  0
 10  5  2  0
 12 11  1  0
 14  2  1  0
 15 21  1  0
 15 12  2  0
 16 14  2  3
 17 21  2  0
 18  8  2  0
 19  8  1  0
 20 19  1  0
 22 20  2  0
 22 18  1  0
  1 23  1  0
  1 24  1  0
  1 25  1  0
  3 26  1  6
  5 27  1  0
  6 28  1  0
 11 29  1  0
 11 30  1  0
 11 31  1  0
 13 32  1  0
 13 33  1  0
 13 34  1  0
 16 35  1  0
 17 36  1  0
 19 37  1  0
 19 38  1  0
M  CHG  1  11   1
M  END
>  <mol_id>  (24) 
2026-08-23-6tgu-s0-n100-prep-0024

>  <rmsd_to_ref>  (24) 


$$$$

     RDKit          3D

 25 27  0  0  0  0  0  0  0  0999 V2000
    1.3746   16.8034   41.0750 F   0  0  0  0  0  0  0  0  0  0  0  0
   -1.1457   18.4804   43.5791 C   0  0  0  0  0  0  0  0  0  0  0  0
    1.7726   17.7652   40.2909 C   0  0  0  0  0  0  0  0  0  0  0  0
    3.0680   20.5822   37.4508 N   0  0  0  0  0  0  0  0  0  0  0  0
    1.3442   19.0697   40.6077 C   0  0  0  0  0  0  0  0  0  0  0  0
    2.5676   19.8410   38.4843 C   0  0  0  0  0  0  0  0  0  0  0  0
   -0.1789   20.5075   41.9337 C   0  0  0  0  0  0  0  0  0  0  0  0
    1.8386   20.1515   39.6759 C   0  0  0  0  0  0  0  0  0  0  0  0
    0.3103   19.2239   41.7538 C   0  0  0  0  0  0  0  0  0  0  0  0
    2.9289   18.5133   38.2767 C   0  0  0  0  0  0  0  0  0  0  0  0
    3.6335   18.4089   37.0705 O   0  0  0  0  0  0  0  0  0  0  0  0
   -1.6380   19.7055   43.7421 N   0  0  0  0  0  0  0  0  0  0  0  0
    3.7122   19.7716   36.5950 N   0  0  0  0  0  0  0  0  0  0  0  0
    2.5496   17.4894   39.1255 C   0  0  0  0  0  0  0  0  0  0  0  0
   -1.0996   20.6487   42.9525 C   0  0  0  0  0  0  0  0  0  0  0  0
    1.5789   21.5969   39.8595 C   0  0  0  0  0  0  0  0  0  0  0  0
   -0.2101   18.1615   42.5722 C   0  0  0  0  0  0  0  0  0  0  0  0
   -1.4821   17.6826   44.2577 H   0  0  0  0  0  0  0  0  0  0  0  0
    0.1433   21.3537   41.3093 H   0  0  0  0  0  0  0  0  0  0  0  0
    2.8488   16.4550   38.9009 H   0  0  0  0  0  0  0  0  0  0  0  0
   -1.4395   21.6771   43.1442 H   0  0  0  0  0  0  0  0  0  0  0  0
    1.4663   21.8159   40.9315 H   0  0  0  0  0  0  0  0  0  0  0  0
    2.4220   22.1753   39.4537 H   0  0  0  0  0  0  0  0  0  0  0  0
    0.6556   21.8737   39.3297 H   0  0  0  0  0  0  0  0  0  0  0  0
    0.1145   17.1222   42.4162 H   0  0  0  0  0  0  0  0  0  0  0  0
  2 12  2  0
  3  5  2  0
  3  1  1  0
  4  6  1  0
  5  9  1  0
  6  8  2  0
  7 15  2  0
  8 16  1  0
  8  5  1  0
  9  7  1  0
  9 17  2  0
 10  6  1  0
 10 14  2  0
 11 10  1  0
 13 11  1  0
 13  4  2  0
 14  3  1  0
 15 12  1  0
 17  2  1  0
  2 18  1  0
  7 19  1  0
 14 20  1  0
 15 21  1  0
 16 22  1  0
 16 23  1  0
 16 24  1  0
 17 25  1  0
M  END
>  <mol_id>  (25) 
2026-08-23-6tgu-s0-n100-prep-0026

>  <rmsd_to_ref>  (25) 


$$$$

     RDKit          3D

 29 30  0  0  0  0  0  0  0  0999 V2000
    2.3120   19.9410   38.9080 C   0  0  0  0  0  0  0  0  0  0  0  0
    3.1690   21.4710   35.7010 O   0  0  0  0  0  0  0  0  0  0  0  0
    1.1640   16.6190   41.6040 C   0  0  0  0  0  0  0  0  0  0  0  0
    0.5440   15.4560   43.3170 C   0  0  0  0  0  0  0  0  0  0  0  0
    0.5040   17.5810   42.7200 C   0  0  0  0  0  0  0  0  0  0  0  0
    3.7410   19.4190   36.6820 C   0  0  0  0  0  0  0  0  0  0  0  0
    0.7060   18.9910   42.3970 C   0  0  0  0  0  0  0  0  0  0  0  0
    1.3970   18.8840   41.0900 C   0  0  0  0  0  0  0  0  0  0  0  0
    1.5420   17.5870   40.8060 C   0  0  0  0  0  0  0  0  0  0  0  0
    2.4060   20.9150   37.9540 C   0  0  0  0  0  0  0  0  0  0  0  0
    1.3000   15.5850   42.3450 C   0  0  0  0  0  0  0  0  0  0  0  0
    1.2390   20.4480   40.3900 S   0  0  0  0  0  0  0  0  0  0  0  0
    2.9000   18.6960   38.7860 C   0  0  0  0  0  0  0  0  0  0  0  0
    3.0970   20.7200   36.7490 C   0  0  0  0  0  0  0  0  0  0  0  0
   -0.0870   14.7810   44.0860 N   0  0  0  0  0  0  0  0  0  0  0  0
    3.6670   18.4620   37.6280 C   0  0  0  0  0  0  0  0  0  0  0  0
    2.7444   22.3653   35.7028 H   0  0  0  0  0  0  0  0  0  0  0  0
    0.3506   16.4880   43.6450 H   0  0  0  0  0  0  0  0  0  0  0  0
   -0.5757   17.3776   42.7741 H   0  0  0  0  0  0  0  0  0  0  0  0
    0.9897   17.3746   43.6851 H   0  0  0  0  0  0  0  0  0  0  0  0
    4.3381   19.1970   35.7852 H   0  0  0  0  0  0  0  0  0  0  0  0
    0.4227   19.8876   42.9678 H   0  0  0  0  0  0  0  0  0  0  0  0
    2.0058   17.3157   39.8462 H   0  0  0  0  0  0  0  0  0  0  0  0
    1.9228   21.8860   38.1375 H   0  0  0  0  0  0  0  0  0  0  0  0
    1.1583   14.7032   41.7029 H   0  0  0  0  0  0  0  0  0  0  0  0
    2.2988   15.7003   42.7913 H   0  0  0  0  0  0  0  0  0  0  0  0
    2.7746   17.9229   39.5584 H   0  0  0  0  0  0  0  0  0  0  0  0
   -0.6367   15.2288   44.8331 H   0  0  0  0  0  0  0  0  0  0  0  0
    4.1998   17.5086   37.4972 H   0  0  0  0  0  0  0  0  0  0  0  0
  1 12  1  0
  2 14  1  0
  3 11  1  0
  3  5  1  0
  4 15  2  3
  6 14  1  0
  6 16  2  0
  7  5  1  0
  8  7  2  0
  9  8  1  0
  9  3  2  0
 10  1  1  0
 11  4  1  0
 12  8  1  0
 13  1  2  0
 14 10  2  0
 16 13  1  0
  2 17  1  0
  4 18  1  0
  5 19  1  0
  5 20  1  0
  6 21  1  0
  7 22  1  0
  9 23  1  0
 10 24  1  0
 11 25  1  0
 11 26  1  0
 13 27  1  0
 15 28  1  0
 16 29  1  0
M  END
>  <mol_id>  (26) 
2026-08-23-6tgu-s0-n100-prep-0027

>  <rmsd_to_ref>  (26) 


$$$$

     RDKit          3D

 59 63  0  0  0  0  0  0  0  0999 V2000
    0.1517   17.1211   44.2002 C   0  0  0  0  0  0  0  0  0  0  0  0
    3.0171   23.3438   34.1563 O   0  0  0  0  0  0  0  0  0  0  0  0
   -0.2442   18.0291   45.2351 C   0  0  0  0  0  0  0  0  0  0  0  0
    1.9365   20.3569   39.4023 C   0  0  0  0  0  0  0  0  0  0  0  0
    2.9326   18.2591   38.6031 C   0  0  0  0  0  0  0  0  0  0  0  0
    3.7112   22.6101   34.8043 C   0  0  0  0  0  0  0  0  0  0  0  0
    1.7846   18.2429   40.9783 C   0  0  0  0  0  0  0  0  0  0  0  0
   -0.4188   17.5098   46.5426 C   0  0  0  0  0  0  0  0  0  0  0  0
    0.6403   17.7563   42.9695 C   0  0  0  0  0  0  0  0  0  0  0  0
   -1.2469   14.9853   50.2045 C   0  0  0  0  0  0  0  0  0  0  0  0
   -0.4541   16.0908   46.7060 C   0  0  0  0  0  0  0  0  0  0  0  0
   -0.0415   15.6942   44.3106 C   0  0  0  0  0  0  0  0  0  0  0  0
    1.3797   19.8106   40.6105 C   0  0  0  0  0  0  0  0  0  0  0  0
   -0.2870   15.2109   45.6223 C   0  0  0  0  0  0  0  0  0  0  0  0
    3.4233   17.9107   37.3640 C   0  0  0  0  0  0  0  0  0  0  0  0
    1.8822   22.1444   37.7889 C   0  0  0  0  0  0  0  0  0  0  0  0
    2.5357   17.7017   39.9382 C   0  0  0  0  0  0  0  0  0  0  0  0
    2.6412   19.6250   38.4426 C   0  0  1  0  0  0  0  0  0  0  0  0
    1.7970   15.7170   41.6050 C   0  0  0  0  0  0  0  0  0  0  0  0
    3.5530   18.9759   36.4661 O   0  0  0  0  0  0  0  0  0  0  0  0
   -0.8506   16.0286   49.2160 C   0  0  0  0  0  0  0  0  0  0  0  0
    2.6975   21.3943   36.7817 C   0  0  0  0  0  0  0  0  0  0  0  0
    3.2805   21.5310   35.4181 N   0  0  0  0  0  0  0  0  0  0  0  0
    2.9868   20.0773   37.1397 C   0  0  0  0  0  0  0  0  0  0  0  0
   -0.3754   19.4678   45.0725 N   0  0  0  0  0  0  0  0  0  0  0  0
    5.2959   22.6409   34.8099 C   0  0  0  0  0  0  0  0  0  0  0  0
    0.4081   19.2309   42.7994 C   0  0  0  0  0  0  0  0  0  0  0  0
   -0.5456   21.3462   43.6638 O   0  0  0  0  0  0  0  0  0  0  0  0
   -0.6137   19.8978   43.6096 C   0  0  2  0  0  0  0  0  0  0  0  0
    1.6468   21.7812   39.0294 C   0  0  0  0  0  0  0  0  0  0  0  0
   -0.7101   15.5147   47.9239 N   0  0  0  0  0  0  0  0  0  0  0  0
    1.3058   17.0904   41.9109 C   0  0  0  0  0  0  0  0  0  0  0  0
   -0.5241   18.1809   47.4078 H   0  0  0  0  0  0  0  0  0  0  0  0
   -0.9698   15.3152   51.2166 H   0  0  0  0  0  0  0  0  0  0  0  0
   -2.3344   14.8276   50.1551 H   0  0  0  0  0  0  0  0  0  0  0  0
   -0.7287   14.0435   49.9712 H   0  0  0  0  0  0  0  0  0  0  0  0
   -0.0011   15.0268   43.4370 H   0  0  0  0  0  0  0  0  0  0  0  0
    0.7176   20.4026   41.2594 H   0  0  0  0  0  0  0  0  0  0  0  0
   -0.3477   14.1261   45.7945 H   0  0  0  0  0  0  0  0  0  0  0  0
    3.6919   16.8769   37.1013 H   0  0  0  0  0  0  0  0  0  0  0  0
    1.4362   23.0937   37.4574 H   0  0  0  0  0  0  0  0  0  0  0  0
    2.9039   16.6830   40.1298 H   0  0  0  0  0  0  0  0  0  0  0  0
    2.9670   20.4100   39.1411 H   0  0  0  0  0  0  0  0  0  0  0  0
    2.0422   15.1980   42.5433 H   0  0  0  0  0  0  0  0  0  0  0  0
    1.0146   15.1583   41.0705 H   0  0  0  0  0  0  0  0  0  0  0  0
    2.6967   15.7811   40.9755 H   0  0  0  0  0  0  0  0  0  0  0  0
   -1.6220   16.8127   49.2019 H   0  0  0  0  0  0  0  0  0  0  0  0
    0.1264   16.4285   49.5251 H   0  0  0  0  0  0  0  0  0  0  0  0
    3.3570   20.6560   34.8801 H   0  0  0  0  0  0  0  0  0  0  0  0
   -0.3153   20.1339   45.8559 H   0  0  0  0  0  0  0  0  0  0  0  0
    5.6602   22.5764   35.8457 H   0  0  0  0  0  0  0  0  0  0  0  0
    5.6812   21.7881   34.2319 H   0  0  0  0  0  0  0  0  0  0  0  0
    5.6459   23.5797   34.3558 H   0  0  0  0  0  0  0  0  0  0  0  0
    1.3637   19.7322   43.0134 H   0  0  0  0  0  0  0  0  0  0  0  0
    0.0202   19.3150   41.7736 H   0  0  0  0  0  0  0  0  0  0  0  0
   -0.4533   21.6373   44.6055 H   0  0  0  0  0  0  0  0  0  0  0  0
   -1.5720   19.6162   43.1491 H   0  0  0  0  0  0  0  0  0  0  0  0
    1.2518   22.4949   39.7675 H   0  0  0  0  0  0  0  0  0  0  0  0
   -0.8219   14.4918   47.8765 H   0  0  0  0  0  0  0  0  0  0  0  0
  1 12  1  0
  1  3  2  0
  2  6  2  0
  3  8  1  0
  4 13  2  0
  5 17  1  0
  6 26  1  0
  6 23  1  0
  7 32  1  0
  8 11  2  0
  9  1  1  0
 11 31  1  0
 12 14  2  0
 13  7  1  0
 14 11  1  0
 15  5  2  0
 16 30  2  0
 17  7  2  0
 18 24  1  0
 18  5  1  0
 18  4  1  0
 19 32  1  0
 20 24  1  0
 20 15  1  0
 21 10  1  0
 22 24  2  0
 22 16  1  0
 23 22  1  0
 25  3  1  0
 27  9  1  0
 27 29  1  0
 29 28  1  0
 29 25  1  0
 30  4  1  0
 31 21  1  0
 32  9  2  3
  8 33  1  0
 10 34  1  0
 10 35  1  0
 10 36  1  0
 12 37  1  0
 13 38  1  0
 14 39  1  0
 15 40  1  0
 16 41  1  0
 17 42  1  0
 18 43  1  1
 19 44  1  0
 19 45  1  0
 19 46  1  0
 21 47  1  0
 21 48  1  0
 23 49  1  0
 25 50  1  0
 26 51  1  0
 26 52  1  0
 26 53  1  0
 27 54  1  0
 27 55  1  0
 28 56  1  0
 29 57  1  6
 30 58  1  0
 31 59  1  0
M  END
>  <mol_id>  (27) 
2026-08-23-6tgu-s0-n100-prep-0028

>  <rmsd_to_ref>  (27) 


$$$$

     RDKit          3D

 51 54  0  0  0  0  0  0  0  0999 V2000
    1.8360   12.5330   41.8900 C   0  0  0  0  0  0  0  0  0  0  0  0
    4.0900   16.2210   37.5770 O   0  0  0  0  0  0  0  0  0  0  0  0
    0.7180   18.0060   42.6100 C   0  0  0  0  0  0  0  0  0  0  0  0
    0.6600   14.7630   43.1120 C   0  0  0  0  0  0  0  0  0  0  0  0
    1.9160   18.1500   40.3420 C   0  0  0  0  0  0  0  0  0  0  0  0
    5.3950   19.9380   35.3410 O   0  0  0  0  0  0  0  0  0  0  0  0
   -0.6320   21.3020   43.3930 O   0  0  0  0  0  0  0  0  0  0  0  0
    4.8580   17.8060   36.2320 N   0  0  0  0  0  0  0  0  0  0  0  0
    2.0340   16.1370   41.5820 C   0  0  0  0  0  0  0  0  0  0  0  0
    1.5330   17.4170   41.5780 C   0  0  0  0  0  0  0  0  0  0  0  0
    2.2120   20.5340   38.2650 O   0  0  0  0  0  0  0  0  0  0  0  0
    0.4040   19.4450   42.4140 C   0  0  0  0  0  0  0  0  0  0  0  0
    1.6550   14.9110   42.0980 C   0  0  0  0  0  0  0  0  0  0  0  0
    3.2400   18.3260   38.0650 C   0  0  0  0  0  0  0  0  0  0  0  0
    0.0990   15.9100   43.8770 C   0  0  0  0  0  0  0  0  0  0  0  0
    3.9710   21.4540   34.7130 C   0  0  0  0  0  0  0  0  0  0  0  0
    0.1350   17.3100   43.6970 C   0  0  0  0  0  0  0  0  0  0  0  0
    3.5850   20.2990   36.5670 C   0  0  0  0  0  0  0  0  0  0  0  0
    4.0540   17.4630   37.2790 C   0  0  0  0  0  0  0  0  0  0  0  0
    0.7010   12.3740   42.6760 C   0  0  0  0  0  0  0  0  0  0  0  0
    4.3380   20.5460   35.4920 C   0  0  0  0  0  0  0  0  0  0  0  0
   -0.7760   19.4290   44.5100 N   0  0  0  0  0  0  0  0  0  0  0  0
    0.1500   13.4730   43.2640 C   0  0  0  0  0  0  0  0  0  0  0  0
    3.0080   19.7140   37.6180 C   0  0  0  0  0  0  0  0  0  0  0  0
   -0.6330   18.0980   44.6220 C   0  0  0  0  0  0  0  0  0  0  0  0
    0.9810   21.5960   41.0820 C   0  0  0  0  0  0  0  0  0  0  0  0
   -1.3810   17.3900   45.5250 N   0  0  0  0  0  0  0  0  0  0  0  0
    1.4650   19.3720   40.2670 O   0  0  0  0  0  0  0  0  0  0  0  0
    2.6890   17.6430   39.2550 C   0  0  0  0  0  0  0  0  0  0  0  0
    0.9540   20.1050   41.2870 C   0  0  0  0  0  0  0  0  0  0  0  0
    2.3940   13.8160   41.6400 C   0  0  0  0  0  0  0  0  0  0  0  0
   -0.3250   20.1150   43.4680 C   0  0  0  0  0  0  0  0  0  0  0  0
    2.3138   11.6448   41.4509 H   0  0  0  0  0  0  0  0  0  0  0  0
    5.6516   19.2254   35.9785 H   0  0  0  0  0  0  0  0  0  0  0  0
    4.8999   18.7848   35.9139 H   0  0  0  0  0  0  0  0  0  0  0  0
    5.4233   17.0863   35.7594 H   0  0  0  0  0  0  0  0  0  0  0  0
    2.9839   16.0704   41.0313 H   0  0  0  0  0  0  0  0  0  0  0  0
    1.7229   20.2197   39.0663 H   0  0  0  0  0  0  0  0  0  0  0  0
   -0.4622   15.6019   44.7715 H   0  0  0  0  0  0  0  0  0  0  0  0
    3.6215   22.3186   35.2964 H   0  0  0  0  0  0  0  0  0  0  0  0
    4.8171   21.7573   34.0789 H   0  0  0  0  0  0  0  0  0  0  0  0
    3.1517   21.0842   34.0789 H   0  0  0  0  0  0  0  0  0  0  0  0
    0.2553   11.3788   42.8209 H   0  0  0  0  0  0  0  0  0  0  0  0
   -0.7433   13.3361   43.8911 H   0  0  0  0  0  0  0  0  0  0  0  0
    0.9901   22.1004   42.0595 H   0  0  0  0  0  0  0  0  0  0  0  0
    1.8843   21.8723   40.5183 H   0  0  0  0  0  0  0  0  0  0  0  0
    0.0883   21.9048   40.5183 H   0  0  0  0  0  0  0  0  0  0  0  0
   -1.9571   17.8874   46.2190 H   0  0  0  0  0  0  0  0  0  0  0  0
   -1.3674   16.3602   45.5100 H   0  0  0  0  0  0  0  0  0  0  0  0
    2.9115   16.5672   39.3117 H   0  0  0  0  0  0  0  0  0  0  0  0
    3.3530   13.9405   41.1158 H   0  0  0  0  0  0  0  0  0  0  0  0
  1 20  1  0
  3 17  2  0
  4 23  1  0
  4 15  2  0
  5 10  2  0
  6 21  1  0
  7 32  2  0
  8 19  1  0
  9 13  2  0
 10  9  1  0
 10  3  1  0
 12  3  1  0
 12 32  1  0
 13  4  1  0
 14 29  2  3
 16 21  1  0
 17 15  1  0
 17 25  1  0
 18 24  2  0
 19  2  2  0
 19 14  1  0
 20 23  2  0
 21 18  2  0
 22 25  2  0
 24 14  1  0
 24 11  1  0
 25 27  1  0
 26 30  1  0
 28  5  1  0
 28 30  1  0
 29  5  1  0
 30 12  2  0
 31  1  2  0
 31 13  1  0
 32 22  1  0
  1 33  1  0
  6 34  1  0
  8 35  1  0
  8 36  1  0
  9 37  1  0
 11 38  1  0
 15 39  1  0
 16 40  1  0
 16 41  1  0
 16 42  1  0
 20 43  1  0
 23 44  1  0
 26 45  1  0
 26 46  1  0
 26 47  1  0
 27 48  1  0
 27 49  1  0
 29 50  1  0
 31 51  1  0
M  END
>  <mol_id>  (28) 
2026-08-23-6tgu-s0-n100-prep-0029

>  <rmsd_to_ref>  (28) 


$$$$

     RDKit          3D

 60 65  0  0  0  0  0  0  0  0999 V2000
    2.8099   20.9169   36.7884 C   0  0  1  0  0  0  0  0  0  0  0  0
    4.0043   20.0276   34.6393 O   0  0  0  0  0  0  0  0  0  0  0  0
    3.1267   15.5762   39.3864 C   0  0  0  0  0  0  0  0  0  0  0  0
    3.7507   14.3021   39.3771 C   0  0  0  0  0  0  0  0  0  0  0  0
    5.0262   14.9732   37.4998 C   0  0  0  0  0  0  0  0  0  0  0  0
    3.2303   20.8528   39.2049 C   0  0  0  0  0  0  0  0  0  0  0  0
    2.8693   18.8686   37.5938 C   0  0  1  0  0  0  0  0  0  0  0  0
   -0.4043   17.1598   45.5482 C   0  0  0  0  0  0  0  0  0  0  0  0
    0.1550   17.1081   44.2650 C   0  0  0  0  0  0  0  0  0  0  0  0
    4.6704   14.0118   38.4077 C   0  0  0  0  0  0  0  0  0  0  0  0
    2.6298   17.8831   38.4628 C   0  0  2  0  0  0  0  0  0  0  0  0
    0.1498   20.7101   42.0338 C   0  0  0  0  0  0  0  0  0  0  0  0
    1.2550   19.4910   40.0023 C   0  0  1  0  0  0  0  0  0  0  0  0
    0.9241   21.5563   39.3823 C   0  0  0  0  0  0  0  0  0  0  0  0
    3.4253   22.3297   36.8770 C   0  0  0  0  0  0  0  0  0  0  0  0
   -0.6893   15.7228   48.4815 C   0  0  0  0  0  0  0  0  0  0  0  0
    0.3594   18.4005   43.5283 C   0  0  0  0  0  0  0  0  0  0  0  0
    1.9501   20.6266   39.1368 C   0  0  1  0  0  0  0  0  0  0  0  0
   -0.3210   20.6855   43.3901 C   0  0  0  0  0  0  0  0  0  0  0  0
   -0.5955   18.3029   46.1864 C   0  0  0  0  0  0  0  0  0  0  0  0
    3.3280   18.6754   36.2707 O   0  0  0  0  0  0  0  0  0  0  0  0
    2.1179   18.2302   39.8154 C   0  0  0  0  0  0  0  0  0  0  0  0
    3.1898   19.9789   35.7176 C   0  0  0  0  0  0  0  0  0  0  0  0
   -0.1865   19.5490   44.1465 C   0  0  0  0  0  0  0  0  0  0  0  0
    0.0132   15.3478   49.4048 O   0  0  0  0  0  0  0  0  0  0  0  0
    4.5171   16.2688   37.5547 C   0  0  0  0  0  0  0  0  0  0  0  0
   -0.5949   19.5382   45.5242 N   0  0  0  0  0  0  0  0  0  0  0  0
   -1.6385   16.5154   48.4810 O   0  0  0  0  0  0  0  0  0  0  0  0
    0.8792   18.4401   42.3147 C   0  0  0  0  0  0  0  0  0  0  0  0
   -0.8329   15.9489   46.0209 O   0  0  0  0  0  0  0  0  0  0  0  0
    0.8094   19.6240   41.4176 C   0  0  0  0  0  0  0  0  0  0  0  0
   -0.2028   15.2652   47.1895 C   0  0  0  0  0  0  0  0  0  0  0  0
    2.6429   20.2288   38.0187 C   0  0  2  0  0  0  0  0  0  0  0  0
    3.5510   16.5772   38.4589 C   0  0  0  0  0  0  0  0  0  0  0  0
    1.8378   21.2888   36.4324 H   0  0  0  0  0  0  0  0  0  0  0  0
    2.3209   15.7924   40.1033 H   0  0  0  0  0  0  0  0  0  0  0  0
    3.4968   13.5544   40.1430 H   0  0  0  0  0  0  0  0  0  0  0  0
    5.7371   14.7140   36.7012 H   0  0  0  0  0  0  0  0  0  0  0  0
    3.6124   21.8832   39.1547 H   0  0  0  0  0  0  0  0  0  0  0  0
    4.0343   20.5921   39.9088 H   0  0  0  0  0  0  0  0  0  0  0  0
    3.9098   18.9321   37.9453 H   0  0  0  0  0  0  0  0  0  0  0  0
    0.4368   16.1473   43.8095 H   0  0  0  0  0  0  0  0  0  0  0  0
    5.1224   13.0102   38.3575 H   0  0  0  0  0  0  0  0  0  0  0  0
    1.7399   17.5499   37.9085 H   0  0  0  0  0  0  0  0  0  0  0  0
   -0.0119   21.6239   41.4432 H   0  0  0  0  0  0  0  0  0  0  0  0
    0.2358   19.5126   39.5889 H   0  0  0  0  0  0  0  0  0  0  0  0
    0.8318   21.7229   40.4657 H   0  0  0  0  0  0  0  0  0  0  0  0
    1.1642   22.5073   38.8843 H   0  0  0  0  0  0  0  0  0  0  0  0
   -0.0262   21.1661   38.9890 H   0  0  0  0  0  0  0  0  0  0  0  0
    3.6041   22.5862   37.9315 H   0  0  0  0  0  0  0  0  0  0  0  0
    4.3783   22.3496   36.3281 H   0  0  0  0  0  0  0  0  0  0  0  0
    2.7319   23.0600   36.4344 H   0  0  0  0  0  0  0  0  0  0  0  0
   -0.7910   21.5804   43.8238 H   0  0  0  0  0  0  0  0  0  0  0  0
   -0.7606   18.2830   47.2738 H   0  0  0  0  0  0  0  0  0  0  0  0
    1.5142   17.3766   40.1570 H   0  0  0  0  0  0  0  0  0  0  0  0
    3.0311   18.4572   40.3851 H   0  0  0  0  0  0  0  0  0  0  0  0
    4.8961   17.0400   36.8679 H   0  0  0  0  0  0  0  0  0  0  0  0
    1.3955   17.5420   41.9448 H   0  0  0  0  0  0  0  0  0  0  0  0
   -0.4036   14.1868   47.1076 H   0  0  0  0  0  0  0  0  0  0  0  0
    0.8706   15.5028   47.1537 H   0  0  0  0  0  0  0  0  0  0  0  0
  1 15  1  0
  1 33  1  0
  2 23  2  0
  3  4  1  0
  5 26  2  0
  5 10  1  0
  7 21  1  0
  7 33  1  0
  7 11  1  0
  8 30  1  0
  8 20  1  0
  9  8  2  0
 10  4  2  0
 11 34  1  0
 11 22  1  0
 12 19  1  0
 13 31  1  0
 16 25  1  0
 17 24  1  0
 17  9  1  0
 18  6  1  0
 18 14  1  6
 18 13  1  0
 19 24  2  0
 22 13  1  0
 23 21  1  0
 23  1  1  0
 24 27  1  0
 26 34  1  0
 27 20  2  0
 28 16  2  0
 29 17  2  0
 30 32  1  0
 31 12  2  0
 31 29  1  0
 32 16  1  0
 33 18  1  0
 33  6  1  1
 34  3  2  0
  1 35  1  6
  3 36  1  0
  4 37  1  0
  5 38  1  0
  6 39  1  0
  6 40  1  0
  7 41  1  1
  9 42  1  0
 10 43  1  0
 11 44  1  6
 12 45  1  0
 13 46  1  6
 14 47  1  0
 14 48  1  0
 14 49  1  0
 15 50  1  0
 15 51  1  0
 15 52  1  0
 19 53  1  0
 20 54  1  0
 22 55  1  0
 22 56  1  0
 26 57  1  0
 29 58  1  0
 32 59  1  0
 32 60  1  0
M  CHG  1  25  -1
M  END
>  <mol_id>  (29) 
2026-08-23-6tgu-s0-n100-prep-0030

>  <rmsd_to_ref>  (29) 


$$$$

     RDKit          3D

 22 23  0  0  0  0  0  0  0  0999 V2000
    0.4570   19.2660   42.0850 N   0  0  0  0  0  0  0  0  0  0  0  0
    2.7330   20.2790   37.7480 C   0  0  0  0  0  0  0  0  0  0  0  0
    0.0500   17.3830   43.5200 C   0  0  0  0  0  0  0  0  0  0  0  0
    1.5480   20.4310   39.9670 C   0  0  0  0  0  0  0  0  0  0  0  0
    1.2830   18.4480   41.3100 C   0  0  0  0  0  0  0  0  0  0  0  0
    2.0000   21.0370   38.7480 C   0  0  0  0  0  0  0  0  0  0  0  0
    1.8120   19.1150   40.1220 C   0  0  0  0  0  0  0  0  0  0  0  0
    2.9950   18.8890   38.0120 C   0  0  0  0  0  0  0  0  0  0  0  0
   -0.1120   18.7740   43.1270 C   0  0  0  0  0  0  0  0  0  0  0  0
    1.5190   17.1530   41.6710 C   0  0  0  0  0  0  0  0  0  0  0  0
   -0.8720   19.4940   44.0610 N   0  0  0  0  0  0  0  0  0  0  0  0
    0.9040   16.5590   42.7670 N   0  0  0  0  0  0  0  0  0  0  0  0
    2.6270   18.3660   39.1750 C   0  0  0  0  0  0  0  0  0  0  0  0
    3.0772   20.7536   36.8172 H   0  0  0  0  0  0  0  0  0  0  0  0
   -0.4871   16.9825   44.3924 H   0  0  0  0  0  0  0  0  0  0  0  0
    1.0138   21.0081   40.7362 H   0  0  0  0  0  0  0  0  0  0  0  0
    1.7867   22.1006   38.5658 H   0  0  0  0  0  0  0  0  0  0  0  0
    3.4958   18.2655   37.2567 H   0  0  0  0  0  0  0  0  0  0  0  0
    2.2227   16.5566   41.0717 H   0  0  0  0  0  0  0  0  0  0  0  0
   -1.2903   19.0093   44.8679 H   0  0  0  0  0  0  0  0  0  0  0  0
   -1.0117   20.5073   43.9398 H   0  0  0  0  0  0  0  0  0  0  0  0
    2.9445   17.3440   39.4295 H   0  0  0  0  0  0  0  0  0  0  0  0
  1  9  1  0
  2  8  1  0
  2  6  2  0
  4  7  2  0
  5 10  1  0
  5  1  2  0
  6  4  1  0
  7  5  1  0
  8 13  2  0
  9  3  2  0
  9 11  1  0
 10 12  2  0
 12  3  1  0
 13  7  1  0
  2 14  1  0
  3 15  1  0
  4 16  1  0
  6 17  1  0
  8 18  1  0
 10 19  1  0
 11 20  1  0
 11 21  1  0
 13 22  1  0
M  END
>  <mol_id>  (30) 
2026-08-23-6tgu-s0-n100-prep-0031

>  <rmsd_to_ref>  (30) 


$$$$

     RDKit          3D

 29 29  0  0  0  0  0  0  0  0999 V2000
    3.2543   17.7784   37.2252 O   0  0  0  0  0  0  0  0  0  0  0  0
    0.3557   19.3819   43.0150 C   0  0  1  0  0  0  0  0  0  0  0  0
   -0.5312   18.8927   44.1493 C   0  0  0  0  0  0  0  0  0  0  0  0
    0.7043   16.5807   43.4898 C   0  0  0  0  0  0  0  0  0  0  0  0
    1.1066   20.0698   40.2692 N   0  0  0  0  0  0  0  0  0  0  0  0
    1.6345   20.1879   39.0848 C   0  0  0  0  0  0  0  0  0  0  0  0
    2.5146   19.2059   38.7194 C   0  0  2  0  0  0  0  0  0  0  0  0
    2.9511   19.9402   36.7352 O   0  0  0  0  0  0  0  0  0  0  0  0
    2.9447   18.8808   37.4881 C   0  0  0  0  0  0  0  0  0  0  0  0
    2.8208   18.3189   40.2686 S   0  0  0  0  0  0  0  0  0  0  0  0
    0.3931   20.8307   42.8044 C   0  0  0  0  0  0  0  0  0  0  0  0
    1.5324   19.0809   41.0253 C   0  0  1  0  0  0  0  0  0  0  0  0
    0.9901   18.6196   42.2099 C   0  0  1  0  0  0  0  0  0  0  0  0
    1.2224   17.1047   42.4790 C   0  0  0  0  0  0  0  0  0  0  0  0
   -0.6618   21.4418   43.5675 O   0  0  0  0  0  0  0  0  0  0  0  0
   -0.4917   19.3025   42.3181 H   0  0  0  0  0  0  0  0  0  0  0  0
   -0.0517   19.1187   45.1132 H   0  0  0  0  0  0  0  0  0  0  0  0
   -1.5062   19.3992   44.0970 H   0  0  0  0  0  0  0  0  0  0  0  0
   -0.6771   17.8062   44.0582 H   0  0  0  0  0  0  0  0  0  0  0  0
    0.8584   15.5110   43.6950 H   0  0  0  0  0  0  0  0  0  0  0  0
    0.0945   17.1895   44.1735 H   0  0  0  0  0  0  0  0  0  0  0  0
    1.3877   21.0269   38.4177 H   0  0  0  0  0  0  0  0  0  0  0  0
    3.3490   19.9151   38.8236 H   0  0  0  0  0  0  0  0  0  0  0  0
    1.3646   21.2266   43.1352 H   0  0  0  0  0  0  0  0  0  0  0  0
    0.2571   21.0548   41.7361 H   0  0  0  0  0  0  0  0  0  0  0  0
    0.8328   18.3961   40.5237 H   0  0  0  0  0  0  0  0  0  0  0  0
    0.0512   18.3829   41.6879 H   0  0  0  0  0  0  0  0  0  0  0  0
    1.8336   16.5031   41.7901 H   0  0  0  0  0  0  0  0  0  0  0  0
   -0.4304   21.4165   44.5297 H   0  0  0  0  0  0  0  0  0  0  0  0
  1  9  1  0
  2  3  1  0
  5 12  1  0
  6  5  2  0
  7  9  1  0
  7  6  1  0
  7 10  1  0
  8  9  2  0
 10 12  1  0
 11  2  1  0
 11 15  1  0
 12 13  1  0
 13 14  1  0
 13  2  1  0
 14  4  2  3
  2 16  1  1
  3 17  1  0
  3 18  1  0
  3 19  1  0
  4 20  1  0
  4 21  1  0
  6 22  1  0
  7 23  1  1
 11 24  1  0
 11 25  1  0
 12 26  1  1
 13 27  1  6
 14 28  1  0
 15 29  1  0
M  CHG  1   1  -1
M  END
>  <mol_id>  (31) 
2026-08-23-6tgu-s0-n100-prep-0032

>  <rmsd_to_ref>  (31) 


$$$$

     RDKit          3D

 23 24  0  0  0  0  0  0  0  0999 V2000
   -0.1120   18.1260   43.3170 C   0  0  0  0  0  0  0  0  0  0  0  0
    1.4350   20.6130   40.9340 C   0  0  0  0  0  0  0  0  0  0  0  0
    3.3120   20.2150   39.1820 C   0  0  0  0  0  0  0  0  0  0  0  0
    0.9140   15.9740   42.8060 C   0  0  0  0  0  0  0  0  0  0  0  0
    1.6530   16.4460   41.7800 C   0  0  0  0  0  0  0  0  0  0  0  0
    1.6740   21.3470   37.9800 O   0  0  0  0  0  0  0  0  0  0  0  0
    2.3210   19.6930   40.2010 C   0  0  0  0  0  0  0  0  0  0  0  0
    1.5230   17.8300   41.4930 C   0  0  0  0  0  0  0  0  0  0  0  0
   -0.5120   15.2330   44.2810 Cl  0  0  0  0  0  0  0  0  0  0  0  0
    0.6540   20.1180   41.9350 C   0  0  0  0  0  0  0  0  0  0  0  0
    2.7000   20.5800   37.8740 C   0  0  0  0  0  0  0  0  0  0  0  0
    3.1790   20.3810   36.7620 O   0  0  0  0  0  0  0  0  0  0  0  0
   -0.1720   16.6620   43.4850 C   0  0  0  0  0  0  0  0  0  0  0  0
    0.7120   18.6890   42.3180 C   0  0  0  0  0  0  0  0  0  0  0  0
    2.3090   18.3570   40.4540 C   0  0  0  0  0  0  0  0  0  0  0  0
   -0.7092   18.7794   43.9700 H   0  0  0  0  0  0  0  0  0  0  0  0
    1.4041   21.6823   40.6777 H   0  0  0  0  0  0  0  0  0  0  0  0
    3.7975   21.1099   39.5985 H   0  0  0  0  0  0  0  0  0  0  0  0
    4.0241   19.4003   38.9841 H   0  0  0  0  0  0  0  0  0  0  0  0
    1.1588   14.9638   43.1659 H   0  0  0  0  0  0  0  0  0  0  0  0
    2.3200   15.7934   41.1976 H   0  0  0  0  0  0  0  0  0  0  0  0
   -0.0321   20.7925   42.4682 H   0  0  0  0  0  0  0  0  0  0  0  0
    2.9212   17.6813   39.8387 H   0  0  0  0  0  0  0  0  0  0  0  0
  1 13  2  0
  2 10  1  0
  3  7  1  0
  4 13  1  0
  5  4  2  0
  7 15  1  0
  7  2  2  0
  8  5  1  0
  8 14  1  0
 10 14  2  0
 11  6  1  0
 11  3  1  0
 12 11  2  0
 13  9  1  0
 14  1  1  0
 15  8  2  0
  1 16  1  0
  2 17  1  0
  3 18  1  0
  3 19  1  0
  4 20  1  0
  5 21  1  0
 10 22  1  0
 15 23  1  0
M  CHG  1   6  -1
M  END
>  <mol_id>  (32) 
2026-08-23-6tgu-s0-n100-prep-0033

>  <rmsd_to_ref>  (32) 


$$$$

     RDKit          3D

 25 27  0  0  0  0  0  0  0  0999 V2000
    2.7916   19.2782   36.6973 O   0  0  0  0  0  0  0  0  0  0  0  0
    1.5585   20.9299   39.6366 C   0  0  0  0  0  0  0  0  0  0  0  0
    1.2691   17.7813   41.9578 C   0  0  0  0  0  0  0  0  0  0  0  0
   -0.5423   17.3862   44.9293 O   0  0  0  0  0  0  0  0  0  0  0  0
    2.5483   19.2679   38.0504 C   0  0  0  0  0  0  0  0  0  0  0  0
    2.2443   17.7680   39.8700 C   0  0  0  0  0  0  0  0  0  0  0  0
    0.5215   18.3106   42.8863 C   0  0  0  0  0  0  0  0  0  0  0  0
    0.8583   20.6765   41.8387 C   0  0  0  0  0  0  0  0  0  0  0  0
   -0.2132   18.3722   44.2357 C   0  0  0  0  0  0  0  0  0  0  0  0
    2.1821   20.4669   38.5437 C   0  0  0  0  0  0  0  0  0  0  0  0
    1.7488   18.6068   40.7336 C   0  0  0  0  0  0  0  0  0  0  0  0
   -0.1108   19.5866   44.3185 C   0  0  0  0  0  0  0  0  0  0  0  0
    2.6305   18.0332   38.6398 C   0  0  0  0  0  0  0  0  0  0  0  0
    1.3778   19.9912   40.6672 C   0  0  1  0  0  0  0  0  0  0  0  0
    0.4121   20.0832   43.0102 C   0  0  0  0  0  0  0  0  0  0  0  0
    2.7524   20.1297   36.1939 H   0  0  0  0  0  0  0  0  0  0  0  0
    1.2128   21.9707   39.7209 H   0  0  0  0  0  0  0  0  0  0  0  0
    1.5666   16.7258   42.0441 H   0  0  0  0  0  0  0  0  0  0  0  0
    2.3518   16.7255   40.2042 H   0  0  0  0  0  0  0  0  0  0  0  0
    0.8146   21.7746   41.7916 H   0  0  0  0  0  0  0  0  0  0  0  0
    2.4725   21.2857   37.8689 H   0  0  0  0  0  0  0  0  0  0  0  0
   -1.0948   20.0334   44.5237 H   0  0  0  0  0  0  0  0  0  0  0  0
    0.5692   19.8631   45.1377 H   0  0  0  0  0  0  0  0  0  0  0  0
    3.0476   17.2077   38.0443 H   0  0  0  0  0  0  0  0  0  0  0  0
    2.3517   20.2727   41.0943 H   0  0  0  0  0  0  0  0  0  0  0  0
  1  5  1  0
  3  7  2  0
  5 13  2  0
  5 10  1  0
  6 11  2  0
  7 15  1  0
  7  9  1  0
  8 15  2  0
  9 12  1  0
  9  4  2  0
 10  2  2  0
 11 14  1  0
 11  3  1  0
 13  6  1  0
 14  2  1  0
 14  8  1  0
 15 12  1  0
  1 16  1  0
  2 17  1  0
  3 18  1  0
  6 19  1  0
  8 20  1  0
 10 21  1  0
 12 22  1  0
 12 23  1  0
 13 24  1  0
 14 25  1  6
M  END
>  <mol_id>  (33) 
2026-08-23-6tgu-s0-n100-prep-0034

>  <rmsd_to_ref>  (33) 


$$$$

     RDKit          3D

 35 37  0  0  0  0  0  0  0  0999 V2000
    2.7212   15.7279   38.8531 O   0  0  0  0  0  0  0  0  0  0  0  0
    2.2564   18.3455   39.1712 C   0  0  0  0  0  0  0  0  0  0  0  0
    1.9693   14.9111   40.7393 C   0  0  0  0  0  0  0  0  0  0  0  0
    1.2884   18.0851   41.3774 N   0  0  0  0  0  0  0  0  0  0  0  0
    0.1056   20.1439   41.9392 C   0  0  0  0  0  0  0  0  0  0  0  0
    2.8478   14.3953   38.8113 N   0  0  0  0  0  0  0  0  0  0  0  0
    2.3233   20.5808   38.1255 C   0  0  0  0  0  0  0  0  0  0  0  0
    1.2516   14.7136   42.0791 C   0  0  0  0  0  0  0  0  0  0  0  0
    2.9406   20.0559   37.0083 C   0  0  0  0  0  0  0  0  0  0  0  0
   -1.8483   19.9502   43.2932 C   0  0  0  0  0  0  0  0  0  0  0  0
    3.2329   18.7540   36.9493 N   0  0  0  0  0  0  0  0  0  0  0  0
    1.9174   17.5365   40.3597 C   0  0  1  0  0  0  0  0  0  0  0  0
   -1.0091   20.7687   42.6784 C   0  0  0  0  0  0  0  0  0  0  0  0
   -1.2223   22.1316   42.5732 O   0  0  0  0  0  0  0  0  0  0  0  0
    1.8986   19.6986   39.2069 C   0  0  0  0  0  0  0  0  0  0  0  0
   -0.4770   18.0030   42.9477 C   0  0  0  0  0  0  0  0  0  0  0  0
   -1.5917   18.5861   43.6097 C   0  0  0  0  0  0  0  0  0  0  0  0
    2.8421   17.9253   38.0059 C   0  0  0  0  0  0  0  0  0  0  0  0
    0.2995   18.6987   42.1150 C   0  0  0  0  0  0  0  0  0  0  0  0
    2.1406   16.1096   39.9903 C   0  0  0  0  0  0  0  0  0  0  0  0
    2.3980   13.8341   39.9663 N   0  0  0  0  0  0  0  0  0  0  0  0
    2.0169   17.9982   42.1002 H   0  0  0  0  0  0  0  0  0  0  0  0
    0.7628   20.7353   41.2848 H   0  0  0  0  0  0  0  0  0  0  0  0
    2.1515   21.6648   38.2005 H   0  0  0  0  0  0  0  0  0  0  0  0
    1.8944   15.0735   42.8960 H   0  0  0  0  0  0  0  0  0  0  0  0
    0.3090   15.2807   42.0773 H   0  0  0  0  0  0  0  0  0  0  0  0
    1.0362   13.6449   42.2257 H   0  0  0  0  0  0  0  0  0  0  0  0
    3.1929   20.7126   36.1628 H   0  0  0  0  0  0  0  0  0  0  0  0
   -2.8273   20.3588   43.5842 H   0  0  0  0  0  0  0  0  0  0  0  0
    2.2840   17.5096   41.3964 H   0  0  0  0  0  0  0  0  0  0  0  0
   -1.9684   22.5554   43.0669 H   0  0  0  0  0  0  0  0  0  0  0  0
    1.3025   20.0930   40.0430 H   0  0  0  0  0  0  0  0  0  0  0  0
   -0.2467   16.9425   43.1281 H   0  0  0  0  0  0  0  0  0  0  0  0
   -2.2143   18.0211   44.3191 H   0  0  0  0  0  0  0  0  0  0  0  0
    3.0198   16.8458   37.8919 H   0  0  0  0  0  0  0  0  0  0  0  0
  1 20  1  0
  2 15  1  0
  2 12  1  0
  3  8  1  0
  4 19  1  0
  5 19  1  0
  5 13  2  0
  6  1  1  0
  6 21  2  0
  7 15  2  0
  9  7  1  0
 10 17  2  0
 11  9  2  0
 11 18  1  0
 12  4  1  0
 13 14  1  0
 13 10  1  0
 16 17  1  0
 18  2  2  0
 19 16  2  0
 20 12  1  0
 20  3  2  0
 21  3  1  0
  4 22  1  0
  5 23  1  0
  7 24  1  0
  8 25  1  0
  8 26  1  0
  8 27  1  0
  9 28  1  0
 10 29  1  0
 12 30  1  1
 14 31  1  0
 15 32  1  0
 16 33  1  0
 17 34  1  0
 18 35  1  0
M  END
>  <mol_id>  (34) 
2026-08-23-6tgu-s0-n100-prep-0035

>  <rmsd_to_ref>  (34) 


$$$$

     RDKit          3D

 46 49  0  0  0  0  0  0  0  0999 V2000
    1.1795   17.3486   42.3889 C   0  0  0  0  0  0  0  0  0  0  0  0
   -0.6738   12.2899   46.3497 C   0  0  0  0  0  0  0  0  0  0  0  0
    2.5771   21.6678   40.1716 C   0  0  0  0  0  0  0  0  0  0  0  0
    3.4280   19.4774   38.3347 C   0  0  0  0  0  0  0  0  0  0  0  0
   -0.3210   12.9181   44.0994 C   0  0  0  0  0  0  0  0  0  0  0  0
    0.0323   19.3303   44.3119 C   0  0  0  0  0  0  0  0  0  0  0  0
    2.7302   18.0419   40.4644 C   0  0  0  0  0  0  0  0  0  0  0  0
    1.0099   20.1375   43.6284 C   0  0  0  0  0  0  0  0  0  0  0  0
    4.4529   20.9662   35.9909 O   0  0  0  0  0  0  0  0  0  0  0  0
   -0.6561   13.5723   46.7109 N   0  0  0  0  0  0  0  0  0  0  0  0
   -0.1822   14.3416   44.5026 C   0  0  0  0  0  0  0  0  0  0  0  0
   -0.3701   14.5485   45.8828 C   0  0  0  0  0  0  0  0  0  0  0  0
    3.2652   20.8600   37.9094 C   0  0  0  0  0  0  0  0  0  0  0  0
    2.9515   22.5623   36.2223 O   0  0  0  0  0  0  0  0  0  0  0  0
   -0.6079   11.8393   45.0328 C   0  0  0  0  0  0  0  0  0  0  0  0
    2.6864   20.5106   40.0077 C   0  0  1  0  0  0  0  0  0  0  0  0
    3.5561   21.4358   36.6775 C   0  0  0  0  0  0  0  0  0  0  0  0
    1.9526   18.3921   41.7860 C   0  0  0  0  0  0  0  0  0  0  0  0
    1.8643   19.6394   42.5951 C   0  0  0  0  0  0  0  0  0  0  0  0
    0.4063   16.8124   43.3626 C   0  0  2  0  0  0  0  0  0  0  0  0
    2.7553   21.6125   38.8541 C   0  0  1  0  0  0  0  0  0  0  0  0
    2.9518   19.2473   39.6454 C   0  0  2  0  0  0  0  0  0  0  0  0
   -0.1142   17.8635   44.3435 C   0  0  0  0  0  0  0  0  0  0  0  0
    0.1148   15.3581   43.5610 N   0  0  0  0  0  0  0  0  0  0  0  0
    3.9256   18.2466   37.4715 C   0  0  0  0  0  0  0  0  0  0  0  0
    1.2557   16.5312   41.6567 H   0  0  0  0  0  0  0  0  0  0  0  0
   -0.7453   11.5347   47.1462 H   0  0  0  0  0  0  0  0  0  0  0  0
    1.5957   22.0232   40.5191 H   0  0  0  0  0  0  0  0  0  0  0  0
    3.1552   22.2802   40.8792 H   0  0  0  0  0  0  0  0  0  0  0  0
   -0.2001   12.6657   43.0356 H   0  0  0  0  0  0  0  0  0  0  0  0
   -0.7138   19.8896   44.8953 H   0  0  0  0  0  0  0  0  0  0  0  0
    3.7035   17.6010   40.7259 H   0  0  0  0  0  0  0  0  0  0  0  0
    2.1278   17.3291   39.8822 H   0  0  0  0  0  0  0  0  0  0  0  0
    1.1047   21.1948   43.9168 H   0  0  0  0  0  0  0  0  0  0  0  0
   -0.2732   15.5689   46.2823 H   0  0  0  0  0  0  0  0  0  0  0  0
   -0.7554   10.7910   44.7339 H   0  0  0  0  0  0  0  0  0  0  0  0
    1.5990   20.4282   39.8640 H   0  0  0  0  0  0  0  0  0  0  0  0
    2.6545   20.3580   42.3320 H   0  0  0  0  0  0  0  0  0  0  0  0
   -0.4754   16.9003   42.7108 H   0  0  0  0  0  0  0  0  0  0  0  0
    2.6085   22.4590   38.1673 H   0  0  0  0  0  0  0  0  0  0  0  0
    3.9752   19.3505   40.0354 H   0  0  0  0  0  0  0  0  0  0  0  0
   -0.6814   17.4671   45.1985 H   0  0  0  0  0  0  0  0  0  0  0  0
    0.1406   14.9137   42.6321 H   0  0  0  0  0  0  0  0  0  0  0  0
    4.2998   17.4572   38.1401 H   0  0  0  0  0  0  0  0  0  0  0  0
    3.0887   17.8553   36.8745 H   0  0  0  0  0  0  0  0  0  0  0  0
    4.7340   18.5723   36.8004 H   0  0  0  0  0  0  0  0  0  0  0  0
  1 20  1  0
  2 10  2  0
  4 22  1  0
  5 11  1  0
  5 15  2  0
  6 23  2  0
  7 18  1  0
  8  6  1  0
  9 17  2  0
 11 12  2  0
 12 10  1  0
 13  4  2  0
 13 21  1  0
 14 17  1  0
 15  2  1  0
 16  3  1  0
 17 13  1  0
 18  1  2  0
 18 19  1  0
 19  8  2  0
 20 24  1  0
 20 23  1  0
 21 16  1  0
 21  3  1  0
 22 16  1  0
 22  7  1  0
 24 11  1  0
 25  4  1  0
  1 26  1  0
  2 27  1  0
  3 28  1  0
  3 29  1  0
  5 30  1  0
  6 31  1  0
  7 32  1  0
  7 33  1  0
  8 34  1  0
 12 35  1  0
 15 36  1  0
 16 37  1  6
 19 38  1  0
 20 39  1  6
 21 40  1  6
 22 41  1  1
 23 42  1  0
 24 43  1  0
 25 44  1  0
 25 45  1  0
 25 46  1  0
M  CHG  1  14  -1
M  END
>  <mol_id>  (35) 
2026-08-23-6tgu-s0-n100-prep-0036

>  <rmsd_to_ref>  (35) 


$$$$

     RDKit          3D

 69 74  0  0  0  0  0  0  0  0999 V2000
    1.6060   16.5600   40.8080 C   0  0  0  0  0  0  0  0  0  0  0  0
   -0.9600   12.5490   45.7060 C   0  0  0  0  0  0  0  0  0  0  0  0
    3.1540   17.9170   38.5400 C   0  0  0  0  0  0  0  0  0  0  0  0
    0.0890   15.7220   43.7970 C   0  0  0  0  0  0  0  0  0  0  0  0
    5.3690   14.1900   37.4560 C   0  0  0  0  0  0  0  0  0  0  0  0
    3.7430   15.9960   37.4890 C   0  0  0  0  0  0  0  0  0  0  0  0
    0.7440   20.1530   41.3390 C   0  0  0  0  0  0  0  0  0  0  0  0
   -0.0430   21.2080   41.9800 C   0  0  0  0  0  0  0  0  0  0  0  0
    4.0450   19.3120   36.5260 N   0  0  0  0  0  0  0  0  0  0  0  0
    2.7210   20.3070   37.9830 C   0  0  0  0  0  0  0  0  0  0  0  0
   -2.6280   18.2360   44.8960 N   0  0  0  0  0  0  0  0  0  0  0  0
   -1.3630   17.4610   44.9830 C   0  0  1  0  0  0  0  0  0  0  0  0
   -0.4260   14.8300   44.7690 C   0  0  0  0  0  0  0  0  0  0  0  0
    4.2550   21.0820   34.8340 C   0  0  0  0  0  0  0  0  0  0  0  0
    1.5330   20.3860   40.1810 C   0  0  0  0  0  0  0  0  0  0  0  0
    0.8510   18.8740   42.0100 C   0  0  0  0  0  0  0  0  0  0  0  0
    1.0590   15.1920   42.8620 C   0  0  0  0  0  0  0  0  0  0  0  0
    0.5230   12.8570   43.5920 C   0  0  0  0  0  0  0  0  0  0  0  0
    3.7920   20.4490   36.0190 C   0  0  0  0  0  0  0  0  0  0  0  0
    3.3080   19.1550   37.7380 C   0  0  1  0  0  0  0  0  0  0  0  0
    2.5850   22.7590   35.2330 C   0  0  0  0  0  0  0  0  0  0  0  0
    1.9610   17.9250   41.4060 C   0  0  1  0  0  0  0  0  0  0  0  0
    4.0810   14.7110   37.9210 O   0  0  0  0  0  0  0  0  0  0  0  0
    0.0800   18.9680   46.1470 N   0  0  0  0  0  0  0  0  0  0  0  0
   -0.4890   17.2230   43.7670 C   0  0  1  0  0  0  0  0  0  0  0  0
    2.2560   22.1120   36.4340 C   0  0  0  0  0  0  0  0  0  0  0  0
   -0.7510   19.7290   43.8040 N   0  0  0  0  0  0  0  0  0  0  0  0
   -0.7150   21.0760   43.1800 C   0  0  0  0  0  0  0  0  0  0  0  0
   -0.7350   17.1850   47.2450 O   0  0  0  0  0  0  0  0  0  0  0  0
    3.6600   22.2820   34.4720 C   0  0  0  0  0  0  0  0  0  0  0  0
    2.0600   20.4670   39.1770 C   0  0  0  0  0  0  0  0  0  0  0  0
    2.8630   16.6530   38.2140 N   0  0  0  0  0  0  0  0  0  0  0  0
   -0.6660   17.9120   46.2210 C   0  0  0  0  0  0  0  0  0  0  0  0
   -0.0350   18.5610   43.1030 C   0  0  0  0  0  0  0  0  0  0  0  0
   -0.2390   13.4200   44.6430 C   0  0  0  0  0  0  0  0  0  0  0  0
    1.9120   16.4680   42.3000 C   0  0  2  0  0  0  0  0  0  0  0  0
    1.1830   13.8000   42.7170 C   0  0  0  0  0  0  0  0  0  0  0  0
    4.3650   16.4170   36.4900 O   0  0  0  0  0  0  0  0  0  0  0  0
    2.8970   21.0500   36.8400 C   0  0  0  0  0  0  0  0  0  0  0  0
    0.5737   16.3854   40.4705 H   0  0  0  0  0  0  0  0  0  0  0  0
    2.0171   16.0142   39.9460 H   0  0  0  0  0  0  0  0  0  0  0  0
   -0.6774   12.8904   46.7128 H   0  0  0  0  0  0  0  0  0  0  0  0
   -2.0487   12.6423   45.5793 H   0  0  0  0  0  0  0  0  0  0  0  0
   -0.6650   11.4969   45.5793 H   0  0  0  0  0  0  0  0  0  0  0  0
    4.1192   17.8295   39.0603 H   0  0  0  0  0  0  0  0  0  0  0  0
    2.1614   18.1638   38.9449 H   0  0  0  0  0  0  0  0  0  0  0  0
    5.9965   13.9362   38.3231 H   0  0  0  0  0  0  0  0  0  0  0  0
    5.2020   13.2887   36.8479 H   0  0  0  0  0  0  0  0  0  0  0  0
    5.8756   14.9539   36.8479 H   0  0  0  0  0  0  0  0  0  0  0  0
   -0.1039   22.1794   41.4674 H   0  0  0  0  0  0  0  0  0  0  0  0
   -2.9687   18.4447   45.8453 H   0  0  0  0  0  0  0  0  0  0  0  0
   -2.4567   19.1173   44.3912 H   0  0  0  0  0  0  0  0  0  0  0  0
   -3.3354   17.6831   44.3912 H   0  0  0  0  0  0  0  0  0  0  0  0
   -1.6681   16.4052   45.0304 H   0  0  0  0  0  0  0  0  0  0  0  0
   -0.9777   15.2289   45.6330 H   0  0  0  0  0  0  0  0  0  0  0  0
    5.0561   20.6368   34.2257 H   0  0  0  0  0  0  0  0  0  0  0  0
    0.6080   11.7696   43.4495 H   0  0  0  0  0  0  0  0  0  0  0  0
    4.1867   19.4801   38.3144 H   0  0  0  0  0  0  0  0  0  0  0  0
    2.0057   23.6302   34.8933 H   0  0  0  0  0  0  0  0  0  0  0  0
    2.6312   18.7203   41.0478 H   0  0  0  0  0  0  0  0  0  0  0  0
    0.5762   19.3076   46.9832 H   0  0  0  0  0  0  0  0  0  0  0  0
    0.1771   19.4683   45.2519 H   0  0  0  0  0  0  0  0  0  0  0  0
   -0.6866   17.0058   42.7069 H   0  0  0  0  0  0  0  0  0  0  0  0
    1.4361   22.5105   37.0496 H   0  0  0  0  0  0  0  0  0  0  0  0
   -1.2057   21.9378   43.6560 H   0  0  0  0  0  0  0  0  0  0  0  0
    4.0259   22.8486   33.6030 H   0  0  0  0  0  0  0  0  0  0  0  0
    1.9840   16.2108   38.5186 H   0  0  0  0  0  0  0  0  0  0  0  0
    2.4751   16.3612   43.2389 H   0  0  0  0  0  0  0  0  0  0  0  0
    1.8101   13.4103   41.9016 H   0  0  0  0  0  0  0  0  0  0  0  0
  4 13  1  0
  5 23  1  0
  6 23  1  0
  6 32  1  0
  7  8  2  0
  7 16  1  0
  8 28  1  0
  9 20  1  0
 10 31  1  0
 12 11  1  0
 12 33  1  0
 14 19  1  0
 15  7  1  0
 16 34  2  0
 17  4  2  0
 18 35  1  0
 19  9  2  0
 19 39  1  0
 20 10  1  0
 20  3  1  0
 21 26  2  0
 22  1  1  0
 22 16  1  0
 22 36  1  0
 24 33  1  0
 25  4  1  0
 25 12  1  0
 26 39  1  0
 28 27  2  0
 30 14  2  0
 30 21  1  0
 31 15  3  0
 32  3  1  0
 33 29  2  0
 34 25  1  0
 34 27  1  0
 35 13  2  0
 35  2  1  0
 36  1  1  0
 36 17  1  0
 37 17  1  0
 37 18  2  0
 38  6  2  0
 39 10  2  0
  1 40  1  0
  1 41  1  0
  2 42  1  0
  2 43  1  0
  2 44  1  0
  3 45  1  0
  3 46  1  0
  5 47  1  0
  5 48  1  0
  5 49  1  0
  8 50  1  0
 11 51  1  0
 11 52  1  0
 11 53  1  0
 12 54  1  1
 13 55  1  0
 14 56  1  0
 18 57  1  0
 20 58  1  1
 21 59  1  0
 22 60  1  6
 24 61  1  0
 24 62  1  0
 25 63  1  6
 26 64  1  0
 28 65  1  0
 30 66  1  0
 32 67  1  0
 36 68  1  6
 37 69  1  0
M  CHG  1  11   1
M  END
>  <mol_id>  (36) 
2026-08-23-6tgu-s0-n100-prep-0037

>  <rmsd_to_ref>  (36) 


$$$$

     RDKit          3D

 26 27  0  0  0  0  0  0  0  0999 V2000
    0.5451   18.8363   42.9453 C   0  0  0  0  0  0  0  0  0  0  0  0
    0.4048   20.1932   43.2165 N   0  0  0  0  0  0  0  0  0  0  0  0
    2.0812   19.1411   40.9016 C   0  0  0  0  0  0  0  0  0  0  0  0
    1.5016   18.2405   41.9637 C   0  0  1  0  0  0  0  0  0  0  0  0
    1.6881   20.4686   40.5416 C   0  0  0  0  0  0  0  0  0  0  0  0
    2.3884   20.4363   37.9775 C   0  0  0  0  0  0  0  0  0  0  0  0
    1.9004   16.8027   42.0558 C   0  0  0  0  0  0  0  0  0  0  0  0
    1.9165   21.0142   39.1472 C   0  0  0  0  0  0  0  0  0  0  0  0
    0.7435   21.2745   42.6761 C   0  0  0  0  0  0  0  0  0  0  0  0
    2.9473   18.4431   40.0697 O   0  0  0  0  0  0  0  0  0  0  0  0
    1.9516   15.7940   42.8671 C   0  0  0  0  0  0  0  0  0  0  0  0
    2.8185   19.0498   37.6572 C   0  0  0  0  0  0  0  0  0  0  0  0
    1.2831   21.4608   41.4583 C   0  0  0  0  0  0  0  0  0  0  0  0
    2.6898   18.0423   38.7082 C   0  0  0  0  0  0  0  0  0  0  0  0
   -0.1720   17.9931   43.6361 O   0  0  0  0  0  0  0  0  0  0  0  0
    0.6796   17.9690   41.2850 H   0  0  0  0  0  0  0  0  0  0  0  0
    2.4570   21.1336   37.1295 H   0  0  0  0  0  0  0  0  0  0  0  0
    2.2938   16.4858   41.0787 H   0  0  0  0  0  0  0  0  0  0  0  0
    1.6573   22.0780   39.0411 H   0  0  0  0  0  0  0  0  0  0  0  0
    0.5782   22.1833   43.2733 H   0  0  0  0  0  0  0  0  0  0  0  0
    2.3453   14.8277   42.5190 H   0  0  0  0  0  0  0  0  0  0  0  0
    1.6015   15.9038   43.9040 H   0  0  0  0  0  0  0  0  0  0  0  0
    3.2189   18.7916   36.6657 H   0  0  0  0  0  0  0  0  0  0  0  0
    2.1860   22.0626   41.6392 H   0  0  0  0  0  0  0  0  0  0  0  0
    0.3930   21.8326   40.9295 H   0  0  0  0  0  0  0  0  0  0  0  0
    2.4046   17.0075   38.4678 H   0  0  0  0  0  0  0  0  0  0  0  0
  1  2  1  0
  1 15  2  0
  3  4  1  0
  4  7  1  0
  4  1  1  0
  5  3  2  0
  5 13  1  0
  6  8  2  0
  7 11  2  3
  8  5  1  0
  9  2  2  0
 10  3  1  0
 12  6  1  0
 12 14  2  0
 13  9  1  0
 14 10  1  0
  4 16  1  6
  6 17  1  0
  7 18  1  0
  8 19  1  0
  9 20  1  0
 11 21  1  0
 11 22  1  0
 12 23  1  0
 13 24  1  0
 13 25  1  0
 14 26  1  0
M  END
>  <mol_id>  (37) 
2026-08-23-6tgu-s0-n100-prep-0038

>  <rmsd_to_ref>  (37) 


$$$$

     RDKit          3D

 32 35  0  0  0  0  0  0  0  0999 V2000
    2.0175   15.7019   40.5095 C   0  0  0  0  0  0  0  0  0  0  0  0
    0.6634   16.7196   42.3149 C   0  0  0  0  0  0  0  0  0  0  0  0
    2.4783   18.1810   39.2968 C   0  0  0  0  0  0  0  0  0  0  0  0
    0.1126   18.0152   42.9016 C   0  0  0  0  0  0  0  0  0  0  0  0
    1.7222   20.6726   40.5793 C   0  0  0  0  0  0  0  0  0  0  0  0
    3.4199   19.3789   37.3729 C   0  0  0  0  0  0  0  0  0  0  0  0
    2.7844   19.4524   38.7041 C   0  0  0  0  0  0  0  0  0  0  0  0
    0.0743   20.4356   42.9881 C   0  0  0  0  0  0  0  0  0  0  0  0
    1.8541   18.1616   40.5534 C   0  0  0  0  0  0  0  0  0  0  0  0
   -1.1702   19.3064   44.5628 C   0  0  0  0  0  0  0  0  0  0  0  0
    2.4229   20.6317   39.3840 C   0  0  0  0  0  0  0  0  0  0  0  0
    2.7968   17.0547   38.7060 O   0  0  0  0  0  0  0  0  0  0  0  0
    1.6623   14.4278   41.0998 C   0  0  0  0  0  0  0  0  0  0  0  0
    1.4785   16.8729   41.1583 C   0  0  0  0  0  0  0  0  0  0  0  0
   -0.7619   18.0481   44.0417 C   0  0  0  0  0  0  0  0  0  0  0  0
    3.6616   20.3187   36.6982 O   0  0  0  0  0  0  0  0  0  0  0  0
    1.3873   19.3643   41.1978 C   0  0  0  0  0  0  0  0  0  0  0  0
    0.5413   19.2871   42.4024 C   0  0  0  0  0  0  0  0  0  0  0  0
    0.4126   15.4931   42.8079 C   0  0  0  0  0  0  0  0  0  0  0  0
    0.8723   14.3059   42.1854 C   0  0  0  0  0  0  0  0  0  0  0  0
   -0.7610   20.4404   44.0893 N   0  0  0  0  0  0  0  0  0  0  0  0
    2.6600   15.7728   39.6194 H   0  0  0  0  0  0  0  0  0  0  0  0
    1.4294   21.6247   41.0458 H   0  0  0  0  0  0  0  0  0  0  0  0
    3.6856   18.3848   36.9841 H   0  0  0  0  0  0  0  0  0  0  0  0
    0.3799   21.4017   42.5601 H   0  0  0  0  0  0  0  0  0  0  0  0
   -1.8698   19.3174   45.4116 H   0  0  0  0  0  0  0  0  0  0  0  0
    2.7182   21.5908   38.9333 H   0  0  0  0  0  0  0  0  0  0  0  0
    3.2373   17.0680   37.8195 H   0  0  0  0  0  0  0  0  0  0  0  0
    2.0580   13.5112   40.6378 H   0  0  0  0  0  0  0  0  0  0  0  0
   -1.1103   17.1131   44.5046 H   0  0  0  0  0  0  0  0  0  0  0  0
   -0.1747   15.4083   43.7341 H   0  0  0  0  0  0  0  0  0  0  0  0
    0.5934   13.3160   42.5758 H   0  0  0  0  0  0  0  0  0  0  0  0
  1 14  2  0
  1 13  1  0
  2  4  1  0
  2 19  2  0
  3  9  2  0
  4 15  2  0
  5 17  2  0
  6  7  1  0
  7 11  2  0
  7  3  1  0
  8 21  1  0
  9 17  1  0
  9 14  1  0
 11  5  1  0
 12  3  1  0
 13 20  2  0
 14  2  1  0
 15 10  1  0
 16  6  2  0
 17 18  1  0
 18  8  2  0
 18  4  1  0
 20 19  1  0
 21 10  2  0
  1 22  1  0
  5 23  1  0
  6 24  1  0
  8 25  1  0
 10 26  1  0
 11 27  1  0
 12 28  1  0
 13 29  1  0
 15 30  1  0
 19 31  1  0
 20 32  1  0
M  END
>  <mol_id>  (38) 
2026-08-23-6tgu-s0-n100-prep-0039

>  <rmsd_to_ref>  (38) 


$$$$

     RDKit          3D

 50 54  0  0  0  0  0  0  0  0999 V2000
    1.2137   16.3551   43.1235 C   0  0  0  0  0  0  0  0  0  0  0  0
    3.0084   15.9275   38.6057 O   0  0  0  0  0  0  0  0  0  0  0  0
    1.4718   16.6498   41.6892 C   0  0  0  0  0  0  0  0  0  0  0  0
    0.5153   19.2537   42.7884 C   0  0  0  0  0  0  0  0  0  0  0  0
    2.8545   20.8631   37.2662 C   0  0  1  0  0  0  0  0  0  0  0  0
    1.1509   19.1696   41.5641 C   0  0  0  0  0  0  0  0  0  0  0  0
    2.0266   21.0498   38.3911 N   0  0  0  0  0  0  0  0  0  0  0  0
    1.9913   20.2195   39.4639 C   0  0  0  0  0  0  0  0  0  0  0  0
   -0.3777   18.2586   43.5704 C   0  0  2  0  0  0  0  0  0  0  0  0
   -0.3728   14.3600   46.8496 C   0  0  0  0  0  0  0  0  0  0  0  0
    2.2557   22.2458   35.5537 O   0  0  0  0  0  0  0  0  0  0  0  0
   -0.3849   16.1981   45.1576 C   0  0  0  0  0  0  0  0  0  0  0  0
    3.5651   20.3619   36.3025 O   0  0  0  0  0  0  0  0  0  0  0  0
    0.3999   20.7379   42.9646 C   0  0  0  0  0  0  0  0  0  0  0  0
    2.9631   21.4719   36.1813 C   0  0  0  0  0  0  0  0  0  0  0  0
    1.9211   15.7417   40.7557 C   0  0  0  0  0  0  0  0  0  0  0  0
    2.1495   17.8084   39.8800 C   0  0  0  0  0  0  0  0  0  0  0  0
    0.9939   21.4219   41.9233 C   0  0  0  0  0  0  0  0  0  0  0  0
    1.4531   20.3663   40.9571 C   0  0  0  0  0  0  0  0  0  0  0  0
   -0.7390   18.8288   44.7937 O   0  0  0  0  0  0  0  0  0  0  0  0
    0.1755   16.8819   43.9897 N   0  0  0  0  0  0  0  0  0  0  0  0
    2.4315   18.9092   39.1228 C   0  0  0  0  0  0  0  0  0  0  0  0
    1.5371   17.8580   41.1165 C   0  0  0  0  0  0  0  0  0  0  0  0
    2.9610   16.5114   37.3118 C   0  0  0  0  0  0  0  0  0  0  0  0
    2.3841   16.4855   39.7102 N   0  0  0  0  0  0  0  0  0  0  0  0
   -0.1921   14.7571   45.3151 C   0  0  0  0  0  0  0  0  0  0  0  0
    1.8869   14.2472   40.7760 C   0  0  0  0  0  0  0  0  0  0  0  0
    2.1535   16.6188   43.6306 H   0  0  0  0  0  0  0  0  0  0  0  0
    0.8163   15.3362   43.0048 H   0  0  0  0  0  0  0  0  0  0  0  0
    2.7936   20.5596   38.3218 H   0  0  0  0  0  0  0  0  0  0  0  0
    1.4062   21.8720   38.3996 H   0  0  0  0  0  0  0  0  0  0  0  0
   -1.1642   18.0755   42.8235 H   0  0  0  0  0  0  0  0  0  0  0  0
    0.3913   14.8716   47.4533 H   0  0  0  0  0  0  0  0  0  0  0  0
   -1.3735   14.6631   47.1914 H   0  0  0  0  0  0  0  0  0  0  0  0
   -0.2609   13.2715   46.9624 H   0  0  0  0  0  0  0  0  0  0  0  0
   -1.4705   16.3747   45.1401 H   0  0  0  0  0  0  0  0  0  0  0  0
    0.1791   16.6256   45.9998 H   0  0  0  0  0  0  0  0  0  0  0  0
   -0.6649   21.0103   43.0089 H   0  0  0  0  0  0  0  0  0  0  0  0
    0.9158   21.0145   43.8959 H   0  0  0  0  0  0  0  0  0  0  0  0
    1.1074   22.5113   41.8220 H   0  0  0  0  0  0  0  0  0  0  0  0
   -0.2624   18.3654   45.5273 H   0  0  0  0  0  0  0  0  0  0  0  0
    3.0264   18.7775   38.2069 H   0  0  0  0  0  0  0  0  0  0  0  0
    3.2591   17.5683   37.3752 H   0  0  0  0  0  0  0  0  0  0  0  0
    3.6501   15.9757   36.6423 H   0  0  0  0  0  0  0  0  0  0  0  0
    1.9371   16.4422   36.9156 H   0  0  0  0  0  0  0  0  0  0  0  0
   -0.9348   14.2193   44.7075 H   0  0  0  0  0  0  0  0  0  0  0  0
    0.8205   14.4845   44.9830 H   0  0  0  0  0  0  0  0  0  0  0  0
    2.0304   13.8911   41.8068 H   0  0  0  0  0  0  0  0  0  0  0  0
    0.9143   13.8975   40.3993 H   0  0  0  0  0  0  0  0  0  0  0  0
    2.6908   13.8534   40.1367 H   0  0  0  0  0  0  0  0  0  0  0  0
  1 21  1  0
  2 25  1  0
  3  1  1  0
  4 14  1  0
  4  9  1  0
  5  7  1  0
  6  4  2  0
  7  8  1  0
  8 19  1  0
  9 21  1  0
  9 20  1  0
 11 15  2  0
 12 26  1  0
 13  5  1  0
 15 13  1  0
 15  5  1  0
 16 27  1  0
 16  3  2  0
 17 23  2  0
 18 14  1  0
 19  6  1  0
 19 18  2  0
 21 12  1  0
 22  8  2  0
 22 17  1  0
 23  6  1  0
 23  3  1  0
 24  2  1  0
 25 17  1  0
 25 16  1  0
 26 10  1  0
  1 28  1  0
  1 29  1  0
  5 30  1  1
  7 31  1  0
  9 32  1  6
 10 33  1  0
 10 34  1  0
 10 35  1  0
 12 36  1  0
 12 37  1  0
 14 38  1  0
 14 39  1  0
 18 40  1  0
 20 41  1  0
 22 42  1  0
 24 43  1  0
 24 44  1  0
 24 45  1  0
 26 46  1  0
 26 47  1  0
 27 48  1  0
 27 49  1  0
 27 50  1  0
M  END
>  <mol_id>  (39) 
2026-08-23-6tgu-s0-n100-prep-0040

>  <rmsd_to_ref>  (39) 


$$$$

     RDKit          3D

 40 44  0  0  0  0  0  0  0  0999 V2000
   -0.7046   13.2612   45.1234 C   0  0  0  0  0  0  0  0  0  0  0  0
    2.1102   20.5014   38.7361 C   0  0  0  0  0  0  0  0  0  0  0  0
    1.0409   19.5679   40.8456 C   0  0  0  0  0  0  0  0  0  0  0  0
    1.0168   15.6697   42.7961 C   0  0  0  0  0  0  0  0  0  0  0  0
   -0.4272   19.9722   42.7879 C   0  0  0  0  0  0  0  0  0  0  0  0
    0.8265   20.8576   40.4716 C   0  0  0  0  0  0  0  0  0  0  0  0
   -0.4401   21.2908   42.5121 C   0  0  0  0  0  0  0  0  0  0  0  0
    2.8843   20.4007   37.6145 C   0  0  0  0  0  0  0  0  0  0  0  0
    0.9742   12.9495   43.2417 C   0  0  0  0  0  0  0  0  0  0  0  0
    0.0592   15.2054   43.6468 C   0  0  0  0  0  0  0  0  0  0  0  0
   -0.9836   16.0385   44.1625 N   0  0  0  0  0  0  0  0  0  0  0  0
    3.7188   19.3849   37.2714 N   0  0  0  0  0  0  0  0  0  0  0  0
    2.0253   14.9718   42.3376 C   0  0  0  0  0  0  0  0  0  0  0  0
    2.8536   21.5256   36.5720 O   0  0  0  0  0  0  0  0  0  0  0  0
   -0.9236   17.3244   43.6534 C   0  0  0  0  0  0  0  0  0  0  0  0
    2.0873   19.4523   39.7177 C   0  0  0  0  0  0  0  0  0  0  0  0
    3.0948   18.5298   39.4627 C   0  0  0  0  0  0  0  0  0  0  0  0
    3.6635   18.5043   38.2513 C   0  0  0  0  0  0  0  0  0  0  0  0
    0.1951   19.0600   42.0744 C   0  0  0  0  0  0  0  0  0  0  0  0
    1.8980   13.5652   42.3788 C   0  0  0  0  0  0  0  0  0  0  0  0
    0.0850   17.7043   42.7311 C   0  0  0  0  0  0  0  0  0  0  0  0
    1.0559   16.9430   42.2496 N   0  0  0  0  0  0  0  0  0  0  0  0
    0.0916   13.7992   43.9675 C   0  0  0  0  0  0  0  0  0  0  0  0
    1.2877   21.4498   39.2276 C   0  0  0  0  0  0  0  0  0  0  0  0
    0.2305   21.7377   41.3255 C   0  0  0  0  0  0  0  0  0  0  0  0
   -0.2347   13.5716   46.0683 H   0  0  0  0  0  0  0  0  0  0  0  0
   -1.7305   13.6555   45.0770 H   0  0  0  0  0  0  0  0  0  0  0  0
   -0.7313   12.1628   45.0706 H   0  0  0  0  0  0  0  0  0  0  0  0
   -0.9789   19.6332   43.6772 H   0  0  0  0  0  0  0  0  0  0  0  0
   -0.9498   22.0035   43.1771 H   0  0  0  0  0  0  0  0  0  0  0  0
    0.9349   11.8557   43.3517 H   0  0  0  0  0  0  0  0  0  0  0  0
    2.9284   15.4573   41.9393 H   0  0  0  0  0  0  0  0  0  0  0  0
   -1.6722   18.0656   43.9701 H   0  0  0  0  0  0  0  0  0  0  0  0
    3.8971   18.7201   40.1907 H   0  0  0  0  0  0  0  0  0  0  0  0
    2.5847   17.5578   39.5337 H   0  0  0  0  0  0  0  0  0  0  0  0
    4.1880   17.5632   38.0295 H   0  0  0  0  0  0  0  0  0  0  0  0
    2.5298   12.9437   41.7272 H   0  0  0  0  0  0  0  0  0  0  0  0
    1.8301   22.3888   39.4122 H   0  0  0  0  0  0  0  0  0  0  0  0
    0.4705   21.7176   38.5417 H   0  0  0  0  0  0  0  0  0  0  0  0
    0.2646   22.8137   41.0995 H   0  0  0  0  0  0  0  0  0  0  0  0
  2 24  1  0
  2 16  2  0
  3 19  2  0
  4 10  1  0
  6  3  1  0
  6 25  2  0
  7  5  2  0
  8  2  1  0
  9 23  1  0
 10 23  2  0
 10 11  1  0
 12  8  1  0
 12 18  2  0
 13 20  1  0
 13  4  2  0
 14  8  2  0
 15 11  2  0
 16  3  1  0
 17 16  1  0
 18 17  1  0
 19 21  1  0
 19  5  1  0
 20  9  2  0
 21 15  1  0
 22 21  2  0
 22  4  1  0
 23  1  1  0
 24  6  1  0
 25  7  1  0
  1 26  1  0
  1 27  1  0
  1 28  1  0
  5 29  1  0
  7 30  1  0
  9 31  1  0
 13 32  1  0
 15 33  1  0
 17 34  1  0
 17 35  1  0
 18 36  1  0
 20 37  1  0
 24 38  1  0
 24 39  1  0
 25 40  1  0
M  END
>  <mol_id>  (40) 
2026-08-23-6tgu-s0-n100-prep-0041

>  <rmsd_to_ref>  (40) 


$$$$

     RDKit          3D

 42 46  0  0  0  0  0  0  0  0999 V2000
    3.2219   14.8773   40.7574 S   0  0  0  0  0  0  0  0  0  0  0  0
    1.3373   15.0184   42.8233 N   0  0  0  0  0  0  0  0  0  0  0  0
    3.4927   20.8695   36.5258 O   0  0  0  0  0  0  0  0  0  0  0  0
   -0.2447   16.1246   44.5108 C   0  0  0  0  0  0  0  0  0  0  0  0
    0.9303   17.2742   42.7626 C   0  0  0  0  0  0  0  0  0  0  0  0
   -0.8970   17.3306   44.8490 C   0  0  0  0  0  0  0  0  0  0  0  0
    1.9119   16.9764   41.7535 O   0  0  0  0  0  0  0  0  0  0  0  0
    2.7468   20.7931   37.4505 C   0  0  0  0  0  0  0  0  0  0  0  0
    3.1921   16.1728   38.4337 C   0  0  0  0  0  0  0  0  0  0  0  0
    1.5713   21.2617   40.8196 C   0  0  0  0  0  0  0  0  0  0  0  0
    1.5706   21.5707   39.4255 O   0  0  0  0  0  0  0  0  0  0  0  0
    1.8730   20.5933   38.4915 C   0  0  2  0  0  0  0  0  0  0  0  0
    2.0859   15.5851   41.8381 C   0  0  0  0  0  0  0  0  0  0  0  0
    0.2746   19.8183   42.4847 C   0  0  0  0  0  0  0  0  0  0  0  0
    3.5763   18.6464   38.6020 N   0  0  0  0  0  0  0  0  0  0  0  0
   -1.1283   19.7533   44.2057 N   0  0  0  0  0  0  0  0  0  0  0  0
    2.5513   15.2486   39.2298 C   0  0  0  0  0  0  0  0  0  0  0  0
    3.9433   17.5025   38.4128 C   0  0  0  0  0  0  0  0  0  0  0  0
    0.2957   18.5062   43.1021 C   0  0  0  0  0  0  0  0  0  0  0  0
   -0.6038   20.5598   43.3086 C   0  0  0  0  0  0  0  0  0  0  0  0
   -0.6202   18.5098   44.1455 C   0  0  0  0  0  0  0  0  0  0  0  0
    3.0773   19.7683   38.6295 C   0  0  1  0  0  0  0  0  0  0  0  0
    1.0433   20.1598   41.3626 C   0  0  0  0  0  0  0  0  0  0  0  0
    0.6344   16.1161   43.4265 C   0  0  0  0  0  0  0  0  0  0  0  0
   -0.4262   15.2082   45.0915 H   0  0  0  0  0  0  0  0  0  0  0  0
   -1.9762   17.1459   44.7424 H   0  0  0  0  0  0  0  0  0  0  0  0
   -0.5109   17.5468   45.8561 H   0  0  0  0  0  0  0  0  0  0  0  0
    2.3878   16.3975   37.7178 H   0  0  0  0  0  0  0  0  0  0  0  0
    4.1409   15.6286   38.5506 H   0  0  0  0  0  0  0  0  0  0  0  0
    1.0570   22.1035   41.3064 H   0  0  0  0  0  0  0  0  0  0  0  0
    2.6422   21.0662   40.9780 H   0  0  0  0  0  0  0  0  0  0  0  0
    0.8016   20.3440   38.4823 H   0  0  0  0  0  0  0  0  0  0  0  0
    4.5347   19.0184   38.5388 H   0  0  0  0  0  0  0  0  0  0  0  0
    2.6434   18.2691   38.8216 H   0  0  0  0  0  0  0  0  0  0  0  0
    1.5323   15.6238   39.4060 H   0  0  0  0  0  0  0  0  0  0  0  0
    2.6327   14.3076   38.6661 H   0  0  0  0  0  0  0  0  0  0  0  0
    4.7411   17.3605   39.1566 H   0  0  0  0  0  0  0  0  0  0  0  0
    4.0315   17.5789   37.3190 H   0  0  0  0  0  0  0  0  0  0  0  0
   -0.8141   21.6354   43.2146 H   0  0  0  0  0  0  0  0  0  0  0  0
    3.7011   19.4764   39.4871 H   0  0  0  0  0  0  0  0  0  0  0  0
    0.4278   19.7715   40.5378 H   0  0  0  0  0  0  0  0  0  0  0  0
    1.9897   19.8578   41.8351 H   0  0  0  0  0  0  0  0  0  0  0  0
  1 13  1  0
  2 24  1  0
  3  8  2  0
  4  6  1  0
  5 19  2  0
  5 24  1  0
  7 13  1  0
  7  5  1  0
  9 18  1  0
  9 17  1  0
 10 23  1  0
 11 10  1  0
 12  8  1  0
 12 22  1  0
 12 11  1  0
 13  2  2  0
 14 19  1  0
 14 20  2  0
 15 22  1  0
 17  1  1  0
 18 15  1  0
 19 21  1  0
 20 16  1  0
 21 16  2  0
 21  6  1  0
 22  8  1  0
 23 14  1  0
 24  4  2  0
  4 25  1  0
  6 26  1  0
  6 27  1  0
  9 28  1  0
  9 29  1  0
 10 30  1  0
 10 31  1  0
 12 32  1  6
 15 33  1  0
 15 34  1  0
 17 35  1  0
 17 36  1  0
 18 37  1  0
 18 38  1  0
 20 39  1  0
 22 40  1  1
 23 41  1  0
 23 42  1  0
M  CHG  1  15   1
M  END
>  <mol_id>  (41) 
2026-08-23-6tgu-s0-n100-prep-0042

>  <rmsd_to_ref>  (41) 


$$$$

     RDKit          3D

 57 61  0  0  0  0  0  0  0  0999 V2000
    2.6312   21.5592   37.2928 C   0  0  0  0  0  0  0  0  0  0  0  0
    0.6972   16.4151   43.5305 C   0  0  0  0  0  0  0  0  0  0  0  0
    1.3965   14.8331   42.2496 C   0  0  0  0  0  0  0  0  0  0  0  0
   -0.1437   16.3105   48.6259 C   0  0  0  0  0  0  0  0  0  0  0  0
    0.5545   16.9788   49.5122 O   0  0  0  0  0  0  0  0  0  0  0  0
    0.4500   18.9663   44.5308 C   0  0  0  0  0  0  0  0  0  0  0  0
    2.1683   21.3573   39.6095 C   0  0  0  0  0  0  0  0  0  0  0  0
    2.0239   17.6398   40.4788 N   0  0  0  0  0  0  0  0  0  0  0  0
    2.3931   15.1920   37.4994 O   0  0  0  0  0  0  0  0  0  0  0  0
    0.1213   16.4511   44.7689 C   0  0  0  0  0  0  0  0  0  0  0  0
    3.5422   18.4120   36.3681 N   0  0  0  0  0  0  0  0  0  0  0  0
    2.6105   20.0675   39.4086 C   0  0  0  0  0  0  0  0  0  0  0  0
    4.0872   15.4951   36.3039 N   0  0  0  0  0  0  0  0  0  0  0  0
   -0.3402   17.6084   46.4832 N   0  0  0  0  0  0  0  0  0  0  0  0
    3.3932   21.6114   35.0857 C   0  0  0  0  0  0  0  0  0  0  0  0
    1.6490   15.6031   41.2099 C   0  0  0  0  0  0  0  0  0  0  0  0
    2.8647   17.0847   38.0929 C   0  0  0  0  0  0  0  0  0  0  0  0
    2.7001   22.1250   36.1395 C   0  0  0  0  0  0  0  0  0  0  0  0
    0.7174   15.2080   43.3418 C   0  0  0  0  0  0  0  0  0  0  0  0
    3.8785   20.3166   35.1745 C   0  0  0  0  0  0  0  0  0  0  0  0
    2.9118   20.2593   37.2467 C   0  0  0  0  0  0  0  0  0  0  0  0
    3.1225   15.8760   37.3705 C   0  0  0  0  0  0  0  0  0  0  0  0
    0.0526   18.0308   45.4600 C   0  0  0  0  0  0  0  0  0  0  0  0
   -0.0191   16.5282   47.4032 C   0  0  0  0  0  0  0  0  0  0  0  0
    1.2171   17.3999   42.7332 C   0  0  0  0  0  0  0  0  0  0  0  0
    1.6437   16.9390   41.4526 C   0  0  0  0  0  0  0  0  0  0  0  0
    2.5020   17.0160   39.3757 N   0  0  0  0  0  0  0  0  0  0  0  0
    2.8474   19.5603   38.2740 C   0  0  0  0  0  0  0  0  0  0  0  0
    4.0311   13.9841   35.9058 C   0  0  0  0  0  0  0  0  0  0  0  0
    3.4911   19.6784   36.3264 C   0  0  0  0  0  0  0  0  0  0  0  0
    0.9860   18.7007   43.2861 N   0  0  0  0  0  0  0  0  0  0  0  0
    2.9906   18.3058   37.6483 C   0  0  0  0  0  0  0  0  0  0  0  0
    2.1231   22.0435   38.4605 C   0  0  0  0  0  0  0  0  0  0  0  0
   -0.8588   15.1635   48.6452 O   0  0  0  0  0  0  0  0  0  0  0  0
    2.3803   14.5045   42.6157 H   0  0  0  0  0  0  0  0  0  0  0  0
    0.6771   14.1308   41.8031 H   0  0  0  0  0  0  0  0  0  0  0  0
    0.3291   20.0245   44.8059 H   0  0  0  0  0  0  0  0  0  0  0  0
    1.8880   21.7707   40.5896 H   0  0  0  0  0  0  0  0  0  0  0  0
   -0.2633   15.5553   45.2786 H   0  0  0  0  0  0  0  0  0  0  0  0
    3.8741   17.7075   35.6941 H   0  0  0  0  0  0  0  0  0  0  0  0
    2.7681   19.4359   40.2952 H   0  0  0  0  0  0  0  0  0  0  0  0
    4.7342   16.1668   35.8667 H   0  0  0  0  0  0  0  0  0  0  0  0
   -1.1396   18.1596   46.8268 H   0  0  0  0  0  0  0  0  0  0  0  0
    3.5645   22.2132   34.1810 H   0  0  0  0  0  0  0  0  0  0  0  0
    0.8883   15.3957   40.4428 H   0  0  0  0  0  0  0  0  0  0  0  0
    2.6751   15.3588   40.8974 H   0  0  0  0  0  0  0  0  0  0  0  0
    2.1691   23.0777   35.9964 H   0  0  0  0  0  0  0  0  0  0  0  0
   -0.3203   14.8577   43.2397 H   0  0  0  0  0  0  0  0  0  0  0  0
    1.2354   14.7625   44.2038 H   0  0  0  0  0  0  0  0  0  0  0  0
    4.5082   19.8493   34.4030 H   0  0  0  0  0  0  0  0  0  0  0  0
   -0.5506   15.6745   46.9575 H   0  0  0  0  0  0  0  0  0  0  0  0
    1.0432   16.8032   47.4799 H   0  0  0  0  0  0  0  0  0  0  0  0
    2.6574   16.0371   39.6560 H   0  0  0  0  0  0  0  0  0  0  0  0
    4.1752   13.3632   36.8023 H   0  0  0  0  0  0  0  0  0  0  0  0
    3.0521   13.7591   35.4575 H   0  0  0  0  0  0  0  0  0  0  0  0
    4.8265   13.7669   35.1776 H   0  0  0  0  0  0  0  0  0  0  0  0
    1.6564   23.0397   38.4593 H   0  0  0  0  0  0  0  0  0  0  0  0
  1 21  1  0
  1 33  1  0
  2 10  1  0
  3 19  1  0
  4  5  1  0
  6 23  1  0
  8 26  2  3
 10 23  2  0
 11 32  1  0
 12  7  1  0
 13 22  1  0
 14 24  1  0
 15 20  2  0
 15 18  1  0
 16 26  1  0
 16  3  1  0
 17 27  1  0
 18  1  2  0
 19  2  1  0
 20 30  1  0
 21 28  1  0
 22  9  2  0
 22 17  1  0
 23 14  1  0
 24  4  1  0
 25 31  1  0
 25  2  2  0
 26 25  1  0
 27  8  1  0
 28 12  2  0
 29 13  1  0
 30 11  1  0
 30 21  2  0
 31  6  2  0
 32 17  2  3
 32 28  1  0
 33  7  2  0
 34  4  2  0
  3 35  1  0
  3 36  1  0
  6 37  1  0
  7 38  1  0
 10 39  1  0
 11 40  1  0
 12 41  1  0
 13 42  1  0
 14 43  1  0
 15 44  1  0
 16 45  1  0
 16 46  1  0
 18 47  1  0
 19 48  1  0
 19 49  1  0
 20 50  1  0
 24 51  1  0
 24 52  1  0
 27 53  1  0
 29 54  1  0
 29 55  1  0
 29 56  1  0
 33 57  1  0
M  CHG  1   5  -1
M  END
>  <mol_id>  (42) 
2026-08-23-6tgu-s0-n100-prep-0043

>  <rmsd_to_ref>  (42) 


$$$$

     RDKit          3D

 32 34  0  0  0  0  0  0  0  0999 V2000
    0.8290   21.6242   41.5750 C   0  0  0  0  0  0  0  0  0  0  0  0
    2.8666   18.0291   38.9629 C   0  0  0  0  0  0  0  0  0  0  0  0
    1.8249   18.4839   41.1012 N   0  0  0  0  0  0  0  0  0  0  0  0
    3.2564   18.1963   37.6429 C   0  0  0  0  0  0  0  0  0  0  0  0
    2.3088   19.0577   39.6544 C   0  0  0  0  0  0  0  0  0  0  0  0
    2.5246   20.3492   37.5803 C   0  0  0  0  0  0  0  0  0  0  0  0
    1.3865   19.4589   41.4373 C   0  0  0  0  0  0  0  0  0  0  0  0
    2.9417   19.2582   36.9508 N   0  0  0  0  0  0  0  0  0  0  0  0
    0.3626   18.7774   43.2630 C   0  0  0  0  0  0  0  0  0  0  0  0
   -0.3405   17.2772   44.6084 C   0  0  0  0  0  0  0  0  0  0  0  0
    0.6648   19.6936   42.4545 C   0  0  2  0  0  0  0  0  0  0  0  0
    2.1597   20.2490   38.9266 C   0  0  0  0  0  0  0  0  0  0  0  0
   -0.6048   15.7994   45.3614 Cl  0  0  0  0  0  0  0  0  0  0  0  0
   -0.3753   19.5296   44.3309 C   0  0  0  0  0  0  0  0  0  0  0  0
    2.4551   21.3924   36.8757 O   0  0  0  0  0  0  0  0  0  0  0  0
    0.3664   17.4857   43.3907 C   0  0  0  0  0  0  0  0  0  0  0  0
    0.3690   20.8350   42.6437 C   0  0  0  0  0  0  0  0  0  0  0  0
   -0.6960   18.4820   45.0037 N   0  0  0  0  0  0  0  0  0  0  0  0
    3.8590   17.2357   37.0596 O   0  0  0  0  0  0  0  0  0  0  0  0
    1.3436   20.7429   41.1328 N   0  0  0  0  0  0  0  0  0  0  0  0
   -0.4251   21.6963   43.2572 O   0  0  0  0  0  0  0  0  0  0  0  0
    0.7230   22.6818   41.2917 H   0  0  0  0  0  0  0  0  0  0  0  0
    3.0099   17.0557   39.4547 H   0  0  0  0  0  0  0  0  0  0  0  0
    1.8963   17.5579   41.5465 H   0  0  0  0  0  0  0  0  0  0  0  0
    3.0168   19.2489   35.9236 H   0  0  0  0  0  0  0  0  0  0  0  0
    1.5696   19.8267   43.0657 H   0  0  0  0  0  0  0  0  0  0  0  0
    2.7458   21.0110   39.4612 H   0  0  0  0  0  0  0  0  0  0  0  0
    1.0656   20.3513   38.8758 H   0  0  0  0  0  0  0  0  0  0  0  0
    0.2703   20.2201   44.8935 H   0  0  0  0  0  0  0  0  0  0  0  0
   -1.1860   20.2026   44.0151 H   0  0  0  0  0  0  0  0  0  0  0  0
    0.8088   16.7341   42.7202 H   0  0  0  0  0  0  0  0  0  0  0  0
   -0.9116   21.4248   44.0756 H   0  0  0  0  0  0  0  0  0  0  0  0
  1 17  2  0
  2  5  2  0
  3  7  1  0
  4  2  1  0
  5  3  1  0
  6 12  1  0
  7 11  1  0
  8  6  1  0
  8  4  1  0
  9 16  2  0
  9 14  1  0
 10 18  2  0
 10 13  1  0
 11 17  1  0
 11  9  1  0
 12  5  1  0
 14 18  1  0
 15  6  2  0
 16 10  1  0
 17 21  1  0
 19  4  2  0
 20  7  2  0
 20  1  1  0
  1 22  1  0
  2 23  1  0
  3 24  1  0
  8 25  1  0
 11 26  1  6
 12 27  1  0
 12 28  1  0
 14 29  1  0
 14 30  1  0
 16 31  1  0
 21 32  1  0
M  END
>  <mol_id>  (43) 
2026-08-23-6tgu-s0-n100-prep-0044

>  <rmsd_to_ref>  (43) 


$$$$

     RDKit          3D

 55 58  0  0  0  0  0  0  0  0999 V2000
   -0.7164   14.2229   46.0054 C   0  0  0  0  0  0  0  0  0  0  0  0
   -1.7243   13.2734   46.6441 C   0  0  0  0  0  0  0  0  0  0  0  0
    1.8481   20.6455   40.4518 C   0  0  0  0  0  0  0  0  0  0  0  0
    2.5798   20.1630   39.3804 C   0  0  1  0  0  0  0  0  0  0  0  0
    3.5261   15.8624   38.5818 C   0  0  0  0  0  0  0  0  0  0  0  0
   -1.9133   18.7623   43.2223 C   0  0  0  0  0  0  0  0  0  0  0  0
   -0.7936   15.8826   44.5251 N   0  0  0  0  0  0  0  0  0  0  0  0
    4.2746   14.8460   38.0924 O   0  0  0  0  0  0  0  0  0  0  0  0
   -0.6144   18.0472   43.7338 C   0  0  2  0  0  0  0  0  0  0  0  0
   -1.3645   14.7336   44.7424 N   0  0  0  0  0  0  0  0  0  0  0  0
    3.0787   20.9728   38.2117 C   0  0  0  0  0  0  0  0  0  0  0  0
    2.8792   18.8540   39.3266 N   0  0  0  0  0  0  0  0  0  0  0  0
    2.7259   22.3250   38.1269 N   0  0  0  0  0  0  0  0  0  0  0  0
    4.0302   16.9940   38.1036 C   0  0  0  0  0  0  0  0  0  0  0  0
   -2.5884   12.6530   44.4488 C   0  0  0  0  0  0  0  0  0  0  0  0
    0.7879   19.7551   42.3615 N   0  0  0  0  0  0  0  0  0  0  0  0
    0.5949   18.5316   42.9411 C   0  0  0  0  0  0  0  0  0  0  0  0
    5.0640   16.7222   37.2893 N   0  0  0  0  0  0  0  0  0  0  0  0
   -1.4296   13.5496   43.9228 C   0  0  0  0  0  0  0  0  0  0  0  0
    5.2667   15.3966   37.2632 C   0  0  0  0  0  0  0  0  0  0  0  0
    1.4872   17.6934   42.6083 O   0  0  0  0  0  0  0  0  0  0  0  0
    3.5568   18.3758   38.2299 C   0  0  0  0  0  0  0  0  0  0  0  0
    4.0232   19.0863   37.2643 N   0  0  0  0  0  0  0  0  0  0  0  0
   -2.0495   12.1305   45.7089 O   0  0  0  0  0  0  0  0  0  0  0  0
    1.4682   19.6125   41.3056 C   0  0  0  0  0  0  0  0  0  0  0  0
    1.4564   21.9189   40.7839 C   0  0  0  0  0  0  0  0  0  0  0  0
   -0.8463   16.5886   43.4797 N   0  0  0  0  0  0  0  0  0  0  0  0
    0.5708   22.0617   41.8470 C   0  0  0  0  0  0  0  0  0  0  0  0
    0.2638   20.9789   42.6632 C   0  0  0  0  0  0  0  0  0  0  0  0
    3.7837   20.4186   37.2144 N   0  0  0  0  0  0  0  0  0  0  0  0
   -0.4950   15.0586   46.6857 H   0  0  0  0  0  0  0  0  0  0  0  0
    0.2351   13.7142   45.7914 H   0  0  0  0  0  0  0  0  0  0  0  0
   -1.2996   12.8688   47.5747 H   0  0  0  0  0  0  0  0  0  0  0  0
   -2.6489   13.8302   46.8567 H   0  0  0  0  0  0  0  0  0  0  0  0
    1.6471   19.9724   38.8293 H   0  0  0  0  0  0  0  0  0  0  0  0
    2.6594   15.7681   39.2525 H   0  0  0  0  0  0  0  0  0  0  0  0
   -2.5719   18.9810   44.0758 H   0  0  0  0  0  0  0  0  0  0  0  0
   -1.6408   19.7018   42.7194 H   0  0  0  0  0  0  0  0  0  0  0  0
   -2.4383   18.1057   42.5129 H   0  0  0  0  0  0  0  0  0  0  0  0
   -1.1477   16.4960   45.2729 H   0  0  0  0  0  0  0  0  0  0  0  0
   -0.4160   18.2560   44.7955 H   0  0  0  0  0  0  0  0  0  0  0  0
    3.0572   22.8950   37.3355 H   0  0  0  0  0  0  0  0  0  0  0  0
    2.1350   22.7498   38.8558 H   0  0  0  0  0  0  0  0  0  0  0  0
   -2.8097   11.8378   43.7442 H   0  0  0  0  0  0  0  0  0  0  0  0
   -3.5369   13.1961   44.5731 H   0  0  0  0  0  0  0  0  0  0  0  0
   -0.4779   13.0016   43.9850 H   0  0  0  0  0  0  0  0  0  0  0  0
   -1.6106   13.8251   42.8733 H   0  0  0  0  0  0  0  0  0  0  0  0
    6.0464   14.8539   36.7088 H   0  0  0  0  0  0  0  0  0  0  0  0
    4.5827   18.6391   36.5241 H   0  0  0  0  0  0  0  0  0  0  0  0
    0.8951   18.9119   40.6805 H   0  0  0  0  0  0  0  0  0  0  0  0
    2.4443   19.3427   41.7350 H   0  0  0  0  0  0  0  0  0  0  0  0
    1.8288   22.7934   40.2301 H   0  0  0  0  0  0  0  0  0  0  0  0
   -1.7783   16.4752   43.0560 H   0  0  0  0  0  0  0  0  0  0  0  0
    0.1090   23.0405   42.0438 H   0  0  0  0  0  0  0  0  0  0  0  0
   -0.3908   21.1064   43.5380 H   0  0  0  0  0  0  0  0  0  0  0  0
  1  2  1  0
  3 26  2  0
  3 25  1  0
  4 12  1  0
  4  3  1  0
  7 10  1  0
  8  5  1  0
  9  6  1  0
 10  1  1  0
 11  4  1  0
 13 11  1  0
 14 22  1  0
 14  5  2  0
 15 24  1  0
 16 29  1  0
 16 17  1  0
 17  9  1  0
 18 20  2  0
 18 14  1  0
 19 15  1  0
 19 10  1  0
 20  8  1  0
 21 17  2  0
 22 12  2  0
 23 22  1  0
 24  2  1  0
 25 16  1  0
 26 28  1  0
 27  9  1  0
 27  7  1  0
 28 29  2  0
 30 23  1  0
 30 11  2  0
  1 31  1  0
  1 32  1  0
  2 33  1  0
  2 34  1  0
  4 35  1  6
  5 36  1  0
  6 37  1  0
  6 38  1  0
  6 39  1  0
  7 40  1  0
  9 41  1  1
 13 42  1  0
 13 43  1  0
 15 44  1  0
 15 45  1  0
 19 46  1  0
 19 47  1  0
 20 48  1  0
 23 49  1  0
 25 50  1  0
 25 51  1  0
 26 52  1  0
 27 53  1  0
 28 54  1  0
 29 55  1  0
M  END
>  <mol_id>  (44) 
2026-08-23-6tgu-s0-n100-prep-0045

>  <rmsd_to_ref>  (44) 


$$$$

     RDKit          3D

 59 65  0  0  0  0  0  0  0  0999 V2000
    0.2397   14.1974   45.7354 C   0  0  0  0  0  0  0  0  0  0  0  0
    1.6766   21.3340   41.9466 C   0  0  0  0  0  0  0  0  0  0  0  0
    0.6758   19.5609   43.7080 C   0  0  0  0  0  0  0  0  0  0  0  0
    0.0793   20.3724   44.3183 O   0  0  0  0  0  0  0  0  0  0  0  0
    2.0631   21.1553   40.5073 O   0  0  0  0  0  0  0  0  0  0  0  0
    3.6251   16.5558   37.4294 C   0  0  0  0  0  0  0  0  0  0  0  0
    1.7736   21.1867   37.7118 O   0  0  0  0  0  0  0  0  0  0  0  0
    3.0531   19.8425   36.5063 C   0  0  0  0  0  0  0  0  0  0  0  0
    2.2107   21.9725   35.5604 C   0  0  0  0  0  0  0  0  0  0  0  0
    2.3716   15.0362   40.2762 O   0  0  0  0  0  0  0  0  0  0  0  0
    1.9304   17.2268   40.6276 C   0  0  2  0  0  0  0  0  0  0  0  0
    1.3142   19.9708   42.4411 C   0  0  0  0  0  0  0  0  0  0  0  0
    2.2683   19.1273   39.0127 C   0  0  2  0  0  0  0  0  0  0  0  0
    0.4799   16.5416   46.0481 C   0  0  0  0  0  0  0  0  0  0  0  0
    3.7991   14.4450   36.9715 C   0  0  0  0  0  0  0  0  0  0  0  0
    2.4634   16.4334   39.6875 C   0  0  2  0  0  0  0  0  0  0  0  0
    4.1066   15.6802   36.4992 C   0  0  0  0  0  0  0  0  0  0  0  0
    0.4914   15.4206   45.2666 C   0  0  0  0  0  0  0  0  0  0  0  0
    2.3598   20.9575   36.6398 C   0  0  0  0  0  0  0  0  0  0  0  0
    2.0894   17.6813   39.3599 C   0  0  1  0  0  0  0  0  0  0  0  0
    1.3877   17.3064   42.9706 C   0  0  0  0  0  0  0  0  0  0  0  0
    3.1461   15.8262   38.4906 C   0  0  1  0  0  0  0  0  0  0  0  0
    0.7386   18.1230   44.1696 C   0  0  0  0  0  0  0  0  0  0  0  0
    0.0942   14.0170   47.1382 C   0  0  0  0  0  0  0  0  0  0  0  0
    0.2247   16.4101   47.4258 C   0  0  0  0  0  0  0  0  0  0  0  0
    3.2990   19.0863   37.8370 C   0  0  1  0  0  0  0  0  0  0  0  0
    1.6067   17.7963   41.7356 C   0  0  1  0  0  0  0  0  0  0  0  0
    0.0114   12.8396   47.5832 O   0  0  0  0  0  0  0  0  0  0  0  0
    2.2553   23.4024   35.9487 C   0  0  0  0  0  0  0  0  0  0  0  0
    0.6999   17.8344   45.5374 N   0  0  0  0  0  0  0  0  0  0  0  0
    1.6629   19.1545   41.4812 C   0  0  0  0  0  0  0  0  0  0  0  0
    0.7035   15.3633   43.9490 F   0  0  0  0  0  0  0  0  0  0  0  0
    2.1993   21.6248   34.3332 O   0  0  0  0  0  0  0  0  0  0  0  0
    3.1933   14.5245   38.1686 C   0  0  0  0  0  0  0  0  0  0  0  0
    3.4854   17.8277   37.2555 O   0  0  0  0  0  0  0  0  0  0  0  0
    2.3943   19.7583   40.4167 C   0  0  2  0  0  0  0  0  0  0  0  0
   -0.0051   15.0997   47.9423 C   0  0  0  0  0  0  0  0  0  0  0  0
    0.1462   13.3433   45.0487 H   0  0  0  0  0  0  0  0  0  0  0  0
    0.8159   22.0138   42.0308 H   0  0  0  0  0  0  0  0  0  0  0  0
    2.4951   21.7747   42.5347 H   0  0  0  0  0  0  0  0  0  0  0  0
    4.0295   20.0935   36.0662 H   0  0  0  0  0  0  0  0  0  0  0  0
    2.4581   19.1738   35.8669 H   0  0  0  0  0  0  0  0  0  0  0  0
    2.5656   15.0735   41.2463 H   0  0  0  0  0  0  0  0  0  0  0  0
    1.5854   16.9832   41.6433 H   0  0  0  0  0  0  0  0  0  0  0  0
    1.5388   19.8120   38.5556 H   0  0  0  0  0  0  0  0  0  0  0  0
    4.0169   13.5044   36.4444 H   0  0  0  0  0  0  0  0  0  0  0  0
    4.6326   15.9240   35.5645 H   0  0  0  0  0  0  0  0  0  0  0  0
    1.7903   17.9999   38.3504 H   0  0  0  0  0  0  0  0  0  0  0  0
    1.6797   16.2637   43.1640 H   0  0  0  0  0  0  0  0  0  0  0  0
    3.4777   15.9973   39.5254 H   0  0  0  0  0  0  0  0  0  0  0  0
    0.2029   17.2908   48.0846 H   0  0  0  0  0  0  0  0  0  0  0  0
    4.0969   19.5359   38.4462 H   0  0  0  0  0  0  0  0  0  0  0  0
    0.5421   17.6620   41.4935 H   0  0  0  0  0  0  0  0  0  0  0  0
    2.4608   23.4835   37.0263 H   0  0  0  0  0  0  0  0  0  0  0  0
    3.0508   23.9110   35.3844 H   0  0  0  0  0  0  0  0  0  0  0  0
    1.2872   23.8738   35.7236 H   0  0  0  0  0  0  0  0  0  0  0  0
    2.8105   13.6853   38.7681 H   0  0  0  0  0  0  0  0  0  0  0  0
    3.4714   19.5766   40.5465 H   0  0  0  0  0  0  0  0  0  0  0  0
   -0.2652   14.9693   49.0031 H   0  0  0  0  0  0  0  0  0  0  0  0
  1 24  1  0
  2 12  1  0
  3  4  2  0
  3 23  1  0
  5  2  1  0
  6 22  1  0
  8 26  1  0
  9 29  1  0
  9 19  1  0
 11 27  1  0
 12  3  1  0
 13 20  1  0
 13 36  1  0
 14 25  1  0
 15 34  2  0
 16 10  1  6
 16 11  1  0
 17 15  1  0
 17  6  2  0
 18  1  2  0
 18 14  1  0
 19  8  1  0
 19  7  2  0
 20 16  1  0
 20 11  1  0
 21 23  2  0
 22 16  1  0
 23 30  1  0
 24 28  2  0
 24 37  1  0
 25 37  2  0
 26 13  1  0
 27 21  1  0
 30 14  2  3
 31 27  1  0
 31 12  2  0
 32 18  1  0
 33  9  2  0
 34 22  1  0
 35  6  1  0
 35 26  1  0
 36  5  1  0
 36 31  1  0
  1 38  1  0
  2 39  1  0
  2 40  1  0
  8 41  1  0
  8 42  1  0
 10 43  1  0
 11 44  1  6
 13 45  1  6
 15 46  1  0
 17 47  1  0
 20 48  1  6
 21 49  1  0
 22 50  1  1
 25 51  1  0
 26 52  1  1
 27 53  1  6
 29 54  1  0
 29 55  1  0
 29 56  1  0
 34 57  1  0
 36 58  1  1
 37 59  1  0
M  END
>  <mol_id>  (45) 
2026-08-23-6tgu-s0-n100-prep-0046

>  <rmsd_to_ref>  (45) 


$$$$

     RDKit          3D

 43 46  0  0  0  0  0  0  0  0999 V2000
   -0.1840   19.5330   43.2230 C   0  0  0  0  0  0  0  0  0  0  0  0
    1.6930   15.4540   41.4440 C   0  0  0  0  0  0  0  0  0  0  0  0
    3.7460   14.9150   38.4400 C   0  0  0  0  0  0  0  0  0  0  0  0
    2.0260   13.9980   41.4430 C   0  0  1  0  0  0  0  0  0  0  0  0
    2.8000   22.0270   36.5720 F   0  0  0  0  0  0  0  0  0  0  0  0
    2.1560   16.0550   40.3920 C   0  0  0  0  0  0  0  0  0  0  0  0
    0.6770   20.5260   41.4170 C   0  0  0  0  0  0  0  0  0  0  0  0
    1.5070   12.9500   42.3950 C   0  0  0  0  0  0  0  0  0  0  0  0
    2.8710   18.2410   37.9940 C   0  0  0  0  0  0  0  0  0  0  0  0
   -1.1100   18.4590   45.1350 O   0  0  0  0  0  0  0  0  0  0  0  0
    1.8170   17.5370   40.4250 C   0  0  0  0  0  0  0  0  0  0  0  0
    2.2260   20.6820   38.3430 C   0  0  0  0  0  0  0  0  0  0  0  0
    2.6810   17.2970   38.4670 O   0  0  0  0  0  0  0  0  0  0  0  0
    0.6780   16.9680   42.3770 N   0  0  0  0  0  0  0  0  0  0  0  0
    3.5730   19.8760   36.3880 C   0  0  0  0  0  0  0  0  0  0  0  0
   -0.4950   18.4190   44.0290 C   0  0  0  0  0  0  0  0  0  0  0  0
    2.0860   18.6100   39.7720 C   0  0  0  0  0  0  0  0  0  0  0  0
    2.9060   14.9490   39.7120 C   0  0  0  0  0  0  0  0  0  0  0  0
    3.5790   18.5340   36.8310 C   0  0  0  0  0  0  0  0  0  0  0  0
   -0.5370   20.7710   43.4240 N   0  0  0  0  0  0  0  0  0  0  0  0
    2.2090   19.4060   38.7940 C   0  0  0  0  0  0  0  0  0  0  0  0
   -0.0840   17.0500   43.5620 C   0  0  0  0  0  0  0  0  0  0  0  0
    2.7900   13.7010   40.5590 N   0  0  0  0  0  0  0  0  0  0  0  0
   -0.0750   21.3950   42.4340 C   0  0  0  0  0  0  0  0  0  0  0  0
    0.5690   19.2550   42.0810 C   0  0  0  0  0  0  0  0  0  0  0  0
    1.0190   17.9540   41.7330 C   0  0  0  0  0  0  0  0  0  0  0  0
    2.8330   20.8390   37.0890 C   0  0  0  0  0  0  0  0  0  0  0  0
    1.1240   15.9558   42.2405 H   0  0  0  0  0  0  0  0  0  0  0  0
    4.8125   14.8718   38.7059 H   0  0  0  0  0  0  0  0  0  0  0  0
    3.4794   14.0269   37.8482 H   0  0  0  0  0  0  0  0  0  0  0  0
    3.5521   15.8217   37.8482 H   0  0  0  0  0  0  0  0  0  0  0  0
    2.8731   14.1913   42.1176 H   0  0  0  0  0  0  0  0  0  0  0  0
    1.1560   20.7951   40.4640 H   0  0  0  0  0  0  0  0  0  0  0  0
    1.6714   13.2819   43.4308 H   0  0  0  0  0  0  0  0  0  0  0  0
    0.4307   12.8004   42.2243 H   0  0  0  0  0  0  0  0  0  0  0  0
    2.0404   12.0032   42.2243 H   0  0  0  0  0  0  0  0  0  0  0  0
    1.8006   21.5226   38.9108 H   0  0  0  0  0  0  0  0  0  0  0  0
    4.1475   20.1645   35.4954 H   0  0  0  0  0  0  0  0  0  0  0  0
    4.1213   17.7520   36.2792 H   0  0  0  0  0  0  0  0  0  0  0  0
   -1.0738   21.1531   44.2157 H   0  0  0  0  0  0  0  0  0  0  0  0
   -1.0027   16.4660   43.4042 H   0  0  0  0  0  0  0  0  0  0  0  0
    0.5831   16.6729   44.3512 H   0  0  0  0  0  0  0  0  0  0  0  0
   -0.2005   22.4804   42.3071 H   0  0  0  0  0  0  0  0  0  0  0  0
  1 20  1  0
  1 16  1  0
  3 18  1  0
  4  2  1  0
  4  8  1  0
  5 27  1  0
  6 11  1  0
  6  2  2  0
  7 25  1  0
  7 24  2  0
  9 13  2  0
  9 21  1  0
 11 26  1  0
 12 21  1  0
 14 22  1  0
 15 19  2  0
 15 27  1  0
 16 10  2  0
 17 11  2  0
 18  6  1  0
 18 23  2  0
 19  9  1  0
 21 17  2  0
 22 16  1  0
 23  4  1  0
 24 20  1  0
 25  1  2  0
 26 25  1  0
 26 14  2  0
 27 12  2  0
  2 28  1  0
  3 29  1  0
  3 30  1  0
  3 31  1  0
  4 32  1  1
  7 33  1  0
  8 34  1  0
  8 35  1  0
  8 36  1  0
 12 37  1  0
 15 38  1  0
 19 39  1  0
 20 40  1  0
 22 41  1  0
 22 42  1  0
 24 43  1  0
M  END
>  <mol_id>  (46) 
2026-08-23-6tgu-s0-n100-prep-0047

>  <rmsd_to_ref>  (46) 


$$$$

     RDKit          3D

 59 62  0  0  0  0  0  0  0  0999 V2000
    2.5811   18.5476   39.4847 C   0  0  0  0  0  0  0  0  0  0  0  0
    2.9329   16.0676   38.4691 C   0  0  0  0  0  0  0  0  0  0  0  0
   -0.1249   14.0476   46.0644 N   0  0  0  0  0  0  0  0  0  0  0  0
    0.2937   11.9095   44.1808 S   0  0  0  0  0  4  0  0  0  0  0  0
    2.3731   17.4034   40.3089 N   0  0  0  0  0  0  0  0  0  0  0  0
   -0.1974   13.8514   48.3886 O   0  0  0  0  0  0  0  0  0  0  0  0
    1.4910   14.4103   43.0712 C   0  0  0  0  0  0  0  0  0  0  0  0
    2.7569   12.6092   41.0790 C   0  0  0  0  0  0  0  0  0  0  0  0
    1.2477   12.9989   43.1661 C   0  0  2  0  0  0  0  0  0  0  0  0
    3.1519   19.3967   37.1754 N   0  0  0  0  0  0  0  0  0  0  0  0
    0.2110   18.9901   44.3760 C   0  0  2  0  0  0  0  0  0  0  0  0
    2.1298   20.5434   39.5041 C   0  0  0  0  0  0  0  0  0  0  0  0
    0.0420   17.9615   45.7729 S   0  0  0  0  0  0  0  0  0  0  0  0
    2.0401   21.0569   38.3788 C   0  0  0  0  0  0  0  0  0  0  0  0
    3.0766   17.1635   37.7412 C   0  0  0  0  0  0  0  0  0  0  0  0
   -0.1642   14.6583   47.3833 C   0  0  0  0  0  0  0  0  0  0  0  0
   -0.3376   12.5971   45.8043 C   0  0  0  0  0  0  0  0  0  0  0  0
    0.4797   17.2737   44.2705 C   0  0  0  0  0  0  0  0  0  0  0  0
   -0.1586   16.0397   47.5006 O   0  0  0  0  0  0  0  0  0  0  0  0
    0.7337   19.6551   43.1673 C   0  0  0  0  0  0  0  0  0  0  0  0
    1.7963   20.1406   40.9331 C   0  0  0  0  0  0  0  0  0  0  0  0
    2.9338   13.6894   40.2566 C   0  0  0  0  0  0  0  0  0  0  0  0
   -1.4209   11.9079   46.5522 C   0  0  0  0  0  0  0  0  0  0  0  0
    1.9380   15.1159   41.9510 C   0  0  0  0  0  0  0  0  0  0  0  0
   -0.1235   17.0681   48.4422 C   0  0  0  0  0  0  0  0  0  0  0  0
    3.0981   21.4521   36.2093 O   0  0  0  0  0  0  0  0  0  0  0  0
    1.2788   19.0695   41.9894 N   0  0  0  0  0  0  0  0  0  0  0  0
    2.0647   12.3552   42.2012 C   0  0  0  0  0  0  0  0  0  0  0  0
    2.5102   14.8924   40.7279 C   0  0  0  0  0  0  0  0  0  0  0  0
    2.7516   20.6920   37.1851 C   0  0  0  0  0  0  0  0  0  0  0  0
    2.5869   16.1683   39.8343 C   0  0  0  0  0  0  0  0  0  0  0  0
    0.7684   20.9398   42.9728 N   0  0  0  0  0  0  0  0  0  0  0  0
    2.9052   18.5092   38.2184 C   0  0  0  0  0  0  0  0  0  0  0  0
    1.2022   21.1671   41.7211 C   0  0  0  0  0  0  0  0  0  0  0  0
    2.4599   19.5375   39.9488 H   0  0  0  0  0  0  0  0  0  0  0  0
    3.0830   15.0789   38.0108 H   0  0  0  0  0  0  0  0  0  0  0  0
    0.0624   14.6588   45.2567 H   0  0  0  0  0  0  0  0  0  0  0  0
    0.0285   10.6215   43.7968 H   0  0  0  0  0  0  0  0  0  0  0  0
    1.3053   15.0013   43.9802 H   0  0  0  0  0  0  0  0  0  0  0  0
    3.3225   11.7308   40.7348 H   0  0  0  0  0  0  0  0  0  0  0  0
    2.0973   12.8989   43.8576 H   0  0  0  0  0  0  0  0  0  0  0  0
    3.6658   19.0512   36.3523 H   0  0  0  0  0  0  0  0  0  0  0  0
   -0.1661   20.0210   44.4479 H   0  0  0  0  0  0  0  0  0  0  0  0
    1.3306   21.8921   38.2831 H   0  0  0  0  0  0  0  0  0  0  0  0
    3.3498   17.0344   36.6835 H   0  0  0  0  0  0  0  0  0  0  0  0
   -0.2371   16.6390   43.7286 H   0  0  0  0  0  0  0  0  0  0  0  0
    1.3086   16.6402   43.9216 H   0  0  0  0  0  0  0  0  0  0  0  0
    3.3958   13.5890   39.2634 H   0  0  0  0  0  0  0  0  0  0  0  0
   -1.1825   11.9081   47.6261 H   0  0  0  0  0  0  0  0  0  0  0  0
   -2.3725   12.4347   46.3878 H   0  0  0  0  0  0  0  0  0  0  0  0
   -1.5097   10.8708   46.1965 H   0  0  0  0  0  0  0  0  0  0  0  0
    1.7796   16.1943   42.0994 H   0  0  0  0  0  0  0  0  0  0  0  0
    0.0575   16.6447   49.4411 H   0  0  0  0  0  0  0  0  0  0  0  0
    0.6851   17.7695   48.1891 H   0  0  0  0  0  0  0  0  0  0  0  0
   -1.0857   17.6012   48.4388 H   0  0  0  0  0  0  0  0  0  0  0  0
    2.1647   11.2906   42.4590 H   0  0  0  0  0  0  0  0  0  0  0  0
    0.5080   21.6608   43.6608 H   0  0  0  0  0  0  0  0  0  0  0  0
    1.9494   21.9710   41.7947 H   0  0  0  0  0  0  0  0  0  0  0  0
    0.2633   21.3602   41.1815 H   0  0  0  0  0  0  0  0  0  0  0  0
  1  5  2  0
  2 31  2  0
  3 16  1  0
  4 17  2  3
  7  9  1  0
  8 28  2  0
  9  4  1  0
 10 33  1  0
 11 20  1  0
 11 18  1  0
 11 13  1  0
 12 21  2  0
 14 12  2  0
 15 33  2  0
 15  2  1  0
 16 19  1  0
 16  6  2  0
 17  3  1  0
 17 23  1  0
 18 13  1  0
 19 25  1  0
 21 34  1  0
 21 27  1  0
 22 29  2  0
 22  8  1  0
 24  7  2  0
 26 30  2  0
 27 20  2  0
 28  9  1  0
 29 24  1  0
 30 10  1  0
 30 14  1  0
 31  5  1  0
 31 29  1  0
 32 20  1  0
 33  1  1  0
 34 32  1  0
  1 35  1  0
  2 36  1  0
  3 37  1  0
  4 38  1  0
  7 39  1  0
  8 40  1  0
  9 41  1  6
 10 42  1  0
 11 43  1  6
 14 44  1  0
 15 45  1  0
 18 46  1  0
 18 47  1  0
 22 48  1  0
 23 49  1  0
 23 50  1  0
 23 51  1  0
 24 52  1  0
 25 53  1  0
 25 54  1  0
 25 55  1  0
 28 56  1  0
 32 57  1  0
 34 58  1  0
 34 59  1  0
M  END
>  <mol_id>  (47) 
2026-08-23-6tgu-s0-n100-prep-0048

>  <rmsd_to_ref>  (47) 


$$$$

     RDKit          3D

 30 32  0  0  0  0  0  0  0  0999 V2000
    0.0554   21.0682   42.5709 C   0  0  0  0  0  0  0  0  0  0  0  0
    1.0089   19.0479   41.3996 C   0  0  0  0  0  0  0  0  0  0  0  0
    0.4168   18.2873   42.5706 C   0  0  0  0  0  0  0  0  0  0  0  0
    2.0766   21.4221   37.9890 C   0  0  0  0  0  0  0  0  0  0  0  0
    2.8863   21.2023   37.1496 O   0  0  0  0  0  0  0  0  0  0  0  0
    1.3098   22.4494   37.9150 O   0  0  0  0  0  0  0  0  0  0  0  0
   -0.4753   20.2814   43.5493 N   0  0  0  0  0  0  0  0  0  0  0  0
    3.9453   15.1511   37.3548 C   0  0  0  0  0  0  0  0  0  0  0  0
    0.7318   20.4580   41.4192 C   0  0  0  0  0  0  0  0  0  0  0  0
    1.2390   21.1488   40.3409 C   0  0  0  0  0  0  0  0  0  0  0  0
    1.8813   20.5698   39.2516 C   0  0  0  0  0  0  0  0  0  0  0  0
    2.1376   17.0683   40.1417 C   0  0  0  0  0  0  0  0  0  0  0  0
    3.4229   15.4857   38.6343 C   0  0  0  0  0  0  0  0  0  0  0  0
    0.7085   17.0006   42.5701 O   0  0  0  0  0  0  0  0  0  0  0  0
   -0.0654   22.2768   42.6070 O   0  0  0  0  0  0  0  0  0  0  0  0
    3.3431   18.2412   38.1782 S   0  0  0  0  0  0  0  0  0  0  0  0
   -0.3130   18.9282   43.5386 C   0  0  0  0  0  0  0  0  0  0  0  0
    2.2779   19.2033   39.2581 C   0  0  0  0  0  0  0  0  0  0  0  0
    2.8793   16.8100   39.0506 C   0  0  0  0  0  0  0  0  0  0  0  0
    1.7829   18.4577   40.3331 C   0  0  0  0  0  0  0  0  0  0  0  0
   -1.0104   20.7189   44.3129 H   0  0  0  0  0  0  0  0  0  0  0  0
    4.7899   14.4564   37.4738 H   0  0  0  0  0  0  0  0  0  0  0  0
    3.1595   14.6731   36.7515 H   0  0  0  0  0  0  0  0  0  0  0  0
    4.2907   16.0650   36.8493 H   0  0  0  0  0  0  0  0  0  0  0  0
    1.1274   22.2431   40.3414 H   0  0  0  0  0  0  0  0  0  0  0  0
    1.8226   16.2787   40.8398 H   0  0  0  0  0  0  0  0  0  0  0  0
    2.6017   14.7735   38.8032 H   0  0  0  0  0  0  0  0  0  0  0  0
    4.3544   15.4786   39.2194 H   0  0  0  0  0  0  0  0  0  0  0  0
    0.3690   16.4158   43.2932 H   0  0  0  0  0  0  0  0  0  0  0  0
   -0.7831   18.3302   44.3332 H   0  0  0  0  0  0  0  0  0  0  0  0
  1  7  1  0
  2  3  1  0
  3 14  1  0
  3 17  2  0
  4 11  1  0
  5  4  2  0
  6  4  1  0
  7 17  1  0
  8 13  1  0
  9  2  1  0
  9  1  1  0
 10  9  2  0
 11 18  2  0
 11 10  1  0
 12 20  1  0
 13 19  1  0
 15  1  2  0
 16 18  1  0
 16 19  1  0
 18 20  1  0
 19 12  2  0
 20  2  2  0
  7 21  1  0
  8 22  1  0
  8 23  1  0
  8 24  1  0
 10 25  1  0
 12 26  1  0
 13 27  1  0
 13 28  1  0
 14 29  1  0
 17 30  1  0
M  CHG  1   6  -1
M  END
>  <mol_id>  (48) 
2026-08-23-6tgu-s0-n100-prep-0049

>  <rmsd_to_ref>  (48) 


$$$$

     RDKit          3D

 46 48  0  0  0  0  0  0  0  0999 V2000
    1.1927   17.0567   43.1947 O   0  0  0  0  0  0  0  0  0  0  0  0
    2.5938   20.7775   35.9637 O   0  0  0  0  0  0  0  0  0  0  0  0
    1.0076   18.9361   41.7839 C   0  0  0  0  0  0  0  0  0  0  0  0
    0.7307   21.0187   40.1843 C   0  0  0  0  0  0  0  0  0  0  0  0
    1.8937   15.9488   43.0173 C   0  0  2  0  0  0  0  0  0  0  0  0
    2.2738   19.8378   40.0858 C   0  0  2  0  0  0  0  0  0  0  0  0
    0.9529   21.2543   38.8075 C   0  0  0  0  0  0  0  0  0  0  0  0
    3.3512   18.2985   36.8278 O   0  0  0  0  0  0  0  0  0  0  0  0
    0.0864   15.3085   44.1577 C   0  0  1  0  0  0  0  0  0  0  0  0
    2.8560   18.4808   40.2382 C   0  0  0  0  0  0  0  0  0  0  0  0
    0.5934   14.7465   45.3860 O   0  0  0  0  0  0  0  0  0  0  0  0
    2.0343   20.1779   38.1692 C   0  0  0  0  0  0  0  0  0  0  0  0
   -0.6482   19.7433   43.7473 C   0  0  0  0  0  0  0  0  0  0  0  0
    2.3838   20.4865   36.8802 C   0  0  0  0  0  0  0  0  0  0  0  0
    2.8999   18.4706   38.2317 C   0  0  0  0  0  0  0  0  0  0  0  0
   -0.5160   17.6065   45.2192 C   0  0  0  0  0  0  0  0  0  0  0  0
    1.7655   18.8364   40.2983 C   0  0  1  0  0  0  0  0  0  0  0  0
    3.2218   15.3624   41.9898 C   0  0  0  0  0  0  0  0  0  0  0  0
   -0.7276   17.0772   46.5124 O   0  0  0  0  0  0  0  0  0  0  0  0
    0.0415   16.6948   44.0903 C   0  0  1  0  0  0  0  0  0  0  0  0
   -1.0326   18.9082   44.8611 N   0  0  0  0  0  0  0  0  0  0  0  0
    0.9166   14.8060   43.0297 C   0  0  0  0  0  0  0  0  0  0  0  0
    0.2380   19.4060   42.7402 C   0  0  0  0  0  0  0  0  0  0  0  0
    3.0628   21.6489   35.9935 H   0  0  0  0  0  0  0  0  0  0  0  0
   -0.2209   20.5215   40.4235 H   0  0  0  0  0  0  0  0  0  0  0  0
    0.6532   21.8327   40.9201 H   0  0  0  0  0  0  0  0  0  0  0  0
    2.6112   16.3668   43.7388 H   0  0  0  0  0  0  0  0  0  0  0  0
   -0.0027   21.1600   38.2709 H   0  0  0  0  0  0  0  0  0  0  0  0
    1.3697   22.2661   38.6957 H   0  0  0  0  0  0  0  0  0  0  0  0
    4.3368   18.3809   36.7855 H   0  0  0  0  0  0  0  0  0  0  0  0
   -0.9633   14.9840   44.1040 H   0  0  0  0  0  0  0  0  0  0  0  0
    3.2309   17.9135   39.3736 H   0  0  0  0  0  0  0  0  0  0  0  0
    3.5978   17.9560   40.8581 H   0  0  0  0  0  0  0  0  0  0  0  0
    0.3239   15.3195   46.1470 H   0  0  0  0  0  0  0  0  0  0  0  0
   -1.1037   20.7432   43.6947 H   0  0  0  0  0  0  0  0  0  0  0  0
    1.9582   19.5418   36.5108 H   0  0  0  0  0  0  0  0  0  0  0  0
    3.2977   20.9777   37.2456 H   0  0  0  0  0  0  0  0  0  0  0  0
    2.1969   17.6771   38.5252 H   0  0  0  0  0  0  0  0  0  0  0  0
    3.7149   18.4146   38.9683 H   0  0  0  0  0  0  0  0  0  0  0  0
    0.9721   18.3081   39.7491 H   0  0  0  0  0  0  0  0  0  0  0  0
    4.1122   15.1811   42.6096 H   0  0  0  0  0  0  0  0  0  0  0  0
    2.9194   14.4254   41.4991 H   0  0  0  0  0  0  0  0  0  0  0  0
    3.4549   16.1181   41.2252 H   0  0  0  0  0  0  0  0  0  0  0  0
   -0.9172   17.0677   43.7006 H   0  0  0  0  0  0  0  0  0  0  0  0
    0.3495   14.7239   42.0907 H   0  0  0  0  0  0  0  0  0  0  0  0
    1.3355   13.7941   43.1324 H   0  0  0  0  0  0  0  0  0  0  0  0
  1 20  1  0
  2 14  1  0
  3 23  3  0
  5 18  1  0
  5  1  1  0
  6 10  1  1
  6 17  1  0
  6  4  1  0
  7  4  1  0
  8 15  1  0
  9 20  1  0
  9 11  1  0
 10 17  1  0
 12  7  1  0
 12  6  1  0
 13 21  2  3
 14 12  1  0
 15 12  1  0
 16 19  2  0
 17  3  1  0
 20 16  1  0
 21 16  1  0
 22  5  1  0
 22  9  1  0
 23 13  1  0
  2 24  1  0
  4 25  1  0
  4 26  1  0
  5 27  1  1
  7 28  1  0
  7 29  1  0
  8 30  1  0
  9 31  1  6
 10 32  1  0
 10 33  1  0
 11 34  1  0
 13 35  1  0
 14 36  1  0
 14 37  1  0
 15 38  1  0
 15 39  1  0
 17 40  1  6
 18 41  1  0
 18 42  1  0
 18 43  1  0
 20 44  1  6
 22 45  1  0
 22 46  1  0
M  END
>  <mol_id>  (49) 
2026-08-23-6tgu-s0-n100-prep-0050

>  <rmsd_to_ref>  (49) 


$$$$

     RDKit          3D

 15 15  0  0  0  0  0  0  0  0999 V2000
    1.3163   17.7900   40.9516 N   0  0  0  0  0  0  0  0  0  0  0  0
    2.1286   17.3410   41.6845 O   0  0  0  0  0  0  0  0  0  0  0  0
    1.5765   18.8420   40.0631 C   0  0  0  0  0  0  0  0  0  0  0  0
    2.7994   18.8365   39.5201 C   0  0  0  0  0  0  0  0  0  0  0  0
    0.2040   17.2651   40.9671 O   0  0  0  0  0  0  0  0  0  0  0  0
    0.7706   20.5304   38.5751 C   0  0  0  0  0  0  0  0  0  0  0  0
    0.5159   19.6595   39.6503 C   0  0  0  0  0  0  0  0  0  0  0  0
    2.0700   20.4481   37.9151 C   0  0  0  0  0  0  0  0  0  0  0  0
    3.0337   19.7040   38.3417 C   0  0  0  0  0  0  0  0  0  0  0  0
    2.1645   21.0998   36.7087 O   0  0  0  0  0  0  0  0  0  0  0  0
    3.6030   18.2098   39.9340 H   0  0  0  0  0  0  0  0  0  0  0  0
    0.0116   21.2532   38.2411 H   0  0  0  0  0  0  0  0  0  0  0  0
   -0.4671   19.6222   40.1425 H   0  0  0  0  0  0  0  0  0  0  0  0
    4.0123   19.7133   37.8396 H   0  0  0  0  0  0  0  0  0  0  0  0
    1.4175   21.6679   36.3931 H   0  0  0  0  0  0  0  0  0  0  0  0
  1  5  1  0
  1  2  2  0
  3  1  1  0
  4  3  2  0
  6  7  2  0
  7  3  1  0
  8  9  2  0
  8  6  1  0
  9  4  1  0
 10  8  1  0
  4 11  1  0
  6 12  1  0
  7 13  1  0
  9 14  1  0
 10 15  1  0
M  CHG  2   1   1   5  -1
M  END
>  <mol_id>  (50) 
2026-08-23-6tgu-s0-n100-prep-0051

>  <rmsd_to_ref>  (50) 


$$$$

     RDKit          3D

 36 39  0  0  0  0  0  0  0  0999 V2000
    2.3940   21.3520   37.0720 O   0  0  0  0  0  0  0  0  0  0  0  0
    2.9390   20.0760   38.7020 C   0  0  0  0  0  0  0  0  0  0  0  0
    2.4190   17.1960   40.2190 N   0  0  0  0  0  0  0  0  0  0  0  0
    3.3620   20.4620   36.6700 C   0  0  0  0  0  0  0  0  0  0  0  0
    3.6750   19.6530   37.6960 N   0  0  0  0  0  0  0  0  0  0  0  0
    3.1150   14.7510   40.0960 N   0  0  0  0  0  0  0  0  0  0  0  0
    0.2610   20.7320   42.1740 C   0  0  0  0  0  0  0  0  0  0  0  0
    1.1360   18.9600   41.4690 C   0  0  0  0  0  0  0  0  0  0  0  0
   -0.3400   20.6210   43.2590 C   0  0  0  0  0  0  0  0  0  0  0  0
   -0.5560   19.4450   43.9510 C   0  0  0  0  0  0  0  0  0  0  0  0
    2.0730   21.1370   38.4300 C   0  0  0  0  0  0  0  0  0  0  0  0
    2.5830   13.7350   40.5810 C   0  0  0  0  0  0  0  0  0  0  0  0
    2.1480   18.4990   40.5630 C   0  0  0  0  0  0  0  0  0  0  0  0
    0.4500   18.1180   42.3430 C   0  0  0  0  0  0  0  0  0  0  0  0
    3.0610   12.5870   40.7640 O   0  0  0  0  0  0  0  0  0  0  0  0
    0.8530   16.7760   42.0010 N   0  0  0  0  0  0  0  0  0  0  0  0
    2.4110   16.0960   40.0480 C   0  0  1  0  0  0  0  0  0  0  0  0
   -0.2350   18.2620   43.5150 N   0  0  0  0  0  0  0  0  0  0  0  0
   -1.2070   19.6710   44.9370 O   0  0  0  0  0  0  0  0  0  0  0  0
    3.7780   20.4610   35.5730 O   0  0  0  0  0  0  0  0  0  0  0  0
    1.4910   13.8390   41.4300 O   0  0  0  0  0  0  0  0  0  0  0  0
    2.9290   19.5370   40.0330 O   0  0  0  0  0  0  0  0  0  0  0  0
    1.6680   16.4650   41.1200 C   0  0  2  0  0  0  0  0  0  0  0  0
    1.0510   20.1730   41.3250 N   0  0  0  0  0  0  0  0  0  0  0  0
    4.0682   14.6765   39.7130 H   0  0  0  0  0  0  0  0  0  0  0  0
   -0.5903   20.9551   41.5140 H   0  0  0  0  0  0  0  0  0  0  0  0
    1.1271   21.1638   42.6969 H   0  0  0  0  0  0  0  0  0  0  0  0
    0.2056   21.2712   43.9587 H   0  0  0  0  0  0  0  0  0  0  0  0
   -1.3668   20.8346   42.9272 H   0  0  0  0  0  0  0  0  0  0  0  0
    2.2954   22.0183   39.0495 H   0  0  0  0  0  0  0  0  0  0  0  0
    1.0104   20.9410   38.6363 H   0  0  0  0  0  0  0  0  0  0  0  0
    2.4923   15.7028   39.0239 H   0  0  0  0  0  0  0  0  0  0  0  0
   -0.4997   17.4278   44.0582 H   0  0  0  0  0  0  0  0  0  0  0  0
    0.7858   16.5722   40.4717 H   0  0  0  0  0  0  0  0  0  0  0  0
    1.9901   20.5818   41.4338 H   0  0  0  0  0  0  0  0  0  0  0  0
    0.6605   20.3425   40.3871 H   0  0  0  0  0  0  0  0  0  0  0  0
  1 11  1  0
  2 22  1  0
  3 13  1  0
  3 23  1  0
  4  1  1  0
  4  5  1  0
  5  2  2  0
  6 12  1  0
  7  9  1  0
  8 14  1  0
  9 10  1  0
 10 19  2  0
 11  2  1  0
 12 15  2  0
 12 21  1  0
 13  8  2  0
 14 18  1  0
 16 14  2  0
 17  6  1  0
 17  3  1  0
 17 23  1  0
 18 10  1  0
 20  4  2  0
 22 13  1  0
 23 16  1  0
 24  8  1  0
 24  7  1  0
  6 25  1  0
  7 26  1  0
  7 27  1  0
  9 28  1  0
  9 29  1  0
 11 30  1  0
 11 31  1  0
 17 32  1  6
 18 33  1  0
 23 34  1  1
 24 35  1  0
 24 36  1  0
M  CHG  2  21  -1  24   1
M  END
>  <mol_id>  (51) 
2026-08-23-6tgu-s0-n100-prep-0052

>  <rmsd_to_ref>  (51) 


$$$$

     RDKit          3D

 37 40  0  0  0  0  0  0  0  0999 V2000
    1.3234   19.8161   41.2131 C   0  0  0  0  0  0  0  0  0  0  0  0
   -0.0444   14.1953   42.4403 N   0  0  0  0  0  0  0  0  0  0  0  0
   -0.7337   13.5794   43.3853 C   0  0  0  0  0  0  0  0  0  0  0  0
    0.3794   19.6600   42.1954 C   0  0  0  0  0  0  0  0  0  0  0  0
   -0.4495   17.6786   43.5010 C   0  0  0  0  0  0  0  0  0  0  0  0
    3.0908   21.1329   36.7718 C   0  0  0  0  0  0  0  0  0  0  0  0
    1.0059   22.0067   42.1477 S   0  0  0  0  0  0  0  0  0  0  0  0
   -1.0371   14.0863   44.4317 O   0  0  0  0  0  0  0  0  0  0  0  0
    1.5535   18.5511   40.6995 O   0  0  0  0  0  0  0  0  0  0  0  0
    1.5883   15.5394   40.5324 O   0  0  0  0  0  0  0  0  0  0  0  0
    0.2178   18.3207   42.4473 C   0  0  0  0  0  0  0  0  0  0  0  0
    1.8397   22.1815   38.5511 C   0  0  0  0  0  0  0  0  0  0  0  0
    0.1229   15.5507   42.4617 C   0  0  0  0  0  0  0  0  0  0  0  0
    0.9105   16.2228   41.4473 C   0  0  0  0  0  0  0  0  0  0  0  0
    2.3324   22.1666   37.2488 N   0  0  0  0  0  0  0  0  0  0  0  0
    1.6397   21.2260   40.8584 C   0  0  2  0  0  0  0  0  0  0  0  0
   -0.5135   16.3027   43.5112 C   0  0  0  0  0  0  0  0  0  0  0  0
    0.9133   17.6121   41.5411 C   0  0  0  0  0  0  0  0  0  0  0  0
    3.2996   19.9971   37.6020 C   0  0  0  0  0  0  0  0  0  0  0  0
    0.1139   20.9411   42.8813 C   0  0  0  0  0  0  0  0  0  0  0  0
    2.7858   19.9610   38.9627 C   0  0  0  0  0  0  0  0  0  0  0  0
    2.0918   21.1192   39.3581 C   0  0  0  0  0  0  0  0  0  0  0  0
   -1.2982   12.1574   43.0914 C   0  0  0  0  0  0  0  0  0  0  0  0
    0.3727   13.6448   41.6762 H   0  0  0  0  0  0  0  0  0  0  0  0
   -0.9148   18.2651   44.3070 H   0  0  0  0  0  0  0  0  0  0  0  0
    3.5310   21.1792   35.7647 H   0  0  0  0  0  0  0  0  0  0  0  0
    1.5439   14.5505   40.5198 H   0  0  0  0  0  0  0  0  0  0  0  0
    1.2568   23.0385   38.9195 H   0  0  0  0  0  0  0  0  0  0  0  0
    2.1882   22.1711   40.7324 H   0  0  0  0  0  0  0  0  0  0  0  0
   -1.0487   15.7808   44.3181 H   0  0  0  0  0  0  0  0  0  0  0  0
    3.8574   19.1339   37.2098 H   0  0  0  0  0  0  0  0  0  0  0  0
   -0.9499   21.2081   42.7977 H   0  0  0  0  0  0  0  0  0  0  0  0
    0.3482   20.8841   43.9546 H   0  0  0  0  0  0  0  0  0  0  0  0
    2.9284   19.0973   39.6289 H   0  0  0  0  0  0  0  0  0  0  0  0
   -1.4812   11.6321   44.0404 H   0  0  0  0  0  0  0  0  0  0  0  0
   -2.2420   12.2457   42.5333 H   0  0  0  0  0  0  0  0  0  0  0  0
   -0.5701   11.5903   42.4929 H   0  0  0  0  0  0  0  0  0  0  0  0
  1  4  2  0
  2  3  1  0
  3  8  2  0
  4 11  1  0
  4 20  1  0
  5 17  1  0
  6 15  2  0
  6 19  1  0
  7 20  1  0
  9  1  1  0
  9 18  1  0
 10 14  1  0
 11  5  2  0
 12 22  2  0
 13  2  1  0
 13 17  2  0
 14 18  2  0
 14 13  1  0
 15 12  1  0
 16 22  1  0
 16  1  1  0
 16  7  1  0
 18 11  1  0
 19 21  2  0
 21 22  1  0
 23  3  1  0
  2 24  1  0
  5 25  1  0
  6 26  1  0
 10 27  1  0
 12 28  1  0
 16 29  1  1
 17 30  1  0
 19 31  1  0
 20 32  1  0
 20 33  1  0
 21 34  1  0
 23 35  1  0
 23 36  1  0
 23 37  1  0
M  END
>  <mol_id>  (52) 
2026-08-23-6tgu-s0-n100-prep-0053

>  <rmsd_to_ref>  (52) 


$$$$

     RDKit          3D

 25 25  0  0  0  0  0  0  0  0999 V2000
    3.3980   19.5950   36.7580 F   0  0  0  0  0  0  0  0  0  0  0  0
    2.6920   18.0780   39.8650 C   0  0  0  0  0  0  0  0  0  0  0  0
    2.8490   19.6680   38.1050 C   0  0  0  0  0  0  0  0  0  0  0  0
    2.2680   20.7970   38.3280 C   0  0  0  0  0  0  0  0  0  0  0  0
    1.5550   20.1190   40.6380 C   0  0  0  0  0  0  0  0  0  0  0  0
    1.7370   20.9620   39.6020 C   0  0  0  0  0  0  0  0  0  0  0  0
    1.0370   20.6200   41.7160 O   0  0  0  0  0  0  0  0  0  0  0  0
    1.8910   18.8230   40.5280 C   0  0  1  0  0  0  0  0  0  0  0  0
    1.1120   17.8550   42.8320 C   0  0  0  0  0  0  0  0  0  0  0  0
    3.2250   18.5570   38.7250 C   0  0  0  0  0  0  0  0  0  0  0  0
    0.9790   17.9460   41.4240 N   0  0  0  0  0  0  0  0  0  0  0  0
   -0.2250   17.4530   43.4780 C   0  0  0  0  0  0  0  0  0  0  0  0
    2.9404   17.0666   40.2190 H   0  0  0  0  0  0  0  0  0  0  0  0
    2.1969   21.5802   37.5588 H   0  0  0  0  0  0  0  0  0  0  0  0
    1.3965   21.9879   39.8060 H   0  0  0  0  0  0  0  0  0  0  0  0
    0.8827   20.0429   42.5055 H   0  0  0  0  0  0  0  0  0  0  0  0
    2.6579   18.9559   41.3053 H   0  0  0  0  0  0  0  0  0  0  0  0
    1.4261   18.8315   43.2292 H   0  0  0  0  0  0  0  0  0  0  0  0
    1.8643   17.0880   43.0680 H   0  0  0  0  0  0  0  0  0  0  0  0
    4.0416   17.9779   38.2690 H   0  0  0  0  0  0  0  0  0  0  0  0
    0.0181   18.2756   41.2538 H   0  0  0  0  0  0  0  0  0  0  0  0
    1.2677   17.0002   41.1358 H   0  0  0  0  0  0  0  0  0  0  0  0
   -0.1266   17.4826   44.5732 H   0  0  0  0  0  0  0  0  0  0  0  0
   -1.0108   18.1546   43.1614 H   0  0  0  0  0  0  0  0  0  0  0  0
   -0.4936   16.4344   43.1614 H   0  0  0  0  0  0  0  0  0  0  0  0
  1  3  1  0
  2  8  1  0
  3  4  2  0
  3 10  1  0
  4  6  1  0
  5  7  1  0
  6  5  2  0
  8  5  1  0
  8 11  1  0
  9 12  1  0
 10  2  2  0
 11  9  1  0
  2 13  1  0
  4 14  1  0
  6 15  1  0
  7 16  1  0
  8 17  1  1
  9 18  1  0
  9 19  1  0
 10 20  1  0
 11 21  1  0
 11 22  1  0
 12 23  1  0
 12 24  1  0
 12 25  1  0
M  CHG  1  11   1
M  END
>  <mol_id>  (53) 
2026-08-23-6tgu-s0-n100-prep-0054

>  <rmsd_to_ref>  (53) 


$$$$

     RDKit          3D

 23 23  0  0  0  0  0  0  0  0999 V2000
    2.7180   20.4000   37.1610 O   0  0  0  0  0  0  0  0  0  0  0  0
    1.7500   21.0780   39.6100 C   0  0  0  0  0  0  0  0  0  0  0  0
    1.2520   16.9360   42.2970 C   0  0  0  0  0  0  0  0  0  0  0  0
    0.7350   20.4810   41.7130 C   0  0  0  0  0  0  0  0  0  0  0  0
    0.9750   21.4020   40.7580 C   0  0  0  0  0  0  0  0  0  0  0  0
    3.1470   17.2330   39.4660 O   0  0  0  0  0  0  0  0  0  0  0  0
    2.5880   17.6680   40.4390 N   0  0  0  0  0  0  0  0  0  0  0  0
    4.0080   18.9040   38.0530 O   0  0  0  0  0  0  0  0  0  0  0  0
    2.2790   19.8630   39.4230 C   0  0  0  0  0  0  0  0  0  0  0  0
    0.4790   15.6580   43.1640 S   0  0  0  0  0  0  0  0  0  0  0  0
   -0.1160   20.6200   42.7410 O   0  0  0  0  0  0  0  0  0  0  0  0
    2.2280   18.9750   40.4890 C   0  0  0  0  0  0  0  0  0  0  0  0
    2.8510   19.4450   37.9820 C   0  0  0  0  0  0  0  0  0  0  0  0
    1.3160   19.2430   41.5460 C   0  0  0  0  0  0  0  0  0  0  0  0
    0.9520   18.1970   42.3980 N   0  0  0  0  0  0  0  0  0  0  0  0
    2.5999   21.2482   37.6577 H   0  0  0  0  0  0  0  0  0  0  0  0
    1.9206   21.8537   38.8489 H   0  0  0  0  0  0  0  0  0  0  0  0
    2.0618   16.6616   41.6050 H   0  0  0  0  0  0  0  0  0  0  0  0
    0.5661   22.4173   40.8680 H   0  0  0  0  0  0  0  0  0  0  0  0
    4.2595   18.7864   39.0033 H   0  0  0  0  0  0  0  0  0  0  0  0
    0.6102   15.8749   44.5103 H   0  0  0  0  0  0  0  0  0  0  0  0
   -0.2261   19.8853   43.3953 H   0  0  0  0  0  0  0  0  0  0  0  0
    2.2411   18.6311   37.5629 H   0  0  0  0  0  0  0  0  0  0  0  0
  1 13  1  0
  2  5  2  0
  3 15  2  3
  3 10  1  0
  4 11  1  0
  5  4  1  0
  6  7  2  0
  7 12  1  0
  9  2  1  0
  9 12  2  0
 12 14  1  0
 13  8  1  0
 13  9  1  0
 14  4  2  0
 14 15  1  0
  1 16  1  0
  2 17  1  0
  3 18  1  0
  5 19  1  0
  8 20  1  0
 10 21  1  0
 11 22  1  0
 13 23  1  0
M  END
>  <mol_id>  (54) 
2026-08-23-6tgu-s0-n100-prep-0055

>  <rmsd_to_ref>  (54) 


$$$$

     RDKit          3D

 30 30  0  0  0  0  0  0  0  0999 V2000
   -0.1410   21.2119   41.8031 C   0  0  0  0  0  0  0  0  0  0  0  0
    1.8924   21.7780   39.4628 C   0  0  0  0  0  0  0  0  0  0  0  0
   -0.2615   18.5662   43.0249 O   0  0  0  0  0  0  0  0  0  0  0  0
    2.0657   19.3883   39.3793 C   0  0  0  0  0  0  0  0  0  0  0  0
    2.7220   21.8947   38.3768 C   0  0  0  0  0  0  0  0  0  0  0  0
    3.6002   18.0659   37.6299 S   0  0  0  0  0  4  0  0  0  0  0  0
    2.9733   16.8088   36.9609 O   0  0  0  0  0  0  0  0  0  0  0  0
    4.0740   18.6012   36.7154 O   0  0  0  0  0  0  0  0  0  0  0  0
    2.9067   19.5063   38.2707 C   0  0  0  0  0  0  0  0  0  0  0  0
    0.7098   20.3624   41.1505 C   0  0  0  0  0  0  0  0  0  0  0  0
   -1.0826   19.4380   43.4252 C   0  0  0  0  0  0  0  0  0  0  0  0
    3.2643   20.7727   37.7706 C   0  0  0  0  0  0  0  0  0  0  0  0
    4.1260   20.9151   36.7690 O   0  0  0  0  0  0  0  0  0  0  0  0
   -1.0710   20.7730   42.8686 C   0  0  0  0  0  0  0  0  0  0  0  0
   -2.1220   18.9654   44.2034 N   0  0  0  0  0  0  0  0  0  0  0  0
    1.5556   20.5391   39.9680 C   0  0  0  0  0  0  0  0  0  0  0  0
    4.4688   17.5983   38.6130 O   0  0  0  0  0  0  0  0  0  0  0  0
   -0.1340   22.2754   41.5219 H   0  0  0  0  0  0  0  0  0  0  0  0
    1.4898   22.6848   39.9376 H   0  0  0  0  0  0  0  0  0  0  0  0
    1.8103   18.3968   39.7816 H   0  0  0  0  0  0  0  0  0  0  0  0
    2.9603   22.8931   37.9814 H   0  0  0  0  0  0  0  0  0  0  0  0
    2.5830   16.2241   37.6579 H   0  0  0  0  0  0  0  0  0  0  0  0
    4.6175   19.3677   37.0269 H   0  0  0  0  0  0  0  0  0  0  0  0
    0.7700   19.3592   41.5974 H   0  0  0  0  0  0  0  0  0  0  0  0
    4.5154   20.1158   36.3336 H   0  0  0  0  0  0  0  0  0  0  0  0
   -0.8944   21.4498   43.7176 H   0  0  0  0  0  0  0  0  0  0  0  0
   -2.0306   20.7869   42.3312 H   0  0  0  0  0  0  0  0  0  0  0  0
   -2.8315   19.6179   44.5666 H   0  0  0  0  0  0  0  0  0  0  0  0
   -2.1873   17.9606   44.4203 H   0  0  0  0  0  0  0  0  0  0  0  0
    4.0272   17.6546   39.4974 H   0  0  0  0  0  0  0  0  0  0  0  0
  1 14  1  0
  2 16  1  0
  3 11  2  0
  4 16  2  0
  5  2  2  0
  6  9  1  0
  6 17  1  0
  7  6  1  0
  8  6  1  0
  9  4  1  0
 10  1  2  3
 11 15  1  0
 12  5  1  0
 12  9  2  0
 13 12  1  0
 14 11  1  0
 16 10  1  0
  1 18  1  0
  2 19  1  0
  4 20  1  0
  5 21  1  0
  7 22  1  0
  8 23  1  0
 10 24  1  0
 13 25  1  0
 14 26  1  0
 14 27  1  0
 15 28  1  0
 15 29  1  0
 17 30  1  0
M  END
>  <mol_id>  (55) 
2026-08-23-6tgu-s0-n100-prep-0056

>  <rmsd_to_ref>  (55) 


$$$$

     RDKit          3D

 35 37  0  0  0  0  0  0  0  0999 V2000
    3.6389   19.8167   36.5063 O   0  0  0  0  0  0  0  0  0  0  0  0
    1.3300   20.7072   41.0260 C   0  0  0  0  0  0  0  0  0  0  0  0
    2.4326   17.4824   39.2881 C   0  0  0  0  0  0  0  0  0  0  0  0
    2.2197   16.2830   39.9793 N   0  0  0  0  0  0  0  0  0  0  0  0
    2.2035   18.7564   39.8098 N   0  0  0  0  0  0  0  0  0  0  0  0
    0.0317   20.6158   43.0389 C   0  0  0  0  0  0  0  0  0  0  0  0
    0.6686   16.0785   43.3437 S   0  0  0  0  0  0  0  0  0  0  0  0
   -0.5976   21.3211   44.0445 O   0  0  0  0  0  0  0  0  0  0  0  0
    0.8803   18.5163   41.9694 C   0  0  0  0  0  0  0  0  0  0  0  0
   -0.8475   18.5693   44.0274 C   0  0  0  0  0  0  0  0  0  0  0  0
    1.2162   14.6387   42.9401 C   0  0  0  0  0  0  0  0  0  0  0  0
    2.3513   20.7583   38.2595 C   0  0  0  0  0  0  0  0  0  0  0  0
    1.4835   19.2833   40.9893 C   0  0  0  0  0  0  0  0  0  0  0  0
    2.7440   17.1849   38.0753 O   0  0  0  0  0  0  0  0  0  0  0  0
    2.7478   21.8338   36.1903 O   0  0  0  0  0  0  0  0  0  0  0  0
    0.0603   19.1935   43.0269 C   0  0  0  0  0  0  0  0  0  0  0  0
    1.6892   14.6587   41.6936 C   0  0  0  0  0  0  0  0  0  0  0  0
    2.9473   20.8218   36.9218 C   0  0  0  0  0  0  0  0  0  0  0  0
    0.6408   21.3137   41.9687 C   0  0  0  0  0  0  0  0  0  0  0  0
    3.0527   19.6880   39.0423 C   0  0  0  0  0  0  0  0  0  0  0  0
    1.6669   16.0111   41.1974 C   0  0  0  0  0  0  0  0  0  0  0  0
    1.0793   16.9250   42.1237 C   0  0  0  0  0  0  0  0  0  0  0  0
    1.8039   21.3137   40.2401 H   0  0  0  0  0  0  0  0  0  0  0  0
    2.5418   15.4466   39.4717 H   0  0  0  0  0  0  0  0  0  0  0  0
   -0.6016   22.3109   44.0272 H   0  0  0  0  0  0  0  0  0  0  0  0
   -0.4793   18.7848   45.0413 H   0  0  0  0  0  0  0  0  0  0  0  0
   -1.8608   18.9808   43.9101 H   0  0  0  0  0  0  0  0  0  0  0  0
   -0.8734   17.4809   43.8703 H   0  0  0  0  0  0  0  0  0  0  0  0
    1.2058   13.7551   43.5952 H   0  0  0  0  0  0  0  0  0  0  0  0
    1.2811   20.5173   38.1779 H   0  0  0  0  0  0  0  0  0  0  0  0
    2.4589   21.7284   38.7667 H   0  0  0  0  0  0  0  0  0  0  0  0
    2.0412   13.7807   41.1324 H   0  0  0  0  0  0  0  0  0  0  0  0
    0.5338   22.4076   41.9233 H   0  0  0  0  0  0  0  0  0  0  0  0
    3.6439   19.0907   38.3326 H   0  0  0  0  0  0  0  0  0  0  0  0
    3.6434   20.2263   39.7982 H   0  0  0  0  0  0  0  0  0  0  0  0
  1 18  1  0
  2 19  2  0
  3  5  1  0
  3  4  1  0
  4 21  1  0
  5 13  1  0
  6 16  2  0
  6  8  1  0
  9 22  1  0
  9 16  1  0
 11  7  1  0
 12 20  1  0
 13  2  1  0
 13  9  2  0
 14  3  2  0
 15 18  2  0
 16 10  1  0
 17 11  2  0
 18 12  1  0
 19  6  1  0
 20  5  1  0
 21 17  1  0
 21 22  2  0
 22  7  1  0
  2 23  1  0
  4 24  1  0
  8 25  1  0
 10 26  1  0
 10 27  1  0
 10 28  1  0
 11 29  1  0
 12 30  1  0
 12 31  1  0
 17 32  1  0
 19 33  1  0
 20 34  1  0
 20 35  1  0
M  CHG  1   1  -1
M  END
>  <mol_id>  (56) 
2026-08-23-6tgu-s0-n100-prep-0057

>  <rmsd_to_ref>  (56) 


$$$$

     RDKit          3D

 41 43  0  0  0  0  0  0  0  0999 V2000
   -1.1884   19.6302   43.7878 S   0  0  0  0  0  6  0  0  0  0  0  0
    3.4325   20.3827   36.3093 C   0  0  0  0  0  0  0  0  0  0  0  0
    0.6197   19.6665   41.5776 C   0  0  0  0  0  0  0  0  0  0  0  0
    3.9690   21.2638   35.6148 O   0  0  0  0  0  0  0  0  0  0  0  0
    2.5822   18.4046   38.5474 C   0  0  0  0  0  0  0  0  0  0  0  0
    0.7064   16.2216   42.0771 C   0  0  0  0  0  0  0  0  0  0  0  0
    2.5061   19.8467   38.5240 C   0  0  1  0  0  0  0  0  0  0  0  0
    0.0082   20.9548   42.2419 C   0  0  0  0  0  0  0  0  0  0  0  0
   -0.3541   20.1369   44.8988 O   0  0  0  0  0  0  0  0  0  0  0  0
   -1.4089   20.9931   42.6958 C   0  0  0  0  0  0  0  0  0  0  0  0
   -2.4093   18.5637   44.2650 O   0  0  0  0  0  0  0  0  0  0  0  0
    2.2001   20.5151   39.8908 S   0  0  0  0  0  0  0  0  0  0  0  0
    0.8845   21.9490   42.2703 N   0  0  0  0  0  0  0  0  0  0  0  0
    2.7241   20.6975   37.4767 C   0  0  0  0  0  0  0  0  0  0  0  0
    1.0278   14.8065   41.9318 C   0  0  0  0  0  0  0  0  0  0  0  0
    1.2536   17.0599   40.8853 C   0  0  0  0  0  0  0  0  0  0  0  0
    0.1414   17.1723   43.0410 C   0  0  0  0  0  0  0  0  0  0  0  0
    3.0750   17.4819   37.5603 C   0  0  0  0  0  0  0  0  0  0  0  0
    3.4508   17.9510   36.3877 C   0  0  0  0  0  0  0  0  0  0  0  0
    1.6154   18.3241   40.9009 C   0  0  0  0  0  0  0  0  0  0  0  0
   -0.1188   18.6633   42.7160 C   0  0  0  0  0  0  0  0  0  0  0  0
    1.5123   19.5943   40.8712 C   0  0  0  0  0  0  0  0  0  0  0  0
    1.6418   13.6395   41.4155 C   0  0  0  0  0  0  0  0  0  0  0  0
    3.5732   19.0008   35.8434 C   0  0  0  0  0  0  0  0  0  0  0  0
    3.1647   15.7740   37.8758 Cl  0  0  0  0  0  0  0  0  0  0  0  0
    2.2023   17.9370   39.4677 H   0  0  0  0  0  0  0  0  0  0  0  0
    1.4284   19.7863   38.3123 H   0  0  0  0  0  0  0  0  0  0  0  0
   -1.6786   21.9271   43.2104 H   0  0  0  0  0  0  0  0  0  0  0  0
   -2.2091   20.9458   41.9425 H   0  0  0  0  0  0  0  0  0  0  0  0
    0.6203   22.8570   42.6786 H   0  0  0  0  0  0  0  0  0  0  0  0
    3.2454   21.5643   37.9092 H   0  0  0  0  0  0  0  0  0  0  0  0
    1.7043   20.7711   37.0710 H   0  0  0  0  0  0  0  0  0  0  0  0
    1.3327   14.6473   42.9766 H   0  0  0  0  0  0  0  0  0  0  0  0
    0.3875   14.8046   41.0374 H   0  0  0  0  0  0  0  0  0  0  0  0
    1.3482   16.5365   39.9225 H   0  0  0  0  0  0  0  0  0  0  0  0
   -0.1106   16.8065   44.0474 H   0  0  0  0  0  0  0  0  0  0  0  0
    3.7347   17.1291   35.7139 H   0  0  0  0  0  0  0  0  0  0  0  0
    1.9852   13.0071   42.2474 H   0  0  0  0  0  0  0  0  0  0  0  0
    0.9151   13.0816   40.8066 H   0  0  0  0  0  0  0  0  0  0  0  0
    2.5020   13.9232   40.7913 H   0  0  0  0  0  0  0  0  0  0  0  0
    3.8459   18.9184   34.7809 H   0  0  0  0  0  0  0  0  0  0  0  0
  1 11  2  0
  1  9  2  0
  2 14  1  0
  3  8  1  0
  3 21  2  0
  4  2  2  0
  6 17  2  0
  7  5  1  0
  7 12  1  0
  8 13  2  3
  8 10  1  0
 10  1  1  0
 12 22  1  0
 14  7  1  0
 15  6  1  0
 16  6  1  0
 18 25  1  0
 18  5  2  0
 19 18  1  0
 20 16  2  0
 21 17  1  0
 21  1  1  0
 22 20  2  0
 22  3  1  0
 23 15  1  0
 24  2  1  0
 24 19  2  0
  5 26  1  0
  7 27  1  6
 10 28  1  0
 10 29  1  0
 13 30  1  0
 14 31  1  0
 14 32  1  0
 15 33  1  0
 15 34  1  0
 16 35  1  0
 17 36  1  0
 19 37  1  0
 23 38  1  0
 23 39  1  0
 23 40  1  0
 24 41  1  0
M  END
>  <mol_id>  (57) 
2026-08-23-6tgu-s0-n100-prep-0058

>  <rmsd_to_ref>  (57) 


$$$$

     RDKit          3D

 32 34  0  0  0  0  0  0  0  0999 V2000
    2.1731   20.8088   40.8016 C   0  0  0  0  0  0  0  0  0  0  0  0
    0.3211   19.8928   44.3937 N   0  0  0  0  0  0  0  0  0  0  0  0
    3.2672   18.4342   37.4794 C   0  0  0  0  0  0  0  0  0  0  0  0
   -1.0478   16.4375   44.2836 C   0  0  0  0  0  0  0  0  0  0  0  0
    0.5592   17.8537   42.6200 C   0  0  0  0  0  0  0  0  0  0  0  0
    1.8390   19.3701   40.9858 C   0  0  0  0  0  0  0  0  0  0  0  0
    3.0685   20.3910   38.6164 C   0  0  0  0  0  0  0  0  0  0  0  0
   -1.0321   18.6338   45.7570 O   0  0  0  0  0  0  0  0  0  0  0  0
    4.1882   20.8613   36.4386 O   0  0  0  0  0  0  0  0  0  0  0  0
   -0.3867   18.7602   44.6755 C   0  0  0  0  0  0  0  0  0  0  0  0
    3.5425   20.0282   37.3564 N   0  0  0  0  0  0  0  0  0  0  0  0
    2.8761   18.9044   38.8502 C   0  0  0  0  0  0  0  0  0  0  0  0
    2.2497   18.4704   39.9875 C   0  0  0  0  0  0  0  0  0  0  0  0
   -0.2671   17.6607   43.7421 C   0  0  2  0  0  0  0  0  0  0  0  0
    1.1391   19.0415   42.2532 C   0  0  0  0  0  0  0  0  0  0  0  0
    0.7338   16.6591   41.7748 N   0  0  0  0  0  0  0  0  0  0  0  0
    0.9656   20.0977   43.2488 C   0  0  0  0  0  0  0  0  0  0  0  0
    2.7775   21.3657   39.6255 C   0  0  0  0  0  0  0  0  0  0  0  0
    1.9394   21.4958   41.6282 H   0  0  0  0  0  0  0  0  0  0  0  0
    4.1478   17.7779   37.4183 H   0  0  0  0  0  0  0  0  0  0  0  0
    2.6508   17.8270   36.8002 H   0  0  0  0  0  0  0  0  0  0  0  0
   -0.9270   16.3796   45.3754 H   0  0  0  0  0  0  0  0  0  0  0  0
   -2.1145   16.5452   44.0379 H   0  0  0  0  0  0  0  0  0  0  0  0
   -0.6561   15.5190   43.8221 H   0  0  0  0  0  0  0  0  0  0  0  0
    4.8353   21.4390   36.9158 H   0  0  0  0  0  0  0  0  0  0  0  0
    2.0640   17.3946   40.1228 H   0  0  0  0  0  0  0  0  0  0  0  0
   -1.1439   17.9570   43.1475 H   0  0  0  0  0  0  0  0  0  0  0  0
    0.9076   15.8382   42.3722 H   0  0  0  0  0  0  0  0  0  0  0  0
   -0.1192   16.5044   41.2185 H   0  0  0  0  0  0  0  0  0  0  0  0
    1.5349   16.7996   41.1430 H   0  0  0  0  0  0  0  0  0  0  0  0
    1.3821   21.0950   43.0441 H   0  0  0  0  0  0  0  0  0  0  0  0
    2.9964   22.4374   39.5097 H   0  0  0  0  0  0  0  0  0  0  0  0
  1  6  1  0
  2 10  1  0
  3 12  1  0
  5 14  1  0
  6 15  1  0
  7 12  2  0
  7 18  1  0
  9 11  1  0
 10  8  2  0
 11  3  1  0
 11  7  1  0
 12 13  1  0
 13  6  2  0
 14  4  1  0
 14 10  1  0
 15  5  2  0
 15 17  1  0
 16  5  1  0
 17  2  2  0
 18  1  2  0
  1 19  1  0
  3 20  1  0
  3 21  1  0
  4 22  1  0
  4 23  1  0
  4 24  1  0
  9 25  1  0
 13 26  1  0
 14 27  1  6
 16 28  1  0
 16 29  1  0
 16 30  1  0
 17 31  1  0
 18 32  1  0
M  CHG  1  16   1
M  END
>  <mol_id>  (58) 
2026-08-23-6tgu-s0-n100-prep-0059

>  <rmsd_to_ref>  (58) 


$$$$

     RDKit          3D

 49 51  0  0  0  0  0  0  0  0999 V2000
    2.0096   16.8833   41.3537 N   0  0  0  0  0  0  0  0  0  0  0  0
    3.3400   18.9369   37.7416 C   0  0  0  0  0  0  0  0  0  0  0  0
    2.2516   15.3494   39.6310 O   0  0  0  0  0  0  0  0  0  0  0  0
    2.1574   21.0328   37.9151 C   0  0  0  0  0  0  0  0  0  0  0  0
    1.1501   16.6674   42.3842 C   0  0  0  0  0  0  0  0  0  0  0  0
   -1.6995   14.5129   45.7020 C   0  0  0  0  0  0  0  0  0  0  0  0
   -0.3779   17.6388   43.9774 C   0  0  0  0  0  0  0  0  0  0  0  0
    3.8835   19.2699   36.5265 C   0  0  0  0  0  0  0  0  0  0  0  0
    3.5697   20.5114   36.0438 C   0  0  0  0  0  0  0  0  0  0  0  0
   -0.5066   16.3344   44.5709 C   0  0  0  0  0  0  0  0  0  0  0  0
    2.5217   19.7706   38.4270 C   0  0  0  0  0  0  0  0  0  0  0  0
   -0.5985   13.7451   46.3462 C   0  0  0  0  0  0  0  0  0  0  0  0
   -0.9923   18.6841   44.6028 C   0  0  0  0  0  0  0  0  0  0  0  0
    3.5019   17.5890   38.2936 N   0  0  0  0  0  0  0  0  0  0  0  0
    0.9394   15.4561   42.8964 C   0  0  0  0  0  0  0  0  0  0  0  0
    2.8000   17.4466   39.1929 N   0  0  0  0  0  0  0  0  0  0  0  0
    2.2703   22.5106   36.1033 N   0  0  0  0  0  0  0  0  0  0  0  0
    0.4996   17.8065   42.9049 C   0  0  0  0  0  0  0  0  0  0  0  0
    2.3630   16.4975   40.0844 C   0  0  0  0  0  0  0  0  0  0  0  0
    0.0498   20.1753   43.0089 C   0  0  0  0  0  0  0  0  0  0  0  0
    0.3152   21.5296   42.7154 O   0  0  0  0  0  0  0  0  0  0  0  0
   -0.7712   19.9789   44.0874 C   0  0  0  0  0  0  0  0  0  0  0  0
    0.0941   15.3309   43.9179 N   0  0  0  0  0  0  0  0  0  0  0  0
    0.7011   19.1289   42.3863 C   0  0  0  0  0  0  0  0  0  0  0  0
    2.6548   21.3621   36.6814 C   0  0  0  0  0  0  0  0  0  0  0  0
    1.2202   21.9398   41.6711 C   0  0  0  0  0  0  0  0  0  0  0  0
   -1.3781   15.9623   45.6130 N   0  0  0  0  0  0  0  0  0  0  0  0
    2.6518   17.6365   41.6386 H   0  0  0  0  0  0  0  0  0  0  0  0
    1.5067   21.7186   38.4775 H   0  0  0  0  0  0  0  0  0  0  0  0
   -2.6171   14.3867   46.2952 H   0  0  0  0  0  0  0  0  0  0  0  0
   -1.8354   14.1277   44.6806 H   0  0  0  0  0  0  0  0  0  0  0  0
    4.5345   18.5782   35.9718 H   0  0  0  0  0  0  0  0  0  0  0  0
    4.0546   20.8560   35.1185 H   0  0  0  0  0  0  0  0  0  0  0  0
    2.1320   19.4554   39.4062 H   0  0  0  0  0  0  0  0  0  0  0  0
   -0.6482   13.8781   47.4370 H   0  0  0  0  0  0  0  0  0  0  0  0
   -0.7039   12.6778   46.1017 H   0  0  0  0  0  0  0  0  0  0  0  0
    0.3700   14.1123   45.9758 H   0  0  0  0  0  0  0  0  0  0  0  0
   -1.6377   18.5231   45.4788 H   0  0  0  0  0  0  0  0  0  0  0  0
    4.1489   16.8749   37.9297 H   0  0  0  0  0  0  0  0  0  0  0  0
    1.4539   14.5759   42.4835 H   0  0  0  0  0  0  0  0  0  0  0  0
    2.3380   18.3428   39.4033 H   0  0  0  0  0  0  0  0  0  0  0  0
    1.5978   23.1276   36.5808 H   0  0  0  0  0  0  0  0  0  0  0  0
    2.6476   22.7751   35.1821 H   0  0  0  0  0  0  0  0  0  0  0  0
   -1.2648   20.8419   44.5580 H   0  0  0  0  0  0  0  0  0  0  0  0
    1.3546   19.3039   41.5189 H   0  0  0  0  0  0  0  0  0  0  0  0
    2.0680   22.4835   42.1133 H   0  0  0  0  0  0  0  0  0  0  0  0
    1.5918   21.0521   41.1383 H   0  0  0  0  0  0  0  0  0  0  0  0
    0.6916   22.5967   40.9648 H   0  0  0  0  0  0  0  0  0  0  0  0
   -1.7685   16.6509   46.2722 H   0  0  0  0  0  0  0  0  0  0  0  0
  1  5  1  0
  2 14  1  0
  2 11  1  0
  3 19  2  0
  4 11  2  0
  5 15  1  0
  5 18  2  0
  6 27  1  0
  6 12  1  0
  7 10  2  0
  7 13  1  0
  8  2  2  0
  9  8  1  0
  9 25  2  0
 10 27  1  0
 14 16  1  0
 15 23  2  0
 16 19  1  0
 17 25  1  0
 18  7  1  0
 19  1  1  0
 20 22  1  0
 21 20  1  0
 22 13  2  0
 23 10  1  0
 24 18  1  0
 24 20  2  0
 25  4  1  0
 26 21  1  0
  1 28  1  0
  4 29  1  0
  6 30  1  0
  6 31  1  0
  8 32  1  0
  9 33  1  0
 11 34  1  0
 12 35  1  0
 12 36  1  0
 12 37  1  0
 13 38  1  0
 14 39  1  0
 15 40  1  0
 16 41  1  0
 17 42  1  0
 17 43  1  0
 22 44  1  0
 24 45  1  0
 26 46  1  0
 26 47  1  0
 26 48  1  0
 27 49  1  0
M  END
>  <mol_id>  (59) 
2026-08-23-6tgu-s0-n100-prep-0060

>  <rmsd_to_ref>  (59) 


$$$$

     RDKit          3D

 24 25  0  0  0  0  0  0  0  0999 V2000
    3.2118   21.4283   36.3363 O   0  0  0  0  0  0  0  0  0  0  0  0
    2.8059   19.1588   38.8992 N   0  0  0  0  0  0  0  0  0  0  0  0
    1.0219   20.0848   41.9073 C   0  0  0  0  0  0  0  0  0  0  0  0
    3.6606   19.2731   36.4022 O   0  0  0  0  0  0  0  0  0  0  0  0
   -0.6708   18.1075   44.4075 C   0  0  0  0  0  0  0  0  0  0  0  0
    2.8593   20.3803   38.3244 C   0  0  0  0  0  0  0  0  0  0  0  0
    0.9344   17.7084   41.7593 C   0  0  0  0  0  0  0  0  0  0  0  0
   -0.3184   20.4777   43.8013 N   0  0  0  0  0  0  0  0  0  0  0  0
    0.6417   18.8776   42.3617 C   0  0  0  0  0  0  0  0  0  0  0  0
    2.4262   21.4698   38.8354 O   0  0  0  0  0  0  0  0  0  0  0  0
    1.7041   17.6766   40.5193 C   0  0  0  0  0  0  0  0  0  0  0  0
    0.5154   21.1122   42.8367 C   0  0  0  0  0  0  0  0  0  0  0  0
    3.2995   20.3603   36.9029 C   0  0  0  0  0  0  0  0  0  0  0  0
    1.8247   20.1262   40.6867 C   0  0  0  0  0  0  0  0  0  0  0  0
   -0.0437   19.0795   43.4827 N   0  0  0  0  0  0  0  0  0  0  0  0
    2.1013   18.9459   40.0622 C   0  0  0  0  0  0  0  0  0  0  0  0
    3.3022   18.3713   38.4583 H   0  0  0  0  0  0  0  0  0  0  0  0
   -0.3950   18.3559   45.4429 H   0  0  0  0  0  0  0  0  0  0  0  0
   -1.7646   18.1512   44.2988 H   0  0  0  0  0  0  0  0  0  0  0  0
   -0.3187   17.0934   44.1674 H   0  0  0  0  0  0  0  0  0  0  0  0
    0.5888   16.7654   42.2080 H   0  0  0  0  0  0  0  0  0  0  0  0
    1.9511   16.7442   39.9904 H   0  0  0  0  0  0  0  0  0  0  0  0
    0.7434   22.1873   42.7921 H   0  0  0  0  0  0  0  0  0  0  0  0
    2.1946   21.0806   40.2839 H   0  0  0  0  0  0  0  0  0  0  0  0
  1 13  2  0
  2 16  1  0
  3  9  1  0
  3 12  1  0
  4 13  1  0
  6 10  2  0
  6  2  1  0
  7  9  2  0
  9 15  1  0
 11  7  1  0
 12  8  2  0
 13  6  1  0
 14  3  2  0
 15  8  1  0
 15  5  1  0
 16 11  2  0
 16 14  1  0
  2 17  1  0
  5 18  1  0
  5 19  1  0
  5 20  1  0
  7 21  1  0
 11 22  1  0
 12 23  1  0
 14 24  1  0
M  CHG  1   4  -1
M  END
>  <mol_id>  (60) 
2026-08-23-6tgu-s0-n100-prep-0061

>  <rmsd_to_ref>  (60) 


$$$$

     RDKit          3D

 47 50  0  0  0  0  0  0  0  0999 V2000
    3.1738   14.7621   36.5372 C   0  0  0  0  0  0  0  0  0  0  0  0
    2.7211   14.5048   37.7880 C   0  0  0  0  0  0  0  0  0  0  0  0
    2.5092   15.6357   38.6784 C   0  0  0  0  0  0  0  0  0  0  0  0
    2.3293   20.8449   36.6382 O   0  0  0  0  0  0  0  0  0  0  0  0
    0.8153   17.1339   44.9957 C   0  0  0  0  0  0  0  0  0  0  0  0
    0.0848   18.7522   45.9683 N   0  0  0  0  0  0  0  0  0  0  0  0
    1.6995   20.3444   38.8937 C   0  0  1  0  0  0  0  0  0  0  0  0
    2.2327   17.9156   39.3565 C   0  0  0  0  0  0  0  0  0  0  0  0
    2.5749   16.9586   38.3661 C   0  0  0  0  0  0  0  0  0  0  0  0
    0.0686   17.7562   47.1195 C   0  0  0  0  0  0  0  0  0  0  0  0
    1.1300   18.6647   42.5838 C   0  0  0  0  0  0  0  0  0  0  0  0
    2.0339   18.3284   40.4399 N   0  0  0  0  0  0  0  0  0  0  0  0
    0.5088   15.6694   47.7713 C   0  0  0  0  0  0  0  0  0  0  0  0
    0.9942   16.5709   43.8564 C   0  0  0  0  0  0  0  0  0  0  0  0
    2.2174   19.1671   38.6982 N   0  0  0  0  0  0  0  0  0  0  0  0
    0.7532   19.2330   43.7628 C   0  0  0  0  0  0  0  0  0  0  0  0
    1.2414   20.4583   40.1905 C   0  0  0  0  0  0  0  0  0  0  0  0
    1.4932   19.3379   41.0070 C   0  0  1  0  0  0  0  0  0  0  0  0
    3.4386   16.0815   36.1134 C   0  0  0  0  0  0  0  0  0  0  0  0
    3.0329   17.1328   36.9413 C   0  0  0  0  0  0  0  0  0  0  0  0
    1.3474   17.2864   42.5875 C   0  0  0  0  0  0  0  0  0  0  0  0
    1.6059   21.1641   37.6978 C   0  0  0  0  0  0  0  0  0  0  0  0
    0.5211   16.5140   46.4328 C   0  0  2  0  0  0  0  0  0  0  0  0
    3.2664   13.8079   35.6718 O   0  0  0  0  0  0  0  0  0  0  0  0
    0.7009   18.4371   44.7759 C   0  0  0  0  0  0  0  0  0  0  0  0
    2.7904   18.3198   36.4125 O   0  0  0  0  0  0  0  0  0  0  0  0
    0.8634   22.0992   37.5202 O   0  0  0  0  0  0  0  0  0  0  0  0
    2.5204   13.4751   38.1192 H   0  0  0  0  0  0  0  0  0  0  0  0
    2.2683   15.3936   39.7240 H   0  0  0  0  0  0  0  0  0  0  0  0
   -0.3688   19.6700   46.0812 H   0  0  0  0  0  0  0  0  0  0  0  0
    0.6976   19.9370   38.6929 H   0  0  0  0  0  0  0  0  0  0  0  0
    0.7647   18.0518   47.9183 H   0  0  0  0  0  0  0  0  0  0  0  0
   -0.9045   17.6646   47.6240 H   0  0  0  0  0  0  0  0  0  0  0  0
    1.1123   16.1828   48.5344 H   0  0  0  0  0  0  0  0  0  0  0  0
   -0.5258   15.5664   48.1304 H   0  0  0  0  0  0  0  0  0  0  0  0
    0.9314   14.6721   47.5795 H   0  0  0  0  0  0  0  0  0  0  0  0
    0.8795   15.4780   43.8073 H   0  0  0  0  0  0  0  0  0  0  0  0
    2.7656   19.1388   37.8266 H   0  0  0  0  0  0  0  0  0  0  0  0
    0.5091   20.3024   43.8454 H   0  0  0  0  0  0  0  0  0  0  0  0
    1.7271   21.3321   40.6494 H   0  0  0  0  0  0  0  0  0  0  0  0
    0.1476   20.5539   40.1251 H   0  0  0  0  0  0  0  0  0  0  0  0
    1.3911   20.3792   41.3465 H   0  0  0  0  0  0  0  0  0  0  0  0
    3.9494   16.2776   35.1592 H   0  0  0  0  0  0  0  0  0  0  0  0
    1.7532   16.7572   41.7126 H   0  0  0  0  0  0  0  0  0  0  0  0
    0.6934   15.5767   45.8833 H   0  0  0  0  0  0  0  0  0  0  0  0
    3.5975   13.9984   34.7585 H   0  0  0  0  0  0  0  0  0  0  0  0
    2.5027   19.0700   36.9910 H   0  0  0  0  0  0  0  0  0  0  0  0
  1  2  1  0
  2  3  2  0
  4 22  2  0
  5 23  1  0
  6 10  1  0
  7 22  1  0
  7 15  1  0
  7 17  1  0
  8 12  2  0
  9  3  1  0
  9  8  1  0
 11 21  1  0
 11 16  2  0
 12 18  1  0
 14  5  1  0
 15  8  1  0
 16 25  1  0
 17 18  1  0
 18 11  1  0
 19  1  2  0
 19 20  1  0
 20  9  2  0
 21 14  2  0
 23 10  1  0
 23 13  1  0
 24  1  1  0
 25  5  2  0
 25  6  1  0
 26 20  1  0
 27 22  1  0
  2 28  1  0
  3 29  1  0
  6 30  1  0
  7 31  1  1
 10 32  1  0
 10 33  1  0
 13 34  1  0
 13 35  1  0
 13 36  1  0
 14 37  1  0
 15 38  1  0
 16 39  1  0
 17 40  1  0
 17 41  1  0
 18 42  1  1
 19 43  1  0
 21 44  1  0
 23 45  1  6
 24 46  1  0
 26 47  1  0
M  CHG  1  27  -1
M  END
>  <mol_id>  (61) 
2026-08-23-6tgu-s0-n100-prep-0062

>  <rmsd_to_ref>  (61) 


$$$$

     RDKit          3D

 46 49  0  0  0  0  0  0  0  0999 V2000
    3.6785   19.5030   35.4792 O   0  0  0  0  0  0  0  0  0  0  0  0
    1.8101   17.8851   40.9077 C   0  0  0  0  0  0  0  0  0  0  0  0
    3.2386   19.6874   36.6827 C   0  0  0  0  0  0  0  0  0  0  0  0
    2.7193   16.7464   38.6915 C   0  0  0  0  0  0  0  0  0  0  0  0
    2.3597   20.3157   39.1701 N   0  0  0  0  0  0  0  0  0  0  0  0
    1.4664   19.0436   41.3602 N   0  0  0  0  0  0  0  0  0  0  0  0
    2.4850   14.5157   37.5963 C   0  0  0  0  0  0  0  0  0  0  0  0
    0.7487   20.6419   42.8313 C   0  0  0  0  0  0  0  0  0  0  0  0
    2.3860   17.8144   39.5535 C   0  0  2  0  0  0  0  0  0  0  0  0
    2.8149   15.1771   38.7723 C   0  0  0  0  0  0  0  0  0  0  0  0
    0.1777   16.0176   45.0862 C   0  0  0  0  0  0  0  0  0  0  0  0
    3.0194   21.0173   37.0160 C   0  0  0  0  0  0  0  0  0  0  0  0
    0.7067   18.1832   43.4354 C   0  0  1  0  0  0  0  0  0  0  0  0
    1.9753   15.5638   41.3406 O   0  0  0  0  0  0  0  0  0  0  0  0
    1.0136   19.2305   42.5120 N   0  0  0  0  0  0  0  0  0  0  0  0
    0.6386   15.8271   43.7979 C   0  0  0  0  0  0  0  0  0  0  0  0
    0.9608   16.8897   43.0200 C   0  0  0  0  0  0  0  0  0  0  0  0
   -0.0483   17.3807   45.5035 C   0  0  0  0  0  0  0  0  0  0  0  0
    2.5790   18.9885   38.9014 C   0  0  0  0  0  0  0  0  0  0  0  0
    0.2606   18.4256   44.6788 C   0  0  0  0  0  0  0  0  0  0  0  0
    2.9565   18.6934   37.6396 C   0  0  0  0  0  0  0  0  0  0  0  0
    2.9122   17.3951   37.5667 C   0  0  0  0  0  0  0  0  0  0  0  0
    2.5782   21.3299   38.2776 C   0  0  0  0  0  0  0  0  0  0  0  0
    1.6230   16.7371   41.7218 C   0  0  0  0  0  0  0  0  0  0  0  0
    1.6782   21.4455   41.9515 C   0  0  0  0  0  0  0  0  0  0  0  0
    3.8630   18.5860   35.1547 H   0  0  0  0  0  0  0  0  0  0  0  0
    2.2519   13.4642   37.8200 H   0  0  0  0  0  0  0  0  0  0  0  0
    1.6077   14.9965   37.1389 H   0  0  0  0  0  0  0  0  0  0  0  0
    3.3342   14.5626   36.8987 H   0  0  0  0  0  0  0  0  0  0  0  0
   -0.2994   20.8939   42.6117 H   0  0  0  0  0  0  0  0  0  0  0  0
    0.9168   20.8539   43.8974 H   0  0  0  0  0  0  0  0  0  0  0  0
    1.3749   17.8474   39.1217 H   0  0  0  0  0  0  0  0  0  0  0  0
    3.8483   14.9096   39.0379 H   0  0  0  0  0  0  0  0  0  0  0  0
    2.0792   14.8586   39.5256 H   0  0  0  0  0  0  0  0  0  0  0  0
   -0.0085   15.1700   45.7622 H   0  0  0  0  0  0  0  0  0  0  0  0
    3.1976   21.8121   36.2768 H   0  0  0  0  0  0  0  0  0  0  0  0
   -0.3297   18.1626   43.0675 H   0  0  0  0  0  0  0  0  0  0  0  0
    1.8295   14.7856   41.9350 H   0  0  0  0  0  0  0  0  0  0  0  0
    0.7450   14.8069   43.4007 H   0  0  0  0  0  0  0  0  0  0  0  0
   -0.4745   17.5809   46.4976 H   0  0  0  0  0  0  0  0  0  0  0  0
    0.1444   19.4609   45.0318 H   0  0  0  0  0  0  0  0  0  0  0  0
    3.0305   16.8667   36.6091 H   0  0  0  0  0  0  0  0  0  0  0  0
    2.4033   22.3769   38.5661 H   0  0  0  0  0  0  0  0  0  0  0  0
    2.4330   21.9457   42.5762 H   0  0  0  0  0  0  0  0  0  0  0  0
    2.1790   20.7746   41.2380 H   0  0  0  0  0  0  0  0  0  0  0  0
    1.0994   22.2010   41.4002 H   0  0  0  0  0  0  0  0  0  0  0  0
  1  3  1  0
  2  6  2  0
  2 24  1  0
  3 12  2  0
  3 21  1  0
  4 10  1  0
  4  9  1  0
  6 15  1  0
  7 10  1  0
  9  2  1  0
 11 18  1  0
 12 23  1  0
 13 20  1  0
 14 24  1  0
 15  8  1  0
 15 13  1  0
 16 11  2  0
 17 13  1  0
 17 16  1  0
 19  5  1  0
 19  9  1  0
 20 18  2  0
 21 19  2  0
 22 21  1  0
 22  4  2  0
 23  5  2  0
 24 17  2  0
 25  8  1  0
  1 26  1  0
  7 27  1  0
  7 28  1  0
  7 29  1  0
  8 30  1  0
  8 31  1  0
  9 32  1  1
 10 33  1  0
 10 34  1  0
 11 35  1  0
 12 36  1  0
 13 37  1  6
 14 38  1  0
 16 39  1  0
 18 40  1  0
 20 41  1  0
 22 42  1  0
 23 43  1  0
 25 44  1  0
 25 45  1  0
 25 46  1  0
M  END
>  <mol_id>  (62) 
2026-08-23-6tgu-s0-n100-prep-0063

>  <rmsd_to_ref>  (62) 


$$$$

     RDKit          3D

 62 67  0  0  0  0  0  0  0  0999 V2000
    2.1700   20.2300   39.5800 C   0  0  0  0  0  0  0  0  0  0  0  0
    2.3940   14.3410   41.4900 C   0  0  0  0  0  0  0  0  0  0  0  0
    0.4960   21.1660   41.2540 C   0  0  0  0  0  0  0  0  0  0  0  0
   -0.3640   14.4120   44.9500 O   0  0  0  0  0  0  0  0  0  0  0  0
    0.0320   18.4030   43.7670 C   0  0  1  0  0  0  0  0  0  0  0  0
    3.6830   20.6820   35.6640 C   0  0  0  0  0  0  0  0  0  0  0  0
   -1.8100   17.7010   47.0460 C   0  0  0  0  0  0  0  0  0  0  0  0
   -0.7780   12.9560   44.9110 C   0  0  0  0  0  0  0  0  0  0  0  0
    1.2500   18.7750   41.3500 C   0  0  0  0  0  0  0  0  0  0  0  0
   -1.1120   17.3350   45.9430 C   0  0  1  0  0  0  0  0  0  0  0  0
    2.7290   20.3820   38.2760 N   0  0  0  0  0  0  0  0  0  0  0  0
    0.7130   15.8970   43.3880 C   0  0  1  0  0  0  0  0  0  0  0  0
    3.5690   18.7130   36.9130 C   0  0  0  0  0  0  0  0  0  0  0  0
    3.9980   19.3480   35.8840 C   0  0  0  0  0  0  0  0  0  0  0  0
   -0.6730   17.4480   44.7550 C   0  0  2  0  0  0  0  0  0  0  0  0
    1.3180   15.1390   41.0720 O   0  0  0  0  0  0  0  0  0  0  0  0
    2.3450   21.5360   36.4660 C   0  0  0  0  0  0  0  0  0  0  0  0
   -2.2020   18.9260   45.7730 O   0  0  0  0  0  0  0  0  0  0  0  0
   -0.8360   20.4800   43.8160 O   0  0  0  0  0  0  0  0  0  0  0  0
    1.0580   16.2080   41.8850 C   0  0  0  0  0  0  0  0  0  0  0  0
    1.0480   17.6040   41.5720 N   0  0  0  0  0  0  0  0  0  0  0  0
    0.0180   17.1830   43.8060 N   0  0  0  0  0  0  0  0  0  0  0  0
   -2.1130   12.9940   44.2890 O   0  0  0  0  0  0  0  0  0  0  0  0
    3.9400   17.5240   37.2870 N   0  0  0  0  0  0  0  0  0  0  0  0
    2.5600   20.8250   37.4370 C   0  0  0  0  0  0  0  0  0  0  0  0
    2.1800   18.9710   40.2680 C   0  0  0  0  0  0  0  0  0  0  0  0
    1.4210   21.2910   40.1570 C   0  0  0  0  0  0  0  0  0  0  0  0
   -0.0650   19.6300   43.1280 C   0  0  1  0  0  0  0  0  0  0  0  0
    3.0350   19.4110   37.7970 C   0  0  0  0  0  0  0  0  0  0  0  0
   -1.2430   18.5960   45.7460 C   0  0  2  0  0  0  0  0  0  0  0  0
    0.5760   19.9060   41.8330 C   0  0  0  0  0  0  0  0  0  0  0  0
   -0.4000   14.8590   43.6470 C   0  0  0  0  0  0  0  0  0  0  0  0
    4.1510   21.3240   34.7620 O   0  0  0  0  0  0  0  0  0  0  0  0
    2.4270   14.3165   42.5892 H   0  0  0  0  0  0  0  0  0  0  0  0
    2.2642   13.3191   41.1042 H   0  0  0  0  0  0  0  0  0  0  0  0
    3.3342   14.7619   41.1042 H   0  0  0  0  0  0  0  0  0  0  0  0
   -0.1840   21.9631   41.5890 H   0  0  0  0  0  0  0  0  0  0  0  0
    0.6659   19.2669   43.5184 H   0  0  0  0  0  0  0  0  0  0  0  0
   -2.8772   17.4607   47.1617 H   0  0  0  0  0  0  0  0  0  0  0  0
   -1.7234   17.6676   48.1421 H   0  0  0  0  0  0  0  0  0  0  0  0
   -0.0778   12.3644   44.3030 H   0  0  0  0  0  0  0  0  0  0  0  0
   -0.7820   12.4852   45.9051 H   0  0  0  0  0  0  0  0  0  0  0  0
   -0.8979   16.2779   46.1590 H   0  0  0  0  0  0  0  0  0  0  0  0
    1.6310   15.5416   43.8789 H   0  0  0  0  0  0  0  0  0  0  0  0
    4.6327   18.8211   35.1563 H   0  0  0  0  0  0  0  0  0  0  0  0
    2.5178   22.6094   36.6334 H   0  0  0  0  0  0  0  0  0  0  0  0
    1.3469   21.6151   36.0104 H   0  0  0  0  0  0  0  0  0  0  0  0
   -2.4904   19.0253   46.7148 H   0  0  0  0  0  0  0  0  0  0  0  0
   -0.7037   20.3342   44.7862 H   0  0  0  0  0  0  0  0  0  0  0  0
   -2.8059   13.0137   44.9958 H   0  0  0  0  0  0  0  0  0  0  0  0
    3.9548   17.4767   38.3158 H   0  0  0  0  0  0  0  0  0  0  0  0
    3.2767   16.8263   36.9207 H   0  0  0  0  0  0  0  0  0  0  0  0
    4.8824   17.3273   36.9207 H   0  0  0  0  0  0  0  0  0  0  0  0
    1.6781   20.2002   37.2323 H   0  0  0  0  0  0  0  0  0  0  0  0
    3.5146   21.3558   37.5676 H   0  0  0  0  0  0  0  0  0  0  0  0
    2.8808   18.1750   39.9762 H   0  0  0  0  0  0  0  0  0  0  0  0
    1.5597   22.2947   39.7287 H   0  0  0  0  0  0  0  0  0  0  0  0
   -0.9485   19.2737   42.5780 H   0  0  0  0  0  0  0  0  0  0  0  0
    2.0349   18.9552   37.7513 H   0  0  0  0  0  0  0  0  0  0  0  0
    4.0357   19.5590   38.2290 H   0  0  0  0  0  0  0  0  0  0  0  0
   -1.3779   15.3239   43.4529 H   0  0  0  0  0  0  0  0  0  0  0  0
   -0.2420   14.0008   42.9773 H   0  0  0  0  0  0  0  0  0  0  0  0
  1 27  1  0
  1 26  2  0
  3 31  1  0
  5 22  1  0
  5 15  1  0
  6 14  1  0
  6 17  1  0
  8  4  1  0
  9 21  1  0
  9 31  2  0
 10  7  1  0
 11  1  1  0
 12 32  1  0
 12 22  1  0
 13 24  1  0
 13 29  1  0
 14 13  2  0
 15 30  1  0
 15 10  1  0
 16  2  1  0
 16 20  1  0
 17 25  1  0
 20 12  1  0
 21 20  2  0
 15 22  1  6
 23  8  1  0
 25 11  1  0
 26  9  1  0
 27  3  2  0
 28  5  1  0
 28 19  1  0
 29 11  1  0
 30 18  1  6
 30 10  1  0
 30  7  1  0
 31 28  1  0
 32  4  1  0
 33  6  2  0
  2 34  1  0
  2 35  1  0
  2 36  1  0
  3 37  1  0
  5 38  1  1
  7 39  1  0
  7 40  1  0
  8 41  1  0
  8 42  1  0
 10 43  1  1
 12 44  1  1
 14 45  1  0
 17 46  1  0
 17 47  1  0
 18 48  1  0
 19 49  1  0
 23 50  1  0
 24 51  1  0
 24 52  1  0
 24 53  1  0
 25 54  1  0
 25 55  1  0
 26 56  1  0
 27 57  1  0
 28 58  1  6
 29 59  1  0
 29 60  1  0
 32 61  1  0
 32 62  1  0
M  CHG  1  24   1
M  END
>  <mol_id>  (63) 
2026-08-23-6tgu-s0-n100-prep-0064

>  <rmsd_to_ref>  (63) 


$$$$

     RDKit          3D

 39 40  0  0  0  0  0  0  0  0999 V2000
    0.0475   19.1639   43.4743 C   0  0  0  0  0  0  0  0  0  0  0  0
    0.7976   18.5544   42.4911 C   0  0  0  0  0  0  0  0  0  0  0  0
    3.2945   17.2710   38.5931 C   0  0  0  0  0  0  0  0  0  0  0  0
    3.3844   19.3300   39.6943 C   0  0  1  0  0  0  0  0  0  0  0  0
    3.2702   19.8453   38.6086 O   0  0  0  0  0  0  0  0  0  0  0  0
   -0.1839   20.5266   43.3319 C   0  0  0  0  0  0  0  0  0  0  0  0
    1.4277   19.2965   41.3666 C   0  0  2  0  0  0  0  0  0  0  0  0
    1.0301   20.6671   41.3071 C   0  0  0  0  0  0  0  0  0  0  0  0
    0.9399   17.3166   42.6484 O   0  0  0  0  0  0  0  0  0  0  0  0
    3.6954   20.5517   39.8515 O   0  0  0  0  0  0  0  0  0  0  0  0
    2.3776   18.5785   40.5860 C   0  0  1  0  0  0  0  0  0  0  0  0
    2.6367   17.0408   39.9993 C   0  0  0  0  0  0  0  0  0  0  0  0
    4.0862   19.5523   36.8618 C   0  0  1  0  0  0  0  0  0  0  0  0
    3.7305   20.7971   37.6314 C   0  0  0  0  0  0  0  0  0  0  0  0
    0.2564   21.2899   42.2054 C   0  0  0  0  0  0  0  0  0  0  0  0
    4.4712   17.0751   36.5296 O   0  0  0  0  0  0  0  0  0  0  0  0
    4.3220   19.8153   35.5335 O   0  0  0  0  0  0  0  0  0  0  0  0
    4.0659   18.0681   37.3468 C   0  0  0  0  0  0  0  0  0  0  0  0
   -0.6894   20.9631   44.3436 O   0  0  0  0  0  0  0  0  0  0  0  0
    4.5374   15.8483   36.9790 C   0  0  0  0  0  0  0  0  0  0  0  0
    2.0710   15.7579   40.3337 C   0  0  0  0  0  0  0  0  0  0  0  0
   -0.9307   18.6618   43.5058 H   0  0  0  0  0  0  0  0  0  0  0  0
    0.6449   19.0680   44.3929 H   0  0  0  0  0  0  0  0  0  0  0  0
    3.9115   18.3868   39.9004 H   0  0  0  0  0  0  0  0  0  0  0  0
    2.2704   19.5692   42.0188 H   0  0  0  0  0  0  0  0  0  0  0  0
    1.3890   21.2599   40.4529 H   0  0  0  0  0  0  0  0  0  0  0  0
    3.7499   20.7565   40.8185 H   0  0  0  0  0  0  0  0  0  0  0  0
    2.0006   18.3949   41.6029 H   0  0  0  0  0  0  0  0  0  0  0  0
    3.0061   19.5011   36.6600 H   0  0  0  0  0  0  0  0  0  0  0  0
    4.5795   21.4244   37.9408 H   0  0  0  0  0  0  0  0  0  0  0  0
    3.1159   21.6164   37.2302 H   0  0  0  0  0  0  0  0  0  0  0  0
   -0.0287   22.3451   42.0819 H   0  0  0  0  0  0  0  0  0  0  0  0
    5.0087   20.5239   35.4543 H   0  0  0  0  0  0  0  0  0  0  0  0
    4.5338   15.8601   38.0789 H   0  0  0  0  0  0  0  0  0  0  0  0
    3.6701   15.2774   36.6156 H   0  0  0  0  0  0  0  0  0  0  0  0
    5.4638   15.3759   36.6203 H   0  0  0  0  0  0  0  0  0  0  0  0
    2.0293   15.6494   41.4275 H   0  0  0  0  0  0  0  0  0  0  0  0
    1.0547   15.6860   39.9191 H   0  0  0  0  0  0  0  0  0  0  0  0
    2.6973   14.9592   39.9096 H   0  0  0  0  0  0  0  0  0  0  0  0
  2  9  2  0
  2  1  1  0
  3 12  2  0
  4 10  1  0
  4 11  1  0
  5  4  1  0
  6  1  1  0
  6 19  2  0
  7  8  1  0
  7  2  1  0
  8 15  2  0
 11 12  1  0
 11  7  1  0
 12 21  1  0
 13 17  1  0
 13 18  1  0
 13 14  1  0
 14  5  1  0
 15  6  1  0
 16 20  1  0
 16 18  1  0
 18  3  2  0
  1 22  1  0
  1 23  1  0
  4 24  1  6
  7 25  1  6
  8 26  1  0
 10 27  1  0
 11 28  1  1
 13 29  1  1
 14 30  1  0
 14 31  1  0
 15 32  1  0
 17 33  1  0
 20 34  1  0
 20 35  1  0
 20 36  1  0
 21 37  1  0
 21 38  1  0
 21 39  1  0
M  END
>  <mol_id>  (64) 
2026-08-23-6tgu-s0-n100-prep-0065

>  <rmsd_to_ref>  (64) 


$$$$

     RDKit          3D

 22 23  0  0  0  0  0  0  0  0999 V2000
    1.3890   17.3780   41.6710 N   0  0  0  0  0  0  0  0  0  0  0  0
    1.9160   21.3890   38.7500 C   0  0  0  0  0  0  0  0  0  0  0  0
   -0.1520   17.9220   43.2980 C   0  0  0  0  0  0  0  0  0  0  0  0
    1.1410   18.7170   41.3880 C   0  0  0  0  0  0  0  0  0  0  0  0
    0.6860   15.6080   43.1490 N   0  0  0  0  0  0  0  0  0  0  0  0
    2.8090   19.2820   38.0390 C   0  0  0  0  0  0  0  0  0  0  0  0
    0.5880   16.9890   42.7270 N   0  0  0  0  0  0  0  0  0  0  0  0
    2.4330   18.6860   39.2390 C   0  0  0  0  0  0  0  0  0  0  0  0
    2.5560   20.5760   37.7550 C   0  0  0  0  0  0  0  0  0  0  0  0
    1.6890   19.3820   40.1980 C   0  0  0  0  0  0  0  0  0  0  0  0
    2.7910   21.1800   36.5520 O   0  0  0  0  0  0  0  0  0  0  0  0
   -0.0270   19.4040   42.4600 S   0  0  0  0  0  0  0  0  0  0  0  0
    1.4790   20.7080   39.9290 C   0  0  0  0  0  0  0  0  0  0  0  0
    1.7705   22.4708   38.6137 H   0  0  0  0  0  0  0  0  0  0  0  0
   -1.2029   17.5969   43.2982 H   0  0  0  0  0  0  0  0  0  0  0  0
    0.2067   18.0712   44.3271 H   0  0  0  0  0  0  0  0  0  0  0  0
    0.6892   15.5628   44.1780 H   0  0  0  0  0  0  0  0  0  0  0  0
   -0.1196   15.0797   42.7847 H   0  0  0  0  0  0  0  0  0  0  0  0
    3.3350   18.6717   37.2901 H   0  0  0  0  0  0  0  0  0  0  0  0
    2.7272   17.6449   39.4379 H   0  0  0  0  0  0  0  0  0  0  0  0
    2.5750   22.1382   36.4286 H   0  0  0  0  0  0  0  0  0  0  0  0
    0.9305   21.2962   40.6795 H   0  0  0  0  0  0  0  0  0  0  0  0
  1  7  1  0
  2 13  2  0
  4  1  2  0
  4 12  1  0
  6  8  1  0
  7  5  1  0
  7  3  1  0
  8 10  2  0
  9  6  2  0
  9  2  1  0
 10  4  1  0
 11  9  1  0
 12  3  1  0
 13 10  1  0
  2 14  1  0
  3 15  1  0
  3 16  1  0
  5 17  1  0
  5 18  1  0
  6 19  1  0
  8 20  1  0
 11 21  1  0
 13 22  1  0
M  END
>  <mol_id>  (65) 
2026-08-23-6tgu-s0-n100-prep-0066

>  <rmsd_to_ref>  (65) 


$$$$

     RDKit          3D

 41 45  0  0  0  0  0  0  0  0999 V2000
    1.0860   16.7487   43.5946 C   0  0  0  0  0  0  0  0  0  0  0  0
   -0.0779   16.0895   45.7607 N   0  0  0  0  0  0  0  0  0  0  0  0
    0.4865   14.9039   45.3363 C   0  0  0  0  0  0  0  0  0  0  0  0
    2.9697   19.5169   38.4589 C   0  0  0  0  0  0  0  0  0  0  0  0
    1.7414   19.7352   40.8519 C   0  0  0  0  0  0  0  0  0  0  0  0
    2.1820   16.8753   41.2750 C   0  0  0  0  0  0  0  0  0  0  0  0
    1.7468   14.5932   42.6003 C   0  0  0  0  0  0  0  0  0  0  0  0
    2.8943   20.9766   38.1998 C   0  0  0  0  0  0  0  0  0  0  0  0
   -0.2801   18.6863   44.7008 C   0  0  0  0  0  0  0  0  0  0  0  0
    1.4610   17.4684   42.4349 C   0  0  0  0  0  0  0  0  0  0  0  0
    3.5592   17.1031   37.7847 C   0  0  0  0  0  0  0  0  0  0  0  0
    3.1251   16.6272   39.0324 C   0  0  0  0  0  0  0  0  0  0  0  0
    0.2803   17.1993   44.7850 C   0  0  0  0  0  0  0  0  0  0  0  0
    3.2799   21.5167   37.0811 O   0  0  0  0  0  0  0  0  0  0  0  0
    2.2278   21.8447   39.2895 C   0  0  0  0  0  0  0  0  0  0  0  0
    1.0982   15.2071   43.8923 C   0  0  2  0  0  0  0  0  0  0  0  0
    1.5057   21.8540   41.5613 O   0  0  0  0  0  0  0  0  0  0  0  0
    1.7990   21.2252   40.5381 C   0  0  0  0  0  0  0  0  0  0  0  0
    0.5569   19.5771   43.5917 C   0  0  0  0  0  0  0  0  0  0  0  0
    3.7342   18.9798   36.1601 O   0  0  0  0  0  0  0  0  0  0  0  0
    3.4743   18.5020   37.4767 C   0  0  0  0  0  0  0  0  0  0  0  0
    0.3508   13.8980   45.8591 O   0  0  0  0  0  0  0  0  0  0  0  0
    1.2288   19.0984   42.2666 C   0  0  0  0  0  0  0  0  0  0  0  0
    2.6208   17.5029   39.9821 C   0  0  0  0  0  0  0  0  0  0  0  0
    2.4668   18.9743   39.7505 C   0  0  0  0  0  0  0  0  0  0  0  0
    3.2720   15.2878   39.3656 O   0  0  0  0  0  0  0  0  0  0  0  0
   -0.6529   16.2048   46.6074 H   0  0  0  0  0  0  0  0  0  0  0  0
    2.4332   15.8096   41.3812 H   0  0  0  0  0  0  0  0  0  0  0  0
    2.5727   13.9254   42.8864 H   0  0  0  0  0  0  0  0  0  0  0  0
    0.9883   14.0213   42.0455 H   0  0  0  0  0  0  0  0  0  0  0  0
    2.1336   15.4028   41.9640 H   0  0  0  0  0  0  0  0  0  0  0  0
   -1.3403   18.6544   44.4091 H   0  0  0  0  0  0  0  0  0  0  0  0
   -0.1636   19.1590   45.6872 H   0  0  0  0  0  0  0  0  0  0  0  0
    3.9656   16.4015   37.0414 H   0  0  0  0  0  0  0  0  0  0  0  0
    3.2103   22.4961   36.9544 H   0  0  0  0  0  0  0  0  0  0  0  0
    2.0777   22.9220   39.1251 H   0  0  0  0  0  0  0  0  0  0  0  0
    0.1013   15.1113   43.4374 H   0  0  0  0  0  0  0  0  0  0  0  0
   -0.1498   20.3586   43.2759 H   0  0  0  0  0  0  0  0  0  0  0  0
    1.4697   19.7496   44.1809 H   0  0  0  0  0  0  0  0  0  0  0  0
    3.6715   19.9480   35.9636 H   0  0  0  0  0  0  0  0  0  0  0  0
    2.9632   14.9603   40.2474 H   0  0  0  0  0  0  0  0  0  0  0  0
  1 16  1  0
  1 13  2  0
  3  2  1  0
  3 22  2  0
  4 25  2  0
  5 23  2  0
  6 10  2  0
  8  4  1  0
  8 15  2  0
  9 13  1  0
 10  1  1  0
 11 12  1  0
 12 26  1  0
 12 24  2  0
 13  2  1  0
 14  8  1  0
 15 18  1  0
 16  7  1  0
 16  3  1  0
 18  5  1  0
 18 17  2  0
 19  9  1  0
 20 21  1  0
 21 11  2  0
 21  4  1  0
 23 10  1  0
 23 19  1  0
 24  6  1  0
 25 24  1  0
 25  5  1  0
  2 27  1  0
  6 28  1  0
  7 29  1  0
  7 30  1  0
  7 31  1  0
  9 32  1  0
  9 33  1  0
 11 34  1  0
 14 35  1  0
 15 36  1  0
 16 37  1  6
 19 38  1  0
 19 39  1  0
 20 40  1  0
 26 41  1  0
M  END
>  <mol_id>  (66) 
2026-08-23-6tgu-s0-n100-prep-0067

>  <rmsd_to_ref>  (66) 


$$$$

     RDKit          3D

 23 25  0  0  0  0  0  0  0  0999 V2000
    2.4059   20.4753   38.5299 N   0  0  0  0  0  0  0  0  0  0  0  0
    1.1577   20.7575   42.0974 C   0  0  0  0  0  0  0  0  0  0  0  0
   -0.0263   18.5612   44.8262 C   0  0  0  0  0  0  0  0  0  0  0  0
    1.7240   18.3955   41.6503 C   0  0  0  0  0  0  0  0  0  0  0  0
    2.5544   17.7827   39.4836 O   0  0  0  0  0  0  0  0  0  0  0  0
    3.0679   18.5311   37.2878 O   0  0  0  0  0  0  0  0  0  0  0  0
    0.3946   16.4069   44.3752 C   0  0  0  0  0  0  0  0  0  0  0  0
    2.8432   19.8182   37.3489 C   0  0  0  0  0  0  0  0  0  0  0  0
    1.6375   17.0822   42.1456 N   0  0  0  0  0  0  0  0  0  0  0  0
    0.6133   18.5557   43.5862 C   0  0  0  0  0  0  0  0  0  0  0  0
   -0.1677   17.3131   45.1551 N   0  0  0  0  0  0  0  0  0  0  0  0
    2.9872   20.5061   36.3183 O   0  0  0  0  0  0  0  0  0  0  0  0
    1.6303   21.0932   40.8416 C   0  0  0  0  0  0  0  0  0  0  0  0
    1.1790   19.3655   42.4763 C   0  0  0  0  0  0  0  0  0  0  0  0
    2.0402   20.1086   39.8807 C   0  0  0  0  0  0  0  0  0  0  0  0
    0.9146   17.2018   43.3362 C   0  0  0  0  0  0  0  0  0  0  0  0
    2.1082   18.7766   40.2602 C   0  0  0  0  0  0  0  0  0  0  0  0
    2.3278   21.4921   38.3846 H   0  0  0  0  0  0  0  0  0  0  0  0
    0.7778   21.5273   42.7853 H   0  0  0  0  0  0  0  0  0  0  0  0
   -0.3448   19.4407   45.4052 H   0  0  0  0  0  0  0  0  0  0  0  0
    2.5717   16.8548   39.8283 H   0  0  0  0  0  0  0  0  0  0  0  0
    0.4436   15.3156   44.5042 H   0  0  0  0  0  0  0  0  0  0  0  0
    1.6945   22.1567   40.5682 H   0  0  0  0  0  0  0  0  0  0  0  0
  1 15  1  0
  2 14  1  0
  3 11  1  0
  4  9  1  0
  4 14  2  0
  5 17  1  0
  7 11  2  0
  8  6  1  0
  8  1  1  0
  9 16  2  0
 10  3  2  0
 12  8  2  0
 13  2  2  0
 14 10  1  0
 15 17  2  0
 15 13  1  0
 16 10  1  0
 16  7  1  0
 17  4  1  0
  1 18  1  0
  2 19  1  0
  3 20  1  0
  5 21  1  0
  7 22  1  0
 13 23  1  0
M  CHG  1   6  -1
M  END
>  <mol_id>  (67) 
2026-08-23-6tgu-s0-n100-prep-0068

>  <rmsd_to_ref>  (67) 


$$$$

     RDKit          3D

 32 33  0  0  0  0  0  0  0  0999 V2000
    3.2053   19.6022   38.4260 C   0  0  0  0  0  0  0  0  0  0  0  0
    0.9231   17.8080   42.6100 N   0  0  0  0  0  0  0  0  0  0  0  0
    2.9756   18.1897   38.5644 C   0  0  0  0  0  0  0  0  0  0  0  0
   -0.0211   18.8564   45.6067 N   0  0  0  0  0  0  0  0  0  0  0  0
    4.4023   20.1259   36.4416 O   0  0  0  0  0  0  0  0  0  0  0  0
    0.5522   19.1470   44.5721 N   0  0  0  0  0  0  0  0  0  0  0  0
    2.5109   20.0481   40.6526 C   0  0  0  0  0  0  0  0  0  0  0  0
   -1.7497   17.3838   46.7002 N   0  0  0  0  0  0  0  0  0  0  0  0
   -0.8059   17.6631   45.5588 C   0  0  0  0  0  0  0  0  0  0  0  0
    0.3743   18.1615   43.7441 C   0  0  0  0  0  0  0  0  0  0  0  0
   -0.4103   17.1003   44.4004 C   0  0  1  0  0  0  0  0  0  0  0  0
    3.5664   20.4188   37.1939 C   0  0  0  0  0  0  0  0  0  0  0  0
    3.1138   21.5746   37.1918 O   0  0  0  0  0  0  0  0  0  0  0  0
   -0.5234   15.6504   43.9471 C   0  0  0  0  0  0  0  0  0  0  0  0
    2.9722   20.5178   39.4577 C   0  0  0  0  0  0  0  0  0  0  0  0
    3.2821   17.1999   37.4453 C   0  0  0  0  0  0  0  0  0  0  0  0
    2.3675   17.8245   39.7465 C   0  0  0  0  0  0  0  0  0  0  0  0
    1.5028   18.4816   41.9021 C   0  0  0  0  0  0  0  0  0  0  0  0
    2.2073   18.6666   40.7503 C   0  0  0  0  0  0  0  0  0  0  0  0
    2.3788   20.7201   41.5133 H   0  0  0  0  0  0  0  0  0  0  0  0
   -2.3283   16.5317   46.6934 H   0  0  0  0  0  0  0  0  0  0  0  0
   -1.8162   18.0452   47.4871 H   0  0  0  0  0  0  0  0  0  0  0  0
   -1.0700   16.3551   43.9318 H   0  0  0  0  0  0  0  0  0  0  0  0
   -0.5039   14.9890   44.8258 H   0  0  0  0  0  0  0  0  0  0  0  0
   -1.4686   15.5091   43.4026 H   0  0  0  0  0  0  0  0  0  0  0  0
    0.3209   15.4062   43.2856 H   0  0  0  0  0  0  0  0  0  0  0  0
    3.1566   21.5919   39.3089 H   0  0  0  0  0  0  0  0  0  0  0  0
    3.6153   16.2462   37.8804 H   0  0  0  0  0  0  0  0  0  0  0  0
    2.3753   17.0324   36.8455 H   0  0  0  0  0  0  0  0  0  0  0  0
    4.0766   17.6073   36.8029 H   0  0  0  0  0  0  0  0  0  0  0  0
    2.0023   16.7929   39.8574 H   0  0  0  0  0  0  0  0  0  0  0  0
    1.4882   19.4709   42.3828 H   0  0  0  0  0  0  0  0  0  0  0  0
  1  3  2  0
  1 15  1  0
  2 10  1  0
  3 17  1  0
  4  9  2  0
  5 12  2  0
  6  4  1  0
  7 19  1  0
  9  8  1  0
 10 11  1  0
 10  6  2  0
 11 14  1  0
 11  9  1  0
 12  1  1  0
 13 12  1  0
 15  7  2  0
 16  3  1  0
 17 19  2  0
 18  2  2  3
 19 18  1  0
  7 20  1  0
  8 21  1  0
  8 22  1  0
 11 23  1  6
 14 24  1  0
 14 25  1  0
 14 26  1  0
 15 27  1  0
 16 28  1  0
 16 29  1  0
 16 30  1  0
 17 31  1  0
 18 32  1  0
M  CHG  1  13  -1
M  END
>  <mol_id>  (68) 
2026-08-23-6tgu-s0-n100-prep-0069

>  <rmsd_to_ref>  (68) 


$$$$

     RDKit          3D

 46 47  0  0  0  0  0  0  0  0999 V2000
    0.0750   18.5120   46.3180 F   0  0  0  0  0  0  0  0  0  0  0  0
    3.7440   12.8690   39.9110 C   0  0  0  0  0  0  0  0  0  0  0  0
    2.1360   20.8840   39.1770 N   0  0  0  0  0  0  0  0  0  0  0  0
    3.0820   16.7620   38.2530 C   0  0  0  0  0  0  0  0  0  0  0  0
   -0.1250   20.9810   42.1190 C   0  0  0  0  0  0  0  0  0  0  0  0
    3.7050   11.8240   39.5100 F   0  0  0  0  0  0  0  0  0  0  0  0
    2.7810   15.1660   40.0470 C   0  0  0  0  0  0  0  0  0  0  0  0
   -0.9290   17.3540   44.7840 F   0  0  0  0  0  0  0  0  0  0  0  0
    2.5340   16.4710   39.6270 C   0  0  0  0  0  0  0  0  0  0  0  0
    3.7090   19.2380   38.5350 C   0  0  0  0  0  0  0  0  0  0  0  0
   -0.2560   19.6280   42.4030 C   0  0  0  0  0  0  0  0  0  0  0  0
    0.7290   21.3390   41.0750 C   0  0  0  0  0  0  0  0  0  0  0  0
   -0.6150   18.5270   45.2710 C   0  0  0  0  0  0  0  0  0  0  0  0
   -2.4760   18.8410   43.2030 C   0  0  0  0  0  0  0  0  0  0  0  0
    4.2960   13.6310   37.3220 O   0  0  0  0  0  0  0  0  0  0  0  0
    3.2120   18.1230   37.6200 C   0  0  1  0  0  0  0  0  0  0  0  0
    1.4500   20.4220   40.3730 C   0  0  0  0  0  0  0  0  0  0  0  0
   -0.8680   19.6840   44.6990 N   0  0  0  0  0  0  0  0  0  0  0  0
    1.4400   19.0610   40.7220 C   0  0  0  0  0  0  0  0  0  0  0  0
    3.6780   15.7970   37.5320 N   0  0  0  0  0  0  0  0  0  0  0  0
    2.7510   20.7400   37.0510 O   0  0  0  0  0  0  0  0  0  0  0  0
    0.5300   18.6960   41.7240 C   0  0  0  0  0  0  0  0  0  0  0  0
    2.7720   20.4100   38.1470 C   0  0  0  0  0  0  0  0  0  0  0  0
   -1.1940   19.3820   43.3960 N   0  0  0  0  0  0  0  0  0  0  0  0
    3.7310   14.5510   38.0050 C   0  0  0  0  0  0  0  0  0  0  0  0
    5.1350   12.8910   39.8880 F   0  0  0  0  0  0  0  0  0  0  0  0
    3.1950   12.7350   41.0580 F   0  0  0  0  0  0  0  0  0  0  0  0
    3.4050   14.2090   39.2810 C   0  0  0  0  0  0  0  0  0  0  0  0
    4.0700   17.9510   36.5820 O   0  0  0  0  0  0  0  0  0  0  0  0
    2.1097   21.9127   39.1315 H   0  0  0  0  0  0  0  0  0  0  0  0
   -0.6732   21.7412   42.6948 H   0  0  0  0  0  0  0  0  0  0  0  0
    2.4554   14.8819   41.0586 H   0  0  0  0  0  0  0  0  0  0  0  0
    2.9992   17.1637   40.3437 H   0  0  0  0  0  0  0  0  0  0  0  0
    1.4426   16.6001   39.5798 H   0  0  0  0  0  0  0  0  0  0  0  0
    3.5936   18.9673   39.5949 H   0  0  0  0  0  0  0  0  0  0  0  0
    4.7787   19.4661   38.4178 H   0  0  0  0  0  0  0  0  0  0  0  0
    0.8232   22.4022   40.8092 H   0  0  0  0  0  0  0  0  0  0  0  0
   -1.5335   18.5216   45.8762 H   0  0  0  0  0  0  0  0  0  0  0  0
   -2.9419   18.6444   44.1799 H   0  0  0  0  0  0  0  0  0  0  0  0
   -3.0942   19.5550   42.6390 H   0  0  0  0  0  0  0  0  0  0  0  0
   -2.3958   17.9000   42.6390 H   0  0  0  0  0  0  0  0  0  0  0  0
    2.2094   18.4672   37.3262 H   0  0  0  0  0  0  0  0  0  0  0  0
   -1.6554   20.1538   45.1682 H   0  0  0  0  0  0  0  0  0  0  0  0
    2.1040   18.3285   40.2397 H   0  0  0  0  0  0  0  0  0  0  0  0
    0.4316   17.6321   41.9855 H   0  0  0  0  0  0  0  0  0  0  0  0
    4.9783   17.7689   36.9313 H   0  0  0  0  0  0  0  0  0  0  0  0
  2 27  1  0
  3 17  1  0
  4  9  1  0
  5 11  1  0
  6  2  1  0
  8 13  1  0
  9  7  1  0
 11 24  1  0
 12  5  2  0
 13  1  1  0
 14 24  1  0
 15 25  2  0
 16 29  1  0
 16  4  1  0
 16 10  1  0
 17 19  2  0
 17 12  1  0
 18 13  1  0
 19 22  1  0
 20 25  1  0
 20  4  2  0
 21 23  2  0
 22 11  2  0
 23 10  1  0
 23  3  1  0
 24 18  1  0
 25 28  1  0
 26  2  1  0
 28  2  1  0
 28  7  2  0
  3 30  1  0
  5 31  1  0
  7 32  1  0
  9 33  1  0
  9 34  1  0
 10 35  1  0
 10 36  1  0
 12 37  1  0
 13 38  1  0
 14 39  1  0
 14 40  1  0
 14 41  1  0
 16 42  1  6
 18 43  1  0
 19 44  1  0
 22 45  1  0
 29 46  1  0
M  END
>  <mol_id>  (69) 
2026-08-23-6tgu-s0-n100-prep-0070

>  <rmsd_to_ref>  (69) 


$$$$

     RDKit          3D

 48 50  0  0  0  0  0  0  0  0999 V2000
   -0.3740   16.1870   45.5980 O   0  0  0  0  0  0  0  0  0  0  0  0
   -0.5090   18.4240   44.0410 N   0  0  0  0  0  0  0  0  0  0  0  0
    0.0870   17.2540   43.6040 C   0  0  1  0  0  0  0  0  0  0  0  0
    1.5350   21.0650   40.8580 C   0  0  0  0  0  0  0  0  0  0  0  0
    0.1390   12.5840   44.5930 C   0  0  0  0  0  0  0  0  0  0  0  0
   -1.1110   19.4480   43.8390 C   0  0  0  0  0  0  0  0  0  0  0  0
    3.7860   17.6640   37.0110 N   0  0  0  0  0  0  0  0  0  0  0  0
    0.0030   16.0170   44.4120 C   0  0  0  0  0  0  0  0  0  0  0  0
    2.5280   20.4580   40.1870 C   0  0  0  0  0  0  0  0  0  0  0  0
    1.4070   18.5050   40.4090 C   0  0  0  0  0  0  0  0  0  0  0  0
    3.2600   18.2150   38.5170 C   0  0  2  0  0  0  0  0  0  0  0  0
    0.7200   17.1550   42.5190 C   0  0  0  0  0  0  0  0  0  0  0  0
    3.4610   20.0920   37.0400 N   0  0  0  0  0  0  0  0  0  0  0  0
    2.4230   19.0440   39.8820 C   0  0  0  0  0  0  0  0  0  0  0  0
    3.6370   19.4140   35.8770 C   0  0  0  0  0  0  0  0  0  0  0  0
    4.0700   19.2700   38.1830 C   0  0  0  0  0  0  0  0  0  0  0  0
   -0.0460   21.2360   42.5650 C   0  0  0  0  0  0  0  0  0  0  0  0
    0.7490   20.3710   41.6510 C   0  0  0  0  0  0  0  0  0  0  0  0
   -0.3250   13.7250   44.3510 C   0  0  0  0  0  0  0  0  0  0  0  0
    0.3020   14.8790   43.9560 N   0  0  0  0  0  0  0  0  0  0  0  0
    3.7390   20.3040   34.7110 O   0  0  0  0  0  0  0  0  0  0  0  0
   -0.7950   20.7270   43.6730 N   0  0  0  0  0  0  0  0  0  0  0  0
    3.7370   18.2420   36.0300 N   0  0  0  0  0  0  0  0  0  0  0  0
    0.8340   18.8000   41.8070 C   0  0  0  0  0  0  0  0  0  0  0  0
   -1.1533   18.0102   44.7298 H   0  0  0  0  0  0  0  0  0  0  0  0
    0.3620   18.9223   43.8086 H   0  0  0  0  0  0  0  0  0  0  0  0
    1.0147   17.5318   44.1257 H   0  0  0  0  0  0  0  0  0  0  0  0
    1.3789   22.1478   40.7434 H   0  0  0  0  0  0  0  0  0  0  0  0
   -0.5340   11.7710   44.9030 H   0  0  0  0  0  0  0  0  0  0  0  0
    1.2186   12.3972   44.4951 H   0  0  0  0  0  0  0  0  0  0  0  0
   -1.6661   19.2191   42.9174 H   0  0  0  0  0  0  0  0  0  0  0  0
   -1.4182   19.5730   44.8878 H   0  0  0  0  0  0  0  0  0  0  0  0
    4.7822   17.4363   37.1402 H   0  0  0  0  0  0  0  0  0  0  0  0
    3.4137   21.0289   39.8714 H   0  0  0  0  0  0  0  0  0  0  0  0
    0.8800   17.7495   39.8077 H   0  0  0  0  0  0  0  0  0  0  0  0
    2.8106   17.2892   38.9056 H   0  0  0  0  0  0  0  0  0  0  0  0
    1.7280   16.7568   42.7074 H   0  0  0  0  0  0  0  0  0  0  0  0
    0.2031   16.4703   41.8305 H   0  0  0  0  0  0  0  0  0  0  0  0
    2.9961   21.0058   37.1384 H   0  0  0  0  0  0  0  0  0  0  0  0
    5.0501   18.8843   37.8659 H   0  0  0  0  0  0  0  0  0  0  0  0
    4.1777   19.9208   39.0632 H   0  0  0  0  0  0  0  0  0  0  0  0
   -0.7709   21.7630   41.9272 H   0  0  0  0  0  0  0  0  0  0  0  0
    0.7484   21.7969   43.0791 H   0  0  0  0  0  0  0  0  0  0  0  0
   -1.4142   13.8139   44.4765 H   0  0  0  0  0  0  0  0  0  0  0  0
    1.0526   14.8137   43.2537 H   0  0  0  0  0  0  0  0  0  0  0  0
   -0.2625   20.9928   44.5137 H   0  0  0  0  0  0  0  0  0  0  0  0
   -1.7226   21.1309   43.4800 H   0  0  0  0  0  0  0  0  0  0  0  0
    3.7855   17.6770   35.1702 H   0  0  0  0  0  0  0  0  0  0  0  0
  3  2  1  0
  3  8  1  0
  4 18  1  0
  6  2  1  0
  7 11  1  0
  8  1  2  0
  9  4  2  0
 10 24  1  0
 11 14  1  0
 12  3  1  0
 13 16  1  0
 14  9  1  0
 14 10  2  0
 15 23  1  0
 15 13  1  0
 16 11  1  0
 17 22  1  0
 18 24  2  0
 18 17  1  0
 19  5  2  3
 20 19  1  0
 20  8  1  0
 21 15  2  0
 22  6  1  0
 23  7  1  0
 24 12  1  0
  2 25  1  0
  2 26  1  0
  3 27  1  1
  4 28  1  0
  5 29  1  0
  5 30  1  0
  6 31  1  0
  6 32  1  0
  7 33  1  0
  9 34  1  0
 10 35  1  0
 11 36  1  1
 12 37  1  0
 12 38  1  0
 13 39  1  0
 16 40  1  0
 16 41  1  0
 17 42  1  0
 17 43  1  0
 19 44  1  0
 20 45  1  0
 22 46  1  0
 22 47  1  0
 23 48  1  0
M  CHG  2   2   1  22   1
M  END
>  <mol_id>  (70) 
2026-08-23-6tgu-s0-n100-prep-0071

>  <rmsd_to_ref>  (70) 


$$$$

     RDKit          3D

 39 40  0  0  0  0  0  0  0  0999 V2000
    3.4668   21.5085   36.4403 O   0  0  0  0  0  0  0  0  0  0  0  0
    0.6554   18.9344   42.6854 C   0  0  0  0  0  0  0  0  0  0  0  0
    3.3572   21.1094   37.5472 C   0  0  0  0  0  0  0  0  0  0  0  0
    0.1089   19.8470   43.4118 N   0  0  0  0  0  0  0  0  0  0  0  0
    2.3513   15.5294   39.4180 O   0  0  0  0  0  0  0  0  0  0  0  0
    2.6867   19.6633   39.4450 C   0  0  0  0  0  0  0  0  0  0  0  0
    3.8812   16.2277   37.6153 C   0  0  0  0  0  0  0  0  0  0  0  0
    1.2025   16.7632   41.5273 N   0  0  0  0  0  0  0  0  0  0  0  0
    1.2292   19.5629   41.5138 C   0  0  0  0  0  0  0  0  0  0  0  0
   -0.5570   19.5763   44.6430 C   0  0  0  0  0  0  0  0  0  0  0  0
    0.3009   21.0496   42.7820 C   0  0  0  0  0  0  0  0  0  0  0  0
    0.6411   17.4754   42.6831 C   0  0  0  0  0  0  0  0  0  0  0  0
    3.2685   19.1635   39.7065 C   0  0  0  0  0  0  0  0  0  0  0  0
    2.6365   22.2022   38.1966 O   0  0  0  0  0  0  0  0  0  0  0  0
    1.0899   20.9391   41.6854 C   0  0  0  0  0  0  0  0  0  0  0  0
    3.4860   17.2506   38.6388 N   0  0  0  0  0  0  0  0  0  0  0  0
    2.0327   17.4034   40.6315 C   0  0  0  0  0  0  0  0  0  0  0  0
    3.7654   18.5062   38.7856 C   0  0  0  0  0  0  0  0  0  0  0  0
    2.1922   18.6632   40.6173 C   0  0  0  0  0  0  0  0  0  0  0  0
    3.9952   20.3116   38.0062 C   0  0  0  0  0  0  0  0  0  0  0  0
    2.6120   16.6857   39.5664 C   0  0  0  0  0  0  0  0  0  0  0  0
    0.0399   16.5113   43.5781 N   0  0  0  0  0  0  0  0  0  0  0  0
    2.9033   20.3905   38.6485 H   0  0  0  0  0  0  0  0  0  0  0  0
    1.6803   19.6146   39.8864 H   0  0  0  0  0  0  0  0  0  0  0  0
    4.1788   15.2978   38.1221 H   0  0  0  0  0  0  0  0  0  0  0  0
    3.0286   16.0261   36.9501 H   0  0  0  0  0  0  0  0  0  0  0  0
    4.7261   16.6091   37.0230 H   0  0  0  0  0  0  0  0  0  0  0  0
    0.0936   19.8626   45.4824 H   0  0  0  0  0  0  0  0  0  0  0  0
   -1.4915   20.1548   44.6894 H   0  0  0  0  0  0  0  0  0  0  0  0
   -0.7871   18.5024   44.7071 H   0  0  0  0  0  0  0  0  0  0  0  0
   -0.1365   21.9979   43.1279 H   0  0  0  0  0  0  0  0  0  0  0  0
    1.5197   21.7464   41.0742 H   0  0  0  0  0  0  0  0  0  0  0  0
    4.8567   18.5721   38.9071 H   0  0  0  0  0  0  0  0  0  0  0  0
    3.3147   18.9615   37.8914 H   0  0  0  0  0  0  0  0  0  0  0  0
    3.9072   20.3569   39.1018 H   0  0  0  0  0  0  0  0  0  0  0  0
    3.6604   19.3255   37.6520 H   0  0  0  0  0  0  0  0  0  0  0  0
    5.0444   20.4687   37.7159 H   0  0  0  0  0  0  0  0  0  0  0  0
    0.1485   15.5031   43.3972 H   0  0  0  0  0  0  0  0  0  0  0  0
   -0.4967   16.8328   44.3964 H   0  0  0  0  0  0  0  0  0  0  0  0
  1  3  2  0
  2 12  2  0
  2  4  1  0
  3 20  1  0
  3 14  1  0
  4 10  1  0
  5 21  2  0
  6 13  2  3
  7 16  1  0
  8 12  1  0
  9 15  1  0
  9  2  1  0
 11  4  1  0
 12 22  1  0
 13 19  1  0
 15 11  2  0
 16 18  1  0
 16 21  1  0
 17  8  2  0
 18 13  1  0
 19 17  1  0
 19  9  2  0
 21 17  1  0
  6 23  1  0
  6 24  1  0
  7 25  1  0
  7 26  1  0
  7 27  1  0
 10 28  1  0
 10 29  1  0
 10 30  1  0
 11 31  1  0
 15 32  1  0
 18 33  1  0
 18 34  1  0
 20 35  1  0
 20 36  1  0
 20 37  1  0
 22 38  1  0
 22 39  1  0
M  CHG  1  14  -1
M  END
>  <mol_id>  (71) 
2026-08-23-6tgu-s0-n100-prep-0072

>  <rmsd_to_ref>  (71) 


$$$$

     RDKit          3D

 23 25  0  0  0  0  0  0  0  0999 V2000
   -1.1605   20.0670   43.6791 N   0  0  0  0  0  0  0  0  0  0  0  0
    1.7442   17.3292   40.2349 S   0  0  0  0  0  0  0  0  0  0  0  0
    1.3964   18.8922   40.4736 C   0  0  0  0  0  0  0  0  0  0  0  0
   -0.8227   18.7248   43.4991 C   0  0  0  0  0  0  0  0  0  0  0  0
    3.0137   20.6499   36.7299 O   0  0  0  0  0  0  0  0  0  0  0  0
   -1.3080   17.8658   44.3656 N   0  0  0  0  0  0  0  0  0  0  0  0
    2.4331   18.9713   38.5348 C   0  0  0  0  0  0  0  0  0  0  0  0
    0.1193   18.3722   42.4781 N   0  0  0  0  0  0  0  0  0  0  0  0
    0.5851   19.2976   41.6382 C   0  0  0  0  0  0  0  0  0  0  0  0
    3.3613   17.2433   37.4794 C   0  0  0  0  0  0  0  0  0  0  0  0
    3.0071   19.4528   37.2606 C   0  0  0  0  0  0  0  0  0  0  0  0
    2.5982   17.6680   38.7409 C   0  0  0  0  0  0  0  0  0  0  0  0
    0.2515   20.6994   41.8454 C   0  0  0  0  0  0  0  0  0  0  0  0
    1.7668   20.9897   39.4746 F   0  0  0  0  0  0  0  0  0  0  0  0
   -0.5986   20.9947   42.8451 C   0  0  0  0  0  0  0  0  0  0  0  0
    1.8638   19.6746   39.5691 N   0  0  0  0  0  0  0  0  0  0  0  0
    3.5359   18.3125   36.6179 N   0  0  0  0  0  0  0  0  0  0  0  0
   -1.0877   16.8636   44.2758 H   0  0  0  0  0  0  0  0  0  0  0  0
   -1.9090   18.1941   45.1349 H   0  0  0  0  0  0  0  0  0  0  0  0
    0.4390   17.3969   42.3924 H   0  0  0  0  0  0  0  0  0  0  0  0
    3.7224   16.2226   37.2850 H   0  0  0  0  0  0  0  0  0  0  0  0
    0.6787   21.4877   41.2082 H   0  0  0  0  0  0  0  0  0  0  0  0
   -0.8592   22.0518   43.0024 H   0  0  0  0  0  0  0  0  0  0  0  0
  2  3  1  0
  3  9  2  3
  4  1  2  0
  4  6  1  0
  5 11  2  0
  7 12  2  0
  7 16  1  0
  8  4  1  0
  9 13  1  0
  9  8  1  0
 10 12  1  0
 11  7  1  0
 12  2  1  0
 13 15  2  0
 14 16  1  0
 15  1  1  0
 16  3  1  0
 17 11  1  0
 17 10  2  0
  6 18  1  0
  6 19  1  0
  8 20  1  0
 10 21  1  0
 13 22  1  0
 15 23  1  0
M  END
>  <mol_id>  (72) 
2026-08-23-6tgu-s0-n100-prep-0073

>  <rmsd_to_ref>  (72) 


$$$$

     RDKit          3D

 38 41  0  0  0  0  0  0  0  0999 V2000
    2.4684   15.7324   38.9109 C   0  0  0  0  0  0  0  0  0  0  0  0
   -0.8025   20.2550   43.1869 C   0  0  0  0  0  0  0  0  0  0  0  0
   -1.0172   16.7370   44.4352 C   0  0  0  0  0  0  0  0  0  0  0  0
    1.4285   16.3663   41.7288 O   0  0  0  0  0  0  0  0  0  0  0  0
    3.2185   21.2553   35.4413 O   0  0  0  0  0  0  0  0  0  0  0  0
    1.6826   19.0768   39.4636 C   0  0  0  0  0  0  0  0  0  0  0  0
   -1.3680   18.0405   44.3507 C   0  0  0  0  0  0  0  0  0  0  0  0
   -0.7441   18.8485   43.3439 C   0  0  0  0  0  0  0  0  0  0  0  0
    1.7133   17.8349   39.8722 N   0  0  0  0  0  0  0  0  0  0  0  0
   -0.0640   16.1752   43.4679 C   0  0  0  0  0  0  0  0  0  0  0  0
    3.2726   17.6728   36.6124 C   0  0  0  0  0  0  0  0  0  0  0  0
    2.3521   20.3887   37.3318 C   0  0  0  0  0  0  0  0  0  0  0  0
    0.4960   19.4717   41.4967 N   0  0  0  0  0  0  0  0  0  0  0  0
    3.5115   18.9074   35.7750 C   0  0  0  0  0  0  0  0  0  0  0  0
   -0.0849   20.5993   41.9857 C   0  0  0  0  0  0  0  0  0  0  0  0
    0.5597   16.9279   42.4502 C   0  0  0  0  0  0  0  0  0  0  0  0
    2.2189   19.2198   38.2155 C   0  0  0  0  0  0  0  0  0  0  0  0
    2.6509   17.9810   37.8176 C   0  0  0  0  0  0  0  0  0  0  0  0
    2.3825   17.1948   38.8386 C   0  0  0  0  0  0  0  0  0  0  0  0
    1.1127   20.0222   40.1483 N   0  0  0  0  0  0  0  0  0  0  0  0
    0.1375   18.3882   42.3828 C   0  0  0  0  0  0  0  0  0  0  0  0
    0.1035   21.8606   41.5547 N   0  0  0  0  0  0  0  0  0  0  0  0
    3.0658   20.2649   36.0887 C   0  0  0  0  0  0  0  0  0  0  0  0
   -1.3398   21.1607   43.9324 O   0  0  0  0  0  0  0  0  0  0  0  0
    2.5213   15.4199   39.9642 H   0  0  0  0  0  0  0  0  0  0  0  0
    1.5780   15.2891   38.4411 H   0  0  0  0  0  0  0  0  0  0  0  0
    3.3704   15.3916   38.3816 H   0  0  0  0  0  0  0  0  0  0  0  0
   -1.4434   16.1001   45.2244 H   0  0  0  0  0  0  0  0  0  0  0  0
   -2.1129   18.4697   45.0369 H   0  0  0  0  0  0  0  0  0  0  0  0
    0.7534   15.7482   44.0674 H   0  0  0  0  0  0  0  0  0  0  0  0
   -0.7245   15.5258   42.8745 H   0  0  0  0  0  0  0  0  0  0  0  0
    3.5557   16.6548   36.3063 H   0  0  0  0  0  0  0  0  0  0  0  0
    1.9079   21.3529   37.6203 H   0  0  0  0  0  0  0  0  0  0  0  0
    4.0746   18.7726   34.8397 H   0  0  0  0  0  0  0  0  0  0  0  0
    1.0681   21.0072   39.8503 H   0  0  0  0  0  0  0  0  0  0  0  0
   -0.3960   22.6395   42.0071 H   0  0  0  0  0  0  0  0  0  0  0  0
    0.7473   22.0467   40.7725 H   0  0  0  0  0  0  0  0  0  0  0  0
   -1.2870   22.1137   43.6694 H   0  0  0  0  0  0  0  0  0  0  0  0
  2  8  1  0
  2 24  1  0
  4 16  2  0
  5 23  2  0
  6  9  2  0
  6 20  1  0
  7  3  2  0
  8  7  1  0
 10  3  1  0
 11 18  1  0
 12 17  2  0
 13 15  1  0
 13 21  1  0
 14 23  1  0
 14 11  2  0
 15  2  2  0
 16 10  1  0
 17  6  1  0
 18 17  1  0
 18 19  2  0
 19  1  1  0
 19  9  1  0
 20 13  1  0
 21 16  1  0
 21  8  2  0
 22 15  1  0
 23 12  1  0
  1 25  1  0
  1 26  1  0
  1 27  1  0
  3 28  1  0
  7 29  1  0
 10 30  1  0
 10 31  1  0
 11 32  1  0
 12 33  1  0
 14 34  1  0
 20 35  1  0
 22 36  1  0
 22 37  1  0
 24 38  1  0
M  END
>  <mol_id>  (73) 
2026-08-23-6tgu-s0-n100-prep-0074

>  <rmsd_to_ref>  (73) 


$$$$

     RDKit          3D

 35 38  0  0  0  0  0  0  0  0999 V2000
    0.1350   18.6350   42.8070 C   0  0  0  0  0  0  0  0  0  0  0  0
    1.0600   16.4310   42.1750 C   0  0  0  0  0  0  0  0  0  0  0  0
    4.1770   18.0970   36.0820 O   0  0  0  0  0  0  0  0  0  0  0  0
    3.7110   19.4530   36.3880 N   0  0  0  0  0  0  0  0  0  0  0  0
    3.0510   19.7600   37.5620 C   0  0  0  0  0  0  0  0  0  0  0  0
   -0.4960   19.4830   43.6720 N   0  0  0  0  0  0  0  0  0  0  0  0
   -0.0580   14.1080   44.1500 C   0  0  0  0  0  0  0  0  0  0  0  0
    2.5520   21.0600   37.7220 C   0  0  0  0  0  0  0  0  0  0  0  0
   -1.0110   18.9330   44.8100 C   0  0  0  0  0  0  0  0  0  0  0  0
    1.7470   16.9810   41.1240 C   0  0  0  0  0  0  0  0  0  0  0  0
    1.6240   20.4260   39.8930 C   0  0  0  0  0  0  0  0  0  0  0  0
    0.8460   20.5000   41.0720 C   0  0  0  0  0  0  0  0  0  0  0  0
    4.1270   20.5230   35.5860 O   0  0  0  0  0  0  0  0  0  0  0  0
    1.9210   21.3950   38.9670 C   0  0  0  0  0  0  0  0  0  0  0  0
    0.3290   17.2220   43.0720 C   0  0  0  0  0  0  0  0  0  0  0  0
   -0.9780   17.5640   45.1650 C   0  0  0  0  0  0  0  0  0  0  0  0
    2.8480   18.7640   38.5400 C   0  0  2  0  0  0  0  0  0  0  0  0
    1.5900   18.3380   40.8040 C   0  0  0  0  0  0  0  0  0  0  0  0
    2.0580   19.0990   39.7160 C   0  0  0  0  0  0  0  0  0  0  0  0
    0.8160   19.2220   41.6510 C   0  0  0  0  0  0  0  0  0  0  0  0
   -0.2610   16.6670   44.2500 C   0  0  0  0  0  0  0  0  0  0  0  0
    3.2070   17.5190   38.4600 O   0  0  0  0  0  0  0  0  0  0  0  0
   -0.1790   15.3520   44.6650 O   0  0  0  0  0  0  0  0  0  0  0  0
    1.0830   15.3406   42.3181 H   0  0  0  0  0  0  0  0  0  0  0  0
    0.0131   13.3773   44.9692 H   0  0  0  0  0  0  0  0  0  0  0  0
   -0.9382   13.8802   43.5309 H   0  0  0  0  0  0  0  0  0  0  0  0
    0.8496   14.0541   43.5309 H   0  0  0  0  0  0  0  0  0  0  0  0
    2.6415   21.8030   36.9158 H   0  0  0  0  0  0  0  0  0  0  0  0
   -1.4979   19.6194   45.5184 H   0  0  0  0  0  0  0  0  0  0  0  0
    2.4260   16.3541   40.5274 H   0  0  0  0  0  0  0  0  0  0  0  0
    0.3517   21.4004   41.4656 H   0  0  0  0  0  0  0  0  0  0  0  0
    1.6715   22.4445   39.1825 H   0  0  0  0  0  0  0  0  0  0  0  0
   -1.4640   17.1911   46.0786 H   0  0  0  0  0  0  0  0  0  0  0  0
    1.8787   18.5138   38.0840 H   0  0  0  0  0  0  0  0  0  0  0  0
    3.3142   17.1473   39.3713 H   0  0  0  0  0  0  0  0  0  0  0  0
  1 15  2  0
  1  6  1  0
  2 15  1  0
  3  4  1  0
  4  5  1  0
  5  8  2  0
  5 17  1  0
  6  9  2  0
  7 23  1  0
  8 14  1  0
  9 16  1  0
 10  2  2  0
 11 12  1  0
 12 20  2  0
 13  4  2  0
 14 11  2  0
 15 21  1  0
 17 22  1  0
 17 19  1  0
 18 10  1  0
 18 20  1  0
 19 11  1  0
 19 18  2  0
 20  1  1  0
 21 23  1  0
 21 16  2  0
  2 24  1  0
  7 25  1  0
  7 26  1  0
  7 27  1  0
  8 28  1  0
  9 29  1  0
 10 30  1  0
 12 31  1  0
 14 32  1  0
 16 33  1  0
 17 34  1  1
 22 35  1  0
M  CHG  2   3  -1   4   1
M  END
>  <mol_id>  (74) 
2026-08-23-6tgu-s0-n100-prep-0075

>  <rmsd_to_ref>  (74) 


$$$$

     RDKit          3D

 47 50  0  0  0  0  0  0  0  0999 V2000
    1.0594   19.1080   41.6869 O   0  0  0  0  0  0  0  0  0  0  0  0
    3.2629   21.3514   35.5583 O   0  0  0  0  0  0  0  0  0  0  0  0
   -0.9095   15.1551   44.9682 C   0  0  0  0  0  0  0  0  0  0  0  0
    2.7407   20.2127   37.5837 C   0  0  0  0  0  0  0  0  0  0  0  0
   -0.3829   16.2853   44.2753 C   0  0  0  0  0  0  0  0  0  0  0  0
    4.1968   14.6724   38.0781 F   0  0  0  0  0  0  0  0  0  0  0  0
    0.5262   16.2653   43.3146 N   0  0  0  0  0  0  0  0  0  0  0  0
    0.6619   21.3051   42.0134 C   0  0  0  0  0  0  0  0  0  0  0  0
    2.6479   21.4115   36.7624 C   0  0  0  0  0  0  0  0  0  0  0  0
   -0.6565   17.6883   44.7206 C   0  0  0  0  0  0  0  0  0  0  0  0
    2.5770   18.3435   38.9379 C   0  0  0  0  0  0  0  0  0  0  0  0
   -0.6175   13.9249   44.4559 C   0  0  0  0  0  0  0  0  0  0  0  0
    2.8316   16.0041   39.5236 C   0  0  0  0  0  0  0  0  0  0  0  0
    0.2464   19.3135   42.7918 C   0  0  2  0  0  0  0  0  0  0  0  0
    1.2037   20.3525   41.0995 C   0  0  2  0  0  0  0  0  0  0  0  0
    2.3248   17.3211   39.8247 C   0  0  0  0  0  0  0  0  0  0  0  0
    2.2926   19.8217   38.8485 C   0  0  0  0  0  0  0  0  0  0  0  0
    1.3453   21.8631   39.5148 O   0  0  0  0  0  0  0  0  0  0  0  0
    2.0708   22.4244   36.9921 O   0  0  0  0  0  0  0  0  0  0  0  0
   -0.2578   18.5205   43.7556 N   0  0  0  0  0  0  0  0  0  0  0  0
    2.3036   14.3389   41.6637 Cl  0  0  0  0  0  0  0  0  0  0  0  0
    3.2836   17.9885   37.7031 C   0  0  2  0  0  0  0  0  0  0  0  0
    0.2127   13.8365   43.2760 C   0  0  0  0  0  0  0  0  0  0  0  0
    0.9157   14.9305   42.7052 C   0  0  0  0  0  0  0  0  0  0  0  0
    1.6028   20.6966   39.8002 C   0  0  0  0  0  0  0  0  0  0  0  0
    3.5332   15.7688   38.3631 C   0  0  0  0  0  0  0  0  0  0  0  0
   -0.0516   20.5600   42.9876 C   0  0  0  0  0  0  0  0  0  0  0  0
    3.6862   16.7517   37.3402 C   0  0  0  0  0  0  0  0  0  0  0  0
   -1.7318   15.2865   46.1996 C   0  0  0  0  0  0  0  0  0  0  0  0
    3.4243   19.1534   37.0179 N   0  0  0  0  0  0  0  0  0  0  0  0
   -1.1310   18.0131   45.7603 O   0  0  0  0  0  0  0  0  0  0  0  0
   -0.0165   21.9936   41.4883 H   0  0  0  0  0  0  0  0  0  0  0  0
    1.4543   21.9123   42.4753 H   0  0  0  0  0  0  0  0  0  0  0  0
   -1.0080   13.0141   44.9334 H   0  0  0  0  0  0  0  0  0  0  0  0
    2.6554   15.1790   40.2294 H   0  0  0  0  0  0  0  0  0  0  0  0
    1.1375   19.4268   43.4266 H   0  0  0  0  0  0  0  0  0  0  0  0
    2.1064   20.2909   40.4738 H   0  0  0  0  0  0  0  0  0  0  0  0
    1.7487   17.5044   40.7437 H   0  0  0  0  0  0  0  0  0  0  0  0
   -1.1942   18.9414   43.6722 H   0  0  0  0  0  0  0  0  0  0  0  0
    2.3199   17.8226   37.1994 H   0  0  0  0  0  0  0  0  0  0  0  0
    0.3063   12.8555   42.7870 H   0  0  0  0  0  0  0  0  0  0  0  0
    0.2521   20.8685   43.9988 H   0  0  0  0  0  0  0  0  0  0  0  0
   -1.1353   20.7274   42.8998 H   0  0  0  0  0  0  0  0  0  0  0  0
    4.0953   16.5226   36.3452 H   0  0  0  0  0  0  0  0  0  0  0  0
   -1.0976   15.1225   47.0833 H   0  0  0  0  0  0  0  0  0  0  0  0
   -2.1680   16.2954   46.2434 H   0  0  0  0  0  0  0  0  0  0  0  0
   -2.5384   14.5387   46.1834 H   0  0  0  0  0  0  0  0  0  0  0  0
  1 14  1  0
  2  9  2  0
  3 29  1  0
  4 17  1  0
  5 10  1  0
  5  3  2  0
  6 26  1  0
  7  5  1  0
  8 27  1  0
  9 19  1  0
  9  4  1  0
 10 31  2  0
 11 16  1  0
 12  3  1  0
 13 16  2  0
 14 27  1  0
 14 20  1  0
 15 25  1  0
 15  1  1  0
 15  8  1  0
 17 11  2  0
 17 25  1  0
 18 25  2  0
 20 10  1  0
 21 24  1  0
 22 28  1  0
 22 11  1  0
 23 12  2  0
 24  7  2  0
 24 23  1  0
 26 13  1  0
 28 26  2  0
 30  4  2  0
 30 22  1  0
  8 32  1  0
  8 33  1  0
 12 34  1  0
 13 35  1  0
 14 36  1  6
 15 37  1  1
 16 38  1  0
 20 39  1  0
 22 40  1  6
 23 41  1  0
 27 42  1  0
 27 43  1  0
 28 44  1  0
 29 45  1  0
 29 46  1  0
 29 47  1  0
M  CHG  1  19  -1
M  END
>  <mol_id>  (75) 
2026-08-23-6tgu-s0-n100-prep-0076

>  <rmsd_to_ref>  (75) 


$$$$

     RDKit          3D

 38 41  0  0  0  0  0  0  0  0999 V2000
    2.3140   21.0880   37.9610 C   0  0  0  0  0  0  0  0  0  0  0  0
    1.0630   18.2550   41.5910 C   0  0  0  0  0  0  0  0  0  0  0  0
    2.2550   12.6340   42.2580 O   0  0  0  0  0  0  0  0  0  0  0  0
    1.8800   20.5230   39.0970 C   0  0  0  0  0  0  0  0  0  0  0  0
    0.1190   18.1990   44.6690 C   0  0  0  0  0  0  0  0  0  0  0  0
    3.4290   19.0240   37.2620 C   0  0  0  0  0  0  0  0  0  0  0  0
    3.4710   20.9660   35.8610 C   0  0  0  0  0  0  0  0  0  0  0  0
    2.8560   14.2530   40.0490 O   0  0  0  0  0  0  0  0  0  0  0  0
    2.1470   14.6190   41.0360 C   0  0  0  0  0  0  0  0  0  0  0  0
    1.6260   13.6330   42.0660 C   0  0  0  0  0  0  0  0  0  0  0  0
    0.3990   19.3720   42.2530 C   0  0  0  0  0  0  0  0  0  0  0  0
   -1.0070   20.3330   43.8380 N   0  0  0  0  0  0  0  0  0  0  0  0
   -0.1990   19.2410   43.6400 C   0  0  1  0  0  0  0  0  0  0  0  0
    2.9140   18.4080   38.4090 C   0  0  0  0  0  0  0  0  0  0  0  0
   -0.9900   21.1090   42.7220 C   0  0  0  0  0  0  0  0  0  0  0  0
    2.1780   19.1120   39.3620 C   0  0  0  0  0  0  0  0  0  0  0  0
   -0.0960   20.5690   41.8280 C   0  0  0  0  0  0  0  0  0  0  0  0
    3.8490   21.2990   34.9250 N   0  0  0  0  0  0  0  0  0  0  0  0
    2.3340   17.0150   40.0290 C   0  0  0  0  0  0  0  0  0  0  0  0
    2.9810   16.9920   38.8700 N   0  0  0  0  0  0  0  0  0  0  0  0
    0.3280   13.8380   42.7440 C   0  0  0  0  0  0  0  0  0  0  0  0
    1.8120   18.3330   40.3890 C   0  0  0  0  0  0  0  0  0  0  0  0
    1.1480   16.8560   42.0200 C   0  0  0  0  0  0  0  0  0  0  0  0
    3.1230   20.4070   37.0300 C   0  0  0  0  0  0  0  0  0  0  0  0
    1.8760   16.0840   41.0890 C   0  0  0  0  0  0  0  0  0  0  0  0
    2.0260   22.1278   37.7468 H   0  0  0  0  0  0  0  0  0  0  0  0
    1.3045   21.1138   39.8249 H   0  0  0  0  0  0  0  0  0  0  0  0
   -0.0111   18.6252   45.6747 H   0  0  0  0  0  0  0  0  0  0  0  0
   -0.5583   17.3413   44.5438 H   0  0  0  0  0  0  0  0  0  0  0  0
    1.1598   17.8657   44.5438 H   0  0  0  0  0  0  0  0  0  0  0  0
    4.0545   18.4604   36.5541 H   0  0  0  0  0  0  0  0  0  0  0  0
    0.6532   19.7955   44.0598 H   0  0  0  0  0  0  0  0  0  0  0  0
   -1.5906   22.0164   42.5613 H   0  0  0  0  0  0  0  0  0  0  0  0
    0.1873   21.0477   40.8790 H   0  0  0  0  0  0  0  0  0  0  0  0
    0.4758   13.8147   43.8338 H   0  0  0  0  0  0  0  0  0  0  0  0
   -0.0886   14.8131   42.4513 H   0  0  0  0  0  0  0  0  0  0  0  0
   -0.3688   13.0388   42.4513 H   0  0  0  0  0  0  0  0  0  0  0  0
    0.7034   16.4601   42.9450 H   0  0  0  0  0  0  0  0  0  0  0  0
  1  4  2  0
  2 23  1  0
  2 11  1  0
  4 16  1  0
  6 14  1  0
  7 24  1  0
  8  9  2  0
  9 25  1  0
  9 10  1  0
 10  3  2  0
 10 21  1  0
 11 13  1  0
 13 12  1  0
 13  5  1  0
 14 20  1  0
 14 16  2  0
 15 12  2  0
 16 22  1  0
 17 11  2  0
 17 15  1  0
 18  7  3  0
 19 22  1  0
 19 25  1  0
 20 19  2  0
 22  2  2  0
 24  6  2  0
 24  1  1  0
 25 23  2  0
  1 26  1  0
  4 27  1  0
  5 28  1  0
  5 29  1  0
  5 30  1  0
  6 31  1  0
 13 32  1  6
 15 33  1  0
 17 34  1  0
 21 35  1  0
 21 36  1  0
 21 37  1  0
 23 38  1  0
M  END
>  <mol_id>  (76) 
2026-08-23-6tgu-s0-n100-prep-0077

>  <rmsd_to_ref>  (76) 


$$$$

     RDKit          3D

 27 28  0  0  0  0  0  0  0  0999 V2000
    3.0370   20.7620   36.7470 C   0  0  0  0  0  0  0  0  0  0  0  0
    2.8490   20.0590   37.8760 C   0  0  0  0  0  0  0  0  0  0  0  0
    2.1030   19.2520   40.1100 C   0  0  0  0  0  0  0  0  0  0  0  0
    0.5370   17.9810   42.9110 C   0  0  0  0  0  0  0  0  0  0  0  0
    2.8280   15.9030   38.7870 C   0  0  0  0  0  0  0  0  0  0  0  0
   -0.8610   20.3360   43.3740 C   0  0  0  0  0  0  0  0  0  0  0  0
    1.9330   19.1340   41.3830 N   0  0  0  0  0  0  0  0  0  0  0  0
    3.1020   18.6600   38.1040 C   0  0  0  0  0  0  0  0  0  0  0  0
    4.0370   20.5910   36.0210 O   0  0  0  0  0  0  0  0  0  0  0  0
    2.1100   21.6910   36.4970 O   0  0  0  0  0  0  0  0  0  0  0  0
    2.6590   18.1950   39.3370 C   0  0  0  0  0  0  0  0  0  0  0  0
    0.0760   20.2800   42.3830 C   0  0  0  0  0  0  0  0  0  0  0  0
   -0.4090   18.0070   43.9530 C   0  0  0  0  0  0  0  0  0  0  0  0
    1.9590   20.7060   39.2520 S   0  0  0  0  0  0  0  0  0  0  0  0
    2.7040   16.9540   39.7970 O   0  0  0  0  0  0  0  0  0  0  0  0
   -1.1170   19.2370   44.1880 C   0  0  0  0  0  0  0  0  0  0  0  0
    0.8950   19.1360   42.2380 C   0  0  0  0  0  0  0  0  0  0  0  0
    1.0003   17.0248   42.6264 H   0  0  0  0  0  0  0  0  0  0  0  0
    2.9430   14.9285   39.2841 H   0  0  0  0  0  0  0  0  0  0  0  0
    1.9252   15.8899   38.1587 H   0  0  0  0  0  0  0  0  0  0  0  0
    3.7091   16.1004   38.1587 H   0  0  0  0  0  0  0  0  0  0  0  0
   -1.4243   21.2675   43.5321 H   0  0  0  0  0  0  0  0  0  0  0  0
    2.8287   19.0039   41.8746 H   0  0  0  0  0  0  0  0  0  0  0  0
    3.6024   18.0151   37.3666 H   0  0  0  0  0  0  0  0  0  0  0  0
    0.1948   21.1289   41.6936 H   0  0  0  0  0  0  0  0  0  0  0  0
   -0.6008   17.1153   44.5679 H   0  0  0  0  0  0  0  0  0  0  0  0
   -1.8529   19.3079   45.0025 H   0  0  0  0  0  0  0  0  0  0  0  0
  1  2  1  0
  2  8  2  0
  2 14  1  0
  3  7  1  0
  4 13  2  0
  5 15  1  0
  6 16  2  0
  7 17  1  0
  8 11  1  0
  9  1  2  0
 10  1  1  0
 11 15  1  0
 11  3  2  0
 12  6  1  0
 13 16  1  0
 14  3  1  0
 17 12  2  0
 17  4  1  0
  4 18  1  0
  5 19  1  0
  5 20  1  0
  5 21  1  0
  6 22  1  0
  7 23  1  0
  8 24  1  0
 12 25  1  0
 13 26  1  0
 16 27  1  0
M  CHG  1  10  -1
M  END
>  <mol_id>  (77) 
2026-08-23-6tgu-s0-n100-prep-0078

>  <rmsd_to_ref>  (77) 


$$$$

     RDKit          3D

 30 31  0  0  0  0  0  0  0  0999 V2000
    2.5860   18.6690   39.0340 C   0  0  0  0  0  0  0  0  0  0  0  0
    0.3800   19.8290   42.2130 C   0  0  0  0  0  0  0  0  0  0  0  0
   -0.8150   20.2250   44.2520 O   0  0  0  0  0  0  0  0  0  0  0  0
   -0.4090   17.9310   43.6870 C   0  0  1  0  0  0  0  0  0  0  0  0
   -1.0680   17.5830   45.0130 C   0  0  0  0  0  0  0  0  0  0  0  0
    2.0070   21.1190   39.9530 S   0  0  0  0  0  0  0  0  0  0  0  0
    2.7880   17.2990   39.1720 C   0  0  0  0  0  0  0  0  0  0  0  0
    1.7960   19.5530   40.0290 C   0  0  0  0  0  0  0  0  0  0  0  0
    3.7950   17.8910   37.3600 N   0  0  0  0  0  0  0  0  0  0  0  0
   -0.6960   17.0700   46.0710 C   0  0  0  0  0  0  0  0  0  0  0  0
    3.1810   20.1840   36.9650 C   0  0  0  0  0  0  0  0  0  0  0  0
   -0.0790   17.0860   42.7220 C   0  0  0  0  0  0  0  0  0  0  0  0
    3.5430   16.8780   38.1800 O   0  0  0  0  0  0  0  0  0  0  0  0
    1.0540   18.8840   41.2480 C   0  0  0  0  0  0  0  0  0  0  0  0
    4.1350   20.3250   36.1240 O   0  0  0  0  0  0  0  0  0  0  0  0
   -0.3210   19.4010   43.4930 C   0  0  0  0  0  0  0  0  0  0  0  0
    0.9030   17.5050   41.6740 C   0  0  0  0  0  0  0  0  0  0  0  0
    2.3450   21.0760   36.9280 O   0  0  0  0  0  0  0  0  0  0  0  0
    0.3430   21.1460   41.9290 O   0  0  0  0  0  0  0  0  0  0  0  0
    3.1230   18.9900   37.7910 C   0  0  0  0  0  0  0  0  0  0  0  0
    0.5823   17.7960   44.1442 H   0  0  0  0  0  0  0  0  0  0  0  0
   -2.1338   17.8545   45.0331 H   0  0  0  0  0  0  0  0  0  0  0  0
    2.3826   16.6706   39.9787 H   0  0  0  0  0  0  0  0  0  0  0  0
   -1.4098   16.9329   46.8966 H   0  0  0  0  0  0  0  0  0  0  0  0
    0.3496   16.7495   46.1891 H   0  0  0  0  0  0  0  0  0  0  0  0
    0.3366   16.1917   43.2093 H   0  0  0  0  0  0  0  0  0  0  0  0
   -1.0160   16.9606   42.1597 H   0  0  0  0  0  0  0  0  0  0  0  0
    0.6461   16.9334   40.7700 H   0  0  0  0  0  0  0  0  0  0  0  0
    1.8621   17.3213   42.1803 H   0  0  0  0  0  0  0  0  0  0  0  0
    0.7809   21.4882   41.1097 H   0  0  0  0  0  0  0  0  0  0  0  0
  1  7  2  0
  1  8  1  0
  2 16  1  0
  4  5  1  0
  5 10  2  3
  6  8  2  0
  8 14  1  0
  9 20  2  0
  9 13  1  0
 11 20  1  0
 12  4  1  0
 13  7  1  0
 14 17  1  0
 14  2  2  0
 15 11  2  0
 16  4  1  0
 16  3  2  0
 17 12  1  0
 18 11  1  0
 19  2  1  0
 20  1  1  0
  4 21  1  1
  5 22  1  0
  7 23  1  0
 10 24  1  0
 10 25  1  0
 12 26  1  0
 12 27  1  0
 17 28  1  0
 17 29  1  0
 19 30  1  0
M  CHG  1  18  -1
M  END
>  <mol_id>  (78) 
2026-08-23-6tgu-s0-n100-prep-0079

>  <rmsd_to_ref>  (78) 


$$$$

     RDKit          3D

 26 27  0  0  0  0  0  0  0  0999 V2000
    3.8452   19.8396   36.1544 O   0  0  0  0  0  0  0  0  0  0  0  0
    0.4719   19.4997   42.3765 C   0  0  0  0  0  0  0  0  0  0  0  0
    2.2629   19.6058   39.3129 C   0  0  2  0  0  0  0  0  0  0  0  0
    3.3140   18.6131   38.4383 S   0  0  0  0  0  0  0  0  0  0  0  0
    2.1810   19.3609   40.6759 C   0  0  0  0  0  0  0  0  0  0  0  0
    0.2724   18.3825   44.4599 C   0  0  0  0  0  0  0  0  0  0  0  0
    0.9559   18.5688   43.2697 C   0  0  0  0  0  0  0  0  0  0  0  0
    1.0810   19.8886   41.2003 N   0  0  0  0  0  0  0  0  0  0  0  0
    1.4923   20.4795   38.5439 C   0  0  0  0  0  0  0  0  0  0  0  0
    3.0946   19.7677   37.0951 C   0  0  0  0  0  0  0  0  0  0  0  0
   -0.8997   19.1255   44.7088 C   0  0  0  0  0  0  0  0  0  0  0  0
   -0.7843   20.1866   42.6289 C   0  0  0  0  0  0  0  0  0  0  0  0
    1.9190   20.5160   37.2829 C   0  0  0  0  0  0  0  0  0  0  0  0
   -1.3989   19.9736   43.7429 N   0  0  0  0  0  0  0  0  0  0  0  0
    3.0825   20.3177   39.4901 H   0  0  0  0  0  0  0  0  0  0  0  0
    2.1709   18.2739   40.8437 H   0  0  0  0  0  0  0  0  0  0  0  0
    3.0517   19.8244   41.1626 H   0  0  0  0  0  0  0  0  0  0  0  0
    0.6409   17.6614   45.2044 H   0  0  0  0  0  0  0  0  0  0  0  0
    1.8624   17.9881   43.0432 H   0  0  0  0  0  0  0  0  0  0  0  0
    0.6407   20.6610   40.6804 H   0  0  0  0  0  0  0  0  0  0  0  0
    0.4454   20.1423   38.5587 H   0  0  0  0  0  0  0  0  0  0  0  0
    1.5808   21.4894   38.9706 H   0  0  0  0  0  0  0  0  0  0  0  0
   -1.4168   19.0285   45.6748 H   0  0  0  0  0  0  0  0  0  0  0  0
   -1.2038   20.8767   41.8821 H   0  0  0  0  0  0  0  0  0  0  0  0
    2.1177   21.5621   37.0069 H   0  0  0  0  0  0  0  0  0  0  0  0
    1.1349   20.0752   36.6496 H   0  0  0  0  0  0  0  0  0  0  0  0
  1 10  2  0
  2 12  2  0
  2  7  1  0
  3  5  1  0
  4  3  1  0
  5  8  1  0
  6 11  1  0
  7  6  2  0
  8  2  1  0
  9  3  1  0
 10 13  1  0
 10  4  1  0
 12 14  1  0
 13  9  1  0
 14 11  2  0
  3 15  1  1
  5 16  1  0
  5 17  1  0
  6 18  1  0
  7 19  1  0
  8 20  1  0
  9 21  1  0
  9 22  1  0
 11 23  1  0
 12 24  1  0
 13 25  1  0
 13 26  1  0
M  END
>  <mol_id>  (79) 
2026-08-23-6tgu-s0-n100-prep-0080

>  <rmsd_to_ref>  (79) 


$$$$

     RDKit          3D

 29 30  0  0  0  0  0  0  0  0999 V2000
    3.5000   19.1630   37.0860 C   0  0  0  0  0  0  0  0  0  0  0  0
    0.2730   18.3770   42.9240 C   0  0  0  0  0  0  0  0  0  0  0  0
   -0.8810   20.6880   44.0030 N   0  0  0  0  0  0  0  0  0  0  0  0
    1.0900   20.8630   40.4450 C   0  0  0  0  0  0  0  0  0  0  0  0
   -0.3460   18.3770   44.2330 C   0  0  0  0  0  0  0  0  0  0  0  0
    2.4850   18.2750   39.4850 C   0  0  0  0  0  0  0  0  0  0  0  0
    2.9170   16.8540   39.3120 C   0  0  0  0  0  0  0  0  0  0  0  0
    2.7760   16.0610   40.2620 O   0  0  0  0  0  0  0  0  0  0  0  0
    1.6470   18.5520   40.5880 C   0  0  0  0  0  0  0  0  0  0  0  0
   -0.8510   19.5370   44.7320 C   0  0  0  0  0  0  0  0  0  0  0  0
    0.3180   19.5240   42.2800 C   0  0  0  0  0  0  0  0  0  0  0  0
    1.0250   19.6200   41.0760 C   0  0  1  0  0  0  0  0  0  0  0  0
    1.6600   21.2580   39.3540 C   0  0  0  0  0  0  0  0  0  0  0  0
   -0.4320   17.3460   45.0000 O   0  0  0  0  0  0  0  0  0  0  0  0
    3.6480   20.2170   36.4330 O   0  0  0  0  0  0  0  0  0  0  0  0
    3.8850   18.0040   36.7080 O   0  0  0  0  0  0  0  0  0  0  0  0
    2.3520   20.5520   38.4750 C   0  0  0  0  0  0  0  0  0  0  0  0
    3.3080   16.4070   38.2120 O   0  0  0  0  0  0  0  0  0  0  0  0
   -0.2730   20.6610   42.8040 C   0  0  0  0  0  0  0  0  0  0  0  0
    2.7690   19.2220   38.4160 C   0  0  0  0  0  0  0  0  0  0  0  0
    0.6881   17.4572   42.4863 H   0  0  0  0  0  0  0  0  0  0  0  0
    0.5525   21.6605   40.9789 H   0  0  0  0  0  0  0  0  0  0  0  0
    1.4624   17.6555   41.1981 H   0  0  0  0  0  0  0  0  0  0  0  0
   -1.2483   19.5465   45.7577 H   0  0  0  0  0  0  0  0  0  0  0  0
    0.1305   19.3680   40.4874 H   0  0  0  0  0  0  0  0  0  0  0  0
    1.5551   22.3288   39.1250 H   0  0  0  0  0  0  0  0  0  0  0  0
   -0.8706   17.4221   45.8843 H   0  0  0  0  0  0  0  0  0  0  0  0
    2.6669   21.1414   37.6012 H   0  0  0  0  0  0  0  0  0  0  0  0
   -0.2438   21.5869   42.2109 H   0  0  0  0  0  0  0  0  0  0  0  0
  1 20  1  0
  2  5  2  0
  3 10  2  0
  4 12  1  0
  5 10  1  0
  5 14  1  0
  6  9  2  0
  7  6  1  0
  7  8  1  0
  9 12  1  0
 11 19  2  0
 11  2  1  0
 12 11  1  0
 13  4  2  0
 15  1  2  0
 16  1  1  0
 17 13  1  0
 18  7  2  0
 19  3  1  0
 20 17  2  0
 20  6  1  0
  2 21  1  0
  4 22  1  0
  9 23  1  0
 10 24  1  0
 12 25  1  6
 13 26  1  0
 14 27  1  0
 17 28  1  0
 19 29  1  0
M  CHG  2   8  -1  16  -1
M  END
>  <mol_id>  (80) 
2026-08-23-6tgu-s0-n100-prep-0081

>  <rmsd_to_ref>  (80) 


$$$$

     RDKit          3D

 45 49  0  0  0  0  0  0  0  0999 V2000
    2.3740   14.1820   41.5610 C   0  0  1  0  0  0  0  0  0  0  0  0
    2.4550   19.4740   38.4170 C   0  0  0  0  0  0  0  0  0  0  0  0
   -1.0660   19.7410   43.8850 C   0  0  0  0  0  0  0  0  0  0  0  0
   -0.6290   18.4280   43.9540 C   0  0  0  0  0  0  0  0  0  0  0  0
    1.8640   17.7270   40.1370 C   0  0  1  0  0  0  0  0  0  0  0  0
    0.5180   18.8440   41.9850 C   0  0  0  0  0  0  0  0  0  0  0  0
   -1.0840   17.5560   45.2200 C   0  0  0  0  0  0  0  0  0  0  0  0
    1.2090   18.3070   40.9710 N   0  0  0  0  0  0  0  0  0  0  0  0
    2.0050   15.4180   41.4170 C   0  0  2  0  0  0  0  0  0  0  0  0
    0.1220   17.9650   42.9900 C   0  0  0  0  0  0  0  0  0  0  0  0
    2.4810   18.1730   38.8320 C   0  0  0  0  0  0  0  0  0  0  0  0
    3.1510   13.8740   40.5670 C   0  0  2  0  0  0  0  0  0  0  0  0
    0.2990   20.1590   42.0170 C   0  0  0  0  0  0  0  0  0  0  0  0
    3.4220   18.2600   36.7960 O   0  0  0  0  0  0  0  0  0  0  0  0
    1.8950   13.3520   42.6030 F   0  0  0  0  0  0  0  0  0  0  0  0
   -0.6900   22.0340   43.2490 O   0  0  0  0  0  0  0  0  0  0  0  0
   -0.4350   20.6610   43.0860 C   0  0  0  0  0  0  0  0  0  0  0  0
    3.0690   17.4310   37.8000 N   0  0  0  0  0  0  0  0  0  0  0  0
    2.0140   20.6640   38.9880 C   0  0  0  0  0  0  0  0  0  0  0  0
    4.1250   12.8480   40.3640 F   0  0  0  0  0  0  0  0  0  0  0  0
    2.9280   21.9690   37.1320 C   0  0  0  0  0  0  0  0  0  0  0  0
    3.1540   14.7030   39.5250 C   0  0  0  0  0  0  0  0  0  0  0  0
    3.3180   20.8380   36.4710 C   0  0  0  0  0  0  0  0  0  0  0  0
    2.5420   15.5540   40.1200 C   0  0  0  0  0  0  0  0  0  0  0  0
    2.3400   21.9620   38.4500 C   0  0  0  0  0  0  0  0  0  0  0  0
    2.0200   16.4480   40.4610 C   0  0  0  0  0  0  0  0  0  0  0  0
    3.1060   19.5670   37.1510 C   0  0  0  0  0  0  0  0  0  0  0  0
    1.5405   13.8585   40.9202 H   0  0  0  0  0  0  0  0  0  0  0  0
   -1.9357   20.0520   44.4824 H   0  0  0  0  0  0  0  0  0  0  0  0
    0.9439   17.4759   39.5890 H   0  0  0  0  0  0  0  0  0  0  0  0
   -0.8092   18.0826   46.1458 H   0  0  0  0  0  0  0  0  0  0  0  0
   -2.1738   17.4090   45.1914 H   0  0  0  0  0  0  0  0  0  0  0  0
   -0.5812   16.5780   45.1914 H   0  0  0  0  0  0  0  0  0  0  0  0
    0.9582   19.0684   40.3242 H   0  0  0  0  0  0  0  0  0  0  0  0
    1.0499   15.0827   40.9864 H   0  0  0  0  0  0  0  0  0  0  0  0
    0.4328   16.9100   42.9728 H   0  0  0  0  0  0  0  0  0  0  0  0
    2.3705   13.2133   40.1616 H   0  0  0  0  0  0  0  0  0  0  0  0
    0.6843   20.8214   41.2278 H   0  0  0  0  0  0  0  0  0  0  0  0
   -1.2173   22.3509   44.0246 H   0  0  0  0  0  0  0  0  0  0  0  0
    1.3881   20.6124   39.8911 H   0  0  0  0  0  0  0  0  0  0  0  0
    3.0702   22.9383   36.6317 H   0  0  0  0  0  0  0  0  0  0  0  0
    2.6159   14.3081   38.6506 H   0  0  0  0  0  0  0  0  0  0  0  0
    4.1158   14.9682   39.0617 H   0  0  0  0  0  0  0  0  0  0  0  0
    3.7718   20.8853   35.4701 H   0  0  0  0  0  0  0  0  0  0  0  0
    2.1519   22.8899   39.0101 H   0  0  0  0  0  0  0  0  0  0  0  0
  1 15  1  0
  2 11  1  0
  2 19  2  0
  3  4  2  0
  4  7  1  0
  5 26  1  0
  5  8  1  0
  6 13  1  0
  6 10  2  0
  8  6  1  0
  9 24  1  0
  9  1  1  0
 10  4  1  0
 11  5  1  0
 12 20  1  0
 12  1  1  0
 13 17  2  0
 14 27  1  0
 14 18  1  0
 17 16  1  0
 17  3  1  0
 18 11  2  0
 21 25  2  0
 22 24  1  0
 22 12  1  0
 23 21  1  0
 23 27  2  0
 24 26  2  0
 25 19  1  0
 26  9  1  0
 27  2  1  0
  1 28  1  1
  3 29  1  0
  5 30  1  6
  7 31  1  0
  7 32  1  0
  7 33  1  0
  8 34  1  0
  9 35  1  6
 10 36  1  0
 12 37  1  6
 13 38  1  0
 16 39  1  0
 19 40  1  0
 21 41  1  0
 22 42  1  0
 22 43  1  0
 23 44  1  0
 25 45  1  0
M  END
>  <mol_id>  (81) 
2026-08-23-6tgu-s0-n100-prep-0082

>  <rmsd_to_ref>  (81) 


$$$$

     RDKit          3D

 76 75  0  0  0  0  0  0  0  0999 V2000
    1.8713   25.8065   45.0972 C   0  0  0  0  0  0  0  0  0  0  0  0
    2.9736   11.1214   34.2375 C   0  0  0  0  0  0  0  0  0  0  0  0
    1.1363   16.5076   41.4396 C   0  0  0  0  0  0  0  0  0  0  0  0
    4.3703   12.2171   36.0504 C   0  0  0  0  0  0  0  0  0  0  0  0
    2.6171   14.0307   39.6627 S   0  0  0  0  0  0  0  0  0  0  0  0
    1.7415   26.1637   43.6129 C   0  0  0  0  0  0  0  0  0  0  0  0
    3.8446   15.4690   37.2287 N   0  0  0  0  0  0  0  0  0  0  0  0
    2.7100   22.4823   42.4657 C   0  0  0  0  0  0  0  0  0  0  0  0
    4.5367   13.5999   35.9870 C   0  0  0  0  0  0  0  0  0  0  0  0
    3.7222   17.8144   38.0258 C   0  0  0  0  0  0  0  0  0  0  0  0
    1.3689   18.7814   41.5643 C   0  0  0  0  0  0  0  0  0  0  0  0
    4.3449   11.3334   34.8160 C   0  0  0  0  0  0  0  0  0  0  0  0
    1.8663   20.9534   40.6115 O   0  0  0  0  0  0  0  0  0  0  0  0
    0.2985   18.5363   42.3788 N   0  0  0  0  0  0  0  0  0  0  0  0
    1.0351   15.0593   41.6923 C   0  0  0  0  0  0  0  0  0  0  0  0
   -1.0256   16.5348   44.4997 C   0  0  0  0  0  0  0  0  0  0  0  0
    1.2691   22.2291   42.5209 C   0  0  0  0  0  0  0  0  0  0  0  0
    2.8846   21.4809   39.8862 C   0  0  0  0  0  0  0  0  0  0  0  0
    2.6725   15.8265   39.5562 O   0  0  0  0  0  0  0  0  0  0  0  0
    2.9937   23.8967   44.4868 O   0  0  0  0  0  0  0  0  0  0  0  0
    0.9248   21.5825   41.1927 C   0  0  0  0  0  0  0  0  0  0  0  0
    3.2292   18.2441   38.7744 C   0  0  0  0  0  0  0  0  0  0  0  0
    3.3747   24.7308   42.2509 O   0  0  0  0  0  0  0  0  0  0  0  0
    1.9203   17.4444   40.9290 C   0  0  1  0  0  0  0  0  0  0  0  0
    0.4745   17.0314   42.3697 C   0  0  0  0  0  0  0  0  0  0  0  0
   -0.0794   14.5748   42.8101 S   0  0  0  0  0  0  0  0  0  0  0  0
    0.5387   22.2954   43.4262 O   0  0  0  0  0  0  0  0  0  0  0  0
    3.1611   13.1975   38.2511 C   0  0  0  0  0  0  0  0  0  0  0  0
    3.9625   14.2722   37.0328 C   0  0  0  0  0  0  0  0  0  0  0  0
   -0.3536   16.2379   43.3587 N   0  0  0  0  0  0  0  0  0  0  0  0
    2.9731   23.8749   43.1567 C   0  0  0  0  0  0  0  0  0  0  0  0
    2.9822   15.9668   38.3607 C   0  0  0  0  0  0  0  0  0  0  0  0
    2.9557   17.6531   40.1602 C   0  0  0  0  0  0  0  0  0  0  0  0
    0.6598   25.6462   43.7339 C   0  0  0  0  0  0  0  0  0  0  0  0
    3.6106   21.6098   39.1269 N   0  0  0  0  0  0  0  0  0  0  0  0
    4.2738   18.0572   36.7673 O   0  0  0  0  0  0  0  0  0  0  0  0
    1.3687   26.5738   45.7043 H   0  0  0  0  0  0  0  0  0  0  0  0
    1.4029   24.8284   45.2813 H   0  0  0  0  0  0  0  0  0  0  0  0
    2.9355   25.7609   45.3717 H   0  0  0  0  0  0  0  0  0  0  0  0
    2.2480   10.9881   35.0534 H   0  0  0  0  0  0  0  0  0  0  0  0
    2.6907   11.9968   33.6345 H   0  0  0  0  0  0  0  0  0  0  0  0
    2.9787   10.2240   33.6013 H   0  0  0  0  0  0  0  0  0  0  0  0
    5.1924   11.8405   36.6767 H   0  0  0  0  0  0  0  0  0  0  0  0
    3.3317   12.1348   36.4034 H   0  0  0  0  0  0  0  0  0  0  0  0
    2.4414   25.6502   42.9372 H   0  0  0  0  0  0  0  0  0  0  0  0
    1.8993   27.1734   43.2061 H   0  0  0  0  0  0  0  0  0  0  0  0
    3.2516   21.6888   43.0014 H   0  0  0  0  0  0  0  0  0  0  0  0
    3.0617   22.4943   41.4234 H   0  0  0  0  0  0  0  0  0  0  0  0
    5.6144   13.8201   35.9826 H   0  0  0  0  0  0  0  0  0  0  0  0
    4.0346   13.9424   35.0703 H   0  0  0  0  0  0  0  0  0  0  0  0
    3.8974   16.7597   38.2847 H   0  0  0  0  0  0  0  0  0  0  0  0
    1.0576   19.4608   40.7571 H   0  0  0  0  0  0  0  0  0  0  0  0
    2.1685   19.2367   42.1671 H   0  0  0  0  0  0  0  0  0  0  0  0
    4.7608   10.3516   35.0862 H   0  0  0  0  0  0  0  0  0  0  0  0
    4.9364   11.8497   34.0456 H   0  0  0  0  0  0  0  0  0  0  0  0
    0.4038   18.9482   43.3169 H   0  0  0  0  0  0  0  0  0  0  0  0
   -0.6169   18.9146   42.0961 H   0  0  0  0  0  0  0  0  0  0  0  0
    0.7836   14.5718   40.7388 H   0  0  0  0  0  0  0  0  0  0  0  0
    2.0095   14.7718   42.1140 H   0  0  0  0  0  0  0  0  0  0  0  0
   -0.4453   16.1886   45.3677 H   0  0  0  0  0  0  0  0  0  0  0  0
   -1.1717   17.6230   44.5667 H   0  0  0  0  0  0  0  0  0  0  0  0
   -2.0047   16.0334   44.4897 H   0  0  0  0  0  0  0  0  0  0  0  0
    0.5817   22.3760   40.5124 H   0  0  0  0  0  0  0  0  0  0  0  0
    0.1636   20.8231   41.4244 H   0  0  0  0  0  0  0  0  0  0  0  0
    2.8374   19.2547   38.5868 H   0  0  0  0  0  0  0  0  0  0  0  0
    1.2560   17.5246   40.0560 H   0  0  0  0  0  0  0  0  0  0  0  0
    3.8813   12.4254   38.5598 H   0  0  0  0  0  0  0  0  0  0  0  0
    2.2701   12.7716   37.7665 H   0  0  0  0  0  0  0  0  0  0  0  0
    3.2765   17.0266   38.3673 H   0  0  0  0  0  0  0  0  0  0  0  0
    2.1867   15.2655   38.0683 H   0  0  0  0  0  0  0  0  0  0  0  0
    3.3826   16.6434   40.0689 H   0  0  0  0  0  0  0  0  0  0  0  0
    3.2551   18.5697   40.6897 H   0  0  0  0  0  0  0  0  0  0  0  0
    0.4267   25.5294   44.8026 H   0  0  0  0  0  0  0  0  0  0  0  0
   -0.1046   26.2788   43.2589 H   0  0  0  0  0  0  0  0  0  0  0  0
    0.6699   24.6580   43.2508 H   0  0  0  0  0  0  0  0  0  0  0  0
    4.7262   17.3265   36.2757 H   0  0  0  0  0  0  0  0  0  0  0  0
  2 12  1  0
  3 15  1  0
  3 25  2  0
  6 34  1  0
  6  1  1  0
  7 32  1  0
  8 17  1  0
  8 31  1  0
  9  4  1  0
  9 29  1  0
 10 22  2  3
 11 14  1  0
 12  4  1  0
 13 21  1  0
 14 25  1  0
 15 26  1  0
 17 27  2  0
 18 13  1  0
 19  5  1  0
 21 17  1  0
 22 33  1  0
 23 31  2  0
 24 33  1  0
 24  3  1  0
 24 11  1  0
 25 30  1  0
 26 30  1  0
 28  5  1  0
 29  7  2  0
 29 28  1  0
 30 16  1  0
 31 20  1  0
 32 19  1  0
 35 18  3  0
 36 10  1  0
  1 37  1  0
  1 38  1  0
  1 39  1  0
  2 40  1  0
  2 41  1  0
  2 42  1  0
  4 43  1  0
  4 44  1  0
  6 45  1  0
  6 46  1  0
  8 47  1  0
  8 48  1  0
  9 49  1  0
  9 50  1  0
 10 51  1  0
 11 52  1  0
 11 53  1  0
 12 54  1  0
 12 55  1  0
 14 56  1  0
 14 57  1  0
 15 58  1  0
 15 59  1  0
 16 60  1  0
 16 61  1  0
 16 62  1  0
 21 63  1  0
 21 64  1  0
 22 65  1  0
 24 66  1  6
 28 67  1  0
 28 68  1  0
 32 69  1  0
 32 70  1  0
 33 71  1  0
 33 72  1  0
 34 73  1  0
 34 74  1  0
 34 75  1  0
 36 76  1  0
M  CHG  2  14   1  20  -1
M  END
>  <mol_id>  (82) 
2026-08-23-6tgu-s0-n100-prep-0083

>  <rmsd_to_ref>  (82) 


$$$$

     RDKit          3D

 56 59  0  0  0  0  0  0  0  0999 V2000
    0.9560   19.2530   40.8040 C   0  0  0  0  0  0  0  0  0  0  0  0
    0.1570   17.7750   43.0410 C   0  0  0  0  0  0  0  0  0  0  0  0
   -0.5340   15.4960   45.1330 C   0  0  0  0  0  0  0  0  0  0  0  0
    1.3270   21.9860   40.1770 O   0  0  0  0  0  0  0  0  0  0  0  0
   -0.6580   19.7500   44.3120 C   0  0  0  0  0  0  0  0  0  0  0  0
    3.5470   21.0090   35.3730 C   0  0  0  0  0  0  0  0  0  0  0  0
    3.8570   20.2590   36.3420 O   0  0  0  0  0  0  0  0  0  0  0  0
    2.9160   16.6070   38.7750 C   0  0  2  0  0  0  0  0  0  0  0  0
    2.8330   17.6580   39.4640 N   0  0  0  0  0  0  0  0  0  0  0  0
    3.0830   20.1070   37.3970 C   0  0  0  0  0  0  0  0  0  0  0  0
    3.1450   14.0910   39.7030 C   0  0  0  0  0  0  0  0  0  0  0  0
   -1.0170   20.9270   44.3310 O   0  0  0  0  0  0  0  0  0  0  0  0
    0.8360   15.5860   42.9370 C   0  0  1  0  0  0  0  0  0  0  0  0
    0.0870   19.8050   41.7410 C   0  0  0  0  0  0  0  0  0  0  0  0
    2.3630   18.6010   39.0290 N   0  0  0  0  0  0  0  0  0  0  0  0
    1.8460   19.7270   39.7190 C   0  0  0  0  0  0  0  0  0  0  0  0
    2.0430   13.7330   41.8750 C   0  0  0  0  0  0  0  0  0  0  0  0
    3.7830   13.5290   38.5670 C   0  0  0  0  0  0  0  0  0  0  0  0
   -0.5160   19.0330   45.4660 N   0  0  0  0  0  0  0  0  0  0  0  0
    1.5700   15.0440   41.8550 C   0  0  0  0  0  0  0  0  0  0  0  0
    0.4790   15.0380   44.0780 C   0  0  0  0  0  0  0  0  0  0  0  0
    1.8550   21.0710   39.4300 C   0  0  0  0  0  0  0  0  0  0  0  0
    3.1410   17.2830   37.4860 C   0  0  0  0  0  0  0  0  0  0  0  0
    2.4610   21.1540   38.1100 C   0  0  0  0  0  0  0  0  0  0  0  0
    2.6700   15.4260   39.7960 C   0  0  0  0  0  0  0  0  0  0  0  0
    0.5990   16.9100   42.9780 C   0  0  0  0  0  0  0  0  0  0  0  0
    1.9160   15.8350   40.8490 N   0  0  0  0  0  0  0  0  0  0  0  0
   -0.2680   19.1530   43.0380 C   0  0  1  0  0  0  0  0  0  0  0  0
    2.9080   18.6610   37.8330 C   0  0  0  0  0  0  0  0  0  0  0  0
    2.7950   13.1510   40.8330 C   0  0  0  0  0  0  0  0  0  0  0  0
    0.9918   18.1573   40.8948 H   0  0  0  0  0  0  0  0  0  0  0  0
   -0.1259   15.3115   46.1377 H   0  0  0  0  0  0  0  0  0  0  0  0
   -0.7316   16.5710   45.0093 H   0  0  0  0  0  0  0  0  0  0  0  0
   -1.4716   14.9342   45.0093 H   0  0  0  0  0  0  0  0  0  0  0  0
    1.3729   22.9362   39.9029 H   0  0  0  0  0  0  0  0  0  0  0  0
    3.1534   21.9614   35.7578 H   0  0  0  0  0  0  0  0  0  0  0  0
    4.4390   21.2023   34.7590 H   0  0  0  0  0  0  0  0  0  0  0  0
    2.7789   20.5161   34.7590 H   0  0  0  0  0  0  0  0  0  0  0  0
    4.0017   16.5784   38.9495 H   0  0  0  0  0  0  0  0  0  0  0  0
    2.2877   17.4174   40.3040 H   0  0  0  0  0  0  0  0  0  0  0  0
    0.5083   14.7358   42.3207 H   0  0  0  0  0  0  0  0  0  0  0  0
    0.5165   20.7823   42.0064 H   0  0  0  0  0  0  0  0  0  0  0  0
   -0.8704   19.7365   41.2038 H   0  0  0  0  0  0  0  0  0  0  0  0
    1.8163   13.1150   42.7563 H   0  0  0  0  0  0  0  0  0  0  0  0
    4.5709   12.8350   38.8949 H   0  0  0  0  0  0  0  0  0  0  0  0
    3.0427   12.9842   37.9627 H   0  0  0  0  0  0  0  0  0  0  0  0
    4.2300   14.3321   37.9627 H   0  0  0  0  0  0  0  0  0  0  0  0
   -0.2143   18.0489   45.4271 H   0  0  0  0  0  0  0  0  0  0  0  0
   -0.7106   19.4764   46.3751 H   0  0  0  0  0  0  0  0  0  0  0  0
    0.1286   14.0353   43.7921 H   0  0  0  0  0  0  0  0  0  0  0  0
    1.3889   15.2900   44.6424 H   0  0  0  0  0  0  0  0  0  0  0  0
    4.1691   17.1286   37.1266 H   0  0  0  0  0  0  0  0  0  0  0  0
    2.5009   16.9139   36.6711 H   0  0  0  0  0  0  0  0  0  0  0  0
    2.4312   22.1362   37.6157 H   0  0  0  0  0  0  0  0  0  0  0  0
   -1.2832   19.5757   43.0120 H   0  0  0  0  0  0  0  0  0  0  0  0
    3.1027   12.0949   40.8424 H   0  0  0  0  0  0  0  0  0  0  0  0
  1 14  1  0
  5 12  2  0
  5 19  1  0
  6  7  1  0
  7 10  1  0
  8 23  1  0
  8  9  1  0
  8 25  1  0
 10 29  2  0
 10 24  1  0
 11 25  2  0
 11 30  1  0
 13 26  1  0
 13 21  1  0
 14 28  1  0
 15  9  1  0
 15 16  1  0
 16  1  2  0
 18 11  1  0
 20 17  1  0
 20 13  1  0
 21  3  1  0
 22 16  1  0
 22  4  1  0
 23 29  1  0
 24 22  2  0
 25 27  1  0
 26  2  3  0
 27 20  2  0
 28  2  1  0
 28  5  1  0
 29 15  1  0
 30 17  2  0
  1 31  1  0
  3 32  1  0
  3 33  1  0
  3 34  1  0
  4 35  1  0
  6 36  1  0
  6 37  1  0
  6 38  1  0
  8 39  1  1
  9 40  1  0
 13 41  1  6
 14 42  1  0
 14 43  1  0
 17 44  1  0
 18 45  1  0
 18 46  1  0
 18 47  1  0
 19 48  1  0
 19 49  1  0
 21 50  1  0
 21 51  1  0
 23 52  1  0
 23 53  1  0
 24 54  1  0
 28 55  1  6
 30 56  1  0
M  END
>  <mol_id>  (83) 
2026-08-23-6tgu-s0-n100-prep-0084

>  <rmsd_to_ref>  (83) 


$$$$

     RDKit          3D

 41 43  0  0  0  0  0  0  0  0999 V2000
    2.1260   14.9720   41.2740 C   0  0  0  0  0  0  0  0  0  0  0  0
    3.1240   21.0380   35.9230 O   0  0  0  0  0  0  0  0  0  0  0  0
    0.9360   18.5970   41.0490 C   0  0  0  0  0  0  0  0  0  0  0  0
   -0.3930   17.8570   44.4550 C   0  0  0  0  0  0  0  0  0  0  0  0
   -1.0530   18.9910   44.9390 C   0  0  0  0  0  0  0  0  0  0  0  0
    3.2460   20.2630   36.9400 C   0  0  0  0  0  0  0  0  0  0  0  0
    3.6960   19.0610   36.7690 C   0  0  0  0  0  0  0  0  0  0  0  0
    0.2600   17.7020   43.0960 C   0  0  0  0  0  0  0  0  0  0  0  0
   -0.4100   16.8480   45.1750 O   0  0  0  0  0  0  0  0  0  0  0  0
    1.5120   16.2720   41.5910 C   0  0  0  0  0  0  0  0  0  0  0  0
    1.6360   17.4320   40.7450 C   0  0  0  0  0  0  0  0  0  0  0  0
   -0.5990   20.0130   42.3430 C   0  0  0  0  0  0  0  0  0  0  0  0
    3.9750   16.8410   37.3970 O   0  0  0  0  0  0  0  0  0  0  0  0
    2.5170   19.7850   39.0640 C   0  0  0  0  0  0  0  0  0  0  0  0
   -0.2710   20.8320   43.5680 C   0  0  0  0  0  0  0  0  0  0  0  0
    2.4340   17.3960   39.6690 O   0  0  0  0  0  0  0  0  0  0  0  0
    1.7480   13.8040   42.1040 C   0  0  0  0  0  0  0  0  0  0  0  0
   -0.9970   20.3460   44.7740 O   0  0  0  0  0  0  0  0  0  0  0  0
    3.5560   18.1360   37.6930 C   0  0  0  0  0  0  0  0  0  0  0  0
    2.8340   18.4760   38.8890 C   0  0  0  0  0  0  0  0  0  0  0  0
    2.7800   20.7540   38.1120 C   0  0  0  0  0  0  0  0  0  0  0  0
    0.2050   18.7270   42.1920 C   0  0  0  0  0  0  0  0  0  0  0  0
    0.8130   16.5250   42.7720 C   0  0  0  0  0  0  0  0  0  0  0  0
    1.8647   14.7319   40.2328 H   0  0  0  0  0  0  0  0  0  0  0  0
    3.1976   15.1174   41.4756 H   0  0  0  0  0  0  0  0  0  0  0  0
    3.4439   20.7422   35.0340 H   0  0  0  0  0  0  0  0  0  0  0  0
    0.9743   19.4400   40.3434 H   0  0  0  0  0  0  0  0  0  0  0  0
   -2.0996   18.7732   44.6798 H   0  0  0  0  0  0  0  0  0  0  0  0
   -0.4706   19.0136   45.8719 H   0  0  0  0  0  0  0  0  0  0  0  0
    4.2074   18.8077   35.8286 H   0  0  0  0  0  0  0  0  0  0  0  0
   -1.6650   19.7454   42.3871 H   0  0  0  0  0  0  0  0  0  0  0  0
   -0.3407   20.6398   41.4767 H   0  0  0  0  0  0  0  0  0  0  0  0
    3.8820   16.1239   38.0732 H   0  0  0  0  0  0  0  0  0  0  0  0
    2.0303   20.0878   40.0028 H   0  0  0  0  0  0  0  0  0  0  0  0
    0.8111   20.7717   43.7564 H   0  0  0  0  0  0  0  0  0  0  0  0
   -0.5842   21.8691   43.3775 H   0  0  0  0  0  0  0  0  0  0  0  0
    1.8333   14.0677   43.1685 H   0  0  0  0  0  0  0  0  0  0  0  0
    0.7105   13.5152   41.8798 H   0  0  0  0  0  0  0  0  0  0  0  0
    2.4196   12.9621   41.8798 H   0  0  0  0  0  0  0  0  0  0  0  0
    2.6242   21.8280   38.2917 H   0  0  0  0  0  0  0  0  0  0  0  0
    0.7082   15.6978   43.4895 H   0  0  0  0  0  0  0  0  0  0  0  0
  1 10  1  0
  1 17  1  0
  2  6  1  0
  3 22  2  0
  4  5  1  0
  4  9  2  0
  6 21  1  0
  7  6  2  0
  7 19  1  0
  8  4  1  0
 10 23  1  0
 11  3  1  0
 11 10  2  0
 12 15  1  0
 13 19  1  0
 15 18  1  0
 16 11  1  0
 18  5  1  0
 19 20  2  0
 20 14  1  0
 20 16  1  0
 21 14  2  0
 22 12  1  0
 22  8  1  0
 23  8  2  0
  1 24  1  0
  1 25  1  0
  2 26  1  0
  3 27  1  0
  5 28  1  0
  5 29  1  0
  7 30  1  0
 12 31  1  0
 12 32  1  0
 13 33  1  0
 14 34  1  0
 15 35  1  0
 15 36  1  0
 17 37  1  0
 17 38  1  0
 17 39  1  0
 21 40  1  0
 23 41  1  0
M  END
>  <mol_id>  (84) 
2026-08-23-6tgu-s0-n100-prep-0085

>  <rmsd_to_ref>  (84) 


$$$$

     RDKit          3D

 46 47  0  0  0  0  0  0  0  0999 V2000
   -1.1642   16.5870   44.0760 C   0  0  0  0  0  0  0  0  0  0  0  0
    3.0318   18.7256   37.9856 C   0  0  0  0  0  0  0  0  0  0  0  0
    1.3347   14.4824   41.9451 C   0  0  0  0  0  0  0  0  0  0  0  0
    2.9346   21.2009   37.6245 C   0  0  0  0  0  0  0  0  0  0  0  0
    2.9926   15.0606   39.3494 C   0  0  0  0  0  0  0  0  0  0  0  0
    0.7224   14.1473   42.9404 O   0  0  0  0  0  0  0  0  0  0  0  0
    0.0861   19.5959   42.6759 C   0  0  0  0  0  0  0  0  0  0  0  0
    2.0142   12.3807   41.6046 O   0  0  0  0  0  0  0  0  0  0  0  0
    2.0178   21.3221   38.8402 C   0  0  0  0  0  0  0  0  0  0  0  0
    3.5394   17.8620   37.4204 O   0  0  0  0  0  0  0  0  0  0  0  0
    0.6481   21.6233   41.6468 S   0  0  0  0  0  0  0  0  0  0  0  0
    0.8888   19.2715   41.5658 C   0  0  0  0  0  0  0  0  0  0  0  0
   -0.7978   21.2019   43.9378 O   0  0  0  0  0  0  0  0  0  0  0  0
    4.0162   20.7471   36.1859 O   0  0  0  0  0  0  0  0  0  0  0  0
    1.2646   20.3475   40.8245 C   0  0  1  0  0  0  0  0  0  0  0  0
    2.4807   19.0114   39.1674 C   0  0  0  0  0  0  0  0  0  0  0  0
   -0.1343   20.8829   42.8501 C   0  0  0  0  0  0  0  0  0  0  0  0
   -0.6295   18.9164   43.6496 O   0  0  0  0  0  0  0  0  0  0  0  0
    1.9104   16.4251   40.6201 C   0  0  0  0  0  0  0  0  0  0  0  0
    2.5739   16.2862   39.4933 N   0  0  0  0  0  0  0  0  0  0  0  0
    2.1071   13.6210   41.1762 C   0  0  2  0  0  0  0  0  0  0  0  0
    1.8349   20.2332   39.5514 C   0  0  0  0  0  0  0  0  0  0  0  0
   -0.0818   17.7301   44.1968 C   0  0  0  0  0  0  0  0  0  0  0  0
    3.4926   20.1390   37.2633 C   0  0  0  0  0  0  0  0  0  0  0  0
    1.3048   15.7636   41.5980 C   0  0  0  0  0  0  0  0  0  0  0  0
    2.8926   13.9236   40.1196 C   0  0  0  0  0  0  0  0  0  0  0  0
   -1.4542   16.2490   45.0818 H   0  0  0  0  0  0  0  0  0  0  0  0
   -2.0493   16.9741   43.5499 H   0  0  0  0  0  0  0  0  0  0  0  0
   -0.7431   15.7415   43.5123 H   0  0  0  0  0  0  0  0  0  0  0  0
    3.1169   22.1059   37.0264 H   0  0  0  0  0  0  0  0  0  0  0  0
    3.5443   14.8999   38.4114 H   0  0  0  0  0  0  0  0  0  0  0  0
    2.0040   12.3734   42.5945 H   0  0  0  0  0  0  0  0  0  0  0  0
    1.5350   22.2738   39.1068 H   0  0  0  0  0  0  0  0  0  0  0  0
    1.1850   18.2410   41.3204 H   0  0  0  0  0  0  0  0  0  0  0  0
    4.5841   20.2361   35.5562 H   0  0  0  0  0  0  0  0  0  0  0  0
    2.1743   20.6973   40.3143 H   0  0  0  0  0  0  0  0  0  0  0  0
    1.7212   18.2305   39.3207 H   0  0  0  0  0  0  0  0  0  0  0  0
    3.3969   19.1021   39.7692 H   0  0  0  0  0  0  0  0  0  0  0  0
    1.8245   17.5008   40.8335 H   0  0  0  0  0  0  0  0  0  0  0  0
    3.3847   16.9214   39.4988 H   0  0  0  0  0  0  0  0  0  0  0  0
    1.9447   16.5137   38.7102 H   0  0  0  0  0  0  0  0  0  0  0  0
    1.2518   13.4532   40.5050 H   0  0  0  0  0  0  0  0  0  0  0  0
    0.1736   17.8910   45.2545 H   0  0  0  0  0  0  0  0  0  0  0  0
    0.8322   17.4474   43.6540 H   0  0  0  0  0  0  0  0  0  0  0  0
    0.6627   16.3890   42.2356 H   0  0  0  0  0  0  0  0  0  0  0  0
    3.5761   13.1154   39.8204 H   0  0  0  0  0  0  0  0  0  0  0  0
  1 23  1  0
  2 16  1  0
  3  6  2  0
  4  9  1  0
  5 20  1  0
  5 26  2  0
  7 17  1  0
  7 18  1  0
  9 22  2  0
 10  2  2  0
 11 17  1  0
 12  7  2  0
 14 24  1  0
 15 22  1  0
 15 11  1  0
 15 12  1  0
 16 22  1  0
 17 13  2  0
 18 23  1  0
 19 25  2  0
 20 19  1  0
 21  8  1  0
 21  3  1  0
 24  4  2  0
 24  2  1  0
 25  3  1  0
 26 21  1  0
  1 27  1  0
  1 28  1  0
  1 29  1  0
  4 30  1  0
  5 31  1  0
  8 32  1  0
  9 33  1  0
 12 34  1  0
 14 35  1  0
 15 36  1  1
 16 37  1  0
 16 38  1  0
 19 39  1  0
 20 40  1  0
 20 41  1  0
 21 42  1  6
 23 43  1  0
 23 44  1  0
 25 45  1  0
 26 46  1  0
M  CHG  1  20   1
M  END
>  <mol_id>  (85) 
2026-08-23-6tgu-s0-n100-prep-0086

>  <rmsd_to_ref>  (85) 


$$$$

     RDKit          3D

 49 52  0  0  0  0  0  0  0  0999 V2000
    1.8287   15.7694   42.2892 C   0  0  1  0  0  0  0  0  0  0  0  0
    2.2840   13.3983   42.1559 C   0  0  0  0  0  0  0  0  0  0  0  0
    3.0581   18.9010   36.8835 C   0  0  0  0  0  0  0  0  0  0  0  0
    2.4582   19.4848   37.9459 C   0  0  0  0  0  0  0  0  0  0  0  0
   -1.4250   18.7546   44.8970 F   0  0  0  0  0  0  0  0  0  0  0  0
    2.6048   17.3772   39.1621 C   0  0  0  0  0  0  0  0  0  0  0  0
    2.3469   20.7785   36.1856 N   0  0  0  0  0  0  0  0  0  0  0  0
    2.3395   18.8082   39.2145 C   0  0  2  0  0  0  0  0  0  0  0  0
    0.3848   20.2263   42.2924 C   0  0  0  0  0  0  0  0  0  0  0  0
    1.5046   13.6071   43.2831 C   0  0  0  0  0  0  0  0  0  0  0  0
    1.6451   19.7072   40.2810 C   0  0  0  0  0  0  0  0  0  0  0  0
   -0.0875   19.6216   43.5738 C   0  0  1  0  0  0  0  0  0  0  0  0
    0.6833   21.9729   40.6929 C   0  0  0  0  0  0  0  0  0  0  0  0
    3.0526   14.6895   40.3463 O   0  0  0  0  0  0  0  0  0  0  0  0
    1.0703   18.0995   42.4027 C   0  0  0  0  0  0  0  0  0  0  0  0
    3.4918   17.6331   36.8866 C   0  0  0  0  0  0  0  0  0  0  0  0
    0.3984   18.2921   43.5435 C   0  0  0  0  0  0  0  0  0  0  0  0
    0.1285   21.5373   41.8835 C   0  0  0  0  0  0  0  0  0  0  0  0
    2.7132   12.1471   41.8111 C   0  0  0  0  0  0  0  0  0  0  0  0
    1.7928   17.0183   42.0554 N   0  0  0  0  0  0  0  0  0  0  0  0
    1.1014   19.3286   41.5698 C   0  0  0  0  0  0  0  0  0  0  0  0
    3.2361   16.8406   37.9900 C   0  0  0  0  0  0  0  0  0  0  0  0
    0.8659   15.1577   43.6084 S   0  0  0  0  0  0  0  0  0  0  0  0
   -0.6905   20.6600   44.3796 O   0  0  0  0  0  0  0  0  0  0  0  0
    3.6752   15.1798   37.8501 Cl  0  0  0  0  0  0  0  0  0  0  0  0
    3.0946   19.7627   35.8471 N   0  0  0  0  0  0  0  0  0  0  0  0
    2.0460   20.7008   37.4817 C   0  0  0  0  0  0  0  0  0  0  0  0
    1.4641   21.0868   39.9860 C   0  0  0  0  0  0  0  0  0  0  0  0
    2.3824   14.6662   41.4480 C   0  0  0  0  0  0  0  0  0  0  0  0
    2.8081   16.2682   42.2455 H   0  0  0  0  0  0  0  0  0  0  0  0
   -1.3555   18.8919   45.8253 H   0  0  0  0  0  0  0  0  0  0  0  0
    2.3278   16.7226   40.0015 H   0  0  0  0  0  0  0  0  0  0  0  0
    3.0033   18.5759   40.0604 H   0  0  0  0  0  0  0  0  0  0  0  0
    0.6481   12.9209   43.2079 H   0  0  0  0  0  0  0  0  0  0  0  0
    2.2113   13.4475   44.1108 H   0  0  0  0  0  0  0  0  0  0  0  0
   -0.6893   19.1649   44.3734 H   0  0  0  0  0  0  0  0  0  0  0  0
    0.5062   22.9938   40.3236 H   0  0  0  0  0  0  0  0  0  0  0  0
    3.1405   15.5346   39.8381 H   0  0  0  0  0  0  0  0  0  0  0  0
    4.0428   17.2292   36.0244 H   0  0  0  0  0  0  0  0  0  0  0  0
    0.2477   17.5390   44.3310 H   0  0  0  0  0  0  0  0  0  0  0  0
   -0.4980   22.2058   42.4921 H   0  0  0  0  0  0  0  0  0  0  0  0
    3.0357   11.6083   42.7143 H   0  0  0  0  0  0  0  0  0  0  0  0
    1.8911   11.5970   41.3301 H   0  0  0  0  0  0  0  0  0  0  0  0
    3.5583   12.2290   41.1117 H   0  0  0  0  0  0  0  0  0  0  0  0
    2.7430   17.3076   42.3281 H   0  0  0  0  0  0  0  0  0  0  0  0
    1.2761   16.8914   41.1734 H   0  0  0  0  0  0  0  0  0  0  0  0
   -0.4293   20.5364   45.3265 H   0  0  0  0  0  0  0  0  0  0  0  0
    1.5502   21.4826   38.0757 H   0  0  0  0  0  0  0  0  0  0  0  0
    1.9988   21.4831   39.1101 H   0  0  0  0  0  0  0  0  0  0  0  0
  1 20  1  0
  1 23  1  0
  2 10  1  0
  3  4  1  0
  4  8  1  0
  6  8  1  0
  7 27  1  0
  8 11  1  0
  9 12  1  0
 10 23  1  0
 11 21  2  0
 12 24  1  0
 13 18  1  0
 14 29  1  0
 15 17  2  0
 16  3  2  0
 16 22  1  0
 17 12  1  0
 18  9  2  0
 19  2  1  0
 20 15  1  0
 21 15  1  0
 21  9  1  0
 22  6  2  0
 25 22  1  0
 26  7  2  0
 26  3  1  0
 27  4  2  0
 28 11  1  0
 28 13  2  0
 29  2  2  0
 29  1  1  0
  1 30  1  1
  5 31  1  0
  6 32  1  0
  8 33  1  1
 10 34  1  0
 10 35  1  0
 12 36  1  6
 13 37  1  0
 14 38  1  0
 16 39  1  0
 17 40  1  0
 18 41  1  0
 19 42  1  0
 19 43  1  0
 19 44  1  0
 20 45  1  0
 20 46  1  0
 24 47  1  0
 27 48  1  0
 28 49  1  0
M  CHG  1  20   1
M  END
>  <mol_id>  (86) 
2026-08-23-6tgu-s0-n100-prep-0087

>  <rmsd_to_ref>  (86) 


$$$$

     RDKit          3D

 31 32  0  0  0  0  0  0  0  0999 V2000
    1.5762   15.2251   42.4277 C   0  0  0  0  0  0  0  0  0  0  0  0
    1.8694   22.4578   40.2560 C   0  0  0  0  0  0  0  0  0  0  0  0
    2.1233   20.1546   39.1823 C   0  0  0  0  0  0  0  0  0  0  0  0
    0.3856   18.7989   43.6718 S   0  0  0  0  0  0  0  0  0  0  0  0
    1.7125   20.9163   40.3175 C   0  0  1  0  0  0  0  0  0  0  0  0
    1.9963   17.6835   40.1448 C   0  0  0  0  0  0  0  0  0  0  0  0
    0.5503   17.0726   43.7278 C   0  0  0  0  0  0  0  0  0  0  0  0
    2.0959   21.9412   37.4358 O   0  0  0  0  0  0  0  0  0  0  0  0
    0.6227   14.2354   43.1352 C   0  0  0  0  0  0  0  0  0  0  0  0
    2.5706   14.7120   41.8567 O   0  0  0  0  0  0  0  0  0  0  0  0
    1.0385   21.5274   42.6491 C   0  0  0  0  0  0  0  0  0  0  0  0
    1.1916   19.0747   42.1674 C   0  0  0  0  0  0  0  0  0  0  0  0
    1.2428   16.6003   42.5037 C   0  0  0  0  0  0  0  0  0  0  0  0
    2.2628   18.7433   39.2422 C   0  0  0  0  0  0  0  0  0  0  0  0
    2.4241   20.7767   37.7353 C   0  0  0  0  0  0  0  0  0  0  0  0
    1.3407   20.4370   41.6333 C   0  0  0  0  0  0  0  0  0  0  0  0
    3.0070   20.0205   36.8937 O   0  0  0  0  0  0  0  0  0  0  0  0
    1.5366   17.7877   41.5093 C   0  0  0  0  0  0  0  0  0  0  0  0
    2.1101   22.8421   41.2582 H   0  0  0  0  0  0  0  0  0  0  0  0
    2.6806   22.7163   39.5595 H   0  0  0  0  0  0  0  0  0  0  0  0
    0.9287   22.9085   39.9067 H   0  0  0  0  0  0  0  0  0  0  0  0
    0.9819   20.2002   39.9133 H   0  0  0  0  0  0  0  0  0  0  0  0
    2.1583   16.6652   39.7617 H   0  0  0  0  0  0  0  0  0  0  0  0
    0.1958   16.4275   44.5453 H   0  0  0  0  0  0  0  0  0  0  0  0
    0.8717   14.1882   44.2056 H   0  0  0  0  0  0  0  0  0  0  0  0
   -0.4158   14.5775   43.0151 H   0  0  0  0  0  0  0  0  0  0  0  0
    0.7337   13.2364   42.6884 H   0  0  0  0  0  0  0  0  0  0  0  0
    1.3372   21.1875   43.6518 H   0  0  0  0  0  0  0  0  0  0  0  0
    1.5992   22.4371   42.3882 H   0  0  0  0  0  0  0  0  0  0  0  0
   -0.0395   21.7463   42.6421 H   0  0  0  0  0  0  0  0  0  0  0  0
    2.7099   18.3585   38.3138 H   0  0  0  0  0  0  0  0  0  0  0  0
  1  9  1  0
  3 14  2  0
  3  5  1  0
  4  7  1  0
  5  2  1  0
  5 16  1  0
  6 18  2  0
  8 15  1  0
 10  1  2  0
 12  4  1  0
 13  1  1  0
 13  7  2  0
 14  6  1  0
 15  3  1  0
 16 12  2  0
 16 11  1  0
 17 15  2  0
 18 12  1  0
 18 13  1  0
  2 19  1  0
  2 20  1  0
  2 21  1  0
  5 22  1  6
  6 23  1  0
  7 24  1  0
  9 25  1  0
  9 26  1  0
  9 27  1  0
 11 28  1  0
 11 29  1  0
 11 30  1  0
 14 31  1  0
M  CHG  1   8  -1
M  END
>  <mol_id>  (87) 
2026-08-23-6tgu-s0-n100-prep-0088

>  <rmsd_to_ref>  (87) 


$$$$

     RDKit          3D

 67 72  0  0  0  0  0  0  0  0999 V2000
    1.8828   21.6647   41.8971 O   0  0  0  0  0  0  0  0  0  0  0  0
    0.6808   18.6452   41.4382 N   0  0  0  0  0  0  0  0  0  0  0  0
   -0.1596   14.8750   48.0851 C   0  0  0  0  0  0  0  0  0  0  0  0
    0.5073   17.8872   42.5381 C   0  0  1  0  0  0  0  0  0  0  0  0
    4.1842   16.2499   37.5982 C   0  0  0  0  0  0  0  0  0  0  0  0
   -0.2286   15.7604   46.9026 C   0  0  0  0  0  0  0  0  0  0  0  0
    0.3045   19.7974   44.0743 O   0  0  0  0  0  0  0  0  0  0  0  0
    0.0322   16.3402   44.5647 C   0  0  0  0  0  0  0  0  0  0  0  0
    2.9182   14.7243   41.1439 N   0  0  0  0  0  0  0  0  0  0  0  0
    3.9133   15.0229   38.8297 S   0  0  0  0  0  0  0  0  0  0  0  0
    1.3796   21.2189   39.5754 C   0  0  0  0  0  0  0  0  0  0  0  0
    2.8128   21.4320   34.4281 C   0  0  0  0  0  0  0  0  0  0  0  0
    2.1435   14.7299   42.2352 N   0  0  0  0  0  0  0  0  0  0  0  0
   -0.0747   13.6583   47.7903 O   0  0  0  0  0  0  0  0  0  0  0  0
    0.5899   15.1604   44.3251 C   0  0  0  0  0  0  0  0  0  0  0  0
    0.0759   15.2717   45.6068 C   0  0  0  0  0  0  0  0  0  0  0  0
   -0.6730   17.9813   46.1503 C   0  0  0  0  0  0  0  0  0  0  0  0
    2.9339   19.6060   36.5279 C   0  0  0  0  0  0  0  0  0  0  0  0
    2.2479   22.0245   36.7519 C   0  0  0  0  0  0  0  0  0  0  0  0
    1.9542   16.8532   40.7308 C   0  0  0  0  0  0  0  0  0  0  0  0
    3.3277   21.1086   35.2035 O   0  0  0  0  0  0  0  0  0  0  0  0
    1.5449   15.5410   42.0438 C   0  0  0  0  0  0  0  0  0  0  0  0
    1.1436   19.6248   41.3022 N   0  0  0  0  0  0  0  0  0  0  0  0
    0.0650   15.3284   49.2646 O   0  0  0  0  0  0  0  0  0  0  0  0
    1.2845   16.8057   42.0036 C   0  0  0  0  0  0  0  0  0  0  0  0
    3.6605   18.6001   37.4719 C   0  0  0  0  0  0  0  0  0  0  0  0
    3.1529   17.2962   37.7577 C   0  0  0  0  0  0  0  0  0  0  0  0
    0.1558   18.6008   43.8661 C   0  0  0  0  0  0  0  0  0  0  0  0
    1.1215   20.9730   40.9851 C   0  0  1  0  0  0  0  0  0  0  0  0
    1.5393   20.4677   38.5721 C   0  0  0  0  0  0  0  0  0  0  0  0
    2.5140   21.7045   35.1139 C   0  0  1  0  0  0  0  0  0  0  0  0
    0.3658   21.9668   41.5462 C   0  0  0  0  0  0  0  0  0  0  0  0
   -0.7515   17.0943   47.2135 C   0  0  0  0  0  0  0  0  0  0  0  0
    2.8127   15.6266   40.2292 C   0  0  0  0  0  0  0  0  0  0  0  0
    2.6862   20.9055   37.5507 C   0  0  1  0  0  0  0  0  0  0  0  0
   -0.2109   17.6025   44.9194 C   0  0  0  0  0  0  0  0  0  0  0  0
    1.2102   18.0337   40.8005 H   0  0  0  0  0  0  0  0  0  0  0  0
   -0.2847   17.4046   43.1296 H   0  0  0  0  0  0  0  0  0  0  0  0
    4.1056   15.7982   36.5982 H   0  0  0  0  0  0  0  0  0  0  0  0
    5.1886   16.6849   37.7081 H   0  0  0  0  0  0  0  0  0  0  0  0
    0.5370   21.8594   39.2757 H   0  0  0  0  0  0  0  0  0  0  0  0
    2.4463   21.4557   39.7021 H   0  0  0  0  0  0  0  0  0  0  0  0
    2.2227   20.7061   33.8494 H   0  0  0  0  0  0  0  0  0  0  0  0
    3.1294   21.9574   33.5150 H   0  0  0  0  0  0  0  0  0  0  0  0
    2.1472   14.0939   43.0454 H   0  0  0  0  0  0  0  0  0  0  0  0
    0.1010   14.4771   43.6151 H   0  0  0  0  0  0  0  0  0  0  0  0
    1.5866   14.8795   43.9539 H   0  0  0  0  0  0  0  0  0  0  0  0
   -0.9926   19.0229   46.3014 H   0  0  0  0  0  0  0  0  0  0  0  0
    3.5673   19.8833   35.6724 H   0  0  0  0  0  0  0  0  0  0  0  0
    2.0128   19.2103   36.0750 H   0  0  0  0  0  0  0  0  0  0  0  0
    2.8111   22.9232   37.0438 H   0  0  0  0  0  0  0  0  0  0  0  0
    1.1729   22.1877   36.9180 H   0  0  0  0  0  0  0  0  0  0  0  0
    1.8673   17.7516   40.1020 H   0  0  0  0  0  0  0  0  0  0  0  0
    1.3312   15.3164   40.9884 H   0  0  0  0  0  0  0  0  0  0  0  0
    1.2950   15.5619   43.1148 H   0  0  0  0  0  0  0  0  0  0  0  0
    1.5556   19.7126   42.2420 H   0  0  0  0  0  0  0  0  0  0  0  0
    4.6608   18.4479   37.0404 H   0  0  0  0  0  0  0  0  0  0  0  0
    3.5529   19.0968   38.4474 H   0  0  0  0  0  0  0  0  0  0  0  0
    2.3207   17.0813   37.0712 H   0  0  0  0  0  0  0  0  0  0  0  0
    2.8192   17.2854   38.8058 H   0  0  0  0  0  0  0  0  0  0  0  0
    1.7823   19.4601   38.9404 H   0  0  0  0  0  0  0  0  0  0  0  0
    0.5982   20.5225   38.0054 H   0  0  0  0  0  0  0  0  0  0  0  0
    1.8606   20.8222   35.1799 H   0  0  0  0  0  0  0  0  0  0  0  0
    0.0883   22.8595   40.9665 H   0  0  0  0  0  0  0  0  0  0  0  0
   -0.5875   22.0465   42.0893 H   0  0  0  0  0  0  0  0  0  0  0  0
   -1.1662   17.3655   48.1956 H   0  0  0  0  0  0  0  0  0  0  0  0
    3.5960   21.1927   38.0981 H   0  0  0  0  0  0  0  0  0  0  0  0
  2  4  1  0
  3 24  1  0
  4 28  1  0
  5 27  1  0
  5 10  1  0
  6 33  1  0
  6  3  1  0
  8 36  2  0
  8 16  1  0
  9 13  1  0
 10 34  1  0
 12 31  1  0
 12 21  1  0
 14  3  2  0
 15  8  1  0
 15 16  1  0
 16  6  2  0
 17 33  2  0
 18 26  1  0
 18 35  1  0
 20 25  2  0
 22 13  1  0
 23  2  1  0
 25 22  1  0
 25  4  1  0
 26 27  1  0
 28  7  2  0
 28 36  1  0
 29 11  1  0
 29 23  1  0
 29 32  1  0
 29  1  1  1
 30 11  1  0
 31 21  1  0
 31 19  1  0
 32  1  1  0
 34 20  1  0
 34  9  2  0
 35 19  1  0
 35 30  1  0
 36 17  1  0
  2 37  1  0
  4 38  1  6
  5 39  1  0
  5 40  1  0
 11 41  1  0
 11 42  1  0
 12 43  1  0
 12 44  1  0
 13 45  1  0
 15 46  1  0
 15 47  1  0
 17 48  1  0
 18 49  1  0
 18 50  1  0
 19 51  1  0
 19 52  1  0
 20 53  1  0
 22 54  1  0
 22 55  1  0
 23 56  1  0
 26 57  1  0
 26 58  1  0
 27 59  1  0
 27 60  1  0
 30 61  1  0
 30 62  1  0
 31 63  1  1
 32 64  1  0
 32 65  1  0
 33 66  1  0
 35 67  1  1
M  CHG  1  24  -1
M  END
>  <mol_id>  (88) 
2026-08-23-6tgu-s0-n100-prep-0089

>  <rmsd_to_ref>  (88) 


$$$$

     RDKit          3D

 36 37  0  0  0  0  0  0  0  0999 V2000
    0.5269   21.4797   42.2188 C   0  0  0  0  0  0  0  0  0  0  0  0
    0.7362   15.3948   42.4241 Cl  0  0  0  0  0  0  0  0  0  0  0  0
    0.2625   16.8273   43.1296 C   0  0  0  0  0  0  0  0  0  0  0  0
    2.0694   20.9422   37.8462 C   0  0  0  0  0  0  0  0  0  0  0  0
   -0.7329   18.9343   44.7952 C   0  0  0  0  0  0  0  0  0  0  0  0
    0.3377   18.2415   42.6441 C   0  0  2  0  0  0  0  0  0  0  0  0
    2.0283   20.1311   39.2716 C   0  0  2  0  0  0  0  0  0  0  0  0
    0.9771   18.6768   41.2345 C   0  0  0  0  0  0  0  0  0  0  0  0
    3.5711   18.5115   38.6879 C   0  0  0  0  0  0  0  0  0  0  0  0
    1.4426   21.9325   37.9686 O   0  0  0  0  0  0  0  0  0  0  0  0
   -0.0902   19.2781   43.5469 C   0  0  0  0  0  0  0  0  0  0  0  0
    2.6614   20.6447   36.7156 N   0  0  0  0  0  0  0  0  0  0  0  0
   -0.8580   17.6039   45.1780 C   0  0  0  0  0  0  0  0  0  0  0  0
    0.0884   20.7459   43.1507 C   0  0  0  0  0  0  0  0  0  0  0  0
    1.1184   17.4122   40.8827 O   0  0  0  0  0  0  0  0  0  0  0  0
    1.1009   19.9270   40.4250 C   0  0  0  0  0  0  0  0  0  0  0  0
    0.7769   21.1934   40.7507 C   0  0  0  0  0  0  0  0  0  0  0  0
    2.9333   19.6392   39.7671 C   0  0  0  0  0  0  0  0  0  0  0  0
    2.3830   21.5338   35.7238 O   0  0  0  0  0  0  0  0  0  0  0  0
   -0.4362   16.5360   44.4204 C   0  0  0  0  0  0  0  0  0  0  0  0
    0.7698   22.5071   42.5277 H   0  0  0  0  0  0  0  0  0  0  0  0
   -1.1252   19.7298   45.4458 H   0  0  0  0  0  0  0  0  0  0  0  0
   -0.6452   18.1288   42.1634 H   0  0  0  0  0  0  0  0  0  0  0  0
    1.4843   20.3325   38.3370 H   0  0  0  0  0  0  0  0  0  0  0  0
    4.1197   17.7389   39.2466 H   0  0  0  0  0  0  0  0  0  0  0  0
    2.7530   18.0429   38.1213 H   0  0  0  0  0  0  0  0  0  0  0  0
    4.2566   19.0170   37.9919 H   0  0  0  0  0  0  0  0  0  0  0  0
    3.2725   19.8250   36.5909 H   0  0  0  0  0  0  0  0  0  0  0  0
   -1.3251   17.3911   46.1509 H   0  0  0  0  0  0  0  0  0  0  0  0
   -0.2999   21.3848   43.9575 H   0  0  0  0  0  0  0  0  0  0  0  0
    1.5108   17.1841   40.0029 H   0  0  0  0  0  0  0  0  0  0  0  0
    0.6976   21.9822   39.9882 H   0  0  0  0  0  0  0  0  0  0  0  0
    3.6908   20.4018   40.0009 H   0  0  0  0  0  0  0  0  0  0  0  0
    2.6341   19.1449   40.7031 H   0  0  0  0  0  0  0  0  0  0  0  0
    2.2741   22.4379   36.1121 H   0  0  0  0  0  0  0  0  0  0  0  0
   -0.6071   15.5014   44.7527 H   0  0  0  0  0  0  0  0  0  0  0  0
  1 14  1  0
  2  3  1  0
  3 20  2  0
  4  7  1  0
  5 13  2  0
  6  8  1  0
  6  3  1  0
  6 11  1  0
  7 18  1  0
  7 16  1  0
  9 18  1  0
 10  4  2  0
 11  5  1  0
 12  4  1  0
 14 11  2  0
 15  8  1  0
 16 17  1  0
 16  8  2  0
 17  1  2  0
 19 12  1  0
 20 13  1  0
  1 21  1  0
  5 22  1  0
  6 23  1  6
  7 24  1  6
  9 25  1  0
  9 26  1  0
  9 27  1  0
 12 28  1  0
 13 29  1  0
 14 30  1  0
 15 31  1  0
 17 32  1  0
 18 33  1  0
 18 34  1  0
 19 35  1  0
 20 36  1  0
M  END
>  <mol_id>  (89) 
2026-08-23-6tgu-s0-n100-prep-0090

>  <rmsd_to_ref>  (89) 


$$$$

     RDKit          3D

 52 55  0  0  0  0  0  0  0  0999 V2000
    2.8670   20.7670   37.2790 C   0  0  0  0  0  0  0  0  0  0  0  0
    1.4830   15.8100   41.9350 C   0  0  0  0  0  0  0  0  0  0  0  0
    4.6800   17.1190   36.6280 C   0  0  0  0  0  0  0  0  0  0  0  0
    1.6530   20.3630   40.3370 C   0  0  1  0  0  0  0  0  0  0  0  0
    2.6590   16.2860   39.6340 C   0  0  0  0  0  0  0  0  0  0  0  0
    1.8660   21.2810   38.1840 C   0  0  0  0  0  0  0  0  0  0  0  0
    0.4800   19.5550   42.3820 C   0  0  1  0  0  0  0  0  0  0  0  0
    3.6700   15.2350   37.8710 C   0  0  0  0  0  0  0  0  0  0  0  0
    0.1460   21.6050   41.7310 O   0  0  0  0  0  0  0  0  0  0  0  0
   -1.0120   15.7010   44.4600 C   0  0  0  0  0  0  0  0  0  0  0  0
    1.0760   16.8720   42.9590 C   0  0  0  0  0  0  0  0  0  0  0  0
    0.9530   18.1880   42.1630 N   0  0  0  0  0  0  0  0  0  0  0  0
    1.9950   16.5940   40.7800 C   0  0  0  0  0  0  0  0  0  0  0  0
    3.0100   18.6780   39.0770 C   0  0  0  0  0  0  0  0  0  0  0  0
    3.5290   20.4770   36.4080 N   0  0  0  0  0  0  0  0  0  0  0  0
    3.2320   17.2730   38.7660 C   0  0  0  0  0  0  0  0  0  0  0  0
    2.0460   21.3820   39.5680 O   0  0  0  0  0  0  0  0  0  0  0  0
    0.7580   20.5600   41.5110 C   0  0  0  0  0  0  0  0  0  0  0  0
   -0.5110   18.1030   45.3400 C   0  0  0  0  0  0  0  0  0  0  0  0
   -0.3340   19.8660   43.6130 C   0  0  0  0  0  0  0  0  0  0  0  0
   -0.1210   14.6090   44.6630 O   0  0  0  0  0  0  0  0  0  0  0  0
   -1.0940   16.6900   45.6110 C   0  0  0  0  0  0  0  0  0  0  0  0
    2.9800   14.9970   38.9680 C   0  0  0  0  0  0  0  0  0  0  0  0
    3.8310   16.5660   37.7560 N   0  0  0  0  0  0  0  0  0  0  0  0
   -1.1980   18.8400   44.2400 N   0  0  0  0  0  0  0  0  0  0  0  0
    1.7360   17.9870   40.9770 C   0  0  0  0  0  0  0  0  0  0  0  0
    2.1450   18.9840   40.0910 C   0  0  0  0  0  0  0  0  0  0  0  0
    2.2688   15.1566   42.3420 H   0  0  0  0  0  0  0  0  0  0  0  0
    0.6480   15.1494   41.6587 H   0  0  0  0  0  0  0  0  0  0  0  0
    5.5318   17.6738   37.0483 H   0  0  0  0  0  0  0  0  0  0  0  0
    5.0523   16.2896   36.0087 H   0  0  0  0  0  0  0  0  0  0  0  0
    4.0719   17.7948   36.0087 H   0  0  0  0  0  0  0  0  0  0  0  0
    2.5317   20.5109   40.9820 H   0  0  0  0  0  0  0  0  0  0  0  0
    1.6435   22.3006   37.8361 H   0  0  0  0  0  0  0  0  0  0  0  0
    1.1038   20.4899   38.1273 H   0  0  0  0  0  0  0  0  0  0  0  0
    1.4030   19.7859   42.9340 H   0  0  0  0  0  0  0  0  0  0  0  0
    4.0490   14.4766   37.1702 H   0  0  0  0  0  0  0  0  0  0  0  0
   -0.6823   16.2476   43.5642 H   0  0  0  0  0  0  0  0  0  0  0  0
   -2.0159   15.2624   44.3615 H   0  0  0  0  0  0  0  0  0  0  0  0
    0.1125   16.6109   43.4211 H   0  0  0  0  0  0  0  0  0  0  0  0
    1.8105   16.9554   43.7736 H   0  0  0  0  0  0  0  0  0  0  0  0
    3.5233   19.4705   38.5126 H   0  0  0  0  0  0  0  0  0  0  0  0
   -0.5988   18.6965   46.2620 H   0  0  0  0  0  0  0  0  0  0  0  0
    0.5338   17.9623   45.0259 H   0  0  0  0  0  0  0  0  0  0  0  0
    0.3797   20.1874   44.3859 H   0  0  0  0  0  0  0  0  0  0  0  0
   -1.0643   20.5987   43.2390 H   0  0  0  0  0  0  0  0  0  0  0  0
    0.0014   14.4590   45.6339 H   0  0  0  0  0  0  0  0  0  0  0  0
   -2.1547   16.8094   45.8766 H   0  0  0  0  0  0  0  0  0  0  0  0
   -0.4732   16.2629   46.4124 H   0  0  0  0  0  0  0  0  0  0  0  0
    2.6877   14.0014   39.3331 H   0  0  0  0  0  0  0  0  0  0  0  0
   -2.0333   19.3033   44.6253 H   0  0  0  0  0  0  0  0  0  0  0  0
   -1.4445   18.1539   43.5124 H   0  0  0  0  0  0  0  0  0  0  0  0
  1  6  1  0
  2 11  1  0
  3 24  1  0
  4 17  1  0
  4 18  1  0
  5 13  2  0
  6 17  1  0
  7 20  1  0
  8 23  2  0
 10 21  1  0
 10 22  1  0
 12  7  1  0
 12 11  1  0
 13 26  1  0
 13  2  1  0
 14 27  1  0
 15  1  3  0
 16 14  2  0
 16  5  1  0
 18  9  2  0
 18  7  1  0
 19 22  1  0
 20 25  1  0
 23  5  1  0
 24  8  1  0
 24 16  1  0
 25 19  1  0
 26 12  1  0
 27  4  1  0
 27 26  2  0
  2 28  1  0
  2 29  1  0
  3 30  1  0
  3 31  1  0
  3 32  1  0
  4 33  1  6
  6 34  1  0
  6 35  1  0
  7 36  1  1
  8 37  1  0
 10 38  1  0
 10 39  1  0
 11 40  1  0
 11 41  1  0
 14 42  1  0
 19 43  1  0
 19 44  1  0
 20 45  1  0
 20 46  1  0
 21 47  1  0
 22 48  1  0
 22 49  1  0
 23 50  1  0
 25 51  1  0
 25 52  1  0
M  CHG  1  25   1
M  END
>  <mol_id>  (90) 
2026-08-23-6tgu-s0-n100-prep-0092

>  <rmsd_to_ref>  (90) 


$$$$

     RDKit          3D

 40 42  0  0  0  0  0  0  0  0999 V2000
   -0.4899   14.7783   45.0698 C   0  0  0  0  0  0  0  0  0  0  0  0
    3.0806   15.5914   36.9684 C   0  0  0  0  0  0  0  0  0  0  0  0
    3.1981   20.8560   37.1619 C   0  0  0  0  0  0  0  0  0  0  0  0
    2.3325   16.1516   38.1637 O   0  0  0  0  0  0  0  0  0  0  0  0
   -0.4490   15.9758   45.7357 C   0  0  0  0  0  0  0  0  0  0  0  0
    1.3686   18.5879   42.2967 N   0  0  0  0  0  0  0  0  0  0  0  0
    2.1019   17.7436   39.8289 C   0  0  0  0  0  0  0  0  0  0  0  0
    0.6886   18.3850   43.4011 C   0  0  0  0  0  0  0  0  0  0  0  0
    2.3483   17.4759   38.5147 C   0  0  0  0  0  0  0  0  0  0  0  0
    3.5288   21.6637   36.3922 N   0  0  0  0  0  0  0  0  0  0  0  0
    1.8440   19.4456   41.5901 N   0  0  0  0  0  0  0  0  0  0  0  0
    2.1541   19.1458   40.2551 C   0  0  0  0  0  0  0  0  0  0  0  0
    0.2095   15.9373   43.0510 C   0  0  0  0  0  0  0  0  0  0  0  0
   -0.1344   14.7489   43.6822 C   0  0  0  0  0  0  0  0  0  0  0  0
    0.4448   19.2060   44.3855 C   0  0  0  0  0  0  0  0  0  0  0  0
    2.7876   19.7841   38.0764 C   0  0  0  0  0  0  0  0  0  0  0  0
    2.6682   18.4407   37.5282 C   0  0  0  0  0  0  0  0  0  0  0  0
    3.0386   18.1867   36.3104 O   0  0  0  0  0  0  0  0  0  0  0  0
    0.3009   17.0794   43.7363 C   0  0  0  0  0  0  0  0  0  0  0  0
    1.7787   13.8048   35.3232 C   0  0  0  0  0  0  0  0  0  0  0  0
    2.5240   20.1716   39.3275 C   0  0  0  0  0  0  0  0  0  0  0  0
    0.0233   18.4127   45.4168 N   0  0  0  0  0  0  0  0  0  0  0  0
    2.3467   14.6650   36.1307 C   0  0  0  0  0  0  0  0  0  0  0  0
   -0.0556   17.1858   45.1072 C   0  0  0  0  0  0  0  0  0  0  0  0
   -0.7900   13.8572   45.5910 H   0  0  0  0  0  0  0  0  0  0  0  0
    3.3909   16.4389   36.3396 H   0  0  0  0  0  0  0  0  0  0  0  0
    3.9143   15.0103   37.3892 H   0  0  0  0  0  0  0  0  0  0  0  0
   -1.4660   16.1472   46.1182 H   0  0  0  0  0  0  0  0  0  0  0  0
    0.3765   15.8113   46.4438 H   0  0  0  0  0  0  0  0  0  0  0  0
    1.8726   16.9383   40.5423 H   0  0  0  0  0  0  0  0  0  0  0  0
    0.4097   15.9375   41.9694 H   0  0  0  0  0  0  0  0  0  0  0  0
   -0.1339   13.8001   43.1256 H   0  0  0  0  0  0  0  0  0  0  0  0
    0.5545   20.3005   44.3859 H   0  0  0  0  0  0  0  0  0  0  0  0
    2.9528   17.2693   35.9481 H   0  0  0  0  0  0  0  0  0  0  0  0
    1.5330   12.8876   35.8786 H   0  0  0  0  0  0  0  0  0  0  0  0
    0.8573   14.2418   34.9111 H   0  0  0  0  0  0  0  0  0  0  0  0
    2.4687   13.5621   34.5017 H   0  0  0  0  0  0  0  0  0  0  0  0
    2.5882   21.2272   39.6301 H   0  0  0  0  0  0  0  0  0  0  0  0
    1.6428   15.4543   35.8281 H   0  0  0  0  0  0  0  0  0  0  0  0
    2.5355   13.8597   36.8557 H   0  0  0  0  0  0  0  0  0  0  0  0
  1  5  1  0
  2  4  1  0
  3 16  1  0
  6  8  1  0
  7 12  2  0
  8 19  1  0
  8 15  2  0
  9  4  1  0
  9  7  1  0
 10  3  3  0
 11  6  2  3
 12 11  1  0
 13 19  2  0
 13 14  1  0
 14  1  2  0
 15 22  1  0
 16 21  2  0
 17 16  1  0
 17  9  2  0
 18 17  1  0
 19 24  1  0
 20 23  1  0
 21 12  1  0
 22 24  2  0
 23  2  1  0
 24  5  1  0
  1 25  1  0
  2 26  1  0
  2 27  1  0
  5 28  1  0
  5 29  1  0
  7 30  1  0
 13 31  1  0
 14 32  1  0
 15 33  1  0
 18 34  1  0
 20 35  1  0
 20 36  1  0
 20 37  1  0
 21 38  1  0
 23 39  1  0
 23 40  1  0
M  END
>  <mol_id>  (91) 
2026-08-23-6tgu-s0-n100-prep-0093

>  <rmsd_to_ref>  (91) 


$$$$

     RDKit          3D

 33 34  0  0  0  0  0  0  0  0999 V2000
   -0.5726   15.1895   44.2638 C   0  0  0  0  0  0  0  0  0  0  0  0
    2.6645   18.3582   39.3945 N   0  0  0  0  0  0  0  0  0  0  0  0
   -0.6210   20.8389   44.5835 O   0  0  0  0  0  0  0  0  0  0  0  0
    3.1668   19.8791   37.7145 C   0  0  0  0  0  0  0  0  0  0  0  0
   -0.1537   16.6421   43.6177 O   0  0  0  0  0  0  0  0  0  0  0  0
    3.9831   20.9678   35.7384 C   0  0  0  0  0  0  0  0  0  0  0  0
    2.3582   20.6010   39.7556 N   0  0  0  0  0  0  0  0  0  0  0  0
    0.3506   17.8049   43.2171 C   0  0  0  0  0  0  0  0  0  0  0  0
    2.8188   20.8649   38.5547 C   0  0  0  0  0  0  0  0  0  0  0  0
    3.1337   18.6020   38.2581 C   0  0  0  0  0  0  0  0  0  0  0  0
    2.2195   19.3836   40.1498 C   0  0  0  0  0  0  0  0  0  0  0  0
    0.4560   20.7416   42.7987 C   0  0  0  0  0  0  0  0  0  0  0  0
    3.6745   20.0423   36.4694 O   0  0  0  0  0  0  0  0  0  0  0  0
    1.4707   19.1764   41.4639 C   0  0  0  0  0  0  0  0  0  0  0  0
    0.0395   20.0020   43.7380 C   0  0  0  0  0  0  0  0  0  0  0  0
   -1.0419   15.7613   45.3542 O   0  0  0  0  0  0  0  0  0  0  0  0
    0.8355   20.2878   41.9071 C   0  0  0  0  0  0  0  0  0  0  0  0
    1.1475   18.0019   42.0636 C   0  0  0  0  0  0  0  0  0  0  0  0
    0.1080   18.7983   44.1460 C   0  0  0  0  0  0  0  0  0  0  0  0
    0.2839   14.5242   44.4475 H   0  0  0  0  0  0  0  0  0  0  0  0
   -1.2191   14.5093   43.6897 H   0  0  0  0  0  0  0  0  0  0  0  0
   -1.0408   20.4816   45.4059 H   0  0  0  0  0  0  0  0  0  0  0  0
    4.3574   21.8053   36.3453 H   0  0  0  0  0  0  0  0  0  0  0  0
    4.7692   20.6392   35.0427 H   0  0  0  0  0  0  0  0  0  0  0  0
    3.1012   21.2940   35.1676 H   0  0  0  0  0  0  0  0  0  0  0  0
    2.9209   21.9117   38.2324 H   0  0  0  0  0  0  0  0  0  0  0  0
    3.5370   17.7676   37.6654 H   0  0  0  0  0  0  0  0  0  0  0  0
    0.4280   21.8367   42.8978 H   0  0  0  0  0  0  0  0  0  0  0  0
   -0.6747   15.3031   46.1513 H   0  0  0  0  0  0  0  0  0  0  0  0
    0.6432   20.9557   41.0544 H   0  0  0  0  0  0  0  0  0  0  0  0
    1.5543   17.0928   41.5963 H   0  0  0  0  0  0  0  0  0  0  0  0
   -0.8510   18.5637   44.6310 H   0  0  0  0  0  0  0  0  0  0  0  0
    0.9938   18.7826   44.7981 H   0  0  0  0  0  0  0  0  0  0  0  0
  1 16  1  0
  2 11  1  0
  4 10  1  0
  4  9  2  0
  5  1  1  0
  6 13  1  0
  7 11  2  0
  8  5  1  0
  8 19  1  0
  9  7  1  0
 10  2  2  0
 11 14  1  0
 12 15  2  0
 13  4  1  0
 14 17  2  0
 14 18  1  0
 15 19  1  0
 15  3  1  0
 17 12  1  0
 18  8  2  0
  1 20  1  0
  1 21  1  0
  3 22  1  0
  6 23  1  0
  6 24  1  0
  6 25  1  0
  9 26  1  0
 10 27  1  0
 12 28  1  0
 16 29  1  0
 17 30  1  0
 18 31  1  0
 19 32  1  0
 19 33  1  0
M  END
>  <mol_id>  (92) 
2026-08-23-6tgu-s0-n100-prep-0094

>  <rmsd_to_ref>  (92) 


$$$$

     RDKit          3D

 29 31  0  0  0  0  0  0  0  0999 V2000
    2.7705   19.1637   38.3340 C   0  0  0  0  0  0  0  0  0  0  0  0
    1.6332   19.9412   40.7903 C   0  0  0  0  0  0  0  0  0  0  0  0
    2.1411   21.1215   38.8213 C   0  0  0  0  0  0  0  0  0  0  0  0
    1.7499   15.3494   40.1886 C   0  0  0  0  0  0  0  0  0  0  0  0
    2.0951   19.9384   39.4248 C   0  0  0  0  0  0  0  0  0  0  0  0
    1.1170   16.5406   42.1053 C   0  0  0  0  0  0  0  0  0  0  0  0
    3.6462   19.9760   36.2429 O   0  0  0  0  0  0  0  0  0  0  0  0
    0.6305   19.2005   42.8520 N   0  0  0  0  0  0  0  0  0  0  0  0
    2.2584   16.4266   39.7078 N   0  0  0  0  0  0  0  0  0  0  0  0
    1.5181   17.6107   41.4028 N   0  0  0  0  0  0  0  0  0  0  0  0
    2.1395   17.4156   40.2137 C   0  0  0  0  0  0  0  0  0  0  0  0
    1.2240   15.2885   41.5006 C   0  0  0  0  0  0  0  0  0  0  0  0
    0.5724   16.6340   43.1394 O   0  0  0  0  0  0  0  0  0  0  0  0
    3.1035   20.1073   37.3035 C   0  0  0  0  0  0  0  0  0  0  0  0
    1.8121   14.3072   39.3957 N   0  0  0  0  0  0  0  0  0  0  0  0
    1.4551   21.2155   41.3339 C   0  0  0  0  0  0  0  0  0  0  0  0
    0.8957   21.5357   42.6542 C   0  0  0  0  0  0  0  0  0  0  0  0
    2.6917   21.3247   37.8073 N   0  0  0  0  0  0  0  0  0  0  0  0
    1.2843   18.8701   41.6206 C   0  0  0  0  0  0  0  0  0  0  0  0
    0.3637   20.4347   43.3229 C   0  0  0  0  0  0  0  0  0  0  0  0
    2.9721   18.0823   38.3245 H   0  0  0  0  0  0  0  0  0  0  0  0
    1.6285   21.9656   39.3056 H   0  0  0  0  0  0  0  0  0  0  0  0
    2.5585   18.2984   39.7086 H   0  0  0  0  0  0  0  0  0  0  0  0
    0.2229   14.8346   41.4559 H   0  0  0  0  0  0  0  0  0  0  0  0
    1.9206   14.6901   42.1060 H   0  0  0  0  0  0  0  0  0  0  0  0
    2.2043   14.4036   38.4482 H   0  0  0  0  0  0  0  0  0  0  0  0
    1.7654   22.0664   40.7096 H   0  0  0  0  0  0  0  0  0  0  0  0
    0.8968   22.5515   43.0763 H   0  0  0  0  0  0  0  0  0  0  0  0
   -0.2618   20.5704   44.2175 H   0  0  0  0  0  0  0  0  0  0  0  0
  1  5  2  0
  2 16  1  0
  2 19  2  0
  3  5  1  0
  4 12  1  0
  5  2  1  0
  6 13  2  0
  7 14  2  0
  8 20  2  0
  9 11  2  0
  9  4  1  0
 10 19  1  0
 10  6  1  0
 11 10  1  0
 12  6  1  0
 14 18  1  0
 14  1  1  0
 15  4  2  3
 16 17  2  0
 17 20  1  0
 18  3  2  0
 19  8  1  0
  1 21  1  0
  3 22  1  0
 11 23  1  0
 12 24  1  0
 12 25  1  0
 15 26  1  0
 16 27  1  0
 17 28  1  0
 20 29  1  0
M  END
>  <mol_id>  (93) 
2026-08-23-6tgu-s0-n100-prep-0095

>  <rmsd_to_ref>  (93) 


$$$$

     RDKit          3D

 36 39  0  0  0  0  0  0  0  0999 V2000
    2.5580   18.3520   39.2430 C   0  0  1  0  0  0  0  0  0  0  0  0
   -0.0470   17.2060   44.2120 N   0  0  0  0  0  0  0  0  0  0  0  0
    0.8180   16.5690   42.0560 C   0  0  0  0  0  0  0  0  0  0  0  0
    0.8910   18.9500   42.5490 C   0  0  0  0  0  0  0  0  0  0  0  0
    2.7580   20.4810   36.9320 O   0  0  0  0  0  0  0  0  0  0  0  0
    4.2660   18.9160   36.9240 C   0  0  0  0  0  0  0  0  0  0  0  0
    0.7370   15.4930   42.5710 O   0  0  0  0  0  0  0  0  0  0  0  0
    4.2300   20.5990   35.2400 O   0  0  0  0  0  0  0  0  0  0  0  0
   -0.5700   17.9600   45.1720 C   0  0  0  0  0  0  0  0  0  0  0  0
    1.3510   19.2920   41.2220 C   0  0  1  0  0  0  0  0  0  0  0  0
    3.7150   20.0790   36.4530 N   0  0  0  0  0  0  0  0  0  0  0  0
    0.2030   17.6290   42.8040 C   0  0  2  0  0  0  0  0  0  0  0  0
   -1.0490   17.4310   46.2770 N   0  0  0  0  0  0  0  0  0  0  0  0
    1.8140   18.2560   40.3560 C   0  0  2  0  0  0  0  0  0  0  0  0
    1.3760   20.5530   40.6480 C   0  0  0  0  0  0  0  0  0  0  0  0
    2.7770   19.9880   38.4660 C   0  0  1  0  0  0  0  0  0  0  0  0
    1.3720   16.9470   40.7880 O   0  0  0  0  0  0  0  0  0  0  0  0
    2.0120   20.8330   39.4890 C   0  0  0  0  0  0  0  0  0  0  0  0
   -0.7310   19.3150   45.0080 N   0  0  0  0  0  0  0  0  0  0  0  0
    3.5560   18.6360   38.2220 C   0  0  1  0  0  0  0  0  0  0  0  0
    2.3049   17.3245   39.5432 H   0  0  0  0  0  0  0  0  0  0  0  0
    0.1842   19.7371   42.8505 H   0  0  0  0  0  0  0  0  0  0  0  0
    1.8269   18.8564   43.1195 H   0  0  0  0  0  0  0  0  0  0  0  0
    5.3452   19.0427   37.0949 H   0  0  0  0  0  0  0  0  0  0  0  0
    4.1517   18.0890   36.2078 H   0  0  0  0  0  0  0  0  0  0  0  0
    4.9123   21.2880   35.4396 H   0  0  0  0  0  0  0  0  0  0  0  0
    2.3718   19.4240   41.6099 H   0  0  0  0  0  0  0  0  0  0  0  0
   -0.8145   17.8390   42.4425 H   0  0  0  0  0  0  0  0  0  0  0  0
   -1.4495   18.0375   47.0068 H   0  0  0  0  0  0  0  0  0  0  0  0
   -1.0235   16.4103   46.4124 H   0  0  0  0  0  0  0  0  0  0  0  0
    0.8997   18.3662   39.7543 H   0  0  0  0  0  0  0  0  0  0  0  0
    0.8499   21.3700   41.1635 H   0  0  0  0  0  0  0  0  0  0  0  0
    1.9715   21.8994   39.2224 H   0  0  0  0  0  0  0  0  0  0  0  0
   -1.1389   19.8806   45.7660 H   0  0  0  0  0  0  0  0  0  0  0  0
   -0.4437   19.7649   44.1271 H   0  0  0  0  0  0  0  0  0  0  0  0
    4.2611   17.7917   38.2281 H   0  0  0  0  0  0  0  0  0  0  0  0
  1 14  1  0
  2  9  2  3
  3  7  2  0
  3 12  1  0
  4 12  1  0
 16  5  1  6
  6 20  1  0
  8 11  1  0
  9 13  1  0
 10  4  1  0
 11  6  1  0
 11  5  1  0
 12  2  1  0
 14 17  1  0
 14 10  1  0
 15 10  1  0
 16  1  1  0
 16 18  1  0
 17  3  1  0
 18 15  2  0
 19  9  1  0
 20 16  1  0
 20  1  1  0
  1 21  1  6
  4 22  1  0
  4 23  1  0
  6 24  1  0
  6 25  1  0
  8 26  1  0
 10 27  1  1
 12 28  1  6
 13 29  1  0
 13 30  1  0
 14 31  1  6
 15 32  1  0
 18 33  1  0
 19 34  1  0
 19 35  1  0
 20 36  1  1
M  END
>  <mol_id>  (94) 
2026-08-23-6tgu-s0-n100-prep-0096

>  <rmsd_to_ref>  (94) 


$$$$

     RDKit          3D

 36 38  0  0  0  0  0  0  0  0999 V2000
    0.3537   16.9206   42.0768 C   0  0  0  0  0  0  0  0  0  0  0  0
    0.4561   20.0280   42.7869 C   0  0  0  0  0  0  0  0  0  0  0  0
    1.9679   21.0076   39.6313 C   0  0  0  0  0  0  0  0  0  0  0  0
    1.9011   19.5386   39.4504 C   0  0  0  0  0  0  0  0  0  0  0  0
   -0.0944   17.5918   43.2885 C   0  0  2  0  0  0  0  0  0  0  0  0
    1.5130   21.2814   40.9829 C   0  0  0  0  0  0  0  0  0  0  0  0
    2.0530   17.8027   37.9720 O   0  0  0  0  0  0  0  0  0  0  0  0
    0.3065   21.1441   43.2968 O   0  0  0  0  0  0  0  0  0  0  0  0
    0.0272   15.6523   42.2405 C   0  0  0  0  0  0  0  0  0  0  0  0
    1.0699   19.9656   41.4717 C   0  0  0  0  0  0  0  0  0  0  0  0
    1.4324   16.2456   40.3215 C   0  0  0  0  0  0  0  0  0  0  0  0
   -0.5836   16.6065   44.1744 O   0  0  0  0  0  0  0  0  0  0  0  0
   -1.1553   19.2597   44.6277 C   0  0  0  0  0  0  0  0  0  0  0  0
    1.0513   17.4080   40.9856 C   0  0  0  0  0  0  0  0  0  0  0  0
    2.2525   19.0153   38.1832 C   0  0  0  0  0  0  0  0  0  0  0  0
   -0.0067   18.8958   43.6918 C   0  0  2  0  0  0  0  0  0  0  0  0
    3.1649   19.7461   36.2688 O   0  0  0  0  0  0  0  0  0  0  0  0
    2.7411   19.8049   37.2853 N   0  0  0  0  0  0  0  0  0  0  0  0
    1.3377   18.8355   40.6904 C   0  0  0  0  0  0  0  0  0  0  0  0
    1.1901   14.9868   40.7805 C   0  0  0  0  0  0  0  0  0  0  0  0
    0.4806   14.4616   41.8801 C   0  0  0  0  0  0  0  0  0  0  0  0
    2.2978   21.7470   38.8867 H   0  0  0  0  0  0  0  0  0  0  0  0
    0.8743   17.3795   43.7645 H   0  0  0  0  0  0  0  0  0  0  0  0
    2.3334   21.6743   41.6014 H   0  0  0  0  0  0  0  0  0  0  0  0
    0.7187   22.0414   41.0210 H   0  0  0  0  0  0  0  0  0  0  0  0
    0.0048   15.5638   43.3368 H   0  0  0  0  0  0  0  0  0  0  0  0
   -0.7298   15.6772   41.4427 H   0  0  0  0  0  0  0  0  0  0  0  0
    1.9637   16.3506   39.3640 H   0  0  0  0  0  0  0  0  0  0  0  0
   -0.3507   16.8538   45.1043 H   0  0  0  0  0  0  0  0  0  0  0  0
   -0.8050   19.2230   45.6698 H   0  0  0  0  0  0  0  0  0  0  0  0
   -1.5098   20.2748   44.3956 H   0  0  0  0  0  0  0  0  0  0  0  0
   -1.9794   18.5437   44.4925 H   0  0  0  0  0  0  0  0  0  0  0  0
    0.9606   18.8404   44.2126 H   0  0  0  0  0  0  0  0  0  0  0  0
    1.6495   14.2071   40.1553 H   0  0  0  0  0  0  0  0  0  0  0  0
   -0.3152   13.7589   41.5924 H   0  0  0  0  0  0  0  0  0  0  0  0
    1.0218   13.8532   42.6197 H   0  0  0  0  0  0  0  0  0  0  0  0
  1  9  1  0
  1  5  1  0
  2  8  2  0
  2 16  1  0
  3  6  1  0
  4  3  2  0
  4 19  1  0
  5 16  1  0
  5 12  1  0
  6 10  1  0
  7 15  2  0
 10  2  1  0
 11 20  2  0
 11 14  1  0
 14  1  2  0
 15  4  1  0
 16 13  1  0
 17 18  2  0
 18 15  1  0
 19 14  1  0
 19 10  2  0
 20 21  1  0
 21  9  1  0
  3 22  1  0
  5 23  1  6
  6 24  1  0
  6 25  1  0
  9 26  1  0
  9 27  1  0
 11 28  1  0
 12 29  1  0
 13 30  1  0
 13 31  1  0
 13 32  1  0
 16 33  1  1
 20 34  1  0
 21 35  1  0
 21 36  1  0
M  END
>  <mol_id>  (95) 
2026-08-23-6tgu-s0-n100-prep-0097

>  <rmsd_to_ref>  (95) 


$$$$

     RDKit          3D

 30 32  0  0  0  0  0  0  0  0999 V2000
    1.1965   17.0957   40.7641 C   0  0  0  0  0  0  0  0  0  0  0  0
    0.2180   18.6981   41.7445 C   0  0  0  0  0  0  0  0  0  0  0  0
    0.4875   16.5686   41.8003 N   0  0  0  0  0  0  0  0  0  0  0  0
    1.1502   18.4102   40.7079 C   0  0  0  0  0  0  0  0  0  0  0  0
    1.6457   19.2951   39.7495 C   0  0  1  0  0  0  0  0  0  0  0  0
   -1.1415   17.3940   43.3951 C   0  0  0  0  0  0  0  0  0  0  0  0
   -0.9984   20.4812   43.0431 C   0  0  0  0  0  0  0  0  0  0  0  0
    1.9124   16.2048   40.1498 C   0  0  0  0  0  0  0  0  0  0  0  0
    3.2794   20.3460   36.6610 O   0  0  0  0  0  0  0  0  0  0  0  0
    2.0690   21.1591   38.4551 C   0  0  0  0  0  0  0  0  0  0  0  0
    2.7252   20.2621   37.7414 C   0  0  0  0  0  0  0  0  0  0  0  0
   -0.0817   20.0682   42.0441 N   0  0  0  0  0  0  0  0  0  0  0  0
   -1.0535   21.0883   41.6593 C   0  0  0  0  0  0  0  0  0  0  0  0
    1.5682   20.6590   39.6198 C   0  0  0  0  0  0  0  0  0  0  0  0
   -0.1057   17.5243   42.3346 C   0  0  0  0  0  0  0  0  0  0  0  0
    2.6416   18.8087   38.5227 S   0  0  0  0  0  0  0  0  0  0  0  0
    0.4496   15.5793   42.0848 H   0  0  0  0  0  0  0  0  0  0  0  0
    0.7172   19.1872   39.1697 H   0  0  0  0  0  0  0  0  0  0  0  0
   -0.6686   17.4925   44.3834 H   0  0  0  0  0  0  0  0  0  0  0  0
   -1.8962   18.1842   43.2695 H   0  0  0  0  0  0  0  0  0  0  0  0
   -1.6250   16.4092   43.3164 H   0  0  0  0  0  0  0  0  0  0  0  0
   -1.7936   19.7986   43.3771 H   0  0  0  0  0  0  0  0  0  0  0  0
   -0.9110   20.8778   44.0654 H   0  0  0  0  0  0  0  0  0  0  0  0
    2.3403   15.5076   40.8852 H   0  0  0  0  0  0  0  0  0  0  0  0
    1.2789   15.6489   39.4430 H   0  0  0  0  0  0  0  0  0  0  0  0
    2.7250   16.7026   39.6005 H   0  0  0  0  0  0  0  0  0  0  0  0
    1.9397   22.2053   38.1408 H   0  0  0  0  0  0  0  0  0  0  0  0
   -0.7352   22.1280   41.4927 H   0  0  0  0  0  0  0  0  0  0  0  0
   -1.8128   21.2068   40.8724 H   0  0  0  0  0  0  0  0  0  0  0  0
    1.1335   21.3019   40.3993 H   0  0  0  0  0  0  0  0  0  0  0  0
  1  3  1  0
  2 12  1  0
  2 15  2  0
  3 15  1  0
  4  1  2  0
  4  2  1  0
  5  4  1  0
  8  1  1  0
  9 11  2  0
 10 14  2  0
 11 16  1  0
 11 10  1  0
 12  7  1  0
 13 12  1  0
 13  7  1  0
 14  5  1  0
 15  6  1  0
 16  5  1  0
  3 17  1  0
  5 18  1  6
  6 19  1  0
  6 20  1  0
  6 21  1  0
  7 22  1  0
  7 23  1  0
  8 24  1  0
  8 25  1  0
  8 26  1  0
 10 27  1  0
 13 28  1  0
 13 29  1  0
 14 30  1  0
M  END
>  <mol_id>  (96) 
2026-08-23-6tgu-s0-n100-prep-0098

>  <rmsd_to_ref>  (96) 


$$$$

     RDKit          3D

 24 26  0  0  0  0  0  0  0  0999 V2000
    3.6540   19.2200   36.8010 N   0  0  0  0  0  0  0  0  0  0  0  0
    2.5940   16.7840   39.9330 C   0  0  0  0  0  0  0  0  0  0  0  0
    0.5460   18.7210   42.2490 C   0  0  0  0  0  0  0  0  0  0  0  0
    1.2700   21.5850   40.3110 O   0  0  0  0  0  0  0  0  0  0  0  0
    2.4860   19.0730   39.0740 C   0  0  0  0  0  0  0  0  0  0  0  0
   -0.4270   18.5950   44.2840 C   0  0  0  0  0  0  0  0  0  0  0  0
    2.9320   17.7460   38.9920 C   0  0  0  0  0  0  0  0  0  0  0  0
    2.5120   20.9030   37.4580 O   0  0  0  0  0  0  0  0  0  0  0  0
    1.3200   18.3380   41.1400 C   0  0  0  0  0  0  0  0  0  0  0  0
    1.7080   19.3160   40.3010 C   0  0  0  0  0  0  0  0  0  0  0  0
    1.7650   17.0410   41.0270 C   0  0  0  0  0  0  0  0  0  0  0  0
   -0.8420   19.9250   44.0630 N   0  0  0  0  0  0  0  0  0  0  0  0
    1.0060   20.5270   40.9310 C   0  0  0  0  0  0  0  0  0  0  0  0
    2.8570   19.7990   37.7140 C   0  0  0  0  0  0  0  0  0  0  0  0
    0.3600   20.0500   42.1230 C   0  0  0  0  0  0  0  0  0  0  0  0
    0.2210   17.9140   43.3080 N   0  0  0  0  0  0  0  0  0  0  0  0
   -0.4190   20.7140   43.0570 C   0  0  0  0  0  0  0  0  0  0  0  0
    3.9966   18.2603   36.9510 H   0  0  0  0  0  0  0  0  0  0  0  0
    3.9226   19.7357   35.9508 H   0  0  0  0  0  0  0  0  0  0  0  0
    2.9991   15.7686   39.8112 H   0  0  0  0  0  0  0  0  0  0  0  0
   -0.6298   18.1099   45.2502 H   0  0  0  0  0  0  0  0  0  0  0  0
    3.5754   17.4563   38.1481 H   0  0  0  0  0  0  0  0  0  0  0  0
    1.4867   16.2595   41.7494 H   0  0  0  0  0  0  0  0  0  0  0  0
   -0.6680   21.7829   42.9837 H   0  0  0  0  0  0  0  0  0  0  0  0
  1 14  1  0
  2 11  1  0
  3 16  2  0
  4 13  2  0
  5 10  2  0
  7  5  1  0
  7  2  2  0
  8 14  2  0
  9  3  1  0
 10 13  1  0
 10  9  1  0
 11  9  2  0
 12  6  2  0
 13 15  1  0
 14  5  1  0
 15  3  1  0
 15 17  2  0
 16  6  1  0
 17 12  1  0
  1 18  1  0
  1 19  1  0
  2 20  1  0
  6 21  1  0
  7 22  1  0
 11 23  1  0
 17 24  1  0
M  END
>  <mol_id>  (97) 
2026-08-23-6tgu-s0-n100-prep-0099

>  <rmsd_to_ref>  (97) 


$$$$

     RDKit          3D

 25 25  0  0  0  0  0  0  0  0999 V2000
    2.2440   19.3711   40.4649 C   0  0  0  0  0  0  0  0  0  0  0  0
    2.0724   18.5294   41.6529 C   0  0  0  0  0  0  0  0  0  0  0  0
    3.0234   19.0655   39.2375 C   0  0  0  0  0  0  0  0  0  0  0  0
    3.5636   19.4317   37.0564 O   0  0  0  0  0  0  0  0  0  0  0  0
    1.9357   20.7052   37.7345 O   0  0  0  0  0  0  0  0  0  0  0  0
    2.8267   19.8426   37.9808 C   0  0  0  0  0  0  0  0  0  0  0  0
    0.5953   20.8963   41.3957 C   0  0  0  0  0  0  0  0  0  0  0  0
   -1.1689   21.4685   43.7171 O   0  0  0  0  0  0  0  0  0  0  0  0
   -0.1254   17.7738   44.6854 C   0  0  0  0  0  0  0  0  0  0  0  0
    1.0904   18.8563   42.6326 C   0  0  0  0  0  0  0  0  0  0  0  0
   -1.1242   20.2230   43.0775 C   0  0  0  0  0  0  0  0  0  0  0  0
    0.9512   18.0568   43.7581 O   0  0  0  0  0  0  0  0  0  0  0  0
    0.2490   20.0077   42.4086 C   0  0  0  0  0  0  0  0  0  0  0  0
    1.6190   20.6511   40.4232 C   0  0  0  0  0  0  0  0  0  0  0  0
    2.7054   17.6401   41.7889 H   0  0  0  0  0  0  0  0  0  0  0  0
    4.0843   19.1739   39.5074 H   0  0  0  0  0  0  0  0  0  0  0  0
    2.6515   18.0678   38.9613 H   0  0  0  0  0  0  0  0  0  0  0  0
    0.0479   21.8487   41.3375 H   0  0  0  0  0  0  0  0  0  0  0  0
   -1.0908   21.3399   44.6956 H   0  0  0  0  0  0  0  0  0  0  0  0
    0.2245   17.9391   45.7150 H   0  0  0  0  0  0  0  0  0  0  0  0
   -0.9750   18.4402   44.4753 H   0  0  0  0  0  0  0  0  0  0  0  0
   -0.4432   16.7270   44.5698 H   0  0  0  0  0  0  0  0  0  0  0  0
   -1.2939   19.4288   43.8194 H   0  0  0  0  0  0  0  0  0  0  0  0
   -1.9053   20.1925   42.3036 H   0  0  0  0  0  0  0  0  0  0  0  0
    1.9073   21.4117   39.6827 H   0  0  0  0  0  0  0  0  0  0  0  0
  1 14  1  0
  1  2  2  0
  2 10  1  0
  3  1  1  0
  4  6  2  0
  5  6  1  0
  6  3  1  0
  7 13  1  0
 10 12  1  0
 11  8  1  0
 12  9  1  0
 13 10  2  0
 13 11  1  0
 14  7  2  0
  2 15  1  0
  3 16  1  0
  3 17  1  0
  7 18  1  0
  8 19  1  0
  9 20  1  0
  9 21  1  0
  9 22  1  0
 11 23  1  0
 11 24  1  0
 14 25  1  0
M  CHG  1   5  -1
M  END
>  <mol_id>  (98) 
2026-08-23-6tgu-s0-n100-prep-0100

>  <rmsd_to_ref>  (98) 


$$$$
