
     RDKit          3D

 27 29  0  0  0  0  0  0  0  0999 V2000
    3.3496   19.7344   38.1708 C   0  0  0  0  0  0  0  0  0  0  0  0
    1.7720   16.5054   41.1125 N   0  0  0  0  0  0  0  0  0  0  0  0
    1.9837   20.8611   40.1203 C   0  0  0  0  0  0  0  0  0  0  0  0
    2.7808   17.0552   39.2954 C   0  0  0  0  0  0  0  0  0  0  0  0
    2.3773   16.0284   40.0020 N   0  0  0  0  0  0  0  0  0  0  0  0
    3.8129   18.5392   37.4710 C   0  0  0  0  0  0  0  0  0  0  0  0
    0.9864   18.7342   42.2841 C   0  0  0  0  0  0  0  0  0  0  0  0
    1.1592   15.5362   42.1877 C   0  0  0  0  0  0  0  0  0  0  0  0
    0.3617   18.0786   43.1555 O   0  0  0  0  0  0  0  0  0  0  0  0
    0.9521   20.2279   42.4029 C   0  0  0  0  0  0  0  0  0  0  0  0
    2.6634   19.6226   39.4016 C   0  0  0  0  0  0  0  0  0  0  0  0
    2.3569   18.3107   39.9558 C   0  0  0  0  0  0  0  0  0  0  0  0
    3.4989   17.2349   38.0103 C   0  0  0  0  0  0  0  0  0  0  0  0
    1.6779   17.9041   41.1554 C   0  0  0  0  0  0  0  0  0  0  0  0
    2.1189   20.9219   41.6017 C   0  0  0  0  0  0  0  0  0  0  0  0
    3.5359   20.7281   37.7374 H   0  0  0  0  0  0  0  0  0  0  0  0
    0.9099   20.8383   39.8827 H   0  0  0  0  0  0  0  0  0  0  0  0
    2.5149   21.7468   39.7415 H   0  0  0  0  0  0  0  0  0  0  0  0
    4.3952   18.6304   36.5423 H   0  0  0  0  0  0  0  0  0  0  0  0
    1.5257   15.8173   43.1860 H   0  0  0  0  0  0  0  0  0  0  0  0
    0.0619   15.6107   42.1655 H   0  0  0  0  0  0  0  0  0  0  0  0
    1.4612   14.5024   41.9639 H   0  0  0  0  0  0  0  0  0  0  0  0
   -0.0096   20.5914   42.0118 H   0  0  0  0  0  0  0  0  0  0  0  0
    1.0776   20.4826   43.4656 H   0  0  0  0  0  0  0  0  0  0  0  0
    3.8043   16.3416   37.4457 H   0  0  0  0  0  0  0  0  0  0  0  0
    3.0633   20.4308   41.8792 H   0  0  0  0  0  0  0  0  0  0  0  0
    2.0873   21.9879   41.8713 H   0  0  0  0  0  0  0  0  0  0  0  0
  1 11  2  0
  2  8  1  0
  3 15  1  0
  4 12  1  0
  4  5  2  0
  5  2  1  0
  6  1  1  0
  6 13  2  0
  7  9  2  0
 10  7  1  0
 11  3  1  0
 11 12  1  0
 12 14  2  0
 13  4  1  0
 14  2  1  0
 14  7  1  0
 15 10  1  0
  1 16  1  0
  3 17  1  0
  3 18  1  0
  6 19  1  0
  8 20  1  0
  8 21  1  0
  8 22  1  0
 10 23  1  0
 10 24  1  0
 13 25  1  0
 15 26  1  0
 15 27  1  0
M  END
>  <mol_id>  (1) 
2026-08-24-6tgu-s0-n100-seed1-0001

>  <rmsd_to_ref>  (1) 


$$$$

     RDKit          3D

 26 27  0  0  0  0  0  0  0  0999 V2000
    3.0281   20.4007   37.4601 C   0  0  0  0  0  0  0  0  0  0  0  0
    0.6645   20.6752   40.2760 C   0  0  0  0  0  0  0  0  0  0  0  0
    1.0362   19.2746   40.2904 C   0  0  0  0  0  0  0  0  0  0  0  0
    2.1277   19.1687   39.4098 C   0  0  0  0  0  0  0  0  0  0  0  0
    0.1724   18.6697   41.3127 C   0  0  0  0  0  0  0  0  0  0  0  0
    3.7125   20.2980   36.5561 N   0  0  0  0  0  0  0  0  0  0  0  0
    2.1623   20.3172   38.6050 C   0  0  0  0  0  0  0  0  0  0  0  0
    2.9085   18.2233   38.9911 O   0  0  0  0  0  0  0  0  0  0  0  0
    1.3503   16.6788   41.8987 C   0  0  0  0  0  0  0  0  0  0  0  0
    1.0485   15.6712   39.7248 O   0  0  0  0  0  0  0  0  0  0  0  0
   -0.3348   20.8216   41.2584 C   0  0  0  0  0  0  0  0  0  0  0  0
    0.0284   17.3376   41.6688 C   0  0  0  0  0  0  0  0  0  0  0  0
    1.3556   21.2129   39.1907 N   0  0  0  0  0  0  0  0  0  0  0  0
   -0.5167   19.6492   41.8556 N   0  0  0  0  0  0  0  0  0  0  0  0
    1.9940   16.1109   40.6468 C   0  0  0  0  0  0  0  0  0  0  0  0
    3.6290   18.4268   38.3434 H   0  0  0  0  0  0  0  0  0  0  0  0
    2.0354   17.4234   42.3302 H   0  0  0  0  0  0  0  0  0  0  0  0
    1.1643   15.8275   42.5699 H   0  0  0  0  0  0  0  0  0  0  0  0
    0.2261   15.3949   40.2016 H   0  0  0  0  0  0  0  0  0  0  0  0
   -0.0188   21.5701   41.9999 H   0  0  0  0  0  0  0  0  0  0  0  0
   -1.2737   21.1559   40.7927 H   0  0  0  0  0  0  0  0  0  0  0  0
   -0.5648   17.2781   42.5932 H   0  0  0  0  0  0  0  0  0  0  0  0
   -0.4751   16.8150   40.8421 H   0  0  0  0  0  0  0  0  0  0  0  0
    1.2571   22.1883   38.8747 H   0  0  0  0  0  0  0  0  0  0  0  0
    2.6338   15.2623   40.9308 H   0  0  0  0  0  0  0  0  0  0  0  0
    2.5804   16.9125   40.1743 H   0  0  0  0  0  0  0  0  0  0  0  0
  1  7  1  0
  2 11  1  0
  3  2  2  0
  3  5  1  0
  4  3  1  0
  5 12  1  0
  5 14  2  0
  6  1  3  0
  7 13  1  0
  7  4  2  0
  8  4  1  0
  9 12  1  0
 10 15  1  0
 11 14  1  0
 13  2  1  0
 15  9  1  0
  8 16  1  0
  9 17  1  0
  9 18  1  0
 10 19  1  0
 11 20  1  0
 11 21  1  0
 12 22  1  0
 12 23  1  0
 13 24  1  0
 15 25  1  0
 15 26  1  0
M  END
>  <mol_id>  (2) 
2026-08-24-6tgu-s0-n100-seed1-0003

>  <rmsd_to_ref>  (2) 


$$$$

     RDKit          3D

 32 33  0  0  0  0  0  0  0  0999 V2000
    3.6413   17.6409   38.4053 C   0  0  0  0  0  0  0  0  0  0  0  0
    2.6040   20.3496   38.5801 C   0  0  0  0  0  0  0  0  0  0  0  0
    2.2754   16.6915   40.4843 C   0  0  0  0  0  0  0  0  0  0  0  0
    3.5372   20.6206   36.4560 O   0  0  0  0  0  0  0  0  0  0  0  0
    2.6831   17.9983   39.4762 C   0  0  0  0  0  0  0  0  0  0  0  0
    1.4523   17.0302   41.4722 C   0  0  0  0  0  0  0  0  0  0  0  0
    2.3075   14.3672   41.3240 C   0  0  0  0  0  0  0  0  0  0  0  0
    2.6779   15.3601   40.4038 C   0  0  0  0  0  0  0  0  0  0  0  0
    2.2086   19.2967   39.4672 C   0  0  0  0  0  0  0  0  0  0  0  0
    1.5001   14.7664   42.4472 C   0  0  0  0  0  0  0  0  0  0  0  0
    0.5707   20.1076   40.9662 C   0  0  0  0  0  0  0  0  0  0  0  0
    1.5544   19.4444   40.4822 O   0  0  0  0  0  0  0  0  0  0  0  0
    0.1482   19.1621   42.9074 O   0  0  0  0  0  0  0  0  0  0  0  0
    0.2885   20.0551   42.0106 C   0  0  0  0  0  0  0  0  0  0  0  0
    3.8227   18.5587   37.3277 N   0  0  0  0  0  0  0  0  0  0  0  0
    3.3713   19.8467   37.4426 C   0  0  0  0  0  0  0  0  0  0  0  0
    1.0891   16.0652   42.5125 C   0  0  0  0  0  0  0  0  0  0  0  0
    3.9721   16.4012   38.2739 O   0  0  0  0  0  0  0  0  0  0  0  0
    1.1853   13.7338   43.4780 C   0  0  0  0  0  0  0  0  0  0  0  0
    1.7022   20.8552   38.2045 H   0  0  0  0  0  0  0  0  0  0  0  0
    3.2448   21.0451   39.1419 H   0  0  0  0  0  0  0  0  0  0  0  0
    1.0386   18.0488   41.5086 H   0  0  0  0  0  0  0  0  0  0  0  0
    2.6226   13.3216   41.1917 H   0  0  0  0  0  0  0  0  0  0  0  0
    3.3275   15.0685   39.5654 H   0  0  0  0  0  0  0  0  0  0  0  0
   -0.3167   19.7975   40.3947 H   0  0  0  0  0  0  0  0  0  0  0  0
    0.9359   21.1420   40.8845 H   0  0  0  0  0  0  0  0  0  0  0  0
    0.0585   21.0544   42.4086 H   0  0  0  0  0  0  0  0  0  0  0  0
    4.2928   18.2526   36.4638 H   0  0  0  0  0  0  0  0  0  0  0  0
    0.4733   16.3943   43.3625 H   0  0  0  0  0  0  0  0  0  0  0  0
    1.3353   14.1595   44.4812 H   0  0  0  0  0  0  0  0  0  0  0  0
    0.1388   13.4134   43.3684 H   0  0  0  0  0  0  0  0  0  0  0  0
    1.8500   12.8676   43.3442 H   0  0  0  0  0  0  0  0  0  0  0  0
  1  5  1  0
  2  9  1  0
  3  8  2  0
  3  6  1  0
  4 16  2  0
  5  3  1  0
  6 17  2  0
  7 10  2  0
  8  7  1  0
  9  5  2  0
  9 12  1  0
 10 19  1  0
 11 14  1  0
 12 11  1  0
 14 13  2  0
 15 16  1  0
 15  1  1  0
 16  2  1  0
 17 10  1  0
 18  1  2  0
  2 20  1  0
  2 21  1  0
  6 22  1  0
  7 23  1  0
  8 24  1  0
 11 25  1  0
 11 26  1  0
 14 27  1  0
 15 28  1  0
 17 29  1  0
 19 30  1  0
 19 31  1  0
 19 32  1  0
M  END
>  <mol_id>  (3) 
2026-08-24-6tgu-s0-n100-seed1-0004

>  <rmsd_to_ref>  (3) 


$$$$

     RDKit          3D

 47 48  0  0  0  0  0  0  0  0999 V2000
    2.0010   20.0140   39.2940 C   0  0  0  0  0  0  0  0  0  0  0  0
    0.0650   18.5100   43.4210 C   0  0  0  0  0  0  0  0  0  0  0  0
    1.3930   20.3490   40.5570 O   0  0  0  0  0  0  0  0  0  0  0  0
    3.9230   21.7360   35.1140 C   0  0  0  0  0  0  0  0  0  0  0  0
    1.1780   15.2290   40.8300 O   0  0  0  0  0  0  0  0  0  0  0  0
    0.5280   20.2370   41.7410 C   0  0  0  0  0  0  0  0  0  0  0  0
    0.8010   14.7570   43.0740 N   0  0  0  0  0  0  0  0  0  0  0  0
    3.2500   20.1880   36.7400 C   0  0  0  0  0  0  0  0  0  0  0  0
   -0.8400   19.4030   44.0170 C   0  0  0  0  0  0  0  0  0  0  0  0
    0.1620   12.3610   44.7670 C   0  0  0  0  0  0  0  0  0  0  0  0
    3.4560   19.0150   37.3570 C   0  0  0  0  0  0  0  0  0  0  0  0
    0.9020   13.3810   42.7400 C   0  0  0  0  0  0  0  0  0  0  0  0
    1.1710   15.6010   41.9990 C   0  0  0  0  0  0  0  0  0  0  0  0
   -0.3860   14.9390   43.9190 C   0  0  0  0  0  0  0  0  0  0  0  0
    1.5970   16.7570   42.3040 N   0  0  0  0  0  0  0  0  0  0  0  0
    2.5600   21.2830   37.2810 C   0  0  0  0  0  0  0  0  0  0  0  0
   -0.1690   12.4940   43.3050 C   0  0  0  0  0  0  0  0  0  0  0  0
    1.8800   21.1460   38.4890 C   0  0  0  0  0  0  0  0  0  0  0  0
   -1.0310   20.7180   43.4850 N   0  0  0  0  0  0  0  0  0  0  0  0
    0.7140   18.9060   42.2040 C   0  0  0  0  0  0  0  0  0  0  0  0
    1.4950   17.9740   41.6010 N   0  0  0  0  0  0  0  0  0  0  0  0
    4.1570   18.0350   36.7240 O   0  0  0  0  0  0  0  0  0  0  0  0
    2.7730   18.7320   38.5980 C   0  0  0  0  0  0  0  0  0  0  0  0
    3.8310   20.4170   35.5220 O   0  0  0  0  0  0  0  0  0  0  0  0
   -0.3240   21.1210   42.4900 C   0  0  0  0  0  0  0  0  0  0  0  0
    0.2716   17.5301   43.8762 H   0  0  0  0  0  0  0  0  0  0  0  0
    3.9687   22.3906   35.9969 H   0  0  0  0  0  0  0  0  0  0  0  0
    4.8327   21.8705   34.5104 H   0  0  0  0  0  0  0  0  0  0  0  0
    3.0408   21.9955   34.5104 H   0  0  0  0  0  0  0  0  0  0  0  0
   -1.4093   19.0880   44.9039 H   0  0  0  0  0  0  0  0  0  0  0  0
   -0.6922   12.7042   45.3690 H   0  0  0  0  0  0  0  0  0  0  0  0
    0.3752   11.3074   45.0003 H   0  0  0  0  0  0  0  0  0  0  0  0
    1.0450   12.9742   45.0003 H   0  0  0  0  0  0  0  0  0  0  0  0
    0.8679   13.2959   41.6438 H   0  0  0  0  0  0  0  0  0  0  0  0
    1.8457   13.0328   43.1852 H   0  0  0  0  0  0  0  0  0  0  0  0
   -0.0925   14.8940   44.9782 H   0  0  0  0  0  0  0  0  0  0  0  0
   -0.8412   15.9174   43.7059 H   0  0  0  0  0  0  0  0  0  0  0  0
   -1.1135   14.1419   43.7059 H   0  0  0  0  0  0  0  0  0  0  0  0
    2.0940   16.8145   43.2043 H   0  0  0  0  0  0  0  0  0  0  0  0
    2.5559   22.2477   36.7525 H   0  0  0  0  0  0  0  0  0  0  0  0
   -1.1598   12.9534   43.1737 H   0  0  0  0  0  0  0  0  0  0  0  0
   -0.2037   11.5174   42.8001 H   0  0  0  0  0  0  0  0  0  0  0  0
    1.2220   21.9627   38.8207 H   0  0  0  0  0  0  0  0  0  0  0  0
    1.9732   18.1422   40.7044 H   0  0  0  0  0  0  0  0  0  0  0  0
    4.3120   17.1673   37.1747 H   0  0  0  0  0  0  0  0  0  0  0  0
    2.7678   17.7288   39.0491 H   0  0  0  0  0  0  0  0  0  0  0  0
   -0.3724   22.1812   42.2007 H   0  0  0  0  0  0  0  0  0  0  0  0
  1  3  1  0
  2  9  1  0
  3  6  1  0
  4 24  1  0
  5 13  2  0
  6 20  1  0
  6 25  2  0
  7 14  1  0
  8 16  1  0
  8 11  2  0
 11 23  1  0
 12  7  1  0
 12 17  1  0
 13 15  1  0
 13  7  1  0
 16 18  2  0
 17 10  1  0
 18  1  1  0
 19  9  2  0
 20  2  2  0
 21 20  1  0
 21 15  1  0
 22 11  1  0
 23  1  2  0
 24  8  1  0
 25 19  1  0
  2 26  1  0
  4 27  1  0
  4 28  1  0
  4 29  1  0
  9 30  1  0
 10 31  1  0
 10 32  1  0
 10 33  1  0
 12 34  1  0
 12 35  1  0
 14 36  1  0
 14 37  1  0
 14 38  1  0
 15 39  1  0
 16 40  1  0
 17 41  1  0
 17 42  1  0
 18 43  1  0
 21 44  1  0
 22 45  1  0
 23 46  1  0
 25 47  1  0
M  END
>  <mol_id>  (4) 
2026-08-24-6tgu-s0-n100-seed1-0005

>  <rmsd_to_ref>  (4) 


$$$$

     RDKit          3D

 27 28  0  0  0  0  0  0  0  0999 V2000
    3.2192   18.0830   37.7008 C   0  0  0  0  0  0  0  0  0  0  0  0
    2.7491   16.8054   39.5445 O   0  0  0  0  0  0  0  0  0  0  0  0
    1.3142   15.8332   41.6178 C   0  0  0  0  0  0  0  0  0  0  0  0
   -0.2024   16.6003   44.2025 N   0  0  0  0  0  0  0  0  0  0  0  0
   -0.7017   17.4565   43.4869 C   0  0  0  0  0  0  0  0  0  0  0  0
    0.9245   18.4893   40.6939 C   0  0  2  0  0  0  0  0  0  0  0  0
    1.8155   18.9071   39.4004 C   0  0  0  0  0  0  0  0  0  0  0  0
    1.6960   20.1028   38.6928 C   0  0  1  0  0  0  0  0  0  0  0  0
    4.2509   16.9907   37.0699 Cl  0  0  0  0  0  0  0  0  0  0  0  0
    3.1562   19.3784   36.9282 C   0  0  0  0  0  0  0  0  0  0  0  0
    0.7674   17.2453   41.5483 C   0  0  0  0  0  0  0  0  0  0  0  0
    2.5644   18.1002   38.9226 C   0  0  0  0  0  0  0  0  0  0  0  0
    2.3352   20.3310   37.4232 C   0  0  0  0  0  0  0  0  0  0  0  0
    0.0107   17.7882   42.3859 C   0  0  0  0  0  0  0  0  0  0  0  0
    2.1999   21.4121   36.8275 O   0  0  0  0  0  0  0  0  0  0  0  0
   -1.7544   18.0014   43.7580 O   0  0  0  0  0  0  0  0  0  0  0  0
    0.8582   21.4471   39.3505 Cl  0  0  0  0  0  0  0  0  0  0  0  0
   -0.0670   19.4421   41.6222 S   0  0  0  0  0  0  0  0  0  0  0  0
    2.3514   16.6214   40.4323 H   0  0  0  0  0  0  0  0  0  0  0  0
    1.4136   15.5299   42.6705 H   0  0  0  0  0  0  0  0  0  0  0  0
    0.6255   15.1476   41.1022 H   0  0  0  0  0  0  0  0  0  0  0  0
    2.3000   15.7973   41.1312 H   0  0  0  0  0  0  0  0  0  0  0  0
    0.6914   16.1634   43.9359 H   0  0  0  0  0  0  0  0  0  0  0  0
   -0.6756   16.3157   45.0720 H   0  0  0  0  0  0  0  0  0  0  0  0
    1.7715   18.7272   41.3542 H   0  0  0  0  0  0  0  0  0  0  0  0
    2.6311   20.4642   39.1456 H   0  0  0  0  0  0  0  0  0  0  0  0
    3.7456   19.5381   36.0132 H   0  0  0  0  0  0  0  0  0  0  0  0
  1 12  1  0
  5 16  2  0
  5  4  1  0
  6  7  1  0
  6 18  1  0
  6 11  1  0
  8 17  1  0
  8  7  1  0
  9  1  1  0
 10 13  1  0
 10  1  2  0
 11  3  1  0
 11 14  2  0
 12  7  2  0
 12  2  1  0
 13  8  1  0
 14  5  1  0
 15 13  2  0
 18 14  1  0
  2 19  1  0
  3 20  1  0
  3 21  1  0
  3 22  1  0
  4 23  1  0
  4 24  1  0
  6 25  1  6
  8 26  1  6
 10 27  1  0
M  END
>  <mol_id>  (5) 
2026-08-24-6tgu-s0-n100-seed1-0006

>  <rmsd_to_ref>  (5) 


$$$$

     RDKit          3D

 47 50  0  0  0  0  0  0  0  0999 V2000
    1.3121   18.5423   40.6887 C   0  0  1  0  0  0  0  0  0  0  0  0
    0.6935   18.1615   41.8351 C   0  0  0  0  0  0  0  0  0  0  0  0
    2.1368   21.9344   37.3435 C   0  0  0  0  0  0  0  0  0  0  0  0
    1.3446   20.0545   41.1523 N   0  0  0  0  0  0  0  0  0  0  0  0
   -1.1096   15.0826   45.3765 C   0  0  0  0  0  0  0  0  0  0  0  0
   -1.0789   16.6586   46.1569 C   0  0  0  0  0  0  0  0  0  0  0  0
    1.9795   20.1903   39.0059 C   0  0  0  0  0  0  0  0  0  0  0  0
    3.0647   19.5622   37.0424 C   0  0  0  0  0  0  0  0  0  0  0  0
    0.1197   19.2005   42.4943 C   0  0  0  0  0  0  0  0  0  0  0  0
    2.5856   16.5181   39.1173 C   0  0  0  0  0  0  0  0  0  0  0  0
    3.4677   20.0152   35.9311 O   0  0  0  0  0  0  0  0  0  0  0  0
   -0.4301   16.7164   43.4911 C   0  0  0  0  0  0  0  0  0  0  0  0
   -1.4647   14.4421   46.2852 O   0  0  0  0  0  0  0  0  0  0  0  0
    2.0563   18.8587   39.5977 C   0  0  2  0  0  0  0  0  0  0  0  0
   -0.7806   17.9730   44.2223 C   0  0  0  0  0  0  0  0  0  0  0  0
   -1.1115   17.6854   45.6144 C   0  0  0  0  0  0  0  0  0  0  0  0
    2.3758   20.5920   37.8745 C   0  0  0  0  0  0  0  0  0  0  0  0
    3.4431   15.5419   38.2587 O   0  0  0  0  0  0  0  0  0  0  0  0
    0.2280   16.8804   42.3562 N   0  0  0  0  0  0  0  0  0  0  0  0
    2.5777   17.8953   38.7056 C   0  0  1  0  0  0  0  0  0  0  0  0
    3.3096   18.2177   37.4303 C   0  0  0  0  0  0  0  0  0  0  0  0
   -0.7375   19.1543   43.5510 C   0  0  0  0  0  0  0  0  0  0  0  0
    1.8571   16.0274   40.0574 O   0  0  0  0  0  0  0  0  0  0  0  0
    2.7183   15.9923   36.7257 C   0  0  0  0  0  0  0  0  0  0  0  0
    0.6106   21.4712   42.5422 O   0  0  0  0  0  0  0  0  0  0  0  0
   -0.7219   15.3971   43.9885 C   0  0  0  0  0  0  0  0  0  0  0  0
    0.5813   20.5086   42.0018 C   0  0  0  0  0  0  0  0  0  0  0  0
    1.1850   17.5169   40.3112 H   0  0  0  0  0  0  0  0  0  0  0  0
    1.9817   22.6359   38.1765 H   0  0  0  0  0  0  0  0  0  0  0  0
    3.0067   22.2547   36.7514 H   0  0  0  0  0  0  0  0  0  0  0  0
    1.2422   21.9217   36.7035 H   0  0  0  0  0  0  0  0  0  0  0  0
    2.0359   20.6862   40.7235 H   0  0  0  0  0  0  0  0  0  0  0  0
   -1.9442   16.6624   46.8361 H   0  0  0  0  0  0  0  0  0  0  0  0
   -0.0414   16.6696   46.5224 H   0  0  0  0  0  0  0  0  0  0  0  0
    1.5075   20.9577   39.6371 H   0  0  0  0  0  0  0  0  0  0  0  0
    2.8303   18.8666   40.3792 H   0  0  0  0  0  0  0  0  0  0  0  0
   -0.4416   18.3321   46.2000 H   0  0  0  0  0  0  0  0  0  0  0  0
   -2.2028   17.8103   45.5569 H   0  0  0  0  0  0  0  0  0  0  0  0
    1.7047   18.3364   38.2022 H   0  0  0  0  0  0  0  0  0  0  0  0
    2.9639   17.5425   36.6338 H   0  0  0  0  0  0  0  0  0  0  0  0
    4.3890   18.0864   37.5967 H   0  0  0  0  0  0  0  0  0  0  0  0
   -1.3549   20.0167   43.8425 H   0  0  0  0  0  0  0  0  0  0  0  0
    1.6671   16.2738   36.8858 H   0  0  0  0  0  0  0  0  0  0  0  0
    3.2653   16.8455   36.2981 H   0  0  0  0  0  0  0  0  0  0  0  0
    2.7681   15.1401   36.0321 H   0  0  0  0  0  0  0  0  0  0  0  0
   -1.5451   15.0230   43.3622 H   0  0  0  0  0  0  0  0  0  0  0  0
    0.2812   14.9468   43.9562 H   0  0  0  0  0  0  0  0  0  0  0  0
  1  4  1  0
  1  2  1  0
  2  9  2  0
  2 19  1  0
  3 17  1  0
  4 27  1  0
  5  6  1  0
  5 13  2  0
  8 21  1  0
  8 17  1  0
  9 22  1  0
 10 23  2  0
 11  8  2  0
 12 15  1  0
 12 26  1  0
 14  7  1  0
 14  1  1  0
 15 16  1  0
 16  6  1  0
 17  7  2  0
 18 10  1  0
 19 12  2  0
 20 10  1  0
 20 14  1  0
 21 20  1  0
 22 15  2  0
 24 18  1  0
 26  5  1  0
 27 25  2  0
 27  9  1  0
  1 28  1  6
  3 29  1  0
  3 30  1  0
  3 31  1  0
  4 32  1  0
  6 33  1  0
  6 34  1  0
  7 35  1  0
 14 36  1  1
 16 37  1  0
 16 38  1  0
 20 39  1  6
 21 40  1  0
 21 41  1  0
 22 42  1  0
 24 43  1  0
 24 44  1  0
 24 45  1  0
 26 46  1  0
 26 47  1  0
M  END
>  <mol_id>  (6) 
2026-08-24-6tgu-s0-n100-seed1-0007

>  <rmsd_to_ref>  (6) 


$$$$

     RDKit          3D

 64 67  0  0  0  0  0  0  0  0999 V2000
    0.4019   21.1345   41.0892 C   0  0  0  0  0  0  0  0  0  0  0  0
    6.2276   13.2242   35.4933 C   0  0  0  0  0  0  0  0  0  0  0  0
   -1.4137   15.1756   46.4675 C   0  0  0  0  0  0  0  0  0  0  0  0
    2.9465   19.3325   37.6014 C   0  0  0  0  0  0  0  0  0  0  0  0
   -2.0112   16.0967   48.6350 C   0  0  0  0  0  0  0  0  0  0  0  0
    2.7505   20.3151   36.7041 N   0  0  0  0  0  0  0  0  0  0  0  0
    4.1731   17.3049   36.4457 N   0  0  0  0  0  0  0  0  0  0  0  0
    2.8233   18.1679   39.4892 C   0  0  0  0  0  0  0  0  0  0  0  0
    3.9008   16.1167   38.3935 C   0  0  0  0  0  0  0  0  0  0  0  0
    0.9981   20.2061   40.4461 N   0  0  0  0  0  0  0  0  0  0  0  0
    3.4169   17.3245   38.5687 C   0  0  0  0  0  0  0  0  0  0  0  0
    3.7194   20.3119   35.8358 O   0  0  0  0  0  0  0  0  0  0  0  0
   -0.5081   16.8843   42.7644 C   0  0  0  0  0  0  0  0  0  0  0  0
    5.7315   13.0908   37.9896 C   0  0  0  0  0  0  0  0  0  0  0  0
   -1.1174   18.9768   43.7910 O   0  0  0  0  0  0  0  0  0  0  0  0
   -0.3494   15.4813   42.8803 C   0  0  0  0  0  0  0  0  0  0  0  0
   -0.5935   14.9271   44.1658 C   0  0  0  0  0  0  0  0  0  0  0  0
   -0.8509   17.6869   43.8545 C   0  0  0  0  0  0  0  0  0  0  0  0
    0.6743   19.0458   40.8134 N   0  0  0  0  0  0  0  0  0  0  0  0
    5.5248   13.7850   36.7095 C   0  0  0  0  0  0  0  0  0  0  0  0
    4.8525   14.8688   36.5490 N   0  0  0  0  0  0  0  0  0  0  0  0
   -1.7148   13.9157   46.9201 C   0  0  0  0  0  0  0  0  0  0  0  0
    1.9820   20.4630   39.6249 C   0  0  0  0  0  0  0  0  0  0  0  0
   -2.3709   13.7598   48.1307 C   0  0  0  0  0  0  0  0  0  0  0  0
   -0.6149   20.5053   41.8151 C   0  0  0  0  0  0  0  0  0  0  0  0
   -1.1396   17.0465   45.0998 C   0  0  0  0  0  0  0  0  0  0  0  0
    2.5226   19.3539   38.9382 C   0  0  1  0  0  0  0  0  0  0  0  0
   -1.5248   16.3388   47.4062 C   0  0  0  0  0  0  0  0  0  0  0  0
   -2.9155   14.6496   50.2522 F   0  0  0  0  0  0  0  0  0  0  0  0
   -0.3243   19.1199   41.6903 N   0  0  0  0  0  0  0  0  0  0  0  0
    4.3062   16.0666   37.0655 C   0  0  0  0  0  0  0  0  0  0  0  0
   -0.9981   15.7198   45.2021 C   0  0  0  0  0  0  0  0  0  0  0  0
   -2.4494   14.8236   48.9960 C   0  0  0  0  0  0  0  0  0  0  0  0
   -1.4155   21.0145   42.5067 O   0  0  0  0  0  0  0  0  0  0  0  0
    3.5563   18.0376   37.4141 C   0  0  0  0  0  0  0  0  0  0  0  0
   -0.0248   21.8702   40.3916 H   0  0  0  0  0  0  0  0  0  0  0  0
    1.0940   21.6770   41.7502 H   0  0  0  0  0  0  0  0  0  0  0  0
    6.9955   12.5044   35.8130 H   0  0  0  0  0  0  0  0  0  0  0  0
    5.4953   12.7167   34.8482 H   0  0  0  0  0  0  0  0  0  0  0  0
    6.7031   14.0435   34.9342 H   0  0  0  0  0  0  0  0  0  0  0  0
   -2.0644   16.9157   49.3674 H   0  0  0  0  0  0  0  0  0  0  0  0
    1.9553   20.9698   36.7044 H   0  0  0  0  0  0  0  0  0  0  0  0
    2.6234   17.9013   40.5375 H   0  0  0  0  0  0  0  0  0  0  0  0
    4.7564   15.9448   39.0631 H   0  0  0  0  0  0  0  0  0  0  0  0
    3.1540   15.3417   38.6212 H   0  0  0  0  0  0  0  0  0  0  0  0
    4.5881   20.3140   36.3106 H   0  0  0  0  0  0  0  0  0  0  0  0
   -0.3563   17.3571   41.7830 H   0  0  0  0  0  0  0  0  0  0  0  0
    5.3914   13.7340   38.8146 H   0  0  0  0  0  0  0  0  0  0  0  0
    5.1567   12.1529   37.9950 H   0  0  0  0  0  0  0  0  0  0  0  0
    6.8008   12.8663   38.1165 H   0  0  0  0  0  0  0  0  0  0  0  0
   -1.3530   19.4747   44.6137 H   0  0  0  0  0  0  0  0  0  0  0  0
   -0.0542   14.8568   42.0243 H   0  0  0  0  0  0  0  0  0  0  0  0
   -0.4552   13.8480   44.3282 H   0  0  0  0  0  0  0  0  0  0  0  0
    0.3723   18.4983   39.9947 H   0  0  0  0  0  0  0  0  0  0  0  0
    4.6550   13.1443   36.5024 H   0  0  0  0  0  0  0  0  0  0  0  0
    4.5759   14.8610   35.5569 H   0  0  0  0  0  0  0  0  0  0  0  0
   -1.4366   13.0335   46.3248 H   0  0  0  0  0  0  0  0  0  0  0  0
    1.6149   21.1776   38.8734 H   0  0  0  0  0  0  0  0  0  0  0  0
    2.7985   20.8487   40.2531 H   0  0  0  0  0  0  0  0  0  0  0  0
   -2.8244   12.7935   48.3962 H   0  0  0  0  0  0  0  0  0  0  0  0
   -1.4746   17.6382   45.9645 H   0  0  0  0  0  0  0  0  0  0  0  0
    1.5407   18.9632   38.6330 H   0  0  0  0  0  0  0  0  0  0  0  0
   -1.2202   17.3508   47.1010 H   0  0  0  0  0  0  0  0  0  0  0  0
   -0.7881   18.3387   42.1755 H   0  0  0  0  0  0  0  0  0  0  0  0
  1 25  1  0
  2 20  1  0
  3 22  2  0
  3 28  1  0
  4 27  1  0
  5 33  1  0
  6  4  1  0
  7 31  2  0
  7 35  1  0
  9 11  1  0
 10 19  1  0
 10  1  1  0
 11  8  2  0
 12  6  1  0
 13 16  2  0
 13 18  1  0
 15 18  1  0
 16 17  1  0
 17 32  2  0
 18 26  2  0
 19 30  1  0
 20 14  1  0
 21 20  1  0
 21 31  1  0
 22 24  1  0
 23 10  1  0
 24 33  2  0
 25 34  2  0
 26 32  1  0
 27  8  1  0
 27 23  1  0
 28  5  2  0
 30 25  1  0
 31  9  1  0
 32  3  1  0
 33 29  1  0
 35  4  2  0
 35 11  1  0
  1 36  1  0
  1 37  1  0
  2 38  1  0
  2 39  1  0
  2 40  1  0
  5 41  1  0
  6 42  1  0
  8 43  1  0
  9 44  1  0
  9 45  1  0
 12 46  1  0
 13 47  1  0
 14 48  1  0
 14 49  1  0
 14 50  1  0
 15 51  1  0
 16 52  1  0
 17 53  1  0
 19 54  1  0
 20 55  1  0
 21 56  1  0
 22 57  1  0
 23 58  1  0
 23 59  1  0
 24 60  1  0
 26 61  1  0
 27 62  1  6
 28 63  1  0
 30 64  1  0
M  END
>  <mol_id>  (7) 
2026-08-24-6tgu-s0-n100-seed1-0008

>  <rmsd_to_ref>  (7) 


$$$$

     RDKit          3D

 40 43  0  0  0  0  0  0  0  0999 V2000
    1.7245   18.6498   39.9424 C   0  0  0  0  0  0  0  0  0  0  0  0
   -0.9907   20.2517   44.3691 N   0  0  0  0  0  0  0  0  0  0  0  0
    0.3299   18.7121   42.2345 C   0  0  0  0  0  0  0  0  0  0  0  0
    2.9950   18.3518   37.8878 C   0  0  0  0  0  0  0  0  0  0  0  0
    2.5388   16.4487   39.1929 C   0  0  0  0  0  0  0  0  0  0  0  0
    2.9542   19.7597   37.5776 C   0  0  0  0  0  0  0  0  0  0  0  0
    3.4762   14.1499   38.4815 C   0  0  0  0  0  0  0  0  0  0  0  0
   -0.5316   20.8243   43.2213 C   0  0  0  0  0  0  0  0  0  0  0  0
    3.2136   15.6419   38.2346 C   0  0  0  0  0  0  0  0  0  0  0  0
   -2.2788   17.5645   46.0808 N   0  0  0  0  0  0  0  0  0  0  0  0
    3.8120   13.6728   37.1980 O   0  0  0  0  0  0  0  0  0  0  0  0
    2.4136   17.8208   39.0537 C   0  0  0  0  0  0  0  0  0  0  0  0
    3.7493   16.2937   37.1825 N   0  0  0  0  0  0  0  0  0  0  0  0
    2.3010   20.6451   38.5383 C   0  0  0  0  0  0  0  0  0  0  0  0
    0.1059   20.1492   42.1680 C   0  0  0  0  0  0  0  0  0  0  0  0
   -0.3199   18.0792   43.3675 C   0  0  0  0  0  0  0  0  0  0  0  0
    1.7050   20.0341   39.6338 C   0  0  0  0  0  0  0  0  0  0  0  0
    3.6503   17.5411   37.0104 N   0  0  0  0  0  0  0  0  0  0  0  0
   -1.2499   18.4175   45.8062 C   0  0  2  0  0  0  0  0  0  0  0  0
   -0.9202   18.8384   44.3954 C   0  0  0  0  0  0  0  0  0  0  0  0
   -0.9591   17.5205   46.8680 C   0  0  0  0  0  0  0  0  0  0  0  0
    3.5849   20.1310   36.5183 O   0  0  0  0  0  0  0  0  0  0  0  0
    1.1088   17.9947   41.1761 C   0  0  0  0  0  0  0  0  0  0  0  0
    2.1001   15.9642   40.0777 H   0  0  0  0  0  0  0  0  0  0  0  0
    4.3076   14.0059   39.1872 H   0  0  0  0  0  0  0  0  0  0  0  0
    2.6188   13.6262   38.9291 H   0  0  0  0  0  0  0  0  0  0  0  0
   -0.6726   21.9096   43.1101 H   0  0  0  0  0  0  0  0  0  0  0  0
   -2.5166   16.8087   45.4228 H   0  0  0  0  0  0  0  0  0  0  0  0
   -3.2763   17.6636   46.3176 H   0  0  0  0  0  0  0  0  0  0  0  0
    4.3559   12.8501   37.2836 H   0  0  0  0  0  0  0  0  0  0  0  0
    2.2823   21.7364   38.4015 H   0  0  0  0  0  0  0  0  0  0  0  0
    0.4395   20.7117   41.2835 H   0  0  0  0  0  0  0  0  0  0  0  0
   -0.3453   16.9811   43.4268 H   0  0  0  0  0  0  0  0  0  0  0  0
    1.1636   20.6892   40.3321 H   0  0  0  0  0  0  0  0  0  0  0  0
   -0.8974   19.4593   45.7915 H   0  0  0  0  0  0  0  0  0  0  0  0
   -0.9110   17.8749   47.9083 H   0  0  0  0  0  0  0  0  0  0  0  0
   -0.1859   16.7754   47.1063 H   0  0  0  0  0  0  0  0  0  0  0  0
    3.5918   21.0853   36.2552 H   0  0  0  0  0  0  0  0  0  0  0  0
    0.4309   17.2201   40.7885 H   0  0  0  0  0  0  0  0  0  0  0  0
    2.0191   17.7415   41.7394 H   0  0  0  0  0  0  0  0  0  0  0  0
  1 23  1  0
  2 20  1  0
  3 16  1  0
  4 12  1  0
  6  4  2  0
  6 14  1  0
  8  2  2  0
  9  7  1  0
  9  5  2  0
 10 21  1  0
 11  7  1  0
 12  5  1  0
 12  1  2  0
 13  9  1  0
 14 17  2  0
 15  3  2  0
 15  8  1  0
 16 20  2  0
 17  1  1  0
 18 13  2  0
 18  4  1  0
 19 20  1  0
 19 10  1  0
 19 21  1  0
 22  6  1  0
 23  3  1  0
  5 24  1  0
  7 25  1  0
  7 26  1  0
  8 27  1  0
 10 28  1  0
 10 29  1  0
 11 30  1  0
 14 31  1  0
 15 32  1  0
 16 33  1  0
 17 34  1  0
 19 35  1  1
 21 36  1  0
 21 37  1  0
 22 38  1  0
 23 39  1  0
 23 40  1  0
M  CHG  1  10   1
M  END
>  <mol_id>  (8) 
2026-08-24-6tgu-s0-n100-seed1-0009

>  <rmsd_to_ref>  (8) 


$$$$

     RDKit          3D

 38 41  0  0  0  0  0  0  0  0999 V2000
    3.7290   17.9120   39.3690 F   0  0  0  0  0  0  0  0  0  0  0  0
   -0.4510   18.0910   44.0980 C   0  0  0  0  0  0  0  0  0  0  0  0
    2.4130   20.5880   38.8090 C   0  0  0  0  0  0  0  0  0  0  0  0
    1.9770   19.1990   40.1640 N   0  0  0  0  0  0  0  0  0  0  0  0
    0.3210   20.7580   41.7380 C   0  0  0  0  0  0  0  0  0  0  0  0
    2.2830   21.0720   37.5520 C   0  0  0  0  0  0  0  0  0  0  0  0
    3.7890   18.9920   37.6480 C   0  0  0  0  0  0  0  0  0  0  0  0
    1.9630   20.4190   39.9070 C   0  0  2  0  0  0  0  0  0  0  0  0
    3.2930   19.0310   38.7460 C   0  0  0  0  0  0  0  0  0  0  0  0
    1.1330   21.3470   40.6630 C   0  0  0  0  0  0  0  0  0  0  0  0
    4.5930   18.6570   37.0060 C   0  0  0  0  0  0  0  0  0  0  0  0
    1.6670   17.1160   40.8880 O   0  0  0  0  0  0  0  0  0  0  0  0
    3.0540   20.7830   36.4900 C   0  0  0  0  0  0  0  0  0  0  0  0
   -0.8560   20.1240   43.3440 C   0  0  0  0  0  0  0  0  0  0  0  0
    0.3400   17.6270   43.0990 C   0  0  0  0  0  0  0  0  0  0  0  0
   -1.0300   19.2930   44.2560 C   0  0  0  0  0  0  0  0  0  0  0  0
    0.7510   18.6630   42.0740 C   0  0  0  0  0  0  0  0  0  0  0  0
    1.4880   18.3660   40.8570 C   0  0  0  0  0  0  0  0  0  0  0  0
    3.8800   19.6540   36.5810 C   0  0  0  0  0  0  0  0  0  0  0  0
   -1.2740   17.3540   46.2800 C   0  0  0  0  0  0  0  0  0  0  0  0
    0.2120   19.9260   42.3700 C   0  0  0  0  0  0  0  0  0  0  0  0
   -0.5630   17.0500   45.1470 C   0  0  0  0  0  0  0  0  0  0  0  0
    2.6672   18.7453   39.5486 H   0  0  0  0  0  0  0  0  0  0  0  0
   -0.6698   20.7692   41.2603 H   0  0  0  0  0  0  0  0  0  0  0  0
    0.9298   21.2712   42.4969 H   0  0  0  0  0  0  0  0  0  0  0  0
    1.4571   21.7782   37.3811 H   0  0  0  0  0  0  0  0  0  0  0  0
    2.5701   21.0831   40.5398 H   0  0  0  0  0  0  0  0  0  0  0  0
    1.7959   22.0991   41.1157 H   0  0  0  0  0  0  0  0  0  0  0  0
    0.4134   21.7577   39.9394 H   0  0  0  0  0  0  0  0  0  0  0  0
    5.6360   18.8286   37.3106 H   0  0  0  0  0  0  0  0  0  0  0  0
    4.8653   17.6814   36.5770 H   0  0  0  0  0  0  0  0  0  0  0  0
    3.0376   21.4078   35.5848 H   0  0  0  0  0  0  0  0  0  0  0  0
   -1.5079   21.0072   43.2732 H   0  0  0  0  0  0  0  0  0  0  0  0
    0.6593   16.5761   43.0378 H   0  0  0  0  0  0  0  0  0  0  0  0
   -1.6287   19.5320   45.1473 H   0  0  0  0  0  0  0  0  0  0  0  0
   -1.3790   16.6069   47.0805 H   0  0  0  0  0  0  0  0  0  0  0  0
   -1.7392   18.3449   46.3881 H   0  0  0  0  0  0  0  0  0  0  0  0
   -0.0908   16.0645   45.0209 H   0  0  0  0  0  0  0  0  0  0  0  0
  2 16  1  0
  2 22  1  0
  4 18  1  0
  5 21  1  0
  6  3  1  0
  7  9  1  0
  8  3  1  0
  8  4  1  0
  8 10  1  0
  9  3  2  0
  9  1  1  0
 10  5  1  0
 11  7  1  0
 13 19  1  0
 13  6  2  0
 14 16  2  0
 15  2  2  0
 17 21  2  0
 17 15  1  0
 18 12  2  0
 18 17  1  0
 19 11  1  0
 19  7  2  0
 21 14  1  0
 22 20  2  3
  4 23  1  0
  5 24  1  0
  5 25  1  0
  6 26  1  0
  8 27  1  1
 10 28  1  0
 10 29  1  0
 11 30  1  0
 11 31  1  0
 13 32  1  0
 14 33  1  0
 15 34  1  0
 16 35  1  0
 20 36  1  0
 20 37  1  0
 22 38  1  0
M  END
>  <mol_id>  (9) 
2026-08-24-6tgu-s0-n100-seed1-0010

>  <rmsd_to_ref>  (9) 


$$$$

     RDKit          3D

 56 58  0  0  0  0  0  0  0  0999 V2000
    1.0380   21.0220   41.3860 N   0  0  0  0  0  0  0  0  0  0  0  0
    2.9400   17.2090   39.0550 C   0  0  0  0  0  0  0  0  0  0  0  0
    2.4420   18.5190   39.5660 C   0  0  1  0  0  0  0  0  0  0  0  0
    3.0320   14.8370   39.1590 C   0  0  0  0  0  0  0  0  0  0  0  0
    1.8070   18.5990   40.9570 C   0  0  1  0  0  0  0  0  0  0  0  0
    3.8710   16.0190   37.1890 C   0  0  0  0  0  0  0  0  0  0  0  0
    0.6330   18.2110   42.8160 C   0  0  2  0  0  0  0  0  0  0  0  0
    3.5870   13.6970   37.0980 O   0  0  0  0  0  0  0  0  0  0  0  0
    1.6400   21.6220   40.1470 C   0  0  0  0  0  0  0  0  0  0  0  0
    3.7930   19.6810   36.3580 O   0  0  0  0  0  0  0  0  0  0  0  0
   -0.0010   17.3490   43.6440 N   0  0  0  0  0  0  0  0  0  0  0  0
   -0.8110   20.1460   42.7820 O   0  0  0  0  0  0  0  0  0  0  0  0
    1.0400   19.7530   41.5480 N   0  0  0  0  0  0  0  0  0  0  0  0
   -0.6900   14.7520   43.8090 O   0  0  0  0  0  0  0  0  0  0  0  0
    3.1690   19.5590   39.0280 O   0  0  0  0  0  0  0  0  0  0  0  0
    0.0900   19.4190   42.5130 C   0  0  0  0  0  0  0  0  0  0  0  0
   -0.8510   16.4480   45.5480 N   0  0  0  0  0  0  0  0  0  0  0  0
   -1.2360   13.4640   43.4730 C   0  0  0  0  0  0  0  0  0  0  0  0
    3.0430   20.5640   36.7190 C   0  0  0  0  0  0  0  0  0  0  0  0
    3.6100   17.1560   37.8140 C   0  0  0  0  0  0  0  0  0  0  0  0
    2.6340   20.6040   38.2290 C   0  0  1  0  0  0  0  0  0  0  0  0
   -0.7670   15.1440   45.1470 C   0  0  0  0  0  0  0  0  0  0  0  0
    1.3310   20.8530   38.8950 C   0  0  0  0  0  0  0  0  0  0  0  0
   -0.7590   16.7050   46.9780 C   0  0  0  0  0  0  0  0  0  0  0  0
    2.6100   21.5430   36.0000 N   0  0  0  0  0  0  0  0  0  0  0  0
    1.6470   17.7170   41.8650 C   0  0  0  0  0  0  0  0  0  0  0  0
    2.7270   15.9740   39.6730 C   0  0  0  0  0  0  0  0  0  0  0  0
   -0.8210   14.2510   45.9790 O   0  0  0  0  0  0  0  0  0  0  0  0
    3.5210   14.8080   37.8120 C   0  0  0  0  0  0  0  0  0  0  0  0
   -0.6530   17.5270   44.7140 C   0  0  0  0  0  0  0  0  0  0  0  0
   -0.8900   18.7180   45.0670 O   0  0  0  0  0  0  0  0  0  0  0  0
    0.0536   21.3239   41.4145 H   0  0  0  0  0  0  0  0  0  0  0  0
    1.4294   18.6808   39.1680 H   0  0  0  0  0  0  0  0  0  0  0  0
    2.9207   13.9085   39.7383 H   0  0  0  0  0  0  0  0  0  0  0  0
    2.7424   19.0143   41.3601 H   0  0  0  0  0  0  0  0  0  0  0  0
    4.3529   16.0213   36.2002 H   0  0  0  0  0  0  0  0  0  0  0  0
    1.2474   18.4922   43.6840 H   0  0  0  0  0  0  0  0  0  0  0  0
    3.3467   12.8292   37.5094 H   0  0  0  0  0  0  0  0  0  0  0  0
    1.2514   22.6446   40.0318 H   0  0  0  0  0  0  0  0  0  0  0  0
    2.7321   21.6014   40.2767 H   0  0  0  0  0  0  0  0  0  0  0  0
    0.0580   16.3641   43.3483 H   0  0  0  0  0  0  0  0  0  0  0  0
   -1.4697   12.9128   44.3958 H   0  0  0  0  0  0  0  0  0  0  0  0
   -2.1548   13.5978   42.8832 H   0  0  0  0  0  0  0  0  0  0  0  0
   -0.5010   12.8967   42.8832 H   0  0  0  0  0  0  0  0  0  0  0  0
    3.9287   18.0994   37.3466 H   0  0  0  0  0  0  0  0  0  0  0  0
    3.0448   21.6213   38.1495 H   0  0  0  0  0  0  0  0  0  0  0  0
    0.6736   21.4419   38.2384 H   0  0  0  0  0  0  0  0  0  0  0  0
    0.8105   19.9108   39.1218 H   0  0  0  0  0  0  0  0  0  0  0  0
   -1.0792   15.8106   47.5326 H   0  0  0  0  0  0  0  0  0  0  0  0
    0.2814   16.9466   47.2409 H   0  0  0  0  0  0  0  0  0  0  0  0
   -1.4098   17.5520   47.2409 H   0  0  0  0  0  0  0  0  0  0  0  0
    1.9729   22.2407   36.4101 H   0  0  0  0  0  0  0  0  0  0  0  0
    2.9012   21.6272   35.0156 H   0  0  0  0  0  0  0  0  0  0  0  0
    1.3047   16.7747   41.4123 H   0  0  0  0  0  0  0  0  0  0  0  0
    2.5979   17.5324   42.3863 H   0  0  0  0  0  0  0  0  0  0  0  0
    2.2650   15.9756   40.6713 H   0  0  0  0  0  0  0  0  0  0  0  0
  1 13  1  0
  2 27  1  0
  3  2  1  0
  3  5  1  0
  4 27  2  0
  5 13  1  0
  5 26  1  0
  6 29  2  0
  6 20  1  0
  7 11  1  0
  8 29  1  0
  9  1  1  0
 10 19  2  0
 11 30  1  0
 13 16  1  0
 14 22  1  0
 15  3  1  0
 16 12  2  0
 16  7  1  0
 17 24  1  0
 18 14  1  0
 20  2  2  0
 21 19  1  0
 21 23  1  0
 21 15  1  0
 22 17  1  0
 22 28  2  0
 23  9  1  0
 25 19  1  0
 26  7  1  0
 29  4  1  0
 30 31  2  0
 30 17  1  0
  1 32  1  0
  3 33  1  6
  4 34  1  0
  5 35  1  1
  6 36  1  0
  7 37  1  1
  8 38  1  0
  9 39  1  0
  9 40  1  0
 11 41  1  0
 18 42  1  0
 18 43  1  0
 18 44  1  0
 20 45  1  0
 21 46  1  1
 23 47  1  0
 23 48  1  0
 24 49  1  0
 24 50  1  0
 24 51  1  0
 25 52  1  0
 25 53  1  0
 26 54  1  0
 26 55  1  0
 27 56  1  0
M  END
>  <mol_id>  (10) 
2026-08-24-6tgu-s0-n100-seed1-0011

>  <rmsd_to_ref>  (10) 


$$$$

     RDKit          3D

 26 27  0  0  0  0  0  0  0  0999 V2000
   -0.6569   19.1652   42.8050 C   0  0  0  0  0  0  0  0  0  0  0  0
    1.1777   20.9473   40.1357 S   0  0  0  0  0  0  0  0  0  0  0  0
    1.9450   14.9321   41.9282 O   0  0  0  0  0  0  0  0  0  0  0  0
    0.1555   14.2656   43.2228 N   0  0  0  0  0  0  0  0  0  0  0  0
    0.6937   17.5738   41.4436 C   0  0  0  0  0  0  0  0  0  0  0  0
   -0.5562   16.9881   43.4199 C   0  0  0  0  0  0  0  0  0  0  0  0
    2.9040   20.2660   38.8328 N   0  0  0  0  0  0  0  0  0  0  0  0
    2.1566   20.0936   39.8309 C   0  0  2  0  0  0  0  0  0  0  0  0
   -1.0629   18.2179   43.6655 N   0  0  0  0  0  0  0  0  0  0  0  0
    0.9703   15.1710   42.4206 C   0  0  0  0  0  0  0  0  0  0  0  0
    2.7942   20.6669   37.6154 C   0  0  0  0  0  0  0  0  0  0  0  0
    3.5343   19.7996   36.9035 O   0  0  0  0  0  0  0  0  0  0  0  0
    2.2086   21.6073   37.2437 O   0  0  0  0  0  0  0  0  0  0  0  0
    0.3614   16.5506   42.4296 C   0  0  0  0  0  0  0  0  0  0  0  0
    0.1216   18.9171   41.6357 C   0  0  0  0  0  0  0  0  0  0  0  0
    2.7921   19.0670   39.8955 N   0  0  0  0  0  0  0  0  0  0  0  0
    0.5148   20.0203   41.1052 C   0  0  0  0  0  0  0  0  0  0  0  0
   -0.9448   20.2056   43.0165 H   0  0  0  0  0  0  0  0  0  0  0  0
   -0.7308   14.5951   43.6309 H   0  0  0  0  0  0  0  0  0  0  0  0
    0.4665   13.2965   43.3811 H   0  0  0  0  0  0  0  0  0  0  0  0
    1.3477   17.3499   40.5880 H   0  0  0  0  0  0  0  0  0  0  0  0
   -0.9133   16.1989   44.0979 H   0  0  0  0  0  0  0  0  0  0  0  0
    2.8549   20.6719   40.4537 H   0  0  0  0  0  0  0  0  0  0  0  0
    2.3754   18.1602   39.6405 H   0  0  0  0  0  0  0  0  0  0  0  0
    1.0313   20.4001   41.9990 H   0  0  0  0  0  0  0  0  0  0  0  0
   -0.2759   19.8813   40.3532 H   0  0  0  0  0  0  0  0  0  0  0  0
  1  9  1  0
  2 17  1  0
  3 10  2  0
  5 14  2  0
  7  8  1  0
  7 16  1  0
  8  2  1  0
  8 16  1  0
  9  6  2  0
 10  4  1  0
 11  7  1  0
 12 11  1  0
 13 11  2  0
 14 10  1  0
 14  6  1  0
 15  5  1  0
 15  1  2  0
 17 15  1  0
  1 18  1  0
  4 19  1  0
  4 20  1  0
  5 21  1  0
  6 22  1  0
  8 23  1  1
 16 24  1  0
 17 25  1  0
 17 26  1  0
M  CHG  1  12  -1
M  END
>  <mol_id>  (11) 
2026-08-24-6tgu-s0-n100-seed1-0012

>  <rmsd_to_ref>  (11) 


$$$$

     RDKit          3D

 54 59  0  0  0  0  0  0  0  0999 V2000
    2.1440   15.5505   41.1384 C   0  0  0  0  0  0  0  0  0  0  0  0
    3.8972   22.8317   34.1029 C   0  0  0  0  0  0  0  0  0  0  0  0
    3.0675   20.9412   37.9871 C   0  0  0  0  0  0  0  0  0  0  0  0
   -1.4704   20.2412   42.9212 N   0  0  0  0  0  0  0  0  0  0  0  0
    0.5794   15.0148   42.7959 C   0  0  0  0  0  0  0  0  0  0  0  0
   -1.8067   18.4408   44.2693 N   0  0  0  0  0  0  0  0  0  0  0  0
    4.1860   16.9995   38.3497 C   0  0  0  0  0  0  0  0  0  0  0  0
    0.6731   17.2960   41.8797 C   0  0  0  0  0  0  0  0  0  0  0  0
    3.8753   20.3212   36.9543 C   0  0  0  0  0  0  0  0  0  0  0  0
    1.0797   13.7850   42.9288 N   0  0  0  0  0  0  0  0  0  0  0  0
    0.5682   19.3392   40.8125 C   0  0  0  0  0  0  0  0  0  0  0  0
   -0.6622   20.9231   41.8902 C   0  0  0  0  0  0  0  0  0  0  0  0
    3.2757   21.9186   35.2666 C   0  0  0  0  0  0  0  0  0  0  0  0
    0.4415   21.0250   40.1580 C   0  0  0  0  0  0  0  0  0  0  0  0
    3.7268   18.3053   38.2183 C   0  0  0  0  0  0  0  0  0  0  0  0
    1.1240   15.9607   41.9479 C   0  0  0  0  0  0  0  0  0  0  0  0
    2.6531   16.4552   40.1417 C   0  0  0  0  0  0  0  0  0  0  0  0
    4.2077   19.0379   37.1111 C   0  0  0  0  0  0  0  0  0  0  0  0
   -0.7361   15.3572   43.7835 C   0  0  0  0  0  0  0  0  0  0  0  0
   -0.2427   18.1192   42.6363 C   0  0  0  0  0  0  0  0  0  0  0  0
    2.7361   18.6511   39.0965 C   0  0  0  0  0  0  0  0  0  0  0  0
    1.1937   18.1021   40.9265 C   0  0  0  0  0  0  0  0  0  0  0  0
    3.6995   16.0833   39.3071 C   0  0  0  0  0  0  0  0  0  0  0  0
    2.3572   20.2935   38.9558 C   0  0  0  0  0  0  0  0  0  0  0  0
    0.0629   20.3441   41.0110 C   0  0  0  0  0  0  0  0  0  0  0  0
    2.0951   13.3898   42.1528 C   0  0  0  0  0  0  0  0  0  0  0  0
    1.4124   21.4193   39.2602 O   0  0  0  0  0  0  0  0  0  0  0  0
    2.6509   14.2973   41.2230 C   0  0  0  0  0  0  0  0  0  0  0  0
    2.1899   17.7460   40.0719 C   0  0  0  0  0  0  0  0  0  0  0  0
   -1.2228   19.0019   43.1691 C   0  0  0  0  0  0  0  0  0  0  0  0
    4.2022   21.0926   35.8060 N   0  0  0  0  0  0  0  0  0  0  0  0
    2.1045   22.0258   35.5300 O   0  0  0  0  0  0  0  0  0  0  0  0
    4.2264   23.7919   34.5266 H   0  0  0  0  0  0  0  0  0  0  0  0
    4.7576   22.3156   33.6519 H   0  0  0  0  0  0  0  0  0  0  0  0
    3.1336   23.0135   33.3322 H   0  0  0  0  0  0  0  0  0  0  0  0
    3.0232   22.0402   37.9899 H   0  0  0  0  0  0  0  0  0  0  0  0
   -2.4555   20.3026   42.6266 H   0  0  0  0  0  0  0  0  0  0  0  0
   -1.2307   20.7288   43.7962 H   0  0  0  0  0  0  0  0  0  0  0  0
   -1.6002   19.0159   45.0984 H   0  0  0  0  0  0  0  0  0  0  0  0
   -2.8262   18.3927   44.1300 H   0  0  0  0  0  0  0  0  0  0  0  0
   -1.4341   17.4907   44.4089 H   0  0  0  0  0  0  0  0  0  0  0  0
    4.9771   16.6594   37.6654 H   0  0  0  0  0  0  0  0  0  0  0  0
   -1.3756   21.5363   41.3203 H   0  0  0  0  0  0  0  0  0  0  0  0
    0.1206   21.3677   42.5224 H   0  0  0  0  0  0  0  0  0  0  0  0
   -0.3699   20.8398   39.4389 H   0  0  0  0  0  0  0  0  0  0  0  0
    0.9262   21.6574   40.9164 H   0  0  0  0  0  0  0  0  0  0  0  0
    4.8601   18.5481   36.3733 H   0  0  0  0  0  0  0  0  0  0  0  0
   -0.4461   15.2318   44.8372 H   0  0  0  0  0  0  0  0  0  0  0  0
   -1.0620   16.3940   43.6138 H   0  0  0  0  0  0  0  0  0  0  0  0
   -1.5615   14.6698   43.5462 H   0  0  0  0  0  0  0  0  0  0  0  0
    4.1459   15.0815   39.3917 H   0  0  0  0  0  0  0  0  0  0  0  0
    2.4937   12.3680   42.2376 H   0  0  0  0  0  0  0  0  0  0  0  0
    3.4853   13.9897   40.5756 H   0  0  0  0  0  0  0  0  0  0  0  0
    5.1403   21.0232   35.3863 H   0  0  0  0  0  0  0  0  0  0  0  0
  1 16  1  0
  2 13  1  0
  3 24  2  0
  4 30  1  0
  5 10  1  0
  5 19  1  0
  7 23  1  0
  8 20  2  0
  9 18  2  0
  9  3  1  0
 11 25  2  0
 12  4  1  0
 13 31  1  0
 13 32  2  0
 14 25  1  0
 15  7  2  0
 15 21  1  0
 16  8  1  0
 16  5  2  0
 17 29  1  0
 17  1  1  0
 18 15  1  0
 20 30  2  0
 21 29  2  0
 22 11  2  0
 22  8  1  0
 23 17  2  0
 24 21  1  0
 24 27  1  0
 25 12  1  0
 26 10  2  0
 27 14  1  0
 28  1  2  0
 28 26  1  0
 29 22  1  0
 30  6  1  0
 31  9  1  0
  2 33  1  0
  2 34  1  0
  2 35  1  0
  3 36  1  0
  4 37  1  0
  4 38  1  0
  6 39  1  0
  6 40  1  0
  6 41  1  0
  7 42  1  0
 12 43  1  0
 12 44  1  0
 14 45  1  0
 14 46  1  0
 18 47  1  0
 19 48  1  0
 19 49  1  0
 19 50  1  0
 23 51  1  0
 26 52  1  0
 28 53  1  0
 31 54  1  0
M  CHG  2   4   1   6   1
M  END
>  <mol_id>  (12) 
2026-08-24-6tgu-s0-n100-seed1-0013

>  <rmsd_to_ref>  (12) 


$$$$

     RDKit          3D

 38 40  0  0  0  0  0  0  0  0999 V2000
    0.1100   21.7130   41.0144 F   0  0  0  0  0  0  0  0  0  0  0  0
    1.6438   17.3603   40.6832 C   0  0  0  0  0  0  0  0  0  0  0  0
   -1.0328   19.0086   42.4105 O   0  0  0  0  0  0  0  0  0  0  0  0
   -0.0079   18.6465   41.7171 C   0  0  0  0  0  0  0  0  0  0  0  0
    1.3989   21.1650   39.1976 C   0  0  0  0  0  0  0  0  0  0  0  0
    0.7162   20.7748   40.3285 C   0  0  0  0  0  0  0  0  0  0  0  0
    3.5952   19.7643   36.6751 O   0  0  0  0  0  0  0  0  0  0  0  0
    2.3078   18.9370   38.9453 C   0  0  0  0  0  0  0  0  0  0  0  0
    2.1632   20.2660   38.4576 C   0  0  0  0  0  0  0  0  0  0  0  0
    3.4670   14.0920   40.9337 C   0  0  0  0  0  0  0  0  0  0  0  0
    2.8326   20.6285   37.1613 C   0  0  0  0  0  0  0  0  0  0  0  0
    2.4896   16.3413   40.4960 C   0  0  0  0  0  0  0  0  0  0  0  0
    2.4486   15.1174   41.2715 C   0  0  0  0  0  0  0  0  0  0  0  0
    2.6211   21.6987   36.7166 O   0  0  0  0  0  0  0  0  0  0  0  0
    1.4680   15.0526   42.3339 C   0  0  0  0  0  0  0  0  0  0  0  0
   -0.9289   16.8335   44.3053 N   0  0  0  0  0  0  0  0  0  0  0  0
    0.7282   19.4866   40.7937 C   0  0  0  0  0  0  0  0  0  0  0  0
   -0.5085   15.7023   43.5182 C   0  0  0  0  0  0  0  0  0  0  0  0
    0.5832   16.0668   42.5499 C   0  0  0  0  0  0  0  0  0  0  0  0
    0.6407   17.3107   41.8120 C   0  0  0  0  0  0  0  0  0  0  0  0
   -0.5751   16.4616   45.6543 C   0  0  0  0  0  0  0  0  0  0  0  0
    1.6170   18.6029   40.0710 C   0  0  0  0  0  0  0  0  0  0  0  0
   -1.4132   19.9154   42.2953 H   0  0  0  0  0  0  0  0  0  0  0  0
    1.3388   22.2136   38.8705 H   0  0  0  0  0  0  0  0  0  0  0  0
    2.9524   18.2075   38.4331 H   0  0  0  0  0  0  0  0  0  0  0  0
    3.8032   13.5921   41.8541 H   0  0  0  0  0  0  0  0  0  0  0  0
    3.0271   13.3487   40.2525 H   0  0  0  0  0  0  0  0  0  0  0  0
    4.3255   14.5751   40.4443 H   0  0  0  0  0  0  0  0  0  0  0  0
    2.3666   16.0368   39.4462 H   0  0  0  0  0  0  0  0  0  0  0  0
    3.4374   16.7820   40.8387 H   0  0  0  0  0  0  0  0  0  0  0  0
    1.4359   14.1644   42.9821 H   0  0  0  0  0  0  0  0  0  0  0  0
   -1.9444   16.9834   44.2199 H   0  0  0  0  0  0  0  0  0  0  0  0
   -0.4881   17.7147   44.0052 H   0  0  0  0  0  0  0  0  0  0  0  0
   -0.1371   14.9176   44.1936 H   0  0  0  0  0  0  0  0  0  0  0  0
   -1.3744   15.3498   42.9385 H   0  0  0  0  0  0  0  0  0  0  0  0
   -1.3993   16.7220   46.3345 H   0  0  0  0  0  0  0  0  0  0  0  0
   -0.3907   15.3781   45.6995 H   0  0  0  0  0  0  0  0  0  0  0  0
    0.3345   17.0014   45.9567 H   0  0  0  0  0  0  0  0  0  0  0  0
  2 20  1  0
  4 20  1  0
  4  3  1  0
  5  6  2  0
  6  1  1  0
  6 17  1  0
  7 11  1  0
  8 22  1  0
  9  5  1  0
  9  8  2  0
 10 13  1  0
 11  9  1  0
 12  2  1  0
 12 13  1  0
 13 15  2  0
 14 11  2  0
 15 19  1  0
 16 21  1  0
 17  4  2  0
 18 16  1  0
 19 18  1  0
 20 19  2  0
 22 17  1  0
 22  2  2  0
  3 23  1  0
  5 24  1  0
  8 25  1  0
 10 26  1  0
 10 27  1  0
 10 28  1  0
 12 29  1  0
 12 30  1  0
 15 31  1  0
 16 32  1  0
 16 33  1  0
 18 34  1  0
 18 35  1  0
 21 36  1  0
 21 37  1  0
 21 38  1  0
M  CHG  2   7  -1  16   1
M  END
>  <mol_id>  (13) 
2026-08-24-6tgu-s0-n100-seed1-0014

>  <rmsd_to_ref>  (13) 


$$$$

     RDKit          3D

 41 43  0  0  0  0  0  0  0  0999 V2000
    2.3939   15.0835   40.5446 C   0  0  0  0  0  0  0  0  0  0  0  0
    1.7951   20.4626   38.7906 N   0  0  0  0  0  0  0  0  0  0  0  0
    0.6105   17.3923   41.5421 C   0  0  0  0  0  0  0  0  0  0  0  0
    4.1680   21.0571   35.4774 O   0  0  0  0  0  0  0  0  0  0  0  0
   -1.1700   18.1434   45.6424 C   0  0  0  0  0  0  0  0  0  0  0  0
   -1.4764   17.2233   44.5814 O   0  0  0  0  0  0  0  0  0  0  0  0
    1.5887   18.6433   40.0495 C   0  0  0  0  0  0  0  0  0  0  0  0
   -1.5707   20.4990   43.5808 F   0  0  0  0  0  0  0  0  0  0  0  0
    2.2625   16.2863   39.9028 C   0  0  0  0  0  0  0  0  0  0  0  0
    0.0085   18.6806   41.6637 C   0  0  0  0  0  0  0  0  0  0  0  0
    3.4687   15.2240   38.0614 C   0  0  0  0  0  0  0  0  0  0  0  0
    1.5222   17.3047   40.4798 N   0  0  0  0  0  0  0  0  0  0  0  0
    3.6273   14.0462   38.7798 C   0  0  0  0  0  0  0  0  0  0  0  0
   -3.1154   18.6629   43.6423 F   0  0  0  0  0  0  0  0  0  0  0  0
    0.0369   16.5719   42.6602 C   0  0  0  0  0  0  0  0  0  0  0  0
    3.1593   19.7260   37.0397 C   0  0  0  0  0  0  0  0  0  0  0  0
   -2.7325   20.0097   42.0967 F   0  0  0  0  0  0  0  0  0  0  0  0
   -0.9655   17.4822   43.3696 C   0  0  0  0  0  0  0  0  0  0  0  0
    1.9553   21.4899   35.9416 O   0  0  0  0  0  0  0  0  0  0  0  0
   -1.0500   18.7263   42.6861 C   0  0  0  0  0  0  0  0  0  0  0  0
    4.0070   18.8004   36.8791 O   0  0  0  0  0  0  0  0  0  0  0  0
    3.1092   13.9725   40.0403 C   0  0  0  0  0  0  0  0  0  0  0  0
    2.3906   19.8547   38.1026 C   0  0  0  0  0  0  0  0  0  0  0  0
   -2.1428   19.4966   43.1160 C   0  0  0  0  0  0  0  0  0  0  0  0
    0.5932   19.3677   40.8358 N   0  0  0  0  0  0  0  0  0  0  0  0
    2.2230   19.0842   39.2080 C   0  0  0  0  0  0  0  0  0  0  0  0
    2.8276   16.3058   38.6404 C   0  0  0  0  0  0  0  0  0  0  0  0
    4.4121   12.7756   38.1950 Cl  0  0  0  0  0  0  0  0  0  0  0  0
    2.9874   20.8623   36.0998 C   0  0  0  0  0  0  0  0  0  0  0  0
    1.9071   14.9735   41.5248 H   0  0  0  0  0  0  0  0  0  0  0  0
    1.3186   20.0194   39.5890 H   0  0  0  0  0  0  0  0  0  0  0  0
   -1.4660   17.7034   46.6061 H   0  0  0  0  0  0  0  0  0  0  0  0
   -0.0893   18.3483   45.6493 H   0  0  0  0  0  0  0  0  0  0  0  0
   -1.7203   19.0825   45.4836 H   0  0  0  0  0  0  0  0  0  0  0  0
    3.8522   15.2974   37.0330 H   0  0  0  0  0  0  0  0  0  0  0  0
   -0.4699   15.6809   42.2610 H   0  0  0  0  0  0  0  0  0  0  0  0
    0.8200   16.2176   43.3467 H   0  0  0  0  0  0  0  0  0  0  0  0
    3.2451   13.0679   40.6511 H   0  0  0  0  0  0  0  0  0  0  0  0
    2.5985   18.1383   38.7907 H   0  0  0  0  0  0  0  0  0  0  0  0
    2.3438   19.9913   39.8185 H   0  0  0  0  0  0  0  0  0  0  0  0
    2.7636   17.2384   38.0606 H   0  0  0  0  0  0  0  0  0  0  0  0
  3 10  2  0
  3 15  1  0
  4 29  2  0
  6  5  1  0
  7 12  1  0
  7 25  2  0
  9  1  2  0
  9 12  1  0
 10 20  1  0
 11 13  1  0
 11 27  2  0
 12  3  1  0
 13 22  2  0
 15 18  1  0
 16 23  1  0
 17 24  1  0
 18  6  1  0
 19 29  1  0
 20 24  1  0
 20 18  2  0
 21 16  2  0
 22  1  1  0
 23  2  2  3
 23 26  1  0
 24  8  1  0
 24 14  1  0
 25 10  1  0
 26  7  1  0
 27  9  1  0
 28 13  1  0
 29 16  1  0
  1 30  1  0
  2 31  1  0
  5 32  1  0
  5 33  1  0
  5 34  1  0
 11 35  1  0
 15 36  1  0
 15 37  1  0
 22 38  1  0
 26 39  1  0
 26 40  1  0
 27 41  1  0
M  CHG  1  19  -1
M  END
>  <mol_id>  (14) 
2026-08-24-6tgu-s0-n100-seed1-0015

>  <rmsd_to_ref>  (14) 


$$$$

     RDKit          3D

 39 40  0  0  0  0  0  0  0  0999 V2000
    3.1856   18.5980   38.5856 O   0  0  0  0  0  0  0  0  0  0  0  0
    2.1656   19.3298   36.4748 O   0  0  0  0  0  0  0  0  0  0  0  0
   -0.3787   19.8279   41.3220 C   0  0  0  0  0  0  0  0  0  0  0  0
    3.4257   15.9129   38.5688 O   0  0  0  0  0  0  0  0  0  0  0  0
    0.3270   17.7239   42.9307 C   0  0  0  0  0  0  0  0  0  0  0  0
    0.8972   19.6259   40.9623 O   0  0  0  0  0  0  0  0  0  0  0  0
    1.2584   17.5171   41.6811 C   0  0  0  0  0  0  0  0  0  0  0  0
    1.7177   18.4785   40.5535 C   0  0  0  0  0  0  0  0  0  0  0  0
    0.1433   15.6800   44.4728 C   0  0  0  0  0  0  0  0  0  0  0  0
    0.4873   16.5510   43.6093 C   0  0  0  0  0  0  0  0  0  0  0  0
    2.5443   17.8406   39.6023 C   0  0  0  0  0  0  0  0  0  0  0  0
    3.2111   20.1627   40.4133 F   0  0  0  0  0  0  0  0  0  0  0  0
   -0.8133   17.6021   45.9198 C   0  0  0  0  0  0  0  0  0  0  0  0
   -0.8877   18.4682   44.9526 C   0  0  0  0  0  0  0  0  0  0  0  0
    3.6387   17.6627   36.5305 O   0  0  0  0  0  0  0  0  0  0  0  0
   -0.4654   18.8110   43.6948 C   0  0  2  0  0  0  0  0  0  0  0  0
   -0.4122   20.8142   42.4120 C   0  0  0  0  0  0  0  0  0  0  0  0
   -0.7937   20.1590   43.5332 O   0  0  0  0  0  0  0  0  0  0  0  0
    3.0062   18.5764   37.1441 C   0  0  0  0  0  0  0  0  0  0  0  0
    2.3172   15.6926   40.6638 C   0  0  0  0  0  0  0  0  0  0  0  0
   -0.6181   16.0575   45.6733 C   0  0  0  0  0  0  0  0  0  0  0  0
    2.7098   14.2134   40.7793 C   0  0  0  0  0  0  0  0  0  0  0  0
    2.7825   16.4856   39.5984 C   0  0  0  0  0  0  0  0  0  0  0  0
    1.6463   16.2508   41.7000 N   0  0  0  0  0  0  0  0  0  0  0  0
   -0.8202   18.8811   41.6662 H   0  0  0  0  0  0  0  0  0  0  0  0
   -0.9553   20.2004   40.4625 H   0  0  0  0  0  0  0  0  0  0  0  0
    3.5943   14.9373   38.5715 H   0  0  0  0  0  0  0  0  0  0  0  0
    0.4205   14.6268   44.3179 H   0  0  0  0  0  0  0  0  0  0  0  0
    1.4096   16.1328   43.1798 H   0  0  0  0  0  0  0  0  0  0  0  0
    3.2042   20.4541   41.3080 H   0  0  0  0  0  0  0  0  0  0  0  0
   -0.8898   17.9634   46.9560 H   0  0  0  0  0  0  0  0  0  0  0  0
   -1.5803   19.2564   45.2826 H   0  0  0  0  0  0  0  0  0  0  0  0
    0.4491   19.0985   44.2342 H   0  0  0  0  0  0  0  0  0  0  0  0
    0.5862   21.2535   42.5536 H   0  0  0  0  0  0  0  0  0  0  0  0
   -1.1125   21.6299   42.1791 H   0  0  0  0  0  0  0  0  0  0  0  0
   -1.0287   15.3035   46.3611 H   0  0  0  0  0  0  0  0  0  0  0  0
    2.8580   13.9550   41.8382 H   0  0  0  0  0  0  0  0  0  0  0  0
    1.9095   13.5875   40.3577 H   0  0  0  0  0  0  0  0  0  0  0  0
    3.6433   14.0374   40.2247 H   0  0  0  0  0  0  0  0  0  0  0  0
  1 11  1  0
  2 19  1  0
  3 17  1  0
  4 23  1  0
  5 10  2  0
  5 16  1  0
  6  3  1  0
  7  5  1  0
  8  6  1  0
  8  7  1  0
  9 21  2  0
 10  9  1  0
 11  8  2  0
 14 13  2  0
 15 19  2  0
 16 18  1  0
 16 14  1  0
 17 18  1  0
 19  1  1  0
 20 24  1  0
 21 13  1  0
 22 20  1  0
 23 11  1  0
 23 20  2  0
 24  7  2  0
  3 25  1  0
  3 26  1  0
  4 27  1  0
  9 28  1  0
 10 29  1  0
 12 30  1  0
 13 31  1  0
 14 32  1  0
 16 33  1  6
 17 34  1  0
 17 35  1  0
 21 36  1  0
 22 37  1  0
 22 38  1  0
 22 39  1  0
M  CHG  1   2  -1
M  END
>  <mol_id>  (15) 
2026-08-24-6tgu-s0-n100-seed1-0016

>  <rmsd_to_ref>  (15) 


$$$$

     RDKit          3D

 48 52  0  0  0  0  0  0  0  0999 V2000
    5.0683   13.6740   39.1783 N   0  0  0  0  0  0  0  0  0  0  0  0
   -0.0779   21.0703   41.7983 C   0  0  0  0  0  0  0  0  0  0  0  0
    4.4105   21.1849   35.6748 C   0  0  0  0  0  0  0  0  0  0  0  0
   -1.6221   17.5082   45.5271 C   0  0  0  0  0  0  0  0  0  0  0  0
    4.8026   14.6302   37.1373 C   0  0  0  0  0  0  0  0  0  0  0  0
   -1.6483   20.4880   43.5677 C   0  0  0  0  0  0  0  0  0  0  0  0
    3.0379   16.0759   38.6738 C   0  0  0  0  0  0  0  0  0  0  0  0
    2.2173   20.2501   38.3489 C   0  0  0  0  0  0  0  0  0  0  0  0
    1.7527   18.0884   40.3125 C   0  0  0  0  0  0  0  0  0  0  0  0
    2.5624   19.0403   38.0791 C   0  0  0  0  0  0  0  0  0  0  0  0
    1.3314   19.4360   40.5171 C   0  0  0  0  0  0  0  0  0  0  0  0
    3.5318   20.5775   36.6997 C   0  0  1  0  0  0  0  0  0  0  0  0
    0.3902   22.1190   41.0221 C   0  0  0  0  0  0  0  0  0  0  0  0
   -1.3460   18.2799   44.7105 C   0  0  0  0  0  0  0  0  0  0  0  0
    1.6371   20.5638   39.6233 C   0  0  0  0  0  0  0  0  0  0  0  0
    5.8695   13.8710   37.0332 N   0  0  0  0  0  0  0  0  0  0  0  0
   -1.0201   19.1060   43.6424 C   0  0  0  0  0  0  0  0  0  0  0  0
    0.3168   19.7034   41.5774 C   0  0  0  0  0  0  0  0  0  0  0  0
    3.4215   19.2093   37.0057 O   0  0  0  0  0  0  0  0  0  0  0  0
   -1.1267   21.3979   42.5933 N   0  0  0  0  0  0  0  0  0  0  0  0
    2.4760   17.7755   38.9248 C   0  0  0  0  0  0  0  0  0  0  0  0
    4.2591   14.5553   38.3653 N   0  0  0  0  0  0  0  0  0  0  0  0
    4.2904   15.4958   36.1313 N   0  0  0  0  0  0  0  0  0  0  0  0
    1.2815   21.8194   39.9782 C   0  0  0  0  0  0  0  0  0  0  0  0
    5.9502   13.2870   38.3805 N   0  0  0  0  0  0  0  0  0  0  0  0
    1.3810   17.0389   41.1006 C   0  0  0  0  0  0  0  0  0  0  0  0
   -0.0181   18.6754   42.6401 C   0  0  0  0  0  0  0  0  0  0  0  0
    2.5163   15.2866   39.7643 C   0  0  0  0  0  0  0  0  0  0  0  0
    1.7482   15.6274   40.8694 C   0  0  0  0  0  0  0  0  0  0  0  0
    2.6088   21.2713   37.4329 C   0  0  0  0  0  0  0  0  0  0  0  0
    5.1987   21.7720   36.1689 H   0  0  0  0  0  0  0  0  0  0  0  0
    4.8705   20.3905   35.0687 H   0  0  0  0  0  0  0  0  0  0  0  0
    3.8154   21.8437   35.0253 H   0  0  0  0  0  0  0  0  0  0  0  0
   -1.8846   16.7744   46.3035 H   0  0  0  0  0  0  0  0  0  0  0  0
   -2.4721   20.7779   44.2366 H   0  0  0  0  0  0  0  0  0  0  0  0
    3.6613   15.7108   37.8443 H   0  0  0  0  0  0  0  0  0  0  0  0
    2.7311   20.4749   35.9524 H   0  0  0  0  0  0  0  0  0  0  0  0
    0.0735   23.1541   41.2175 H   0  0  0  0  0  0  0  0  0  0  0  0
    3.4076   15.0446   38.6756 H   0  0  0  0  0  0  0  0  0  0  0  0
    4.7341   15.5251   35.2023 H   0  0  0  0  0  0  0  0  0  0  0  0
    3.4758   16.0933   36.3320 H   0  0  0  0  0  0  0  0  0  0  0  0
    1.7170   22.6579   39.4149 H   0  0  0  0  0  0  0  0  0  0  0  0
    0.7575   17.2620   41.9790 H   0  0  0  0  0  0  0  0  0  0  0  0
    0.4499   17.6802   42.6650 H   0  0  0  0  0  0  0  0  0  0  0  0
    2.7751   14.2189   39.7095 H   0  0  0  0  0  0  0  0  0  0  0  0
    1.4142   14.8485   41.5706 H   0  0  0  0  0  0  0  0  0  0  0  0
    3.0580   22.1335   37.9475 H   0  0  0  0  0  0  0  0  0  0  0  0
    1.7886   21.7169   36.8509 H   0  0  0  0  0  0  0  0  0  0  0  0
  2 20  1  0
  5 22  1  0
  6 17  1  0
  7 21  2  0
  7 28  1  0
  8 15  1  0
  9 11  1  0
  9 26  2  0
 10  8  2  0
 10 21  1  0
 11 18  2  0
 12  3  1  0
 12 19  1  0
 12 30  1  0
 13  2  2  0
 14  4  3  0
 15 24  2  0
 15 11  1  0
 16  5  2  0
 16 25  1  0
 17 14  1  0
 18  2  1  0
 18 27  1  0
 19 10  1  0
 20  6  2  0
 21  9  1  0
 22  1  1  0
 23  5  1  0
 24 13  1  0
 25  1  2  0
 27 17  2  0
 28 29  2  0
 29 26  1  0
 30  8  1  0
  3 31  1  0
  3 32  1  0
  3 33  1  0
  4 34  1  0
  6 35  1  0
  7 36  1  0
 12 37  1  1
 13 38  1  0
 22 39  1  0
 23 40  1  0
 23 41  1  0
 24 42  1  0
 26 43  1  0
 27 44  1  0
 28 45  1  0
 29 46  1  0
 30 47  1  0
 30 48  1  0
M  END
>  <mol_id>  (16) 
2026-08-24-6tgu-s0-n100-seed1-0017

>  <rmsd_to_ref>  (16) 


$$$$

     RDKit          3D

 30 32  0  0  0  0  0  0  0  0999 V2000
    4.7424   16.3052   36.8866 C   0  0  0  0  0  0  0  0  0  0  0  0
   -0.5548   20.3943   44.1115 N   0  0  0  0  0  0  0  0  0  0  0  0
    2.4787   18.7006   38.8073 C   0  0  0  0  0  0  0  0  0  0  0  0
   -0.0577   19.1862   43.7912 C   0  0  0  0  0  0  0  0  0  0  0  0
    2.0055   17.6571   40.9973 C   0  0  0  0  0  0  0  0  0  0  0  0
    1.9619   18.7630   40.1202 C   0  0  0  0  0  0  0  0  0  0  0  0
    1.9596   21.4273   37.8978 Cl  0  0  0  0  0  0  0  0  0  0  0  0
    1.4013   17.7363   42.2330 C   0  0  0  0  0  0  0  0  0  0  0  0
    3.2502   19.4242   36.7550 O   0  0  0  0  0  0  0  0  0  0  0  0
    4.9290   15.1539   36.2043 C   0  0  0  0  0  0  0  0  0  0  0  0
    4.5049   17.4984   36.2874 N   0  0  0  0  0  0  0  0  0  0  0  0
    0.2933   21.2831   42.0621 C   0  0  0  0  0  0  0  0  0  0  0  0
    0.7686   20.0552   41.7254 C   0  0  0  0  0  0  0  0  0  0  0  0
    3.1482   17.7319   38.2375 N   0  0  0  0  0  0  0  0  0  0  0  0
   -0.4020   18.1777   44.6668 N   0  0  0  0  0  0  0  0  0  0  0  0
    2.5750   19.8155   37.8167 C   0  0  0  0  0  0  0  0  0  0  0  0
    0.6875   18.9443   42.5929 C   0  0  0  0  0  0  0  0  0  0  0  0
    3.5794   18.1937   37.0293 C   0  0  0  0  0  0  0  0  0  0  0  0
    1.4278   19.8861   40.4337 N   0  0  0  0  0  0  0  0  0  0  0  0
   -0.3999   21.3960   43.2350 C   0  0  0  0  0  0  0  0  0  0  0  0
    4.7854   16.2729   37.9853 H   0  0  0  0  0  0  0  0  0  0  0  0
    2.5210   16.7338   40.6944 H   0  0  0  0  0  0  0  0  0  0  0  0
    1.4601   16.8933   42.9371 H   0  0  0  0  0  0  0  0  0  0  0  0
    5.1180   14.2167   36.7482 H   0  0  0  0  0  0  0  0  0  0  0  0
    4.8918   15.1539   35.1049 H   0  0  0  0  0  0  0  0  0  0  0  0
    4.9462   17.8300   35.4178 H   0  0  0  0  0  0  0  0  0  0  0  0
    0.4604   22.1556   41.4135 H   0  0  0  0  0  0  0  0  0  0  0  0
   -0.0674   17.2174   44.5034 H   0  0  0  0  0  0  0  0  0  0  0  0
   -0.9937   18.3849   45.4840 H   0  0  0  0  0  0  0  0  0  0  0  0
   -0.8578   22.3672   43.4735 H   0  0  0  0  0  0  0  0  0  0  0  0
  3  6  1  0
  4  2  1  0
  4 15  1  0
  5  8  2  0
  6 19  2  0
  6  5  1  0
  7 16  1  0
  8 17  1  0
  9 18  1  0
  9 16  1  0
 10  1  2  3
 11 18  1  0
 11  1  1  0
 12 20  1  0
 13 12  2  0
 13 17  1  0
 14  3  1  0
 16  3  2  0
 17  4  2  0
 18 14  2  0
 19 13  1  0
 20  2  2  0
  1 21  1  0
  5 22  1  0
  8 23  1  0
 10 24  1  0
 10 25  1  0
 11 26  1  0
 12 27  1  0
 15 28  1  0
 15 29  1  0
 20 30  1  0
M  END
>  <mol_id>  (17) 
2026-08-24-6tgu-s0-n100-seed1-0018

>  <rmsd_to_ref>  (17) 


$$$$

     RDKit          3D

 52 54  0  0  0  0  0  0  0  0999 V2000
    0.9023   18.7152   41.3828 C   0  0  2  0  0  0  0  0  0  0  0  0
   -0.2315   19.8319   44.5880 O   0  0  0  0  0  0  0  0  0  0  0  0
   -0.5455   17.3947   43.5192 C   0  0  2  0  0  0  0  0  0  0  0  0
   -0.9459   19.9025   43.2801 C   0  0  0  0  0  0  0  0  0  0  0  0
    2.6350   15.4097   40.0987 C   0  0  0  0  0  0  0  0  0  0  0  0
    3.0934   16.6613   38.1275 C   0  0  0  0  0  0  0  0  0  0  0  0
    0.7790   22.2326   41.3235 O   0  0  0  0  0  0  0  0  0  0  0  0
    2.2699   14.4139   42.2753 C   0  0  0  0  0  0  0  0  0  0  0  0
   -1.7470   18.5391   43.0739 C   0  0  0  0  0  0  0  0  0  0  0  0
    0.3262   16.7915   44.7769 C   0  0  0  0  0  0  0  0  0  0  0  0
    1.4121   20.1494   40.9176 C   0  0  0  0  0  0  0  0  0  0  0  0
    2.4512   16.5871   40.4671 C   0  0  1  0  0  0  0  0  0  0  0  0
    3.5968   16.6848   36.9772 O   0  0  0  0  0  0  0  0  0  0  0  0
    2.9559   15.4265   38.7587 C   0  0  0  0  0  0  0  0  0  0  0  0
    0.6151   17.8271   42.5056 C   0  0  1  0  0  0  0  0  0  0  0  0
   -0.1928   15.2530   45.0647 C   0  0  0  0  0  0  0  0  0  0  0  0
    2.8139   19.1107   38.2469 C   0  0  0  0  0  0  0  0  0  0  0  0
    0.4726   21.1377   41.5168 C   0  0  0  0  0  0  0  0  0  0  0  0
    3.1544   19.2638   36.9069 C   0  0  0  0  0  0  0  0  0  0  0  0
    1.9474   17.9320   40.3391 C   0  0  1  0  0  0  0  0  0  0  0  0
    1.0439   16.3520   42.4580 C   0  0  0  0  0  0  0  0  0  0  0  0
   -0.6721   20.6277   42.1682 N   0  0  0  0  0  0  0  0  0  0  0  0
    2.4309   15.8035   41.9244 C   0  0  1  0  0  0  0  0  0  0  0  0
    2.5691   17.9346   38.9307 C   0  0  1  0  0  0  0  0  0  0  0  0
    3.2125   19.6369   35.8804 O   0  0  0  0  0  0  0  0  0  0  0  0
   -0.1494   18.9619   41.5901 H   0  0  0  0  0  0  0  0  0  0  0  0
   -1.3040   16.6175   43.6938 H   0  0  0  0  0  0  0  0  0  0  0  0
    3.4592   14.9630   40.6741 H   0  0  0  0  0  0  0  0  0  0  0  0
    1.7271   14.8116   40.2660 H   0  0  0  0  0  0  0  0  0  0  0  0
    2.3134   14.3045   43.3690 H   0  0  0  0  0  0  0  0  0  0  0  0
    1.2971   14.0536   41.9092 H   0  0  0  0  0  0  0  0  0  0  0  0
    3.0762   13.8238   41.8154 H   0  0  0  0  0  0  0  0  0  0  0  0
   -2.0635   18.4089   42.0285 H   0  0  0  0  0  0  0  0  0  0  0  0
   -2.6821   18.4670   43.6487 H   0  0  0  0  0  0  0  0  0  0  0  0
    1.3957   16.7828   44.5197 H   0  0  0  0  0  0  0  0  0  0  0  0
    0.1876   17.4154   45.6722 H   0  0  0  0  0  0  0  0  0  0  0  0
    2.4351   20.3268   41.2807 H   0  0  0  0  0  0  0  0  0  0  0  0
    1.4346   20.2309   39.8209 H   0  0  0  0  0  0  0  0  0  0  0  0
    2.7760   17.3213   39.7152 H   0  0  0  0  0  0  0  0  0  0  0  0
    2.1656   14.8756   38.2277 H   0  0  0  0  0  0  0  0  0  0  0  0
    3.9629   14.9859   38.7153 H   0  0  0  0  0  0  0  0  0  0  0  0
    1.0126   18.8178   42.7713 H   0  0  0  0  0  0  0  0  0  0  0  0
   -0.2253   15.0739   46.1495 H   0  0  0  0  0  0  0  0  0  0  0  0
   -1.1990   15.1201   44.6407 H   0  0  0  0  0  0  0  0  0  0  0  0
    0.4999   14.5386   44.5957 H   0  0  0  0  0  0  0  0  0  0  0  0
    2.7293   20.0376   38.8332 H   0  0  0  0  0  0  0  0  0  0  0  0
    1.6766   18.9094   40.7651 H   0  0  0  0  0  0  0  0  0  0  0  0
    0.9737   15.9973   43.4969 H   0  0  0  0  0  0  0  0  0  0  0  0
    0.3787   15.9885   41.6608 H   0  0  0  0  0  0  0  0  0  0  0  0
   -1.5334   20.8739   41.6598 H   0  0  0  0  0  0  0  0  0  0  0  0
    3.4719   15.9569   42.2453 H   0  0  0  0  0  0  0  0  0  0  0  0
    3.5453   18.0217   39.4300 H   0  0  0  0  0  0  0  0  0  0  0  0
  1 11  1  0
  1 15  1  0
  3 10  1  0
  4  2  2  0
  6 14  1  0
  6 24  1  0
  7 18  2  0
  9  3  1  0
  9  4  1  0
 10 16  1  0
 11 18  1  0
 12  5  1  0
 12 20  1  0
 12 23  1  0
 13  6  2  0
 14  5  1  0
 15 21  1  0
 15  3  1  0
 17 24  1  0
 18 22  1  0
 19 17  2  0
 20  1  1  0
 22  4  1  0
 23  8  1  0
 23 21  1  0
 24 20  1  0
 25 19  2  0
  1 26  1  6
  3 27  1  6
  5 28  1  0
  5 29  1  0
  8 30  1  0
  8 31  1  0
  8 32  1  0
  9 33  1  0
  9 34  1  0
 10 35  1  0
 10 36  1  0
 11 37  1  0
 11 38  1  0
 12 39  1  1
 14 40  1  0
 14 41  1  0
 15 42  1  1
 16 43  1  0
 16 44  1  0
 16 45  1  0
 17 46  1  0
 20 47  1  1
 21 48  1  0
 21 49  1  0
 22 50  1  0
 23 51  1  1
 24 52  1  6
M  END
>  <mol_id>  (18) 
2026-08-24-6tgu-s0-n100-seed1-0019

>  <rmsd_to_ref>  (18) 


$$$$

     RDKit          3D

 30 30  0  0  0  0  0  0  0  0999 V2000
    1.2680   20.7410   40.6320 C   0  0  0  0  0  0  0  0  0  0  0  0
    3.9270   17.3430   37.1060 C   0  0  0  0  0  0  0  0  0  0  0  0
    1.1460   17.9750   41.8370 C   0  0  0  0  0  0  0  0  0  0  0  0
    3.2670   20.0550   39.6550 C   0  0  0  0  0  0  0  0  0  0  0  0
    0.0370   20.0210   42.7030 C   0  0  0  0  0  0  0  0  0  0  0  0
   -0.3580   17.5520   44.0140 Cl  0  0  0  0  0  0  0  0  0  0  0  0
    2.1190   19.6520   40.3540 C   0  0  2  0  0  0  0  0  0  0  0  0
    0.3340   18.6510   42.7550 C   0  0  1  0  0  0  0  0  0  0  0  0
    3.3580   19.4910   37.2950 C   0  0  0  0  0  0  0  0  0  0  0  0
    0.4890   21.0250   41.7220 C   0  0  0  0  0  0  0  0  0  0  0  0
    3.6160   18.5370   36.4860 O   0  0  0  0  0  0  0  0  0  0  0  0
    3.7240   19.1500   38.6080 C   0  0  0  0  0  0  0  0  0  0  0  0
   -0.7580   20.4510   43.5670 O   0  0  0  0  0  0  0  0  0  0  0  0
    2.8870   20.6150   36.9760 O   0  0  0  0  0  0  0  0  0  0  0  0
    1.8800   18.3370   40.7210 C   0  0  0  0  0  0  0  0  0  0  0  0
    0.5546   20.7360   39.7947 H   0  0  0  0  0  0  0  0  0  0  0  0
    2.0594   21.4756   40.8415 H   0  0  0  0  0  0  0  0  0  0  0  0
    3.8922   17.4766   38.1973 H   0  0  0  0  0  0  0  0  0  0  0  0
    3.1991   16.5743   36.8073 H   0  0  0  0  0  0  0  0  0  0  0  0
    4.9374   17.0270   36.8073 H   0  0  0  0  0  0  0  0  0  0  0  0
    1.2179   16.8991   42.0545 H   0  0  0  0  0  0  0  0  0  0  0  0
    3.0541   21.0288   39.1898 H   0  0  0  0  0  0  0  0  0  0  0  0
    4.0758   20.0815   40.4001 H   0  0  0  0  0  0  0  0  0  0  0  0
    2.6417   19.8170   41.3077 H   0  0  0  0  0  0  0  0  0  0  0  0
    1.2157   18.8657   43.3767 H   0  0  0  0  0  0  0  0  0  0  0  0
    1.0494   21.7742   42.3005 H   0  0  0  0  0  0  0  0  0  0  0  0
   -0.4633   21.2806   41.2343 H   0  0  0  0  0  0  0  0  0  0  0  0
    3.3139   18.1523   38.8232 H   0  0  0  0  0  0  0  0  0  0  0  0
    4.8226   19.2003   38.6318 H   0  0  0  0  0  0  0  0  0  0  0  0
    2.2965   17.5374   40.0908 H   0  0  0  0  0  0  0  0  0  0  0  0
  1 10  1  0
  3  8  1  0
  5  8  1  0
  5 13  2  0
  7  4  1  0
  7  1  1  0
  7 15  1  0
  8  6  1  0
  9 12  1  0
 10  5  1  0
 11  2  1  0
 11  9  1  0
 12  4  1  0
 14  9  2  0
 15  3  2  0
  1 16  1  0
  1 17  1  0
  2 18  1  0
  2 19  1  0
  2 20  1  0
  3 21  1  0
  4 22  1  0
  4 23  1  0
  7 24  1  1
  8 25  1  1
 10 26  1  0
 10 27  1  0
 12 28  1  0
 12 29  1  0
 15 30  1  0
M  END
>  <mol_id>  (19) 
2026-08-24-6tgu-s0-n100-seed1-0020

>  <rmsd_to_ref>  (19) 


$$$$

     RDKit          3D

 28 29  0  0  0  0  0  0  0  0999 V2000
    1.9784   17.0390   40.9410 C   0  0  0  0  0  0  0  0  0  0  0  0
    2.4906   18.5594   38.6074 N   0  0  0  0  0  0  0  0  0  0  0  0
    1.1872   19.5852   40.4400 C   0  0  0  0  0  0  0  0  0  0  0  0
    3.2156   19.1350   37.6722 C   0  0  0  0  0  0  0  0  0  0  0  0
    2.7968   14.5897   41.0332 C   0  0  0  0  0  0  0  0  0  0  0  0
    0.4144   19.0080   41.4621 C   0  0  0  0  0  0  0  0  0  0  0  0
    1.1692   15.7798   42.6034 N   0  0  0  0  0  0  0  0  0  0  0  0
    2.7022   17.5268   39.5675 C   0  0  0  0  0  0  0  0  0  0  0  0
   -0.9347   20.9263   41.5932 C   0  0  0  0  0  0  0  0  0  0  0  0
    3.6416   16.8003   39.2755 O   0  0  0  0  0  0  0  0  0  0  0  0
    1.0060   17.8105   41.7046 C   0  0  1  0  0  0  0  0  0  0  0  0
    0.9902   20.9360   40.0286 C   0  0  0  0  0  0  0  0  0  0  0  0
   -0.1590   21.5561   40.6128 C   0  0  0  0  0  0  0  0  0  0  0  0
    4.2269   18.6879   36.7636 O   0  0  0  0  0  0  0  0  0  0  0  0
    1.9798   15.7717   41.5083 C   0  0  0  0  0  0  0  0  0  0  0  0
    0.6370   16.9063   42.7267 N   0  0  0  0  0  0  0  0  0  0  0  0
   -0.6782   19.6666   42.0093 C   0  0  0  0  0  0  0  0  0  0  0  0
    2.8033   20.2199   37.5340 O   0  0  0  0  0  0  0  0  0  0  0  0
    1.5387   18.9495   38.6581 H   0  0  0  0  0  0  0  0  0  0  0  0
    1.9621   18.9807   39.9459 H   0  0  0  0  0  0  0  0  0  0  0  0
    3.1924   14.0442   41.9026 H   0  0  0  0  0  0  0  0  0  0  0  0
    2.1596   13.9189   40.4382 H   0  0  0  0  0  0  0  0  0  0  0  0
    3.6323   14.9470   40.4133 H   0  0  0  0  0  0  0  0  0  0  0  0
   -1.7788   21.4735   42.0384 H   0  0  0  0  0  0  0  0  0  0  0  0
    1.1182   18.9020   41.6266 H   0  0  0  0  0  0  0  0  0  0  0  0
    1.6603   21.4538   39.3266 H   0  0  0  0  0  0  0  0  0  0  0  0
   -0.4436   22.5649   40.2793 H   0  0  0  0  0  0  0  0  0  0  0  0
   -1.3165   19.1772   42.7597 H   0  0  0  0  0  0  0  0  0  0  0  0
  1 15  2  0
  1 11  1  0
  2  8  1  0
  3 12  2  0
  3  6  1  0
  4 18  1  0
  4  2  1  0
  5 15  1  0
  6 17  2  0
  7 16  2  0
  8  1  1  0
 10  8  2  0
 11  6  1  0
 11 16  1  0
 12 13  1  0
 13  9  2  0
 14  4  2  0
 15  7  1  0
 17  9  1  0
  2 19  1  0
  3 20  1  0
  5 21  1  0
  5 22  1  0
  5 23  1  0
  9 24  1  0
 11 25  1  1
 12 26  1  0
 13 27  1  0
 17 28  1  0
M  CHG  1  18  -1
M  END
>  <mol_id>  (20) 
2026-08-24-6tgu-s0-n100-seed1-0021

>  <rmsd_to_ref>  (20) 


$$$$

     RDKit          3D

 48 50  0  0  0  0  0  0  0  0999 V2000
    1.3769   14.5764   41.7408 C   0  0  0  0  0  0  0  0  0  0  0  0
    1.7251   15.9403   42.2942 C   0  0  0  0  0  0  0  0  0  0  0  0
    2.6209   17.6069   38.9203 N   0  0  0  0  0  0  0  0  0  0  0  0
    0.1483   17.9675   42.5842 C   0  0  0  0  0  0  0  0  0  0  0  0
    0.4369   20.7207   41.2853 C   0  0  0  0  0  0  0  0  0  0  0  0
    1.3992   20.9659   38.4234 C   0  0  0  0  0  0  0  0  0  0  0  0
    2.4617   13.6108   41.5918 C   0  0  0  0  0  0  0  0  0  0  0  0
    4.8822   15.9500   37.8091 S   0  0  0  0  0  0  0  0  0  0  0  0
   -0.8674   14.3147   43.6130 N   0  0  0  0  0  0  0  0  0  0  0  0
   -0.3179   15.4090   43.4322 C   0  0  0  0  0  0  0  0  0  0  0  0
    3.6502   18.0367   36.8481 O   0  0  0  0  0  0  0  0  0  0  0  0
    3.5321   17.1219   37.8267 C   0  0  0  0  0  0  0  0  0  0  0  0
    0.4526   16.5452   42.9050 C   0  0  1  0  0  0  0  0  0  0  0  0
    2.9788   19.2638   37.3719 C   0  0  1  0  0  0  0  0  0  0  0  0
    1.5747   19.8564   39.3172 C   0  0  0  0  0  0  0  0  0  0  0  0
    3.1039   20.2286   36.4539 C   0  0  0  0  0  0  0  0  0  0  0  0
    5.1551   15.9705   36.0667 C   0  0  0  0  0  0  0  0  0  0  0  0
    2.5318   19.0233   38.7080 C   0  0  1  0  0  0  0  0  0  0  0  0
   -0.5416   18.6946   43.5075 C   0  0  0  0  0  0  0  0  0  0  0  0
    2.5114   22.0534   35.2312 O   0  0  0  0  0  0  0  0  0  0  0  0
    1.5103   21.6305   37.2921 C   0  0  0  0  0  0  0  0  0  0  0  0
   -0.8846   20.0390   43.3129 C   0  0  0  0  0  0  0  0  0  0  0  0
    2.3646   21.4252   36.2434 C   0  0  0  0  0  0  0  0  0  0  0  0
   -0.3294   20.8682   42.4163 C   0  0  0  0  0  0  0  0  0  0  0  0
    0.8270   18.3453   41.4102 C   0  0  0  0  0  0  0  0  0  0  0  0
    0.9071   19.6103   40.6757 C   0  0  0  0  0  0  0  0  0  0  0  0
    0.6288   14.1299   42.4123 H   0  0  0  0  0  0  0  0  0  0  0  0
    1.0328   14.7708   40.7143 H   0  0  0  0  0  0  0  0  0  0  0  0
    2.5002   15.8421   43.0685 H   0  0  0  0  0  0  0  0  0  0  0  0
    2.1102   16.5897   41.4941 H   0  0  0  0  0  0  0  0  0  0  0  0
    0.7140   21.6649   40.7937 H   0  0  0  0  0  0  0  0  0  0  0  0
    2.8049   13.2886   42.5859 H   0  0  0  0  0  0  0  0  0  0  0  0
    2.1007   12.7381   41.0278 H   0  0  0  0  0  0  0  0  0  0  0  0
    3.2966   14.0782   41.0492 H   0  0  0  0  0  0  0  0  0  0  0  0
    0.1333   17.2179   43.7147 H   0  0  0  0  0  0  0  0  0  0  0  0
    3.9238   19.5827   37.8358 H   0  0  0  0  0  0  0  0  0  0  0  0
    4.1387   20.5790   36.5814 H   0  0  0  0  0  0  0  0  0  0  0  0
    2.6815   19.6630   35.6102 H   0  0  0  0  0  0  0  0  0  0  0  0
    6.2279   15.8391   35.8621 H   0  0  0  0  0  0  0  0  0  0  0  0
    4.5893   15.1523   35.5974 H   0  0  0  0  0  0  0  0  0  0  0  0
    4.8183   16.9330   35.6542 H   0  0  0  0  0  0  0  0  0  0  0  0
    3.1777   19.5039   39.4575 H   0  0  0  0  0  0  0  0  0  0  0  0
   -1.4889   18.1596   43.6695 H   0  0  0  0  0  0  0  0  0  0  0  0
    0.1910   18.7684   44.3246 H   0  0  0  0  0  0  0  0  0  0  0  0
    0.8145   22.4740   37.1728 H   0  0  0  0  0  0  0  0  0  0  0  0
   -1.6795   20.4512   43.9519 H   0  0  0  0  0  0  0  0  0  0  0  0
   -0.5387   21.9243   42.6416 H   0  0  0  0  0  0  0  0  0  0  0  0
    1.4113   17.5317   40.9556 H   0  0  0  0  0  0  0  0  0  0  0  0
  1  2  1  0
  4 13  1  0
  4 19  1  0
  5 24  1  0
  6 15  2  0
  7  1  1  0
 10  9  3  0
 11 14  1  0
 11 12  1  0
 12  8  1  0
 12  3  2  0
 13  2  1  0
 13 10  1  0
 14 16  1  0
 14 18  1  0
 15 26  1  0
 17  8  1  0
 18  3  1  0
 18 15  1  0
 20 23  2  0
 21  6  2  0
 22 19  1  0
 23 16  1  0
 23 21  1  0
 24 22  2  0
 25  4  2  0
 26  5  2  0
 26 25  1  0
  1 27  1  0
  1 28  1  0
  2 29  1  0
  2 30  1  0
  5 31  1  0
  7 32  1  0
  7 33  1  0
  7 34  1  0
 13 35  1  1
 14 36  1  6
 16 37  1  0
 16 38  1  0
 17 39  1  0
 17 40  1  0
 17 41  1  0
 18 42  1  1
 19 43  1  0
 19 44  1  0
 21 45  1  0
 22 46  1  0
 24 47  1  0
 25 48  1  0
M  END
>  <mol_id>  (21) 
2026-08-24-6tgu-s0-n100-seed1-0022

>  <rmsd_to_ref>  (21) 


$$$$

     RDKit          3D

 44 46  0  0  0  0  0  0  0  0999 V2000
    3.6524   17.4917   38.3021 C   0  0  0  0  0  0  0  0  0  0  0  0
    3.2327   15.5095   40.2302 C   0  0  1  0  0  0  0  0  0  0  0  0
    2.9113   18.9168   38.3332 C   0  0  2  0  0  0  0  0  0  0  0  0
    3.8156   15.0444   39.1440 C   0  0  0  0  0  0  0  0  0  0  0  0
   -1.5499   19.0746   44.2678 N   0  0  0  0  0  0  0  0  0  0  0  0
    2.8304   16.9494   40.3754 C   0  0  0  0  0  0  0  0  0  0  0  0
    4.3019   15.4148   37.9882 C   0  0  0  0  0  0  0  0  0  0  0  0
    0.2164   17.9184   43.1623 C   0  0  0  0  0  0  0  0  0  0  0  0
    4.2984   16.6790   37.4216 C   0  0  0  0  0  0  0  0  0  0  0  0
   -0.6972   17.9993   44.2613 C   0  0  2  0  0  0  0  0  0  0  0  0
    4.1719   19.4644   36.3394 O   0  0  0  0  0  0  0  0  0  0  0  0
    3.1510   19.6432   36.9484 C   0  0  0  0  0  0  0  0  0  0  0  0
    2.2423   20.4172   36.7053 O   0  0  0  0  0  0  0  0  0  0  0  0
   -0.6176   19.8892   42.2868 C   0  0  0  0  0  0  0  0  0  0  0  0
    1.3175   16.8991   42.7957 C   0  0  0  0  0  0  0  0  0  0  0  0
    2.9045   19.7901   39.4507 C   0  0  0  0  0  0  0  0  0  0  0  0
    1.3371   18.6569   41.2870 N   0  0  0  0  0  0  0  0  0  0  0  0
    0.3164   18.8414   42.2643 C   0  0  0  0  0  0  0  0  0  0  0  0
    2.8991   14.5030   41.3261 C   0  0  0  0  0  0  0  0  0  0  0  0
    2.1315   17.4762   41.6870 C   0  0  0  0  0  0  0  0  0  0  0  0
   -1.4412   19.9595   43.3130 C   0  0  0  0  0  0  0  0  0  0  0  0
   -0.8224   17.0100   45.4094 C   0  0  0  0  0  0  0  0  0  0  0  0
    3.1157   17.7784   39.1005 C   0  0  0  0  0  0  0  0  0  0  0  0
    3.0055   17.9738   37.5543 H   0  0  0  0  0  0  0  0  0  0  0  0
    4.4936   17.3272   38.9914 H   0  0  0  0  0  0  0  0  0  0  0  0
    4.1918   15.7278   40.7227 H   0  0  0  0  0  0  0  0  0  0  0  0
    2.3779   18.4550   37.4892 H   0  0  0  0  0  0  0  0  0  0  0  0
    3.9364   13.9558   39.2460 H   0  0  0  0  0  0  0  0  0  0  0  0
    4.7737   14.6218   37.3894 H   0  0  0  0  0  0  0  0  0  0  0  0
    5.3295   17.0294   37.2663 H   0  0  0  0  0  0  0  0  0  0  0  0
    3.7996   16.6758   36.4412 H   0  0  0  0  0  0  0  0  0  0  0  0
    0.0412   18.5813   44.8322 H   0  0  0  0  0  0  0  0  0  0  0  0
   -0.6605   20.6283   41.4733 H   0  0  0  0  0  0  0  0  0  0  0  0
    1.4741   15.9187   43.2695 H   0  0  0  0  0  0  0  0  0  0  0  0
    2.7196   19.2110   40.3675 H   0  0  0  0  0  0  0  0  0  0  0  0
    3.8784   20.2959   39.5266 H   0  0  0  0  0  0  0  0  0  0  0  0
    2.1103   20.5407   39.3247 H   0  0  0  0  0  0  0  0  0  0  0  0
    2.8835   15.0134   42.3003 H   0  0  0  0  0  0  0  0  0  0  0  0
    1.9119   14.0596   41.1286 H   0  0  0  0  0  0  0  0  0  0  0  0
    3.6611   13.7098   41.3397 H   0  0  0  0  0  0  0  0  0  0  0  0
   -2.0954   20.8419   43.3707 H   0  0  0  0  0  0  0  0  0  0  0  0
   -0.9125   17.5591   46.3583 H   0  0  0  0  0  0  0  0  0  0  0  0
   -1.7163   16.3865   45.2603 H   0  0  0  0  0  0  0  0  0  0  0  0
    0.0709   16.3690   45.4401 H   0  0  0  0  0  0  0  0  0  0  0  0
  1 23  1  0
  2  6  1  0
  2 19  1  0
  3 23  1  0
  3 16  1  0
  4  2  1  0
  6 20  1  0
  7  4  2  0
  8 10  1  0
  9  7  1  0
  9  1  1  0
 10  5  1  0
 10 22  1  0
 11 12  2  0
 12  3  1  0
 13 12  1  0
 14 21  1  0
 15  8  2  0
 17 20  2  0
 17 18  1  0
 18 14  2  0
 18  8  1  0
 20 15  1  0
 21  5  2  0
 23  6  2  0
  1 24  1  0
  1 25  1  0
  2 26  1  1
  3 27  1  6
  4 28  1  0
  7 29  1  0
  9 30  1  0
  9 31  1  0
 10 32  1  1
 14 33  1  0
 15 34  1  0
 16 35  1  0
 16 36  1  0
 16 37  1  0
 19 38  1  0
 19 39  1  0
 19 40  1  0
 21 41  1  0
 22 42  1  0
 22 43  1  0
 22 44  1  0
M  CHG  1  13  -1
M  END
>  <mol_id>  (22) 
2026-08-24-6tgu-s0-n100-seed1-0023

>  <rmsd_to_ref>  (22) 


$$$$

     RDKit          3D

 55 58  0  0  0  0  0  0  0  0999 V2000
    3.1878   11.5097   34.7610 C   0  0  0  0  0  0  0  0  0  0  0  0
    2.3299   17.4659   40.2606 C   0  0  0  0  0  0  0  0  0  0  0  0
    2.2445   18.5899   39.4559 C   0  0  0  0  0  0  0  0  0  0  0  0
    2.8977   16.0291   38.5637 C   0  0  0  0  0  0  0  0  0  0  0  0
   -0.6938   17.2221   44.4189 C   0  0  0  0  0  0  0  0  0  0  0  0
   -1.0000   13.9895   45.5306 C   0  0  0  0  0  0  0  0  0  0  0  0
    3.7730   19.6338   36.2071 C   0  0  0  0  0  0  0  0  0  0  0  0
   -1.2115   15.8861   46.9088 C   0  0  0  0  0  0  0  0  0  0  0  0
   -0.7750   14.8066   44.9222 N   0  0  0  0  0  0  0  0  0  0  0  0
   -1.3666   18.4215   44.2045 N   0  0  0  0  0  0  0  0  0  0  0  0
    0.4157   17.5457   42.3814 C   0  0  0  0  0  0  0  0  0  0  0  0
    2.9206   19.5629   37.2831 C   0  0  0  0  0  0  0  0  0  0  0  0
    2.0674   20.6270   37.1935 C   0  0  0  0  0  0  0  0  0  0  0  0
    3.7740   12.6182   35.4065 N   0  0  0  0  0  0  0  0  0  0  0  0
   -1.0075   19.1659   43.2203 C   0  0  0  0  0  0  0  0  0  0  0  0
   -2.5026   15.2938   47.5688 C   0  0  0  0  0  0  0  0  0  0  0  0
    0.5893   19.6801   41.2050 C   0  0  0  0  0  0  0  0  0  0  0  0
    2.8055   16.2595   39.9119 C   0  0  0  0  0  0  0  0  0  0  0  0
    3.0240   17.0887   37.7274 C   0  0  0  0  0  0  0  0  0  0  0  0
    0.0747   18.8347   42.2183 C   0  0  0  0  0  0  0  0  0  0  0  0
    3.3329   12.9599   36.6673 C   0  0  0  0  0  0  0  0  0  0  0  0
   -0.9582   16.0468   45.5026 C   0  0  2  0  0  0  0  0  0  0  0  0
    2.3607   21.2514   35.9664 N   0  0  0  0  0  0  0  0  0  0  0  0
    3.2970   14.2630   37.0051 N   0  0  0  0  0  0  0  0  0  0  0  0
    1.6124   20.0293   40.0128 S   0  0  0  0  0  0  0  0  0  0  0  0
    2.8336   14.6201   38.1900 C   0  0  0  0  0  0  0  0  0  0  0  0
    2.3298   13.8121   38.9463 O   0  0  0  0  0  0  0  0  0  0  0  0
   -0.8215   13.8353   44.3274 O   0  0  0  0  0  0  0  0  0  0  0  0
   -0.2567   16.1153   47.5543 O   0  0  0  0  0  0  0  0  0  0  0  0
    0.0498   16.6970   43.3553 C   0  0  0  0  0  0  0  0  0  0  0  0
    3.4069   20.7117   35.4245 N   0  0  0  0  0  0  0  0  0  0  0  0
    3.0234   12.0423   37.4348 O   0  0  0  0  0  0  0  0  0  0  0  0
    2.8274   18.4246   38.1801 C   0  0  0  0  0  0  0  0  0  0  0  0
    2.8561   10.7800   35.5143 H   0  0  0  0  0  0  0  0  0  0  0  0
    2.3230   11.8450   34.1696 H   0  0  0  0  0  0  0  0  0  0  0  0
    3.9270   11.0397   34.0957 H   0  0  0  0  0  0  0  0  0  0  0  0
    1.9702   17.5727   41.2947 H   0  0  0  0  0  0  0  0  0  0  0  0
   -0.2561   13.6169   46.2502 H   0  0  0  0  0  0  0  0  0  0  0  0
   -1.8057   13.7420   46.2374 H   0  0  0  0  0  0  0  0  0  0  0  0
    4.6075   18.9469   36.0033 H   0  0  0  0  0  0  0  0  0  0  0  0
    1.0846   17.1295   41.6137 H   0  0  0  0  0  0  0  0  0  0  0  0
    3.2270   19.3546   38.3189 H   0  0  0  0  0  0  0  0  0  0  0  0
    1.3083   20.9325   37.9286 H   0  0  0  0  0  0  0  0  0  0  0  0
    4.5172   13.1619   34.9450 H   0  0  0  0  0  0  0  0  0  0  0  0
   -1.5320   20.1249   43.0967 H   0  0  0  0  0  0  0  0  0  0  0  0
   -2.3730   15.2582   48.6605 H   0  0  0  0  0  0  0  0  0  0  0  0
   -3.3652   15.9304   47.3226 H   0  0  0  0  0  0  0  0  0  0  0  0
   -2.6763   14.2771   47.1867 H   0  0  0  0  0  0  0  0  0  0  0  0
   -0.3465   19.8291   40.6464 H   0  0  0  0  0  0  0  0  0  0  0  0
    1.3615   20.0064   41.9172 H   0  0  0  0  0  0  0  0  0  0  0  0
    3.1011   15.5069   40.6577 H   0  0  0  0  0  0  0  0  0  0  0  0
    3.2847   16.9122   36.6735 H   0  0  0  0  0  0  0  0  0  0  0  0
   -2.0204   16.0231   45.2178 H   0  0  0  0  0  0  0  0  0  0  0  0
    3.6293   14.9783   36.3427 H   0  0  0  0  0  0  0  0  0  0  0  0
    0.3232   15.6321   43.3189 H   0  0  0  0  0  0  0  0  0  0  0  0
  1 14  1  0
  3 25  1  0
  3  2  1  0
  4 18  1  0
  5 22  1  0
  7 12  1  0
  8 29  2  0
  8 16  1  0
  9 22  1  0
  9  6  1  0
 10  5  1  0
 11 30  1  0
 12 33  1  0
 13 12  1  0
 14 21  1  0
 15 10  2  0
 17 20  1  0
 18  2  2  0
 19 33  1  0
 19  4  2  0
 20 11  2  0
 20 15  1  0
 21 24  1  0
 21 32  2  0
 22  8  1  0
 23 13  2  0
 24 26  1  0
 25 17  1  0
 26  4  1  0
 26 27  2  0
 28  9  1  0
 28  6  1  0
 30  5  2  0
 31 23  1  0
 31  7  2  0
 33  3  2  0
  1 34  1  0
  1 35  1  0
  1 36  1  0
  2 37  1  0
  6 38  1  0
  6 39  1  0
  7 40  1  0
 11 41  1  0
 12 42  1  0
 13 43  1  0
 14 44  1  0
 15 45  1  0
 16 46  1  0
 16 47  1  0
 16 48  1  0
 17 49  1  0
 17 50  1  0
 18 51  1  0
 19 52  1  0
 22 53  1  6
 24 54  1  0
 30 55  1  0
M  END
>  <mol_id>  (23) 
2026-08-24-6tgu-s0-n100-seed1-0024

>  <rmsd_to_ref>  (23) 


$$$$

     RDKit          3D

 39 41  0  0  0  0  0  0  0  0999 V2000
    1.3524   21.2357   39.7411 C   0  0  0  0  0  0  0  0  0  0  0  0
    2.5878   17.3051   39.6756 C   0  0  0  0  0  0  0  0  0  0  0  0
    2.0142   18.9367   39.6684 C   0  0  0  0  0  0  0  0  0  0  0  0
    2.4982   16.1542   40.3693 N   0  0  0  0  0  0  0  0  0  0  0  0
    0.9630   18.2260   41.6288 N   0  0  0  0  0  0  0  0  0  0  0  0
    1.3264   19.1471   40.7766 N   0  0  0  0  0  0  0  0  0  0  0  0
   -0.4230   19.5731   43.2535 C   0  0  0  0  0  0  0  0  0  0  0  0
    2.7302   20.1080   37.5433 C   0  0  0  0  0  0  0  0  0  0  0  0
   -0.0432   17.0660   43.4681 C   0  0  0  0  0  0  0  0  0  0  0  0
   -0.8456   17.1889   44.5881 C   0  0  0  0  0  0  0  0  0  0  0  0
    3.1593   18.8166   37.6894 C   0  0  0  0  0  0  0  0  0  0  0  0
   -1.1877   15.7528   45.2856 C   0  0  0  0  0  0  0  0  0  0  0  0
   -1.2108   19.5426   44.3663 N   0  0  0  0  0  0  0  0  0  0  0  0
    2.6771   18.2775   38.9726 C   0  0  1  0  0  0  0  0  0  0  0  0
    3.0332   14.0035   39.9757 O   0  0  0  0  0  0  0  0  0  0  0  0
    0.6240   15.5464   43.1978 Cl  0  0  0  0  0  0  0  0  0  0  0  0
    2.9282   15.2155   39.5743 C   0  0  0  0  0  0  0  0  0  0  0  0
   -1.4420   18.3693   44.9854 C   0  0  0  0  0  0  0  0  0  0  0  0
    3.3272   15.5129   38.1339 C   0  0  0  0  0  0  0  0  0  0  0  0
    0.0981   18.3551   42.7184 C   0  0  0  0  0  0  0  0  0  0  0  0
    1.9899   20.5455   38.7278 C   0  0  0  0  0  0  0  0  0  0  0  0
    0.7533   20.3905   41.0054 C   0  0  0  0  0  0  0  0  0  0  0  0
    1.2503   22.3300   39.6979 H   0  0  0  0  0  0  0  0  0  0  0  0
    1.6370   17.6641   40.0967 H   0  0  0  0  0  0  0  0  0  0  0  0
    3.6804   17.2970   39.8031 H   0  0  0  0  0  0  0  0  0  0  0  0
    2.1580   16.0391   41.3346 H   0  0  0  0  0  0  0  0  0  0  0  0
    1.3636   17.2890   41.4789 H   0  0  0  0  0  0  0  0  0  0  0  0
   -0.1894   20.5327   42.7693 H   0  0  0  0  0  0  0  0  0  0  0  0
    2.9162   20.7320   36.6566 H   0  0  0  0  0  0  0  0  0  0  0  0
    3.7708   18.2654   36.9600 H   0  0  0  0  0  0  0  0  0  0  0  0
   -1.1914   15.8682   46.3796 H   0  0  0  0  0  0  0  0  0  0  0  0
   -2.1770   15.4085   44.9498 H   0  0  0  0  0  0  0  0  0  0  0  0
   -0.4252   15.0142   44.9974 H   0  0  0  0  0  0  0  0  0  0  0  0
    1.7128   18.0284   38.5056 H   0  0  0  0  0  0  0  0  0  0  0  0
   -2.1329   18.3505   45.8411 H   0  0  0  0  0  0  0  0  0  0  0  0
    4.1205   16.2749   38.1230 H   0  0  0  0  0  0  0  0  0  0  0  0
    3.6964   14.5924   37.6582 H   0  0  0  0  0  0  0  0  0  0  0  0
    2.4527   15.8862   37.5808 H   0  0  0  0  0  0  0  0  0  0  0  0
    0.0819   20.7166   41.8136 H   0  0  0  0  0  0  0  0  0  0  0  0
  1 22  2  0
  2  4  1  0
  3  6  1  0
  5 20  1  0
  6 22  1  0
  6  5  1  0
  7 13  2  0
  8 11  2  0
  8 21  1  0
  9 10  1  0
 10 18  2  0
 10 12  1  0
 11 14  1  0
 13 18  1  0
 14  2  1  0
 14  3  1  0
 16  9  1  0
 17 15  2  0
 17  4  1  0
 19 17  1  0
 20  7  1  0
 20  9  2  0
 21  3  2  0
 21  1  1  0
  1 23  1  0
  2 24  1  0
  2 25  1  0
  4 26  1  0
  5 27  1  0
  7 28  1  0
  8 29  1  0
 11 30  1  0
 12 31  1  0
 12 32  1  0
 12 33  1  0
 14 34  1  1
 18 35  1  0
 19 36  1  0
 19 37  1  0
 19 38  1  0
 22 39  1  0
M  END
>  <mol_id>  (24) 
2026-08-24-6tgu-s0-n100-seed1-0025

>  <rmsd_to_ref>  (24) 


$$$$

     RDKit          3D

 34 36  0  0  0  0  0  0  0  0999 V2000
    0.2896   16.9988   41.8280 C   0  0  0  0  0  0  0  0  0  0  0  0
    4.2510   18.9278   36.6175 N   0  0  0  0  0  0  0  0  0  0  0  0
    1.8158   17.5062   40.0564 C   0  0  2  0  0  0  0  0  0  0  0  0
    2.7524   20.3777   37.9106 C   0  0  0  0  0  0  0  0  0  0  0  0
    1.6387   20.4782   40.5771 Cl  0  0  0  0  0  0  0  0  0  0  0  0
    1.2233   16.4917   40.9728 C   0  0  1  0  0  0  0  0  0  0  0  0
    1.7899   15.2686   41.0036 N   0  0  0  0  0  0  0  0  0  0  0  0
    3.2307   18.1226   38.6041 C   0  0  0  0  0  0  0  0  0  0  0  0
   -0.6264   19.0181   41.8439 C   0  0  0  0  0  0  0  0  0  0  0  0
    2.8545   17.0659   39.3445 O   0  0  0  0  0  0  0  0  0  0  0  0
   -0.3559   16.5918   42.8709 C   0  0  0  0  0  0  0  0  0  0  0  0
    2.2058   14.2304   40.9779 N   0  0  0  0  0  0  0  0  0  0  0  0
   -1.2530   17.4163   43.5252 C   0  0  0  0  0  0  0  0  0  0  0  0
    1.7675   18.9049   39.9980 C   0  0  1  0  0  0  0  0  0  0  0  0
    2.5663   19.2671   38.8349 C   0  0  0  0  0  0  0  0  0  0  0  0
    4.0503   17.9865   37.5552 C   0  0  0  0  0  0  0  0  0  0  0  0
    0.1295   18.3143   41.3071 N   0  0  0  0  0  0  0  0  0  0  0  0
   -0.2671   15.3644   43.4470 O   0  0  0  0  0  0  0  0  0  0  0  0
    3.7899   21.0991   35.8714 O   0  0  0  0  0  0  0  0  0  0  0  0
    3.5772   20.1190   36.7959 C   0  0  0  0  0  0  0  0  0  0  0  0
   -1.3522   18.5910   43.0809 C   0  0  0  0  0  0  0  0  0  0  0  0
    0.7236   17.5452   39.9310 H   0  0  0  0  0  0  0  0  0  0  0  0
    1.7616   20.6739   37.5356 H   0  0  0  0  0  0  0  0  0  0  0  0
    3.2665   21.1615   38.4862 H   0  0  0  0  0  0  0  0  0  0  0  0
    0.4913   15.6932   40.7811 H   0  0  0  0  0  0  0  0  0  0  0  0
    2.7083   15.6650   40.7581 H   0  0  0  0  0  0  0  0  0  0  0  0
   -0.8117   20.0211   41.4320 H   0  0  0  0  0  0  0  0  0  0  0  0
    2.2521   13.8552   41.9361 H   0  0  0  0  0  0  0  0  0  0  0  0
    1.5966   13.6306   40.4034 H   0  0  0  0  0  0  0  0  0  0  0  0
   -1.8454   17.0667   44.3835 H   0  0  0  0  0  0  0  0  0  0  0  0
    0.9474   18.6038   40.6663 H   0  0  0  0  0  0  0  0  0  0  0  0
    4.5979   17.0379   37.4534 H   0  0  0  0  0  0  0  0  0  0  0  0
   -0.8085   15.1535   44.2486 H   0  0  0  0  0  0  0  0  0  0  0  0
   -1.9847   19.3170   43.6128 H   0  0  0  0  0  0  0  0  0  0  0  0
  1 11  2  0
  2 20  1  0
  2 16  2  0
  3  6  1  0
  4 15  1  0
  6  7  1  0
  6  1  1  0
  8 15  2  0
  8 10  1  0
  9 21  1  0
 10  3  1  0
 11 18  1  0
 11 13  1  0
 12  7  1  0
 14  3  1  0
 14  5  1  0
 15 14  1  0
 16  8  1  0
 17  9  2  0
 17  1  1  0
 19 20  2  0
 20  4  1  0
 21 13  2  0
  3 22  1  6
  4 23  1  0
  4 24  1  0
  6 25  1  6
  7 26  1  0
  9 27  1  0
 12 28  1  0
 12 29  1  0
 13 30  1  0
 14 31  1  6
 16 32  1  0
 18 33  1  0
 21 34  1  0
M  END
>  <mol_id>  (25) 
2026-08-24-6tgu-s0-n100-seed1-0026

>  <rmsd_to_ref>  (25) 


$$$$

     RDKit          3D

 21 21  0  0  0  0  0  0  0  0999 V2000
    1.9274   20.5590   37.8100 O   0  0  0  0  0  0  0  0  0  0  0  0
    1.6874   19.1291   40.6293 C   0  0  0  0  0  0  0  0  0  0  0  0
    3.7707   18.3510   39.7708 O   0  0  0  0  0  0  0  0  0  0  0  0
    2.7474   19.6458   38.2114 C   0  0  1  0  0  0  0  0  0  0  0  0
    0.8718   18.5674   42.8246 C   0  0  0  0  0  0  0  0  0  0  0  0
    3.8199   19.2696   37.2419 C   0  0  0  0  0  0  0  0  0  0  0  0
   -0.2435   19.3045   42.6334 C   0  0  0  0  0  0  0  0  0  0  0  0
    1.8334   18.3676   41.8181 C   0  0  0  0  0  0  0  0  0  0  0  0
    2.7611   18.9308   39.5092 C   0  0  0  0  0  0  0  0  0  0  0  0
   -0.4023   20.0429   41.4743 C   0  0  0  0  0  0  0  0  0  0  0  0
    0.5972   20.0029   40.4555 C   0  0  0  0  0  0  0  0  0  0  0  0
    1.5365   21.0194   38.5944 H   0  0  0  0  0  0  0  0  0  0  0  0
    2.0920   18.8708   37.7872 H   0  0  0  0  0  0  0  0  0  0  0  0
    1.0350   18.1040   43.8087 H   0  0  0  0  0  0  0  0  0  0  0  0
    4.7655   19.1163   37.7825 H   0  0  0  0  0  0  0  0  0  0  0  0
    3.5378   18.3401   36.7257 H   0  0  0  0  0  0  0  0  0  0  0  0
    3.9459   20.0753   36.5037 H   0  0  0  0  0  0  0  0  0  0  0  0
   -1.0294   19.3178   43.4030 H   0  0  0  0  0  0  0  0  0  0  0  0
    2.6606   17.6539   41.9462 H   0  0  0  0  0  0  0  0  0  0  0  0
   -1.3009   20.6625   41.3372 H   0  0  0  0  0  0  0  0  0  0  0  0
    0.5177   20.6369   39.5601 H   0  0  0  0  0  0  0  0  0  0  0  0
  1  4  1  0
  2 11  1  0
  2  8  2  0
  4  6  1  0
  4  9  1  0
  5  7  2  0
  8  5  1  0
  9  3  2  0
  9  2  1  0
 10  7  1  0
 11 10  2  0
  1 12  1  0
  4 13  1  6
  5 14  1  0
  6 15  1  0
  6 16  1  0
  6 17  1  0
  7 18  1  0
  8 19  1  0
 10 20  1  0
 11 21  1  0
M  END
>  <mol_id>  (26) 
2026-08-24-6tgu-s0-n100-seed1-0027

>  <rmsd_to_ref>  (26) 


$$$$

     RDKit          3D

 38 40  0  0  0  0  0  0  0  0999 V2000
    3.2411   22.0202   35.5789 F   0  0  0  0  0  0  0  0  0  0  0  0
    0.6302   14.9715   41.6578 C   0  0  0  0  0  0  0  0  0  0  0  0
    1.4036   18.1513   40.8450 C   0  0  0  0  0  0  0  0  0  0  0  0
    3.2144   20.9008   37.3264 C   0  0  1  0  0  0  0  0  0  0  0  0
   -0.0657   17.4379   44.7235 C   0  0  0  0  0  0  0  0  0  0  0  0
    3.9085   20.2746   35.6195 F   0  0  0  0  0  0  0  0  0  0  0  0
    2.2469   21.6758   39.3346 C   0  0  0  0  0  0  0  0  0  0  0  0
    1.4848   19.3759   40.2256 C   0  0  2  0  0  0  0  0  0  0  0  0
    1.5018   21.6316   40.4796 C   0  0  0  0  0  0  0  0  0  0  0  0
    0.2230   14.2939   43.7861 C   0  0  0  0  0  0  0  0  0  0  0  0
    1.9909   17.1737   39.9006 C   0  0  0  0  0  0  0  0  0  0  0  0
    0.0324   16.5235   43.7001 C   0  0  0  0  0  0  0  0  0  0  0  0
    5.0001   20.9032   36.4554 F   0  0  0  0  0  0  0  0  0  0  0  0
    2.2575   19.2228   38.8828 C   0  0  0  0  0  0  0  0  0  0  0  0
    0.2275   14.1159   42.2801 C   0  0  0  0  0  0  0  0  0  0  0  0
    0.4480   16.8030   42.3304 C   0  0  0  0  0  0  0  0  0  0  0  0
    2.9323   21.3430   38.2673 C   0  0  0  0  0  0  0  0  0  0  0  0
    2.7313   19.6824   37.5303 O   0  0  0  0  0  0  0  0  0  0  0  0
    0.9850   16.0725   41.5596 N   0  0  0  0  0  0  0  0  0  0  0  0
    1.1498   20.5768   40.8905 C   0  0  0  0  0  0  0  0  0  0  0  0
    3.5696   21.2782   36.0203 C   0  0  0  0  0  0  0  0  0  0  0  0
   -0.2433   15.3796   44.2147 C   0  0  0  0  0  0  0  0  0  0  0  0
    0.7883   18.0784   41.9130 N   0  0  0  0  0  0  0  0  0  0  0  0
    2.5105   17.8196   38.8274 N   0  0  0  0  0  0  0  0  0  0  0  0
    0.7394   14.5528   40.6465 H   0  0  0  0  0  0  0  0  0  0  0  0
    4.1184   21.4809   37.0898 H   0  0  0  0  0  0  0  0  0  0  0  0
    0.1277   18.5033   44.5296 H   0  0  0  0  0  0  0  0  0  0  0  0
   -0.3376   17.1036   45.7356 H   0  0  0  0  0  0  0  0  0  0  0  0
    0.6067   19.9865   39.9688 H   0  0  0  0  0  0  0  0  0  0  0  0
    1.2338   22.5573   41.0099 H   0  0  0  0  0  0  0  0  0  0  0  0
    1.2625   14.2132   44.1368 H   0  0  0  0  0  0  0  0  0  0  0  0
   -0.4472   13.5122   44.1732 H   0  0  0  0  0  0  0  0  0  0  0  0
    2.7882   16.6107   40.4080 H   0  0  0  0  0  0  0  0  0  0  0  0
    1.2049   16.4832   39.5607 H   0  0  0  0  0  0  0  0  0  0  0  0
   -0.1454   13.1931   41.8115 H   0  0  0  0  0  0  0  0  0  0  0  0
    0.5487   20.5319   41.8106 H   0  0  0  0  0  0  0  0  0  0  0  0
   -1.3373   15.2802   44.1568 H   0  0  0  0  0  0  0  0  0  0  0  0
    0.2589   15.4576   45.1902 H   0  0  0  0  0  0  0  0  0  0  0  0
  1 21  1  0
  2 15  2  0
  3 23  2  3
  4 21  1  0
  4 18  1  0
  4 17  1  0
  6 21  1  0
  7  9  1  0
  8 20  1  0
  8  3  1  0
  9 20  2  0
 10 22  1  0
 11  3  1  0
 12 22  1  0
 12  5  2  3
 14 24  2  0
 14  8  1  0
 15 10  1  0
 16 12  1  0
 17  7  3  0
 18 14  1  0
 19  2  1  0
 19 16  2  0
 21 13  1  0
 23 16  1  0
 24 11  1  0
  2 25  1  0
  4 26  1  1
  5 27  1  0
  5 28  1  0
  8 29  1  6
  9 30  1  0
 10 31  1  0
 10 32  1  0
 11 33  1  0
 11 34  1  0
 15 35  1  0
 20 36  1  0
 22 37  1  0
 22 38  1  0
M  END
>  <mol_id>  (27) 
2026-08-24-6tgu-s0-n100-seed1-0028

>  <rmsd_to_ref>  (27) 


$$$$

     RDKit          3D

 31 33  0  0  0  0  0  0  0  0999 V2000
   -1.4466   19.1714   44.1532 N   0  0  0  0  0  0  0  0  0  0  0  0
    1.3879   17.9204   41.4959 C   0  0  0  0  0  0  0  0  0  0  0  0
    3.4249   18.8391   37.5719 C   0  0  0  0  0  0  0  0  0  0  0  0
    0.4673   18.1742   42.4850 C   0  0  1  0  0  0  0  0  0  0  0  0
    1.3496   20.4334   38.5395 C   0  0  0  0  0  0  0  0  0  0  0  0
   -1.3253   19.7513   42.9493 C   0  0  0  0  0  0  0  0  0  0  0  0
    0.0371   19.7260   40.9332 N   0  0  0  0  0  0  0  0  0  0  0  0
   -1.0989   17.3669   45.7338 N   0  0  0  0  0  0  0  0  0  0  0  0
    3.1921   17.4369   39.4323 O   0  0  0  0  0  0  0  0  0  0  0  0
    3.6871   20.2915   35.7796 O   0  0  0  0  0  0  0  0  0  0  0  0
    1.0994   18.9907   40.5030 C   0  0  0  0  0  0  0  0  0  0  0  0
    2.7574   18.5673   38.7676 C   0  0  0  0  0  0  0  0  0  0  0  0
    1.7411   19.3398   39.2773 C   0  0  0  0  0  0  0  0  0  0  0  0
    4.3651   17.9678   37.0222 C   0  0  0  0  0  0  0  0  0  0  0  0
    3.0701   19.9258   36.8676 C   0  0  0  0  0  0  0  0  0  0  0  0
    2.0207   20.8014   37.3254 C   0  0  0  0  0  0  0  0  0  0  0  0
    5.1005   17.2735   36.5886 N   0  0  0  0  0  0  0  0  0  0  0  0
   -0.7497   18.0650   44.5219 C   0  0  0  0  0  0  0  0  0  0  0  0
    0.2782   17.5455   43.6551 C   0  0  0  0  0  0  0  0  0  0  0  0
   -0.3370   19.2931   42.1325 C   0  0  0  0  0  0  0  0  0  0  0  0
    2.1471   17.1258   41.4501 H   0  0  0  0  0  0  0  0  0  0  0  0
   -0.2422   17.4868   42.0011 H   0  0  0  0  0  0  0  0  0  0  0  0
    0.5013   21.0404   38.8889 H   0  0  0  0  0  0  0  0  0  0  0  0
   -1.9970   20.5638   42.6351 H   0  0  0  0  0  0  0  0  0  0  0  0
   -0.9777   17.9966   46.5398 H   0  0  0  0  0  0  0  0  0  0  0  0
   -2.0807   17.0600   45.6824 H   0  0  0  0  0  0  0  0  0  0  0  0
   -0.4877   16.5453   45.8450 H   0  0  0  0  0  0  0  0  0  0  0  0
    2.7707   17.1734   40.2886 H   0  0  0  0  0  0  0  0  0  0  0  0
    3.3919   21.1005   35.2912 H   0  0  0  0  0  0  0  0  0  0  0  0
    1.7467   21.7103   36.7696 H   0  0  0  0  0  0  0  0  0  0  0  0
    0.8817   16.6713   43.9406 H   0  0  0  0  0  0  0  0  0  0  0  0
  1 18  1  0
  3 12  1  0
  4  2  1  0
  4 19  1  0
  5 13  1  0
  6  1  2  0
  7 20  2  0
 10 15  1  0
 11  7  1  0
 11  2  2  0
 12  9  1  0
 12 13  2  0
 13 11  1  0
 14  3  1  0
 15  3  2  0
 15 16  1  0
 16  5  2  0
 17 14  3  0
 18  8  1  0
 19 18  2  0
 20  4  1  0
 20  6  1  0
  2 21  1  0
  4 22  1  6
  5 23  1  0
  6 24  1  0
  8 25  1  0
  8 26  1  0
  8 27  1  0
  9 28  1  0
 10 29  1  0
 16 30  1  0
 19 31  1  0
M  CHG  1   8   1
M  END
>  <mol_id>  (28) 
2026-08-24-6tgu-s0-n100-seed1-0029

>  <rmsd_to_ref>  (28) 


$$$$

     RDKit          3D

 58 63  0  0  0  0  0  0  0  0999 V2000
    2.7715   18.2778   38.7039 C   0  0  0  0  0  0  0  0  0  0  0  0
   -1.1883   20.1222   43.2964 N   0  0  0  0  0  0  0  0  0  0  0  0
    2.1251   17.3367   40.5256 C   0  0  2  0  0  0  0  0  0  0  0  0
   -2.0939   15.6492   47.1745 C   0  0  0  0  0  0  0  0  0  0  0  0
    0.6236   18.2071   42.3438 C   0  0  0  0  0  0  0  0  0  0  0  0
    4.0399   16.9282   36.5674 C   0  0  0  0  0  0  0  0  0  0  0  0
   -1.1893   16.5409   46.6455 C   0  0  0  0  0  0  0  0  0  0  0  0
    2.1287   18.5261   39.8956 O   0  0  0  0  0  0  0  0  0  0  0  0
    3.1014   16.8897   38.7223 C   0  0  2  0  0  0  0  0  0  0  0  0
    2.8883   19.3862   37.8570 C   0  0  0  0  0  0  0  0  0  0  0  0
   -0.9925   15.0959   46.4640 C   0  0  0  0  0  0  0  0  0  0  0  0
   -1.0729   19.0144   43.9631 C   0  0  0  0  0  0  0  0  0  0  0  0
    3.3180   13.8547   36.3691 C   0  0  0  0  0  0  0  0  0  0  0  0
    1.4407   17.0317   41.8880 C   0  0  0  0  0  0  0  0  0  0  0  0
    3.2486   19.3542   36.5934 C   0  0  0  0  0  0  0  0  0  0  0  0
    4.6375   12.1771   38.0042 C   0  0  0  0  0  0  0  0  0  0  0  0
    3.8222   20.7270   34.5929 C   0  0  0  0  0  0  0  0  0  0  0  0
   -0.3651   20.4163   42.3216 C   0  0  0  0  0  0  0  0  0  0  0  0
    4.5401   13.2185   35.7046 C   0  0  0  0  0  0  0  0  0  0  0  0
    4.5416   13.6759   38.4522 C   0  0  0  0  0  0  0  0  0  0  0  0
    3.0897   20.4696   35.7839 O   0  0  0  0  0  0  0  0  0  0  0  0
    0.5061   19.4675   41.7858 C   0  0  0  0  0  0  0  0  0  0  0  0
    3.6957   14.5478   37.6274 C   0  0  0  0  0  0  0  0  0  0  0  0
    5.0731   12.0913   36.5322 C   0  0  0  0  0  0  0  0  0  0  0  0
    3.7556   18.1172   36.1364 C   0  0  0  0  0  0  0  0  0  0  0  0
   -1.0624   17.2778   45.3729 C   0  0  0  0  0  0  0  0  0  0  0  0
   -1.6032   18.5110   45.0928 N   0  0  0  0  0  0  0  0  0  0  0  0
   -0.3447   16.8964   44.2613 N   0  0  0  0  0  0  0  0  0  0  0  0
    3.7506   16.1138   37.6867 C   0  0  0  0  0  0  0  0  0  0  0  0
    2.6548   16.3315   39.8423 O   0  0  0  0  0  0  0  0  0  0  0  0
   -0.2288   18.0000   43.4989 C   0  0  0  0  0  0  0  0  0  0  0  0
    1.1997   17.0605   39.9989 H   0  0  0  0  0  0  0  0  0  0  0  0
   -2.1525   15.5216   48.2655 H   0  0  0  0  0  0  0  0  0  0  0  0
   -3.1847   15.5358   47.0890 H   0  0  0  0  0  0  0  0  0  0  0  0
    4.6949   16.4008   35.8583 H   0  0  0  0  0  0  0  0  0  0  0  0
   -0.8339   17.4603   47.1338 H   0  0  0  0  0  0  0  0  0  0  0  0
    4.0826   17.1287   39.1583 H   0  0  0  0  0  0  0  0  0  0  0  0
    2.6580   20.3719   38.2874 H   0  0  0  0  0  0  0  0  0  0  0  0
   -1.1402   14.6315   45.4779 H   0  0  0  0  0  0  0  0  0  0  0  0
   -0.1943   14.3686   46.6735 H   0  0  0  0  0  0  0  0  0  0  0  0
    2.5832   13.0687   36.5981 H   0  0  0  0  0  0  0  0  0  0  0  0
    2.8887   14.5944   35.6773 H   0  0  0  0  0  0  0  0  0  0  0  0
    0.7836   16.1568   41.7747 H   0  0  0  0  0  0  0  0  0  0  0  0
    2.2189   16.8284   42.6382 H   0  0  0  0  0  0  0  0  0  0  0  0
    5.3749   11.6562   38.6326 H   0  0  0  0  0  0  0  0  0  0  0  0
    3.6503   11.7048   38.1152 H   0  0  0  0  0  0  0  0  0  0  0  0
    4.7834   21.1971   34.8480 H   0  0  0  0  0  0  0  0  0  0  0  0
    4.0059   19.7804   34.0636 H   0  0  0  0  0  0  0  0  0  0  0  0
    3.2439   21.4028   33.9457 H   0  0  0  0  0  0  0  0  0  0  0  0
   -0.3604   21.4382   41.9144 H   0  0  0  0  0  0  0  0  0  0  0  0
    4.2523   12.8337   34.7150 H   0  0  0  0  0  0  0  0  0  0  0  0
    5.3244   13.9835   35.6067 H   0  0  0  0  0  0  0  0  0  0  0  0
    5.0779   14.0536   39.3352 H   0  0  0  0  0  0  0  0  0  0  0  0
    1.1105   19.7263   40.9039 H   0  0  0  0  0  0  0  0  0  0  0  0
    4.7074   11.1428   36.1119 H   0  0  0  0  0  0  0  0  0  0  0  0
    6.1711   12.1515   36.5070 H   0  0  0  0  0  0  0  0  0  0  0  0
    3.9840   18.1855   35.0626 H   0  0  0  0  0  0  0  0  0  0  0  0
    0.0274   15.9584   44.0551 H   0  0  0  0  0  0  0  0  0  0  0  0
  1  8  1  0
  2 12  1  0
  3 14  1  0
  5 31  1  0
  6 29  2  0
  7  4  1  0
  8  3  1  0
  9 29  1  0
  9  1  1  0
  9 30  1  0
 10  1  2  0
 11  7  1  0
 11  4  1  0
 12 27  1  0
 13 23  1  0
 14  5  1  0
 15 10  1  0
 16 20  1  0
 17 21  1  0
 18  2  2  0
 19 13  1  0
 19 24  1  0
 21 15  1  0
 22  5  2  0
 22 18  1  0
 23 29  1  0
 23 20  2  0
 24 16  1  0
 25  6  1  0
 25 15  2  0
 26  7  1  0
 27 26  2  0
 28 26  1  0
 30  3  1  0
 31 12  2  0
 31 28  1  0
  3 32  1  1
  4 33  1  0
  4 34  1  0
  6 35  1  0
  7 36  1  0
  9 37  1  1
 10 38  1  0
 11 39  1  0
 11 40  1  0
 13 41  1  0
 13 42  1  0
 14 43  1  0
 14 44  1  0
 16 45  1  0
 16 46  1  0
 17 47  1  0
 17 48  1  0
 17 49  1  0
 18 50  1  0
 19 51  1  0
 19 52  1  0
 20 53  1  0
 22 54  1  0
 24 55  1  0
 24 56  1  0
 25 57  1  0
 28 58  1  0
M  END
>  <mol_id>  (29) 
2026-08-24-6tgu-s0-n100-seed1-0030

>  <rmsd_to_ref>  (29) 


$$$$

     RDKit          3D

 63 67  0  0  0  0  0  0  0  0999 V2000
    3.4688   21.9362   35.5647 C   0  0  0  0  0  0  0  0  0  0  0  0
   -0.5115   12.3861   43.0262 C   0  0  0  0  0  0  0  0  0  0  0  0
    0.1645   16.1403   43.0552 C   0  0  0  0  0  0  0  0  0  0  0  0
   -0.4571   17.0569   43.8760 C   0  0  0  0  0  0  0  0  0  0  0  0
    1.0634   16.5733   42.1290 O   0  0  0  0  0  0  0  0  0  0  0  0
    1.3405   13.0096   41.6369 C   0  0  0  0  0  0  0  0  0  0  0  0
    3.4551   20.4282   35.6403 C   0  0  0  0  0  0  0  0  0  0  0  0
   -1.2224   20.5772   43.5543 N   0  0  0  0  0  0  0  0  0  0  0  0
   -0.7604   13.8102   43.3696 C   0  0  0  0  0  0  0  0  0  0  0  0
    0.1295   14.7150   42.8361 C   0  0  0  0  0  0  0  0  0  0  0  0
    3.1856   17.1626   38.7980 C   0  0  0  0  0  0  0  0  0  0  0  0
    3.1676   17.9737   36.7134 C   0  0  0  0  0  0  0  0  0  0  0  0
    2.8150   19.2149   37.2794 C   0  0  0  0  0  0  0  0  0  0  0  0
   -0.9953   19.3127   43.7958 C   0  0  0  0  0  0  0  0  0  0  0  0
    0.5427   12.0230   42.1999 C   0  0  0  0  0  0  0  0  0  0  0  0
    2.0558   20.3904   38.8459 C   0  0  2  0  0  0  0  0  0  0  0  0
    2.7460   19.3643   38.9972 C   0  0  2  0  0  0  0  0  0  0  0  0
    0.4832   20.4782   41.8859 C   0  0  0  0  0  0  0  0  0  0  0  0
    2.9734   19.9513   37.8349 C   0  0  1  0  0  0  0  0  0  0  0  0
    1.1501   14.3336   41.9221 C   0  0  0  0  0  0  0  0  0  0  0  0
   -0.0781   18.4100   43.2195 C   0  0  0  0  0  0  0  0  0  0  0  0
    0.6497   19.1466   42.1335 C   0  0  0  0  0  0  0  0  0  0  0  0
    3.3312   17.0143   37.4959 C   0  0  0  0  0  0  0  0  0  0  0  0
    2.7319   20.5049   37.2185 N   0  0  0  0  0  0  0  0  0  0  0  0
    2.5238   21.5678   36.7157 C   0  0  0  0  0  0  0  0  0  0  0  0
    0.7414   10.6635   41.8608 C   0  0  0  0  0  0  0  0  0  0  0  0
   -0.5703   21.0994   42.5946 C   0  0  0  0  0  0  0  0  0  0  0  0
    1.7187   15.4341   41.5386 C   0  0  0  0  0  0  0  0  0  0  0  0
    2.8741   18.2385   39.3885 C   0  0  0  0  0  0  0  0  0  0  0  0
    1.2340   21.3368   41.0605 C   0  0  0  0  0  0  0  0  0  0  0  0
    1.4771   21.2631   39.6883 C   0  0  0  0  0  0  0  0  0  0  0  0
    4.4070   22.4499   35.8214 H   0  0  0  0  0  0  0  0  0  0  0  0
    3.2775   22.5843   34.6967 H   0  0  0  0  0  0  0  0  0  0  0  0
   -1.1732   11.6075   43.4333 H   0  0  0  0  0  0  0  0  0  0  0  0
   -1.5472   16.9097   43.8818 H   0  0  0  0  0  0  0  0  0  0  0  0
   -0.1497   16.9802   44.9294 H   0  0  0  0  0  0  0  0  0  0  0  0
    2.1449   12.7197   40.9449 H   0  0  0  0  0  0  0  0  0  0  0  0
    2.8218   19.9473   34.8803 H   0  0  0  0  0  0  0  0  0  0  0  0
    4.3820   19.8571   35.4828 H   0  0  0  0  0  0  0  0  0  0  0  0
   -1.6005   14.1211   44.0081 H   0  0  0  0  0  0  0  0  0  0  0  0
    3.3491   16.2743   39.4260 H   0  0  0  0  0  0  0  0  0  0  0  0
    3.2940   17.8279   35.6305 H   0  0  0  0  0  0  0  0  0  0  0  0
    2.8971   18.9646   37.1070 H   0  0  0  0  0  0  0  0  0  0  0  0
    2.6912   18.3115   37.8947 H   0  0  0  0  0  0  0  0  0  0  0  0
    1.9002   19.3877   36.6935 H   0  0  0  0  0  0  0  0  0  0  0  0
    3.6673   19.0801   36.5972 H   0  0  0  0  0  0  0  0  0  0  0  0
   -1.6283   18.8784   44.5837 H   0  0  0  0  0  0  0  0  0  0  0  0
    1.1259   20.9756   38.7932 H   0  0  0  0  0  0  0  0  0  0  0  0
    3.1249   18.9122   39.9257 H   0  0  0  0  0  0  0  0  0  0  0  0
    1.3544   18.5836   41.5039 H   0  0  0  0  0  0  0  0  0  0  0  0
    3.6016   16.0276   37.0917 H   0  0  0  0  0  0  0  0  0  0  0  0
    2.6184   22.3383   37.4950 H   0  0  0  0  0  0  0  0  0  0  0  0
    1.5158   21.5095   36.2794 H   0  0  0  0  0  0  0  0  0  0  0  0
    0.8455   10.0679   42.7796 H   0  0  0  0  0  0  0  0  0  0  0  0
   -0.1216   10.2997   41.2838 H   0  0  0  0  0  0  0  0  0  0  0  0
    1.6546   10.5663   41.2553 H   0  0  0  0  0  0  0  0  0  0  0  0
   -0.8497   22.1192   42.2913 H   0  0  0  0  0  0  0  0  0  0  0  0
    2.5808   15.4900   40.8577 H   0  0  0  0  0  0  0  0  0  0  0  0
    2.6849   18.1169   40.4652 H   0  0  0  0  0  0  0  0  0  0  0  0
    0.7669   22.3229   41.1999 H   0  0  0  0  0  0  0  0  0  0  0  0
    2.2349   21.0383   41.4056 H   0  0  0  0  0  0  0  0  0  0  0  0
    2.0474   22.1847   39.5005 H   0  0  0  0  0  0  0  0  0  0  0  0
    0.4533   20.9442   39.4429 H   0  0  0  0  0  0  0  0  0  0  0  0
  1  7  1  0
  1 25  1  0
  2  9  2  0
  3  4  1  0
  5  3  1  0
  6 20  1  0
  6 15  2  0
  7 24  1  0
  8 14  2  0
 10  3  2  0
 10  9  1  0
 11 29  2  3
 12 23  2  3
 15  2  1  0
 16 17  1  0
 16 31  1  0
 17 29  1  0
 18 22  1  0
 18 27  2  0
 19 13  1  6
 19 16  1  0
 19 17  1  0
 20 10  1  0
 21 14  1  0
 21  4  1  0
 22 21  2  0
 23 11  1  0
 24 19  1  0
 25 24  1  0
 26 15  1  0
 27  8  1  0
 28  5  1  0
 28 20  2  0
 30 18  1  0
 31 30  1  0
  1 32  1  0
  1 33  1  0
  2 34  1  0
  4 35  1  0
  4 36  1  0
  6 37  1  0
  7 38  1  0
  7 39  1  0
  9 40  1  0
 11 41  1  0
 12 42  1  0
 12 43  1  0
 13 44  1  0
 13 45  1  0
 13 46  1  0
 14 47  1  0
 16 48  1  6
 17 49  1  1
 22 50  1  0
 23 51  1  0
 25 52  1  0
 25 53  1  0
 26 54  1  0
 26 55  1  0
 26 56  1  0
 27 57  1  0
 28 58  1  0
 29 59  1  0
 30 60  1  0
 30 61  1  0
 31 62  1  0
 31 63  1  0
M  END
>  <mol_id>  (30) 
2026-08-24-6tgu-s0-n100-seed1-0031

>  <rmsd_to_ref>  (30) 


$$$$

     RDKit          3D

 30 33  0  0  0  0  0  0  0  0999 V2000
    0.3339   18.7832   41.4921 C   0  0  0  0  0  0  0  0  0  0  0  0
    1.2160   18.2701   40.6748 N   0  0  0  0  0  0  0  0  0  0  0  0
    0.0040   17.7710   42.2740 C   0  0  0  0  0  0  0  0  0  0  0  0
    2.7481   20.8708   38.6665 C   0  0  0  0  0  0  0  0  0  0  0  0
    2.7500   18.0180   38.8340 C   0  0  0  0  0  0  0  0  0  0  0  0
    1.9970   16.0805   40.0500 C   0  0  0  0  0  0  0  0  0  0  0  0
    1.2412   16.8453   40.8894 C   0  0  0  0  0  0  0  0  0  0  0  0
   -0.9911   20.0437   43.0855 C   0  0  0  0  0  0  0  0  0  0  0  0
   -1.3796   18.8120   43.7956 C   0  0  0  0  0  0  0  0  0  0  0  0
   -0.2462   19.9366   41.9151 C   0  0  0  0  0  0  0  0  0  0  0  0
    2.6952   16.5734   38.9699 N   0  0  0  0  0  0  0  0  0  0  0  0
    3.5575   20.1197   37.7724 C   0  0  0  0  0  0  0  0  0  0  0  0
    3.7400   18.7487   37.7958 C   0  0  0  0  0  0  0  0  0  0  0  0
    1.9662   14.6029   40.4549 C   0  0  0  0  0  0  0  0  0  0  0  0
    1.9444   20.3310   39.6171 C   0  0  0  0  0  0  0  0  0  0  0  0
   -0.7312   17.6601   43.3772 C   0  0  0  0  0  0  0  0  0  0  0  0
    0.4923   16.6021   41.8367 N   0  0  0  0  0  0  0  0  0  0  0  0
   -1.3987   21.2056   43.5432 O   0  0  0  0  0  0  0  0  0  0  0  0
    1.9261   18.7070   39.6865 C   0  0  0  0  0  0  0  0  0  0  0  0
    2.7750   21.9673   38.5822 H   0  0  0  0  0  0  0  0  0  0  0  0
   -2.1302   18.8069   44.5997 H   0  0  0  0  0  0  0  0  0  0  0  0
   -0.1198   20.8376   41.2968 H   0  0  0  0  0  0  0  0  0  0  0  0
    4.0881   20.6804   36.9889 H   0  0  0  0  0  0  0  0  0  0  0  0
    4.4776   18.2182   37.1757 H   0  0  0  0  0  0  0  0  0  0  0  0
    1.8127   14.5236   41.5413 H   0  0  0  0  0  0  0  0  0  0  0  0
    1.1430   14.0960   39.9302 H   0  0  0  0  0  0  0  0  0  0  0  0
    2.9209   14.1285   40.1838 H   0  0  0  0  0  0  0  0  0  0  0  0
    1.3436   20.9525   40.2972 H   0  0  0  0  0  0  0  0  0  0  0  0
   -0.8194   16.7104   43.9252 H   0  0  0  0  0  0  0  0  0  0  0  0
   -1.1437   22.0394   43.0742 H   0  0  0  0  0  0  0  0  0  0  0  0
  1 10  2  0
  1  3  1  0
  2  7  1  0
  2  1  1  0
  3 16  2  0
  4 15  1  0
  5 11  1  0
  5 19  1  0
  6 14  1  0
  6  7  1  0
  7 17  2  0
  8 18  1  0
  8  9  2  0
 10  8  1  0
 11  6  2  0
 12 13  1  0
 12  4  2  0
 13  5  2  0
 15 19  2  0
 16  9  1  0
 17  3  1  0
 19  2  1  0
  4 20  1  0
  9 21  1  0
 10 22  1  0
 12 23  1  0
 13 24  1  0
 14 25  1  0
 14 26  1  0
 14 27  1  0
 15 28  1  0
 16 29  1  0
 18 30  1  0
M  END
>  <mol_id>  (31) 
2026-08-24-6tgu-s0-n100-seed1-0032

>  <rmsd_to_ref>  (31) 


$$$$

     RDKit          3D

 20 22  0  0  0  0  0  0  0  0999 V2000
   -1.0201   19.0803   43.4581 N   0  0  0  0  0  0  0  0  0  0  0  0
    3.2356   20.1499   37.2502 C   0  0  0  0  0  0  0  0  0  0  0  0
    1.7823   17.9697   41.5037 C   0  0  0  0  0  0  0  0  0  0  0  0
    0.3117   17.2654   43.4546 N   0  0  0  0  0  0  0  0  0  0  0  0
    2.4984   18.8854   39.3737 N   0  0  0  0  0  0  0  0  0  0  0  0
    1.8232   18.9095   40.4606 C   0  0  0  0  0  0  0  0  0  0  0  0
    4.1472   19.2873   36.9149 O   0  0  0  0  0  0  0  0  0  0  0  0
    1.3720   21.0225   39.1718 S   0  0  0  0  0  0  0  0  0  0  0  0
   -0.1239   19.1913   42.4154 C   0  0  0  0  0  0  0  0  0  0  0  0
    2.5015   19.8659   38.5302 C   0  0  0  0  0  0  0  0  0  0  0  0
   -0.7235   17.8956   44.0610 C   0  0  0  0  0  0  0  0  0  0  0  0
    0.6826   18.1342   42.4969 C   0  0  0  0  0  0  0  0  0  0  0  0
    2.5792   17.0184   41.5112 O   0  0  0  0  0  0  0  0  0  0  0  0
    2.8007   21.0710   36.4953 O   0  0  0  0  0  0  0  0  0  0  0  0
    1.0085   20.0842   40.4974 C   0  0  0  0  0  0  0  0  0  0  0  0
    0.0634   20.2262   41.4781 C   0  0  0  0  0  0  0  0  0  0  0  0
   -0.4572   18.0877   45.1109 H   0  0  0  0  0  0  0  0  0  0  0  0
   -1.6079   17.2455   43.9890 H   0  0  0  0  0  0  0  0  0  0  0  0
    0.3263   21.1300   42.0474 H   0  0  0  0  0  0  0  0  0  0  0  0
   -0.8854   20.2460   40.9219 H   0  0  0  0  0  0  0  0  0  0  0  0
  1 11  1  0
  2 10  1  0
  3 12  1  0
  4 11  1  0
  5  6  1  0
  6 15  2  0
  6  3  1  0
  7  2  1  0
  8 15  1  0
  9  1  2  0
 10  5  2  0
 10  8  1  0
 12  9  1  0
 12  4  2  0
 13  3  2  0
 14  2  2  0
 15 16  1  0
 16  9  1  0
 11 17  1  0
 11 18  1  0
 16 19  1  0
 16 20  1  0
M  CHG  1   7  -1
M  END
>  <mol_id>  (32) 
2026-08-24-6tgu-s0-n100-seed1-0033

>  <rmsd_to_ref>  (32) 


$$$$

     RDKit          3D

 52 54  0  0  0  0  0  0  0  0999 V2000
    4.6709   19.4005   36.7130 O   0  0  0  0  0  0  0  0  0  0  0  0
    2.0472   19.5988   40.6722 C   0  0  0  0  0  0  0  0  0  0  0  0
   -1.1642   18.1041   43.5118 S   0  0  0  0  0  6  0  0  0  0  0  0
    0.1345   16.2818   42.8311 C   0  0  0  0  0  0  0  0  0  0  0  0
    2.6887   20.2566   36.4397 O   0  0  0  0  0  0  0  0  0  0  0  0
    2.5116   15.7299   41.3887 N   0  0  0  0  0  0  0  0  0  0  0  0
    5.4273   13.9224   38.3161 C   0  0  0  0  0  0  0  0  0  0  0  0
    2.6257   19.8132   39.3744 O   0  0  0  0  0  0  0  0  0  0  0  0
   -1.2631   12.2731   44.6896 C   0  0  0  0  0  0  0  0  0  0  0  0
   -2.3412   18.7311   42.8379 O   0  0  0  0  0  0  0  0  0  0  0  0
   -0.4744   14.5253   44.2642 C   0  0  1  0  0  0  0  0  0  0  0  0
   -0.6902   16.7041   43.6950 N   0  0  0  0  0  0  0  0  0  0  0  0
    3.9237   15.2456   39.6833 C   0  0  0  0  0  0  0  0  0  0  0  0
    0.4679   14.8584   42.9915 C   0  0  0  0  0  0  0  0  0  0  0  0
    4.7843   16.1675   37.8719 N   0  0  0  0  0  0  0  0  0  0  0  0
   -1.0390   15.8878   44.6641 C   0  0  0  0  0  0  0  0  0  0  0  0
    3.4618   17.8133   38.9479 C   0  0  1  0  0  0  0  0  0  0  0  0
    2.5217   14.6520   41.8279 O   0  0  0  0  0  0  0  0  0  0  0  0
    0.4613   17.1861   42.0416 N   0  0  0  0  0  0  0  0  0  0  0  0
   -0.1293   19.4899   41.8412 C   0  0  0  0  0  0  0  0  0  0  0  0
    4.6824   15.1726   38.7024 C   0  0  0  0  0  0  0  0  0  0  0  0
   -0.1489   18.2492   42.3354 C   0  0  0  0  0  0  0  0  0  0  0  0
   -1.1467   18.6880   44.8214 O   0  0  0  0  0  0  0  0  0  0  0  0
    4.0209   17.2247   37.9311 C   0  0  0  0  0  0  0  0  0  0  0  0
    3.1428   19.1594   38.3951 C   0  0  1  0  0  0  0  0  0  0  0  0
    3.4972   19.6245   37.0882 C   0  0  0  0  0  0  0  0  0  0  0  0
    3.0080   17.4326   39.9737 N   0  0  0  0  0  0  0  0  0  0  0  0
    0.7211   19.8379   40.6027 C   0  0  0  0  0  0  0  0  0  0  0  0
   -1.4344   13.4554   44.1551 C   0  0  0  0  0  0  0  0  0  0  0  0
    3.2369   16.1397   40.2738 C   0  0  0  0  0  0  0  0  0  0  0  0
    2.5084   20.2826   41.4000 H   0  0  0  0  0  0  0  0  0  0  0  0
    2.2233   18.5614   40.9928 H   0  0  0  0  0  0  0  0  0  0  0  0
    5.6143   13.3149   39.2139 H   0  0  0  0  0  0  0  0  0  0  0  0
    4.8254   13.3433   37.6003 H   0  0  0  0  0  0  0  0  0  0  0  0
    6.3864   14.1956   37.8520 H   0  0  0  0  0  0  0  0  0  0  0  0
   -2.0347   11.4984   44.5698 H   0  0  0  0  0  0  0  0  0  0  0  0
   -0.3474   12.0542   45.2585 H   0  0  0  0  0  0  0  0  0  0  0  0
    0.1247   14.0556   45.0582 H   0  0  0  0  0  0  0  0  0  0  0  0
    4.5625   14.8714   40.4968 H   0  0  0  0  0  0  0  0  0  0  0  0
    3.0595   14.8433   39.1344 H   0  0  0  0  0  0  0  0  0  0  0  0
    0.1913   14.2668   42.1064 H   0  0  0  0  0  0  0  0  0  0  0  0
    1.5368   14.6324   43.1198 H   0  0  0  0  0  0  0  0  0  0  0  0
   -2.1344   15.8404   44.7528 H   0  0  0  0  0  0  0  0  0  0  0  0
   -0.6555   16.2210   45.6398 H   0  0  0  0  0  0  0  0  0  0  0  0
    3.9788   17.4125   39.8322 H   0  0  0  0  0  0  0  0  0  0  0  0
   -0.7286   20.2753   42.3249 H   0  0  0  0  0  0  0  0  0  0  0  0
    4.6288   18.0162   37.4687 H   0  0  0  0  0  0  0  0  0  0  0  0
    3.1107   16.7591   37.5251 H   0  0  0  0  0  0  0  0  0  0  0  0
    4.0932   19.5471   38.7908 H   0  0  0  0  0  0  0  0  0  0  0  0
    0.5896   20.9117   40.4034 H   0  0  0  0  0  0  0  0  0  0  0  0
    0.3552   19.1656   39.8127 H   0  0  0  0  0  0  0  0  0  0  0  0
   -2.3607   13.6427   43.5924 H   0  0  0  0  0  0  0  0  0  0  0  0
  1 26  2  0
  2 28  1  0
  3 23  2  0
  4 12  1  0
  5 26  1  0
  6 18  2  0
  7 21  1  0
  8  2  1  0
 10  3  2  0
 11 29  1  0
 11 16  1  0
 12  3  1  0
 12 16  1  0
 13 30  1  0
 14  4  1  0
 14 11  1  0
 15 24  1  0
 15 21  2  0
 17 25  1  0
 17 27  1  0
 19 22  1  0
 19  4  2  0
 20 22  2  3
 21 13  1  0
 22  3  1  0
 24 17  1  0
 25 26  1  0
 25  8  1  0
 27 30  2  0
 28 20  1  0
 29  9  2  3
 30  6  1  0
  2 31  1  0
  2 32  1  0
  7 33  1  0
  7 34  1  0
  7 35  1  0
  9 36  1  0
  9 37  1  0
 11 38  1  1
 13 39  1  0
 13 40  1  0
 14 41  1  0
 14 42  1  0
 16 43  1  0
 16 44  1  0
 17 45  1  1
 20 46  1  0
 24 47  1  0
 24 48  1  0
 25 49  1  6
 28 50  1  0
 28 51  1  0
 29 52  1  0
M  CHG  1   5  -1
M  END
>  <mol_id>  (33) 
2026-08-24-6tgu-s0-n100-seed1-0034

>  <rmsd_to_ref>  (33) 


$$$$

     RDKit          3D

 25 25  0  0  0  0  0  0  0  0999 V2000
    0.3436   19.3029   42.6815 N   0  0  0  0  0  0  0  0  0  0  0  0
    0.7711   20.4014   42.0087 C   0  0  0  0  0  0  0  0  0  0  0  0
    2.7809   20.1960   37.1916 C   0  0  0  0  0  0  0  0  0  0  0  0
    0.0012   16.9078   42.8199 C   0  0  0  0  0  0  0  0  0  0  0  0
    1.8606   19.1207   40.3015 C   0  0  0  0  0  0  0  0  0  0  0  0
    3.0336   19.7918   36.0227 O   0  0  0  0  0  0  0  0  0  0  0  0
    1.8419   21.5035   40.2480 N   0  0  0  0  0  0  0  0  0  0  0  0
    1.3583   16.5189   40.1983 C   0  0  0  0  0  0  0  0  0  0  0  0
    2.5534   21.3698   37.4475 O   0  0  0  0  0  0  0  0  0  0  0  0
    2.9028   19.0734   38.2092 C   0  0  0  0  0  0  0  0  0  0  0  0
    2.9086   19.1445   39.4407 O   0  0  0  0  0  0  0  0  0  0  0  0
    1.4697   20.3419   40.8201 C   0  0  0  0  0  0  0  0  0  0  0  0
    0.5143   18.0600   42.0590 C   0  0  0  0  0  0  0  0  0  0  0  0
    1.2403   17.9423   40.8666 C   0  0  0  0  0  0  0  0  0  0  0  0
    0.5489   21.3915   42.4332 H   0  0  0  0  0  0  0  0  0  0  0  0
    0.2264   17.0442   43.8880 H   0  0  0  0  0  0  0  0  0  0  0  0
   -1.0874   16.8323   42.6813 H   0  0  0  0  0  0  0  0  0  0  0  0
    0.4816   15.9866   42.4586 H   0  0  0  0  0  0  0  0  0  0  0  0
    1.5366   22.3991   40.6550 H   0  0  0  0  0  0  0  0  0  0  0  0
    2.4318   21.4961   39.4037 H   0  0  0  0  0  0  0  0  0  0  0  0
    1.5813   15.7685   40.9710 H   0  0  0  0  0  0  0  0  0  0  0  0
    0.4084   16.2658   39.7047 H   0  0  0  0  0  0  0  0  0  0  0  0
    2.1674   16.5296   39.4532 H   0  0  0  0  0  0  0  0  0  0  0  0
    2.0645   18.4000   37.9771 H   0  0  0  0  0  0  0  0  0  0  0  0
    3.9672   18.8395   38.0595 H   0  0  0  0  0  0  0  0  0  0  0  0
  2  1  2  0
  3  9  1  0
  3 10  1  0
  5 12  2  0
  5 14  1  0
  6  3  2  0
  7 12  1  0
  8 14  1  0
 10 11  1  0
 11  5  1  0
 12  2  1  0
 13  1  1  0
 13  4  1  0
 14 13  2  0
  2 15  1  0
  4 16  1  0
  4 17  1  0
  4 18  1  0
  7 19  1  0
  7 20  1  0
  8 21  1  0
  8 22  1  0
  8 23  1  0
 10 24  1  0
 10 25  1  0
M  CHG  1   9  -1
M  END
>  <mol_id>  (34) 
2026-08-24-6tgu-s0-n100-seed1-0035

>  <rmsd_to_ref>  (34) 


$$$$

     RDKit          3D

 56 60  0  0  0  0  0  0  0  0999 V2000
    2.4465   15.4473   40.7583 C   0  0  0  0  0  0  0  0  0  0  0  0
   -0.5765   15.4859   45.2841 C   0  0  0  0  0  0  0  0  0  0  0  0
    0.7591   16.8855   42.0711 N   0  0  0  0  0  0  0  0  0  0  0  0
    2.8254   18.7648   39.3742 C   0  0  1  0  0  0  0  0  0  0  0  0
    4.9584   13.6118   35.3402 C   0  0  0  0  0  0  0  0  0  0  0  0
    3.2872   19.9995   36.5927 O   0  0  0  0  0  0  0  0  0  0  0  0
    4.1726   17.9014   36.0719 N   0  0  0  0  0  0  0  0  0  0  0  0
    5.8699   14.5990   35.5053 N   0  0  0  0  0  0  0  0  0  0  0  0
    3.8081   18.3160   38.3417 C   0  0  2  0  0  0  0  0  0  0  0  0
    6.0159   12.9345   33.2835 O   0  0  0  0  0  0  0  0  0  0  0  0
    4.3287   16.3933   36.5687 C   0  0  0  0  0  0  0  0  0  0  0  0
   -0.6045   14.1867   45.0943 C   0  0  0  0  0  0  0  0  0  0  0  0
    5.2153   12.4665   34.3947 C   0  0  0  0  0  0  0  0  0  0  0  0
    0.5083   18.2324   42.1525 C   0  0  0  0  0  0  0  0  0  0  0  0
   -0.2685   18.6859   43.2731 C   0  0  1  0  0  0  0  0  0  0  0  0
   -0.5447   20.6681   42.3643 C   0  0  0  0  0  0  0  0  0  0  0  0
    1.6521   20.2456   40.4959 C   0  0  0  0  0  0  0  0  0  0  0  0
    2.0710   17.9737   40.4193 C   0  0  0  0  0  0  0  0  0  0  0  0
    1.7697   16.6934   41.0273 C   0  0  0  0  0  0  0  0  0  0  0  0
    1.2554   19.0023   41.1382 C   0  0  0  0  0  0  0  0  0  0  0  0
    4.9679   11.3439   34.5645 O   0  0  0  0  0  0  0  0  0  0  0  0
   -0.3624   13.6598   43.7520 C   0  0  0  0  0  0  0  0  0  0  0  0
    5.5246   15.8595   36.0976 C   0  0  0  0  0  0  0  0  0  0  0  0
    3.3988   14.9781   36.6258 C   0  0  0  0  0  0  0  0  0  0  0  0
    0.0791   14.4974   42.7238 C   0  0  0  0  0  0  0  0  0  0  0  0
    2.6811   20.0601   39.5861 C   0  0  0  0  0  0  0  0  0  0  0  0
    0.1792   15.8792   42.9628 C   0  0  0  0  0  0  0  0  0  0  0  0
    3.6831   13.8879   36.0455 C   0  0  0  0  0  0  0  0  0  0  0  0
   -0.7796   11.9885   43.4756 Cl  0  0  0  0  0  0  0  0  0  0  0  0
   -0.2671   19.9429   43.4410 O   0  0  0  0  0  0  0  0  0  0  0  0
   -1.2886   20.9537   41.7073 O   0  0  0  0  0  0  0  0  0  0  0  0
    3.7724   18.8630   36.8299 C   0  0  0  0  0  0  0  0  0  0  0  0
    3.5010   17.0524   38.1430 O   0  0  0  0  0  0  0  0  0  0  0  0
   -0.4505   16.4136   44.1766 C   0  0  0  0  0  0  0  0  0  0  0  0
   -1.0086   17.8183   44.2836 C   0  0  0  0  0  0  0  0  0  0  0  0
    2.6661   14.9369   41.7077 H   0  0  0  0  0  0  0  0  0  0  0  0
    1.8024   14.8066   40.1381 H   0  0  0  0  0  0  0  0  0  0  0  0
    3.3868   15.6485   40.2241 H   0  0  0  0  0  0  0  0  0  0  0  0
   -0.6504   15.8801   46.3084 H   0  0  0  0  0  0  0  0  0  0  0  0
    2.5893   18.0123   38.6074 H   0  0  0  0  0  0  0  0  0  0  0  0
    4.4044   18.1179   35.0920 H   0  0  0  0  0  0  0  0  0  0  0  0
    4.7673   18.6524   38.7620 H   0  0  0  0  0  0  0  0  0  0  0  0
   -0.8072   13.5047   45.9331 H   0  0  0  0  0  0  0  0  0  0  0  0
    0.6157   18.5983   43.9215 H   0  0  0  0  0  0  0  0  0  0  0  0
    0.3864   21.1593   42.0456 H   0  0  0  0  0  0  0  0  0  0  0  0
    0.7831   20.6640   39.9671 H   0  0  0  0  0  0  0  0  0  0  0  0
    2.0125   20.9297   41.2782 H   0  0  0  0  0  0  0  0  0  0  0  0
    6.3797   16.5438   36.2003 H   0  0  0  0  0  0  0  0  0  0  0  0
    2.4709   15.0081   37.2158 H   0  0  0  0  0  0  0  0  0  0  0  0
    0.3446   14.0811   41.7409 H   0  0  0  0  0  0  0  0  0  0  0  0
    3.6150   20.4758   39.9926 H   0  0  0  0  0  0  0  0  0  0  0  0
    2.4456   20.5723   38.6415 H   0  0  0  0  0  0  0  0  0  0  0  0
    2.9286   13.0876   36.0663 H   0  0  0  0  0  0  0  0  0  0  0  0
    3.3774   16.6017   39.0158 H   0  0  0  0  0  0  0  0  0  0  0  0
   -0.8505   18.2084   45.2999 H   0  0  0  0  0  0  0  0  0  0  0  0
   -2.0891   17.8217   44.0778 H   0  0  0  0  0  0  0  0  0  0  0  0
  1 19  1  0
  3 14  1  0
  3 27  1  0
  4  9  1  0
  4 26  1  0
  4 18  1  0
  5  8  1  0
  5 28  2  0
  6 32  2  0
  7 11  1  0
  7 32  1  0
  8 23  2  0
  9 33  1  0
 10 13  2  0
 11 24  2  0
 12  2  2  0
 13 21  1  0
 13  5  1  0
 14 15  1  0
 15 30  1  0
 15 35  1  0
 16 30  1  0
 17 20  1  0
 18 19  2  0
 18 20  1  0
 19  3  1  0
 20 14  2  0
 22 12  1  0
 23 11  1  0
 25 27  1  0
 25 22  2  0
 26 17  1  0
 27 34  2  0
 28 24  1  0
 29 22  1  0
 31 16  2  0
 32  9  1  0
 34 35  1  0
 34  2  1  0
  1 36  1  0
  1 37  1  0
  1 38  1  0
  2 39  1  0
  4 40  1  6
  7 41  1  0
  9 42  1  1
 12 43  1  0
 15 44  1  6
 16 45  1  0
 17 46  1  0
 17 47  1  0
 23 48  1  0
 24 49  1  0
 25 50  1  0
 26 51  1  0
 26 52  1  0
 28 53  1  0
 33 54  1  0
 35 55  1  0
 35 56  1  0
M  CHG  1  21  -1
M  END
>  <mol_id>  (35) 
2026-08-24-6tgu-s0-n100-seed1-0036

>  <rmsd_to_ref>  (35) 


$$$$

     RDKit          3D

 41 42  0  0  0  0  0  0  0  0999 V2000
   -0.4515   14.1052   44.2764 C   0  0  0  0  0  0  0  0  0  0  0  0
    0.9366   12.0882   42.7576 C   0  0  0  0  0  0  0  0  0  0  0  0
    2.1766   20.0288   38.6551 C   0  0  0  0  0  0  0  0  0  0  0  0
    2.1291   18.5871   40.7577 C   0  0  2  0  0  0  0  0  0  0  0  0
    3.6063   19.8984   36.7923 C   0  0  0  0  0  0  0  0  0  0  0  0
    0.2034   14.4835   43.0657 C   0  0  0  0  0  0  0  0  0  0  0  0
    2.1978   16.2080   40.7468 O   0  0  0  0  0  0  0  0  0  0  0  0
    0.8989   13.4404   42.2558 C   0  0  0  0  0  0  0  0  0  0  0  0
    2.6241   18.8382   39.3147 C   0  0  0  0  0  0  0  0  0  0  0  0
    0.0737   15.9999   42.6388 C   0  0  0  0  0  0  0  0  0  0  0  0
    3.5790   18.0850   38.4898 C   0  0  0  0  0  0  0  0  0  0  0  0
    3.9238   16.6702   38.6608 C   0  0  0  0  0  0  0  0  0  0  0  0
   -0.8220   16.6518   43.7249 C   0  0  0  0  0  0  0  0  0  0  0  0
    2.5976   20.5411   37.4452 C   0  0  0  0  0  0  0  0  0  0  0  0
    0.3336   11.7346   43.9983 C   0  0  0  0  0  0  0  0  0  0  0  0
    1.6405   17.2353   41.0612 C   0  0  0  0  0  0  0  0  0  0  0  0
    2.8849   21.1776   35.3204 O   0  0  0  0  0  0  0  0  0  0  0  0
    0.6254   17.1742   41.8441 N   0  0  0  0  0  0  0  0  0  0  0  0
    4.0617   20.6339   35.6860 O   0  0  0  0  0  0  0  0  0  0  0  0
    3.9979   18.6602   37.2538 C   0  0  0  0  0  0  0  0  0  0  0  0
   -0.3240   12.7322   44.7745 C   0  0  0  0  0  0  0  0  0  0  0  0
    1.1077   19.7052   41.1174 C   0  0  0  0  0  0  0  0  0  0  0  0
   -1.0498   14.8411   44.8336 H   0  0  0  0  0  0  0  0  0  0  0  0
    1.4436   11.3109   42.1670 H   0  0  0  0  0  0  0  0  0  0  0  0
    1.4006   20.6065   39.1787 H   0  0  0  0  0  0  0  0  0  0  0  0
    3.0119   18.6391   41.4119 H   0  0  0  0  0  0  0  0  0  0  0  0
    1.3726   13.6971   41.2968 H   0  0  0  0  0  0  0  0  0  0  0  0
    3.8541   16.4019   39.7253 H   0  0  0  0  0  0  0  0  0  0  0  0
    3.2255   16.0498   38.0797 H   0  0  0  0  0  0  0  0  0  0  0  0
    4.9504   16.4975   38.3056 H   0  0  0  0  0  0  0  0  0  0  0  0
   -0.5276   16.2772   44.7164 H   0  0  0  0  0  0  0  0  0  0  0  0
   -0.6988   17.7445   43.6944 H   0  0  0  0  0  0  0  0  0  0  0  0
   -1.8747   16.3960   43.5340 H   0  0  0  0  0  0  0  0  0  0  0  0
    2.1323   21.4425   37.0199 H   0  0  0  0  0  0  0  0  0  0  0  0
    0.3753   10.6952   44.3561 H   0  0  0  0  0  0  0  0  0  0  0  0
    2.3435   21.3659   36.1275 H   0  0  0  0  0  0  0  0  0  0  0  0
    4.6826   18.0736   36.6237 H   0  0  0  0  0  0  0  0  0  0  0  0
   -0.7404   12.4694   45.7581 H   0  0  0  0  0  0  0  0  0  0  0  0
    0.9483   19.7198   42.2057 H   0  0  0  0  0  0  0  0  0  0  0  0
    1.5005   20.6795   40.7912 H   0  0  0  0  0  0  0  0  0  0  0  0
    0.1524   19.5063   40.6096 H   0  0  0  0  0  0  0  0  0  0  0  0
  1 21  2  0
  2 15  2  0
  3  9  1  0
  4 16  1  0
  4 22  1  0
  5 20  2  0
  5 14  1  0
  6  1  1  0
  7 16  2  0
  8  2  1  0
  8  6  2  0
  9  4  1  0
 10  6  1  0
 10 13  1  0
 11 12  1  0
 11  9  2  0
 14  3  2  0
 15 21  1  0
 16 18  1  0
 17 19  1  0
 18 10  2  3
 19  5  1  0
 20 11  1  0
  1 23  1  0
  2 24  1  0
  3 25  1  0
  4 26  1  1
  8 27  1  0
 12 28  1  0
 12 29  1  0
 12 30  1  0
 13 31  1  0
 13 32  1  0
 13 33  1  0
 14 34  1  0
 15 35  1  0
 17 36  1  0
 20 37  1  0
 21 38  1  0
 22 39  1  0
 22 40  1  0
 22 41  1  0
M  END
>  <mol_id>  (36) 
2026-08-24-6tgu-s0-n100-seed1-0037

>  <rmsd_to_ref>  (36) 


$$$$

     RDKit          3D

 50 53  0  0  0  0  0  0  0  0999 V2000
   -0.0887   16.6961   43.7186 C   0  0  0  0  0  0  0  0  0  0  0  0
    1.9673   20.6925   38.7506 C   0  0  0  0  0  0  0  0  0  0  0  0
    3.1071   18.2553   38.6238 N   0  0  0  0  0  0  0  0  0  0  0  0
   -0.2739   15.4672   44.2207 C   0  0  0  0  0  0  0  0  0  0  0  0
    1.6775   15.9796   40.4475 N   0  0  0  0  0  0  0  0  0  0  0  0
    3.7062   16.7959   36.3914 C   0  0  0  0  0  0  0  0  0  0  0  0
    3.6673   15.5208   37.4375 C   0  0  0  0  0  0  0  0  0  0  0  0
    2.8091   15.2052   38.2871 C   0  0  0  0  0  0  0  0  0  0  0  0
   -0.7946   19.8231   42.7718 C   0  0  0  0  0  0  0  0  0  0  0  0
    2.4216   12.8916   40.5454 C   0  0  0  0  0  0  0  0  0  0  0  0
    0.6991   16.9534   42.5699 C   0  0  0  0  0  0  0  0  0  0  0  0
    3.0676   18.9693   37.5243 C   0  0  0  0  0  0  0  0  0  0  0  0
    3.2061   21.9697   35.5885 N   0  0  0  0  0  0  0  0  0  0  0  0
    0.3524   14.3400   43.5532 C   0  0  0  0  0  0  0  0  0  0  0  0
    1.2684   21.2452   41.5484 O   0  0  0  0  0  0  0  0  0  0  0  0
    1.0990   18.2534   42.3202 N   0  0  0  0  0  0  0  0  0  0  0  0
    1.1860   15.8723   41.7458 C   0  0  0  0  0  0  0  0  0  0  0  0
    2.3383   15.0311   39.6341 C   0  0  0  0  0  0  0  0  0  0  0  0
    1.7621   13.4442   41.5686 C   0  0  0  0  0  0  0  0  0  0  0  0
    2.7687   13.7923   39.5064 N   0  0  0  0  0  0  0  0  0  0  0  0
    2.5547   20.3487   37.5532 C   0  0  0  0  0  0  0  0  0  0  0  0
    1.1279   14.5199   42.2698 C   0  0  0  0  0  0  0  0  0  0  0  0
    1.1336   20.2348   41.1688 C   0  0  0  0  0  0  0  0  0  0  0  0
    3.4903   18.3984   36.4678 O   0  0  0  0  0  0  0  0  0  0  0  0
    2.8780   21.1789   36.4187 C   0  0  0  0  0  0  0  0  0  0  0  0
    2.5874   18.7510   39.7730 N   0  0  0  0  0  0  0  0  0  0  0  0
    0.4074   19.3579   42.1517 C   0  0  1  0  0  0  0  0  0  0  0  0
   -0.9263   15.2859   45.4550 N   0  0  0  0  0  0  0  0  0  0  0  0
    1.9590   19.8976   39.8961 C   0  0  0  0  0  0  0  0  0  0  0  0
   -0.5718   17.5458   44.2230 H   0  0  0  0  0  0  0  0  0  0  0  0
    1.4659   21.6699   38.8077 H   0  0  0  0  0  0  0  0  0  0  0  0
    4.7179   16.7176   35.9670 H   0  0  0  0  0  0  0  0  0  0  0  0
    2.6963   16.6028   36.0004 H   0  0  0  0  0  0  0  0  0  0  0  0
    3.7375   14.6372   36.7860 H   0  0  0  0  0  0  0  0  0  0  0  0
    4.4359   15.8833   38.1359 H   0  0  0  0  0  0  0  0  0  0  0  0
    2.0042   15.8672   37.9351 H   0  0  0  0  0  0  0  0  0  0  0  0
    3.3049   14.2270   38.3721 H   0  0  0  0  0  0  0  0  0  0  0  0
   -0.7634   19.5966   43.8477 H   0  0  0  0  0  0  0  0  0  0  0  0
   -0.8843   20.9100   42.6282 H   0  0  0  0  0  0  0  0  0  0  0  0
   -1.6604   19.3204   42.3162 H   0  0  0  0  0  0  0  0  0  0  0  0
    3.3484   12.4461   40.9360 H   0  0  0  0  0  0  0  0  0  0  0  0
    1.7393   12.1528   40.0998 H   0  0  0  0  0  0  0  0  0  0  0  0
    0.2601   13.3351   43.9909 H   0  0  0  0  0  0  0  0  0  0  0  0
    2.1193   18.3780   42.2547 H   0  0  0  0  0  0  0  0  0  0  0  0
    0.9079   12.7512   41.5745 H   0  0  0  0  0  0  0  0  0  0  0  0
    2.7266   13.8325   41.9278 H   0  0  0  0  0  0  0  0  0  0  0  0
    3.3280   13.4938   38.6946 H   0  0  0  0  0  0  0  0  0  0  0  0
    0.9982   19.7894   42.9732 H   0  0  0  0  0  0  0  0  0  0  0  0
   -1.0630   14.3367   45.8308 H   0  0  0  0  0  0  0  0  0  0  0  0
   -1.2671   16.1026   45.9822 H   0  0  0  0  0  0  0  0  0  0  0  0
  1  4  2  0
  2 29  2  0
  3 26  2  0
  4 28  1  0
  5 17  1  0
  6  7  1  0
  7  8  1  0
  8 18  1  0
 10 19  1  0
 11  1  1  0
 12  3  1  0
 13 25  3  0
 14  4  1  0
 16 11  1  0
 17 11  2  0
 17 22  1  0
 18 20  1  0
 18  5  2  0
 19 22  1  0
 20 10  1  0
 21 12  2  0
 21  2  1  0
 22 14  2  0
 23 15  2  0
 23 27  1  0
 24  6  1  0
 24 12  1  0
 25 21  1  0
 27  9  1  0
 27 16  1  0
 29 26  1  0
 29 23  1  0
  1 30  1  0
  2 31  1  0
  6 32  1  0
  6 33  1  0
  7 34  1  0
  7 35  1  0
  8 36  1  0
  8 37  1  0
  9 38  1  0
  9 39  1  0
  9 40  1  0
 10 41  1  0
 10 42  1  0
 14 43  1  0
 16 44  1  0
 19 45  1  0
 19 46  1  0
 20 47  1  0
 27 48  1  6
 28 49  1  0
 28 50  1  0
M  END
>  <mol_id>  (37) 
2026-08-24-6tgu-s0-n100-seed1-0039

>  <rmsd_to_ref>  (37) 


$$$$

     RDKit          3D

 43 46  0  0  0  0  0  0  0  0999 V2000
   -0.9737   19.4013   45.1123 C   0  0  0  0  0  0  0  0  0  0  0  0
   -0.5577   17.0090   45.3657 C   0  0  0  0  0  0  0  0  0  0  0  0
   -0.9720   20.4960   44.4178 C   0  0  0  0  0  0  0  0  0  0  0  0
    3.8404   15.7386   36.7768 N   0  0  0  0  0  0  0  0  0  0  0  0
    0.4389   15.8227   43.5825 C   0  0  0  0  0  0  0  0  0  0  0  0
    2.5995   15.9527   38.5080 C   0  0  0  0  0  0  0  0  0  0  0  0
    2.8422   17.1450   37.9500 C   0  0  0  0  0  0  0  0  0  0  0  0
    2.1696   20.8464   38.1026 C   0  0  0  0  0  0  0  0  0  0  0  0
    2.7035   19.5602   37.6112 C   0  0  0  0  0  0  0  0  0  0  0  0
    2.0546   18.5162   39.8466 C   0  0  0  0  0  0  0  0  0  0  0  0
   -0.9094   17.2155   46.6253 N   0  0  0  0  0  0  0  0  0  0  0  0
    0.1591   18.2101   43.4486 C   0  0  0  0  0  0  0  0  0  0  0  0
    1.7912   15.6109   39.6359 N   0  0  0  0  0  0  0  0  0  0  0  0
    1.4928   20.8697   40.3241 C   0  0  0  0  0  0  0  0  0  0  0  0
   -0.1822   15.8485   44.7990 C   0  0  0  0  0  0  0  0  0  0  0  0
    2.5384   18.4138   38.4617 C   0  0  0  0  0  0  0  0  0  0  0  0
   -0.2766   20.4654   43.3259 C   0  0  0  0  0  0  0  0  0  0  0  0
    1.6371   19.5770   40.7345 C   0  0  0  0  0  0  0  0  0  0  0  0
    1.3750   19.4156   41.8392 N   0  0  0  0  0  0  0  0  0  0  0  0
    3.6353   16.9963   36.8212 O   0  0  0  0  0  0  0  0  0  0  0  0
    0.3394   19.3389   42.7784 C   0  0  0  0  0  0  0  0  0  0  0  0
    3.3190   15.1220   37.7977 N   0  0  0  0  0  0  0  0  0  0  0  0
   -0.4785   18.2280   44.6663 C   0  0  0  0  0  0  0  0  0  0  0  0
    0.6250   16.9790   42.8853 C   0  0  0  0  0  0  0  0  0  0  0  0
    1.9060   21.7082   37.0925 F   0  0  0  0  0  0  0  0  0  0  0  0
    3.0912   19.5249   36.3083 O   0  0  0  0  0  0  0  0  0  0  0  0
    1.6176   21.1408   39.2148 C   0  0  0  0  0  0  0  0  0  0  0  0
   -1.4039   19.4307   46.1243 H   0  0  0  0  0  0  0  0  0  0  0  0
   -1.5250   21.3923   44.7354 H   0  0  0  0  0  0  0  0  0  0  0  0
    0.7893   14.8673   43.1649 H   0  0  0  0  0  0  0  0  0  0  0  0
    1.9953   17.5308   40.3320 H   0  0  0  0  0  0  0  0  0  0  0  0
   -1.1782   18.1598   46.9368 H   0  0  0  0  0  0  0  0  0  0  0  0
   -0.9142   16.4319   47.2939 H   0  0  0  0  0  0  0  0  0  0  0  0
    1.7138   14.6283   39.9352 H   0  0  0  0  0  0  0  0  0  0  0  0
    1.2860   16.3471   40.1495 H   0  0  0  0  0  0  0  0  0  0  0  0
    1.2563   21.6548   41.0573 H   0  0  0  0  0  0  0  0  0  0  0  0
   -0.3788   14.9025   45.3248 H   0  0  0  0  0  0  0  0  0  0  0  0
   -0.1609   21.4135   42.7802 H   0  0  0  0  0  0  0  0  0  0  0  0
    2.2596   19.2668   42.3455 H   0  0  0  0  0  0  0  0  0  0  0  0
    1.1251   16.9664   41.9057 H   0  0  0  0  0  0  0  0  0  0  0  0
    3.4571   18.6895   35.9232 H   0  0  0  0  0  0  0  0  0  0  0  0
    1.9581   22.1817   39.3181 H   0  0  0  0  0  0  0  0  0  0  0  0
    0.7640   20.4948   38.9615 H   0  0  0  0  0  0  0  0  0  0  0  0
  2 11  1  0
  3  1  1  0
  4 20  1  0
  4 22  2  0
  5 15  1  0
  6 13  1  0
  7  6  2  0
  7 16  1  0
  8 27  1  0
  9  8  2  0
  9 16  1  0
 10 18  1  0
 12 23  1  0
 14 18  2  0
 15  2  2  0
 16 10  2  0
 17  3  2  0
 18 19  1  0
 19 21  1  0
 20  7  1  0
 21 17  1  0
 21 12  2  0
 22  6  1  0
 23  1  2  0
 23  2  1  0
 24 12  1  0
 24  5  2  0
 25  8  1  0
 26  9  1  0
 27 14  1  0
  1 28  1  0
  3 29  1  0
  5 30  1  0
 10 31  1  0
 11 32  1  0
 11 33  1  0
 13 34  1  0
 13 35  1  0
 14 36  1  0
 15 37  1  0
 17 38  1  0
 19 39  1  0
 24 40  1  0
 26 41  1  0
 27 42  1  0
 27 43  1  0
M  END
>  <mol_id>  (38) 
2026-08-24-6tgu-s0-n100-seed1-0040

>  <rmsd_to_ref>  (38) 


$$$$

     RDKit          3D

 41 43  0  0  0  0  0  0  0  0999 V2000
    5.2043   16.4811   36.7553 C   0  0  0  0  0  0  0  0  0  0  0  0
    0.0942   16.0813   43.6962 C   0  0  0  0  0  0  0  0  0  0  0  0
    0.4606   16.9062   42.6471 C   0  0  0  0  0  0  0  0  0  0  0  0
    0.3304   14.3764   43.4298 Cl  0  0  0  0  0  0  0  0  0  0  0  0
    3.2524   17.3117   38.0356 C   0  0  0  0  0  0  0  0  0  0  0  0
   -0.5345   15.7768   46.1853 C   0  0  0  0  0  0  0  0  0  0  0  0
    3.4535   14.9261   37.4105 C   0  0  0  0  0  0  0  0  0  0  0  0
    2.7132   15.9696   38.0194 C   0  0  0  0  0  0  0  0  0  0  0  0
    4.2065   20.4261   36.9533 O   0  0  0  0  0  0  0  0  0  0  0  0
    2.3626   20.0597   38.3937 C   0  0  0  0  0  0  0  0  0  0  0  0
   -0.8835   17.9777   44.9358 C   0  0  0  0  0  0  0  0  0  0  0  0
    2.9943   20.6746   37.1464 C   0  0  0  0  0  0  0  0  0  0  0  0
    1.2867   19.2734   40.7667 C   0  0  0  0  0  0  0  0  0  0  0  0
    1.6667   20.9543   39.1072 C   0  0  0  0  0  0  0  0  0  0  0  0
    2.0573   18.3475   40.1404 C   0  0  0  0  0  0  0  0  0  0  0  0
    1.1137   20.6054   40.2925 C   0  0  0  0  0  0  0  0  0  0  0  0
    2.5554   18.6184   38.7425 C   0  0  0  0  0  0  0  0  0  0  0  0
    5.4382   14.0699   36.0774 C   0  0  0  0  0  0  0  0  0  0  0  0
    4.6842   15.2049   36.7831 C   0  0  0  0  0  0  0  0  0  0  0  0
    0.1505   18.2759   42.7151 C   0  0  0  0  0  0  0  0  0  0  0  0
    2.3195   17.1331   40.6433 F   0  0  0  0  0  0  0  0  0  0  0  0
    0.5503   19.0196   41.7976 O   0  0  0  0  0  0  0  0  0  0  0  0
   -0.3948   16.6010   44.9158 C   0  0  0  0  0  0  0  0  0  0  0  0
    2.3376   21.5354   36.4983 O   0  0  0  0  0  0  0  0  0  0  0  0
   -0.5502   18.7890   43.8392 C   0  0  0  0  0  0  0  0  0  0  0  0
    4.5127   17.5982   37.3755 C   0  0  0  0  0  0  0  0  0  0  0  0
    6.1660   16.6580   36.2515 H   0  0  0  0  0  0  0  0  0  0  0  0
    0.9869   16.4961   41.7725 H   0  0  0  0  0  0  0  0  0  0  0  0
   -0.4159   16.4307   47.0619 H   0  0  0  0  0  0  0  0  0  0  0  0
   -1.5288   15.3072   46.2101 H   0  0  0  0  0  0  0  0  0  0  0  0
    0.2403   14.9962   46.2028 H   0  0  0  0  0  0  0  0  0  0  0  0
    3.0669   13.8965   37.4275 H   0  0  0  0  0  0  0  0  0  0  0  0
    1.7349   15.7604   38.4768 H   0  0  0  0  0  0  0  0  0  0  0  0
   -1.4856   18.3615   45.7726 H   0  0  0  0  0  0  0  0  0  0  0  0
    1.5438   21.9793   38.7275 H   0  0  0  0  0  0  0  0  0  0  0  0
    0.5405   21.3381   40.8795 H   0  0  0  0  0  0  0  0  0  0  0  0
    5.8652   13.3902   36.8296 H   0  0  0  0  0  0  0  0  0  0  0  0
    4.7425   13.5129   35.4327 H   0  0  0  0  0  0  0  0  0  0  0  0
    6.2474   14.4931   35.4641 H   0  0  0  0  0  0  0  0  0  0  0  0
   -0.8394   19.8503   43.8510 H   0  0  0  0  0  0  0  0  0  0  0  0
    4.9264   18.6170   37.3459 H   0  0  0  0  0  0  0  0  0  0  0  0
  1 19  2  0
  1 26  1  0
  2 23  2  0
  3 20  2  0
  3  2  1  0
  4  2  1  0
  5  8  1  0
  5 17  1  0
  7  8  2  0
  9 12  1  0
 10 17  2  0
 10 14  1  0
 11 23  1  0
 12 10  1  0
 13 22  1  0
 14 16  2  0
 15 21  1  0
 15 13  2  0
 16 13  1  0
 17 15  1  0
 18 19  1  0
 19  7  1  0
 20 25  1  0
 22 20  1  0
 23  6  1  0
 24 12  2  0
 25 11  2  0
 26  5  2  0
  1 27  1  0
  3 28  1  0
  6 29  1  0
  6 30  1  0
  6 31  1  0
  7 32  1  0
  8 33  1  0
 11 34  1  0
 14 35  1  0
 16 36  1  0
 18 37  1  0
 18 38  1  0
 18 39  1  0
 25 40  1  0
 26 41  1  0
M  CHG  1   9  -1
M  END
>  <mol_id>  (39) 
2026-08-24-6tgu-s0-n100-seed1-0041

>  <rmsd_to_ref>  (39) 


$$$$

     RDKit          3D

 25 26  0  0  0  0  0  0  0  0999 V2000
    0.3628   17.7274   41.5381 C   0  0  0  0  0  0  0  0  0  0  0  0
   -0.6833   14.5403   43.5410 C   0  0  0  0  0  0  0  0  0  0  0  0
    2.7785   19.7507   38.7018 C   0  0  0  0  0  0  0  0  0  0  0  0
    2.5375   21.2150   36.7710 O   0  0  0  0  0  0  0  0  0  0  0  0
   -1.3095   16.7619   42.7170 C   0  0  0  0  0  0  0  0  0  0  0  0
   -0.5030   15.7897   42.8012 C   0  0  0  0  0  0  0  0  0  0  0  0
    2.5688   16.5161   40.1793 O   0  0  0  0  0  0  0  0  0  0  0  0
    3.1825   18.3690   39.0439 C   0  0  0  0  0  0  0  0  0  0  0  0
    2.3392   17.8138   39.9621 C   0  0  0  0  0  0  0  0  0  0  0  0
    0.9818   19.8327   40.3009 C   0  0  0  0  0  0  0  0  0  0  0  0
   -0.8348   18.0268   42.0810 C   0  0  0  0  0  0  0  0  0  0  0  0
    1.9551   20.4459   39.3633 C   0  0  0  0  0  0  0  0  0  0  0  0
    4.2733   19.9597   36.8847 O   0  0  0  0  0  0  0  0  0  0  0  0
    0.9353   16.2083   42.0237 S   0  0  0  0  0  0  0  0  0  0  0  0
    3.1841   20.3728   37.4215 C   0  0  0  0  0  0  0  0  0  0  0  0
    1.2480   18.4953   40.5952 C   0  0  0  0  0  0  0  0  0  0  0  0
   -0.9072   14.7666   44.5939 H   0  0  0  0  0  0  0  0  0  0  0  0
   -1.5168   13.9717   43.1028 H   0  0  0  0  0  0  0  0  0  0  0  0
    0.2387   13.9432   43.4824 H   0  0  0  0  0  0  0  0  0  0  0  0
   -2.3359   16.6769   43.1033 H   0  0  0  0  0  0  0  0  0  0  0  0
    2.0122   16.0168   40.8281 H   0  0  0  0  0  0  0  0  0  0  0  0
    4.0534   17.8539   38.6123 H   0  0  0  0  0  0  0  0  0  0  0  0
    0.1286   20.3824   40.7250 H   0  0  0  0  0  0  0  0  0  0  0  0
   -1.3524   18.9972   42.0597 H   0  0  0  0  0  0  0  0  0  0  0  0
    1.9604   21.5390   39.2399 H   0  0  0  0  0  0  0  0  0  0  0  0
  1 14  1  0
  1 11  2  0
  3  8  2  0
  3 12  1  0
  4 15  1  0
  6  5  2  0
  6  2  1  0
  8  9  1  0
  9  7  1  0
  9 16  2  0
 10 16  1  0
 11  5  1  0
 12 10  2  0
 13 15  2  0
 14  6  1  0
 15  3  1  0
 16  1  1  0
  2 17  1  0
  2 18  1  0
  2 19  1  0
  5 20  1  0
  7 21  1  0
  8 22  1  0
 10 23  1  0
 11 24  1  0
 12 25  1  0
M  CHG  1   4  -1
M  END
>  <mol_id>  (40) 
2026-08-24-6tgu-s0-n100-seed1-0042

>  <rmsd_to_ref>  (40) 


$$$$

     RDKit          3D

 28 30  0  0  0  0  0  0  0  0999 V2000
    1.4133   16.4640   41.2416 C   0  0  0  0  0  0  0  0  0  0  0  0
   -0.9469   16.7058   42.7429 C   0  0  0  0  0  0  0  0  0  0  0  0
    0.8338   15.3309   41.8507 C   0  0  0  0  0  0  0  0  0  0  0  0
   -0.2916   17.8560   42.2879 C   0  0  0  0  0  0  0  0  0  0  0  0
    3.7009   18.7619   36.7735 C   0  0  0  0  0  0  0  0  0  0  0  0
    0.8246   17.7801   41.3980 C   0  0  0  0  0  0  0  0  0  0  0  0
    2.3100   20.6653   38.0686 C   0  0  0  0  0  0  0  0  0  0  0  0
   -1.3848   19.1683   43.7385 O   0  0  0  0  0  0  0  0  0  0  0  0
    3.1847   18.4043   37.9626 C   0  0  0  0  0  0  0  0  0  0  0  0
    3.5495   20.0871   36.3655 N   0  0  0  0  0  0  0  0  0  0  0  0
    2.9027   21.0507   36.9918 N   0  0  0  0  0  0  0  0  0  0  0  0
   -0.2564   15.5154   42.8363 C   0  0  0  0  0  0  0  0  0  0  0  0
    1.2537   18.9863   40.7765 C   0  0  2  0  0  0  0  0  0  0  0  0
    2.4245   19.4302   38.7008 C   0  0  0  0  0  0  0  0  0  0  0  0
   -0.6247   19.1955   42.8353 C   0  0  0  0  0  0  0  0  0  0  0  0
    1.0137   20.6150   41.2053 S   0  0  0  0  0  0  0  0  0  0  0  0
    1.7951   18.9048   39.5911 O   0  0  0  0  0  0  0  0  0  0  0  0
    0.0759   20.5250   42.4920 C   0  0  0  0  0  0  0  0  0  0  0  0
    2.3259   16.3473   40.6387 H   0  0  0  0  0  0  0  0  0  0  0  0
   -2.0092   16.7511   43.0251 H   0  0  0  0  0  0  0  0  0  0  0  0
    1.1879   14.3210   41.5962 H   0  0  0  0  0  0  0  0  0  0  0  0
    4.2268   18.0311   36.1415 H   0  0  0  0  0  0  0  0  0  0  0  0
    1.6369   21.3950   38.5426 H   0  0  0  0  0  0  0  0  0  0  0  0
    3.3234   17.3909   38.3672 H   0  0  0  0  0  0  0  0  0  0  0  0
   -0.4990   14.7541   43.5922 H   0  0  0  0  0  0  0  0  0  0  0  0
    1.3900   18.7556   41.8433 H   0  0  0  0  0  0  0  0  0  0  0  0
    0.6980   20.7909   43.3593 H   0  0  0  0  0  0  0  0  0  0  0  0
   -0.7588   21.1987   42.2480 H   0  0  0  0  0  0  0  0  0  0  0  0
  1  3  1  0
  2 12  1  0
  3 12  2  0
  4 15  1  0
  4  2  2  0
  5  9  2  0
  6  1  2  0
  6  4  1  0
  7 14  2  0
  9 14  1  0
 10 11  2  0
 10  5  1  0
 11  7  1  0
 13 17  1  0
 13 16  1  0
 13  6  1  0
 14 17  1  0
 15  8  2  0
 16 18  1  0
 18 15  1  0
  1 19  1  0
  2 20  1  0
  3 21  1  0
  5 22  1  0
  7 23  1  0
  9 24  1  0
 12 25  1  0
 13 26  1  1
 18 27  1  0
 18 28  1  0
M  END
>  <mol_id>  (41) 
2026-08-24-6tgu-s0-n100-seed1-0043

>  <rmsd_to_ref>  (41) 


$$$$

     RDKit          3D

 47 51  0  0  0  0  0  0  0  0999 V2000
    2.8080   14.9520   40.5380 N   0  0  0  0  0  0  0  0  0  0  0  0
   -1.2440   20.6530   43.6400 O   0  0  0  0  0  0  0  0  0  0  0  0
   -0.4800   21.2030   42.4080 C   0  0  0  0  0  0  0  0  0  0  0  0
   -0.9200   19.4490   43.7950 C   0  0  0  0  0  0  0  0  0  0  0  0
    2.2400   17.3810   40.1010 N   0  0  0  0  0  0  0  0  0  0  0  0
    1.3330   16.3670   41.9790 C   0  0  0  0  0  0  0  0  0  0  0  0
   -0.8130   17.4190   44.5870 C   0  0  1  0  0  0  0  0  0  0  0  0
   -0.0420   17.4410   43.5070 C   0  0  0  0  0  0  0  0  0  0  0  0
    1.0030   18.8720   41.8020 C   0  0  0  0  0  0  0  0  0  0  0  0
   -1.3180   18.6250   44.8250 N   0  0  0  0  0  0  0  0  0  0  0  0
    2.0740   21.4660   37.7450 C   0  0  0  0  0  0  0  0  0  0  0  0
    2.8070   22.0330   35.1560 O   0  0  0  0  0  0  0  0  0  0  0  0
    3.2080   13.8790   39.9240 C   0  0  0  0  0  0  0  0  0  0  0  0
    0.0700   18.7510   42.9260 C   0  0  0  0  0  0  0  0  0  0  0  0
    1.6910   21.1260   38.9650 C   0  0  0  0  0  0  0  0  0  0  0  0
    3.0450   19.2240   38.9720 C   0  0  0  0  0  0  0  0  0  0  0  0
    2.5810   15.9930   39.8140 C   0  0  0  0  0  0  0  0  0  0  0  0
    0.8440   20.7920   41.6360 C   0  0  0  0  0  0  0  0  0  0  0  0
    3.4980   21.0840   35.8260 O   0  0  0  0  0  0  0  0  0  0  0  0
    2.1270   20.0620   39.6540 C   0  0  0  0  0  0  0  0  0  0  0  0
    0.6410   16.3040   43.0320 C   0  0  0  0  0  0  0  0  0  0  0  0
    3.0320   15.6160   38.1360 S   0  0  0  0  0  0  0  0  0  0  0  0
    1.5260   17.5160   41.2960 C   0  0  0  0  0  0  0  0  0  0  0  0
    3.5700   13.9920   38.4790 C   0  0  0  0  0  0  0  0  0  0  0  0
   -0.9770   16.1570   45.4390 C   0  0  0  0  0  0  0  0  0  0  0  0
    3.5440   19.5110   37.7200 C   0  0  0  0  0  0  0  0  0  0  0  0
    3.0400   20.6670   37.0810 C   0  0  0  0  0  0  0  0  0  0  0  0
    1.7360   20.0400   41.1300 C   0  0  2  0  0  0  0  0  0  0  0  0
   -1.2427   21.1745   41.6158 H   0  0  0  0  0  0  0  0  0  0  0  0
   -0.0185   22.0424   42.9488 H   0  0  0  0  0  0  0  0  0  0  0  0
    2.4958   18.1721   39.4930 H   0  0  0  0  0  0  0  0  0  0  0  0
    1.7997   15.4456   41.6006 H   0  0  0  0  0  0  0  0  0  0  0  0
    0.0905   17.6852   45.1552 H   0  0  0  0  0  0  0  0  0  0  0  0
    1.6501   22.3541   37.2534 H   0  0  0  0  0  0  0  0  0  0  0  0
    2.3660   22.6387   35.8031 H   0  0  0  0  0  0  0  0  0  0  0  0
    3.2780   12.9166   40.4521 H   0  0  0  0  0  0  0  0  0  0  0  0
    0.9499   21.7731   39.4569 H   0  0  0  0  0  0  0  0  0  0  0  0
    3.3753   18.2988   39.4669 H   0  0  0  0  0  0  0  0  0  0  0  0
    0.6154   21.3414   40.7108 H   0  0  0  0  0  0  0  0  0  0  0  0
    1.2888   20.5738   42.6181 H   0  0  0  0  0  0  0  0  0  0  0  0
    0.5704   15.3546   43.5831 H   0  0  0  0  0  0  0  0  0  0  0  0
    4.0447   13.2549   37.8147 H   0  0  0  0  0  0  0  0  0  0  0  0
   -0.9419   16.4270   46.5048 H   0  0  0  0  0  0  0  0  0  0  0  0
   -1.9441   15.6845   45.2121 H   0  0  0  0  0  0  0  0  0  0  0  0
   -0.1628   15.4530   45.2121 H   0  0  0  0  0  0  0  0  0  0  0  0
    4.2990   18.8708   37.2403 H   0  0  0  0  0  0  0  0  0  0  0  0
    2.8103   20.2211   41.2820 H   0  0  0  0  0  0  0  0  0  0  0  0
  2  4  1  0
  3  2  1  0
  4 10  2  0
  5 23  1  0
  6 21  2  0
  7 10  1  0
  7 25  1  0
  8  7  1  0
  9 14  1  0
 11 15  2  0
 12 19  1  0
 13  1  1  0
 14  8  2  0
 14  4  1  0
 15 20  1  0
 16 20  2  0
 17  5  1  0
 17  1  2  0
 18  3  1  0
 19 27  1  0
 21  8  1  0
 22 24  1  0
 22 17  1  0
 23  9  2  0
 23  6  1  0
 24 13  2  0
 26 16  1  0
 27 26  2  0
 27 11  1  0
 28 20  1  0
 28 18  1  0
 28  9  1  0
  3 29  1  0
  3 30  1  0
  5 31  1  0
  6 32  1  0
  7 33  1  6
 11 34  1  0
 12 35  1  0
 13 36  1  0
 15 37  1  0
 16 38  1  0
 18 39  1  0
 18 40  1  0
 21 41  1  0
 24 42  1  0
 25 43  1  0
 25 44  1  0
 25 45  1  0
 26 46  1  0
 28 47  1  1
M  END
>  <mol_id>  (42) 
2026-08-24-6tgu-s0-n100-seed1-0044

>  <rmsd_to_ref>  (42) 


$$$$

     RDKit          3D

 50 50  0  0  0  0  0  0  0  0999 V2000
    0.3723   18.3940   45.3931 C   0  0  0  0  0  0  0  0  0  0  0  0
    2.9581   20.3638   36.8083 O   0  0  0  0  0  0  0  0  0  0  0  0
    0.6173   17.0616   43.4431 C   0  0  0  0  0  0  0  0  0  0  0  0
    5.2637   15.4580   36.6331 N   0  0  0  0  0  0  0  0  0  0  0  0
    0.2113   15.2719   44.9679 C   0  0  0  0  0  0  0  0  0  0  0  0
    2.3035   14.6099   41.9572 C   0  0  0  0  0  0  0  0  0  0  0  0
    0.6084   19.2922   42.2788 C   0  0  0  0  0  0  0  0  0  0  0  0
    0.8309   15.6998   43.6810 C   0  0  0  0  0  0  0  0  0  0  0  0
    1.8777   19.5508   40.2127 C   0  0  0  0  0  0  0  0  0  0  0  0
    1.3228   14.7790   43.0376 C   0  0  0  0  0  0  0  0  0  0  0  0
    3.9424   15.4968   38.5432 C   0  0  0  0  0  0  0  0  0  0  0  0
   -0.7971   16.2303   45.5686 C   0  0  0  0  0  0  0  0  0  0  0  0
   -0.1894   19.8142   43.1810 O   0  0  0  0  0  0  0  0  0  0  0  0
   -0.1138   17.7145   44.4600 C   0  0  0  0  0  0  0  0  0  0  0  0
    1.1249   20.1041   41.2944 N   0  0  0  0  0  0  0  0  0  0  0  0
    4.5314   14.2154   38.8937 O   0  0  0  0  0  0  0  0  0  0  0  0
    2.1344   20.3054   39.0533 C   0  0  0  0  0  0  0  0  0  0  0  0
    4.0768   17.6293   37.1761 C   0  0  0  0  0  0  0  0  0  0  0  0
    4.6808   16.2893   37.6043 C   0  0  2  0  0  0  0  0  0  0  0  0
    2.7913   19.6890   38.0769 C   0  0  0  0  0  0  0  0  0  0  0  0
    3.3209   18.3439   38.1932 C   0  0  0  0  0  0  0  0  0  0  0  0
    0.2459   14.1389   45.4627 O   0  0  0  0  0  0  0  0  0  0  0  0
    4.2083   18.1746   36.0789 O   0  0  0  0  0  0  0  0  0  0  0  0
    2.9383   14.4095   41.2395 N   0  0  0  0  0  0  0  0  0  0  0  0
   -1.4034   18.2315   44.1261 O   0  0  0  0  0  0  0  0  0  0  0  0
    0.8795   17.9474   42.3987 C   0  0  0  0  0  0  0  0  0  0  0  0
    3.0229   17.6112   39.3616 C   0  0  0  0  0  0  0  0  0  0  0  0
    2.2626   18.2319   40.3731 C   0  0  0  0  0  0  0  0  0  0  0  0
   -0.2905   18.8619   46.1359 H   0  0  0  0  0  0  0  0  0  0  0  0
    1.4621   18.5228   45.4698 H   0  0  0  0  0  0  0  0  0  0  0  0
    2.6111   21.2830   36.6873 H   0  0  0  0  0  0  0  0  0  0  0  0
    5.8241   14.7287   37.0970 H   0  0  0  0  0  0  0  0  0  0  0  0
    4.5230   15.0158   36.0703 H   0  0  0  0  0  0  0  0  0  0  0  0
    5.8714   16.0200   36.0201 H   0  0  0  0  0  0  0  0  0  0  0  0
    0.4309   14.2928   42.6153 H   0  0  0  0  0  0  0  0  0  0  0  0
    2.0447   14.5219   43.8266 H   0  0  0  0  0  0  0  0  0  0  0  0
    2.9483   15.3045   38.1136 H   0  0  0  0  0  0  0  0  0  0  0  0
    3.9233   16.0805   39.4753 H   0  0  0  0  0  0  0  0  0  0  0  0
   -0.7152   16.2087   46.6653 H   0  0  0  0  0  0  0  0  0  0  0  0
   -0.5958   17.2491   45.2059 H   0  0  0  0  0  0  0  0  0  0  0  0
   -1.8121   15.9287   45.2707 H   0  0  0  0  0  0  0  0  0  0  0  0
    0.9674   21.1210   41.3379 H   0  0  0  0  0  0  0  0  0  0  0  0
    4.5899   14.1375   39.8789 H   0  0  0  0  0  0  0  0  0  0  0  0
    1.8080   21.3517   38.9602 H   0  0  0  0  0  0  0  0  0  0  0  0
    5.5234   16.7479   38.1424 H   0  0  0  0  0  0  0  0  0  0  0  0
   -1.9441   18.6952   44.8137 H   0  0  0  0  0  0  0  0  0  0  0  0
    0.3733   17.4955   41.5330 H   0  0  0  0  0  0  0  0  0  0  0  0
    1.9641   18.0365   42.5592 H   0  0  0  0  0  0  0  0  0  0  0  0
    3.3767   16.5764   39.4807 H   0  0  0  0  0  0  0  0  0  0  0  0
    1.9792   17.6748   41.2783 H   0  0  0  0  0  0  0  0  0  0  0  0
  2 20  1  0
  3  8  2  3
  3 14  1  0
  5 22  2  0
  5 12  1  0
  6 10  1  0
  7 26  1  0
  7 13  2  0
  8  5  1  0
  9 28  1  0
  9 15  1  0
 10  8  1  0
 11 16  1  0
 14  1  2  3
 15  7  1  0
 17  9  2  0
 18 19  1  0
 18 21  1  0
 19  4  1  0
 19 11  1  0
 20 21  2  0
 20 17  1  0
 21 27  1  0
 23 18  2  0
 24  6  3  0
 25 14  1  0
 26  3  1  0
 27 28  2  0
  1 29  1  0
  1 30  1  0
  2 31  1  0
  4 32  1  0
  4 33  1  0
  4 34  1  0
 10 35  1  0
 10 36  1  0
 11 37  1  0
 11 38  1  0
 12 39  1  0
 12 40  1  0
 12 41  1  0
 15 42  1  0
 16 43  1  0
 17 44  1  0
 19 45  1  1
 25 46  1  0
 26 47  1  0
 26 48  1  0
 27 49  1  0
 28 50  1  0
M  CHG  1   4   1
M  END
>  <mol_id>  (43) 
2026-08-24-6tgu-s0-n100-seed1-0045

>  <rmsd_to_ref>  (43) 


$$$$

     RDKit          3D

 37 38  0  0  0  0  0  0  0  0999 V2000
   -0.8336   19.6083   43.3657 C   0  0  0  0  0  0  0  0  0  0  0  0
   -0.7489   21.7314   42.6879 N   0  0  0  0  0  0  0  0  0  0  0  0
    2.8119   20.1406   38.1545 C   0  0  0  0  0  0  0  0  0  0  0  0
    0.1321   19.7341   42.2865 C   0  0  0  0  0  0  0  0  0  0  0  0
    2.1881   16.7476   41.3114 N   0  0  0  0  0  0  0  0  0  0  0  0
    1.1529   17.3961   41.9292 C   0  0  0  0  0  0  0  0  0  0  0  0
    0.0871   21.0578   41.8355 C   0  0  0  0  0  0  0  0  0  0  0  0
    0.6587   21.7447   40.7281 C   0  0  0  0  0  0  0  0  0  0  0  0
    3.4903   14.7666   40.7966 C   0  0  0  0  0  0  0  0  0  0  0  0
    0.9721   18.8047   41.4626 C   0  0  0  0  0  0  0  0  0  0  0  0
    2.2520   15.3776   41.4627 C   0  0  0  0  0  0  0  0  0  0  0  0
   -1.3329   18.5125   44.2370 C   0  0  0  0  0  0  0  0  0  0  0  0
   -1.2361   20.8206   43.6023 N   0  0  0  0  0  0  0  0  0  0  0  0
   -2.8081   18.4531   44.0974 N   0  0  0  0  0  0  0  0  0  0  0  0
    2.2339   18.1710   37.0676 O   0  0  0  0  0  0  0  0  0  0  0  0
    0.4691   16.8530   42.7719 O   0  0  0  0  0  0  0  0  0  0  0  0
    1.9978   20.2216   39.3872 C   0  0  0  0  0  0  0  0  0  0  0  0
    3.1786   18.9170   37.4565 C   0  0  0  0  0  0  0  0  0  0  0  0
    4.3444   18.5314   37.3316 O   0  0  0  0  0  0  0  0  0  0  0  0
    1.7408   19.1466   40.2748 C   0  0  0  0  0  0  0  0  0  0  0  0
    1.4060   21.4372   39.6336 C   0  0  0  0  0  0  0  0  0  0  0  0
    2.2735   20.7475   37.4115 H   0  0  0  0  0  0  0  0  0  0  0  0
    3.7937   20.4324   38.5554 H   0  0  0  0  0  0  0  0  0  0  0  0
    2.8891   17.2602   40.7576 H   0  0  0  0  0  0  0  0  0  0  0  0
    0.4345   22.8209   40.7680 H   0  0  0  0  0  0  0  0  0  0  0  0
    4.1743   14.3888   41.5708 H   0  0  0  0  0  0  0  0  0  0  0  0
    3.1832   13.9373   40.1424 H   0  0  0  0  0  0  0  0  0  0  0  0
    4.0019   15.5352   40.1987 H   0  0  0  0  0  0  0  0  0  0  0  0
    2.2782   15.1429   42.5370 H   0  0  0  0  0  0  0  0  0  0  0  0
    1.3652   14.9475   40.9743 H   0  0  0  0  0  0  0  0  0  0  0  0
   -0.8894   17.5555   43.9246 H   0  0  0  0  0  0  0  0  0  0  0  0
   -1.0551   18.7003   45.2846 H   0  0  0  0  0  0  0  0  0  0  0  0
   -3.2390   18.3910   45.0309 H   0  0  0  0  0  0  0  0  0  0  0  0
   -3.1423   19.3028   43.6208 H   0  0  0  0  0  0  0  0  0  0  0  0
   -3.0674   17.6242   43.5437 H   0  0  0  0  0  0  0  0  0  0  0  0
    2.3221   18.2688   39.9563 H   0  0  0  0  0  0  0  0  0  0  0  0
    1.5486   22.2282   38.8827 H   0  0  0  0  0  0  0  0  0  0  0  0
  1 13  1  0
  1 12  1  0
  2 13  2  0
  3 17  1  0
  4  1  2  0
  5 11  1  0
  5  6  1  0
  6 16  2  0
  7  4  1  0
  7  2  1  0
  8  7  2  0
  9 11  1  0
 10  6  1  0
 10  4  1  0
 14 12  1  0
 15 18  2  0
 17 21  2  0
 17 20  1  0
 18  3  1  0
 19 18  1  0
 20 10  2  0
 21  8  1  0
  3 22  1  0
  3 23  1  0
  5 24  1  0
  8 25  1  0
  9 26  1  0
  9 27  1  0
  9 28  1  0
 11 29  1  0
 11 30  1  0
 12 31  1  0
 12 32  1  0
 14 33  1  0
 14 34  1  0
 14 35  1  0
 20 36  1  0
 21 37  1  0
M  CHG  2  14   1  19  -1
M  END
>  <mol_id>  (44) 
2026-08-24-6tgu-s0-n100-seed1-0046

>  <rmsd_to_ref>  (44) 


$$$$

     RDKit          3D

 31 35  0  0  0  0  0  0  0  0999 V2000
    3.5104   20.1483   36.8052 N   0  0  0  0  0  0  0  0  0  0  0  0
   -1.4953   17.4178   42.7426 C   0  0  0  0  0  0  0  0  0  0  0  0
    1.8769   20.2037   38.4036 C   0  0  0  0  0  0  0  0  0  0  0  0
    0.4369   17.4196   41.3415 C   0  0  0  0  0  0  0  0  0  0  0  0
   -0.2132   16.5588   42.5215 C   0  0  0  0  0  0  0  0  0  0  0  0
   -1.3264   19.4320   41.3231 C   0  0  0  0  0  0  0  0  0  0  0  0
    2.5422   15.3403   41.2525 C   0  0  0  0  0  0  0  0  0  0  0  0
    4.2640   19.0680   37.3385 C   0  0  0  0  0  0  0  0  0  0  0  0
    0.8221   18.2275   40.6183 C   0  0  0  0  0  0  0  0  0  0  0  0
   -0.0873   19.5194   40.3682 C   0  0  2  0  0  0  0  0  0  0  0  0
    0.2721   15.2432   42.8969 N   0  0  0  0  0  0  0  0  0  0  0  0
    0.5749   20.5112   39.3992 S   0  0  0  0  0  0  0  0  0  0  0  0
    2.3539   20.6395   37.3374 C   0  0  0  0  0  0  0  0  0  0  0  0
    2.0127   17.9919   40.1841 C   0  0  0  0  0  0  0  0  0  0  0  0
    3.6249   18.3136   38.5301 C   0  0  0  0  0  0  0  0  0  0  0  0
    2.8908   16.5722   40.3778 C   0  0  0  0  0  0  0  0  0  0  0  0
    1.5396   14.9914   42.2707 C   0  0  0  0  0  0  0  0  0  0  0  0
    3.9116   17.1474   39.1360 N   0  0  0  0  0  0  0  0  0  0  0  0
   -1.7945   18.5862   42.1309 N   0  0  0  0  0  0  0  0  0  0  0  0
    2.4109   18.8203   39.0609 C   0  0  0  0  0  0  0  0  0  0  0  0
   -2.3339   16.7470   42.5042 H   0  0  0  0  0  0  0  0  0  0  0  0
   -1.2933   17.7895   43.7580 H   0  0  0  0  0  0  0  0  0  0  0  0
   -1.9451   20.3403   41.2762 H   0  0  0  0  0  0  0  0  0  0  0  0
    3.2288   14.5027   41.0600 H   0  0  0  0  0  0  0  0  0  0  0  0
    5.2444   18.7840   36.9285 H   0  0  0  0  0  0  0  0  0  0  0  0
   -0.6466   18.9755   39.5927 H   0  0  0  0  0  0  0  0  0  0  0  0
    0.3822   15.1992   43.9201 H   0  0  0  0  0  0  0  0  0  0  0  0
   -0.4055   14.5315   42.5881 H   0  0  0  0  0  0  0  0  0  0  0  0
    1.8253   21.4463   36.8084 H   0  0  0  0  0  0  0  0  0  0  0  0
    1.3844   13.9373   41.9977 H   0  0  0  0  0  0  0  0  0  0  0  0
    1.9996   15.7254   42.9487 H   0  0  0  0  0  0  0  0  0  0  0  0
  1  8  2  0
  1 13  1  0
  3 20  1  0
  3 12  1  0
  4  5  2  0
  5 11  1  0
  5  2  1  0
  6 19  2  0
  7 17  1  0
  8 15  1  0
  9  4  2  0
 10  9  1  0
 10  6  1  0
 12 10  1  0
 13  3  2  0
 14 16  1  0
 14  9  1  0
 15 18  2  0
 15 20  1  0
 16  7  2  0
 17 11  1  0
 18 16  1  0
 19  2  1  0
 20 14  2  0
  2 21  1  0
  2 22  1  0
  6 23  1  0
  7 24  1  0
  8 25  1  0
 10 26  1  6
 11 27  1  0
 11 28  1  0
 13 29  1  0
 17 30  1  0
 17 31  1  0
M  CHG  1  11   1
M  END
>  <mol_id>  (45) 
2026-08-24-6tgu-s0-n100-seed1-0047

>  <rmsd_to_ref>  (45) 


$$$$

     RDKit          3D

 26 27  0  0  0  0  0  0  0  0999 V2000
    1.7416   16.2506   40.1493 N   0  0  0  0  0  0  0  0  0  0  0  0
    3.0078   22.3648   35.6624 N   0  0  0  0  0  0  0  0  0  0  0  0
    2.7769   20.5635   37.5134 C   0  0  0  0  0  0  0  0  0  0  0  0
    2.9244   21.5722   36.5366 C   0  0  0  0  0  0  0  0  0  0  0  0
   -0.4838   15.9612   42.9999 C   0  0  0  0  0  0  0  0  0  0  0  0
    3.2761   19.3942   37.1830 C   0  0  0  0  0  0  0  0  0  0  0  0
    1.9700   19.5843   39.4753 C   0  0  0  0  0  0  0  0  0  0  0  0
    2.1318   17.2374   39.6534 N   0  0  0  0  0  0  0  0  0  0  0  0
    0.8803   17.7456   41.5193 C   0  0  0  0  0  0  0  0  0  0  0  0
    3.0474   18.2653   37.9121 C   0  0  0  0  0  0  0  0  0  0  0  0
    0.1178   18.1867   42.6668 N   0  0  0  0  0  0  0  0  0  0  0  0
    2.1774   20.7623   38.7459 C   0  0  0  0  0  0  0  0  0  0  0  0
   -0.5367   17.2974   43.2947 C   0  0  0  0  0  0  0  0  0  0  0  0
    0.2395   15.5378   41.9204 C   0  0  0  0  0  0  0  0  0  0  0  0
    2.3540   18.3291   39.1180 C   0  0  0  0  0  0  0  0  0  0  0  0
    0.8443   16.4733   41.1572 C   0  0  0  0  0  0  0  0  0  0  0  0
    2.0436   15.3105   39.8561 H   0  0  0  0  0  0  0  0  0  0  0  0
   -1.0197   15.2338   43.6275 H   0  0  0  0  0  0  0  0  0  0  0  0
    3.9035   19.3232   36.2824 H   0  0  0  0  0  0  0  0  0  0  0  0
    1.4425   19.6846   40.4354 H   0  0  0  0  0  0  0  0  0  0  0  0
    3.1254   16.9735   39.7165 H   0  0  0  0  0  0  0  0  0  0  0  0
    1.4875   18.4648   40.9500 H   0  0  0  0  0  0  0  0  0  0  0  0
    3.4138   17.2954   37.5446 H   0  0  0  0  0  0  0  0  0  0  0  0
    1.8898   21.7565   39.1189 H   0  0  0  0  0  0  0  0  0  0  0  0
   -1.1840   17.6196   44.1237 H   0  0  0  0  0  0  0  0  0  0  0  0
    0.3263   14.4678   41.6805 H   0  0  0  0  0  0  0  0  0  0  0  0
  1 16  1  0
  2  4  3  0
  3 12  2  0
  4  3  1  0
  5 13  1  0
  6  3  1  0
  6 10  2  0
  8  1  1  0
  9 11  1  0
 10 15  1  0
 11 13  2  0
 12  7  1  0
 14  5  2  0
 15  7  2  0
 15  8  1  0
 16  9  2  0
 16 14  1  0
  1 17  1  0
  5 18  1  0
  6 19  1  0
  7 20  1  0
  8 21  1  0
  9 22  1  0
 10 23  1  0
 12 24  1  0
 13 25  1  0
 14 26  1  0
M  END
>  <mol_id>  (46) 
2026-08-24-6tgu-s0-n100-seed1-0048

>  <rmsd_to_ref>  (46) 


$$$$

     RDKit          3D

 60 62  0  0  0  0  0  0  0  0999 V2000
    3.2889   21.0255   35.3666 N   0  0  0  0  0  0  0  0  0  0  0  0
    0.8554   14.1684   41.9028 C   0  0  0  0  0  0  0  0  0  0  0  0
   -1.2350   16.5700   44.6176 C   0  0  0  0  0  0  0  0  0  0  0  0
    2.6860   17.9600   38.1950 C   0  0  1  0  0  0  0  0  0  0  0  0
    0.9483   18.7304   41.2928 C   0  0  0  0  0  0  0  0  0  0  0  0
    0.9071   20.0509   40.4183 C   0  0  0  0  0  0  0  0  0  0  0  0
   -0.0347   16.6626   42.3607 C   0  0  0  0  0  0  0  0  0  0  0  0
    3.0606   16.7615   38.0030 N   0  0  0  0  0  0  0  0  0  0  0  0
    0.2345   13.3441   43.1071 C   0  0  0  0  0  0  0  0  0  0  0  0
    3.6584   14.1214   37.3630 C   0  0  0  0  0  0  0  0  0  0  0  0
   -0.9293   16.1806   43.2372 O   0  0  0  0  0  0  0  0  0  0  0  0
    3.2918   20.7389   39.9552 F   0  0  0  0  0  0  0  0  0  0  0  0
    0.6539   20.4839   39.3357 F   0  0  0  0  0  0  0  0  0  0  0  0
    0.8828   15.6407   41.6830 C   0  0  0  0  0  0  0  0  0  0  0  0
    2.5571   21.1368   36.1080 C   0  0  0  0  0  0  0  0  0  0  0  0
    1.7092   17.6215   40.5838 C   0  0  0  0  0  0  0  0  0  0  0  0
    3.2533   19.4891   39.7690 C   0  0  2  0  0  0  0  0  0  0  0  0
    3.7915   15.2079   36.3723 N   0  0  0  0  0  0  0  0  0  0  0  0
    1.0804   19.9730   41.2547 O   0  0  0  0  0  0  0  0  0  0  0  0
   -0.0030   18.0311   42.1635 C   0  0  0  0  0  0  0  0  0  0  0  0
    3.9581   17.5378   36.0737 N   0  0  0  0  0  0  0  0  0  0  0  0
    1.7741   13.2813   41.1204 C   0  0  0  0  0  0  0  0  0  0  0  0
    2.3952   18.4006   39.4806 C   0  0  1  0  0  0  0  0  0  0  0  0
    2.2423   20.2720   37.0779 C   0  0  0  0  0  0  0  0  0  0  0  0
    4.6767   19.0395   39.9529 C   0  0  0  0  0  0  0  0  0  0  0  0
    2.8118   19.1130   37.1981 C   0  0  0  0  0  0  0  0  0  0  0  0
    1.6708   16.2683   40.7481 C   0  0  0  0  0  0  0  0  0  0  0  0
    3.6796   16.6509   36.8581 C   0  0  0  0  0  0  0  0  0  0  0  0
    5.1719   15.2596   35.8617 C   0  0  0  0  0  0  0  0  0  0  0  0
    3.5136   18.8267   36.1618 C   0  0  0  0  0  0  0  0  0  0  0  0
    3.6889   20.2335   35.3017 N   0  0  0  0  0  0  0  0  0  0  0  0
   -0.0739   14.6446   41.5572 H   0  0  0  0  0  0  0  0  0  0  0  0
   -0.7801   15.8479   45.3115 H   0  0  0  0  0  0  0  0  0  0  0  0
   -0.8289   17.5733   44.8141 H   0  0  0  0  0  0  0  0  0  0  0  0
   -2.3253   16.5810   44.7625 H   0  0  0  0  0  0  0  0  0  0  0  0
    1.9280   17.3844   37.6435 H   0  0  0  0  0  0  0  0  0  0  0  0
    1.8078   19.5113   40.0901 H   0  0  0  0  0  0  0  0  0  0  0  0
   -0.1167   20.3274   40.7102 H   0  0  0  0  0  0  0  0  0  0  0  0
    0.6350   13.7260   44.0578 H   0  0  0  0  0  0  0  0  0  0  0  0
   -0.8601   13.4531   43.1002 H   0  0  0  0  0  0  0  0  0  0  0  0
    0.4980   12.2816   42.9986 H   0  0  0  0  0  0  0  0  0  0  0  0
    3.7420   14.5381   38.3776 H   0  0  0  0  0  0  0  0  0  0  0  0
    2.6783   13.6361   37.2456 H   0  0  0  0  0  0  0  0  0  0  0  0
    4.4558   13.3805   37.2041 H   0  0  0  0  0  0  0  0  0  0  0  0
    1.9811   22.0737   36.0860 H   0  0  0  0  0  0  0  0  0  0  0  0
    3.4405   19.6433   38.6960 H   0  0  0  0  0  0  0  0  0  0  0  0
   -0.7460   18.6403   42.6990 H   0  0  0  0  0  0  0  0  0  0  0  0
    2.3537   12.6525   41.8122 H   0  0  0  0  0  0  0  0  0  0  0  0
    1.1823   12.6403   40.4505 H   0  0  0  0  0  0  0  0  0  0  0  0
    2.4611   13.8997   40.5240 H   0  0  0  0  0  0  0  0  0  0  0  0
    1.3114   18.5875   39.4600 H   0  0  0  0  0  0  0  0  0  0  0  0
    1.4673   20.5557   37.8051 H   0  0  0  0  0  0  0  0  0  0  0  0
    4.8827   18.9037   41.0248 H   0  0  0  0  0  0  0  0  0  0  0  0
    4.8310   18.0863   39.4262 H   0  0  0  0  0  0  0  0  0  0  0  0
    5.3573   19.7998   39.5420 H   0  0  0  0  0  0  0  0  0  0  0  0
    2.3038   15.6463   40.0981 H   0  0  0  0  0  0  0  0  0  0  0  0
    5.8768   15.2069   36.7045 H   0  0  0  0  0  0  0  0  0  0  0  0
    5.3448   14.4095   35.1853 H   0  0  0  0  0  0  0  0  0  0  0  0
    5.3252   16.2012   35.3139 H   0  0  0  0  0  0  0  0  0  0  0  0
    4.3928   20.1804   34.5517 H   0  0  0  0  0  0  0  0  0  0  0  0
  1 15  2  0
  2  9  1  0
  4 23  1  0
  5 20  1  0
  6 19  1  0
  7 11  1  0
  8  4  1  0
 11  3  1  0
 13  6  1  0
 14  2  1  0
 14  7  1  0
 15 24  1  0
 16 27  1  0
 16  5  2  0
 17 12  1  0
 17 25  1  0
 18 28  1  0
 18 10  1  0
 19  5  1  0
 20  7  2  0
 21 28  1  0
 22  2  1  0
 23 17  1  0
 23 16  1  0
 24 26  2  0
 26  4  1  0
 27 14  2  0
 28  8  2  0
 29 18  1  0
 30 21  2  0
 30 26  1  0
 31  1  1  0
 31 30  1  0
  2 32  1  0
  3 33  1  0
  3 34  1  0
  3 35  1  0
  4 36  1  6
  6 37  1  0
  6 38  1  0
  9 39  1  0
  9 40  1  0
  9 41  1  0
 10 42  1  0
 10 43  1  0
 10 44  1  0
 15 45  1  0
 17 46  1  6
 20 47  1  0
 22 48  1  0
 22 49  1  0
 22 50  1  0
 23 51  1  6
 24 52  1  0
 25 53  1  0
 25 54  1  0
 25 55  1  0
 27 56  1  0
 29 57  1  0
 29 58  1  0
 29 59  1  0
 31 60  1  0
M  END
>  <mol_id>  (47) 
2026-08-24-6tgu-s0-n100-seed1-0049

>  <rmsd_to_ref>  (47) 


$$$$

     RDKit          3D

 20 21  0  0  0  0  0  0  0  0999 V2000
    0.4764   16.9628   43.6402 N   0  0  0  0  0  0  0  0  0  0  0  0
    2.2391   18.8155   40.8207 C   0  0  0  0  0  0  0  0  0  0  0  0
    1.5626   17.1878   42.8545 N   0  0  0  0  0  0  0  0  0  0  0  0
    3.7492   19.2477   37.3904 O   0  0  0  0  0  0  0  0  0  0  0  0
   -0.4146   17.8468   43.2713 C   0  0  0  0  0  0  0  0  0  0  0  0
    2.4102   20.4491   38.9648 C   0  0  0  0  0  0  0  0  0  0  0  0
    0.1678   18.6869   42.2416 C   0  0  0  0  0  0  0  0  0  0  0  0
   -0.3689   19.7654   41.5015 C   0  0  0  0  0  0  0  0  0  0  0  0
    1.5022   18.2130   41.9508 C   0  0  2  0  0  0  0  0  0  0  0  0
    0.3909   20.3498   40.4426 C   0  0  0  0  0  0  0  0  0  0  0  0
    2.8575   20.0258   37.6173 C   0  0  0  0  0  0  0  0  0  0  0  0
    1.6176   19.8092   40.0973 C   0  0  0  0  0  0  0  0  0  0  0  0
    2.3173   20.6036   36.6241 O   0  0  0  0  0  0  0  0  0  0  0  0
    3.2549   18.4800   40.5644 H   0  0  0  0  0  0  0  0  0  0  0  0
   -1.4341   17.9379   43.6741 H   0  0  0  0  0  0  0  0  0  0  0  0
    1.8316   21.3599   38.7511 H   0  0  0  0  0  0  0  0  0  0  0  0
    3.3897   20.2884   39.4390 H   0  0  0  0  0  0  0  0  0  0  0  0
   -1.3698   20.1538   41.7408 H   0  0  0  0  0  0  0  0  0  0  0  0
    1.9196   18.9728   42.6279 H   0  0  0  0  0  0  0  0  0  0  0  0
    0.0025   21.2264   39.9033 H   0  0  0  0  0  0  0  0  0  0  0  0
  3  1  2  0
  4 11  1  0
  5  1  1  0
  6 12  1  0
  7  5  2  0
  8  7  1  0
  9  2  1  0
  9  7  1  0
  9  3  1  0
 10  8  2  0
 11  6  1  0
 12  2  2  0
 12 10  1  0
 13 11  2  0
  2 14  1  0
  5 15  1  0
  6 16  1  0
  6 17  1  0
  8 18  1  0
  9 19  1  1
 10 20  1  0
M  CHG  1   4  -1
M  END
>  <mol_id>  (48) 
2026-08-24-6tgu-s0-n100-seed1-0050

>  <rmsd_to_ref>  (48) 


$$$$

     RDKit          3D

 44 46  0  0  0  0  0  0  0  0999 V2000
    3.1179   20.1989   36.9665 C   0  0  0  0  0  0  0  0  0  0  0  0
    0.2352   13.2359   43.6582 C   0  0  0  0  0  0  0  0  0  0  0  0
   -0.7878   19.7620   41.9030 N   0  0  0  0  0  0  0  0  0  0  0  0
   -0.1728   12.3182   44.4877 N   0  0  0  0  0  0  0  0  0  0  0  0
    4.2902   16.8438   36.9122 N   0  0  0  0  0  0  0  0  0  0  0  0
    1.3491   15.9757   41.8486 C   0  0  0  0  0  0  0  0  0  0  0  0
    1.3700   19.3161   40.0072 C   0  0  0  0  0  0  0  0  0  0  0  0
    2.4194   20.3046   38.0616 C   0  0  0  0  0  0  0  0  0  0  0  0
    3.7981   19.0813   36.5420 N   0  0  0  0  0  0  0  0  0  0  0  0
   -0.5070   17.7117   42.7414 C   0  0  0  0  0  0  0  0  0  0  0  0
   -0.7895   16.4002   43.0569 C   0  0  0  0  0  0  0  0  0  0  0  0
    1.6246   16.9472   41.0287 C   0  0  0  0  0  0  0  0  0  0  0  0
    0.2145   15.3549   42.6815 C   0  0  2  0  0  0  0  0  0  0  0  0
    0.5714   12.6736   42.4553 O   0  0  0  0  0  0  0  0  0  0  0  0
    1.0215   18.3615   40.8946 C   0  0  0  0  0  0  0  0  0  0  0  0
   -0.0241   18.5928   41.8398 C   0  0  0  0  0  0  0  0  0  0  0  0
    3.2674   21.1450   36.1664 C   0  0  0  0  0  0  0  0  0  0  0  0
    3.7708   18.0681   37.3087 C   0  0  0  0  0  0  0  0  0  0  0  0
    3.7751   21.6872   35.3057 N   0  0  0  0  0  0  0  0  0  0  0  0
    0.4431   14.4528   43.7980 N   0  0  0  0  0  0  0  0  0  0  0  0
    3.0957   18.0768   38.5972 C   0  0  0  0  0  0  0  0  0  0  0  0
   -0.2777   20.5193   41.1694 C   0  0  0  0  0  0  0  0  0  0  0  0
    0.6539   20.4225   40.2932 C   0  0  0  0  0  0  0  0  0  0  0  0
    2.3140   19.1962   38.8662 C   0  0  0  0  0  0  0  0  0  0  0  0
   -0.2826   11.3457   44.1666 H   0  0  0  0  0  0  0  0  0  0  0  0
   -0.3855   12.5650   45.4648 H   0  0  0  0  0  0  0  0  0  0  0  0
    4.2556   16.0380   37.5528 H   0  0  0  0  0  0  0  0  0  0  0  0
    4.7102   16.7410   35.9774 H   0  0  0  0  0  0  0  0  0  0  0  0
    2.0995   16.1549   42.6327 H   0  0  0  0  0  0  0  0  0  0  0  0
    1.1387   15.2954   41.0102 H   0  0  0  0  0  0  0  0  0  0  0  0
    1.9296   21.2515   38.3331 H   0  0  0  0  0  0  0  0  0  0  0  0
   -1.5046   18.1483   42.8965 H   0  0  0  0  0  0  0  0  0  0  0  0
    0.5086   17.5798   43.1428 H   0  0  0  0  0  0  0  0  0  0  0  0
   -0.9241   16.3478   44.1474 H   0  0  0  0  0  0  0  0  0  0  0  0
   -1.6770   16.1578   42.4539 H   0  0  0  0  0  0  0  0  0  0  0  0
    2.6967   17.1326   41.1910 H   0  0  0  0  0  0  0  0  0  0  0  0
    1.1456   16.5121   40.1392 H   0  0  0  0  0  0  0  0  0  0  0  0
   -0.1310   14.6136   41.9459 H   0  0  0  0  0  0  0  0  0  0  0  0
    2.4624   21.8379   36.4522 H   0  0  0  0  0  0  0  0  0  0  0  0
    3.4266   22.6066   34.9989 H   0  0  0  0  0  0  0  0  0  0  0  0
    0.7758   14.8206   44.7008 H   0  0  0  0  0  0  0  0  0  0  0  0
    3.1970   17.2494   39.3148 H   0  0  0  0  0  0  0  0  0  0  0  0
   -0.6876   21.5369   41.2495 H   0  0  0  0  0  0  0  0  0  0  0  0
    0.8920   21.3302   39.7193 H   0  0  0  0  0  0  0  0  0  0  0  0
  1  8  1  0
  2 20  1  0
  2  4  1  0
  3 16  1  0
  5 18  1  0
  6 13  1  0
  7 23  2  0
  7 15  1  0
  8 24  2  0
  9  1  2  0
  9 18  1  0
 10 11  1  0
 12  6  1  0
 13 11  1  0
 13 20  1  0
 14  2  2  0
 15 12  1  0
 15 16  2  0
 16 10  1  0
 17  1  1  0
 18 21  2  0
 19 17  2  3
 21 24  1  0
 22  3  2  0
 23 22  1  0
 24  7  1  0
  4 25  1  0
  4 26  1  0
  5 27  1  0
  5 28  1  0
  6 29  1  0
  6 30  1  0
  8 31  1  0
 10 32  1  0
 10 33  1  0
 11 34  1  0
 11 35  1  0
 12 36  1  0
 12 37  1  0
 13 38  1  6
 17 39  1  0
 19 40  1  0
 20 41  1  0
 21 42  1  0
 22 43  1  0
 23 44  1  0
M  END
>  <mol_id>  (49) 
2026-08-24-6tgu-s0-n100-seed1-0051

>  <rmsd_to_ref>  (49) 


$$$$

     RDKit          3D

 34 35  0  0  0  0  0  0  0  0999 V2000
    0.0819   17.6631   42.9912 C   0  0  0  0  0  0  0  0  0  0  0  0
    2.0417   17.8052   40.6812 N   0  0  0  0  0  0  0  0  0  0  0  0
   -1.6168   18.8153   44.1052 C   0  0  0  0  0  0  0  0  0  0  0  0
   -1.4639   19.9440   43.2750 C   0  0  0  0  0  0  0  0  0  0  0  0
   -0.4629   19.9279   42.2956 C   0  0  0  0  0  0  0  0  0  0  0  0
    1.3361   18.7562   41.0786 C   0  0  0  0  0  0  0  0  0  0  0  0
    0.9997   16.2553   42.8463 Cl  0  0  0  0  0  0  0  0  0  0  0  0
    3.0396   19.7712   37.9519 C   0  0  0  0  0  0  0  0  0  0  0  0
    2.9619   18.4558   38.6247 C   0  0  0  0  0  0  0  0  0  0  0  0
    3.4046   17.6073   37.6669 C   0  0  0  0  0  0  0  0  0  0  0  0
   -0.8733   17.6878   43.9456 C   0  0  0  0  0  0  0  0  0  0  0  0
    3.4688   19.4867   36.6929 C   0  0  0  0  0  0  0  0  0  0  0  0
    3.5348   20.4008   35.6806 O   0  0  0  0  0  0  0  0  0  0  0  0
    2.8593   17.9691   39.8295 C   0  0  1  0  0  0  0  0  0  0  0  0
    3.7278   18.2201   36.5070 N   0  0  0  0  0  0  0  0  0  0  0  0
    2.7517   18.8602   39.9172 C   0  0  0  0  0  0  0  0  0  0  0  0
    1.8991   19.7720   40.5268 N   0  0  0  0  0  0  0  0  0  0  0  0
    0.3006   18.8254   42.1021 C   0  0  0  0  0  0  0  0  0  0  0  0
   -2.3646   18.8476   44.9113 H   0  0  0  0  0  0  0  0  0  0  0  0
   -2.1180   20.8203   43.3939 H   0  0  0  0  0  0  0  0  0  0  0  0
   -0.2944   20.8210   41.6761 H   0  0  0  0  0  0  0  0  0  0  0  0
    3.8531   19.5830   38.6679 H   0  0  0  0  0  0  0  0  0  0  0  0
    2.7399   20.8281   38.0071 H   0  0  0  0  0  0  0  0  0  0  0  0
    2.1787   19.1326   38.1989 H   0  0  0  0  0  0  0  0  0  0  0  0
    3.6583   19.3062   38.6658 H   0  0  0  0  0  0  0  0  0  0  0  0
    1.9360   18.7198   38.3287 H   0  0  0  0  0  0  0  0  0  0  0  0
    4.2976   17.0897   38.0469 H   0  0  0  0  0  0  0  0  0  0  0  0
    2.5803   16.9135   37.4455 H   0  0  0  0  0  0  0  0  0  0  0  0
   -1.0472   16.8092   44.5842 H   0  0  0  0  0  0  0  0  0  0  0  0
    3.4191   17.0261   39.9161 H   0  0  0  0  0  0  0  0  0  0  0  0
    4.1007   17.7801   35.6537 H   0  0  0  0  0  0  0  0  0  0  0  0
    3.7242   19.1570   40.3368 H   0  0  0  0  0  0  0  0  0  0  0  0
    2.2313   18.9430   38.9516 H   0  0  0  0  0  0  0  0  0  0  0  0
    1.7748   20.7944   40.5337 H   0  0  0  0  0  0  0  0  0  0  0  0
  1 11  2  0
  2  6  2  0
  4  3  2  0
  5  4  1  0
  6 18  1  0
  7  1  1  0
 10  9  1  0
 11  3  1  0
 12  8  1  0
 13 12  2  0
 14  9  1  0
 14 16  1  0
 14  2  1  0
 15 12  1  0
 15 10  1  0
 16 17  1  0
 17  6  1  0
 18  5  2  0
 18  1  1  0
  3 19  1  0
  4 20  1  0
  5 21  1  0
  8 22  1  0
  8 23  1  0
  8 24  1  0
  9 25  1  0
  9 26  1  0
 10 27  1  0
 10 28  1  0
 11 29  1  0
 14 30  1  1
 15 31  1  0
 16 32  1  0
 16 33  1  0
 17 34  1  0
M  END
>  <mol_id>  (50) 
2026-08-24-6tgu-s0-n100-seed1-0052

>  <rmsd_to_ref>  (50) 


$$$$

     RDKit          3D

 24 25  0  0  0  0  0  0  0  0999 V2000
    3.4980   18.5010   37.8480 C   0  0  0  0  0  0  0  0  0  0  0  0
    0.7690   20.1330   41.4250 C   0  0  0  0  0  0  0  0  0  0  0  0
    3.0920   18.1120   39.1090 C   0  0  0  0  0  0  0  0  0  0  0  0
   -0.1970   18.1430   43.6830 C   0  0  0  0  0  0  0  0  0  0  0  0
    3.1230   20.4780   36.6770 O   0  0  0  0  0  0  0  0  0  0  0  0
    2.8650   19.8290   37.6000 C   0  0  0  0  0  0  0  0  0  0  0  0
   -0.1280   20.2450   42.4440 C   0  0  0  0  0  0  0  0  0  0  0  0
    2.0870   20.0180   38.7060 O   0  0  0  0  0  0  0  0  0  0  0  0
    2.2640   19.0980   39.7040 C   0  0  0  0  0  0  0  0  0  0  0  0
   -0.5000   19.4570   43.4090 C   0  0  0  0  0  0  0  0  0  0  0  0
    0.5950   17.4450   42.8170 C   0  0  0  0  0  0  0  0  0  0  0  0
    1.2540   17.8350   41.6280 C   0  0  0  0  0  0  0  0  0  0  0  0
    4.1510   17.9160   36.9280 O   0  0  0  0  0  0  0  0  0  0  0  0
    1.4200   18.9530   40.9370 C   0  0  0  0  0  0  0  0  0  0  0  0
   -0.7730   17.6870   44.8710 C   0  0  0  0  0  0  0  0  0  0  0  0
    1.1120   21.3060   40.8180 O   0  0  0  0  0  0  0  0  0  0  0  0
   -1.2210   17.4520   45.8950 N   0  0  0  0  0  0  0  0  0  0  0  0
    3.3734   17.1630   39.5887 H   0  0  0  0  0  0  0  0  0  0  0  0
    0.2113   21.1461   42.9758 H   0  0  0  0  0  0  0  0  0  0  0  0
   -1.0176   20.0739   41.8200 H   0  0  0  0  0  0  0  0  0  0  0  0
   -1.1789   19.9248   44.1372 H   0  0  0  0  0  0  0  0  0  0  0  0
    0.7477   16.3913   43.0935 H   0  0  0  0  0  0  0  0  0  0  0  0
    1.7636   16.9851   41.1506 H   0  0  0  0  0  0  0  0  0  0  0  0
    1.7590   21.3049   40.0687 H   0  0  0  0  0  0  0  0  0  0  0  0
  1  3  1  0
  2  7  1  0
  3  9  2  0
  4 15  1  0
  5  6  2  0
  6  1  1  0
  6  8  1  0
  7 10  1  0
  8  9  1  0
  9 14  1  0
 10  4  2  0
 11  4  1  0
 12 11  2  0
 13  1  2  0
 14  2  2  0
 14 12  1  0
 15 17  3  0
 16  2  1  0
  3 18  1  0
  7 19  1  0
  7 20  1  0
 10 21  1  0
 11 22  1  0
 12 23  1  0
 16 24  1  0
M  END
>  <mol_id>  (51) 
2026-08-24-6tgu-s0-n100-seed1-0053

>  <rmsd_to_ref>  (51) 


$$$$

     RDKit          3D

 41 44  0  0  0  0  0  0  0  0999 V2000
    4.4155   13.6147   37.2038 C   0  0  0  0  0  0  0  0  0  0  0  0
    2.4906   18.8689   39.0388 C   0  0  0  0  0  0  0  0  0  0  0  0
   -0.3820   20.3081   42.0790 C   0  0  0  0  0  0  0  0  0  0  0  0
    1.2570   20.5597   40.3436 C   0  0  0  0  0  0  0  0  0  0  0  0
   -2.9076   18.3074   44.1410 N   0  0  0  0  0  0  0  0  0  0  0  0
    3.8869   17.4342   37.2703 C   0  0  0  0  0  0  0  0  0  0  0  0
    0.7529   16.7197   41.4232 S   0  0  0  0  0  0  0  0  0  0  0  0
    2.0621   21.3845   39.5119 O   0  0  0  0  0  0  0  0  0  0  0  0
    0.3330   21.1044   41.2055 C   0  0  0  0  0  0  0  0  0  0  0  0
    2.9259   15.2296   38.7123 C   0  0  0  0  0  0  0  0  0  0  0  0
    3.0532   17.6581   38.5110 C   0  0  0  0  0  0  0  0  0  0  0  0
    5.1201   12.7472   38.2141 C   0  0  0  0  0  0  0  0  0  0  0  0
   -1.4639   18.4806   44.2935 C   0  0  0  0  0  0  0  0  0  0  0  0
   -1.3189   20.8109   42.8408 O   0  0  0  0  0  0  0  0  0  0  0  0
   -0.3437   16.7063   42.7439 C   0  0  0  0  0  0  0  0  0  0  0  0
   -0.7256   18.0053   43.0048 C   0  0  0  0  0  0  0  0  0  0  0  0
    2.3103   14.3001   39.2346 O   0  0  0  0  0  0  0  0  0  0  0  0
    3.8123   12.2859   37.6589 C   0  0  0  0  0  0  0  0  0  0  0  0
    3.8846   14.9851   37.7032 C   0  0  0  0  0  0  0  0  0  0  0  0
    4.3040   18.3819   36.5638 O   0  0  0  0  0  0  0  0  0  0  0  0
    2.6014   16.4934   39.0881 N   0  0  0  0  0  0  0  0  0  0  0  0
    0.7790   18.3255   41.1816 C   0  0  0  0  0  0  0  0  0  0  0  0
    4.3244   16.1615   37.0362 N   0  0  0  0  0  0  0  0  0  0  0  0
    1.5053   19.1470   40.1384 C   0  0  0  0  0  0  0  0  0  0  0  0
   -0.1222   18.9300   42.1496 C   0  0  0  0  0  0  0  0  0  0  0  0
    4.6219   14.0463   36.2133 H   0  0  0  0  0  0  0  0  0  0  0  0
    2.0262   19.3370   38.1583 H   0  0  0  0  0  0  0  0  0  0  0  0
    3.3831   19.1715   39.6061 H   0  0  0  0  0  0  0  0  0  0  0  0
   -3.3539   18.3120   45.0693 H   0  0  0  0  0  0  0  0  0  0  0  0
   -3.2878   19.0782   43.5734 H   0  0  0  0  0  0  0  0  0  0  0  0
   -3.0982   17.4099   43.6729 H   0  0  0  0  0  0  0  0  0  0  0  0
    2.7217   20.9746   38.8980 H   0  0  0  0  0  0  0  0  0  0  0  0
    0.1609   22.1908   41.1989 H   0  0  0  0  0  0  0  0  0  0  0  0
    6.0472   12.2254   37.9343 H   0  0  0  0  0  0  0  0  0  0  0  0
    5.5119   12.9096   39.2291 H   0  0  0  0  0  0  0  0  0  0  0  0
   -1.2419   19.5437   44.4683 H   0  0  0  0  0  0  0  0  0  0  0  0
   -1.1184   17.8795   45.1475 H   0  0  0  0  0  0  0  0  0  0  0  0
   -1.8207   20.2243   43.4607 H   0  0  0  0  0  0  0  0  0  0  0  0
   -0.6838   15.8135   43.2892 H   0  0  0  0  0  0  0  0  0  0  0  0
    2.9157   12.2777   38.2961 H   0  0  0  0  0  0  0  0  0  0  0  0
    3.4588   11.3763   37.1513 H   0  0  0  0  0  0  0  0  0  0  0  0
  1 18  1  0
  1 19  1  0
  1 12  1  0
  2 24  1  0
  3 14  1  0
  4  9  2  0
  6 11  1  0
  7 15  1  0
  8  4  1  0
  9  3  1  0
 10 21  1  0
 10 17  2  0
 11 21  2  0
 11  2  1  0
 13  5  1  0
 15 16  2  0
 16 13  1  0
 18 12  1  0
 19 10  1  0
 20  6  2  0
 22  7  1  0
 22 25  1  0
 23  6  1  0
 23 19  2  0
 24  4  1  0
 24 22  2  0
 25  3  2  0
 25 16  1  0
  1 26  1  0
  2 27  1  0
  2 28  1  0
  5 29  1  0
  5 30  1  0
  5 31  1  0
  8 32  1  0
  9 33  1  0
 12 34  1  0
 12 35  1  0
 13 36  1  0
 13 37  1  0
 14 38  1  0
 15 39  1  0
 18 40  1  0
 18 41  1  0
M  CHG  1   5   1
M  END
>  <mol_id>  (52) 
2026-08-24-6tgu-s0-n100-seed1-0054

>  <rmsd_to_ref>  (52) 


$$$$

     RDKit          3D

 51 53  0  0  0  0  0  0  0  0999 V2000
   -0.9754   17.8367   44.0698 C   0  0  0  0  0  0  0  0  0  0  0  0
    1.9766   15.6627   41.3244 O   0  0  0  0  0  0  0  0  0  0  0  0
    0.2761   20.3970   41.8393 C   0  0  0  0  0  0  0  0  0  0  0  0
    2.4309   17.7753   40.2667 N   0  0  0  0  0  0  0  0  0  0  0  0
   -0.2744   19.7436   42.8766 C   0  0  0  0  0  0  0  0  0  0  0  0
    1.0815   19.7290   40.8707 C   0  0  0  0  0  0  0  0  0  0  0  0
    2.7827   18.3231   39.0807 C   0  0  0  0  0  0  0  0  0  0  0  0
    2.5977   20.1135   37.4157 C   0  0  0  0  0  0  0  0  0  0  0  0
    0.0374   14.6433   43.9998 C   0  0  0  0  0  0  0  0  0  0  0  0
    0.9509   16.0943   42.2041 C   0  0  0  0  0  0  0  0  0  0  0  0
    3.9449   18.1205   36.9963 C   0  0  0  0  0  0  0  0  0  0  0  0
   -0.1731   17.5816   45.2494 N   0  0  0  0  0  0  0  0  0  0  0  0
   -0.3191   15.9793   47.3262 C   0  0  0  0  0  0  0  0  0  0  0  0
    2.6305   14.4588   41.5931 C   0  0  0  0  0  0  0  0  0  0  0  0
    2.1207   21.2681   37.0039 N   0  0  0  0  0  0  0  0  0  0  0  0
    3.5909   21.6264   35.0465 N   0  0  0  0  0  0  0  0  0  0  0  0
    0.7857   17.6489   42.2143 C   0  0  0  0  0  0  0  0  0  0  0  0
   -0.2189   16.7768   46.3339 C   0  0  0  0  0  0  0  0  0  0  0  0
   -0.1488   18.3647   43.0810 N   0  0  0  0  0  0  0  0  0  0  0  0
    2.3034   19.6320   38.7381 C   0  0  0  0  0  0  0  0  0  0  0  0
    3.6030   17.6783   38.2649 C   0  0  0  0  0  0  0  0  0  0  0  0
    1.4300   20.3432   39.6568 C   0  0  0  0  0  0  0  0  0  0  0  0
    1.5441   18.3780   41.1127 C   0  0  0  0  0  0  0  0  0  0  0  0
    2.2348   21.6878   35.5972 C   0  0  0  0  0  0  0  0  0  0  0  0
    3.3998   19.3076   36.5661 C   0  0  0  0  0  0  0  0  0  0  0  0
    1.0585   15.5079   43.5100 O   0  0  0  0  0  0  0  0  0  0  0  0
   -1.4245   16.8970   43.7157 H   0  0  0  0  0  0  0  0  0  0  0  0
   -1.7812   18.5467   44.3073 H   0  0  0  0  0  0  0  0  0  0  0  0
    0.1004   21.4778   41.7345 H   0  0  0  0  0  0  0  0  0  0  0  0
    0.1339   20.2188   43.7807 H   0  0  0  0  0  0  0  0  0  0  0  0
   -1.3445   19.8258   42.6355 H   0  0  0  0  0  0  0  0  0  0  0  0
    0.0857   14.6040   45.0980 H   0  0  0  0  0  0  0  0  0  0  0  0
   -0.9465   15.0252   43.6895 H   0  0  0  0  0  0  0  0  0  0  0  0
    0.1844   13.6332   43.5899 H   0  0  0  0  0  0  0  0  0  0  0  0
    0.0035   15.7090   41.7990 H   0  0  0  0  0  0  0  0  0  0  0  0
    4.6279   17.5424   36.3565 H   0  0  0  0  0  0  0  0  0  0  0  0
    0.7398   17.3377   44.8395 H   0  0  0  0  0  0  0  0  0  0  0  0
   -0.5444   18.3968   45.7579 H   0  0  0  0  0  0  0  0  0  0  0  0
   -0.4055   15.2923   48.1809 H   0  0  0  0  0  0  0  0  0  0  0  0
    2.7127   14.3212   42.6814 H   0  0  0  0  0  0  0  0  0  0  0  0
    2.0572   13.6256   41.1605 H   0  0  0  0  0  0  0  0  0  0  0  0
    3.6367   14.4810   41.1493 H   0  0  0  0  0  0  0  0  0  0  0  0
    1.6574   21.8919   37.6799 H   0  0  0  0  0  0  0  0  0  0  0  0
    4.2710   21.5499   35.8162 H   0  0  0  0  0  0  0  0  0  0  0  0
    3.6748   20.8045   34.4313 H   0  0  0  0  0  0  0  0  0  0  0  0
    3.7804   22.4815   34.5046 H   0  0  0  0  0  0  0  0  0  0  0  0
    4.0407   16.7322   38.6162 H   0  0  0  0  0  0  0  0  0  0  0  0
    1.0490   21.3440   39.4059 H   0  0  0  0  0  0  0  0  0  0  0  0
    1.8807   22.7264   35.5202 H   0  0  0  0  0  0  0  0  0  0  0  0
    1.6303   20.9790   35.0123 H   0  0  0  0  0  0  0  0  0  0  0  0
    3.5907   19.6416   35.5356 H   0  0  0  0  0  0  0  0  0  0  0  0
  1 12  1  0
  2 14  1  0
  2 10  1  0
  3  5  1  0
  4 23  1  0
  5 19  1  0
  6 23  1  0
  6  3  2  0
  7  4  2  0
  8 20  1  0
 10 26  1  0
 11 21  2  0
 12 18  1  0
 15  8  1  0
 16 24  1  0
 17 10  1  0
 17 19  1  0
 18 13  3  0
 19  1  1  0
 20  7  1  0
 20 22  2  0
 21  7  1  0
 22  6  1  0
 23 17  2  0
 24 15  1  0
 25 11  1  0
 25  8  2  0
 26  9  1  0
  1 27  1  0
  1 28  1  0
  3 29  1  0
  5 30  1  0
  5 31  1  0
  9 32  1  0
  9 33  1  0
  9 34  1  0
 10 35  1  0
 11 36  1  0
 12 37  1  0
 12 38  1  0
 13 39  1  0
 14 40  1  0
 14 41  1  0
 14 42  1  0
 15 43  1  0
 16 44  1  0
 16 45  1  0
 16 46  1  0
 21 47  1  0
 22 48  1  0
 24 49  1  0
 24 50  1  0
 25 51  1  0
M  CHG  2  12   1  16   1
M  END
>  <mol_id>  (53) 
2026-08-24-6tgu-s0-n100-seed1-0055

>  <rmsd_to_ref>  (53) 


$$$$

     RDKit          3D

 41 43  0  0  0  0  0  0  0  0999 V2000
    1.4290   21.0570   39.9350 C   0  0  0  0  0  0  0  0  0  0  0  0
    0.6230   18.8910   40.9860 O   0  0  0  0  0  0  0  0  0  0  0  0
    2.2640   13.9730   41.4790 C   0  0  0  0  0  0  0  0  0  0  0  0
    1.4060   14.8010   42.2400 C   0  0  0  0  0  0  0  0  0  0  0  0
    0.1860   20.8500   42.1970 C   0  0  0  0  0  0  0  0  0  0  0  0
    1.9260   16.7310   41.3880 O   0  0  0  0  0  0  0  0  0  0  0  0
    2.2070   20.0700   39.0980 C   0  0  0  0  0  0  0  0  0  0  0  0
    3.3410   20.1330   36.7870 C   0  0  0  0  0  0  0  0  0  0  0  0
    0.7540   14.3200   43.3190 C   0  0  0  0  0  0  0  0  0  0  0  0
    3.7680   18.8550   36.6770 N   0  0  0  0  0  0  0  0  0  0  0  0
    3.6140   17.9160   37.5700 C   0  0  0  0  0  0  0  0  0  0  0  0
   -0.9880   16.2130   45.8990 C   0  0  0  0  0  0  0  0  0  0  0  0
    3.5100   20.9630   35.8510 O   0  0  0  0  0  0  0  0  0  0  0  0
    2.3400   18.7550   39.4550 N   0  0  0  0  0  0  0  0  0  0  0  0
   -0.2140   16.4560   43.7320 C   0  0  0  0  0  0  0  0  0  0  0  0
    0.3690   17.0440   42.6500 C   0  0  1  0  0  0  0  0  0  0  0  0
   -0.0950   15.1690   44.0570 C   0  0  0  0  0  0  0  0  0  0  0  0
    1.3020   16.1990   42.0250 C   0  0  0  0  0  0  0  0  0  0  0  0
   -0.2120   19.6680   42.8510 N   0  0  0  0  0  0  0  0  0  0  0  0
    2.6190   20.6020   37.8970 C   0  0  0  0  0  0  0  0  0  0  0  0
    3.0560   13.1940   40.9030 N   0  0  0  0  0  0  0  0  0  0  0  0
   -1.0320   17.3170   44.5280 O   0  0  0  0  0  0  0  0  0  0  0  0
    0.1440   18.4590   42.1920 C   0  0  0  0  0  0  0  0  0  0  0  0
    3.0700   17.9670   38.7260 C   0  0  0  0  0  0  0  0  0  0  0  0
    1.1050   20.2250   41.1790 C   0  0  2  0  0  0  0  0  0  0  0  0
    2.0397   21.9360   40.1888 H   0  0  0  0  0  0  0  0  0  0  0  0
    0.5422   21.4679   39.4302 H   0  0  0  0  0  0  0  0  0  0  0  0
   -0.6610   21.3728   41.7287 H   0  0  0  0  0  0  0  0  0  0  0  0
    0.6292   21.6294   42.8343 H   0  0  0  0  0  0  0  0  0  0  0  0
    0.8845   13.2704   43.6211 H   0  0  0  0  0  0  0  0  0  0  0  0
    4.2599   18.5991   35.8090 H   0  0  0  0  0  0  0  0  0  0  0  0
    4.0127   16.9312   37.2850 H   0  0  0  0  0  0  0  0  0  0  0  0
   -1.0110   16.7900   46.8353 H   0  0  0  0  0  0  0  0  0  0  0  0
   -1.8602   15.5439   45.8591 H   0  0  0  0  0  0  0  0  0  0  0  0
   -0.0653   15.6154   45.8591 H   0  0  0  0  0  0  0  0  0  0  0  0
    1.2031   17.3814   43.2828 H   0  0  0  0  0  0  0  0  0  0  0  0
   -0.6639   14.7662   44.9080 H   0  0  0  0  0  0  0  0  0  0  0  0
    3.2042   21.4789   38.2110 H   0  0  0  0  0  0  0  0  0  0  0  0
    1.6363   20.5008   37.4131 H   0  0  0  0  0  0  0  0  0  0  0  0
    3.2925   17.0449   39.2830 H   0  0  0  0  0  0  0  0  0  0  0  0
    2.1361   20.1883   41.5603 H   0  0  0  0  0  0  0  0  0  0  0  0
  2 25  1  0
  2 23  1  0
  3  4  1  0
  4  9  2  0
  5 19  1  0
  6 18  2  0
  7 14  2  0
  7  1  1  0
  8 20  1  0
  9 17  1  0
 10  8  1  0
 10 11  1  0
 11 24  2  0
 13  8  2  0
 15 17  2  0
 15 22  1  0
 16 23  1  0
 16 15  1  0
 18  4  1  0
 18 16  1  0
 20  7  1  0
 21  3  3  0
 22 12  1  0
 23 19  2  0
 24 14  1  0
 25  1  1  0
 25  5  1  0
  1 26  1  0
  1 27  1  0
  5 28  1  0
  5 29  1  0
  9 30  1  0
 10 31  1  0
 11 32  1  0
 12 33  1  0
 12 34  1  0
 12 35  1  0
 16 36  1  6
 17 37  1  0
 20 38  1  0
 20 39  1  0
 24 40  1  0
 25 41  1  1
M  END
>  <mol_id>  (54) 
2026-08-24-6tgu-s0-n100-seed1-0056

>  <rmsd_to_ref>  (54) 


$$$$

     RDKit          3D

 21 21  0  0  0  0  0  0  0  0999 V2000
    3.9283   18.0762   37.0855 C   0  0  0  0  0  0  0  0  0  0  0  0
    1.3929   16.6289   39.6211 C   0  0  0  0  0  0  0  0  0  0  0  0
    1.4091   21.4035   41.1888 C   0  0  0  0  0  0  0  0  0  0  0  0
    3.1707   18.2087   38.0401 C   0  0  0  0  0  0  0  0  0  0  0  0
    2.5736   19.8436   39.4594 N   0  0  0  0  0  0  0  0  0  0  0  0
    2.3504   18.5915   39.0824 C   0  0  0  0  0  0  0  0  0  0  0  0
    1.5627   20.1131   40.4939 C   0  0  1  0  0  0  0  0  0  0  0  0
    0.7593   19.0110   40.6065 C   0  0  0  0  0  0  0  0  0  0  0  0
    0.0400   21.5800   41.5926 N   0  0  0  0  0  0  0  0  0  0  0  0
    1.2933   17.9560   39.8465 C   0  0  0  0  0  0  0  0  0  0  0  0
    4.6081   17.9574   36.2289 H   0  0  0  0  0  0  0  0  0  0  0  0
    1.1940   16.0824   40.5548 H   0  0  0  0  0  0  0  0  0  0  0  0
    0.6589   16.3304   38.8582 H   0  0  0  0  0  0  0  0  0  0  0  0
    2.4070   16.3922   39.2666 H   0  0  0  0  0  0  0  0  0  0  0  0
    1.6978   22.2200   40.5106 H   0  0  0  0  0  0  0  0  0  0  0  0
    2.0545   21.4153   42.0794 H   0  0  0  0  0  0  0  0  0  0  0  0
    0.8893   20.5259   39.7284 H   0  0  0  0  0  0  0  0  0  0  0  0
   -0.1644   18.9588   41.2016 H   0  0  0  0  0  0  0  0  0  0  0  0
   -0.0015   21.7248   42.6116 H   0  0  0  0  0  0  0  0  0  0  0  0
   -0.3564   22.4008   41.1128 H   0  0  0  0  0  0  0  0  0  0  0  0
   -0.5026   20.7409   41.3427 H   0  0  0  0  0  0  0  0  0  0  0  0
  1  4  3  0
  2 10  1  0
  3  9  1  0
  4  6  1  0
  5  7  1  0
  6  5  2  0
  6 10  1  0
  7  8  1  0
  7  3  1  0
 10  8  2  0
  1 11  1  0
  2 12  1  0
  2 13  1  0
  2 14  1  0
  3 15  1  0
  3 16  1  0
  7 17  1  1
  8 18  1  0
  9 19  1  0
  9 20  1  0
  9 21  1  0
M  CHG  1   9   1
M  END
>  <mol_id>  (55) 
2026-08-24-6tgu-s0-n100-seed1-0057

>  <rmsd_to_ref>  (55) 


$$$$

     RDKit          3D

 49 50  0  0  0  0  0  0  0  0999 V2000
    3.3539   19.0858   38.5303 C   0  0  0  0  0  0  0  0  0  0  0  0
    4.7282   16.3989   36.8998 C   0  0  0  0  0  0  0  0  0  0  0  0
   -1.0649   15.0577   45.6596 C   0  0  0  0  0  0  0  0  0  0  0  0
   -0.4914   16.5814   43.8420 C   0  0  0  0  0  0  0  0  0  0  0  0
   -0.8855   19.6658   43.4521 C   0  0  0  0  0  0  0  0  0  0  0  0
    0.9734   19.3730   39.9799 N   0  0  0  0  0  0  0  0  0  0  0  0
    0.3560   18.2156   42.1371 C   0  0  0  0  0  0  0  0  0  0  0  0
    1.5136   20.6981   39.8899 C   0  0  0  0  0  0  0  0  0  0  0  0
    2.1395   21.1896   38.7232 N   0  0  0  0  0  0  0  0  0  0  0  0
    5.2518   15.6638   35.6797 O   0  0  0  0  0  0  0  0  0  0  0  0
   -1.0660   16.3533   45.1592 C   0  0  0  0  0  0  0  0  0  0  0  0
    3.8244   17.4977   36.6239 C   0  0  0  0  0  0  0  0  0  0  0  0
    3.8412   18.2620   35.6718 O   0  0  0  0  0  0  0  0  0  0  0  0
   -1.4849   18.7608   44.0153 N   0  0  0  0  0  0  0  0  0  0  0  0
    1.5050   17.6709   42.0891 O   0  0  0  0  0  0  0  0  0  0  0  0
    2.7970   20.3810   37.9345 C   0  0  2  0  0  0  0  0  0  0  0  0
   -0.0011   15.5805   43.1199 C   0  0  0  0  0  0  0  0  0  0  0  0
   -0.0359   14.1828   43.5048 C   0  0  0  0  0  0  0  0  0  0  0  0
    1.3149   21.4228   40.8542 O   0  0  0  0  0  0  0  0  0  0  0  0
   -0.0931   19.2315   41.1340 C   0  0  0  0  0  0  0  0  0  0  0  0
   -0.9655   20.9609   43.5471 N   0  0  0  0  0  0  0  0  0  0  0  0
    2.8228   17.6747   37.7541 C   0  0  0  0  0  0  0  0  0  0  0  0
   -0.6460   13.9119   44.8530 C   0  0  0  0  0  0  0  0  0  0  0  0
    3.0535   21.7847   36.3848 O   0  0  0  0  0  0  0  0  0  0  0  0
    2.9087   20.6408   36.7234 C   0  0  0  0  0  0  0  0  0  0  0  0
   -0.4586   18.1185   43.4058 C   0  0  1  0  0  0  0  0  0  0  0  0
   -0.7436   12.4877   45.2969 C   0  0  0  0  0  0  0  0  0  0  0  0
    4.4515   19.1215   38.4667 H   0  0  0  0  0  0  0  0  0  0  0  0
    2.9867   19.0324   39.5659 H   0  0  0  0  0  0  0  0  0  0  0  0
    4.1959   15.6722   37.5312 H   0  0  0  0  0  0  0  0  0  0  0  0
    5.6085   16.8455   37.3852 H   0  0  0  0  0  0  0  0  0  0  0  0
   -1.3898   14.8877   46.6967 H   0  0  0  0  0  0  0  0  0  0  0  0
    1.2510   18.5989   39.3596 H   0  0  0  0  0  0  0  0  0  0  0  0
    2.0774   22.1915   38.4925 H   0  0  0  0  0  0  0  0  0  0  0  0
    5.7170   14.8383   35.9663 H   0  0  0  0  0  0  0  0  0  0  0  0
   -1.4896   17.1840   45.7426 H   0  0  0  0  0  0  0  0  0  0  0  0
   -2.3048   18.5858   44.6137 H   0  0  0  0  0  0  0  0  0  0  0  0
    3.7246   20.9358   38.1390 H   0  0  0  0  0  0  0  0  0  0  0  0
    0.4672   15.8308   42.1565 H   0  0  0  0  0  0  0  0  0  0  0  0
    0.3541   13.3815   42.8599 H   0  0  0  0  0  0  0  0  0  0  0  0
   -0.2179   20.2037   41.6335 H   0  0  0  0  0  0  0  0  0  0  0  0
   -1.0492   18.9051   40.6987 H   0  0  0  0  0  0  0  0  0  0  0  0
   -1.8698   21.4328   43.4042 H   0  0  0  0  0  0  0  0  0  0  0  0
    1.8034   17.8014   37.3607 H   0  0  0  0  0  0  0  0  0  0  0  0
    2.7756   16.8057   38.4268 H   0  0  0  0  0  0  0  0  0  0  0  0
    2.8754   19.8363   35.9741 H   0  0  0  0  0  0  0  0  0  0  0  0
   -0.7383   12.4451   46.3961 H   0  0  0  0  0  0  0  0  0  0  0  0
   -1.6781   12.0486   44.9175 H   0  0  0  0  0  0  0  0  0  0  0  0
    0.1137   11.9215   44.9039 H   0  0  0  0  0  0  0  0  0  0  0  0
  4 11  1  0
  5 26  1  0
  5 14  1  0
  6 20  1  0
  7 15  2  0
  8  6  1  0
  8 19  2  0
  9  8  1  0
 10  2  1  0
 11  3  2  0
 12  2  1  0
 12 22  1  0
 13 12  2  0
 16 25  1  0
 16  9  1  0
 16  1  1  0
 17 18  1  0
 17  4  2  0
 18 23  2  0
 20  7  1  0
 21  5  2  3
 22  1  1  0
 23 27  1  0
 23  3  1  0
 24 25  2  0
 26  7  1  6
 26 14  1  0
 26  4  1  0
  1 28  1  0
  1 29  1  0
  2 30  1  0
  2 31  1  0
  3 32  1  0
  6 33  1  0
  9 34  1  0
 10 35  1  0
 11 36  1  0
 14 37  1  0
 16 38  1  1
 17 39  1  0
 18 40  1  0
 20 41  1  0
 20 42  1  0
 21 43  1  0
 22 44  1  0
 22 45  1  0
 25 46  1  0
 27 47  1  0
 27 48  1  0
 27 49  1  0
M  END
>  <mol_id>  (56) 
2026-08-24-6tgu-s0-n100-seed1-0058

>  <rmsd_to_ref>  (56) 


$$$$

     RDKit          3D

 33 35  0  0  0  0  0  0  0  0999 V2000
    1.4069   18.8479   40.3292 C   0  0  0  0  0  0  0  0  0  0  0  0
    2.3410   20.8742   37.3273 C   0  0  0  0  0  0  0  0  0  0  0  0
    1.3278   19.9499   39.4284 C   0  0  0  0  0  0  0  0  0  0  0  0
    0.7214   18.7929   41.5151 N   0  0  0  0  0  0  0  0  0  0  0  0
   -0.3463   17.0332   43.8918 C   0  0  0  0  0  0  0  0  0  0  0  0
    2.9198   18.9422   38.0896 C   0  0  0  0  0  0  0  0  0  0  0  0
    4.1327   18.0155   36.4417 O   0  0  0  0  0  0  0  0  0  0  0  0
    0.7952   17.7336   41.9444 O   0  0  0  0  0  0  0  0  0  0  0  0
    0.2620   16.7392   42.6340 C   0  0  0  0  0  0  0  0  0  0  0  0
    2.9746   21.8646   35.1217 O   0  0  0  0  0  0  0  0  0  0  0  0
    0.9401   15.4522   42.4341 C   0  0  0  0  0  0  0  0  0  0  0  0
    3.5901   19.0905   36.9927 N   0  0  0  0  0  0  0  0  0  0  0  0
    2.1182   17.8450   40.1169 N   0  0  0  0  0  0  0  0  0  0  0  0
   -0.4727   16.0284   44.8441 C   0  0  0  0  0  0  0  0  0  0  0  0
    0.6853   14.5184   43.4059 C   0  0  0  0  0  0  0  0  0  0  0  0
   -1.0867   16.1967   46.0282 O   0  0  0  0  0  0  0  0  0  0  0  0
    3.8602   21.0913   35.6287 O   0  0  0  0  0  0  0  0  0  0  0  0
   -0.1099   13.7782   45.5025 F   0  0  0  0  0  0  0  0  0  0  0  0
    0.0513   14.7404   44.5673 C   0  0  0  0  0  0  0  0  0  0  0  0
    3.3391   20.4054   36.5810 C   0  0  0  0  0  0  0  0  0  0  0  0
    2.1261   19.9331   38.3601 C   0  0  0  0  0  0  0  0  0  0  0  0
    3.0347   18.0296   38.9478 N   0  0  0  0  0  0  0  0  0  0  0  0
    1.7897   21.8131   37.1704 H   0  0  0  0  0  0  0  0  0  0  0  0
    0.2913   20.0030   39.0637 H   0  0  0  0  0  0  0  0  0  0  0  0
    1.6662   20.8159   40.0161 H   0  0  0  0  0  0  0  0  0  0  0  0
    0.2194   19.5795   41.9511 H   0  0  0  0  0  0  0  0  0  0  0  0
   -0.7126   18.0481   44.1059 H   0  0  0  0  0  0  0  0  0  0  0  0
    4.6512   18.0976   35.6024 H   0  0  0  0  0  0  0  0  0  0  0  0
    2.4044   22.2309   35.8433 H   0  0  0  0  0  0  0  0  0  0  0  0
    1.5984   15.2532   41.5755 H   0  0  0  0  0  0  0  0  0  0  0  0
    1.0331   13.4924   43.2155 H   0  0  0  0  0  0  0  0  0  0  0  0
   -1.1455   15.4425   46.6668 H   0  0  0  0  0  0  0  0  0  0  0  0
    3.8128   17.3636   38.8385 H   0  0  0  0  0  0  0  0  0  0  0  0
  1  4  1  0
  2 21  1  0
  3  1  1  0
  4  8  1  0
  5 14  1  0
  6 21  2  0
  6 22  1  0
  7 12  1  0
  8  9  1  0
  9  5  2  0
 10 17  1  0
 11  9  1  0
 11 15  2  0
 12  6  1  0
 13  1  2  0
 14 16  1  0
 15 19  1  0
 17 20  1  0
 19 14  2  0
 19 18  1  0
 20 12  1  0
 20  2  2  0
 21  3  1  0
 22 13  1  0
  2 23  1  0
  3 24  1  0
  3 25  1  0
  4 26  1  0
  5 27  1  0
  7 28  1  0
 10 29  1  0
 11 30  1  0
 15 31  1  0
 16 32  1  0
 22 33  1  0
M  END
>  <mol_id>  (57) 
2026-08-24-6tgu-s0-n100-seed1-0060

>  <rmsd_to_ref>  (57) 


$$$$

     RDKit          3D

 30 30  0  0  0  0  0  0  0  0999 V2000
    2.2101   19.9412   38.4859 C   0  0  0  0  0  0  0  0  0  0  0  0
   -0.9349   17.0785   46.1470 C   0  0  0  0  0  0  0  0  0  0  0  0
   -0.4027   17.9152   45.1103 O   0  0  0  0  0  0  0  0  0  0  0  0
    1.3062   16.3737   41.0330 C   0  0  0  0  0  0  0  0  0  0  0  0
    2.7065   20.0541   37.1626 C   0  0  0  0  0  0  0  0  0  0  0  0
    2.2868   20.8226   36.4070 O   0  0  0  0  0  0  0  0  0  0  0  0
    0.0652   17.8772   42.7799 N   0  0  0  0  0  0  0  0  0  0  0  0
    0.5691   18.5414   41.6890 C   0  0  0  0  0  0  0  0  0  0  0  0
   -2.1128   18.2046   43.7136 O   0  0  0  0  0  0  0  0  0  0  0  0
    2.6636   16.5481   39.2693 C   0  0  0  0  0  0  0  0  0  0  0  0
    2.6474   18.8361   39.1081 O   0  0  0  0  0  0  0  0  0  0  0  0
    3.4359   18.9610   36.8974 O   0  0  0  0  0  0  0  0  0  0  0  0
    3.5026   16.1734   38.2813 O   0  0  0  0  0  0  0  0  0  0  0  0
   -0.9593   15.5335   46.0510 C   0  0  0  0  0  0  0  0  0  0  0  0
    0.8285   15.7479   41.9958 O   0  0  0  0  0  0  0  0  0  0  0  0
    1.3539   17.7281   40.8170 C   0  0  0  0  0  0  0  0  0  0  0  0
    0.3560   19.8929   41.4557 C   0  0  0  0  0  0  0  0  0  0  0  0
    2.2780   17.7953   39.7183 C   0  0  0  0  0  0  0  0  0  0  0  0
   -0.8927   18.0328   43.8059 C   0  0  0  0  0  0  0  0  0  0  0  0
    2.0821   15.6041   40.1076 O   0  0  0  0  0  0  0  0  0  0  0  0
    1.1110   19.9132   38.4488 H   0  0  0  0  0  0  0  0  0  0  0  0
    2.5746   20.8099   39.0538 H   0  0  0  0  0  0  0  0  0  0  0  0
   -0.3607   17.3173   47.0544 H   0  0  0  0  0  0  0  0  0  0  0  0
   -2.0069   17.3201   46.0978 H   0  0  0  0  0  0  0  0  0  0  0  0
   -0.9788   15.1035   47.0633 H   0  0  0  0  0  0  0  0  0  0  0  0
   -1.8562   15.2145   45.4999 H   0  0  0  0  0  0  0  0  0  0  0  0
   -0.0604   15.1847   45.5216 H   0  0  0  0  0  0  0  0  0  0  0  0
    0.2571   20.4196   42.4164 H   0  0  0  0  0  0  0  0  0  0  0  0
    1.2077   20.3073   40.8964 H   0  0  0  0  0  0  0  0  0  0  0  0
   -0.5657   20.0230   40.8696 H   0  0  0  0  0  0  0  0  0  0  0  0
  1 11  1  0
  3  2  1  0
  4 15  2  0
  5  1  1  0
  6  5  2  0
  7 19  1  0
  8  7  2  3
  9 19  2  0
 10 18  1  0
 10 20  1  0
 11 18  1  0
 12  5  1  0
 13 10  2  0
 14  2  1  0
 16  4  1  0
 16  8  1  0
 17  8  1  0
 18 16  2  0
 19  3  1  0
 20  4  1  0
  1 21  1  0
  1 22  1  0
  2 23  1  0
  2 24  1  0
 14 25  1  0
 14 26  1  0
 14 27  1  0
 17 28  1  0
 17 29  1  0
 17 30  1  0
M  CHG  1  12  -1
M  END
>  <mol_id>  (58) 
2026-08-24-6tgu-s0-n100-seed1-0061

>  <rmsd_to_ref>  (58) 


$$$$

     RDKit          3D

 21 21  0  0  0  0  0  0  0  0999 V2000
    2.4464   21.1153   37.2922 O   0  0  0  0  0  0  0  0  0  0  0  0
    0.8039   17.2065   42.5626 O   0  0  0  0  0  0  0  0  0  0  0  0
    3.7595   19.7155   36.3626 O   0  0  0  0  0  0  0  0  0  0  0  0
    0.2781   21.8932   41.7748 F   0  0  0  0  0  0  0  0  0  0  0  0
    1.8338   18.2955   40.6253 C   0  0  0  0  0  0  0  0  0  0  0  0
    0.7434   20.7254   41.4392 C   0  0  0  0  0  0  0  0  0  0  0  0
    1.0405   18.3541   41.7934 C   0  0  0  0  0  0  0  0  0  0  0  0
    3.0712   20.0473   37.3611 C   0  0  0  0  0  0  0  0  0  0  0  0
    1.5576   20.6526   40.3079 C   0  0  0  0  0  0  0  0  0  0  0  0
   -0.4433   17.0076   43.1959 C   0  0  0  0  0  0  0  0  0  0  0  0
    3.1344   19.2746   38.6653 C   0  0  0  0  0  0  0  0  0  0  0  0
    2.1242   19.4254   39.8537 C   0  0  0  0  0  0  0  0  0  0  0  0
    0.5014   19.5661   42.1825 C   0  0  0  0  0  0  0  0  0  0  0  0
    2.2390   17.3225   40.3104 H   0  0  0  0  0  0  0  0  0  0  0  0
    1.7698   21.5746   39.7468 H   0  0  0  0  0  0  0  0  0  0  0  0
   -0.3125   17.0570   44.2870 H   0  0  0  0  0  0  0  0  0  0  0  0
   -1.1464   17.7903   42.8751 H   0  0  0  0  0  0  0  0  0  0  0  0
   -0.8420   16.0206   42.9188 H   0  0  0  0  0  0  0  0  0  0  0  0
    3.0925   18.2134   38.3787 H   0  0  0  0  0  0  0  0  0  0  0  0
    4.0340   19.7206   39.1144 H   0  0  0  0  0  0  0  0  0  0  0  0
   -0.1241   19.6191   43.0858 H   0  0  0  0  0  0  0  0  0  0  0  0
  1  8  1  0
  2 10  1  0
  3  8  2  0
  5  7  2  0
  6  4  1  0
  6 13  2  0
  7 13  1  0
  7  2  1  0
  8 11  1  0
  9  6  1  0
 11 12  1  0
 12  9  2  0
 12  5  1  0
  5 14  1  0
  9 15  1  0
 10 16  1  0
 10 17  1  0
 10 18  1  0
 11 19  1  0
 11 20  1  0
 13 21  1  0
M  CHG  1   1  -1
M  END
>  <mol_id>  (59) 
2026-08-24-6tgu-s0-n100-seed1-0062

>  <rmsd_to_ref>  (59) 


$$$$

     RDKit          3D

 35 39  0  0  0  0  0  0  0  0999 V2000
   -2.0405   18.2699   44.0430 N   0  0  0  0  0  0  0  0  0  0  0  0
    3.5082   17.9653   37.8076 C   0  0  0  0  0  0  0  0  0  0  0  0
    1.1189   18.0638   40.7845 C   0  0  0  0  0  0  0  0  0  0  0  0
    1.4011   11.7250   42.8877 Cl  0  0  0  0  0  0  0  0  0  0  0  0
    3.1829   15.4671   39.6902 O   0  0  0  0  0  0  0  0  0  0  0  0
    1.2467   20.4030   39.6964 C   0  0  0  0  0  0  0  0  0  0  0  0
    5.5156   16.6499   37.1800 C   0  0  0  0  0  0  0  0  0  0  0  0
    0.4727   16.0683   42.0754 C   0  0  0  0  0  0  0  0  0  0  0  0
    0.0080   14.0351   43.3218 C   0  0  0  0  0  0  0  0  0  0  0  0
    1.7926   13.9708   41.6737 C   0  0  0  0  0  0  0  0  0  0  0  0
    2.5202   18.2496   38.9170 C   0  0  0  0  0  0  0  0  0  0  0  0
    1.5005   15.2985   41.3624 C   0  0  0  0  0  0  0  0  0  0  0  0
    2.1061   19.6463   38.7756 C   0  0  0  0  0  0  0  0  0  0  0  0
   -0.4011   18.4898   42.2325 C   0  0  0  0  0  0  0  0  0  0  0  0
    2.7376   20.1339   37.5626 N   0  0  0  0  0  0  0  0  0  0  0  0
   -0.1764   19.6352   41.6522 N   0  0  0  0  0  0  0  0  0  0  0  0
    0.3598   17.4627   41.7166 C   0  0  2  0  0  0  0  0  0  0  0  0
    4.2098   16.8005   37.7280 N   0  0  0  0  0  0  0  0  0  0  0  0
    0.7732   19.4175   40.7022 C   0  0  0  0  0  0  0  0  0  0  0  0
    2.0423   17.4120   39.9601 C   0  0  0  0  0  0  0  0  0  0  0  0
    3.5764   19.1006   37.1149 N   0  0  0  0  0  0  0  0  0  0  0  0
   -1.4186   18.3462   43.2271 C   0  0  0  0  0  0  0  0  0  0  0  0
   -0.2913   15.3811   43.0514 C   0  0  0  0  0  0  0  0  0  0  0  0
    1.0296   13.3343   42.6670 C   0  0  0  0  0  0  0  0  0  0  0  0
    2.3122   16.0424   40.3042 C   0  0  0  0  0  0  0  0  0  0  0  0
    1.0045   21.4750   39.6506 H   0  0  0  0  0  0  0  0  0  0  0  0
    6.2119   16.3371   37.9721 H   0  0  0  0  0  0  0  0  0  0  0  0
    5.4950   15.8872   36.3876 H   0  0  0  0  0  0  0  0  0  0  0  0
    5.8486   17.6091   36.7569 H   0  0  0  0  0  0  0  0  0  0  0  0
   -0.5867   13.5075   44.0820 H   0  0  0  0  0  0  0  0  0  0  0  0
    2.6007   13.4350   41.1542 H   0  0  0  0  0  0  0  0  0  0  0  0
    2.5982   21.0531   37.1194 H   0  0  0  0  0  0  0  0  0  0  0  0
    1.1346   17.6568   42.4729 H   0  0  0  0  0  0  0  0  0  0  0  0
    3.7553   15.9531   38.0971 H   0  0  0  0  0  0  0  0  0  0  0  0
   -1.1042   15.8924   43.5877 H   0  0  0  0  0  0  0  0  0  0  0  0
  2 18  1  0
  2 11  1  0
  5 25  2  0
  6 19  1  0
  7 18  1  0
  8 23  1  0
 10 24  2  0
 11 20  2  0
 12 10  1  0
 12  8  2  0
 13 11  1  0
 13  6  2  0
 14 22  1  0
 15 13  1  0
 16 14  2  0
 17  3  1  0
 17 14  1  0
 17  8  1  0
 19  3  2  0
 19 16  1  0
 20 25  1  0
 20  3  1  0
 21 15  1  0
 21  2  2  0
 22  1  3  0
 23  9  2  0
 24  4  1  0
 24  9  1  0
 25 12  1  0
  6 26  1  0
  7 27  1  0
  7 28  1  0
  7 29  1  0
  9 30  1  0
 10 31  1  0
 15 32  1  0
 17 33  1  6
 18 34  1  0
 23 35  1  0
M  END
>  <mol_id>  (60) 
2026-08-24-6tgu-s0-n100-seed1-0063

>  <rmsd_to_ref>  (60) 


$$$$

     RDKit          3D

 47 48  0  0  0  0  0  0  0  0999 V2000
    0.4969   15.4781   42.5684 C   0  0  0  0  0  0  0  0  0  0  0  0
   -1.4775   15.1327   44.1533 N   0  0  0  0  0  0  0  0  0  0  0  0
   -1.0485   20.0704   42.9160 C   0  0  0  0  0  0  0  0  0  0  0  0
    3.1384   20.6512   36.4206 C   0  0  0  0  0  0  0  0  0  0  0  0
    2.4989   15.2198   39.8252 O   0  0  0  0  0  0  0  0  0  0  0  0
   -1.1931   21.3751   42.8451 O   0  0  0  0  0  0  0  0  0  0  0  0
    0.4546   20.8340   40.1695 C   0  0  0  0  0  0  0  0  0  0  0  0
    2.2696   19.1290   38.9096 C   0  0  0  0  0  0  0  0  0  0  0  0
   -1.6777   19.5319   43.9318 N   0  0  0  0  0  0  0  0  0  0  0  0
   -0.3651   14.5960   43.2822 C   0  0  1  0  0  0  0  0  0  0  0  0
    0.6799   19.5740   40.6813 C   0  0  0  0  0  0  0  0  0  0  0  0
    1.2633   15.7657   41.5989 C   0  0  1  0  0  0  0  0  0  0  0  0
    1.6024   18.7420   40.0381 C   0  0  0  0  0  0  0  0  0  0  0  0
    3.4924   19.3860   36.2434 O   0  0  0  0  0  0  0  0  0  0  0  0
    1.7589   13.6140   41.3149 C   0  0  0  0  0  0  0  0  0  0  0  0
    3.1220   21.4131   35.4770 O   0  0  0  0  0  0  0  0  0  0  0  0
   -0.1610   13.3080   43.0458 C   0  0  0  0  0  0  0  0  0  0  0  0
   -1.0878   17.0952   43.1000 O   0  0  0  0  0  0  0  0  0  0  0  0
   -0.2214   19.2104   42.0002 C   0  0  1  0  0  0  0  0  0  0  0  0
    2.0616   20.5024   38.4284 C   0  0  0  0  0  0  0  0  0  0  0  0
    0.6925   12.8553   42.1433 C   0  0  0  0  0  0  0  0  0  0  0  0
    2.9688   21.0686   37.6239 O   0  0  0  0  0  0  0  0  0  0  0  0
   -0.2300   17.7089   42.1295 C   0  0  0  0  0  0  0  0  0  0  0  0
    1.6694   14.7710   40.5644 C   0  0  2  0  0  0  0  0  0  0  0  0
    1.1087   21.2514   39.0451 C   0  0  0  0  0  0  0  0  0  0  0  0
    0.5864   16.9614   41.2970 N   0  0  0  0  0  0  0  0  0  0  0  0
   -0.2049   16.3179   42.4591 H   0  0  0  0  0  0  0  0  0  0  0  0
    1.3509   14.9820   43.0529 H   0  0  0  0  0  0  0  0  0  0  0  0
   -1.2375   14.9882   45.1445 H   0  0  0  0  0  0  0  0  0  0  0  0
   -1.5996   16.1394   43.9728 H   0  0  0  0  0  0  0  0  0  0  0  0
   -2.3534   14.6362   43.9363 H   0  0  0  0  0  0  0  0  0  0  0  0
    3.2166   15.6482   40.3557 H   0  0  0  0  0  0  0  0  0  0  0  0
   -0.2565   21.5078   40.6697 H   0  0  0  0  0  0  0  0  0  0  0  0
    2.9395   18.4361   38.3793 H   0  0  0  0  0  0  0  0  0  0  0  0
   -1.6330   18.5143   44.0846 H   0  0  0  0  0  0  0  0  0  0  0  0
   -2.2169   20.1264   44.5774 H   0  0  0  0  0  0  0  0  0  0  0  0
    0.3205   14.6217   44.1419 H   0  0  0  0  0  0  0  0  0  0  0  0
    2.3449   15.8239   41.7906 H   0  0  0  0  0  0  0  0  0  0  0  0
    1.7973   17.7427   40.4544 H   0  0  0  0  0  0  0  0  0  0  0  0
    2.5518   13.8343   42.0448 H   0  0  0  0  0  0  0  0  0  0  0  0
    1.8006   12.9092   40.4713 H   0  0  0  0  0  0  0  0  0  0  0  0
   -0.7335   12.5749   43.6331 H   0  0  0  0  0  0  0  0  0  0  0  0
   -1.1223   19.1614   41.3711 H   0  0  0  0  0  0  0  0  0  0  0  0
    0.6367   11.7736   41.9512 H   0  0  0  0  0  0  0  0  0  0  0  0
    1.0135   14.4945   39.7258 H   0  0  0  0  0  0  0  0  0  0  0  0
    0.8540   22.2340   38.6212 H   0  0  0  0  0  0  0  0  0  0  0  0
    0.7133   17.3248   40.3416 H   0  0  0  0  0  0  0  0  0  0  0  0
  1 10  1  0
  3  9  1  0
  4 22  1  0
  6  3  2  0
  7 11  2  0
  8 13  2  0
 10  2  1  0
 11 19  1  0
 12 26  1  0
 12  1  1  0
 13 11  1  0
 14  4  1  0
 15 21  1  0
 16  4  2  0
 17 10  1  0
 19 23  1  0
 19  3  1  0
 20  8  1  0
 20 25  2  0
 21 17  2  0
 22 20  1  0
 23 18  2  0
 24  5  1  0
 24 15  1  0
 24 12  1  0
 25  7  1  0
 26 23  1  0
  1 27  1  0
  1 28  1  0
  2 29  1  0
  2 30  1  0
  2 31  1  0
  5 32  1  0
  7 33  1  0
  8 34  1  0
  9 35  1  0
  9 36  1  0
 10 37  1  1
 12 38  1  1
 13 39  1  0
 15 40  1  0
 15 41  1  0
 17 42  1  0
 19 43  1  1
 21 44  1  0
 24 45  1  6
 25 46  1  0
 26 47  1  0
M  CHG  2   2   1  14  -1
M  END
>  <mol_id>  (61) 
2026-08-24-6tgu-s0-n100-seed1-0064

>  <rmsd_to_ref>  (61) 


$$$$

     RDKit          3D

 55 60  0  0  0  0  0  0  0  0999 V2000
   -1.8728   13.2519   45.3884 O   0  0  0  0  0  0  0  0  0  0  0  0
    0.9809   13.4896   43.0059 C   0  0  0  0  0  0  0  0  0  0  0  0
    1.3924   11.3314   42.1071 C   0  0  0  0  0  0  0  0  0  0  0  0
    1.0034   19.3111   41.1869 C   0  0  0  0  0  0  0  0  0  0  0  0
    2.1314   20.1185   39.2362 C   0  0  0  0  0  0  0  0  0  0  0  0
    1.7911   17.6077   39.4584 C   0  0  0  0  0  0  0  0  0  0  0  0
    3.2005   20.2856   37.3679 C   0  0  0  0  0  0  0  0  0  0  0  0
    2.3913   18.8126   38.7407 C   0  0  0  0  0  0  0  0  0  0  0  0
   -0.4668   19.3617   43.3206 C   0  0  0  0  0  0  0  0  0  0  0  0
    3.1760   18.9651   37.6324 C   0  0  0  0  0  0  0  0  0  0  0  0
    1.8645   16.2195   38.9814 C   0  0  2  0  0  0  0  0  0  0  0  0
    0.3293   19.7604   42.4525 N   0  0  0  0  0  0  0  0  0  0  0  0
    2.2127   14.9969   39.8218 C   0  0  2  0  0  0  0  0  0  0  0  0
    1.5240   20.2762   40.4353 C   0  0  0  0  0  0  0  0  0  0  0  0
   -0.7943   15.2759   44.4196 C   0  0  0  0  0  0  0  0  0  0  0  0
   -1.6033   18.2001   44.5794 C   0  0  0  0  0  0  0  0  0  0  0  0
    4.8452   15.4536   36.9912 C   0  0  0  0  0  0  0  0  0  0  0  0
   -0.0305   12.8888   43.9077 C   0  0  0  0  0  0  0  0  0  0  0  0
    1.1891   17.9752   40.7390 C   0  0  0  0  0  0  0  0  0  0  0  0
   -1.5132   12.4545   46.5413 C   0  0  0  0  0  0  0  0  0  0  0  0
   -0.6030   17.9376   43.6357 C   0  0  0  0  0  0  0  0  0  0  0  0
    3.6373   20.8890   36.1548 C   0  0  0  0  0  0  0  0  0  0  0  0
    1.0776   14.8414   42.8571 C   0  0  0  0  0  0  0  0  0  0  0  0
    4.2176   15.8919   38.1676 O   0  0  0  0  0  0  0  0  0  0  0  0
    0.2287   16.9603   43.2076 N   0  0  0  0  0  0  0  0  0  0  0  0
    0.1569   15.7577   43.4983 C   0  0  0  0  0  0  0  0  0  0  0  0
   -0.9302   13.8593   44.5837 C   0  0  0  0  0  0  0  0  0  0  0  0
   -1.5516   19.5148   44.0036 N   0  0  0  0  0  0  0  0  0  0  0  0
    2.5741   21.0589   38.2396 O   0  0  0  0  0  0  0  0  0  0  0  0
    3.8996   21.2605   35.0897 N   0  0  0  0  0  0  0  0  0  0  0  0
    2.9442   15.2332   38.4970 C   0  0  2  0  0  0  0  0  0  0  0  0
    2.7369   13.7505   39.0884 C   0  0  0  0  0  0  0  0  0  0  0  0
    1.8409   12.6570   42.3221 O   0  0  0  0  0  0  0  0  0  0  0  0
    1.1897   10.8513   43.0759 H   0  0  0  0  0  0  0  0  0  0  0  0
    0.4709   11.3490   41.5066 H   0  0  0  0  0  0  0  0  0  0  0  0
    2.1680   10.7641   41.5718 H   0  0  0  0  0  0  0  0  0  0  0  0
    3.6855   18.1692   37.0693 H   0  0  0  0  0  0  0  0  0  0  0  0
    1.0277   16.6933   38.4471 H   0  0  0  0  0  0  0  0  0  0  0  0
    0.6264   20.7210   42.6759 H   0  0  0  0  0  0  0  0  0  0  0  0
    1.8863   14.9160   40.8692 H   0  0  0  0  0  0  0  0  0  0  0  0
    1.4544   21.3022   40.8257 H   0  0  0  0  0  0  0  0  0  0  0  0
   -1.4183   15.9718   44.9996 H   0  0  0  0  0  0  0  0  0  0  0  0
   -2.5476   17.6544   44.4366 H   0  0  0  0  0  0  0  0  0  0  0  0
   -1.5067   17.9930   45.6554 H   0  0  0  0  0  0  0  0  0  0  0  0
    5.6600   14.7603   37.2468 H   0  0  0  0  0  0  0  0  0  0  0  0
    4.1113   14.9380   36.3544 H   0  0  0  0  0  0  0  0  0  0  0  0
    5.2561   16.3190   36.4506 H   0  0  0  0  0  0  0  0  0  0  0  0
   -0.1093   11.8030   44.0652 H   0  0  0  0  0  0  0  0  0  0  0  0
    0.8570   17.1619   41.4012 H   0  0  0  0  0  0  0  0  0  0  0  0
   -1.8488   12.9624   47.4575 H   0  0  0  0  0  0  0  0  0  0  0  0
   -1.9963   11.4688   46.4706 H   0  0  0  0  0  0  0  0  0  0  0  0
   -0.4211   12.3262   46.5723 H   0  0  0  0  0  0  0  0  0  0  0  0
    1.8823   15.2503   42.2284 H   0  0  0  0  0  0  0  0  0  0  0  0
    3.5928   13.1888   39.4909 H   0  0  0  0  0  0  0  0  0  0  0  0
    2.3006   12.8094   38.7222 H   0  0  0  0  0  0  0  0  0  0  0  0
  1 20  1  0
  2 18  1  0
  3 33  1  0
  4 12  1  0
  5 14  2  0
  6 19  1  0
  7 10  2  0
  7 29  1  0
  8  5  1  0
  8  6  2  0
  9 21  1  0
  9 28  2  0
 10  8  1  0
 11  6  1  0
 11 13  1  0
 12  9  1  0
 13 32  1  0
 14  4  1  0
 15 27  1  0
 17 24  1  0
 18 27  2  0
 19  4  2  0
 21 16  1  0
 22  7  1  0
 23  2  2  0
 23 26  1  0
 25 26  1  0
 25 21  2  3
 26 15  2  0
 27  1  1  0
 28 16  1  0
 29  5  1  0
 30 22  3  0
 31 24  1  6
 31 11  1  0
 31 32  1  0
 31 13  1  0
 33  2  1  0
  3 34  1  0
  3 35  1  0
  3 36  1  0
 10 37  1  0
 11 38  1  6
 12 39  1  0
 13 40  1  1
 14 41  1  0
 15 42  1  0
 16 43  1  0
 16 44  1  0
 17 45  1  0
 17 46  1  0
 17 47  1  0
 18 48  1  0
 19 49  1  0
 20 50  1  0
 20 51  1  0
 20 52  1  0
 23 53  1  0
 32 54  1  0
 32 55  1  0
M  END
>  <mol_id>  (62) 
2026-08-24-6tgu-s0-n100-seed1-0065

>  <rmsd_to_ref>  (62) 


$$$$

     RDKit          3D

 44 47  0  0  0  0  0  0  0  0999 V2000
   -1.0661   19.3786   43.0601 C   0  0  0  0  0  0  0  0  0  0  0  0
   -0.6266   16.7951   43.0292 C   0  0  0  0  0  0  0  0  0  0  0  0
    1.0034   15.8366   41.5213 C   0  0  0  0  0  0  0  0  0  0  0  0
   -0.6065   20.5789   42.6490 C   0  0  0  0  0  0  0  0  0  0  0  0
   -1.3452   12.3624   45.8802 C   0  0  0  0  0  0  0  0  0  0  0  0
   -0.6868   12.7524   44.5175 C   0  0  0  0  0  0  0  0  0  0  0  0
    0.4453   18.2258   41.3630 C   0  0  0  0  0  0  0  0  0  0  0  0
    2.9671   16.6960   38.3892 C   0  0  0  0  0  0  0  0  0  0  0  0
    2.7228   19.1212   38.2906 C   0  0  0  0  0  0  0  0  0  0  0  0
    0.1380   15.6481   42.5653 C   0  0  0  0  0  0  0  0  0  0  0  0
    1.1412   17.0367   40.8612 C   0  0  0  0  0  0  0  0  0  0  0  0
    0.4542   20.5652   40.6364 C   0  0  0  0  0  0  0  0  0  0  0  0
    3.7513   17.7786   36.5313 N   0  0  0  0  0  0  0  0  0  0  0  0
    3.3282   19.0262   37.0115 C   0  0  0  0  0  0  0  0  0  0  0  0
   -0.8514   14.0491   44.0708 N   0  0  0  0  0  0  0  0  0  0  0  0
   -1.8437   19.1091   44.0246 O   0  0  0  0  0  0  0  0  0  0  0  0
    1.0671   12.9762   42.6986 S   0  0  0  0  0  0  0  0  0  0  0  0
    3.5405   16.6060   37.2280 C   0  0  0  0  0  0  0  0  0  0  0  0
    0.2501   12.0165   43.8929 N   0  0  0  0  0  0  0  0  0  0  0  0
    2.5864   17.9138   39.0070 C   0  0  0  0  0  0  0  0  0  0  0  0
   -0.1624   21.1354   41.6871 C   0  0  0  0  0  0  0  0  0  0  0  0
    0.7134   19.2915   40.5997 C   0  0  0  0  0  0  0  0  0  0  0  0
   -0.3455   18.1623   42.4800 C   0  0  0  0  0  0  0  0  0  0  0  0
    0.0346   14.2939   43.1042 C   0  0  1  0  0  0  0  0  0  0  0  0
    3.4120   20.0575   36.3843 O   0  0  0  0  0  0  0  0  0  0  0  0
    1.9786   17.2520   39.7760 N   0  0  0  0  0  0  0  0  0  0  0  0
   -1.4139   16.6594   43.7853 H   0  0  0  0  0  0  0  0  0  0  0  0
    1.6194   14.9864   41.1934 H   0  0  0  0  0  0  0  0  0  0  0  0
   -1.4670   21.2227   42.8833 H   0  0  0  0  0  0  0  0  0  0  0  0
    0.4016   20.3631   43.0325 H   0  0  0  0  0  0  0  0  0  0  0  0
   -0.7740   12.8125   46.7055 H   0  0  0  0  0  0  0  0  0  0  0  0
   -2.3808   12.7324   45.9063 H   0  0  0  0  0  0  0  0  0  0  0  0
   -1.3442   11.2677   45.9879 H   0  0  0  0  0  0  0  0  0  0  0  0
    2.7623   15.7615   38.9321 H   0  0  0  0  0  0  0  0  0  0  0  0
    1.7174   19.5464   38.1552 H   0  0  0  0  0  0  0  0  0  0  0  0
    3.4013   19.7445   38.8915 H   0  0  0  0  0  0  0  0  0  0  0  0
    0.7477   21.1947   39.7834 H   0  0  0  0  0  0  0  0  0  0  0  0
    3.8464   15.6332   36.8155 H   0  0  0  0  0  0  0  0  0  0  0  0
    0.4534   11.0270   44.0939 H   0  0  0  0  0  0  0  0  0  0  0  0
   -0.2698   22.2298   41.6593 H   0  0  0  0  0  0  0  0  0  0  0  0
    0.2981   18.9942   39.6254 H   0  0  0  0  0  0  0  0  0  0  0  0
    1.7397   19.4065   40.9786 H   0  0  0  0  0  0  0  0  0  0  0  0
    0.7101   14.5699   43.9273 H   0  0  0  0  0  0  0  0  0  0  0  0
    2.1906   16.2939   39.4633 H   0  0  0  0  0  0  0  0  0  0  0  0
  1 16  2  0
  3 10  2  0
  4  1  1  0
  6  5  1  0
  7 23  1  0
  8 20  2  0
  9 20  1  0
 10  2  1  0
 11  7  2  0
 11  3  1  0
 12 21  2  0
 13 14  1  0
 13 18  2  0
 14  9  1  0
 15  6  2  0
 17 24  1  0
 17 19  1  0
 18  8  1  0
 19  6  1  0
 20 26  1  0
 21  4  1  0
 22 12  1  0
 22  7  1  0
 23  2  2  0
 23  1  1  0
 24 10  1  0
 24 15  1  0
 25 14  2  0
 26 11  1  0
  2 27  1  0
  3 28  1  0
  4 29  1  0
  4 30  1  0
  5 31  1  0
  5 32  1  0
  5 33  1  0
  8 34  1  0
  9 35  1  0
  9 36  1  0
 12 37  1  0
 18 38  1  0
 19 39  1  0
 21 40  1  0
 22 41  1  0
 22 42  1  0
 24 43  1  6
 26 44  1  0
M  END
>  <mol_id>  (63) 
2026-08-24-6tgu-s0-n100-seed1-0066

>  <rmsd_to_ref>  (63) 


$$$$

     RDKit          3D

 37 39  0  0  0  0  0  0  0  0999 V2000
    0.1150   19.6760   42.9868 C   0  0  0  0  0  0  0  0  0  0  0  0
    3.6125   18.9588   37.9459 C   0  0  0  0  0  0  0  0  0  0  0  0
    0.7986   20.0155   41.8166 C   0  0  0  0  0  0  0  0  0  0  0  0
    1.6809   20.5699   39.0240 C   0  0  0  0  0  0  0  0  0  0  0  0
   -1.0392   20.1854   44.6702 N   0  0  0  0  0  0  0  0  0  0  0  0
    3.0436   18.5747   39.1528 C   0  0  0  0  0  0  0  0  0  0  0  0
    1.5081   19.0339   41.1275 C   0  0  0  0  0  0  0  0  0  0  0  0
   -0.5144   17.6798   44.7573 N   0  0  0  0  0  0  0  0  0  0  0  0
   -1.0166   17.9450   46.0616 C   0  0  0  0  0  0  0  0  0  0  0  0
    3.2701   20.0705   37.2292 C   0  0  0  0  0  0  0  0  0  0  0  0
    2.2170   20.8485   37.8128 C   0  0  0  0  0  0  0  0  0  0  0  0
    2.0859   19.3839   39.7782 C   0  0  0  0  0  0  0  0  0  0  0  0
    3.9294   20.4195   35.9265 C   0  0  0  0  0  0  0  0  0  0  0  0
    0.1369   18.3653   43.5165 C   0  0  0  0  0  0  0  0  0  0  0  0
    0.9927   17.4687   42.8121 C   0  0  0  0  0  0  0  0  0  0  0  0
   -0.6257   16.9737   47.1443 C   0  0  0  0  0  0  0  0  0  0  0  0
   -0.5412   20.7876   43.7170 N   0  0  0  0  0  0  0  0  0  0  0  0
    3.4651   21.2097   34.9737 N   0  0  0  0  0  0  0  0  0  0  0  0
   -0.1711   18.1452   47.2436 C   0  0  0  0  0  0  0  0  0  0  0  0
    1.6926   17.7768   41.6844 N   0  0  0  0  0  0  0  0  0  0  0  0
    4.4035   18.3155   37.5331 H   0  0  0  0  0  0  0  0  0  0  0  0
    0.7769   21.0495   41.4422 H   0  0  0  0  0  0  0  0  0  0  0  0
    0.9265   21.2481   39.4492 H   0  0  0  0  0  0  0  0  0  0  0  0
   -0.7309   20.6217   45.5508 H   0  0  0  0  0  0  0  0  0  0  0  0
   -2.0662   20.2303   44.6059 H   0  0  0  0  0  0  0  0  0  0  0  0
    3.3473   17.6273   39.6219 H   0  0  0  0  0  0  0  0  0  0  0  0
   -0.6180   16.6738   44.5621 H   0  0  0  0  0  0  0  0  0  0  0  0
   -1.8855   18.4527   45.6174 H   0  0  0  0  0  0  0  0  0  0  0  0
    1.8272   21.7103   37.2512 H   0  0  0  0  0  0  0  0  0  0  0  0
    4.9139   19.9645   35.7432 H   0  0  0  0  0  0  0  0  0  0  0  0
    1.0960   16.4484   43.2101 H   0  0  0  0  0  0  0  0  0  0  0  0
   -1.3861   16.6265   47.8593 H   0  0  0  0  0  0  0  0  0  0  0  0
   -0.1588   15.9778   47.1364 H   0  0  0  0  0  0  0  0  0  0  0  0
   -0.5723   21.7916   43.4891 H   0  0  0  0  0  0  0  0  0  0  0  0
    4.0199   21.3687   34.1206 H   0  0  0  0  0  0  0  0  0  0  0  0
    0.9074   18.3099   47.1033 H   0  0  0  0  0  0  0  0  0  0  0  0
   -0.2062   18.8829   48.0588 H   0  0  0  0  0  0  0  0  0  0  0  0
  1 14  2  0
  1 17  1  0
  2  6  2  0
  3  1  1  0
  4 12  2  0
  6 12  1  0
  7 20  1  0
  7  3  2  0
  8  9  1  0
  9 16  1  0
  9 19  1  0
 10 11  2  0
 10  2  1  0
 11  4  1  0
 12  7  1  0
 13 10  1  0
 14  8  1  0
 15 14  1  0
 16 19  1  0
 17  5  1  0
 18 13  2  3
 20 15  2  0
  2 21  1  0
  3 22  1  0
  4 23  1  0
  5 24  1  0
  5 25  1  0
  6 26  1  0
  8 27  1  0
  9 28  1  0
 11 29  1  0
 13 30  1  0
 15 31  1  0
 16 32  1  0
 16 33  1  0
 17 34  1  0
 18 35  1  0
 19 36  1  0
 19 37  1  0
M  END
>  <mol_id>  (64) 
2026-08-24-6tgu-s0-n100-seed1-0067

>  <rmsd_to_ref>  (64) 


$$$$

     RDKit          3D

 59 63  0  0  0  0  0  0  0  0999 V2000
   -0.7993   18.7411   43.7134 C   0  0  0  0  0  0  0  0  0  0  0  0
    1.6216   20.7233   40.4961 C   0  0  0  0  0  0  0  0  0  0  0  0
    3.4312   17.3827   37.7114 C   0  0  2  0  0  0  0  0  0  0  0  0
    5.9134   14.7176   37.7285 O   0  0  0  0  0  0  0  0  0  0  0  0
   -0.6038   19.9459   43.1234 N   0  0  0  0  0  0  0  0  0  0  0  0
    2.5489   21.9159   36.6179 O   0  0  0  0  0  0  0  0  0  0  0  0
    0.7014   15.4399   42.6316 C   0  0  0  0  0  0  0  0  0  0  0  0
    3.4231   20.9835   36.6186 C   0  0  0  0  0  0  0  0  0  0  0  0
    5.7933   15.1311   35.5237 O   0  0  0  0  0  0  0  0  0  0  0  0
   -1.2151   16.0613   45.9272 N   0  0  0  0  0  0  0  0  0  0  0  0
   -0.4497   13.9903   45.0992 S   0  0  0  0  0  0  0  0  0  0  0  0
   -0.0889   17.6337   43.2573 C   0  0  0  0  0  0  0  0  0  0  0  0
   -1.1994   14.7672   48.0411 C   0  0  0  0  0  0  0  0  0  0  0  0
    0.2587   20.0528   42.0908 C   0  0  0  0  0  0  0  0  0  0  0  0
   -2.6119   14.4683   48.5975 C   0  0  0  0  0  0  0  0  0  0  0  0
    3.9691   19.2601   39.2611 C   0  0  0  0  0  0  0  0  0  0  0  0
    1.3121   16.3354   41.6268 C   0  0  0  0  0  0  0  0  0  0  0  0
    2.5984   17.3606   39.0732 C   0  0  0  0  0  0  0  0  0  0  0  0
    2.9883   18.5414   40.0007 C   0  0  2  0  0  0  0  0  0  0  0  0
    4.7298   16.8472   37.3413 N   0  0  0  0  0  0  0  0  0  0  0  0
    3.0398   19.7387   37.0871 N   0  0  0  0  0  0  0  0  0  0  0  0
    4.0618   14.0768   37.3269 O   0  0  0  0  0  0  0  0  0  0  0  0
   -0.1637   16.2425   43.6601 N   0  0  0  0  0  0  0  0  0  0  0  0
    0.7481   17.7397   42.1942 C   0  0  0  0  0  0  0  0  0  0  0  0
    1.8845   19.3600   40.6835 N   0  0  0  0  0  0  0  0  0  0  0  0
    4.6026   21.0748   36.0998 O   0  0  0  0  0  0  0  0  0  0  0  0
   -1.1670   14.9141   46.6253 C   0  0  1  0  0  0  0  0  0  0  0  0
    5.0375   15.3126   36.9555 P   0  0  0  0  0  5  0  0  0  0  0  0
    0.6682   21.0907   41.3466 N   0  0  0  0  0  0  0  0  0  0  0  0
    3.9408   18.8460   37.7511 C   0  0  2  0  0  0  0  0  0  0  0  0
   -0.6934   15.6776   44.6830 C   0  0  2  0  0  0  0  0  0  0  0  0
   -3.5803   15.1599   47.8500 O   0  0  0  0  0  0  0  0  0  0  0  0
    0.9979   18.9316   41.6565 C   0  0  1  0  0  0  0  0  0  0  0  0
   -0.5543   18.8624   44.7789 H   0  0  0  0  0  0  0  0  0  0  0  0
   -1.8438   18.4984   43.4682 H   0  0  0  0  0  0  0  0  0  0  0  0
    2.1203   21.3795   39.7677 H   0  0  0  0  0  0  0  0  0  0  0  0
    2.7261   16.8178   37.0840 H   0  0  0  0  0  0  0  0  0  0  0  0
    5.5983   14.7454   38.6665 H   0  0  0  0  0  0  0  0  0  0  0  0
    0.8375   14.3487   42.6539 H   0  0  0  0  0  0  0  0  0  0  0  0
   -2.1828   16.4024   45.8366 H   0  0  0  0  0  0  0  0  0  0  0  0
   -0.6984   16.8348   46.3697 H   0  0  0  0  0  0  0  0  0  0  0  0
   -0.8358   15.7001   48.4966 H   0  0  0  0  0  0  0  0  0  0  0  0
   -0.5634   13.9055   48.2920 H   0  0  0  0  0  0  0  0  0  0  0  0
   -2.8067   13.3876   48.5347 H   0  0  0  0  0  0  0  0  0  0  0  0
   -2.6633   14.7970   49.6460 H   0  0  0  0  0  0  0  0  0  0  0  0
    3.7649   20.3378   39.3434 H   0  0  0  0  0  0  0  0  0  0  0  0
    4.9622   19.0262   39.6723 H   0  0  0  0  0  0  0  0  0  0  0  0
    1.9527   16.1142   40.7603 H   0  0  0  0  0  0  0  0  0  0  0  0
    1.5263   17.4312   38.8371 H   0  0  0  0  0  0  0  0  0  0  0  0
    2.8240   16.4212   39.5991 H   0  0  0  0  0  0  0  0  0  0  0  0
    3.3853   18.1505   40.9492 H   0  0  0  0  0  0  0  0  0  0  0  0
    5.0277   17.3979   36.5233 H   0  0  0  0  0  0  0  0  0  0  0  0
    2.0630   19.4414   36.9519 H   0  0  0  0  0  0  0  0  0  0  0  0
    4.0301   13.9654   38.3101 H   0  0  0  0  0  0  0  0  0  0  0  0
   -1.8285   14.3460   47.2959 H   0  0  0  0  0  0  0  0  0  0  0  0
    4.9213   18.9044   37.2559 H   0  0  0  0  0  0  0  0  0  0  0  0
   -1.1352   16.2858   43.8799 H   0  0  0  0  0  0  0  0  0  0  0  0
   -4.2916   15.4884   48.4551 H   0  0  0  0  0  0  0  0  0  0  0  0
    1.7530   19.1292   42.4316 H   0  0  0  0  0  0  0  0  0  0  0  0
  2 25  1  0
  2 29  2  0
  3 20  1  0
  3 18  1  0
  5  1  1  0
  6  8  1  0
  7 23  1  0
  8 21  1  0
  9 28  2  0
 10 27  1  0
 11 27  1  0
 12  1  1  0
 12 23  1  0
 13 15  1  0
 14  5  2  0
 17 24  1  0
 17  7  2  0
 18 19  1  0
 19 16  1  0
 19 25  1  0
 24 12  2  0
 25 33  1  0
 26  8  2  0
 27 13  1  0
 28 20  1  0
 28 22  1  0
 28  4  1  0
 29 14  1  0
 30 21  1  0
 30  3  1  0
 30 16  1  0
 31 23  1  0
 31 11  1  0
 31 10  1  0
 32 15  1  0
 33 14  1  0
 33 24  1  0
  1 34  1  0
  1 35  1  0
  2 36  1  0
  3 37  1  6
  4 38  1  0
  7 39  1  0
 10 40  1  0
 10 41  1  0
 13 42  1  0
 13 43  1  0
 15 44  1  0
 15 45  1  0
 16 46  1  0
 16 47  1  0
 17 48  1  0
 18 49  1  0
 18 50  1  0
 19 51  1  1
 20 52  1  0
 21 53  1  0
 22 54  1  0
 27 55  1  6
 30 56  1  6
 31 57  1  6
 32 58  1  0
 33 59  1  1
M  CHG  2   6  -1  10   1
M  END
>  <mol_id>  (65) 
2026-08-24-6tgu-s0-n100-seed1-0068

>  <rmsd_to_ref>  (65) 


$$$$

     RDKit          3D

 17 18  0  0  0  0  0  0  0  0999 V2000
    3.2730   18.4540   38.2170 C   0  0  0  0  0  0  0  0  0  0  0  0
    2.1560   20.4440   38.8610 O   0  0  0  0  0  0  0  0  0  0  0  0
    0.8470   18.8030   42.3820 C   0  0  0  0  0  0  0  0  0  0  0  0
    1.7810   19.8320   39.9980 C   0  0  0  0  0  0  0  0  0  0  0  0
    2.8250   19.7340   37.9510 C   0  0  0  0  0  0  0  0  0  0  0  0
    2.9790   20.3730   36.8480 O   0  0  0  0  0  0  0  0  0  0  0  0
    2.0510   18.5010   40.2480 C   0  0  0  0  0  0  0  0  0  0  0  0
    2.8340   17.7920   39.3460 C   0  0  0  0  0  0  0  0  0  0  0  0
    0.6220   20.1500   42.0350 C   0  0  0  0  0  0  0  0  0  0  0  0
    1.5710   17.9280   41.4650 C   0  0  0  0  0  0  0  0  0  0  0  0
    1.0480   20.6510   40.8100 C   0  0  0  0  0  0  0  0  0  0  0  0
    3.9783   17.9634   37.5301 H   0  0  0  0  0  0  0  0  0  0  0  0
    0.4780   18.4118   43.3416 H   0  0  0  0  0  0  0  0  0  0  0  0
    3.0954   16.7387   39.5253 H   0  0  0  0  0  0  0  0  0  0  0  0
    0.1028   20.8135   42.7422 H   0  0  0  0  0  0  0  0  0  0  0  0
    1.7405   16.8674   41.7023 H   0  0  0  0  0  0  0  0  0  0  0  0
    0.8018   21.6782   40.5030 H   0  0  0  0  0  0  0  0  0  0  0  0
  1  8  2  0
  2  4  1  0
  4  7  1  0
  4 11  2  0
  5  1  1  0
  5  2  1  0
  6  5  2  0
  7 10  2  0
  8  7  1  0
  9  3  2  0
 10  3  1  0
 11  9  1  0
  1 12  1  0
  3 13  1  0
  8 14  1  0
  9 15  1  0
 10 16  1  0
 11 17  1  0
M  END
>  <mol_id>  (66) 
2026-08-24-6tgu-s0-n100-seed1-0069

>  <rmsd_to_ref>  (66) 


$$$$

     RDKit          3D

 24 26  0  0  0  0  0  0  0  0999 V2000
    2.0966   18.1873   40.4049 C   0  0  0  0  0  0  0  0  0  0  0  0
    3.9149   17.1399   37.5599 O   0  0  0  0  0  0  0  0  0  0  0  0
    1.6897   19.5078   39.9862 C   0  0  2  0  0  0  0  0  0  0  0  0
    2.2544   20.0387   38.6335 C   0  0  0  0  0  0  0  0  0  0  0  0
    3.3875   17.9269   38.3555 C   0  0  0  0  0  0  0  0  0  0  0  0
    3.2024   20.6322   35.9156 N   0  0  0  0  0  0  0  0  0  0  0  0
    0.4373   17.6572   43.5960 O   0  0  0  0  0  0  0  0  0  0  0  0
    1.6818   17.5758   41.5914 C   0  0  0  0  0  0  0  0  0  0  0  0
    2.9287   17.4517   39.5282 N   0  0  0  0  0  0  0  0  0  0  0  0
    3.0189   19.1439   37.8772 C   0  0  0  0  0  0  0  0  0  0  0  0
    0.3189   19.5965   42.1004 C   0  0  0  0  0  0  0  0  0  0  0  0
    0.7705   20.1890   40.8923 C   0  0  0  0  0  0  0  0  0  0  0  0
    3.5121   19.4570   36.5257 C   0  0  0  0  0  0  0  0  0  0  0  0
    0.7688   18.2658   42.5343 C   0  0  0  0  0  0  0  0  0  0  0  0
    1.9136   21.2306   37.9828 C   0  0  0  0  0  0  0  0  0  0  0  0
    2.4340   21.4964   36.6383 C   0  0  0  0  0  0  0  0  0  0  0  0
    0.8355   19.0733   39.4463 H   0  0  0  0  0  0  0  0  0  0  0  0
    1.1810   16.6404   41.3011 H   0  0  0  0  0  0  0  0  0  0  0  0
    2.6169   17.5123   42.1673 H   0  0  0  0  0  0  0  0  0  0  0  0
   -0.3908   20.1507   42.7323 H   0  0  0  0  0  0  0  0  0  0  0  0
    0.4154   21.1966   40.6300 H   0  0  0  0  0  0  0  0  0  0  0  0
    4.1433   18.7259   35.9992 H   0  0  0  0  0  0  0  0  0  0  0  0
    1.2593   21.9634   38.4776 H   0  0  0  0  0  0  0  0  0  0  0  0
    2.1863   22.4644   36.1784 H   0  0  0  0  0  0  0  0  0  0  0  0
  1  8  1  0
  2  5  2  0
  3  1  1  0
  3 12  1  0
  4  3  1  0
  5  9  1  0
  6 13  1  0
  6 16  2  0
  8 14  1  0
  9  1  2  0
 10  5  1  0
 10  4  1  0
 11 14  1  0
 12 11  2  0
 13 10  2  0
 14  7  2  0
 15  4  2  0
 16 15  1  0
  3 17  1  6
  8 18  1  0
  8 19  1  0
 11 20  1  0
 12 21  1  0
 13 22  1  0
 15 23  1  0
 16 24  1  0
M  END
>  <mol_id>  (67) 
2026-08-24-6tgu-s0-n100-seed1-0070

>  <rmsd_to_ref>  (67) 


$$$$

     RDKit          3D

 47 51  0  0  0  0  0  0  0  0999 V2000
    2.9003   16.4081   40.2690 O   0  0  0  0  0  0  0  0  0  0  0  0
   -1.9146   17.8630   46.0470 N   0  0  0  0  0  0  0  0  0  0  0  0
    3.4743   15.0290   39.8359 C   0  0  0  0  0  0  0  0  0  0  0  0
    0.2503   20.0039   42.2461 C   0  0  0  0  0  0  0  0  0  0  0  0
    1.3148   14.3702   42.1066 C   0  0  0  0  0  0  0  0  0  0  0  0
    4.4022   17.3986   37.2620 C   0  0  0  0  0  0  0  0  0  0  0  0
    0.5358   14.7879   43.2615 C   0  0  0  0  0  0  0  0  0  0  0  0
   -0.8266   15.4623   45.6820 C   0  0  0  0  0  0  0  0  0  0  0  0
    0.1797   13.8095   44.2788 C   0  0  0  0  0  0  0  0  0  0  0  0
    3.7529   17.1601   38.3520 N   0  0  0  0  0  0  0  0  0  0  0  0
   -0.7993   18.9866   44.1359 N   0  0  0  0  0  0  0  0  0  0  0  0
   -0.5105   16.5373   44.7061 C   0  0  0  0  0  0  0  0  0  0  0  0
    2.3881   20.8266   38.4230 C   0  0  0  0  0  0  0  0  0  0  0  0
    3.0930   17.5047   39.4871 C   0  0  0  0  0  0  0  0  0  0  0  0
   -0.9537   17.8436   44.7975 C   0  0  0  0  0  0  0  0  0  0  0  0
    1.4438   21.2323   39.5656 O   0  0  0  0  0  0  0  0  0  0  0  0
    1.8749   18.9980   40.8830 C   0  0  0  0  0  0  0  0  0  0  0  0
    0.1926   16.2221   43.4435 C   0  0  0  0  0  0  0  0  0  0  0  0
   -0.4515   14.1364   45.4961 C   0  0  0  0  0  0  0  0  0  0  0  0
    3.4435   19.9787   38.8713 C   0  0  2  0  0  0  0  0  0  0  0  0
   -0.0517   18.8125   43.0478 C   0  0  0  0  0  0  0  0  0  0  0  0
    4.2863   20.0392   37.7591 C   0  0  0  0  0  0  0  0  0  0  0  0
    0.5932   17.6120   42.6430 C   0  0  0  0  0  0  0  0  0  0  0  0
    1.4844   17.8695   41.6686 N   0  0  0  0  0  0  0  0  0  0  0  0
    2.2728   21.3024   37.3990 O   0  0  0  0  0  0  0  0  0  0  0  0
    4.9227   16.1619   36.5330 C   0  0  0  0  0  0  0  0  0  0  0  0
    4.5952   18.7478   36.8114 N   0  0  0  0  0  0  0  0  0  0  0  0
    1.2376   20.3456   40.9484 C   0  0  0  0  0  0  0  0  0  0  0  0
    2.8297   18.9139   39.9934 N   0  0  0  0  0  0  0  0  0  0  0  0
   -2.0673   17.0029   46.5927 H   0  0  0  0  0  0  0  0  0  0  0  0
   -2.3898   18.7358   46.3177 H   0  0  0  0  0  0  0  0  0  0  0  0
    3.6565   14.4113   40.7276 H   0  0  0  0  0  0  0  0  0  0  0  0
    2.7525   14.5212   39.1792 H   0  0  0  0  0  0  0  0  0  0  0  0
    4.4200   15.1792   39.2944 H   0  0  0  0  0  0  0  0  0  0  0  0
   -0.3122   20.8865   42.5846 H   0  0  0  0  0  0  0  0  0  0  0  0
    2.1398   13.7215   42.4361 H   0  0  0  0  0  0  0  0  0  0  0  0
    0.6688   13.8164   41.4095 H   0  0  0  0  0  0  0  0  0  0  0  0
    1.7249   15.2568   41.6009 H   0  0  0  0  0  0  0  0  0  0  0  0
   -1.3828   15.7276   46.5932 H   0  0  0  0  0  0  0  0  0  0  0  0
    0.4171   12.7528   44.0863 H   0  0  0  0  0  0  0  0  0  0  0  0
   -0.6396   13.3744   46.2667 H   0  0  0  0  0  0  0  0  0  0  0  0
    4.2762   19.9821   39.5900 H   0  0  0  0  0  0  0  0  0  0  0  0
    3.8605   20.8072   37.0967 H   0  0  0  0  0  0  0  0  0  0  0  0
    5.2654   20.2062   38.2320 H   0  0  0  0  0  0  0  0  0  0  0  0
    5.1708   15.3809   37.2669 H   0  0  0  0  0  0  0  0  0  0  0  0
    4.1485   15.7877   35.8470 H   0  0  0  0  0  0  0  0  0  0  0  0
    5.8238   16.4262   35.9601 H   0  0  0  0  0  0  0  0  0  0  0  0
  3  1  1  0
  4 21  2  0
  5  7  1  0
  6 10  1  0
  7 18  2  0
  7  9  1  0
  9 19  2  0
 10 14  2  0
 11 15  2  0
 12  8  2  0
 13 20  1  0
 13 16  1  0
 14 29  1  0
 14  1  1  0
 15 12  1  0
 15  2  1  0
 16 28  1  0
 17 24  1  0
 18 12  1  0
 19  8  1  0
 20 22  1  0
 20 29  1  0
 21 11  1  0
 23 21  1  0
 23 18  1  0
 24 23  2  0
 25 13  2  0
 26  6  1  0
 27  6  2  0
 27 22  1  0
 28 17  2  0
 28  4  1  0
 29 17  1  0
  2 30  1  0
  2 31  1  0
  3 32  1  0
  3 33  1  0
  3 34  1  0
  4 35  1  0
  5 36  1  0
  5 37  1  0
  5 38  1  0
  8 39  1  0
  9 40  1  0
 19 41  1  0
 20 42  1  1
 22 43  1  0
 22 44  1  0
 26 45  1  0
 26 46  1  0
 26 47  1  0
M  END
>  <mol_id>  (68) 
2026-08-24-6tgu-s0-n100-seed1-0071

>  <rmsd_to_ref>  (68) 


$$$$

     RDKit          3D

 39 40  0  0  0  0  0  0  0  0999 V2000
   -0.6691   17.4397   44.1550 C   0  0  0  0  0  0  0  0  0  0  0  0
    1.3153   20.9206   39.2746 C   0  0  0  0  0  0  0  0  0  0  0  0
    3.0204   19.4321   38.3316 C   0  0  0  0  0  0  0  0  0  0  0  0
    1.4815   13.7268   42.8249 C   0  0  0  0  0  0  0  0  0  0  0  0
    1.0499   19.0166   40.9052 C   0  0  0  0  0  0  0  0  0  0  0  0
    4.1472   16.4566   36.5905 N   0  0  0  0  0  0  0  0  0  0  0  0
   -0.0053   17.4892   43.0408 C   0  0  0  0  0  0  0  0  0  0  0  0
    2.9283   18.4695   39.2759 C   0  0  0  0  0  0  0  0  0  0  0  0
    2.5496   13.8196   41.8958 C   0  0  0  0  0  0  0  0  0  0  0  0
   -1.1793   18.6318   44.6932 N   0  0  0  0  0  0  0  0  0  0  0  0
    0.1667   18.7077   42.1821 C   0  0  0  0  0  0  0  0  0  0  0  0
    0.5984   16.1550   42.5544 C   0  0  0  0  0  0  0  0  0  0  0  0
    1.1499   12.6003   43.3998 O   0  0  0  0  0  0  0  0  0  0  0  0
    0.5262   14.8584   43.2287 C   0  0  0  0  0  0  0  0  0  0  0  0
    3.5235   18.9792   36.9928 C   0  0  0  0  0  0  0  0  0  0  0  0
    1.4378   16.2048   41.6291 O   0  0  0  0  0  0  0  0  0  0  0  0
    2.0287   18.1721   40.3503 C   0  0  0  0  0  0  0  0  0  0  0  0
   -0.9166   19.6329   43.9859 C   0  0  0  0  0  0  0  0  0  0  0  0
    3.7967   17.7018   36.9359 N   0  0  0  0  0  0  0  0  0  0  0  0
    2.2456   20.5297   38.3010 C   0  0  0  0  0  0  0  0  0  0  0  0
    3.6008   19.7098   36.1312 O   0  0  0  0  0  0  0  0  0  0  0  0
    0.7965   20.2348   40.3095 C   0  0  0  0  0  0  0  0  0  0  0  0
   -0.3905   19.7758   42.7237 N   0  0  0  0  0  0  0  0  0  0  0  0
   -0.8292   16.4803   44.6688 H   0  0  0  0  0  0  0  0  0  0  0  0
    0.9512   21.9540   39.1766 H   0  0  0  0  0  0  0  0  0  0  0  0
    4.2876   15.8914   37.4400 H   0  0  0  0  0  0  0  0  0  0  0  0
    3.4012   16.0363   36.0178 H   0  0  0  0  0  0  0  0  0  0  0  0
    3.7435   17.7348   39.2011 H   0  0  0  0  0  0  0  0  0  0  0  0
    3.4947   13.9722   42.4376 H   0  0  0  0  0  0  0  0  0  0  0  0
    2.6083   12.8900   41.3107 H   0  0  0  0  0  0  0  0  0  0  0  0
    2.3739   14.6686   41.2187 H   0  0  0  0  0  0  0  0  0  0  0  0
    1.6810   11.7823   43.2293 H   0  0  0  0  0  0  0  0  0  0  0  0
   -0.2135   14.6944   44.0261 H   0  0  0  0  0  0  0  0  0  0  0  0
    2.1129   17.1683   40.7921 H   0  0  0  0  0  0  0  0  0  0  0  0
   -1.1551   20.5898   44.4732 H   0  0  0  0  0  0  0  0  0  0  0  0
    3.5557   17.4877   37.9142 H   0  0  0  0  0  0  0  0  0  0  0  0
    2.3518   21.1867   37.4252 H   0  0  0  0  0  0  0  0  0  0  0  0
    0.9073   20.9402   41.1462 H   0  0  0  0  0  0  0  0  0  0  0  0
   -0.0844   19.8826   39.7527 H   0  0  0  0  0  0  0  0  0  0  0  0
  1 10  1  0
  2 22  1  0
  3 20  1  0
  3  8  2  0
  4 14  2  3
  4 13  1  0
  5 11  1  0
  6 19  1  0
  7  1  2  0
  8 17  1  0
  9  4  1  0
 11 23  2  0
 11  7  1  0
 12  7  1  0
 12 14  1  0
 15  3  1  0
 16 12  2  0
 17  5  2  0
 18 10  2  0
 19 15  1  0
 20  2  2  0
 21 15  2  0
 22  5  1  0
 23 18  1  0
  1 24  1  0
  2 25  1  0
  6 26  1  0
  6 27  1  0
  8 28  1  0
  9 29  1  0
  9 30  1  0
  9 31  1  0
 13 32  1  0
 14 33  1  0
 17 34  1  0
 18 35  1  0
 19 36  1  0
 20 37  1  0
 22 38  1  0
 22 39  1  0
M  END
>  <mol_id>  (69) 
2026-08-24-6tgu-s0-n100-seed1-0072

>  <rmsd_to_ref>  (69) 


$$$$

     RDKit          3D

 28 28  0  0  0  0  0  0  0  0999 V2000
    3.6322   21.2132   36.0195 O   0  0  0  0  0  0  0  0  0  0  0  0
    0.1730   18.4260   42.6766 C   0  0  0  0  0  0  0  0  0  0  0  0
    2.9599   20.7656   36.9584 C   0  0  0  0  0  0  0  0  0  0  0  0
    0.3639   16.1134   41.9785 C   0  0  0  0  0  0  0  0  0  0  0  0
    3.4025   18.4436   36.8761 O   0  0  0  0  0  0  0  0  0  0  0  0
   -1.1950   16.6645   43.7383 C   0  0  0  0  0  0  0  0  0  0  0  0
    1.6139   17.8938   40.7784 C   0  0  0  0  0  0  0  0  0  0  0  0
    2.1562   20.0736   39.7408 C   0  0  0  0  0  0  0  0  0  0  0  0
    1.0817   19.2232   40.2656 C   0  0  0  0  0  0  0  0  0  0  0  0
    3.1939   19.4829   37.5656 C   0  0  0  0  0  0  0  0  0  0  0  0
    2.1021   21.5679   37.3120 O   0  0  0  0  0  0  0  0  0  0  0  0
   -0.7819   18.0368   43.5923 C   0  0  0  0  0  0  0  0  0  0  0  0
    0.7139   17.4587   41.8476 C   0  0  0  0  0  0  0  0  0  0  0  0
   -0.5539   15.7502   42.8806 C   0  0  0  0  0  0  0  0  0  0  0  0
    3.3532   19.3804   39.0368 C   0  0  0  0  0  0  0  0  0  0  0  0
    0.4955   19.4753   42.6070 H   0  0  0  0  0  0  0  0  0  0  0  0
    0.8417   15.3546   41.3414 H   0  0  0  0  0  0  0  0  0  0  0  0
   -1.9571   16.3531   44.4679 H   0  0  0  0  0  0  0  0  0  0  0  0
    2.6337   18.0207   41.1708 H   0  0  0  0  0  0  0  0  0  0  0  0
    1.6545   17.1483   39.9706 H   0  0  0  0  0  0  0  0  0  0  0  0
    1.7027   20.7628   39.0132 H   0  0  0  0  0  0  0  0  0  0  0  0
    2.5958   20.5443   40.6326 H   0  0  0  0  0  0  0  0  0  0  0  0
    0.5823   19.7497   41.0923 H   0  0  0  0  0  0  0  0  0  0  0  0
    0.3775   19.0167   39.4461 H   0  0  0  0  0  0  0  0  0  0  0  0
   -1.2444   18.8013   44.2340 H   0  0  0  0  0  0  0  0  0  0  0  0
   -0.8208   14.6858   42.9563 H   0  0  0  0  0  0  0  0  0  0  0  0
    3.3851   18.3202   39.3283 H   0  0  0  0  0  0  0  0  0  0  0  0
    4.2891   19.8739   39.3377 H   0  0  0  0  0  0  0  0  0  0  0  0
  1  3  2  0
  2 12  1  0
  3 10  1  0
  4 14  2  0
  5 10  2  0
  7 13  1  0
  8  9  1  0
  9  7  1  0
 10 15  1  0
 11  3  1  0
 12  6  2  0
 13  2  2  0
 13  4  1  0
 14  6  1  0
 15  8  1  0
  2 16  1  0
  4 17  1  0
  6 18  1  0
  7 19  1  0
  7 20  1  0
  8 21  1  0
  8 22  1  0
  9 23  1  0
  9 24  1  0
 12 25  1  0
 14 26  1  0
 15 27  1  0
 15 28  1  0
M  CHG  1  11  -1
M  END
>  <mol_id>  (70) 
2026-08-24-6tgu-s0-n100-seed1-0073

>  <rmsd_to_ref>  (70) 


$$$$

     RDKit          3D

 49 54  0  0  0  0  0  0  0  0999 V2000
    3.7904   19.8139   37.1801 C   0  0  0  0  0  0  0  0  0  0  0  0
    1.1545   15.7350   41.7284 C   0  0  0  0  0  0  0  0  0  0  0  0
   -0.3191   13.3378   44.6119 C   0  0  0  0  0  0  0  0  0  0  0  0
   -1.5586   19.8663   43.3198 C   0  0  0  0  0  0  0  0  0  0  0  0
    2.8484   23.0082   35.5991 N   0  0  0  0  0  0  0  0  0  0  0  0
    2.9602   19.8738   38.3638 C   0  0  0  0  0  0  0  0  0  0  0  0
    0.0868   12.0639   44.6137 C   0  0  0  0  0  0  0  0  0  0  0  0
    2.8457   18.7634   39.2617 C   0  0  0  0  0  0  0  0  0  0  0  0
    2.1026   20.9457   38.5423 C   0  0  0  0  0  0  0  0  0  0  0  0
    0.1555   14.1744   43.6339 C   0  0  0  0  0  0  0  0  0  0  0  0
   -0.6942   20.4887   42.1920 C   0  0  0  0  0  0  0  0  0  0  0  0
    1.3562   12.3381   42.6401 N   0  0  0  0  0  0  0  0  0  0  0  0
   -0.3417   17.7092   42.5536 C   0  0  0  0  0  0  0  0  0  0  0  0
    1.8014   18.9048   40.2056 C   0  0  0  0  0  0  0  0  0  0  0  0
    2.8696   21.9457   36.5385 C   0  0  0  0  0  0  0  0  0  0  0  0
   -1.7313   19.2931   43.8264 N   0  0  0  0  0  0  0  0  0  0  0  0
    1.5338   14.4762   41.6750 C   0  0  0  0  0  0  0  0  0  0  0  0
    0.9994   13.6235   42.6387 C   0  0  0  0  0  0  0  0  0  0  0  0
    3.6674   17.6690   39.1586 O   0  0  0  0  0  0  0  0  0  0  0  0
   -1.4293   17.9427   43.5390 C   0  0  0  0  0  0  0  0  0  0  0  0
    3.7430   20.8230   36.3400 C   0  0  0  0  0  0  0  0  0  0  0  0
    1.1296   20.0404   40.4928 C   0  0  0  0  0  0  0  0  0  0  0  0
   -0.2370   15.4477   43.5917 C   0  0  0  0  0  0  0  0  0  0  0  0
    1.2612   21.1033   39.7318 C   0  0  0  0  0  0  0  0  0  0  0  0
    0.3204   18.4430   41.6564 C   0  0  0  0  0  0  0  0  0  0  0  0
    1.3711   17.9977   40.9617 N   0  0  0  0  0  0  0  0  0  0  0  0
    0.2231   19.8573   41.5548 C   0  0  0  0  0  0  0  0  0  0  0  0
    2.0597   21.9890   37.6153 C   0  0  0  0  0  0  0  0  0  0  0  0
    0.2502   16.3102   42.5983 C   0  0  0  0  0  0  0  0  0  0  0  0
    0.8923   11.5771   43.6372 C   0  0  0  0  0  0  0  0  0  0  0  0
    4.4422   18.9487   36.9892 H   0  0  0  0  0  0  0  0  0  0  0  0
    1.6133   16.4102   40.9912 H   0  0  0  0  0  0  0  0  0  0  0  0
   -1.0178   13.7066   45.3773 H   0  0  0  0  0  0  0  0  0  0  0  0
   -2.3334   20.6246   43.5062 H   0  0  0  0  0  0  0  0  0  0  0  0
    3.4654   22.9793   34.7749 H   0  0  0  0  0  0  0  0  0  0  0  0
    2.2159   23.8087   35.7411 H   0  0  0  0  0  0  0  0  0  0  0  0
   -0.2396   11.3962   45.4247 H   0  0  0  0  0  0  0  0  0  0  0  0
   -0.8796   21.5386   41.9212 H   0  0  0  0  0  0  0  0  0  0  0  0
   -1.2406   19.5212   44.7028 H   0  0  0  0  0  0  0  0  0  0  0  0
   -2.7613   19.2967   43.8246 H   0  0  0  0  0  0  0  0  0  0  0  0
    2.2364   14.1157   40.9092 H   0  0  0  0  0  0  0  0  0  0  0  0
    3.5682   16.9142   39.7916 H   0  0  0  0  0  0  0  0  0  0  0  0
   -1.9685   17.1119   44.0175 H   0  0  0  0  0  0  0  0  0  0  0  0
    4.3947   20.8073   35.4541 H   0  0  0  0  0  0  0  0  0  0  0  0
   -0.9482   15.8248   44.3413 H   0  0  0  0  0  0  0  0  0  0  0  0
    0.7684   22.0564   39.9737 H   0  0  0  0  0  0  0  0  0  0  0  0
    1.7697   17.0508   41.0349 H   0  0  0  0  0  0  0  0  0  0  0  0
    1.3734   22.8360   37.7618 H   0  0  0  0  0  0  0  0  0  0  0  0
    1.1751   10.5145   43.6664 H   0  0  0  0  0  0  0  0  0  0  0  0
  1  6  2  0
  2 17  1  0
  2 29  2  0
  3  7  2  0
  4 16  1  0
  5 15  1  0
  6  9  1  0
  6  8  1  0
  8 14  2  0
  9 24  1  0
 10  3  1  0
 11  4  2  0
 12 30  2  0
 13 29  1  0
 13 20  2  0
 14 22  1  0
 14 26  1  0
 15 28  1  0
 17 18  2  0
 18 12  1  0
 18 10  1  0
 19  8  1  0
 20 16  1  0
 21 15  2  0
 21  1  1  0
 22 27  1  0
 23 10  2  0
 24 22  2  0
 25 13  1  0
 26 25  1  0
 27 25  2  0
 27 11  1  0
 28  9  2  0
 29 23  1  0
 30  7  1  0
  1 31  1  0
  2 32  1  0
  3 33  1  0
  4 34  1  0
  5 35  1  0
  5 36  1  0
  7 37  1  0
 11 38  1  0
 16 39  1  0
 16 40  1  0
 17 41  1  0
 19 42  1  0
 20 43  1  0
 21 44  1  0
 23 45  1  0
 24 46  1  0
 26 47  1  0
 28 48  1  0
 30 49  1  0
M  CHG  1  16   1
M  END
>  <mol_id>  (71) 
2026-08-24-6tgu-s0-n100-seed1-0074

>  <rmsd_to_ref>  (71) 


$$$$

     RDKit          3D

 32 33  0  0  0  0  0  0  0  0999 V2000
    0.0982   18.0158   46.4065 N   0  0  0  0  0  0  0  0  0  0  0  0
    3.0841   17.2684   39.5662 O   0  0  0  0  0  0  0  0  0  0  0  0
    2.1179   22.0950   36.6212 O   0  0  0  0  0  0  0  0  0  0  0  0
    1.9971   20.9605   39.1761 C   0  0  0  0  0  0  0  0  0  0  0  0
   -0.9528   19.9777   44.4158 N   0  0  0  0  0  0  0  0  0  0  0  0
    2.7158   18.4509   39.3209 C   0  0  0  0  0  0  0  0  0  0  0  0
    3.7677   18.6776   37.2149 O   0  0  0  0  0  0  0  0  0  0  0  0
    0.5877   19.3114   42.1988 N   0  0  0  0  0  0  0  0  0  0  0  0
   -0.6817   17.8014   45.5829 C   0  0  0  0  0  0  0  0  0  0  0  0
    1.5828   20.3011   40.2096 C   0  0  0  0  0  0  0  0  0  0  0  0
   -1.4466   17.0101   45.4519 O   0  0  0  0  0  0  0  0  0  0  0  0
   -0.1318   19.0557   42.7353 C   0  0  1  0  0  0  0  0  0  0  0  0
    1.8945   18.9499   40.2125 C   0  0  0  0  0  0  0  0  0  0  0  0
    3.0261   21.1910   36.9094 O   0  0  0  0  0  0  0  0  0  0  0  0
    2.7459   20.5052   38.1242 C   0  0  2  0  0  0  0  0  0  0  0  0
    0.4484   17.6901   43.2784 S   0  0  0  0  0  0  0  0  0  0  0  0
   -0.4856   18.7120   44.2262 C   0  0  1  0  0  0  0  0  0  0  0  0
    1.4190   18.5573   41.1934 C   0  0  0  0  0  0  0  0  0  0  0  0
    3.1431   19.1586   38.1565 C   0  0  0  0  0  0  0  0  0  0  0  0
    0.7253   18.8286   46.3229 H   0  0  0  0  0  0  0  0  0  0  0  0
    0.1670   17.3943   47.2250 H   0  0  0  0  0  0  0  0  0  0  0  0
    1.7164   22.4380   37.4586 H   0  0  0  0  0  0  0  0  0  0  0  0
    1.7111   22.0219   39.1377 H   0  0  0  0  0  0  0  0  0  0  0  0
   -1.0288   20.1680   45.4252 H   0  0  0  0  0  0  0  0  0  0  0  0
   -0.3022   20.6516   43.9874 H   0  0  0  0  0  0  0  0  0  0  0  0
   -1.8806   20.0704   43.9781 H   0  0  0  0  0  0  0  0  0  0  0  0
    0.2144   20.1037   41.6568 H   0  0  0  0  0  0  0  0  0  0  0  0
    1.2934   19.3177   42.9491 H   0  0  0  0  0  0  0  0  0  0  0  0
    1.0234   20.7785   41.0276 H   0  0  0  0  0  0  0  0  0  0  0  0
   -0.8411   19.6845   42.1773 H   0  0  0  0  0  0  0  0  0  0  0  0
    3.1780   21.4335   38.5261 H   0  0  0  0  0  0  0  0  0  0  0  0
    1.5978   17.4959   41.4203 H   0  0  0  0  0  0  0  0  0  0  0  0
  3 14  1  0
  4 10  2  0
  6  2  2  0
  6 13  1  0
  7 19  2  0
  9  1  1  0
 10 13  1  0
 11  9  2  0
 12  8  1  0
 12 16  1  0
 12 17  1  0
 13 18  2  3
 15 14  1  0
 15 19  1  0
 15  4  1  0
 16 17  1  0
 17  5  1  1
 17  9  1  0
 18  8  1  0
 19  6  1  0
  1 20  1  0
  1 21  1  0
  3 22  1  0
  4 23  1  0
  5 24  1  0
  5 25  1  0
  5 26  1  0
  8 27  1  0
  8 28  1  0
 10 29  1  0
 12 30  1  6
 15 31  1  1
 18 32  1  0
M  CHG  2   5   1   8   1
M  END
>  <mol_id>  (72) 
2026-08-24-6tgu-s0-n100-seed1-0075

>  <rmsd_to_ref>  (72) 


$$$$

     RDKit          3D

 28 29  0  0  0  0  0  0  0  0999 V2000
    1.6059   17.9141   40.5216 C   0  0  2  0  0  0  0  0  0  0  0  0
    3.5038   20.5380   35.7202 O   0  0  0  0  0  0  0  0  0  0  0  0
   -0.1337   15.6004   42.6261 N   0  0  0  0  0  0  0  0  0  0  0  0
    0.5155   15.9377   41.4102 C   0  0  0  0  0  0  0  0  0  0  0  0
   -0.8947   16.4986   44.5821 N   0  0  0  0  0  0  0  0  0  0  0  0
    2.3558   18.1941   39.5466 N   0  0  0  0  0  0  0  0  0  0  0  0
   -0.2756   16.5596   43.4697 C   0  0  0  0  0  0  0  0  0  0  0  0
    2.7544   20.3194   36.7304 C   0  0  0  0  0  0  0  0  0  0  0  0
    1.7568   20.9352   37.0467 O   0  0  0  0  0  0  0  0  0  0  0  0
    2.8411   19.4303   39.0982 C   0  0  0  0  0  0  0  0  0  0  0  0
    2.4591   17.1600   38.5381 C   0  0  0  0  0  0  0  0  0  0  0  0
    0.9234   17.2345   41.4583 C   0  0  0  0  0  0  0  0  0  0  0  0
    2.9444   17.7484   37.2082 C   0  0  0  0  0  0  0  0  0  0  0  0
    0.5118   17.9304   42.8926 S   0  0  0  0  0  0  0  0  0  0  0  0
    3.2511   19.1809   37.6357 C   0  0  1  0  0  0  0  0  0  0  0  0
    1.5813   19.4870   40.5887 C   0  0  0  0  0  0  0  0  0  0  0  0
    2.4995   17.9007   41.1630 H   0  0  0  0  0  0  0  0  0  0  0  0
    0.6656   15.2558   40.5601 H   0  0  0  0  0  0  0  0  0  0  0  0
   -0.9497   17.3304   45.1871 H   0  0  0  0  0  0  0  0  0  0  0  0
   -1.3401   15.6177   44.8760 H   0  0  0  0  0  0  0  0  0  0  0  0
    2.0565   20.1992   39.1555 H   0  0  0  0  0  0  0  0  0  0  0  0
    3.6797   19.7951   39.7095 H   0  0  0  0  0  0  0  0  0  0  0  0
    2.2220   16.0987   38.7034 H   0  0  0  0  0  0  0  0  0  0  0  0
    3.0437   17.2715   36.2220 H   0  0  0  0  0  0  0  0  0  0  0  0
    4.3442   19.2307   37.5237 H   0  0  0  0  0  0  0  0  0  0  0  0
    1.7033   19.8115   41.6326 H   0  0  0  0  0  0  0  0  0  0  0  0
    2.4028   19.8929   39.9802 H   0  0  0  0  0  0  0  0  0  0  0  0
    0.6205   19.8556   40.2001 H   0  0  0  0  0  0  0  0  0  0  0  0
  1 16  1  0
  1 12  1  0
  2  8  2  0
  3  7  2  0
  4  3  1  0
  6  1  1  0
  7  5  1  0
  8  9  1  0
 10  6  1  0
 11  6  1  0
 12  4  2  0
 12 14  1  0
 13 15  1  0
 13 11  2  0
 14  7  1  0
 15  8  1  0
 15 10  1  0
  1 17  1  1
  4 18  1  0
  5 19  1  0
  5 20  1  0
 10 21  1  0
 10 22  1  0
 11 23  1  0
 13 24  1  0
 15 25  1  1
 16 26  1  0
 16 27  1  0
 16 28  1  0
M  CHG  1   9  -1
M  END
>  <mol_id>  (73) 
2026-08-24-6tgu-s0-n100-seed1-0076

>  <rmsd_to_ref>  (73) 


$$$$

     RDKit          3D

 48 51  0  0  0  0  0  0  0  0999 V2000
    2.4399   14.9166   41.3920 C   0  0  0  0  0  0  0  0  0  0  0  0
   -1.3605   20.8777   43.6344 O   0  0  0  0  0  0  0  0  0  0  0  0
    2.3422   19.5349   37.8473 C   0  0  0  0  0  0  0  0  0  0  0  0
    1.2686   19.1607   41.2379 C   0  0  0  0  0  0  0  0  0  0  0  0
   -0.7915   19.8725   43.2880 C   0  0  0  0  0  0  0  0  0  0  0  0
    4.1199   13.3054   38.0064 O   0  0  0  0  0  0  0  0  0  0  0  0
    2.3455   19.0849   39.0149 N   0  0  0  0  0  0  0  0  0  0  0  0
    1.7352   19.7766   40.1432 C   0  0  0  0  0  0  0  0  0  0  0  0
    2.7799   13.5970   41.4266 C   0  0  0  0  0  0  0  0  0  0  0  0
    2.7091   15.7480   40.2393 C   0  0  0  0  0  0  0  0  0  0  0  0
    3.5694   13.7685   39.1520 C   0  0  0  0  0  0  0  0  0  0  0  0
    2.7330   17.7228   38.9773 C   0  0  0  0  0  0  0  0  0  0  0  0
    0.8669   16.2106   42.7332 N   0  0  0  0  0  0  0  0  0  0  0  0
    1.9200   21.3489   36.5983 O   0  0  0  0  0  0  0  0  0  0  0  0
    3.1653   17.0111   37.8343 C   0  0  0  0  0  0  0  0  0  0  0  0
    0.3078   21.3039   41.8101 C   0  0  0  0  0  0  0  0  0  0  0  0
    3.5164   15.7399   37.9500 N   0  0  0  0  0  0  0  0  0  0  0  0
    0.2584   19.8995   42.0963 C   0  0  0  0  0  0  0  0  0  0  0  0
    1.7009   15.4786   42.3237 N   0  0  0  0  0  0  0  0  0  0  0  0
    2.8167   20.3366   36.8601 C   0  0  0  0  0  0  0  0  0  0  0  0
    3.8844   21.0359   34.9657 O   0  0  0  0  0  0  0  0  0  0  0  0
   -1.1686   18.6624   44.0368 N   0  0  0  0  0  0  0  0  0  0  0  0
    3.9190   20.1670   36.0761 N   0  0  0  0  0  0  0  0  0  0  0  0
    0.7058   21.8105   40.7184 N   0  0  0  0  0  0  0  0  0  0  0  0
    3.3747   12.9630   40.2672 C   0  0  0  0  0  0  0  0  0  0  0  0
    3.2363   15.1240   39.1447 C   0  0  0  0  0  0  0  0  0  0  0  0
   -0.9690   16.2214   44.5133 C   0  0  0  0  0  0  0  0  0  0  0  0
    2.5434   17.0850   40.2034 N   0  0  0  0  0  0  0  0  0  0  0  0
    0.3684   17.4554   42.9680 N   0  0  0  0  0  0  0  0  0  0  0  0
    1.4123   21.0917   39.8666 C   0  0  0  0  0  0  0  0  0  0  0  0
   -0.6217   17.4956   43.8595 C   0  0  0  0  0  0  0  0  0  0  0  0
    2.4357   18.5754   37.3177 H   0  0  0  0  0  0  0  0  0  0  0  0
    1.7582   20.3912   38.2154 H   0  0  0  0  0  0  0  0  0  0  0  0
    1.6078   18.1494   41.5065 H   0  0  0  0  0  0  0  0  0  0  0  0
    4.3834   12.3538   37.9332 H   0  0  0  0  0  0  0  0  0  0  0  0
    2.6017   13.0102   42.3397 H   0  0  0  0  0  0  0  0  0  0  0  0
    0.1426   15.5791   43.1041 H   0  0  0  0  0  0  0  0  0  0  0  0
    3.2094   17.5106   36.8552 H   0  0  0  0  0  0  0  0  0  0  0  0
   -0.0254   21.9947   42.5986 H   0  0  0  0  0  0  0  0  0  0  0  0
    2.0409   15.0240   43.1831 H   0  0  0  0  0  0  0  0  0  0  0  0
    3.8483   21.9735   35.2815 H   0  0  0  0  0  0  0  0  0  0  0  0
    4.6752   19.4947   36.2688 H   0  0  0  0  0  0  0  0  0  0  0  0
    3.6572   11.8999   40.2699 H   0  0  0  0  0  0  0  0  0  0  0  0
   -0.9398   16.3498   45.6054 H   0  0  0  0  0  0  0  0  0  0  0  0
   -1.9803   15.9157   44.2070 H   0  0  0  0  0  0  0  0  0  0  0  0
   -0.2462   15.4475   44.2157 H   0  0  0  0  0  0  0  0  0  0  0  0
    0.7272   18.2975   42.4955 H   0  0  0  0  0  0  0  0  0  0  0  0
    1.7490   21.5456   38.9230 H   0  0  0  0  0  0  0  0  0  0  0  0
  1  9  2  0
  1 19  1  0
  3  7  1  0
  4 18  2  0
  5  2  2  0
  5 22  1  0
  6 11  1  0
  7  8  1  0
  8  4  1  0
 10  1  1  0
 11 26  1  0
 11 25  2  0
 12  7  1  0
 12 28  2  0
 13 29  1  0
 14 20  2  0
 15 17  2  0
 15 12  1  0
 16 18  1  0
 17 26  1  0
 18  5  1  0
 19 13  1  0
 20  3  1  0
 21 23  1  0
 23 20  1  0
 24 16  2  0
 25  9  1  0
 26 10  2  0
 28 10  1  0
 29 31  1  0
 30  8  2  0
 30 24  1  0
 31 22  2  0
 31 27  1  0
  3 32  1  0
  3 33  1  0
  4 34  1  0
  6 35  1  0
  9 36  1  0
 13 37  1  0
 15 38  1  0
 16 39  1  0
 19 40  1  0
 21 41  1  0
 23 42  1  0
 25 43  1  0
 27 44  1  0
 27 45  1  0
 27 46  1  0
 29 47  1  0
 30 48  1  0
M  END
>  <mol_id>  (74) 
2026-08-24-6tgu-s0-n100-seed1-0077

>  <rmsd_to_ref>  (74) 


$$$$

     RDKit          3D

 37 42  0  0  0  0  0  0  0  0999 V2000
    2.4376   18.5037   38.3930 C   0  0  0  0  0  0  0  0  0  0  0  0
   -0.1923   19.4354   41.8205 C   0  0  0  0  0  0  0  0  0  0  0  0
    0.3241   18.1614   41.8883 C   0  0  0  0  0  0  0  0  0  0  0  0
    0.2886   20.0985   40.7873 O   0  0  0  0  0  0  0  0  0  0  0  0
    0.4231   15.9569   42.8785 C   0  0  0  0  0  0  0  0  0  0  0  0
    3.8961   17.2887   37.1103 C   0  0  0  0  0  0  0  0  0  0  0  0
    2.6638   21.1092   36.1042 O   0  0  0  0  0  0  0  0  0  0  0  0
    2.8693   19.0398   37.2188 C   0  0  0  0  0  0  0  0  0  0  0  0
    1.3938   20.4469   38.0938 C   0  0  0  0  0  0  0  0  0  0  0  0
   -1.7015   18.9312   43.6619 N   0  0  0  0  0  0  0  0  0  0  0  0
    1.8014   14.0077   42.2449 C   0  0  0  0  0  0  0  0  0  0  0  0
    3.1568   17.2237   38.3292 C   0  0  0  0  0  0  0  0  0  0  0  0
    1.3628   15.3307   42.0679 C   0  0  0  0  0  0  0  0  0  0  0  0
    1.1818   13.2227   43.2587 C   0  0  0  0  0  0  0  0  0  0  0  0
    0.1953   13.8467   43.9960 C   0  0  0  0  0  0  0  0  0  0  0  0
   -0.1568   15.0992   43.9087 C   0  0  0  0  0  0  0  0  0  0  0  0
   -0.9905   17.7012   43.7207 C   0  0  0  0  0  0  0  0  0  0  0  0
    1.2767   18.1434   40.8475 C   0  0  0  0  0  0  0  0  0  0  0  0
    1.1500   19.2453   40.1745 C   0  0  0  0  0  0  0  0  0  0  0  0
    2.0668   15.9215   40.9143 N   0  0  0  0  0  0  0  0  0  0  0  0
    3.7791   18.3948   36.5050 N   0  0  0  0  0  0  0  0  0  0  0  0
   -1.2492   19.7847   42.7024 C   0  0  0  0  0  0  0  0  0  0  0  0
   -0.0563   17.2628   42.7904 C   0  0  0  0  0  0  0  0  0  0  0  0
    1.9906   17.1252   40.5578 N   0  0  0  0  0  0  0  0  0  0  0  0
    1.6244   19.3797   38.9736 N   0  0  0  0  0  0  0  0  0  0  0  0
    2.2902   20.3364   37.0059 C   0  0  0  0  0  0  0  0  0  0  0  0
    4.5091   16.4571   36.7325 H   0  0  0  0  0  0  0  0  0  0  0  0
    0.3579   20.4066   37.7260 H   0  0  0  0  0  0  0  0  0  0  0  0
    1.5503   21.4034   38.6140 H   0  0  0  0  0  0  0  0  0  0  0  0
    2.6022   13.5895   41.6172 H   0  0  0  0  0  0  0  0  0  0  0  0
    3.8340   17.1152   39.1891 H   0  0  0  0  0  0  0  0  0  0  0  0
    2.4763   16.3600   38.3597 H   0  0  0  0  0  0  0  0  0  0  0  0
    1.4726   12.1782   43.4439 H   0  0  0  0  0  0  0  0  0  0  0  0
   -0.3455   13.2280   44.7273 H   0  0  0  0  0  0  0  0  0  0  0  0
   -0.8936   15.5115   44.6139 H   0  0  0  0  0  0  0  0  0  0  0  0
   -1.1976   17.0405   44.5756 H   0  0  0  0  0  0  0  0  0  0  0  0
   -1.7170   20.7757   42.6074 H   0  0  0  0  0  0  0  0  0  0  0  0
  1 12  1  0
  1 25  1  0
  2  3  1  0
  2 22  2  0
  3 23  2  0
  4  2  1  0
  5 16  2  0
  6 12  1  0
  7 26  2  0
  8  1  2  0
  9 25  1  0
 10 17  2  0
 11 14  1  0
 13 11  2  0
 13  5  1  0
 14 15  2  0
 16 15  1  0
 18  3  1  0
 19  4  1  0
 19 18  2  0
 20 13  1  0
 21  8  1  0
 21  6  2  0
 22 10  1  0
 23  5  1  0
 23 17  1  0
 24 18  1  0
 24 20  2  0
 25 19  1  0
 26  8  1  0
 26  9  1  0
  6 27  1  0
  9 28  1  0
  9 29  1  0
 11 30  1  0
 12 31  1  0
 12 32  1  0
 14 33  1  0
 15 34  1  0
 16 35  1  0
 17 36  1  0
 22 37  1  0
M  END
>  <mol_id>  (75) 
2026-08-24-6tgu-s0-n100-seed1-0078

>  <rmsd_to_ref>  (75) 


$$$$

     RDKit          3D

 39 40  0  0  0  0  0  0  0  0999 V2000
    0.4093   16.1971   42.4239 C   0  0  0  0  0  0  0  0  0  0  0  0
    5.2141   15.2132   35.7353 O   0  0  0  0  0  0  0  0  0  0  0  0
    1.5409   17.9908   40.5750 C   0  0  0  0  0  0  0  0  0  0  0  0
   -0.5376   20.5565   41.1832 C   0  0  0  0  0  0  0  0  0  0  0  0
    1.6935   16.6284   40.4013 C   0  0  0  0  0  0  0  0  0  0  0  0
    0.5642   19.8748   41.7025 O   0  0  0  0  0  0  0  0  0  0  0  0
   -0.8857   15.8847   44.4014 C   0  0  0  0  0  0  0  0  0  0  0  0
    4.2593   19.0124   37.5245 C   0  0  0  0  0  0  0  0  0  0  0  0
    4.3049   15.3430   36.6944 C   0  0  0  0  0  0  0  0  0  0  0  0
    4.0589   20.1790   35.5143 O   0  0  0  0  0  0  0  0  0  0  0  0
    1.1000   15.7170   41.3731 C   0  0  0  0  0  0  0  0  0  0  0  0
   -0.9241   17.2044   44.7001 N   0  0  0  0  0  0  0  0  0  0  0  0
    3.2216   16.9367   38.1408 C   0  0  0  0  0  0  0  0  0  0  0  0
    3.8399   16.6061   36.9589 C   0  0  0  0  0  0  0  0  0  0  0  0
    3.6652   14.3837   37.1625 O   0  0  0  0  0  0  0  0  0  0  0  0
    0.7459   18.4323   41.6375 C   0  0  0  0  0  0  0  0  0  0  0  0
   -0.3458   19.3170   44.1556 O   0  0  0  0  0  0  0  0  0  0  0  0
    3.6078   20.0032   36.7073 C   0  0  0  0  0  0  0  0  0  0  0  0
    0.3148   17.6515   42.6255 C   0  0  0  0  0  0  0  0  0  0  0  0
   -0.3389   18.1387   43.8686 C   0  0  0  0  0  0  0  0  0  0  0  0
    3.1416   18.3647   38.2890 N   0  0  0  0  0  0  0  0  0  0  0  0
    2.5444   16.0796   39.2516 C   0  0  0  0  0  0  0  0  0  0  0  0
    2.5716   20.6720   37.1533 O   0  0  0  0  0  0  0  0  0  0  0  0
   -0.2301   15.3714   43.2775 C   0  0  0  0  0  0  0  0  0  0  0  0
    2.0300   18.7066   39.8979 H   0  0  0  0  0  0  0  0  0  0  0  0
   -1.1968   20.8690   42.0065 H   0  0  0  0  0  0  0  0  0  0  0  0
   -0.1933   21.4440   40.6321 H   0  0  0  0  0  0  0  0  0  0  0  0
   -1.0910   19.8937   40.5017 H   0  0  0  0  0  0  0  0  0  0  0  0
   -1.3955   15.1811   45.0759 H   0  0  0  0  0  0  0  0  0  0  0  0
    4.9775   19.4850   38.2107 H   0  0  0  0  0  0  0  0  0  0  0  0
    4.8335   18.2884   36.9276 H   0  0  0  0  0  0  0  0  0  0  0  0
    1.2176   14.6307   41.2466 H   0  0  0  0  0  0  0  0  0  0  0  0
   -1.3967   17.5163   45.5605 H   0  0  0  0  0  0  0  0  0  0  0  0
    4.7088   17.2751   36.8721 H   0  0  0  0  0  0  0  0  0  0  0  0
    3.0112   16.6941   36.2409 H   0  0  0  0  0  0  0  0  0  0  0  0
    3.2201   18.6110   39.2860 H   0  0  0  0  0  0  0  0  0  0  0  0
    2.2382   18.6971   37.9225 H   0  0  0  0  0  0  0  0  0  0  0  0
    2.6893   14.9901   39.2067 H   0  0  0  0  0  0  0  0  0  0  0  0
   -0.2359   14.2878   43.0887 H   0  0  0  0  0  0  0  0  0  0  0  0
  1 19  1  0
  1 24  1  0
  2  9  2  0
  3 16  1  0
  4  6  1  0
  5  3  2  0
  5 11  1  0
  6 16  1  0
  7 12  1  0
  8 21  1  0
  9 14  1  0
  9 15  1  0
 10 18  2  0
 11  1  2  0
 13 21  1  0
 13 22  2  3
 14 13  1  0
 16 19  2  0
 18 23  1  0
 18  8  1  0
 19 20  1  0
 20 17  2  0
 20 12  1  0
 22  5  1  0
 24  7  2  0
  3 25  1  0
  4 26  1  0
  4 27  1  0
  4 28  1  0
  7 29  1  0
  8 30  1  0
  8 31  1  0
 11 32  1  0
 12 33  1  0
 14 34  1  0
 14 35  1  0
 21 36  1  0
 21 37  1  0
 22 38  1  0
 24 39  1  0
M  CHG  3  15  -1  21   1  23  -1
M  END
>  <mol_id>  (76) 
2026-08-24-6tgu-s0-n100-seed1-0080

>  <rmsd_to_ref>  (76) 


$$$$

     RDKit          3D

 41 45  0  0  0  0  0  0  0  0999 V2000
    1.3312   20.8905   41.0601 O   0  0  0  0  0  0  0  0  0  0  0  0
   -0.2694   18.4933   44.5274 N   0  0  0  0  0  0  0  0  0  0  0  0
    1.8855   19.8306   40.7144 C   0  0  0  0  0  0  0  0  0  0  0  0
    1.5255   18.4445   41.1998 C   0  0  0  0  0  0  0  0  0  0  0  0
    0.8318   14.4872   42.0280 C   0  0  0  0  0  0  0  0  0  0  0  0
    2.6413   12.9173   39.3011 C   0  0  0  0  0  0  0  0  0  0  0  0
   -0.3212   17.1898   44.7296 C   0  0  0  0  0  0  0  0  0  0  0  0
    2.7128   14.2382   39.1302 N   0  0  0  0  0  0  0  0  0  0  0  0
    0.5178   20.3372   43.3748 N   0  0  0  0  0  0  0  0  0  0  0  0
    0.8481   18.1066   42.4894 C   0  0  0  0  0  0  0  0  0  0  0  0
    3.7663   20.8934   35.5540 C   0  0  0  0  0  0  0  0  0  0  0  0
    3.3593   21.8683   35.2061 O   0  0  0  0  0  0  0  0  0  0  0  0
    0.3566   19.0177   43.4239 C   0  0  0  0  0  0  0  0  0  0  0  0
    1.7437   12.5929   40.3630 C   0  0  0  0  0  0  0  0  0  0  0  0
    0.6350   16.7831   42.7189 C   0  0  0  0  0  0  0  0  0  0  0  0
    3.7022   18.8773   36.8698 N   0  0  0  0  0  0  0  0  0  0  0  0
    0.0489   16.3117   43.7963 C   0  0  0  0  0  0  0  0  0  0  0  0
    2.8310   20.6834   37.7418 C   0  0  0  0  0  0  0  0  0  0  0  0
    2.0796   14.8252   40.1978 C   0  0  0  0  0  0  0  0  0  0  0  0
    2.9910   19.9265   39.9751 N   0  0  0  0  0  0  0  0  0  0  0  0
    2.8518   19.6679   38.6518 C   0  0  0  0  0  0  0  0  0  0  0  0
    1.6886   16.0678   40.7350 C   0  0  0  0  0  0  0  0  0  0  0  0
   -0.9695   16.6603   45.9915 N   0  0  0  0  0  0  0  0  0  0  0  0
    1.0556   15.7919   41.8983 C   0  0  0  0  0  0  0  0  0  0  0  0
    1.8522   17.3772   40.4185 C   0  0  0  0  0  0  0  0  0  0  0  0
    1.4080   13.8275   40.9770 C   0  0  0  0  0  0  0  0  0  0  0  0
    3.3111   18.5474   38.0642 C   0  0  0  0  0  0  0  0  0  0  0  0
    3.3951   20.2346   36.6786 N   0  0  0  0  0  0  0  0  0  0  0  0
    0.2728   14.0143   42.8490 H   0  0  0  0  0  0  0  0  0  0  0  0
    3.1978   12.1789   38.7053 H   0  0  0  0  0  0  0  0  0  0  0  0
    0.1171   20.9329   44.1133 H   0  0  0  0  0  0  0  0  0  0  0  0
    1.0434   20.7632   42.5981 H   0  0  0  0  0  0  0  0  0  0  0  0
    4.5392   20.4218   34.9294 H   0  0  0  0  0  0  0  0  0  0  0  0
    1.3860   11.5921   40.6468 H   0  0  0  0  0  0  0  0  0  0  0  0
   -0.1296   15.2338   43.9238 H   0  0  0  0  0  0  0  0  0  0  0  0
    2.4130   21.6901   37.8894 H   0  0  0  0  0  0  0  0  0  0  0  0
    3.8998   20.1827   40.3865 H   0  0  0  0  0  0  0  0  0  0  0  0
   -1.0157   15.6452   46.1599 H   0  0  0  0  0  0  0  0  0  0  0  0
   -1.3642   17.3152   46.6815 H   0  0  0  0  0  0  0  0  0  0  0  0
    2.2917   17.5986   39.4347 H   0  0  0  0  0  0  0  0  0  0  0  0
    3.3482   17.5427   38.5105 H   0  0  0  0  0  0  0  0  0  0  0  0
  2  7  2  0
  3  1  2  0
  3  4  1  0
  4 10  1  0
  6 14  2  0
  7 23  1  0
  8  6  1  0
  8 19  2  0
  9 13  1  0
 10 15  1  0
 10 13  2  0
 11 28  1  0
 12 11  2  0
 13  2  1  0
 14 26  1  0
 15 17  2  0
 16 27  2  0
 17  7  1  0
 18 21  2  0
 19 22  1  0
 19 26  1  0
 20  3  1  0
 21 20  1  0
 22 24  2  0
 24  5  1  0
 24 15  1  0
 25  4  2  0
 25 22  1  0
 26  5  2  0
 27 21  1  0
 28 16  1  0
 28 18  1  0
  5 29  1  0
  6 30  1  0
  9 31  1  0
  9 32  1  0
 11 33  1  0
 14 34  1  0
 17 35  1  0
 18 36  1  0
 20 37  1  0
 23 38  1  0
 23 39  1  0
 25 40  1  0
 27 41  1  0
M  END
>  <mol_id>  (77) 
2026-08-24-6tgu-s0-n100-seed1-0081

>  <rmsd_to_ref>  (77) 


$$$$

     RDKit          3D

108112  0  0  0  0  0  0  0  0999 V2000
   -0.0216   20.4534   43.7869 O   0  0  0  0  0  0  0  0  0  0  0  0
    6.8721   13.2721   36.9243 C   0  0  0  0  0  0  0  0  0  0  0  0
    3.9276   11.9508   35.8376 C   0  0  0  0  0  0  0  0  0  0  0  0
    3.1621   18.4256   37.4716 C   0  0  2  0  0  0  0  0  0  0  0  0
   -1.5152   17.5296   47.7543 C   0  0  0  0  0  0  0  0  0  0  0  0
    2.9380   19.9397   37.5663 C   0  0  1  0  0  0  0  0  0  0  0  0
    2.8661   20.7638   36.2855 O   0  0  0  0  0  0  0  0  0  0  0  0
    3.3282   12.2522   39.6649 C   0  0  0  0  0  0  0  0  0  0  0  0
   -2.8665   17.3205   47.6184 C   0  0  0  0  0  0  0  0  0  0  0  0
   -3.1530   18.2392   45.2760 C   0  0  0  0  0  0  0  0  0  0  0  0
   -0.8839   18.6319   45.7866 C   0  0  0  0  0  0  0  0  0  0  0  0
   -1.9022   21.1962   41.2314 O   0  0  0  0  0  0  0  0  0  0  0  0
   -1.7456   19.2490   43.5150 C   0  0  0  0  0  0  0  0  0  0  0  0
    4.5356   13.1671   36.2393 C   0  0  2  0  0  0  0  0  0  0  0  0
   -3.4818   17.6433   46.4890 C   0  0  0  0  0  0  0  0  0  0  0  0
   -5.8915   22.3724   39.5607 C   0  0  0  0  0  0  0  0  0  0  0  0
   -7.2428   23.0087   39.7248 C   0  0  0  0  0  0  0  0  0  0  0  0
    5.9099   13.5110   35.7491 C   0  0  2  0  0  0  0  0  0  0  0  0
   -4.4724   23.3590   41.1582 C   0  0  1  0  0  0  0  0  0  0  0  0
    8.3653   13.2773   35.1869 O   0  0  0  0  0  0  0  0  0  0  0  0
    2.3356   14.4849   40.6917 C   0  0  0  0  0  0  0  0  0  0  0  0
    1.7651   20.2348   38.2963 C   0  0  2  0  0  0  0  0  0  0  0  0
    3.4136   13.5616   40.1970 O   0  0  0  0  0  0  0  0  0  0  0  0
   -5.5054   24.3270   41.2233 C   0  0  2  0  0  0  0  0  0  0  0  0
   -4.7745   25.5522   41.7356 C   0  0  0  0  0  0  0  0  0  0  0  0
    1.0274   16.1431   41.3694 C   0  0  0  0  0  0  0  0  0  0  0  0
    0.2644   20.5453   40.4353 C   0  0  1  0  0  0  0  0  0  0  0  0
    3.8745   20.7220   35.5743 C   0  0  0  0  0  0  0  0  0  0  0  0
    1.8017   13.9709   41.8066 N   0  0  0  0  0  0  0  0  0  0  0  0
    4.2295   12.0720   38.4890 C   0  0  0  0  0  0  0  0  0  0  0  0
    6.9816   12.6759   35.4616 C   0  0  1  0  0  0  0  0  0  0  0  0
    2.4135   16.6386   39.1118 C   0  0  0  0  0  0  0  0  0  0  0  0
    3.4172   14.4960   37.7147 C   0  0  0  0  0  0  0  0  0  0  0  0
   -1.9284   18.7153   44.9277 C   0  0  0  0  0  0  0  0  0  0  0  0
    0.9555   14.9473   42.1768 C   0  0  0  0  0  0  0  0  0  0  0  0
    0.8329   19.1026   40.4341 C   0  0  0  0  0  0  0  0  0  0  0  0
   -5.0955   22.1612   40.7491 C   0  0  0  0  0  0  0  0  0  0  0  0
   -0.6767   18.2130   46.9530 C   0  0  0  0  0  0  0  0  0  0  0  0
    0.3975   20.7859   37.8596 C   0  0  0  0  0  0  0  0  0  0  0  0
   -0.3732   20.7435   39.1445 O   0  0  0  0  0  0  0  0  0  0  0  0
   -7.5297   24.1170   39.1895 O   0  0  0  0  0  0  0  0  0  0  0  0
    2.3675   21.5216   38.6883 F   0  0  0  0  0  0  0  0  0  0  0  0
   -0.6055   20.8478   41.6664 C   0  0  2  0  0  0  0  0  0  0  0  0
    2.8626   17.8697   36.2767 F   0  0  0  0  0  0  0  0  0  0  0  0
   -8.1111   22.2710   40.2468 O   0  0  0  0  0  0  0  0  0  0  0  0
   -3.4178   23.7318   40.6399 F   0  0  0  0  0  0  0  0  0  0  0  0
    1.8680   15.8277   40.2824 C   0  0  1  0  0  0  0  0  0  0  0  0
    4.3985   13.3162   37.6762 C   0  0  2  0  0  0  0  0  0  0  0  0
    2.2823   17.9697   38.6389 C   0  0  0  0  0  0  0  0  0  0  0  0
    3.4502   15.9151   38.3253 C   0  0  0  0  0  0  0  0  0  0  0  0
    4.8024   20.8908   35.1838 O   0  0  0  0  0  0  0  0  0  0  0  0
    4.0268   20.3282   38.6488 F   0  0  0  0  0  0  0  0  0  0  0  0
    4.4488   19.7797   35.0062 O   0  0  0  0  0  0  0  0  0  0  0  0
   -6.3565   23.8716   42.1692 O   0  0  0  0  0  0  0  0  0  0  0  0
    1.4811   18.9387   39.1383 C   0  0  2  0  0  0  0  0  0  0  0  0
    4.8728   20.9426   37.9897 F   0  0  0  0  0  0  0  0  0  0  0  0
   -0.7865   20.0665   43.0324 C   0  0  0  0  0  0  0  0  0  0  0  0
    7.5558   14.0618   37.2693 H   0  0  0  0  0  0  0  0  0  0  0  0
    6.8234   12.8987   37.9578 H   0  0  0  0  0  0  0  0  0  0  0  0
    3.4620   11.4681   36.7095 H   0  0  0  0  0  0  0  0  0  0  0  0
    3.1584   12.1584   35.0791 H   0  0  0  0  0  0  0  0  0  0  0  0
    4.6907   11.2822   35.4124 H   0  0  0  0  0  0  0  0  0  0  0  0
    4.2151   18.1147   37.5387 H   0  0  0  0  0  0  0  0  0  0  0  0
   -1.0537   17.0745   48.6431 H   0  0  0  0  0  0  0  0  0  0  0  0
    3.8733   20.2441   38.0587 H   0  0  0  0  0  0  0  0  0  0  0  0
    3.6129   11.5313   40.4455 H   0  0  0  0  0  0  0  0  0  0  0  0
    2.2934   12.0854   39.3313 H   0  0  0  0  0  0  0  0  0  0  0  0
   -3.0378   16.2454   47.7759 H   0  0  0  0  0  0  0  0  0  0  0  0
   -3.3024   18.0178   48.3490 H   0  0  0  0  0  0  0  0  0  0  0  0
   -3.9568   18.3338   44.5310 H   0  0  0  0  0  0  0  0  0  0  0  0
    0.0336   19.0436   45.3410 H   0  0  0  0  0  0  0  0  0  0  0  0
   -2.4702   21.3990   42.0165 H   0  0  0  0  0  0  0  0  0  0  0  0
   -1.6759   18.3471   42.8892 H   0  0  0  0  0  0  0  0  0  0  0  0
   -2.5779   19.9681   43.5121 H   0  0  0  0  0  0  0  0  0  0  0  0
    3.9650   13.9293   35.6885 H   0  0  0  0  0  0  0  0  0  0  0  0
   -4.5449   17.3624   46.5199 H   0  0  0  0  0  0  0  0  0  0  0  0
   -6.0467   21.3898   39.0912 H   0  0  0  0  0  0  0  0  0  0  0  0
   -5.3150   23.0972   38.9671 H   0  0  0  0  0  0  0  0  0  0  0  0
    5.5346   14.2808   35.0588 H   0  0  0  0  0  0  0  0  0  0  0  0
   -4.0091   23.1583   42.1354 H   0  0  0  0  0  0  0  0  0  0  0  0
    8.7558   13.6076   36.0345 H   0  0  0  0  0  0  0  0  0  0  0  0
   -6.0524   24.5263   40.2899 H   0  0  0  0  0  0  0  0  0  0  0  0
   -4.9491   25.6580   42.8165 H   0  0  0  0  0  0  0  0  0  0  0  0
   -3.6963   25.4414   41.5475 H   0  0  0  0  0  0  0  0  0  0  0  0
   -5.1476   26.4463   41.2147 H   0  0  0  0  0  0  0  0  0  0  0  0
    0.5282   17.1039   41.5633 H   0  0  0  0  0  0  0  0  0  0  0  0
    1.0634   21.2934   40.5458 H   0  0  0  0  0  0  0  0  0  0  0  0
    3.1404   21.4629   35.9241 H   0  0  0  0  0  0  0  0  0  0  0  0
    5.2184   11.7555   38.8524 H   0  0  0  0  0  0  0  0  0  0  0  0
    3.7663   11.3174   37.8364 H   0  0  0  0  0  0  0  0  0  0  0  0
    6.9412   11.7731   34.8344 H   0  0  0  0  0  0  0  0  0  0  0  0
    2.5197   14.0534   38.1715 H   0  0  0  0  0  0  0  0  0  0  0  0
    3.6206   14.8269   36.6856 H   0  0  0  0  0  0  0  0  0  0  0  0
    0.2639   14.8443   43.0260 H   0  0  0  0  0  0  0  0  0  0  0  0
    1.5628   18.9767   41.2474 H   0  0  0  0  0  0  0  0  0  0  0  0
    0.0432   18.3534   40.5923 H   0  0  0  0  0  0  0  0  0  0  0  0
   -5.7463   21.7994   41.5587 H   0  0  0  0  0  0  0  0  0  0  0  0
   -4.3154   21.4197   40.5220 H   0  0  0  0  0  0  0  0  0  0  0  0
    0.3162   18.4324   47.3727 H   0  0  0  0  0  0  0  0  0  0  0  0
    0.4832   21.8138   37.4773 H   0  0  0  0  0  0  0  0  0  0  0  0
   -0.0702   20.2203   37.0401 H   0  0  0  0  0  0  0  0  0  0  0  0
    0.1399   21.5548   42.0598 H   0  0  0  0  0  0  0  0  0  0  0  0
    1.6078   16.3375   39.3430 H   0  0  0  0  0  0  0  0  0  0  0  0
    5.3043   13.5448   38.2569 H   0  0  0  0  0  0  0  0  0  0  0  0
    4.3301   15.9039   38.9853 H   0  0  0  0  0  0  0  0  0  0  0  0
    3.3450   16.4810   37.3879 H   0  0  0  0  0  0  0  0  0  0  0  0
   -6.1129   24.2598   43.0468 H   0  0  0  0  0  0  0  0  0  0  0  0
    0.5690   18.3254   39.1833 H   0  0  0  0  0  0  0  0  0  0  0  0
  4 44  1  0
  4  6  1  0
  4 49  1  0
  5  9  1  0
  6  7  1  0
  6 22  1  0
  8 23  1  0
 10 15  2  0
 11 38  1  0
 13 34  1  0
 14  3  1  0
 15  9  1  0
 16 17  1  0
 16 37  1  0
 17 45  1  0
 18 14  1  0
 18  2  1  0
 19 46  1  0
 19 24  1  0
 21 29  2  0
 22 42  1  1
 22 55  1  0
 23 21  1  0
 24 25  1  0
 24 54  1  0
 26 35  2  0
 27 43  1  0
 28  7  1  0
 29 35  1  0
 30  8  1  0
 31 20  1  0
 31 18  1  0
 31  2  1  0
 32 47  1  0
 33 50  1  0
 34 10  1  0
 34 11  2  0
 36 27  1  0
 37 19  1  0
 38  5  2  0
 39 22  1  0
 39 40  1  0
 40 27  1  0
 41 17  2  0
 43 12  1  0
 43 57  1  0
 47 21  1  0
 47 26  1  0
 48 14  1  0
 48 33  1  0
 48 30  1  0
 49 32  2  3
 49 55  1  0
 50 32  1  0
 51 28  1  0
 53 51  1  0
 53 28  1  0
 55 36  1  0
 56 52  1  0
 57 13  1  0
 57  1  2  0
  2 58  1  0
  2 59  1  0
  3 60  1  0
  3 61  1  0
  3 62  1  0
  4 63  1  1
  5 64  1  0
  6 65  1  1
  8 66  1  0
  8 67  1  0
  9 68  1  0
  9 69  1  0
 10 70  1  0
 11 71  1  0
 12 72  1  0
 13 73  1  0
 13 74  1  0
 14 75  1  6
 15 76  1  0
 16 77  1  0
 16 78  1  0
 18 79  1  6
 19 80  1  1
 20 81  1  0
 24 82  1  6
 25 83  1  0
 25 84  1  0
 25 85  1  0
 26 86  1  0
 27 87  1  6
 28 88  1  0
 30 89  1  0
 30 90  1  0
 31 91  1  1
 33 92  1  0
 33 93  1  0
 35 94  1  0
 36 95  1  0
 36 96  1  0
 37 97  1  0
 37 98  1  0
 38 99  1  0
 39100  1  0
 39101  1  0
 43102  1  1
 47103  1  6
 48104  1  1
 50105  1  0
 50106  1  0
 54107  1  0
 55108  1  6
M  CHG  1  45  -1
M  END
>  <mol_id>  (78) 
2026-08-24-6tgu-s0-n100-seed1-0082

>  <rmsd_to_ref>  (78) 


$$$$

     RDKit          3D

 29 30  0  0  0  0  0  0  0  0999 V2000
    1.8160   20.5116   39.6659 C   0  0  0  0  0  0  0  0  0  0  0  0
    1.8210   19.1762   39.9600 C   0  0  0  0  0  0  0  0  0  0  0  0
    2.3034   16.1444   41.0097 O   0  0  0  0  0  0  0  0  0  0  0  0
    1.0487   21.2253   40.7463 O   0  0  0  0  0  0  0  0  0  0  0  0
    0.5916   16.5449   42.4453 C   0  0  0  0  0  0  0  0  0  0  0  0
    1.4066   15.6364   41.7904 C   0  0  0  0  0  0  0  0  0  0  0  0
    2.6403   20.3280   37.5202 C   0  0  0  0  0  0  0  0  0  0  0  0
    0.7448   20.2252   41.7216 C   0  0  0  0  0  0  0  0  0  0  0  0
    0.7903   17.9073   42.1655 C   0  0  0  0  0  0  0  0  0  0  0  0
    2.9903   19.0178   37.7087 C   0  0  0  0  0  0  0  0  0  0  0  0
    0.3589   20.8031   42.9199 C   0  0  0  0  0  0  0  0  0  0  0  0
    2.5076   18.3236   38.9561 C   0  0  0  0  0  0  0  0  0  0  0  0
   -0.1937   16.1477   43.5966 N   0  0  0  0  0  0  0  0  0  0  0  0
    1.2455   18.9523   41.2641 C   0  0  0  0  0  0  0  0  0  0  0  0
    2.0877   21.1467   38.4755 C   0  0  0  0  0  0  0  0  0  0  0  0
    2.9192   15.5509   40.5111 H   0  0  0  0  0  0  0  0  0  0  0  0
    1.2976   14.5502   41.9259 H   0  0  0  0  0  0  0  0  0  0  0  0
    2.8156   20.7600   36.5240 H   0  0  0  0  0  0  0  0  0  0  0  0
   -0.2405   18.2592   42.3187 H   0  0  0  0  0  0  0  0  0  0  0  0
    1.8189   17.8141   42.5441 H   0  0  0  0  0  0  0  0  0  0  0  0
    3.6073   18.4861   36.9694 H   0  0  0  0  0  0  0  0  0  0  0  0
    0.7523   20.2083   43.7573 H   0  0  0  0  0  0  0  0  0  0  0  0
    0.7571   21.8268   42.9783 H   0  0  0  0  0  0  0  0  0  0  0  0
   -0.7393   20.8332   42.9756 H   0  0  0  0  0  0  0  0  0  0  0  0
    2.6555   17.2452   39.1144 H   0  0  0  0  0  0  0  0  0  0  0  0
    0.3957   16.1769   44.4408 H   0  0  0  0  0  0  0  0  0  0  0  0
   -0.9879   16.7937   43.7100 H   0  0  0  0  0  0  0  0  0  0  0  0
   -0.5471   15.1903   43.4575 H   0  0  0  0  0  0  0  0  0  0  0  0
    1.8812   22.2135   38.3043 H   0  0  0  0  0  0  0  0  0  0  0  0
  1  2  1  0
  1  4  1  0
  2 14  1  0
  3  6  1  0
  4  8  1  0
  5 13  1  0
  6  5  2  3
  7 10  2  0
  7 15  1  0
  8 11  1  0
  9  5  1  0
 10 12  1  0
 12  2  2  0
 14  8  2  0
 14  9  1  0
 15  1  2  0
  3 16  1  0
  6 17  1  0
  7 18  1  0
  9 19  1  0
  9 20  1  0
 10 21  1  0
 11 22  1  0
 11 23  1  0
 11 24  1  0
 12 25  1  0
 13 26  1  0
 13 27  1  0
 13 28  1  0
 15 29  1  0
M  CHG  1  13   1
M  END
>  <mol_id>  (79) 
2026-08-24-6tgu-s0-n100-seed1-0083

>  <rmsd_to_ref>  (79) 


$$$$

     RDKit          3D

 39 43  0  0  0  0  0  0  0  0999 V2000
    3.8798   19.9743   35.3742 O   0  0  0  0  0  0  0  0  0  0  0  0
    2.0648   20.4928   38.8959 C   0  0  0  0  0  0  0  0  0  0  0  0
   -0.1684   18.8399   44.1316 N   0  0  0  0  0  0  0  0  0  0  0  0
    4.0877   16.0628   36.9858 C   0  0  1  0  0  0  0  0  0  0  0  0
   -0.5424   16.8360   47.0293 C   0  0  0  0  0  0  0  0  0  0  0  0
    2.4780   16.8974   40.1531 O   0  0  0  0  0  0  0  0  0  0  0  0
    1.0641   17.2221   42.5209 C   0  0  0  0  0  0  0  0  0  0  0  0
    3.1608   20.0163   36.2988 C   0  0  0  0  0  0  0  0  0  0  0  0
   -0.3992   17.4355   45.6270 C   0  0  0  0  0  0  0  0  0  0  0  0
    3.6643   17.6119   36.6974 O   0  0  0  0  0  0  0  0  0  0  0  0
    2.2583   19.2246   39.6053 C   0  0  1  0  0  0  0  0  0  0  0  0
    2.0674   21.2917   37.9255 C   0  0  0  0  0  0  0  0  0  0  0  0
   -0.9184   15.4482   47.0080 C   0  0  0  0  0  0  0  0  0  0  0  0
    3.1834   18.8489   37.3434 C   0  0  1  0  0  0  0  0  0  0  0  0
    3.2465   15.1177   37.3306 C   0  0  0  0  0  0  0  0  0  0  0  0
    4.2007   13.9950   35.8291 O   0  0  0  0  0  0  0  0  0  0  0  0
   -0.4454   18.7696   45.3118 N   0  0  0  0  0  0  0  0  0  0  0  0
    3.9577   14.8266   36.5961 C   0  0  0  0  0  0  0  0  0  0  0  0
    1.4867   16.0959   42.4957 O   0  0  0  0  0  0  0  0  0  0  0  0
    0.0791   17.6430   43.6315 C   0  0  0  0  0  0  0  0  0  0  0  0
   -1.6965   16.4326   47.7674 C   0  0  0  0  0  0  0  0  0  0  0  0
   -0.0574   16.6978   44.6004 N   0  0  0  0  0  0  0  0  0  0  0  0
    1.4706   20.5922   40.2601 S   0  0  0  0  0  0  0  0  0  0  0  0
    2.0487   17.9901   40.4861 C   0  0  0  0  0  0  0  0  0  0  0  0
    3.2403   18.4657   38.6173 O   0  0  0  0  0  0  0  0  0  0  0  0
    1.3985   18.1735   41.6792 N   0  0  0  0  0  0  0  0  0  0  0  0
    2.5428   21.0841   36.5099 O   0  0  0  0  0  0  0  0  0  0  0  0
    4.9675   16.6960   37.1729 H   0  0  0  0  0  0  0  0  0  0  0  0
    0.2457   17.5271   47.3630 H   0  0  0  0  0  0  0  0  0  0  0  0
    1.6625   22.2915   38.1413 H   0  0  0  0  0  0  0  0  0  0  0  0
   -1.3341   15.0018   46.0926 H   0  0  0  0  0  0  0  0  0  0  0  0
   -0.4180   14.4965   47.2398 H   0  0  0  0  0  0  0  0  0  0  0  0
    2.4629   19.6237   37.6440 H   0  0  0  0  0  0  0  0  0  0  0  0
    3.3138   14.6853   38.3398 H   0  0  0  0  0  0  0  0  0  0  0  0
    2.1478   15.0748   37.3598 H   0  0  0  0  0  0  0  0  0  0  0  0
   -1.6726   16.4245   48.8671 H   0  0  0  0  0  0  0  0  0  0  0  0
   -2.7524   16.7399   47.7945 H   0  0  0  0  0  0  0  0  0  0  0  0
    0.0728   15.6777   44.5422 H   0  0  0  0  0  0  0  0  0  0  0  0
    1.1511   19.1394   41.9375 H   0  0  0  0  0  0  0  0  0  0  0  0
  1  8  2  0
  2 11  1  0
  2 23  1  0
  3 17  1  0
  4 10  1  0
  4 15  1  0
  5 13  1  0
  5 21  1  0
  6 24  2  0
  7 19  2  0
  7 20  1  0
  8 27  1  0
  8 14  1  0
  9  5  1  0
 11 23  1  0
 11 24  1  6
 12  2  2  0
 13 21  1  0
 14 10  1  0
 14 25  1  0
 16 18  2  0
 17  9  2  0
 18  4  1  0
 18 15  1  0
 20  3  2  0
 20 22  1  0
 22  9  1  0
 24 26  1  0
 25 11  1  0
 26  7  1  0
 27 12  1  0
  4 28  1  1
  5 29  1  0
 12 30  1  0
 13 31  1  0
 13 32  1  0
 14 33  1  6
 15 34  1  0
 15 35  1  0
 21 36  1  0
 21 37  1  0
 22 38  1  0
 26 39  1  0
M  END
>  <mol_id>  (80) 
2026-08-24-6tgu-s0-n100-seed1-0084

>  <rmsd_to_ref>  (80) 


$$$$

     RDKit          3D

 28 31  0  0  0  0  0  0  0  0999 V2000
    2.2000   19.8550   39.1740 C   0  0  0  0  0  0  0  0  0  0  0  0
    1.6880   16.5010   42.1320 O   0  0  0  0  0  0  0  0  0  0  0  0
    2.1030   17.8620   40.5350 N   0  0  0  0  0  0  0  0  0  0  0  0
    2.5030   20.5670   38.0340 C   0  0  0  0  0  0  0  0  0  0  0  0
    3.3200   19.9950   37.0440 C   0  0  0  0  0  0  0  0  0  0  0  0
    1.4850   20.3370   40.3190 C   0  0  0  0  0  0  0  0  0  0  0  0
    3.7160   18.5690   37.2170 C   0  0  0  0  0  0  0  0  0  0  0  0
    1.4120   17.6190   41.6840 C   0  0  0  0  0  0  0  0  0  0  0  0
    0.9610   20.0440   41.4620 N   0  0  0  0  0  0  0  0  0  0  0  0
   -1.2030   18.6590   44.4300 C   0  0  0  0  0  0  0  0  0  0  0  0
    3.7070   20.6920   35.9960 O   0  0  0  0  0  0  0  0  0  0  0  0
   -1.1600   20.0050   43.7250 N   0  0  0  0  0  0  0  0  0  0  0  0
    2.5870   18.4430   39.3200 C   0  0  0  0  0  0  0  0  0  0  0  0
    0.4970   18.5950   42.5020 C   0  0  1  0  0  0  0  0  0  0  0  0
   -0.2320   19.8600   42.4810 C   0  0  2  0  0  0  0  0  0  0  0  0
    3.3570   17.9280   38.4320 C   0  0  0  0  0  0  0  0  0  0  0  0
   -0.1340   17.7960   43.7290 C   0  0  0  0  0  0  0  0  0  0  0  0
    2.7166   17.0350   40.5560 H   0  0  0  0  0  0  0  0  0  0  0  0
    2.1052   21.5836   37.8987 H   0  0  0  0  0  0  0  0  0  0  0  0
    2.1610   21.1473   40.6295 H   0  0  0  0  0  0  0  0  0  0  0  0
    0.5318   20.1034   39.8221 H   0  0  0  0  0  0  0  0  0  0  0  0
    4.2671   18.0318   36.4311 H   0  0  0  0  0  0  0  0  0  0  0  0
   -1.8575   18.3633   45.2632 H   0  0  0  0  0  0  0  0  0  0  0  0
    3.4318   21.6383   35.9018 H   0  0  0  0  0  0  0  0  0  0  0  0
   -0.9989   20.6242   42.2862 H   0  0  0  0  0  0  0  0  0  0  0  0
    3.7654   16.9249   38.6246 H   0  0  0  0  0  0  0  0  0  0  0  0
   -0.5988   16.8700   43.3597 H   0  0  0  0  0  0  0  0  0  0  0  0
    0.6620   17.5541   44.4486 H   0  0  0  0  0  0  0  0  0  0  0  0
  1 13  2  0
  1  6  1  0
  3  8  1  0
  4  1  1  0
  5  7  1  0
  5  4  2  0
  7 16  2  0
  8  2  2  0
  8 14  1  0
  9  6  1  0
  9 15  1  0
  9 14  1  0
 11  5  1  0
 12 10  2  0
 13  3  1  0
 14 17  1  1
 15 14  1  0
 15 12  1  0
 16 13  1  0
 17 10  1  0
  3 18  1  0
  4 19  1  0
  6 20  1  0
  6 21  1  0
  7 22  1  0
 10 23  1  0
 11 24  1  0
 15 25  1  6
 16 26  1  0
 17 27  1  0
 17 28  1  0
M  END
>  <mol_id>  (81) 
2026-08-24-6tgu-s0-n100-seed1-0086

>  <rmsd_to_ref>  (81) 


$$$$

     RDKit          3D

 23 24  0  0  0  0  0  0  0  0999 V2000
    0.2445   19.0550   42.3763 C   0  0  0  0  0  0  0  0  0  0  0  0
    1.8187   19.9436   40.2457 C   0  0  0  0  0  0  0  0  0  0  0  0
    4.3871   19.9010   37.3752 C   0  0  0  0  0  0  0  0  0  0  0  0
   -0.0666   20.2597   41.6612 C   0  0  0  0  0  0  0  0  0  0  0  0
    3.4274   18.0732   40.6175 C   0  0  0  0  0  0  0  0  0  0  0  0
    1.3663   18.3426   42.0269 C   0  0  0  0  0  0  0  0  0  0  0  0
    3.5500   20.6561   36.5388 O   0  0  0  0  0  0  0  0  0  0  0  0
    0.7255   20.7511   40.6541 C   0  0  0  0  0  0  0  0  0  0  0  0
    3.7513   19.5028   38.6225 C   0  0  0  0  0  0  0  0  0  0  0  0
    4.1776   18.3926   39.4423 C   0  0  0  0  0  0  0  0  0  0  0  0
   -1.1071   21.0181   42.0228 O   0  0  0  0  0  0  0  0  0  0  0  0
    2.2672   18.7587   41.0250 C   0  0  0  0  0  0  0  0  0  0  0  0
    2.5719   20.2876   39.0224 C   0  0  0  0  0  0  0  0  0  0  0  0
   -0.4057   18.7069   43.1924 H   0  0  0  0  0  0  0  0  0  0  0  0
    5.2764   20.5030   37.6138 H   0  0  0  0  0  0  0  0  0  0  0  0
    4.6425   18.9791   36.8322 H   0  0  0  0  0  0  0  0  0  0  0  0
    3.7792   17.2391   41.2424 H   0  0  0  0  0  0  0  0  0  0  0  0
    1.5721   17.4001   42.5554 H   0  0  0  0  0  0  0  0  0  0  0  0
    2.9341   21.1992   37.0917 H   0  0  0  0  0  0  0  0  0  0  0  0
    0.5225   21.7253   40.1853 H   0  0  0  0  0  0  0  0  0  0  0  0
    5.0644   17.8026   39.1674 H   0  0  0  0  0  0  0  0  0  0  0  0
   -1.3128   21.8473   41.5225 H   0  0  0  0  0  0  0  0  0  0  0  0
    2.2485   21.1383   38.4045 H   0  0  0  0  0  0  0  0  0  0  0  0
  2 12  1  0
  2  8  2  0
  3  9  1  0
  4  1  2  0
  4 11  1  0
  5 12  1  0
  6  1  1  0
  7  3  1  0
  8  4  1  0
  9 10  1  0
  9 13  2  0
 10  5  2  0
 12  6  2  0
 13  2  1  0
  1 14  1  0
  3 15  1  0
  3 16  1  0
  5 17  1  0
  6 18  1  0
  7 19  1  0
  8 20  1  0
 10 21  1  0
 11 22  1  0
 13 23  1  0
M  END
>  <mol_id>  (82) 
2026-08-24-6tgu-s0-n100-seed1-0087

>  <rmsd_to_ref>  (82) 


$$$$

     RDKit          3D

 42 44  0  0  0  0  0  0  0  0999 V2000
    2.7708   14.0070   40.4200 S   0  0  0  0  0  0  0  0  0  0  0  0
    1.8085   22.0522   36.0090 O   0  0  0  0  0  0  0  0  0  0  0  0
   -0.1657   17.1089   43.5464 C   0  0  0  0  0  0  0  0  0  0  0  0
    1.7296   19.0102   39.7526 C   0  0  0  0  0  0  0  0  0  0  0  0
    3.8334   21.1569   35.9883 O   0  0  0  0  0  0  0  0  0  0  0  0
    3.9042   16.5604   36.7678 C   0  0  0  0  0  0  0  0  0  0  0  0
    4.4339   15.6549   36.7601 O   0  0  0  0  0  0  0  0  0  0  0  0
    2.6613   19.3118   38.5558 C   0  0  0  0  0  0  0  0  0  0  0  0
    2.0113   15.4315   40.6852 C   0  0  0  0  0  0  0  0  0  0  0  0
    0.9390   21.4150   39.7673 C   0  0  0  0  0  0  0  0  0  0  0  0
    1.0192   20.0360   40.2930 C   0  0  0  0  0  0  0  0  0  0  0  0
   -0.8174   19.2836   42.5299 C   0  0  0  0  0  0  0  0  0  0  0  0
   -0.8058   17.4835   44.7744 C   0  0  0  0  0  0  0  0  0  0  0  0
   -1.3990   18.7165   44.8405 C   0  0  0  0  0  0  0  0  0  0  0  0
    3.6499   18.2821   38.3194 C   0  0  0  0  0  0  0  0  0  0  0  0
    3.1819   17.7995   36.9748 C   0  0  0  0  0  0  0  0  0  0  0  0
   -1.3467   19.6124   43.7828 N   0  0  0  0  0  0  0  0  0  0  0  0
    0.9874   17.2402   41.4635 C   0  0  0  0  0  0  0  0  0  0  0  0
    1.4816   21.6576   38.5344 C   0  0  0  0  0  0  0  0  0  0  0  0
    2.3013   20.6136   37.9292 C   0  0  0  0  0  0  0  0  0  0  0  0
    1.1383   15.8010   41.6829 N   0  0  0  0  0  0  0  0  0  0  0  0
    0.0359   17.8586   42.4509 C   0  0  0  0  0  0  0  0  0  0  0  0
    2.2526   16.4476   39.7991 O   0  0  0  0  0  0  0  0  0  0  0  0
    2.7126   21.1641   36.6600 C   0  0  0  0  0  0  0  0  0  0  0  0
   -1.1592   20.2583   41.6818 N   0  0  0  0  0  0  0  0  0  0  0  0
    1.6075   17.6138   40.3503 C   0  0  0  0  0  0  0  0  0  0  0  0
    0.2077   16.0754   43.4959 H   0  0  0  0  0  0  0  0  0  0  0  0
    4.6486   17.0514   36.1239 H   0  0  0  0  0  0  0  0  0  0  0  0
    3.0944   16.0409   37.3011 H   0  0  0  0  0  0  0  0  0  0  0  0
    4.5681   15.3431   37.6901 H   0  0  0  0  0  0  0  0  0  0  0  0
    0.4601   22.2182   40.3467 H   0  0  0  0  0  0  0  0  0  0  0  0
    0.4499   19.8188   41.2087 H   0  0  0  0  0  0  0  0  0  0  0  0
   -0.8199   16.8011   45.6371 H   0  0  0  0  0  0  0  0  0  0  0  0
   -1.9322   19.0044   45.7586 H   0  0  0  0  0  0  0  0  0  0  0  0
    4.6694   18.6930   38.2768 H   0  0  0  0  0  0  0  0  0  0  0  0
    3.7184   17.5086   39.0986 H   0  0  0  0  0  0  0  0  0  0  0  0
    3.4293   18.5304   36.1908 H   0  0  0  0  0  0  0  0  0  0  0  0
    2.0913   17.6621   36.9339 H   0  0  0  0  0  0  0  0  0  0  0  0
    1.3049   22.6112   38.0154 H   0  0  0  0  0  0  0  0  0  0  0  0
    0.6999   15.2112   42.4046 H   0  0  0  0  0  0  0  0  0  0  0  0
   -0.8654   20.2095   40.6957 H   0  0  0  0  0  0  0  0  0  0  0  0
   -1.7163   21.0583   42.0141 H   0  0  0  0  0  0  0  0  0  0  0  0
  1  9  2  0
  2 24  1  0
  3 13  2  0
  4 11  2  0
  4 26  1  0
  5 24  2  0
  6  7  1  0
  6 16  1  0
  8  4  1  0
  9 21  1  0
 10 11  1  0
 12 17  1  0
 13 14  1  0
 15  8  1  0
 16 15  1  0
 17 14  2  0
 18 21  1  0
 18 22  1  0
 19 10  2  0
 20 19  1  0
 20  8  2  0
 22 12  2  0
 22  3  1  0
 23 26  1  0
 23  9  1  0
 24 20  1  0
 25 12  1  0
 26 18  2  0
  3 27  1  0
  6 28  1  0
  6 29  1  0
  7 30  1  0
 10 31  1  0
 11 32  1  0
 13 33  1  0
 14 34  1  0
 15 35  1  0
 15 36  1  0
 16 37  1  0
 16 38  1  0
 19 39  1  0
 21 40  1  0
 25 41  1  0
 25 42  1  0
M  CHG  1   2  -1
M  END
>  <mol_id>  (83) 
2026-08-24-6tgu-s0-n100-seed1-0088

>  <rmsd_to_ref>  (83) 


$$$$

     RDKit          3D

 34 37  0  0  0  0  0  0  0  0999 V2000
    0.8888   21.4518   39.5338 C   0  0  0  0  0  0  0  0  0  0  0  0
    1.5676   19.0707   39.5934 C   0  0  0  0  0  0  0  0  0  0  0  0
    2.9171   18.9414   37.3603 C   0  0  0  0  0  0  0  0  0  0  0  0
    0.4041   16.2297   42.0464 C   0  0  0  0  0  0  0  0  0  0  0  0
    0.0648   18.6690   42.0080 C   0  0  0  0  0  0  0  0  0  0  0  0
   -0.9548   17.3476   43.7702 C   0  0  0  0  0  0  0  0  0  0  0  0
   -0.7193   14.8785   43.9092 C   0  0  0  0  0  0  0  0  0  0  0  0
    2.3014   16.6618   39.2413 C   0  0  1  0  0  0  0  0  0  0  0  0
    0.1026   20.0313   41.4486 C   0  0  0  0  0  0  0  0  0  0  0  0
    1.8019   21.1463   38.1202 S   0  0  0  0  0  0  0  0  0  0  0  0
    3.8447   15.3670   37.4151 C   0  0  0  0  0  0  0  0  0  0  0  0
    2.1470   19.6049   38.3719 C   0  0  0  0  0  0  0  0  0  0  0  0
    0.6837   17.4587   41.3875 C   0  0  0  0  0  0  0  0  0  0  0  0
    1.4331   17.6315   40.1512 C   0  0  0  0  0  0  0  0  0  0  0  0
    3.0806   16.4115   37.8140 C   0  0  0  0  0  0  0  0  0  0  0  0
    3.2024   17.7465   37.3026 N   0  0  0  0  0  0  0  0  0  0  0  0
   -0.6960   18.6019   43.2144 C   0  0  0  0  0  0  0  0  0  0  0  0
    2.3790   15.4047   39.9780 O   0  0  0  0  0  0  0  0  0  0  0  0
    3.2685   19.8342   36.2531 O   0  0  0  0  0  0  0  0  0  0  0  0
   -0.3949   16.1493   43.2333 C   0  0  0  0  0  0  0  0  0  0  0  0
    0.9331   20.1346   40.2659 C   0  0  0  0  0  0  0  0  0  0  0  0
    0.3897   22.3843   39.8359 H   0  0  0  0  0  0  0  0  0  0  0  0
    0.8188   15.3011   41.6270 H   0  0  0  0  0  0  0  0  0  0  0  0
   -1.6113   17.2806   44.6502 H   0  0  0  0  0  0  0  0  0  0  0  0
   -0.7478   15.0387   44.9970 H   0  0  0  0  0  0  0  0  0  0  0  0
   -1.7010   14.5205   43.5654 H   0  0  0  0  0  0  0  0  0  0  0  0
    0.0490   14.1289   43.6690 H   0  0  0  0  0  0  0  0  0  0  0  0
    1.3865   16.3121   38.7408 H   0  0  0  0  0  0  0  0  0  0  0  0
   -0.4429   20.8817   41.8837 H   0  0  0  0  0  0  0  0  0  0  0  0
    4.1839   14.8031   38.2965 H   0  0  0  0  0  0  0  0  0  0  0  0
    3.2529   14.7076   36.7633 H   0  0  0  0  0  0  0  0  0  0  0  0
    4.7182   15.7421   36.8614 H   0  0  0  0  0  0  0  0  0  0  0  0
   -1.0699   19.5179   43.6951 H   0  0  0  0  0  0  0  0  0  0  0  0
    2.3013   15.5854   40.9482 H   0  0  0  0  0  0  0  0  0  0  0  0
  1 21  2  0
  2 14  1  0
  2 21  1  0
  3 12  1  0
  4 20  2  0
  5 17  1  0
  8 18  1  0
  8 14  1  0
  9  5  2  0
 10 12  1  0
 10  1  1  0
 11 15  1  0
 12  2  2  0
 13  5  1  0
 13  4  1  0
 14 13  2  0
 15  8  1  0
 16  3  1  0
 16 15  2  0
 17  6  2  0
 19  3  2  0
 20  6  1  0
 20  7  1  0
 21  9  1  0
  1 22  1  0
  4 23  1  0
  6 24  1  0
  7 25  1  0
  7 26  1  0
  7 27  1  0
  8 28  1  1
  9 29  1  0
 11 30  1  0
 11 31  1  0
 11 32  1  0
 17 33  1  0
 18 34  1  0
M  END
>  <mol_id>  (84) 
2026-08-24-6tgu-s0-n100-seed1-0089

>  <rmsd_to_ref>  (84) 


$$$$

     RDKit          3D

 32 35  0  0  0  0  0  0  0  0999 V2000
    2.4312   17.7368   39.4211 N   0  0  0  0  0  0  0  0  0  0  0  0
    4.0376   17.8944   36.1630 O   0  0  0  0  0  0  0  0  0  0  0  0
    0.9109   18.7162   40.8238 C   0  0  0  0  0  0  0  0  0  0  0  0
   -0.0196   15.9356   42.2566 N   0  0  0  0  0  0  0  0  0  0  0  0
   -0.0130   18.5433   41.9500 C   0  0  0  0  0  0  0  0  0  0  0  0
   -0.5652   19.6488   42.4250 C   0  0  0  0  0  0  0  0  0  0  0  0
    1.7795   19.9165   38.8303 C   0  0  0  0  0  0  0  0  0  0  0  0
    1.0639   14.9930   41.7559 O   0  0  0  0  0  0  0  0  0  0  0  0
    2.0694   22.2191   37.1718 C   0  0  0  0  0  0  0  0  0  0  0  0
    2.9768   18.6953   37.2752 C   0  0  0  0  0  0  0  0  0  0  0  0
   -0.4878   14.9681   43.1696 O   0  0  0  0  0  0  0  0  0  0  0  0
    2.2780   20.7555   37.5692 C   0  0  2  0  0  0  0  0  0  0  0  0
    3.4513   17.3382   37.2203 O   0  0  0  0  0  0  0  0  0  0  0  0
    2.9029   20.0200   36.7570 N   0  0  0  0  0  0  0  0  0  0  0  0
   -1.3758   19.5109   43.4375 C   0  0  0  0  0  0  0  0  0  0  0  0
    0.9766   19.9938   40.0616 C   0  0  0  0  0  0  0  0  0  0  0  0
   -0.3190   17.2757   42.5406 C   0  0  0  0  0  0  0  0  0  0  0  0
   -1.5728   18.5047   44.1659 N   0  0  0  0  0  0  0  0  0  0  0  0
    2.4232   18.8019   38.5258 C   0  0  0  0  0  0  0  0  0  0  0  0
   -1.0940   17.3911   43.6661 C   0  0  0  0  0  0  0  0  0  0  0  0
    1.6868   17.6850   40.4361 C   0  0  0  0  0  0  0  0  0  0  0  0
   -0.3509   20.6351   41.9874 H   0  0  0  0  0  0  0  0  0  0  0  0
    1.9712   22.8346   38.0782 H   0  0  0  0  0  0  0  0  0  0  0  0
    2.9324   22.5662   36.5847 H   0  0  0  0  0  0  0  0  0  0  0  0
    1.1548   22.3081   36.5672 H   0  0  0  0  0  0  0  0  0  0  0  0
    3.1912   21.0340   38.1155 H   0  0  0  0  0  0  0  0  0  0  0  0
    2.4078   20.0081   35.8539 H   0  0  0  0  0  0  0  0  0  0  0  0
    3.8549   20.3892   36.6222 H   0  0  0  0  0  0  0  0  0  0  0  0
   -1.9714   20.4005   43.6900 H   0  0  0  0  0  0  0  0  0  0  0  0
    0.4702   20.9136   40.3896 H   0  0  0  0  0  0  0  0  0  0  0  0
   -1.3370   16.4609   44.2005 H   0  0  0  0  0  0  0  0  0  0  0  0
    1.6695   16.7597   41.0305 H   0  0  0  0  0  0  0  0  0  0  0  0
  1 21  2  0
  2 10  1  0
  2 13  1  0
  3  5  1  0
  4 11  1  0
  5  6  2  0
  5 17  1  0
  6 15  1  0
  7 16  1  0
  8  4  2  0
 10 13  1  0
 10 19  1  0
 12  9  1  0
 12  7  1  0
 14 12  1  0
 14 10  1  0
 15 18  2  0
 16  3  2  0
 17  4  1  0
 17 20  2  0
 19  7  2  0
 19  1  1  0
 20 18  1  0
 21  3  1  0
  6 22  1  0
  9 23  1  0
  9 24  1  0
  9 25  1  0
 12 26  1  1
 14 27  1  0
 14 28  1  0
 15 29  1  0
 16 30  1  0
 20 31  1  0
 21 32  1  0
M  CHG  3   4   1  11  -1  14   1
M  END
>  <mol_id>  (85) 
2026-08-24-6tgu-s0-n100-seed1-0090

>  <rmsd_to_ref>  (85) 


$$$$

     RDKit          3D

 51 52  0  0  0  0  0  0  0  0999 V2000
    4.2384   18.7496   36.6141 O   0  0  0  0  0  0  0  0  0  0  0  0
    2.0833   18.6402   40.8673 C   0  0  1  0  0  0  0  0  0  0  0  0
    1.4192   17.7760   41.6919 C   0  0  2  0  0  0  0  0  0  0  0  0
    3.7338   21.2446   35.3142 O   0  0  0  0  0  0  0  0  0  0  0  0
    3.1324   14.6550   40.7330 C   0  0  0  0  0  0  0  0  0  0  0  0
    2.8226   17.7326   40.0099 N   0  0  0  0  0  0  0  0  0  0  0  0
    2.1531   20.1900   39.1719 C   0  0  0  0  0  0  0  0  0  0  0  0
    2.9984   19.4173   38.3969 C   0  0  0  0  0  0  0  0  0  0  0  0
    0.5555   17.3565   43.7106 O   0  0  0  0  0  0  0  0  0  0  0  0
    4.2684   17.3238   38.2831 O   0  0  0  0  0  0  0  0  0  0  0  0
   -0.4440   16.8441   43.5730 C   0  0  0  0  0  0  0  0  0  0  0  0
   -0.6184   18.1854   45.5773 N   0  0  0  0  0  0  0  0  0  0  0  0
    1.5977   19.8638   40.3800 C   0  0  0  0  0  0  0  0  0  0  0  0
    3.0213   15.5603   41.6408 N   0  0  0  0  0  0  0  0  0  0  0  0
    1.0444   18.4673   43.1397 C   0  0  0  0  0  0  0  0  0  0  0  0
    1.9722   21.4653   36.5394 O   0  0  0  0  0  0  0  0  0  0  0  0
    2.9567   15.0508   39.5911 O   0  0  0  0  0  0  0  0  0  0  0  0
    0.5160   18.5422   45.8939 C   0  0  0  0  0  0  0  0  0  0  0  0
    3.4953   13.3956   40.9937 N   0  0  0  0  0  0  0  0  0  0  0  0
    2.0154   16.4390   41.8079 C   0  0  0  0  0  0  0  0  0  0  0  0
   -1.1884   17.6058   44.4207 C   0  0  0  0  0  0  0  0  0  0  0  0
    0.4683   17.5821   47.7161 C   0  0  0  0  0  0  0  0  0  0  0  0
    0.1482   17.3268   46.3242 C   0  0  1  0  0  0  0  0  0  0  0  0
    3.7406   19.8991   37.1157 C   0  0  2  0  0  0  0  0  0  0  0  0
    3.3084   18.2016   38.9024 C   0  0  0  0  0  0  0  0  0  0  0  0
    3.0331   20.9349   36.3407 C   0  0  0  0  0  0  0  0  0  0  0  0
    4.5246   18.1617   37.3575 H   0  0  0  0  0  0  0  0  0  0  0  0
    2.6701   19.3432   41.4766 H   0  0  0  0  0  0  0  0  0  0  0  0
    0.4653   17.5729   41.1832 H   0  0  0  0  0  0  0  0  0  0  0  0
    2.9575   16.7459   40.2727 H   0  0  0  0  0  0  0  0  0  0  0  0
    1.8971   21.1819   38.7711 H   0  0  0  0  0  0  0  0  0  0  0  0
   -0.8028   16.9103   42.5352 H   0  0  0  0  0  0  0  0  0  0  0  0
   -0.4544   15.7626   43.7738 H   0  0  0  0  0  0  0  0  0  0  0  0
    1.8360   20.6551   41.1060 H   0  0  0  0  0  0  0  0  0  0  0  0
    0.5109   19.7675   40.2402 H   0  0  0  0  0  0  0  0  0  0  0  0
    3.7935   15.6196   42.3198 H   0  0  0  0  0  0  0  0  0  0  0  0
    1.9285   18.8591   43.6637 H   0  0  0  0  0  0  0  0  0  0  0  0
    0.3856   19.3479   43.1166 H   0  0  0  0  0  0  0  0  0  0  0  0
    1.2898   18.6258   45.1165 H   0  0  0  0  0  0  0  0  0  0  0  0
    0.9080   19.4336   46.4054 H   0  0  0  0  0  0  0  0  0  0  0  0
    3.5682   12.7115   40.2272 H   0  0  0  0  0  0  0  0  0  0  0  0
    3.7021   13.1090   41.9612 H   0  0  0  0  0  0  0  0  0  0  0  0
    1.8789   16.3070   42.8914 H   0  0  0  0  0  0  0  0  0  0  0  0
    1.7250   16.2550   40.7630 H   0  0  0  0  0  0  0  0  0  0  0  0
   -1.5905   18.4362   43.8217 H   0  0  0  0  0  0  0  0  0  0  0  0
   -1.8942   16.8749   44.8421 H   0  0  0  0  0  0  0  0  0  0  0  0
   -0.2185   17.0136   48.3605 H   0  0  0  0  0  0  0  0  0  0  0  0
    1.5034   17.2694   47.9176 H   0  0  0  0  0  0  0  0  0  0  0  0
    0.3625   18.6568   47.9255 H   0  0  0  0  0  0  0  0  0  0  0  0
    0.1891   16.2292   46.2638 H   0  0  0  0  0  0  0  0  0  0  0  0
    4.6033   20.5726   37.2251 H   0  0  0  0  0  0  0  0  0  0  0  0
  2  3  1  0
  3 20  1  0
  3 15  1  0
  4 26  2  0
  5 19  1  0
  5 14  1  0
  6  2  1  0
  7 13  1  0
  8 25  1  0
  8  7  2  0
 10 25  2  0
 11  9  1  0
 11 21  1  0
 12 18  1  0
 12 23  1  0
 13  2  1  0
 14 20  1  0
 15  9  1  0
 17  5  2  0
 18 23  1  0
 21 12  1  0
 23 22  1  0
 24  1  1  0
 24  8  1  0
 25  6  1  0
 26 16  1  0
 26 24  1  0
  1 27  1  0
  2 28  1  1
  3 29  1  6
  6 30  1  0
  7 31  1  0
 11 32  1  0
 11 33  1  0
 13 34  1  0
 13 35  1  0
 14 36  1  0
 15 37  1  0
 15 38  1  0
 18 39  1  0
 18 40  1  0
 19 41  1  0
 19 42  1  0
 20 43  1  0
 20 44  1  0
 21 45  1  0
 21 46  1  0
 22 47  1  0
 22 48  1  0
 22 49  1  0
 23 50  1  6
 24 51  1  1
M  CHG  1  16  -1
M  END
>  <mol_id>  (86) 
2026-08-24-6tgu-s0-n100-seed1-0091

>  <rmsd_to_ref>  (86) 


$$$$

     RDKit          3D

 48 53  0  0  0  0  0  0  0  0999 V2000
    3.8194   14.2634   39.5534 C   0  0  0  0  0  0  0  0  0  0  0  0
    3.2084   19.4984   37.4990 C   0  0  0  0  0  0  0  0  0  0  0  0
    2.0410   18.3626   39.7829 C   0  0  0  0  0  0  0  0  0  0  0  0
    0.4976   13.7736   42.8580 C   0  0  0  0  0  0  0  0  0  0  0  0
    1.7758   21.5288   37.7066 C   0  0  0  0  0  0  0  0  0  0  0  0
   -0.5999   13.9525   43.6746 C   0  0  0  0  0  0  0  0  0  0  0  0
    2.8619   17.4907   38.9487 C   0  0  0  0  0  0  0  0  0  0  0  0
   -1.4289   17.4084   43.8148 C   0  0  1  0  0  0  0  0  0  0  0  0
    2.1817   14.4855   41.3333 O   0  0  0  0  0  0  0  0  0  0  0  0
    1.3548   18.1459   40.9024 N   0  0  0  0  0  0  0  0  0  0  0  0
   -1.7591   18.5449   43.5184 N   0  0  0  0  0  0  0  0  0  0  0  0
   -2.2313   17.6947   44.5049 N   0  0  0  0  0  0  0  0  0  0  0  0
    2.2736   20.2616   38.1781 C   0  0  0  0  0  0  0  0  0  0  0  0
    0.8480   19.5484   41.1597 C   0  0  0  0  0  0  0  0  0  0  0  0
   -0.2231   19.8172   42.1078 C   0  0  0  0  0  0  0  0  0  0  0  0
    1.0928   20.3701   40.1880 N   0  0  0  0  0  0  0  0  0  0  0  0
   -1.0613   19.3680   42.7073 C   0  0  0  0  0  0  0  0  0  0  0  0
    1.0453   14.8377   42.1409 C   0  0  0  0  0  0  0  0  0  0  0  0
    3.8774   20.1934   36.4511 O   0  0  0  0  0  0  0  0  0  0  0  0
   -0.6229   16.2760   43.2180 C   0  0  0  0  0  0  0  0  0  0  0  0
   -1.1349   15.2017   43.9086 C   0  0  0  0  0  0  0  0  0  0  0  0
    4.0869   15.2415   38.5650 C   0  0  0  0  0  0  0  0  0  0  0  0
    1.8163   19.6408   39.3192 C   0  0  0  0  0  0  0  0  0  0  0  0
    3.0110   16.1089   39.2825 N   0  0  0  0  0  0  0  0  0  0  0  0
    3.4648   18.1499   37.8316 C   0  0  0  0  0  0  0  0  0  0  0  0
    2.9143   15.0346   40.2702 C   0  0  2  0  0  0  0  0  0  0  0  0
    0.5557   16.0712   42.2540 C   0  0  0  0  0  0  0  0  0  0  0  0
    3.3667   13.3508   39.1382 H   0  0  0  0  0  0  0  0  0  0  0  0
    4.6796   13.8537   40.1033 H   0  0  0  0  0  0  0  0  0  0  0  0
    0.9488   12.7742   42.7706 H   0  0  0  0  0  0  0  0  0  0  0  0
    1.3425   22.0888   38.5485 H   0  0  0  0  0  0  0  0  0  0  0  0
    2.6023   22.1073   37.2681 H   0  0  0  0  0  0  0  0  0  0  0  0
    1.0025   21.3579   36.9432 H   0  0  0  0  0  0  0  0  0  0  0  0
   -1.0606   13.0751   44.1519 H   0  0  0  0  0  0  0  0  0  0  0  0
   -0.6298   16.6527   43.8283 H   0  0  0  0  0  0  0  0  0  0  0  0
   -3.1658   17.2695   44.4231 H   0  0  0  0  0  0  0  0  0  0  0  0
    0.3535   20.2924   42.9151 H   0  0  0  0  0  0  0  0  0  0  0  0
   -0.9160   20.0222   41.2785 H   0  0  0  0  0  0  0  0  0  0  0  0
    0.8009   21.3540   40.1009 H   0  0  0  0  0  0  0  0  0  0  0  0
   -1.7616   19.2944   41.8622 H   0  0  0  0  0  0  0  0  0  0  0  0
   -0.5374   19.7235   43.6068 H   0  0  0  0  0  0  0  0  0  0  0  0
    3.6551   21.1398   36.2640 H   0  0  0  0  0  0  0  0  0  0  0  0
   -1.9530   15.3364   44.6314 H   0  0  0  0  0  0  0  0  0  0  0  0
    3.8329   14.9438   37.5370 H   0  0  0  0  0  0  0  0  0  0  0  0
    5.1026   15.6112   38.3600 H   0  0  0  0  0  0  0  0  0  0  0  0
    4.1621   17.5790   37.2009 H   0  0  0  0  0  0  0  0  0  0  0  0
    2.5012   15.4827   41.1860 H   0  0  0  0  0  0  0  0  0  0  0  0
    0.9781   16.9094   41.6803 H   0  0  0  0  0  0  0  0  0  0  0  0
  2 25  2  0
  2 13  1  0
  3 10  1  0
  4  6  2  0
  5 13  1  0
  6 21  1  0
  7 24  1  0
  7  3  2  0
  8 20  1  0
  8 12  1  0
  9 18  1  0
 10 14  2  0
 11 17  1  0
 11  8  1  0
 11 12  1  0
 13 23  2  0
 14 15  1  0
 15 17  1  0
 16 14  1  0
 18  4  1  0
 19  2  1  0
 20 21  2  0
 22 24  1  0
 22  1  1  0
 23  3  1  0
 23 16  1  0
 24 26  1  0
 25  7  1  0
 26  1  1  0
 26  9  1  0
 27 18  2  0
 27 20  1  0
  1 28  1  0
  1 29  1  0
  4 30  1  0
  5 31  1  0
  5 32  1  0
  5 33  1  0
  6 34  1  0
  8 35  1  1
 12 36  1  0
 15 37  1  0
 15 38  1  0
 16 39  1  0
 17 40  1  0
 17 41  1  0
 19 42  1  0
 21 43  1  0
 22 44  1  0
 22 45  1  0
 25 46  1  0
 26 47  1  1
 27 48  1  0
M  END
>  <mol_id>  (87) 
2026-08-24-6tgu-s0-n100-seed1-0092

>  <rmsd_to_ref>  (87) 


$$$$

     RDKit          3D

 31 33  0  0  0  0  0  0  0  0999 V2000
    2.9531   18.3681   37.4262 C   0  0  0  0  0  0  0  0  0  0  0  0
    2.0929   17.8351   39.2074 N   0  0  0  0  0  0  0  0  0  0  0  0
    0.6041   21.4834   40.8096 N   0  0  0  0  0  0  0  0  0  0  0  0
    2.2995   19.4210   37.7260 N   0  0  0  0  0  0  0  0  0  0  0  0
   -0.3486   16.3102   45.3297 C   0  0  0  0  0  0  0  0  0  0  0  0
    3.7647   17.9399   36.3289 N   0  0  0  0  0  0  0  0  0  0  0  0
    0.9807   22.0073   39.6883 O   0  0  0  0  0  0  0  0  0  0  0  0
    1.8572   19.0589   39.0944 C   0  0  0  0  0  0  0  0  0  0  0  0
   -0.8639   20.4036   43.7118 O   0  0  0  0  0  0  0  0  0  0  0  0
    0.3487   19.3892   42.0673 C   0  0  2  0  0  0  0  0  0  0  0  0
    2.7593   17.3734   38.2079 N   0  0  0  0  0  0  0  0  0  0  0  0
   -0.0519   18.2564   44.0059 N   0  0  0  0  0  0  0  0  0  0  0  0
    0.7924   20.2169   40.9270 C   0  0  0  0  0  0  0  0  0  0  0  0
    0.6321   17.3949   43.1677 C   0  0  0  0  0  0  0  0  0  0  0  0
    1.6306   21.0350   39.1138 C   0  0  0  0  0  0  0  0  0  0  0  0
    1.4732   20.0459   39.7228 C   0  0  0  0  0  0  0  0  0  0  0  0
   -0.5217   17.8412   45.3073 C   0  0  0  0  0  0  0  0  0  0  0  0
   -0.2483   19.4506   43.3380 C   0  0  0  0  0  0  0  0  0  0  0  0
    0.9418   18.0098   41.9986 C   0  0  0  0  0  0  0  0  0  0  0  0
   -0.1684   15.9766   46.3623 H   0  0  0  0  0  0  0  0  0  0  0  0
   -1.2612   15.8323   44.9440 H   0  0  0  0  0  0  0  0  0  0  0  0
    0.5073   16.0286   44.6987 H   0  0  0  0  0  0  0  0  0  0  0  0
    4.1915   17.0025   36.3391 H   0  0  0  0  0  0  0  0  0  0  0  0
    3.9221   18.5688   35.5286 H   0  0  0  0  0  0  0  0  0  0  0  0
   -0.3539   20.2051   41.8421 H   0  0  0  0  0  0  0  0  0  0  0  0
    3.0725   16.4026   38.0660 H   0  0  0  0  0  0  0  0  0  0  0  0
    0.8895   16.3543   43.4147 H   0  0  0  0  0  0  0  0  0  0  0  0
    2.2339   21.1280   38.1987 H   0  0  0  0  0  0  0  0  0  0  0  0
    0.0787   18.3089   46.1015 H   0  0  0  0  0  0  0  0  0  0  0  0
   -1.5660   18.1395   45.4818 H   0  0  0  0  0  0  0  0  0  0  0  0
    1.5154   17.5822   41.1631 H   0  0  0  0  0  0  0  0  0  0  0  0
  1  4  2  0
  1 11  1  0
  3 13  2  0
  4  8  1  0
  6  1  1  0
  7  3  1  0
  8  2  2  0
  8 16  1  0
 10 13  1  0
 10 19  1  0
 10 18  1  0
 11  2  1  0
 12 17  1  0
 14 12  1  0
 15  7  1  0
 15 16  2  0
 16 13  1  0
 17  5  1  0
 18  9  2  0
 18 12  1  0
 19 14  2  0
  5 20  1  0
  5 21  1  0
  5 22  1  0
  6 23  1  0
  6 24  1  0
 10 25  1  6
 11 26  1  0
 14 27  1  0
 15 28  1  0
 17 29  1  0
 17 30  1  0
 19 31  1  0
M  END
>  <mol_id>  (88) 
2026-08-24-6tgu-s0-n100-seed1-0093

>  <rmsd_to_ref>  (88) 


$$$$

     RDKit          3D

 41 45  0  0  0  0  0  0  0  0999 V2000
    1.5968   17.8236   41.0885 C   0  0  0  0  0  0  0  0  0  0  0  0
   -0.0251   20.8191   42.6370 C   0  0  0  0  0  0  0  0  0  0  0  0
    0.6113   15.8134   43.1926 C   0  0  0  0  0  0  0  0  0  0  0  0
    3.3430   20.5290   36.0179 N   0  0  0  0  0  0  0  0  0  0  0  0
    0.3003   18.1729   43.2286 C   0  0  0  0  0  0  0  0  0  0  0  0
    0.2824   16.8166   43.8847 C   0  0  0  0  0  0  0  0  0  0  0  0
   -0.1093   19.0618   44.1036 N   0  0  0  0  0  0  0  0  0  0  0  0
    1.2478   15.4581   42.2021 C   0  0  0  0  0  0  0  0  0  0  0  0
    2.5564   19.1721   38.7613 C   0  0  0  0  0  0  0  0  0  0  0  0
    3.3471   18.6238   37.5785 C   0  0  0  0  0  0  0  0  0  0  0  0
    2.6073   21.0237   37.0929 C   0  0  0  0  0  0  0  0  0  0  0  0
    3.7040   19.4406   36.5781 C   0  0  0  0  0  0  0  0  0  0  0  0
    2.3551   20.6616   38.5373 C   0  0  0  0  0  0  0  0  0  0  0  0
    2.7445   16.8316   39.5423 C   0  0  0  0  0  0  0  0  0  0  0  0
   -0.3942   20.3516   43.9083 N   0  0  0  0  0  0  0  0  0  0  0  0
   -0.8062   17.4558   45.9149 N   0  0  0  0  0  0  0  0  0  0  0  0
    1.7156   16.4245   41.3152 C   0  0  0  0  0  0  0  0  0  0  0  0
    2.4765   15.8572   40.2883 N   0  0  0  0  0  0  0  0  0  0  0  0
    2.1823   18.2426   39.7527 C   0  0  0  0  0  0  0  0  0  0  0  0
    0.8259   18.6484   42.0338 C   0  0  0  0  0  0  0  0  0  0  0  0
   -0.2159   15.3797   45.5478 O   0  0  0  0  0  0  0  0  0  0  0  0
    0.5676   19.9942   41.7228 C   0  0  0  0  0  0  0  0  0  0  0  0
    3.5647   16.4316   38.4283 C   0  0  0  0  0  0  0  0  0  0  0  0
    3.7494   17.3462   37.4693 C   0  0  0  0  0  0  0  0  0  0  0  0
   -0.2824   16.4773   45.2002 C   0  0  0  0  0  0  0  0  0  0  0  0
   -0.2166   21.8693   42.3716 H   0  0  0  0  0  0  0  0  0  0  0  0
    0.1575   14.9202   43.6467 H   0  0  0  0  0  0  0  0  0  0  0  0
    4.1413   21.1322   35.7735 H   0  0  0  0  0  0  0  0  0  0  0  0
    2.8520   20.4477   35.1162 H   0  0  0  0  0  0  0  0  0  0  0  0
    1.4449   14.3914   42.0192 H   0  0  0  0  0  0  0  0  0  0  0  0
    2.9902   22.0514   37.1783 H   0  0  0  0  0  0  0  0  0  0  0  0
    1.6663   20.5732   36.7444 H   0  0  0  0  0  0  0  0  0  0  0  0
    3.6989   18.7478   35.7237 H   0  0  0  0  0  0  0  0  0  0  0  0
    4.4449   19.9576   37.2056 H   0  0  0  0  0  0  0  0  0  0  0  0
    3.0541   21.2205   39.1769 H   0  0  0  0  0  0  0  0  0  0  0  0
    1.3162   20.9198   38.7901 H   0  0  0  0  0  0  0  0  0  0  0  0
   -1.2112   17.2573   46.8409 H   0  0  0  0  0  0  0  0  0  0  0  0
   -0.8099   18.4177   45.5465 H   0  0  0  0  0  0  0  0  0  0  0  0
    0.8452   20.3876   40.7338 H   0  0  0  0  0  0  0  0  0  0  0  0
    4.0144   15.4296   38.3689 H   0  0  0  0  0  0  0  0  0  0  0  0
    4.2567   17.0363   36.5438 H   0  0  0  0  0  0  0  0  0  0  0  0
  1 17  1  0
  1 20  2  0
  2 15  1  0
  3  6  1  0
  4 12  1  0
  4 11  1  0
  5  6  2  0
  5  7  1  0
  6 25  1  0
  8  3  2  0
  9 19  2  0
 10  9  1  0
 11 13  1  0
 12 10  1  0
 13  9  1  0
 14 19  1  0
 14 18  1  0
 15  7  2  0
 17  8  1  0
 18 17  2  0
 19  1  1  0
 20  5  1  0
 22 20  1  0
 22  2  2  0
 23 14  2  0
 24 10  2  0
 24 23  1  0
 25 21  2  0
 25 16  1  0
  2 26  1  0
  3 27  1  0
  4 28  1  0
  4 29  1  0
  8 30  1  0
 11 31  1  0
 11 32  1  0
 12 33  1  0
 12 34  1  0
 13 35  1  0
 13 36  1  0
 16 37  1  0
 16 38  1  0
 22 39  1  0
 23 40  1  0
 24 41  1  0
M  CHG  1   4   1
M  END
>  <mol_id>  (89) 
2026-08-24-6tgu-s0-n100-seed1-0094

>  <rmsd_to_ref>  (89) 


$$$$

     RDKit          3D

 42 44  0  0  0  0  0  0  0  0999 V2000
    2.7320   15.9660   39.1880 O   0  0  0  0  0  0  0  0  0  0  0  0
    0.4460   20.8470   41.8030 N   0  0  0  0  0  0  0  0  0  0  0  0
    1.6100   21.2410   39.6520 N   0  0  0  0  0  0  0  0  0  0  0  0
    0.5560   19.4600   41.8120 C   0  0  0  0  0  0  0  0  0  0  0  0
   -0.3290   21.1340   42.8510 N   0  0  0  0  0  0  0  0  0  0  0  0
   -0.0740   18.8910   42.8960 C   0  0  1  0  0  0  0  0  0  0  0  0
    2.6970   20.6780   37.6300 C   0  0  0  0  0  0  0  0  0  0  0  0
    3.4900   19.6750   37.1800 C   0  0  0  0  0  0  0  0  0  0  0  0
    1.9030   15.9770   41.4100 C   0  0  1  0  0  0  0  0  0  0  0  0
    1.3440   16.6540   42.4910 N   0  0  0  0  0  0  0  0  0  0  0  0
    2.3730   18.8250   38.9950 C   0  0  2  0  0  0  0  0  0  0  0  0
   -0.5930   16.7750   44.0400 C   0  0  0  0  0  0  0  0  0  0  0  0
    2.2860   16.6430   40.0710 C   0  0  0  0  0  0  0  0  0  0  0  0
    0.5180   17.5330   43.3110 C   0  0  2  0  0  0  0  0  0  0  0  0
    2.2950   14.5900   41.5060 C   0  0  0  0  0  0  0  0  0  0  0  0
    2.1540   20.3230   38.9290 C   0  0  0  0  0  0  0  0  0  0  0  0
    1.4090   18.5920   40.9790 N   0  0  0  0  0  0  0  0  0  0  0  0
    1.9820   17.9220   40.0210 N   0  0  0  0  0  0  0  0  0  0  0  0
    2.7120   13.5310   41.1930 C   0  0  0  0  0  0  0  0  0  0  0  0
   -0.7620   20.0260   43.4020 C   0  0  0  0  0  0  0  0  0  0  0  0
    3.1390   18.3370   37.7740 C   0  0  0  0  0  0  0  0  0  0  0  0
    1.2202   21.0055   40.5758 H   0  0  0  0  0  0  0  0  0  0  0  0
   -0.5535   22.0845   43.1782 H   0  0  0  0  0  0  0  0  0  0  0  0
   -0.8421   18.1838   43.2421 H   0  0  0  0  0  0  0  0  0  0  0  0
    1.8724   20.8395   36.9201 H   0  0  0  0  0  0  0  0  0  0  0  0
    3.2899   21.6001   37.7211 H   0  0  0  0  0  0  0  0  0  0  0  0
    3.3879   19.6109   36.0866 H   0  0  0  0  0  0  0  0  0  0  0  0
    4.5212   19.9094   37.4827 H   0  0  0  0  0  0  0  0  0  0  0  0
    0.8986   15.6705   41.0826 H   0  0  0  0  0  0  0  0  0  0  0  0
    1.1153   15.8004   43.0201 H   0  0  0  0  0  0  0  0  0  0  0  0
    1.8052   17.5029   42.1339 H   0  0  0  0  0  0  0  0  0  0  0  0
    1.4228   18.6421   38.4719 H   0  0  0  0  0  0  0  0  0  0  0  0
   -0.4510   16.8719   45.1265 H   0  0  0  0  0  0  0  0  0  0  0  0
   -1.5696   17.1960   43.7588 H   0  0  0  0  0  0  0  0  0  0  0  0
   -0.5572   15.7121   43.7588 H   0  0  0  0  0  0  0  0  0  0  0  0
    1.3925   17.8789   43.8816 H   0  0  0  0  0  0  0  0  0  0  0  0
    2.0229   18.2637   41.7381 H   0  0  0  0  0  0  0  0  0  0  0  0
    3.1006   12.5441   40.9013 H   0  0  0  0  0  0  0  0  0  0  0  0
   -0.6067   20.0829   44.4895 H   0  0  0  0  0  0  0  0  0  0  0  0
   -1.8306   19.9166   43.1649 H   0  0  0  0  0  0  0  0  0  0  0  0
    2.5079   17.7378   37.1012 H   0  0  0  0  0  0  0  0  0  0  0  0
    3.9880   17.6683   37.9790 H   0  0  0  0  0  0  0  0  0  0  0  0
  1 13  2  0
  2  4  2  0
  2  5  1  0
  4  6  1  0
  5 20  1  0
  6 14  1  0
  6 20  1  0
  7 16  1  0
  8  7  1  0
  8 21  1  0
  9 15  1  0
  9 10  1  0
 10 14  1  0
 11 21  1  0
 11 18  1  0
 13  9  1  0
 14 12  1  0
 16 11  1  0
 16  3  2  3
 17  4  1  0
 18 13  1  0
 18 17  1  0
 19 15  3  0
  3 22  1  0
  5 23  1  0
  6 24  1  6
  7 25  1  0
  7 26  1  0
  8 27  1  0
  8 28  1  0
  9 29  1  6
 10 30  1  0
 10 31  1  0
 11 32  1  6
 12 33  1  0
 12 34  1  0
 12 35  1  0
 14 36  1  1
 17 37  1  0
 19 38  1  0
 20 39  1  0
 20 40  1  0
 21 41  1  0
 21 42  1  0
M  CHG  1  10   1
M  END
>  <mol_id>  (90) 
2026-08-24-6tgu-s0-n100-seed1-0095

>  <rmsd_to_ref>  (90) 


$$$$

     RDKit          3D

 49 52  0  0  0  0  0  0  0  0999 V2000
   -0.0240   14.7670   44.1830 C   0  0  0  0  0  0  0  0  0  0  0  0
    2.5110   20.6400   38.0310 C   0  0  0  0  0  0  0  0  0  0  0  0
    1.0000   16.1160   42.2240 C   0  0  0  0  0  0  0  0  0  0  0  0
    1.5520   13.7440   42.8010 O   0  0  0  0  0  0  0  0  0  0  0  0
    0.2970   21.1300   41.6110 C   0  0  0  0  0  0  0  0  0  0  0  0
    2.9670   18.4340   38.3500 C   0  0  0  0  0  0  0  0  0  0  0  0
    3.2840   20.1280   36.8900 C   0  0  0  0  0  0  0  0  0  0  0  0
    0.6150   18.6660   42.0400 C   0  0  0  0  0  0  0  0  0  0  0  0
   -1.4170   19.4510   44.2540 N   0  0  0  0  0  0  0  0  0  0  0  0
    3.5940   20.7500   35.8380 O   0  0  0  0  0  0  0  0  0  0  0  0
    2.1320   19.8190   40.4520 C   0  0  1  0  0  0  0  0  0  0  0  0
    0.8420   14.8840   43.0270 C   0  0  0  0  0  0  0  0  0  0  0  0
    0.2930   17.3680   42.8250 C   0  0  0  0  0  0  0  0  0  0  0  0
    3.5670   18.8040   37.2420 C   0  0  2  0  0  0  0  0  0  0  0  0
    1.5010   18.6170   40.9420 C   0  0  0  0  0  0  0  0  0  0  0  0
    0.0230   19.9550   42.2940 C   0  0  0  0  0  0  0  0  0  0  0  0
    2.1650   13.2810   41.7330 C   0  0  0  0  0  0  0  0  0  0  0  0
    2.4690   19.5950   38.9970 N   0  0  0  0  0  0  0  0  0  0  0  0
    1.4630   21.1700   40.6030 C   0  0  0  0  0  0  0  0  0  0  0  0
    4.2420   17.8930   36.4300 O   0  0  0  0  0  0  0  0  0  0  0  0
   -0.6780   15.8260   44.6700 C   0  0  0  0  0  0  0  0  0  0  0  0
   -0.9380   20.0820   43.2680 C   0  0  0  0  0  0  0  0  0  0  0  0
   -0.5430   17.1400   44.0000 C   0  0  0  0  0  0  0  0  0  0  0  0
    4.2430   16.6190   37.2500 C   0  0  0  0  0  0  0  0  0  0  0  0
   -1.3630   18.1530   44.4730 C   0  0  0  0  0  0  0  0  0  0  0  0
   -0.1455   13.7877   44.6691 H   0  0  0  0  0  0  0  0  0  0  0  0
    3.0027   21.5283   38.4543 H   0  0  0  0  0  0  0  0  0  0  0  0
    1.4973   20.9352   37.7223 H   0  0  0  0  0  0  0  0  0  0  0  0
    1.5682   16.1460   41.2826 H   0  0  0  0  0  0  0  0  0  0  0  0
   -0.6145   21.3971   41.0561 H   0  0  0  0  0  0  0  0  0  0  0  0
    0.6190   21.8202   42.4047 H   0  0  0  0  0  0  0  0  0  0  0  0
    3.6840   17.9206   39.0075 H   0  0  0  0  0  0  0  0  0  0  0  0
    2.1412   17.7442   38.1213 H   0  0  0  0  0  0  0  0  0  0  0  0
    2.9863   19.9356   41.1351 H   0  0  0  0  0  0  0  0  0  0  0  0
    4.6629   18.7323   37.1804 H   0  0  0  0  0  0  0  0  0  0  0  0
    0.9347   18.1932   40.0996 H   0  0  0  0  0  0  0  0  0  0  0  0
    2.3488   18.0372   41.3358 H   0  0  0  0  0  0  0  0  0  0  0  0
    3.0077   12.6445   42.0409 H   0  0  0  0  0  0  0  0  0  0  0  0
    1.4586   12.6890   41.1325 H   0  0  0  0  0  0  0  0  0  0  0  0
    2.5413   14.1224   41.1325 H   0  0  0  0  0  0  0  0  0  0  0  0
    2.2094   21.8984   40.9527 H   0  0  0  0  0  0  0  0  0  0  0  0
    1.0541   21.4571   39.6230 H   0  0  0  0  0  0  0  0  0  0  0  0
   -1.7482   15.5719   44.6625 H   0  0  0  0  0  0  0  0  0  0  0  0
   -0.2100   15.9884   45.6521 H   0  0  0  0  0  0  0  0  0  0  0  0
   -1.4595   21.0437   43.1529 H   0  0  0  0  0  0  0  0  0  0  0  0
    4.2428   16.8720   38.3205 H   0  0  0  0  0  0  0  0  0  0  0  0
    3.3453   16.0293   37.0124 H   0  0  0  0  0  0  0  0  0  0  0  0
    5.1416   16.0307   37.0124 H   0  0  0  0  0  0  0  0  0  0  0  0
   -2.1287   17.7988   45.1788 H   0  0  0  0  0  0  0  0  0  0  0  0
  1 21  1  0
  3 13  2  0
  3 12  1  0
  4 12  1  0
  5 16  1  0
  6 18  1  0
  7 14  1  0
  7  2  1  0
  8 16  2  0
  8 13  1  0
  9 25  1  0
 10  7  2  0
 11 19  1  0
 11 15  1  0
 12  1  2  0
 13 23  1  0
 14 20  1  0
 14  6  1  0
 15  8  1  0
 16 22  1  0
 17  4  1  0
 18  2  1  0
 18 11  1  0
 19  5  1  0
 20 24  1  0
 22  9  2  0
 23 25  2  0
 23 21  1  0
  1 26  1  0
  2 27  1  0
  2 28  1  0
  3 29  1  0
  5 30  1  0
  5 31  1  0
  6 32  1  0
  6 33  1  0
 11 34  1  1
 14 35  1  1
 15 36  1  0
 15 37  1  0
 17 38  1  0
 17 39  1  0
 17 40  1  0
 19 41  1  0
 19 42  1  0
 21 43  1  0
 21 44  1  0
 22 45  1  0
 24 46  1  0
 24 47  1  0
 24 48  1  0
 25 49  1  0
M  END
>  <mol_id>  (91) 
2026-08-24-6tgu-s0-n100-seed1-0096

>  <rmsd_to_ref>  (91) 


$$$$

     RDKit          3D

 38 41  0  0  0  0  0  0  0  0999 V2000
    2.9100   18.6370   38.5090 C   0  0  0  0  0  0  0  0  0  0  0  0
    1.7290   13.9960   41.8960 N   0  0  0  0  0  0  0  0  0  0  0  0
    3.5530   19.6610   36.3710 N   0  0  0  0  0  0  0  0  0  0  0  0
    1.7020   19.9060   40.1480 C   0  0  0  0  0  0  0  0  0  0  0  0
    3.4100   20.8670   35.9080 C   0  0  0  0  0  0  0  0  0  0  0  0
    2.2910   18.6310   39.7270 C   0  0  0  0  0  0  0  0  0  0  0  0
   -0.4750   15.7540   44.2130 C   0  0  0  0  0  0  0  0  0  0  0  0
    1.7950   20.9400   39.1510 C   0  0  0  0  0  0  0  0  0  0  0  0
    0.2890   21.2300   41.5380 C   0  0  0  0  0  0  0  0  0  0  0  0
    1.0860   15.1950   42.4470 C   0  0  0  0  0  0  0  0  0  0  0  0
    0.1870   19.7650   43.5330 O   0  0  0  0  0  0  0  0  0  0  0  0
    2.9970   19.4910   37.5800 C   0  0  0  0  0  0  0  0  0  0  0  0
    1.2620   16.5740   42.0340 C   0  0  0  0  0  0  0  0  0  0  0  0
    0.3070   13.4570   43.6070 N   0  0  0  0  0  0  0  0  0  0  0  0
    1.3780   11.4490   42.3440 C   0  0  0  0  0  0  0  0  0  0  0  0
    2.4420   20.7000   37.9630 C   0  0  0  0  0  0  0  0  0  0  0  0
    0.3330   14.8050   43.4850 C   0  0  0  0  0  0  0  0  0  0  0  0
    0.6540   19.1010   42.6120 C   0  0  0  0  0  0  0  0  0  0  0  0
    1.0070   19.9410   41.3670 N   0  0  0  0  0  0  0  0  0  0  0  0
    0.4910   17.5620   42.8430 C   0  0  0  0  0  0  0  0  0  0  0  0
    1.1390   12.9200   42.6280 C   0  0  0  0  0  0  0  0  0  0  0  0
    3.6850   21.4320   34.8990 O   0  0  0  0  0  0  0  0  0  0  0  0
   -0.3610   17.0620   43.8420 C   0  0  0  0  0  0  0  0  0  0  0  0
    2.6630   21.5430   36.8950 O   0  0  0  0  0  0  0  0  0  0  0  0
    3.4459   17.7016   38.2900 H   0  0  0  0  0  0  0  0  0  0  0  0
    4.0433   18.9120   35.8615 H   0  0  0  0  0  0  0  0  0  0  0  0
    2.2379   17.7273   40.3519 H   0  0  0  0  0  0  0  0  0  0  0  0
   -1.1475   15.4391   45.0245 H   0  0  0  0  0  0  0  0  0  0  0  0
    1.3463   21.9262   39.3410 H   0  0  0  0  0  0  0  0  0  0  0  0
    0.1699   21.4439   42.6104 H   0  0  0  0  0  0  0  0  0  0  0  0
    0.8673   22.0374   41.0651 H   0  0  0  0  0  0  0  0  0  0  0  0
   -0.7019   21.1633   41.0651 H   0  0  0  0  0  0  0  0  0  0  0  0
    1.9097   16.8668   41.1945 H   0  0  0  0  0  0  0  0  0  0  0  0
   -0.2334   12.9224   44.3020 H   0  0  0  0  0  0  0  0  0  0  0  0
    1.4669   10.9019   43.2941 H   0  0  0  0  0  0  0  0  0  0  0  0
    0.5337   11.0453   41.7660 H   0  0  0  0  0  0  0  0  0  0  0  0
    2.3067   11.3333   41.7660 H   0  0  0  0  0  0  0  0  0  0  0  0
   -0.9925   17.7900   44.3723 H   0  0  0  0  0  0  0  0  0  0  0  0
  1  6  1  0
  2 10  1  0
  2 21  2  0
  3 12  1  0
  4 19  1  0
  5  3  1  0
  5 24  1  0
  6  4  2  0
  8  4  1  0
 10 17  1  0
 12 16  1  0
 12  1  2  0
 13 10  2  0
 13 20  1  0
 15 21  1  0
 16  8  2  0
 17 14  1  0
 17  7  2  0
 18 20  1  0
 18 11  2  0
 19  9  1  0
 19 18  1  0
 20 23  2  0
 21 14  1  0
 22  5  2  0
 23  7  1  0
 24 16  1  0
  1 25  1  0
  3 26  1  0
  6 27  1  0
  7 28  1  0
  8 29  1  0
  9 30  1  0
  9 31  1  0
  9 32  1  0
 13 33  1  0
 14 34  1  0
 15 35  1  0
 15 36  1  0
 15 37  1  0
 23 38  1  0
M  END
>  <mol_id>  (92) 
2026-08-24-6tgu-s0-n100-seed1-0097

>  <rmsd_to_ref>  (92) 


$$$$

     RDKit          3D

 39 42  0  0  0  0  0  0  0  0999 V2000
    4.5758   18.5319   38.0174 C   0  0  0  0  0  0  0  0  0  0  0  0
    1.9883   18.1183   40.6974 N   0  0  0  0  0  0  0  0  0  0  0  0
    0.3871   17.4233   42.5489 C   0  0  1  0  0  0  0  0  0  0  0  0
    3.6185   20.2426   36.9790 C   0  0  0  0  0  0  0  0  0  0  0  0
    2.7554   20.2802   37.9816 C   0  0  0  0  0  0  0  0  0  0  0  0
   -0.3550   14.2991   44.4817 C   0  0  0  0  0  0  0  0  0  0  0  0
    2.8097   19.4264   38.9759 C   0  0  0  0  0  0  0  0  0  0  0  0
    0.2775   13.1804   44.2964 C   0  0  0  0  0  0  0  0  0  0  0  0
    0.9860   21.4035   40.2989 C   0  0  0  0  0  0  0  0  0  0  0  0
   -0.2453   15.5847   43.9141 C   0  0  0  0  0  0  0  0  0  0  0  0
    4.6016   19.2835   36.9274 N   0  0  0  0  0  0  0  0  0  0  0  0
    0.6131   16.0392   42.9918 C   0  0  0  0  0  0  0  0  0  0  0  0
    1.4593   12.9994   43.5827 C   0  0  0  0  0  0  0  0  0  0  0  0
    3.7278   18.5443   39.0499 C   0  0  0  0  0  0  0  0  0  0  0  0
    3.6538   21.0511   35.9690 O   0  0  0  0  0  0  0  0  0  0  0  0
    1.7447   15.2649   42.5953 C   0  0  0  0  0  0  0  0  0  0  0  0
    0.4194   19.5282   41.4546 C   0  0  0  0  0  0  0  0  0  0  0  0
    1.1021   20.1825   40.4849 C   0  0  0  0  0  0  0  0  0  0  0  0
   -0.7074   19.7448   42.1523 C   0  0  0  0  0  0  0  0  0  0  0  0
   -0.9985   18.3458   43.0777 S   0  0  0  0  0  0  0  0  0  0  0  0
    2.0099   19.2026   40.0172 C   0  0  0  0  0  0  0  0  0  0  0  0
    2.0415   13.9600   42.7980 C   0  0  0  0  0  0  0  0  0  0  0  0
    0.9709   18.2342   41.6581 C   0  0  0  0  0  0  0  0  0  0  0  0
    5.3767   17.7807   38.0830 H   0  0  0  0  0  0  0  0  0  0  0  0
   -0.1879   17.0537   41.6870 H   0  0  0  0  0  0  0  0  0  0  0  0
    2.8463   21.2809   38.4293 H   0  0  0  0  0  0  0  0  0  0  0  0
    1.8134   20.0007   37.4872 H   0  0  0  0  0  0  0  0  0  0  0  0
   -1.1447   14.2286   45.2441 H   0  0  0  0  0  0  0  0  0  0  0  0
    0.4956   12.8060   45.3075 H   0  0  0  0  0  0  0  0  0  0  0  0
   -0.4251   12.6895   43.6070 H   0  0  0  0  0  0  0  0  0  0  0  0
    0.8060   21.9055   41.2610 H   0  0  0  0  0  0  0  0  0  0  0  0
    1.9097   21.7952   39.8482 H   0  0  0  0  0  0  0  0  0  0  0  0
    0.1392   21.5924   39.6227 H   0  0  0  0  0  0  0  0  0  0  0  0
   -0.9719   16.3236   44.2831 H   0  0  0  0  0  0  0  0  0  0  0  0
    1.9581   12.0215   43.6533 H   0  0  0  0  0  0  0  0  0  0  0  0
    3.8147   17.8484   39.8973 H   0  0  0  0  0  0  0  0  0  0  0  0
    2.5045   15.8234   42.0289 H   0  0  0  0  0  0  0  0  0  0  0  0
   -1.3256   20.6544   42.1300 H   0  0  0  0  0  0  0  0  0  0  0  0
    2.9117   13.6047   42.2267 H   0  0  0  0  0  0  0  0  0  0  0  0
  1 14  1  0
  2 23  2  0
  3 12  1  0
  3 20  1  0
  4  5  1  0
  5  7  1  0
  7 21  1  0
  8  6  1  0
  9 18  1  0
 10  6  2  0
 11  4  1  0
 11  1  2  0
 12 10  1  0
 13  8  1  0
 14  7  2  0
 15  4  2  0
 16 22  1  0
 16 12  2  0
 17 23  1  0
 17 19  2  0
 18 17  1  0
 19 20  1  0
 21  2  1  0
 21 18  2  0
 22 13  2  0
 23  3  1  0
  1 24  1  0
  3 25  1  1
  5 26  1  0
  5 27  1  0
  6 28  1  0
  8 29  1  0
  8 30  1  0
  9 31  1  0
  9 32  1  0
  9 33  1  0
 10 34  1  0
 13 35  1  0
 14 36  1  0
 16 37  1  0
 19 38  1  0
 22 39  1  0
M  END
>  <mol_id>  (93) 
2026-08-24-6tgu-s0-n100-seed1-0098

>  <rmsd_to_ref>  (93) 


$$$$

     RDKit          3D

 46 50  0  0  0  0  0  0  0  0999 V2000
    0.2510   17.9220   43.6560 C   0  0  0  0  0  0  0  0  0  0  0  0
    2.0730   20.2600   39.3730 C   0  0  0  0  0  0  0  0  0  0  0  0
    1.7020   12.9390   42.2780 C   0  0  0  0  0  0  0  0  0  0  0  0
    0.1460   19.3920   43.1340 C   0  0  0  0  0  0  0  0  0  0  0  0
    2.4610   18.8310   39.5220 C   0  0  0  0  0  0  0  0  0  0  0  0
   -0.4760   18.0750   44.9680 C   0  0  0  0  0  0  0  0  0  0  0  0
    0.8840   20.6790   41.3560 C   0  0  0  0  0  0  0  0  0  0  0  0
    1.1140   15.7480   42.4640 C   0  0  0  0  0  0  0  0  0  0  0  0
    2.0450   15.1990   41.5200 C   0  0  0  0  0  0  0  0  0  0  0  0
    3.9340   20.6740   35.8400 N   0  0  0  0  0  0  0  0  0  0  0  0
    3.0720   20.9700   36.5090 C   0  0  0  0  0  0  0  0  0  0  0  0
    2.0960   21.7540   36.5890 O   0  0  0  0  0  0  0  0  0  0  0  0
   -0.3760   20.1710   44.0570 N   0  0  0  0  0  0  0  0  0  0  0  0
    2.3170   18.1770   40.7090 C   0  0  0  0  0  0  0  0  0  0  0  0
   -0.7490   19.4180   45.1620 N   0  0  0  0  0  0  0  0  0  0  0  0
    0.9200   19.4460   42.0500 C   0  0  0  0  0  0  0  0  0  0  0  0
    3.7070   20.0420   37.1360 C   0  0  1  0  0  0  0  0  0  0  0  0
    2.2610   13.8760   41.3880 C   0  0  0  0  0  0  0  0  0  0  0  0
    3.4790   18.5700   37.2050 C   0  0  0  0  0  0  0  0  0  0  0  0
   -0.8430   17.0380   45.9440 C   0  0  0  0  0  0  0  0  0  0  0  0
    0.8570   13.3920   43.2110 C   0  0  0  0  0  0  0  0  0  0  0  0
    1.4350   20.9180   40.2140 C   0  0  0  0  0  0  0  0  0  0  0  0
   -1.7030   17.3400   47.1040 C   0  0  0  0  0  0  0  0  0  0  0  0
    0.6070   14.8090   43.3750 C   0  0  0  0  0  0  0  0  0  0  0  0
    2.8270   17.9780   38.3570 C   0  0  0  0  0  0  0  0  0  0  0  0
    0.8270   17.1600   42.5570 C   0  0  0  0  0  0  0  0  0  0  0  0
    1.4510   18.3300   41.6710 C   0  0  0  0  0  0  0  0  0  0  0  0
    2.3735   20.7739   38.4480 H   0  0  0  0  0  0  0  0  0  0  0  0
    1.9518   11.8700   42.2085 H   0  0  0  0  0  0  0  0  0  0  0  0
    0.3380   21.5067   41.8323 H   0  0  0  0  0  0  0  0  0  0  0  0
    2.6077   15.8899   40.8750 H   0  0  0  0  0  0  0  0  0  0  0  0
    4.4744   20.7748   34.9690 H   0  0  0  0  0  0  0  0  0  0  0  0
    3.0588   17.3841   40.8854 H   0  0  0  0  0  0  0  0  0  0  0  0
    4.0854   19.9135   38.1608 H   0  0  0  0  0  0  0  0  0  0  0  0
    2.8920   13.5174   40.5614 H   0  0  0  0  0  0  0  0  0  0  0  0
    3.8082   17.9277   36.3749 H   0  0  0  0  0  0  0  0  0  0  0  0
   -1.3537   16.2455   45.3773 H   0  0  0  0  0  0  0  0  0  0  0  0
    0.1223   16.8088   46.4191 H   0  0  0  0  0  0  0  0  0  0  0  0
    0.3420   12.6742   43.8664 H   0  0  0  0  0  0  0  0  0  0  0  0
    2.1295   21.7372   40.4518 H   0  0  0  0  0  0  0  0  0  0  0  0
    0.4894   20.8778   39.6535 H   0  0  0  0  0  0  0  0  0  0  0  0
   -1.1473   17.1449   48.0331 H   0  0  0  0  0  0  0  0  0  0  0  0
   -2.0039   18.3976   47.0719 H   0  0  0  0  0  0  0  0  0  0  0  0
   -2.5990   16.7027   47.0719 H   0  0  0  0  0  0  0  0  0  0  0  0
    0.0082   15.1558   44.2301 H   0  0  0  0  0  0  0  0  0  0  0  0
    2.6031   16.9011   38.3705 H   0  0  0  0  0  0  0  0  0  0  0  0
  1  6  1  0
  2  5  2  0
  2 22  1  0
  3 21  1  0
  4  1  1  0
  4 13  2  0
  5 14  1  0
  6 15  2  0
  6 20  1  0
  7 16  2  0
  8 26  1  0
  8 24  1  0
  9  8  2  0
 10 11  1  0
 10 17  1  0
 11 12  2  0
 11 17  1  0
 13 15  1  0
 14 27  2  0
 16  4  1  0
 17 19  1  0
 18  9  1  0
 18  3  2  0
 19 25  2  3
 20 23  1  0
 21 24  2  0
 22  7  1  0
 25  5  1  0
 26  1  2  0
 27 16  1  0
 27 26  1  0
  2 28  1  0
  3 29  1  0
  7 30  1  0
  9 31  1  0
 10 32  1  0
 14 33  1  0
 17 34  1  1
 18 35  1  0
 19 36  1  0
 20 37  1  0
 20 38  1  0
 21 39  1  0
 22 40  1  0
 22 41  1  0
 23 42  1  0
 23 43  1  0
 23 44  1  0
 24 45  1  0
 25 46  1  0
M  END
>  <mol_id>  (94) 
2026-08-24-6tgu-s0-n100-seed1-0099

>  <rmsd_to_ref>  (94) 


$$$$

     RDKit          3D

 43 46  0  0  0  0  0  0  0  0999 V2000
   -1.0350   17.5270   44.4430 N   0  0  0  0  0  0  0  0  0  0  0  0
    2.3880   16.2350   40.5200 C   0  0  0  0  0  0  0  0  0  0  0  0
   -1.0580   19.9780   44.1650 N   0  0  0  0  0  0  0  0  0  0  0  0
    2.7580   18.1900   39.5880 O   0  0  0  0  0  0  0  0  0  0  0  0
   -0.5220   20.9020   43.3780 C   0  0  0  0  0  0  0  0  0  0  0  0
    3.6060   20.1950   36.9970 O   0  0  0  0  0  0  0  0  0  0  0  0
    2.9440   15.6380   39.3520 C   0  0  0  0  0  0  0  0  0  0  0  0
    3.8930   17.5090   37.5170 C   0  0  0  0  0  0  0  0  0  0  0  0
    2.9420   14.3080   39.6470 N   0  0  0  0  0  0  0  0  0  0  0  0
    2.0940   17.7670   40.6600 C   0  0  1  0  0  0  0  0  0  0  0  0
    3.6040   20.7730   35.9990 O   0  0  0  0  0  0  0  0  0  0  0  0
    4.1570   15.1390   37.2230 C   0  0  0  0  0  0  0  0  0  0  0  0
    1.4070   19.0570   40.8450 N   0  0  0  0  0  0  0  0  0  0  0  0
    2.0950   15.1650   41.3950 C   0  0  0  0  0  0  0  0  0  0  0  0
   -0.4680   16.5520   43.7830 C   0  0  0  0  0  0  0  0  0  0  0  0
   -0.6680   18.7170   43.8630 C   0  0  0  0  0  0  0  0  0  0  0  0
    3.3640   18.8030   37.0930 C   0  0  1  0  0  0  0  0  0  0  0  0
    2.8730   19.0620   38.8150 C   0  0  0  0  0  0  0  0  0  0  0  0
    3.4930   16.1910   38.1060 C   0  0  1  0  0  0  0  0  0  0  0  0
    0.2820   16.9870   42.7480 N   0  0  0  0  0  0  0  0  0  0  0  0
    0.3160   20.7320   42.2990 C   0  0  0  0  0  0  0  0  0  0  0  0
    2.4650   14.0920   40.8630 N   0  0  0  0  0  0  0  0  0  0  0  0
    0.1770   18.3870   42.7380 C   0  0  0  0  0  0  0  0  0  0  0  0
    0.6270   19.3970   41.9140 C   0  0  0  0  0  0  0  0  0  0  0  0
   -0.7819   21.9431   43.6200 H   0  0  0  0  0  0  0  0  0  0  0  0
    4.6578   17.8299   38.2395 H   0  0  0  0  0  0  0  0  0  0  0  0
    3.8041   17.1091   36.4961 H   0  0  0  0  0  0  0  0  0  0  0  0
    1.8014   17.4811   41.6811 H   0  0  0  0  0  0  0  0  0  0  0  0
    3.6006   21.7461   36.1812 H   0  0  0  0  0  0  0  0  0  0  0  0
    4.6370   14.3785   37.8565 H   0  0  0  0  0  0  0  0  0  0  0  0
    3.3969   14.6606   36.5879 H   0  0  0  0  0  0  0  0  0  0  0  0
    4.9159   15.6193   36.5879 H   0  0  0  0  0  0  0  0  0  0  0  0
    2.1515   19.7682   40.8147 H   0  0  0  0  0  0  0  0  0  0  0  0
    0.6859   18.9828   40.1132 H   0  0  0  0  0  0  0  0  0  0  0  0
    2.6289   15.3089   42.3459 H   0  0  0  0  0  0  0  0  0  0  0  0
    1.0132   15.1298   41.5913 H   0  0  0  0  0  0  0  0  0  0  0  0
   -0.5889   15.4900   44.0430 H   0  0  0  0  0  0  0  0  0  0  0  0
    3.1294   18.5875   36.0401 H   0  0  0  0  0  0  0  0  0  0  0  0
    3.6200   19.7473   39.2420 H   0  0  0  0  0  0  0  0  0  0  0  0
    1.8286   19.3865   38.6967 H   0  0  0  0  0  0  0  0  0  0  0  0
    2.5836   16.7057   38.4495 H   0  0  0  0  0  0  0  0  0  0  0  0
   -0.1552   21.2232   41.4349 H   0  0  0  0  0  0  0  0  0  0  0  0
    1.2762   21.1632   42.6183 H   0  0  0  0  0  0  0  0  0  0  0  0
  2 10  1  0
  2 14  1  0
  4 10  1  0
  5  3  2  0
  7  9  1  0
  7  2  2  0
  8 19  1  0
  9 22  2  0
 10 13  1  0
 11  6  1  0
 13 24  1  0
 15  1  1  0
 16  3  1  0
 16  1  2  0
 17  6  1  0
 17  8  1  0
 17 18  1  0
 18  4  1  0
 19 12  1  0
 19  7  1  0
 20 15  2  0
 21  5  1  0
 22 14  1  0
 23 20  1  0
 23 16  1  0
 24 21  1  0
 24 23  2  0
  5 25  1  0
  8 26  1  0
  8 27  1  0
 10 28  1  1
 11 29  1  0
 12 30  1  0
 12 31  1  0
 12 32  1  0
 13 33  1  0
 13 34  1  0
 14 35  1  0
 14 36  1  0
 15 37  1  0
 17 38  1  6
 18 39  1  0
 18 40  1  0
 19 41  1  6
 21 42  1  0
 21 43  1  0
M  CHG  1  13   1
M  END
>  <mol_id>  (95) 
2026-08-24-6tgu-s0-n100-seed1-0100

>  <rmsd_to_ref>  (95) 


$$$$
