
     RDKit          3D

 48 50  0  0  0  0  0  0  0  0999 V2000
    2.9962   24.1485   35.0558 C   0  0  0  0  0  0  0  0  0  0  0  0
   -1.0553   19.2145   45.5448 N   0  0  0  0  0  0  0  0  0  0  0  0
    4.2373   23.5294   34.5197 C   0  0  1  0  0  0  0  0  0  0  0  0
    4.7224   21.1778   40.2762 C   0  0  0  0  0  0  0  0  0  0  0  0
    0.7917   17.7964   44.0607 C   0  0  0  0  0  0  0  0  0  0  0  0
    5.5373   22.6181   32.2145 S   0  0  0  0  0  4  0  0  0  0  0  0
    1.7131   17.2978   43.3669 N   0  0  0  0  0  0  0  0  0  0  0  0
    4.1040   20.7028   41.4928 C   0  0  0  0  0  0  0  0  0  0  0  0
    2.9844   20.0899   38.9036 C   0  0  0  0  0  0  0  0  0  0  0  0
    1.6224   15.9528   43.8616 O   0  0  0  0  0  0  0  0  0  0  0  0
    2.7831   21.3999   33.3541 S   0  0  0  0  0  0  0  0  0  0  0  0
    2.4278   19.5710   40.0383 C   0  0  0  0  0  0  0  0  0  0  0  0
    4.0661   21.0372   39.0988 C   0  0  1  0  0  0  0  0  0  0  0  0
    0.6138   19.1558   43.8533 C   0  0  0  0  0  0  0  0  0  0  0  0
    3.0507   22.7256   35.6947 C   0  0  2  0  0  0  0  0  0  0  0  0
    4.7630   22.4135   30.8940 O   0  0  0  0  0  0  0  0  0  0  0  0
    0.0224   17.1480   44.9861 C   0  0  0  0  0  0  0  0  0  0  0  0
    3.1722   22.8997   32.3828 C   0  0  0  0  0  0  0  0  0  0  0  0
   -0.3361   19.8887   44.5879 C   0  0  0  0  0  0  0  0  0  0  0  0
   -1.6659   17.1915   46.9310 C   0  0  0  0  0  0  0  0  0  0  0  0
    6.0306   21.9454   40.2886 F   0  0  0  0  0  0  0  0  0  0  0  0
    2.0748   19.5537   42.6487 C   0  0  0  0  0  0  0  0  0  0  0  0
    2.8387   21.4958   34.9768 N   0  0  0  0  0  0  0  0  0  0  0  0
    4.3984   21.6488   37.9996 F   0  0  0  0  0  0  0  0  0  0  0  0
    4.2659   23.5011   33.0435 C   0  0  1  0  0  0  0  0  0  0  0  0
    2.9481   19.9320   41.3658 C   0  0  0  0  0  0  0  0  0  0  0  0
   -0.8810   17.8494   45.8072 C   0  0  1  0  0  0  0  0  0  0  0  0
    3.1129   25.0092   35.7307 H   0  0  0  0  0  0  0  0  0  0  0  0
    2.1702   24.6103   34.4950 H   0  0  0  0  0  0  0  0  0  0  0  0
    5.3369   23.5569   34.5234 H   0  0  0  0  0  0  0  0  0  0  0  0
    5.8494   21.4361   32.8327 H   0  0  0  0  0  0  0  0  0  0  0  0
    2.3368   17.7205   42.6646 H   0  0  0  0  0  0  0  0  0  0  0  0
    4.5278   20.9396   42.4798 H   0  0  0  0  0  0  0  0  0  0  0  0
    2.6330   19.8062   37.9006 H   0  0  0  0  0  0  0  0  0  0  0  0
    1.5186   15.9696   44.8460 H   0  0  0  0  0  0  0  0  0  0  0  0
    1.5802   18.8746   39.9581 H   0  0  0  0  0  0  0  0  0  0  0  0
    4.7984   20.2460   38.8800 H   0  0  0  0  0  0  0  0  0  0  0  0
    2.7510   22.4044   36.7032 H   0  0  0  0  0  0  0  0  0  0  0  0
    0.1109   16.0566   45.0913 H   0  0  0  0  0  0  0  0  0  0  0  0
    2.3097   23.5822   32.3666 H   0  0  0  0  0  0  0  0  0  0  0  0
    3.4087   22.6591   31.3358 H   0  0  0  0  0  0  0  0  0  0  0  0
   -0.4969   20.9610   44.4031 H   0  0  0  0  0  0  0  0  0  0  0  0
   -1.3463   17.6114   47.8961 H   0  0  0  0  0  0  0  0  0  0  0  0
   -2.7401   17.3797   46.7870 H   0  0  0  0  0  0  0  0  0  0  0  0
   -1.4792   16.1075   46.9230 H   0  0  0  0  0  0  0  0  0  0  0  0
    1.9372   21.1267   35.3113 H   0  0  0  0  0  0  0  0  0  0  0  0
    4.3498   24.5955   32.9718 H   0  0  0  0  0  0  0  0  0  0  0  0
   -1.6987   17.6111   45.1110 H   0  0  0  0  0  0  0  0  0  0  0  0
  2 27  1  0
  3  1  1  0
  3 15  1  0
  4  8  2  0
  5 17  2  0
  7 10  1  0
  7  5  1  0
  9 13  1  0
  9 12  2  0
 11 23  1  0
 12 26  1  0
 13 24  1  0
 13  4  1  0
 14  5  1  0
 14 19  1  0
 15  1  1  0
 16  6  2  0
 17 27  1  0
 18 25  1  0
 18 11  1  0
 19  2  2  0
 21  4  1  0
 22 14  2  0
 23 15  1  0
 25  6  1  0
 25  3  1  0
 26  8  1  0
 26 22  2  0
 27 20  1  0
  1 28  1  0
  1 29  1  0
  3 30  1  1
  6 31  1  1
  7 32  1  0
  8 33  1  0
  9 34  1  0
 10 35  1  0
 12 36  1  0
 13 37  1  1
 15 38  1  1
 17 39  1  0
 18 40  1  0
 18 41  1  0
 19 42  1  0
 20 43  1  0
 20 44  1  0
 20 45  1  0
 23 46  1  0
 25 47  1  6
 27 48  1  6
M  END
>  <mol_id>  (1) 
2026-09-18-6fnk-s0-n100-0001

>  <rmsd_to_ref>  (1) 


$$$$

     RDKit          3D

 58 58  0  0  0  0  0  0  0  0999 V2000
    1.0953   16.3318   35.7124 N   0  0  0  0  0  0  0  0  0  0  0  0
    0.6513   24.7390   32.0921 C   0  0  0  0  0  0  0  0  0  0  0  0
    0.8654   17.7905   38.7805 C   0  0  0  0  0  0  0  0  0  0  0  0
   -0.0057   16.6514   39.3898 C   0  0  0  0  0  0  0  0  0  0  0  0
    0.8811   23.8886   34.5273 C   0  0  1  0  0  0  0  0  0  0  0  0
    4.3454   21.6274   37.4594 N   0  0  0  0  0  0  0  0  0  0  0  0
   -1.3142   14.1472   40.7101 O   0  0  0  0  0  0  0  0  0  0  0  0
    5.2401   22.4267   38.2898 C   0  0  0  0  0  0  0  0  0  0  0  0
    1.4862   22.9954   35.5637 C   0  0  0  0  0  0  0  0  0  0  0  0
   -0.8155   26.7718   33.0177 C   0  0  2  0  0  0  0  0  0  0  0  0
    1.8273   19.0778   37.0389 C   0  0  0  0  0  0  0  0  0  0  0  0
    2.4269   22.2644   36.0020 C   0  0  0  0  0  0  0  0  0  0  0  0
   -3.1044   14.8274   39.5295 O   0  0  0  0  0  0  0  0  0  0  0  0
    0.1385   17.1024   36.3737 C   0  0  0  0  0  0  0  0  0  0  0  0
    2.2300   22.1462   38.4958 C   0  0  0  0  0  0  0  0  0  0  0  0
   -0.8233   25.6808   34.0501 C   0  0  0  0  0  0  0  0  0  0  0  0
   -0.1457   24.8067   34.8117 C   0  0  0  0  0  0  0  0  0  0  0  0
    2.8631   21.9873   37.3623 C   0  0  0  0  0  0  0  0  0  0  0  0
    5.3801   22.1090   39.7195 C   0  0  0  0  0  0  0  0  0  0  0  0
    1.8660   24.4716   33.1984 S   0  0  0  0  0  0  0  0  0  0  0  0
   -1.0435   17.1446   36.0079 O   0  0  0  0  0  0  0  0  0  0  0  0
   -0.9641   15.6567   38.8384 C   0  0  0  0  0  0  0  0  0  0  0  0
    0.9032   18.0160   37.3865 C   0  0  0  0  0  0  0  0  0  0  0  0
   -1.0557   26.9315   31.6271 C   0  0  0  0  0  0  0  0  0  0  0  0
    0.2495   26.2918   31.9892 C   0  0  2  0  0  0  0  0  0  0  0  0
   -1.8993   14.8022   39.7596 C   0  0  0  0  0  0  0  0  0  0  0  0
    0.8036   15.6537   34.9940 H   0  0  0  0  0  0  0  0  0  0  0  0
    2.0933   16.4410   35.9426 H   0  0  0  0  0  0  0  0  0  0  0  0
    0.9912   24.3956   31.1039 H   0  0  0  0  0  0  0  0  0  0  0  0
   -0.2370   24.1837   32.4275 H   0  0  0  0  0  0  0  0  0  0  0  0
    1.4616   18.4304   39.4476 H   0  0  0  0  0  0  0  0  0  0  0  0
    0.1163   16.5624   40.4794 H   0  0  0  0  0  0  0  0  0  0  0  0
    0.3341   22.9889   34.2091 H   0  0  0  0  0  0  0  0  0  0  0  0
    4.7219   21.6596   36.5012 H   0  0  0  0  0  0  0  0  0  0  0  0
    4.3353   20.7141   37.9356 H   0  0  0  0  0  0  0  0  0  0  0  0
    6.2433   22.3491   37.8454 H   0  0  0  0  0  0  0  0  0  0  0  0
    4.7703   23.4213   38.2916 H   0  0  0  0  0  0  0  0  0  0  0  0
    1.4131   23.6819   36.4200 H   0  0  0  0  0  0  0  0  0  0  0  0
    1.1244   22.1316   34.9868 H   0  0  0  0  0  0  0  0  0  0  0  0
   -1.2104   27.4859   33.7553 H   0  0  0  0  0  0  0  0  0  0  0  0
    2.3015   19.4649   37.9528 H   0  0  0  0  0  0  0  0  0  0  0  0
    2.6007   18.6841   36.3630 H   0  0  0  0  0  0  0  0  0  0  0  0
    1.2807   19.8899   36.5372 H   0  0  0  0  0  0  0  0  0  0  0  0
    2.2026   21.2698   35.5891 H   0  0  0  0  0  0  0  0  0  0  0  0
    3.2568   22.9316   35.7266 H   0  0  0  0  0  0  0  0  0  0  0  0
    2.7222   21.8797   39.4427 H   0  0  0  0  0  0  0  0  0  0  0  0
    1.2055   22.5464   38.5021 H   0  0  0  0  0  0  0  0  0  0  0  0
   -1.3727   26.2059   34.8454 H   0  0  0  0  0  0  0  0  0  0  0  0
   -0.8371   24.9374   33.2394 H   0  0  0  0  0  0  0  0  0  0  0  0
   -0.9380   24.1770   35.2428 H   0  0  0  0  0  0  0  0  0  0  0  0
    0.4970   25.5526   35.3021 H   0  0  0  0  0  0  0  0  0  0  0  0
    5.5605   23.0352   40.2849 H   0  0  0  0  0  0  0  0  0  0  0  0
    4.4572   21.6323   40.0814 H   0  0  0  0  0  0  0  0  0  0  0  0
    6.2275   21.4221   39.8612 H   0  0  0  0  0  0  0  0  0  0  0  0
   -1.0178   15.5165   37.7487 H   0  0  0  0  0  0  0  0  0  0  0  0
   -1.8355   26.3249   31.1433 H   0  0  0  0  0  0  0  0  0  0  0  0
   -1.3196   27.7997   31.0054 H   0  0  0  0  0  0  0  0  0  0  0  0
    1.2673   26.4717   31.6126 H   0  0  0  0  0  0  0  0  0  0  0  0
  1 14  1  0
  2 20  1  0
  3  4  1  0
  5 17  1  0
  5  9  1  0
  6  8  1  0
  8 19  1  0
  9 12  1  0
 10 24  1  0
 10 16  1  0
 11 23  1  0
 12 18  1  0
 13 26  2  0
 14 23  1  0
 16 17  1  0
 18  6  1  0
 18 15  2  3
 20  5  1  0
 21 14  2  0
 22  4  2  3
 22 26  1  0
 23  3  2  3
 25 24  1  0
 25  2  1  0
 25 10  1  0
 26  7  1  0
  1 27  1  0
  1 28  1  0
  2 29  1  0
  2 30  1  0
  3 31  1  0
  4 32  1  0
  5 33  1  6
  6 34  1  0
  6 35  1  0
  8 36  1  0
  8 37  1  0
  9 38  1  0
  9 39  1  0
 10 40  1  1
 11 41  1  0
 11 42  1  0
 11 43  1  0
 12 44  1  0
 12 45  1  0
 15 46  1  0
 15 47  1  0
 16 48  1  0
 16 49  1  0
 17 50  1  0
 17 51  1  0
 19 52  1  0
 19 53  1  0
 19 54  1  0
 22 55  1  0
 24 56  1  0
 24 57  1  0
 25 58  1  1
M  CHG  2   6   1   7  -1
M  END
>  <mol_id>  (2) 
2026-09-18-6fnk-s0-n100-0002

>  <rmsd_to_ref>  (2) 


$$$$

     RDKit          3D

 52 54  0  0  0  0  0  0  0  0999 V2000
    2.8111   17.8593   36.8346 N   0  0  0  0  0  0  0  0  0  0  0  0
    2.4557   24.2681   33.4815 C   0  0  0  0  0  0  0  0  0  0  0  0
    3.2218   23.3741   34.4919 C   0  0  0  0  0  0  0  0  0  0  0  0
    2.5075   18.8231   37.5258 C   0  0  2  0  0  0  0  0  0  0  0  0
   -0.1225   26.9067   32.5592 C   0  0  2  0  0  0  0  0  0  0  0  0
    1.5555   14.3367   36.4303 S   0  0  0  0  0  0  0  0  0  0  0  0
    3.4152   17.1149   35.6346 C   0  0  0  0  0  0  0  0  0  0  0  0
    1.1862   16.0697   36.0337 N   0  0  0  0  0  0  0  0  0  0  0  0
    2.3598   19.5634   41.1609 C   0  0  0  0  0  0  0  0  0  0  0  0
    2.3993   15.9915   35.3178 C   0  0  2  0  0  0  0  0  0  0  0  0
    2.8657   23.1579   35.9974 C   0  0  0  0  0  0  0  0  0  0  0  0
    2.4865   19.0942   36.4307 O   0  0  0  0  0  0  0  0  0  0  0  0
    2.6309   20.7627   38.7584 C   0  0  0  0  0  0  0  0  0  0  0  0
    1.9893   21.4738   39.7603 C   0  0  0  0  0  0  0  0  0  0  0  0
    1.5459   26.4685   32.1429 S   0  0  0  0  0  0  0  0  0  0  0  0
   -0.4570   26.5686   33.6952 C   0  0  0  0  0  0  0  0  0  0  0  0
    2.4563   18.6859   39.9895 C   0  0  0  0  0  0  0  0  0  0  0  0
   -0.1073   25.9193   34.3960 C   0  0  0  0  0  0  0  0  0  0  0  0
    2.1909   21.9230   36.5341 C   0  0  0  0  0  0  0  0  0  0  0  0
    2.9317   21.2362   37.5782 O   0  0  0  0  0  0  0  0  0  0  0  0
    4.2338   17.3621   34.9131 O   0  0  0  0  0  0  0  0  0  0  0  0
    1.5624   25.3181   33.0566 C   0  0  0  0  0  0  0  0  0  0  0  0
    2.6390   19.1980   42.4402 O   0  0  0  0  0  0  0  0  0  0  0  0
    1.8096   20.8282   40.9895 C   0  0  0  0  0  0  0  0  0  0  0  0
   -1.0767   27.1485   31.4047 C   0  0  0  0  0  0  0  0  0  0  0  0
    2.9433   14.6364   35.2655 C   0  0  0  0  0  0  0  0  0  0  0  0
    1.6091   18.8002   43.3738 C   0  0  0  0  0  0  0  0  0  0  0  0
    2.4877   19.2667   38.7822 C   0  0  0  0  0  0  0  0  0  0  0  0
    4.1039   22.8392   34.1100 H   0  0  0  0  0  0  0  0  0  0  0  0
    2.1530   19.1770   38.5051 H   0  0  0  0  0  0  0  0  0  0  0  0
   -0.2397   27.9788   32.7757 H   0  0  0  0  0  0  0  0  0  0  0  0
    0.3428   16.2251   35.4633 H   0  0  0  0  0  0  0  0  0  0  0  0
    2.1384   16.2169   34.2732 H   0  0  0  0  0  0  0  0  0  0  0  0
    3.8171   23.2390   36.5435 H   0  0  0  0  0  0  0  0  0  0  0  0
    2.0714   23.9064   36.1340 H   0  0  0  0  0  0  0  0  0  0  0  0
    1.6361   22.5026   39.5965 H   0  0  0  0  0  0  0  0  0  0  0  0
   -1.3572   27.1005   34.0368 H   0  0  0  0  0  0  0  0  0  0  0  0
    2.5012   17.5922   40.0979 H   0  0  0  0  0  0  0  0  0  0  0  0
   -0.6268   25.8187   35.3605 H   0  0  0  0  0  0  0  0  0  0  0  0
    0.7902   25.3178   34.1894 H   0  0  0  0  0  0  0  0  0  0  0  0
    1.2129   22.2164   36.9433 H   0  0  0  0  0  0  0  0  0  0  0  0
    2.1120   21.2191   35.6925 H   0  0  0  0  0  0  0  0  0  0  0  0
    0.5970   25.2306   33.5765 H   0  0  0  0  0  0  0  0  0  0  0  0
    1.2457   21.3110   41.8013 H   0  0  0  0  0  0  0  0  0  0  0  0
   -2.0951   27.2925   31.7947 H   0  0  0  0  0  0  0  0  0  0  0  0
   -0.7646   28.0477   30.8533 H   0  0  0  0  0  0  0  0  0  0  0  0
   -1.0621   26.2805   30.7291 H   0  0  0  0  0  0  0  0  0  0  0  0
    2.8753   14.1268   34.2931 H   0  0  0  0  0  0  0  0  0  0  0  0
    3.9939   14.3708   35.4544 H   0  0  0  0  0  0  0  0  0  0  0  0
    2.0174   18.8076   44.3952 H   0  0  0  0  0  0  0  0  0  0  0  0
    0.7656   19.5035   43.3110 H   0  0  0  0  0  0  0  0  0  0  0  0
    1.2607   17.7868   43.1256 H   0  0  0  0  0  0  0  0  0  0  0  0
  1  4  1  0
  2  3  2  0
  3 11  1  0
  4 28  1  0
  5 25  1  0
  5 16  1  0
  7  1  1  0
  8  6  1  0
  9 23  1  0
 10 26  1  0
 10  7  1  0
 10  8  1  0
 11 19  1  0
 12  1  1  0
 12  4  1  0
 13 28  2  0
 13 14  1  0
 14 24  2  0
 15  5  1  0
 15 22  1  0
 16 18  2  3
 17  9  2  0
 19 20  1  0
 20 13  1  0
 21  7  2  0
 22  2  2  0
 23 27  1  0
 24  9  1  0
 26  6  1  0
 28 17  1  0
  3 29  1  0
  4 30  1  1
  5 31  1  1
  8 32  1  0
 10 33  1  6
 11 34  1  0
 11 35  1  0
 14 36  1  0
 16 37  1  0
 17 38  1  0
 18 39  1  0
 18 40  1  0
 19 41  1  0
 19 42  1  0
 22 43  1  0
 24 44  1  0
 25 45  1  0
 25 46  1  0
 25 47  1  0
 26 48  1  0
 26 49  1  0
 27 50  1  0
 27 51  1  0
 27 52  1  0
M  END
>  <mol_id>  (3) 
2026-09-18-6fnk-s0-n100-0003

>  <rmsd_to_ref>  (3) 


$$$$

     RDKit          3D

 63 65  0  0  0  0  0  0  0  0999 V2000
    2.6001   21.3424   40.3383 O   0  0  0  0  0  0  0  0  0  0  0  0
    0.6413   18.4656   39.7024 C   0  0  1  0  0  0  0  0  0  0  0  0
    2.2975   18.7571   41.5660 C   0  0  0  0  0  0  0  0  0  0  0  0
    1.8176   17.3608   42.0937 C   0  0  0  0  0  0  0  0  0  0  0  0
    1.6904   19.1777   40.3288 C   0  0  2  0  0  0  0  0  0  0  0  0
    0.3886   18.7543   38.3849 O   0  0  0  0  0  0  0  0  0  0  0  0
   -0.9040   30.6685   35.8898 C   0  0  0  0  0  0  0  0  0  0  0  0
    1.3570   24.3304   35.3184 C   0  0  0  0  0  0  0  0  0  0  0  0
    2.0079   26.4177   32.3134 C   0  0  1  0  0  0  0  0  0  0  0  0
   -0.0428   17.5489   40.5062 C   0  0  0  0  0  0  0  0  0  0  0  0
    2.1232   20.4432   39.6846 C   0  0  0  0  0  0  0  0  0  0  0  0
    0.0268   27.2284   33.9008 C   0  0  0  0  0  0  0  0  0  0  0  0
    1.8067   22.2365   36.5788 C   0  0  0  0  0  0  0  0  0  0  0  0
    2.0646   25.5020   34.7638 C   0  0  0  0  0  0  0  0  0  0  0  0
    0.2455   17.6694   37.4369 C   0  0  0  0  0  0  0  0  0  0  0  0
    4.1623   21.6692   37.5186 C   0  0  0  0  0  0  0  0  0  0  0  0
    2.5387   25.2847   33.3246 C   0  0  0  0  0  0  0  0  0  0  0  0
    2.1454   23.0495   35.4024 C   0  0  0  0  0  0  0  0  0  0  0  0
    0.7084   26.6096   31.5848 C   0  0  0  0  0  0  0  0  0  0  0  0
    1.0918   27.3957   32.8614 C   0  0  2  0  0  0  0  0  0  0  0  0
    2.6158   21.5178   37.5019 C   0  0  0  0  0  0  0  0  0  0  0  0
    0.4879   16.9032   41.6172 C   0  0  0  0  0  0  0  0  0  0  0  0
    2.0128   20.5253   38.3065 N   0  0  0  0  0  0  0  0  0  0  0  0
    0.7583   29.7419   33.9538 N   0  0  0  0  0  0  0  0  0  0  0  0
   -0.0730   30.2808   34.9028 C   0  0  0  0  0  0  0  0  0  0  0  0
    0.4612   28.4871   33.4024 C   0  0  2  0  0  0  0  0  0  0  0  0
   -0.0580   19.2571   40.0100 H   0  0  0  0  0  0  0  0  0  0  0  0
    2.0669   19.5105   42.3335 H   0  0  0  0  0  0  0  0  0  0  0  0
    3.3742   18.6580   41.3640 H   0  0  0  0  0  0  0  0  0  0  0  0
    2.5612   16.6114   41.7849 H   0  0  0  0  0  0  0  0  0  0  0  0
    1.7172   17.4757   43.1831 H   0  0  0  0  0  0  0  0  0  0  0  0
    2.4260   18.6210   39.7296 H   0  0  0  0  0  0  0  0  0  0  0  0
   -0.3947   30.5659   36.8594 H   0  0  0  0  0  0  0  0  0  0  0  0
   -1.1912   31.7191   35.7358 H   0  0  0  0  0  0  0  0  0  0  0  0
   -1.8046   30.0369   35.8801 H   0  0  0  0  0  0  0  0  0  0  0  0
    0.4771   24.1408   34.6862 H   0  0  0  0  0  0  0  0  0  0  0  0
    1.1215   24.5973   36.3592 H   0  0  0  0  0  0  0  0  0  0  0  0
    3.0092   26.3329   31.8658 H   0  0  0  0  0  0  0  0  0  0  0  0
   -1.0848   17.3201   40.2380 H   0  0  0  0  0  0  0  0  0  0  0  0
   -0.9622   26.8295   33.6313 H   0  0  0  0  0  0  0  0  0  0  0  0
   -0.0628   26.7447   34.8846 H   0  0  0  0  0  0  0  0  0  0  0  0
    0.7278   22.1719   36.7834 H   0  0  0  0  0  0  0  0  0  0  0  0
    1.3828   26.3650   34.7823 H   0  0  0  0  0  0  0  0  0  0  0  0
    2.9573   25.6725   35.3835 H   0  0  0  0  0  0  0  0  0  0  0  0
    0.5695   16.7282   37.9050 H   0  0  0  0  0  0  0  0  0  0  0  0
   -0.8084   17.5842   37.1334 H   0  0  0  0  0  0  0  0  0  0  0  0
    0.8667   17.8715   36.5519 H   0  0  0  0  0  0  0  0  0  0  0  0
    4.5240   21.6234   38.5565 H   0  0  0  0  0  0  0  0  0  0  0  0
    4.6169   20.8547   36.9356 H   0  0  0  0  0  0  0  0  0  0  0  0
    4.4408   22.6368   37.0757 H   0  0  0  0  0  0  0  0  0  0  0  0
    2.1737   24.3064   32.9786 H   0  0  0  0  0  0  0  0  0  0  0  0
    3.6377   25.3335   33.3279 H   0  0  0  0  0  0  0  0  0  0  0  0
    1.9453   22.4561   34.4982 H   0  0  0  0  0  0  0  0  0  0  0  0
    3.2068   23.3245   35.4903 H   0  0  0  0  0  0  0  0  0  0  0  0
    0.6852   27.1105   30.6057 H   0  0  0  0  0  0  0  0  0  0  0  0
   -0.1270   25.9701   31.2634 H   0  0  0  0  0  0  0  0  0  0  0  0
   -0.0536   16.0890   42.1211 H   0  0  0  0  0  0  0  0  0  0  0  0
    1.4473   19.8074   37.8315 H   0  0  0  0  0  0  0  0  0  0  0  0
    0.7926   30.4113   33.1718 H   0  0  0  0  0  0  0  0  0  0  0  0
    1.6349   29.5765   34.4685 H   0  0  0  0  0  0  0  0  0  0  0  0
    0.6931   31.0064   35.2138 H   0  0  0  0  0  0  0  0  0  0  0  0
   -0.9361   30.1138   34.2417 H   0  0  0  0  0  0  0  0  0  0  0  0
    0.0305   29.4120   32.9913 H   0  0  0  0  0  0  0  0  0  0  0  0
  2  6  1  0
  2 10  1  0
  2  5  1  0
  3  4  1  0
  5 11  1  0
  5  3  1  0
  8 18  1  0
  9 20  1  0
  9 17  1  0
 10 22  2  0
 11  1  2  0
 13 21  2  3
 14  8  1  0
 15  6  1  0
 17 14  1  0
 18 13  1  0
 19  9  1  0
 20 19  1  6
 20 26  1  0
 20 12  1  0
 21 16  1  0
 21 23  1  0
 22  4  1  0
 23 11  1  0
 24 25  1  0
 25  7  1  0
 26 12  1  0
 26 24  1  0
  2 27  1  1
  3 28  1  0
  3 29  1  0
  4 30  1  0
  4 31  1  0
  5 32  1  6
  7 33  1  0
  7 34  1  0
  7 35  1  0
  8 36  1  0
  8 37  1  0
  9 38  1  6
 10 39  1  0
 12 40  1  0
 12 41  1  0
 13 42  1  0
 14 43  1  0
 14 44  1  0
 15 45  1  0
 15 46  1  0
 15 47  1  0
 16 48  1  0
 16 49  1  0
 16 50  1  0
 17 51  1  0
 17 52  1  0
 18 53  1  0
 18 54  1  0
 19 55  1  0
 19 56  1  0
 22 57  1  0
 23 58  1  0
 24 59  1  0
 24 60  1  0
 25 61  1  0
 25 62  1  0
 26 63  1  6
M  CHG  1  24   1
M  END
>  <mol_id>  (4) 
2026-09-18-6fnk-s0-n100-0004

>  <rmsd_to_ref>  (4) 


$$$$

     RDKit          3D

 42 41  0  0  0  0  0  0  0  0999 V2000
    3.7915   23.3330   35.1690 C   0  0  0  0  0  0  0  0  0  0  0  0
    2.3008   22.6166   35.5279 C   0  0  0  0  0  0  0  0  0  0  0  0
    1.3891   19.9600   39.8578 C   0  0  0  0  0  0  0  0  0  0  0  0
    2.6948   21.9851   36.8853 C   0  0  1  0  0  0  0  0  0  0  0  0
    6.1642   21.5097   37.2855 C   0  0  0  0  0  0  0  0  0  0  0  0
    1.4667   18.9541   43.4186 N   0  0  0  0  0  0  0  0  0  0  0  0
    1.6548   19.5725   42.2286 C   0  0  1  0  0  0  0  0  0  0  0  0
    5.3813   23.0817   35.5857 C   0  0  0  0  0  0  0  0  0  0  0  0
    2.1734   20.6306   41.8671 N   0  0  0  0  0  0  0  0  0  0  0  0
    1.5662   20.8590   36.6287 O   0  0  0  0  0  0  0  0  0  0  0  0
    0.1596   22.0178   38.0553 O   0  0  0  0  0  0  0  0  0  0  0  0
    1.1952   18.5592   40.7519 S   0  0  0  0  0  0  0  0  0  0  0  0
    6.2869   22.0952   36.0271 C   0  0  0  0  0  0  0  0  0  0  0  0
    3.7156   21.2913   37.7814 C   0  0  0  0  0  0  0  0  0  0  0  0
    0.7817   21.1159   37.5079 C   0  0  0  0  0  0  0  0  0  0  0  0
    1.8495   21.0491   40.6008 C   0  0  0  0  0  0  0  0  0  0  0  0
    0.0906   19.9479   37.4957 F   0  0  0  0  0  0  0  0  0  0  0  0
    3.8236   23.2727   34.0711 H   0  0  0  0  0  0  0  0  0  0  0  0
    3.6535   24.1643   35.8760 H   0  0  0  0  0  0  0  0  0  0  0  0
    1.4948   23.3581   35.6303 H   0  0  0  0  0  0  0  0  0  0  0  0
    1.8985   21.9277   34.7705 H   0  0  0  0  0  0  0  0  0  0  0  0
    0.4166   20.2272   39.4186 H   0  0  0  0  0  0  0  0  0  0  0  0
    2.1541   19.7480   39.0963 H   0  0  0  0  0  0  0  0  0  0  0  0
    3.0367   22.8807   37.4246 H   0  0  0  0  0  0  0  0  0  0  0  0
    6.9663   21.8790   37.9415 H   0  0  0  0  0  0  0  0  0  0  0  0
    5.1872   21.7712   37.7180 H   0  0  0  0  0  0  0  0  0  0  0  0
    6.2424   20.4165   37.1905 H   0  0  0  0  0  0  0  0  0  0  0  0
    2.1883   19.2647   44.0848 H   0  0  0  0  0  0  0  0  0  0  0  0
    0.5346   19.1930   43.7861 H   0  0  0  0  0  0  0  0  0  0  0  0
    1.5341   17.9344   43.2901 H   0  0  0  0  0  0  0  0  0  0  0  0
    0.6882   20.0850   42.3421 H   0  0  0  0  0  0  0  0  0  0  0  0
    5.8863   23.4239   34.6704 H   0  0  0  0  0  0  0  0  0  0  0  0
    5.1863   23.4007   36.6203 H   0  0  0  0  0  0  0  0  0  0  0  0
    1.8846   21.3665   42.5272 H   0  0  0  0  0  0  0  0  0  0  0  0
    3.1884   20.4563   41.8545 H   0  0  0  0  0  0  0  0  0  0  0  0
    6.2342   21.2751   35.2960 H   0  0  0  0  0  0  0  0  0  0  0  0
    7.2274   22.6586   36.1173 H   0  0  0  0  0  0  0  0  0  0  0  0
    3.5037   21.5322   38.8336 H   0  0  0  0  0  0  0  0  0  0  0  0
    3.6528   20.2029   37.6347 H   0  0  0  0  0  0  0  0  0  0  0  0
    4.7268   21.6383   37.5224 H   0  0  0  0  0  0  0  0  0  0  0  0
    2.7403   21.4747   40.1154 H   0  0  0  0  0  0  0  0  0  0  0  0
    1.0629   21.8160   40.6563 H   0  0  0  0  0  0  0  0  0  0  0  0
  1  2  1  0
  1  8  1  0
  2  4  1  0
  3 16  1  0
  3 12  1  0
  4 14  1  0
  7  6  1  0
  8 13  1  0
  9  7  1  0
 10  4  1  0
 10 15  1  0
 12  7  1  0
 13  5  1  0
 15 11  2  0
 16  9  1  0
 17 15  1  0
  1 18  1  0
  1 19  1  0
  2 20  1  0
  2 21  1  0
  3 22  1  0
  3 23  1  0
  4 24  1  1
  5 25  1  0
  5 26  1  0
  5 27  1  0
  6 28  1  0
  6 29  1  0
  6 30  1  0
  7 31  1  1
  8 32  1  0
  8 33  1  0
  9 34  1  0
  9 35  1  0
 13 36  1  0
 13 37  1  0
 14 38  1  0
 14 39  1  0
 14 40  1  0
 16 41  1  0
 16 42  1  0
M  CHG  2   6   1   9   1
M  END
>  <mol_id>  (5) 
2026-09-18-6fnk-s0-n100-0005

>  <rmsd_to_ref>  (5) 


$$$$

     RDKit          3D

 53 56  0  0  0  0  0  0  0  0999 V2000
    1.4967   17.8352   38.3976 C   0  0  0  0  0  0  0  0  0  0  0  0
    0.2512   16.2400   40.7460 N   0  0  0  0  0  0  0  0  0  0  0  0
    1.7190   26.0532   31.8229 C   0  0  0  0  0  0  0  0  0  0  0  0
    2.4739   21.5627   37.8631 C   0  0  0  0  0  0  0  0  0  0  0  0
    2.5080   24.5565   33.7614 C   0  0  0  0  0  0  0  0  0  0  0  0
    0.1463   15.1161   41.5161 C   0  0  0  0  0  0  0  0  0  0  0  0
    4.3556   19.7780   41.8181 F   0  0  0  0  0  0  0  0  0  0  0  0
    0.2574   24.6865   35.0602 C   0  0  2  0  0  0  0  0  0  0  0  0
   -1.0473   14.5505   41.2742 N   0  0  0  0  0  0  0  0  0  0  0  0
    1.4539   23.6976   34.6190 S   0  0  2  0  0  4  0  0  0  0  0  0
    1.8244   17.9833   39.8276 C   0  0  0  0  0  0  0  0  0  0  0  0
   -0.8463   16.3288   40.0164 C   0  0  0  0  0  0  0  0  0  0  0  0
    2.4098   20.1487   37.5797 C   0  0  0  0  0  0  0  0  0  0  0  0
    3.3401   19.0028   41.4796 C   0  0  0  0  0  0  0  0  0  0  0  0
    1.4850   24.3067   37.6816 S   0  0  0  0  0  0  0  0  0  0  0  0
    2.0330   22.7154   37.0184 C   0  0  2  0  0  0  0  0  0  0  0  0
    1.2927   17.1710   40.8682 C   0  0  0  0  0  0  0  0  0  0  0  0
    2.8848   18.8960   40.1812 C   0  0  0  0  0  0  0  0  0  0  0  0
    1.8704   18.9964   37.5943 N   0  0  0  0  0  0  0  0  0  0  0  0
    0.1982   25.6219   33.8981 C   0  0  0  0  0  0  0  0  0  0  0  0
    2.1739   22.6786   35.6455 C   0  0  0  0  0  0  0  0  0  0  0  0
    0.4414   25.1402   36.5154 C   0  0  0  0  0  0  0  0  0  0  0  0
    0.8234   16.9453   37.8713 O   0  0  0  0  0  0  0  0  0  0  0  0
    1.7590   17.3447   42.2641 C   0  0  0  0  0  0  0  0  0  0  0  0
    2.7351   18.2530   42.5222 C   0  0  0  0  0  0  0  0  0  0  0  0
   -1.6554   15.3249   40.3105 C   0  0  0  0  0  0  0  0  0  0  0  0
    1.3584   25.2296   33.0702 C   0  0  1  0  0  0  0  0  0  0  0  0
    2.5178   26.7669   32.0730 H   0  0  0  0  0  0  0  0  0  0  0  0
    2.0660   25.3790   31.0260 H   0  0  0  0  0  0  0  0  0  0  0  0
    0.8311   26.6029   31.4772 H   0  0  0  0  0  0  0  0  0  0  0  0
    1.9090   21.6791   38.7997 H   0  0  0  0  0  0  0  0  0  0  0  0
    3.5600   21.6939   37.7480 H   0  0  0  0  0  0  0  0  0  0  0  0
    3.1350   25.2331   34.3607 H   0  0  0  0  0  0  0  0  0  0  0  0
    3.3035   24.0623   33.1845 H   0  0  0  0  0  0  0  0  0  0  0  0
    0.9085   14.7396   42.2141 H   0  0  0  0  0  0  0  0  0  0  0  0
   -0.7649   24.3016   35.1896 H   0  0  0  0  0  0  0  0  0  0  0  0
    0.7810   22.7321   33.9176 H   0  0  0  0  0  0  0  0  0  0  0  0
   -1.0552   17.1166   39.2777 H   0  0  0  0  0  0  0  0  0  0  0  0
    2.5624   20.2174   36.4925 H   0  0  0  0  0  0  0  0  0  0  0  0
    2.7298   19.9676   38.6164 H   0  0  0  0  0  0  0  0  0  0  0  0
    3.0680   23.0862   36.9840 H   0  0  0  0  0  0  0  0  0  0  0  0
    3.3403   19.5204   39.3985 H   0  0  0  0  0  0  0  0  0  0  0  0
    1.5692   18.7983   36.6295 H   0  0  0  0  0  0  0  0  0  0  0  0
   -0.7417   25.4954   33.3406 H   0  0  0  0  0  0  0  0  0  0  0  0
    0.2296   26.6790   34.2008 H   0  0  0  0  0  0  0  0  0  0  0  0
    1.8451   21.6737   35.3423 H   0  0  0  0  0  0  0  0  0  0  0  0
    3.2221   22.9958   35.5421 H   0  0  0  0  0  0  0  0  0  0  0  0
    0.8168   26.1728   36.4621 H   0  0  0  0  0  0  0  0  0  0  0  0
   -0.5544   24.9274   36.9317 H   0  0  0  0  0  0  0  0  0  0  0  0
    1.3216   16.7477   43.0779 H   0  0  0  0  0  0  0  0  0  0  0  0
    3.0635   18.4108   43.5601 H   0  0  0  0  0  0  0  0  0  0  0  0
   -2.6432   15.1402   39.8630 H   0  0  0  0  0  0  0  0  0  0  0  0
    0.8464   24.3925   32.5731 H   0  0  0  0  0  0  0  0  0  0  0  0
  1 11  1  0
  2 17  1  0
  2  6  1  0
  8 20  1  0
  8 22  1  0
  9  6  2  0
 10  5  1  0
 10  8  1  0
 10 21  1  0
 11 18  1  0
 11 17  2  0
 12 26  2  0
 12  2  1  0
 13  4  1  0
 14  7  1  0
 14 25  1  0
 16 15  1  0
 16  4  1  0
 17 24  1  0
 18 14  2  0
 19 13  1  0
 19  1  1  0
 21 16  1  0
 22 15  1  0
 23  1  2  0
 24 25  2  0
 26  9  1  0
 27  3  1  0
 27 20  1  0
 27  5  1  0
  3 28  1  0
  3 29  1  0
  3 30  1  0
  4 31  1  0
  4 32  1  0
  5 33  1  0
  5 34  1  0
  6 35  1  0
  8 36  1  1
 10 37  1  6
 12 38  1  0
 13 39  1  0
 13 40  1  0
 16 41  1  6
 18 42  1  0
 19 43  1  0
 20 44  1  0
 20 45  1  0
 21 46  1  0
 21 47  1  0
 22 48  1  0
 22 49  1  0
 24 50  1  0
 25 51  1  0
 26 52  1  0
 27 53  1  6
M  END
>  <mol_id>  (6) 
2026-09-18-6fnk-s0-n100-0006

>  <rmsd_to_ref>  (6) 


$$$$

     RDKit          3D

 65 65  0  0  0  0  0  0  0  0999 V2000
    0.6443   17.3629   38.5437 N   0  0  0  0  0  0  0  0  0  0  0  0
    5.1463   23.1708   35.6028 C   0  0  0  0  0  0  0  0  0  0  0  0
    5.1562   20.0812   38.1727 C   0  0  0  0  0  0  0  0  0  0  0  0
    6.1274   23.0095   35.1720 O   0  0  0  0  0  0  0  0  0  0  0  0
    2.5911   17.5342   41.6578 C   0  0  0  0  0  0  0  0  0  0  0  0
   -3.5915   14.8381   38.9654 O   0  0  0  0  0  0  0  0  0  0  0  0
    5.6433   21.5605   37.6023 C   0  0  2  0  0  0  0  0  0  0  0  0
    4.0586   23.6701   34.7958 C   0  0  2  0  0  0  0  0  0  0  0  0
    2.7100   18.7491   40.7908 C   0  0  0  0  0  0  0  0  0  0  0  0
    2.0455   18.0131   38.1083 C   0  0  0  0  0  0  0  0  0  0  0  0
    7.0558   21.9257   38.0987 C   0  0  0  0  0  0  0  0  0  0  0  0
   -2.2732   14.9799   39.0627 C   0  0  2  0  0  0  0  0  0  0  0  0
    4.3236   24.9304   33.7203 C   0  0  0  0  0  0  0  0  0  0  0  0
    3.5865   20.2905   38.7612 S   0  0  0  0  0  0  0  0  0  0  0  0
    0.5708   17.4166   35.7585 C   0  0  0  0  0  0  0  0  0  0  0  0
    3.5345   24.9983   32.4944 C   0  0  0  0  0  0  0  0  0  0  0  0
   -1.5954   15.6132   40.2526 C   0  0  0  0  0  0  0  0  0  0  0  0
    2.7446   18.8286   39.2233 C   0  0  1  0  0  0  0  0  0  0  0  0
   -1.4362   16.1829   38.2620 C   0  0  0  0  0  0  0  0  0  0  0  0
    3.3289   25.9605   33.7177 C   0  0  0  0  0  0  0  0  0  0  0  0
    2.7931   23.6966   35.5625 C   0  0  0  0  0  0  0  0  0  0  0  0
   -0.2502   16.6612   37.7570 C   0  0  1  0  0  0  0  0  0  0  0  0
    7.9899   20.6919   38.0674 C   0  0  0  0  0  0  0  0  0  0  0  0
   -0.4669   17.0742   36.4862 O   0  0  0  0  0  0  0  0  0  0  0  0
    4.7068   22.4786   36.9580 C   0  0  0  0  0  0  0  0  0  0  0  0
    0.8840   16.7146   39.3073 H   0  0  0  0  0  0  0  0  0  0  0  0
    0.1007   18.2299   38.6609 H   0  0  0  0  0  0  0  0  0  0  0  0
    5.8239   19.7462   38.9803 H   0  0  0  0  0  0  0  0  0  0  0  0
    5.1869   19.3185   37.3807 H   0  0  0  0  0  0  0  0  0  0  0  0
    2.6364   17.8327   42.7155 H   0  0  0  0  0  0  0  0  0  0  0  0
    1.6319   17.0340   41.4587 H   0  0  0  0  0  0  0  0  0  0  0  0
    3.4179   16.8432   41.4361 H   0  0  0  0  0  0  0  0  0  0  0  0
   -3.9756   14.6965   39.8668 H   0  0  0  0  0  0  0  0  0  0  0  0
    5.7305   21.6894   36.5134 H   0  0  0  0  0  0  0  0  0  0  0  0
    3.9573   22.9075   34.0097 H   0  0  0  0  0  0  0  0  0  0  0  0
    1.8571   19.3803   41.0809 H   0  0  0  0  0  0  0  0  0  0  0  0
    3.7659   18.9862   40.9883 H   0  0  0  0  0  0  0  0  0  0  0  0
    2.7210   17.2012   37.8005 H   0  0  0  0  0  0  0  0  0  0  0  0
    1.8252   18.7186   37.2936 H   0  0  0  0  0  0  0  0  0  0  0  0
    7.4736   22.7099   37.4504 H   0  0  0  0  0  0  0  0  0  0  0  0
    6.9815   22.2832   39.1364 H   0  0  0  0  0  0  0  0  0  0  0  0
   -2.2305   13.9084   38.8180 H   0  0  0  0  0  0  0  0  0  0  0  0
    5.4122   24.9189   33.8772 H   0  0  0  0  0  0  0  0  0  0  0  0
    1.4429   17.5677   36.4118 H   0  0  0  0  0  0  0  0  0  0  0  0
    0.7896   16.6187   35.0335 H   0  0  0  0  0  0  0  0  0  0  0  0
    0.3496   18.3502   35.2205 H   0  0  0  0  0  0  0  0  0  0  0  0
    2.7918   24.2207   32.2626 H   0  0  0  0  0  0  0  0  0  0  0  0
    3.7372   25.1057   31.4186 H   0  0  0  0  0  0  0  0  0  0  0  0
   -1.9411   15.1236   41.1749 H   0  0  0  0  0  0  0  0  0  0  0  0
   -0.5058   15.4938   40.1604 H   0  0  0  0  0  0  0  0  0  0  0  0
   -1.8451   16.6838   40.2900 H   0  0  0  0  0  0  0  0  0  0  0  0
    2.7114   17.7307   39.1631 H   0  0  0  0  0  0  0  0  0  0  0  0
   -2.0400   16.2257   37.3434 H   0  0  0  0  0  0  0  0  0  0  0  0
   -1.1841   16.6316   39.2341 H   0  0  0  0  0  0  0  0  0  0  0  0
    3.6243   27.0179   33.6486 H   0  0  0  0  0  0  0  0  0  0  0  0
    2.4864   26.2462   34.3647 H   0  0  0  0  0  0  0  0  0  0  0  0
    3.0099   23.5628   36.6326 H   0  0  0  0  0  0  0  0  0  0  0  0
    2.2911   24.6631   35.4081 H   0  0  0  0  0  0  0  0  0  0  0  0
    2.1379   22.8835   35.2166 H   0  0  0  0  0  0  0  0  0  0  0  0
    0.4414   15.8058   37.7616 H   0  0  0  0  0  0  0  0  0  0  0  0
    8.1710   20.3429   39.0948 H   0  0  0  0  0  0  0  0  0  0  0  0
    7.5160   19.8879   37.4852 H   0  0  0  0  0  0  0  0  0  0  0  0
    8.9466   20.9682   37.6000 H   0  0  0  0  0  0  0  0  0  0  0  0
    4.4899   23.2812   37.6782 H   0  0  0  0  0  0  0  0  0  0  0  0
    3.8551   21.8429   36.6744 H   0  0  0  0  0  0  0  0  0  0  0  0
  2 25  1  0
  3 14  1  0
  4  2  2  0
  6 12  1  0
  7 25  1  0
  7 11  1  0
  7  3  1  0
  8 21  1  0
  8  2  1  0
  9  5  1  0
 10  1  1  0
 11 23  1  0
 12 17  1  0
 13  8  1  0
 14 18  1  0
 15 24  1  0
 16 20  1  0
 16 13  1  0
 18 10  1  0
 18  9  1  0
 19 12  1  0
 20 13  1  0
 22 19  1  0
 22  1  1  0
 24 22  1  0
  1 26  1  0
  1 27  1  0
  3 28  1  0
  3 29  1  0
  5 30  1  0
  5 31  1  0
  5 32  1  0
  6 33  1  0
  7 34  1  6
  8 35  1  6
  9 36  1  0
  9 37  1  0
 10 38  1  0
 10 39  1  0
 11 40  1  0
 11 41  1  0
 12 42  1  6
 13 43  1  0
 15 44  1  0
 15 45  1  0
 15 46  1  0
 16 47  1  0
 16 48  1  0
 17 49  1  0
 17 50  1  0
 17 51  1  0
 18 52  1  6
 19 53  1  0
 19 54  1  0
 20 55  1  0
 20 56  1  0
 21 57  1  0
 21 58  1  0
 21 59  1  0
 22 60  1  6
 23 61  1  0
 23 62  1  0
 23 63  1  0
 25 64  1  0
 25 65  1  0
M  CHG  1   1   1
M  END
>  <mol_id>  (7) 
2026-09-18-6fnk-s0-n100-0007

>  <rmsd_to_ref>  (7) 


$$$$

     RDKit          3D

 48 50  0  0  0  0  0  0  0  0999 V2000
    4.8210   23.2115   35.0484 C   0  0  0  0  0  0  0  0  0  0  0  0
    2.8676   21.1483   38.9725 C   0  0  0  0  0  0  0  0  0  0  0  0
   -0.5098   16.4596   38.3354 C   0  0  0  0  0  0  0  0  0  0  0  0
    1.6610   19.7622   42.5216 C   0  0  0  0  0  0  0  0  0  0  0  0
    0.7350   16.0973   40.2086 C   0  0  0  0  0  0  0  0  0  0  0  0
    2.7152   17.5029   39.9805 C   0  0  0  0  0  0  0  0  0  0  0  0
    1.9217   18.5805   42.7247 O   0  0  0  0  0  0  0  0  0  0  0  0
    2.5240   22.4081   35.5727 C   0  0  0  0  0  0  0  0  0  0  0  0
    2.9808   22.0916   36.8437 C   0  0  0  0  0  0  0  0  0  0  0  0
    1.4361   16.8428   39.4625 C   0  0  0  0  0  0  0  0  0  0  0  0
    3.1494   23.0078   33.2394 C   0  0  0  0  0  0  0  0  0  0  0  0
    0.7661   17.0965   38.4951 C   0  0  0  0  0  0  0  0  0  0  0  0
    5.1799   22.9169   36.3200 C   0  0  0  0  0  0  0  0  0  0  0  0
   -0.2403   15.2649   40.1908 N   0  0  0  0  0  0  0  0  0  0  0  0
   -0.9171   15.4671   39.1711 C   0  0  0  0  0  0  0  0  0  0  0  0
    2.2113   21.5584   37.9146 C   0  0  0  0  0  0  0  0  0  0  0  0
    4.3116   22.1763   37.1761 C   0  0  0  0  0  0  0  0  0  0  0  0
    4.5877   21.5755   38.8574 S   0  0  0  0  0  0  0  0  0  0  0  0
    3.4636   22.8723   34.5759 C   0  0  0  0  0  0  0  0  0  0  0  0
    6.2832   23.2194   36.6419 C   0  0  0  0  0  0  0  0  0  0  0  0
    2.1146   20.5142   41.3498 N   0  0  0  0  0  0  0  0  0  0  0  0
    0.8153   20.4997   43.4434 C   0  0  0  0  0  0  0  0  0  0  0  0
    3.7036   24.1121   32.4654 C   0  0  0  0  0  0  0  0  0  0  0  0
   -2.0587   14.7506   39.1914 O   0  0  0  0  0  0  0  0  0  0  0  0
    3.0814   18.9039   40.2758 N   0  0  0  0  0  0  0  0  0  0  0  0
    2.4283   20.1126   40.0140 C   0  0  2  0  0  0  0  0  0  0  0  0
    7.2969   23.2537   37.1798 O   0  0  0  0  0  0  0  0  0  0  0  0
    5.5363   23.7008   34.3710 H   0  0  0  0  0  0  0  0  0  0  0  0
   -1.2654   17.2557   38.4073 H   0  0  0  0  0  0  0  0  0  0  0  0
   -0.3922   15.9301   37.3785 H   0  0  0  0  0  0  0  0  0  0  0  0
    0.3620   16.8319   40.9373 H   0  0  0  0  0  0  0  0  0  0  0  0
    1.4684   15.2814   40.1286 H   0  0  0  0  0  0  0  0  0  0  0  0
    3.5291   16.7884   40.1727 H   0  0  0  0  0  0  0  0  0  0  0  0
    2.0489   21.5023   35.1681 H   0  0  0  0  0  0  0  0  0  0  0  0
    1.8723   23.2784   35.7403 H   0  0  0  0  0  0  0  0  0  0  0  0
    3.4704   22.0803   32.7427 H   0  0  0  0  0  0  0  0  0  0  0  0
    2.0717   23.2282   33.2556 H   0  0  0  0  0  0  0  0  0  0  0  0
    1.1286   17.8100   37.7405 H   0  0  0  0  0  0  0  0  0  0  0  0
   -0.4302   14.5474   40.9049 H   0  0  0  0  0  0  0  0  0  0  0  0
    1.1148   21.4933   37.8576 H   0  0  0  0  0  0  0  0  0  0  0  0
    2.2293   21.5235   41.5202 H   0  0  0  0  0  0  0  0  0  0  0  0
    1.0743   20.2266   44.4771 H   0  0  0  0  0  0  0  0  0  0  0  0
    0.9702   21.5792   43.2995 H   0  0  0  0  0  0  0  0  0  0  0  0
   -0.2392   20.2518   43.2520 H   0  0  0  0  0  0  0  0  0  0  0  0
    4.1546   24.8479   33.1475 H   0  0  0  0  0  0  0  0  0  0  0  0
    4.4727   23.7289   31.7787 H   0  0  0  0  0  0  0  0  0  0  0  0
    2.9014   24.5927   31.8861 H   0  0  0  0  0  0  0  0  0  0  0  0
    1.5883   19.9675   39.3187 H   0  0  0  0  0  0  0  0  0  0  0  0
  1 13  1  0
  2 26  1  0
  3 12  1  0
  3 15  1  0
  4  7  2  0
  4 22  1  0
  5 14  1  0
  6 25  2  3
  8  9  1  0
  9 17  2  0
  9 16  1  0
 10  6  1  0
 10  5  1  0
 11 19  1  0
 12 10  2  0
 13 20  2  0
 13 17  1  0
 15 24  2  0
 15 14  1  0
 16  2  2  0
 17 18  1  0
 18  2  1  0
 19  1  2  0
 19  8  1  0
 20 27  2  0
 21  4  1  0
 23 11  1  0
 26 25  1  0
 26 21  1  0
  1 28  1  0
  3 29  1  0
  3 30  1  0
  5 31  1  0
  5 32  1  0
  6 33  1  0
  8 34  1  0
  8 35  1  0
 11 36  1  0
 11 37  1  0
 12 38  1  0
 14 39  1  0
 16 40  1  0
 21 41  1  0
 22 42  1  0
 22 43  1  0
 22 44  1  0
 23 45  1  0
 23 46  1  0
 23 47  1  0
 26 48  1  6
M  END
>  <mol_id>  (8) 
2026-09-18-6fnk-s0-n100-0008

>  <rmsd_to_ref>  (8) 


$$$$

     RDKit          3D

 58 59  0  0  0  0  0  0  0  0999 V2000
    0.2010   25.7110   32.3050 C   0  0  0  0  0  0  0  0  0  0  0  0
   -0.6830   15.7860   39.2310 C   0  0  2  0  0  0  0  0  0  0  0  0
    1.9610   20.1210   41.9970 C   0  0  0  0  0  0  0  0  0  0  0  0
    2.5070   19.5170   38.4040 N   0  0  0  0  0  0  0  0  0  0  0  0
    1.5280   18.0470   40.2000 N   0  0  0  0  0  0  0  0  0  0  0  0
    2.9360   20.6910   38.0120 C   0  0  0  0  0  0  0  0  0  0  0  0
    3.6920   20.3360   42.2330 C   0  0  0  0  0  0  0  0  0  0  0  0
    1.0120   24.3510   34.6240 C   0  0  0  0  0  0  0  0  0  0  0  0
    1.3910   17.8180   41.6560 C   0  0  0  0  0  0  0  0  0  0  0  0
    3.2180   24.5710   33.7590 C   0  0  0  0  0  0  0  0  0  0  0  0
    1.7210   18.8730   42.6760 C   0  0  0  0  0  0  0  0  0  0  0  0
    3.7320   23.5660   34.3350 C   0  0  0  0  0  0  0  0  0  0  0  0
    1.6750   23.3090   35.4390 C   0  0  0  0  0  0  0  0  0  0  0  0
    2.7020   22.6930   35.0770 C   0  0  2  0  0  0  0  0  0  0  0  0
    1.6260   16.9180   39.4260 C   0  0  0  0  0  0  0  0  0  0  0  0
    1.8040   25.0240   33.8030 C   0  0  0  0  0  0  0  0  0  0  0  0
    0.9930   27.2760   34.0390 C   0  0  0  0  0  0  0  0  0  0  0  0
    3.8770   21.2880   38.7480 O   0  0  0  0  0  0  0  0  0  0  0  0
    1.3660   26.1740   33.0460 C   0  0  0  0  0  0  0  0  0  0  0  0
    2.7380   16.5070   39.5670 O   0  0  0  0  0  0  0  0  0  0  0  0
    2.8320   21.6020   35.8710 N   0  0  0  0  0  0  0  0  0  0  0  0
    2.6890   21.1780   36.8420 N   0  0  0  0  0  0  0  0  0  0  0  0
    1.7600   19.4230   39.6610 C   0  0  0  0  0  0  0  0  0  0  0  0
   -1.3440   14.6350   39.5040 O   0  0  0  0  0  0  0  0  0  0  0  0
   -1.0260   16.4770   37.9430 C   0  0  0  0  0  0  0  0  0  0  0  0
    0.4620   16.3600   38.3850 C   0  0  2  0  0  0  0  0  0  0  0  0
   -0.5827   25.3995   33.0112 H   0  0  0  0  0  0  0  0  0  0  0  0
   -0.1788   26.5265   31.6720 H   0  0  0  0  0  0  0  0  0  0  0  0
    0.4846   24.8572   31.6720 H   0  0  0  0  0  0  0  0  0  0  0  0
   -0.7100   15.7998   40.3306 H   0  0  0  0  0  0  0  0  0  0  0  0
    1.3898   20.9419   42.4550 H   0  0  0  0  0  0  0  0  0  0  0  0
    1.6534   20.1186   40.9409 H   0  0  0  0  0  0  0  0  0  0  0  0
    3.9146   20.3636   43.3099 H   0  0  0  0  0  0  0  0  0  0  0  0
    4.2323   19.4981   41.7683 H   0  0  0  0  0  0  0  0  0  0  0  0
    4.0109   21.2807   41.7683 H   0  0  0  0  0  0  0  0  0  0  0  0
    0.2332   23.8634   34.0193 H   0  0  0  0  0  0  0  0  0  0  0  0
    0.6214   25.0899   35.3392 H   0  0  0  0  0  0  0  0  0  0  0  0
    0.3378   17.5491   41.8249 H   0  0  0  0  0  0  0  0  0  0  0  0
    2.1780   17.0722   41.8413 H   0  0  0  0  0  0  0  0  0  0  0  0
    3.9024   25.1824   33.1525 H   0  0  0  0  0  0  0  0  0  0  0  0
    2.6214   18.5776   43.2345 H   0  0  0  0  0  0  0  0  0  0  0  0
    0.8824   18.9867   43.3787 H   0  0  0  0  0  0  0  0  0  0  0  0
    4.2315   22.9465   33.5756 H   0  0  0  0  0  0  0  0  0  0  0  0
    4.4363   23.9485   35.0884 H   0  0  0  0  0  0  0  0  0  0  0  0
    1.9368   23.7946   36.3907 H   0  0  0  0  0  0  0  0  0  0  0  0
    0.9240   22.5058   35.4083 H   0  0  0  0  0  0  0  0  0  0  0  0
    2.8336   22.1004   34.1597 H   0  0  0  0  0  0  0  0  0  0  0  0
    1.1194   26.9024   35.0659 H   0  0  0  0  0  0  0  0  0  0  0  0
    1.6464   28.1470   33.8826 H   0  0  0  0  0  0  0  0  0  0  0  0
   -0.0551   27.5711   33.8826 H   0  0  0  0  0  0  0  0  0  0  0  0
    2.1275   26.5785   32.3630 H   0  0  0  0  0  0  0  0  0  0  0  0
    2.3030   20.9199   35.3091 H   0  0  0  0  0  0  0  0  0  0  0  0
    1.6608   21.1166   36.8484 H   0  0  0  0  0  0  0  0  0  0  0  0
    1.3889   20.3182   40.1815 H   0  0  0  0  0  0  0  0  0  0  0  0
   -1.4113   14.5178   40.4847 H   0  0  0  0  0  0  0  0  0  0  0  0
   -1.5293   17.4550   37.9613 H   0  0  0  0  0  0  0  0  0  0  0  0
   -1.5920   16.2016   37.0409 H   0  0  0  0  0  0  0  0  0  0  0  0
    1.2813   16.3291   37.6517 H   0  0  0  0  0  0  0  0  0  0  0  0
  1 19  1  0
  2 24  1  0
  3  7  1  0
  3 11  1  0
  4 23  2  3
  5  9  1  0
  6  4  1  0
  6 18  2  0
  8 13  1  0
  9 11  1  0
 10 16  2  0
 10 12  1  0
 12 14  1  0
 14 13  1  0
 14 21  1  0
 15 20  2  0
 15  5  1  0
 16  8  1  0
 19 16  1  0
 19 17  1  0
 21 22  1  0
 22  6  1  0
 23  5  1  0
 25 26  1  0
 25  2  1  0
 26  2  1  0
 26 15  1  0
  1 27  1  0
  1 28  1  0
  1 29  1  0
  2 30  1  1
  3 31  1  0
  3 32  1  0
  7 33  1  0
  7 34  1  0
  7 35  1  0
  8 36  1  0
  8 37  1  0
  9 38  1  0
  9 39  1  0
 10 40  1  0
 11 41  1  0
 11 42  1  0
 12 43  1  0
 12 44  1  0
 13 45  1  0
 13 46  1  0
 14 47  1  6
 17 48  1  0
 17 49  1  0
 17 50  1  0
 19 51  1  0
 21 52  1  0
 22 53  1  0
 23 54  1  0
 24 55  1  0
 25 56  1  0
 25 57  1  0
 26 58  1  6
M  END
>  <mol_id>  (9) 
2026-09-18-6fnk-s0-n100-0009

>  <rmsd_to_ref>  (9) 


$$$$

     RDKit          3D

 63 65  0  0  0  0  0  0  0  0999 V2000
   -0.1640   20.3530   43.6240 C   0  0  0  0  0  0  0  0  0  0  0  0
    1.5030   15.9070   36.6290 C   0  0  0  0  0  0  0  0  0  0  0  0
    3.5070   24.0020   34.5460 C   0  0  2  0  0  0  0  0  0  0  0  0
    0.9040   20.8290   42.5790 O   0  0  0  0  0  0  0  0  0  0  0  0
    1.9390   25.5400   32.7460 C   0  0  0  0  0  0  0  0  0  0  0  0
    2.7490   20.9010   38.5520 C   0  0  0  0  0  0  0  0  0  0  0  0
    1.8500   19.8690   42.1510 C   0  0  2  0  0  0  0  0  0  0  0  0
    5.0080   24.1800   34.9840 C   0  0  0  0  0  0  0  0  0  0  0  0
    2.1770   16.9850   37.2750 C   0  0  0  0  0  0  0  0  0  0  0  0
    1.9830   22.7150   36.2190 C   0  0  0  0  0  0  0  0  0  0  0  0
    1.6970   17.4880   38.6000 C   0  0  0  0  0  0  0  0  0  0  0  0
    2.7760   25.2210   33.9650 N   0  0  0  0  0  0  0  0  0  0  0  0
    2.4990   19.8600   39.5820 C   0  0  1  0  0  0  0  0  0  0  0  0
    2.8980   22.0660   37.5300 S   0  0  0  0  0  4  0  0  0  0  0  0
    2.5650   20.1690   41.0510 N   0  0  0  0  0  0  0  0  0  0  0  0
   -0.9380   14.1550   40.0900 C   0  0  0  0  0  0  0  0  0  0  0  0
   -0.1550   15.7330   38.4680 C   0  0  0  0  0  0  0  0  0  0  0  0
    1.0240   26.7390   32.8140 C   0  0  0  0  0  0  0  0  0  0  0  0
    0.3730   15.3170   37.2510 C   0  0  0  0  0  0  0  0  0  0  0  0
    2.1970   18.6420   39.1870 N   0  0  0  0  0  0  0  0  0  0  0  0
    2.4460   23.7360   35.5570 C   0  0  2  0  0  0  0  0  0  0  0  0
    1.5950   24.4810   34.6290 C   0  0  1  0  0  0  0  0  0  0  0  0
    0.8090   25.7650   35.1630 C   0  0  0  0  0  0  0  0  0  0  0  0
   -1.2130   15.1120   39.0450 O   0  0  0  0  0  0  0  0  0  0  0  0
    0.3210   26.7280   34.1040 C   0  0  0  0  0  0  0  0  0  0  0  0
    1.8890   18.6220   42.9880 C   0  0  0  0  0  0  0  0  0  0  0  0
    0.5530   16.7860   39.2230 C   0  0  0  0  0  0  0  0  0  0  0  0
    0.2175   20.5230   44.6416 H   0  0  0  0  0  0  0  0  0  0  0  0
   -1.0950   20.9214   43.4817 H   0  0  0  0  0  0  0  0  0  0  0  0
   -0.3637   19.2807   43.4817 H   0  0  0  0  0  0  0  0  0  0  0  0
    1.8567   15.5359   35.6558 H   0  0  0  0  0  0  0  0  0  0  0  0
    3.7759   23.1669   33.8825 H   0  0  0  0  0  0  0  0  0  0  0  0
    1.3120   24.6602   32.5393 H   0  0  0  0  0  0  0  0  0  0  0  0
    2.6717   25.7948   31.9661 H   0  0  0  0  0  0  0  0  0  0  0  0
    3.7988   21.0012   38.8649 H   0  0  0  0  0  0  0  0  0  0  0  0
    2.0620   20.3858   37.8645 H   0  0  0  0  0  0  0  0  0  0  0  0
    2.6100   20.3285   42.8001 H   0  0  0  0  0  0  0  0  0  0  0  0
    5.0711   24.1875   36.0822 H   0  0  0  0  0  0  0  0  0  0  0  0
    5.6068   23.3466   34.5880 H   0  0  0  0  0  0  0  0  0  0  0  0
    5.3953   25.1304   34.5880 H   0  0  0  0  0  0  0  0  0  0  0  0
    3.0529   17.4484   36.7975 H   0  0  0  0  0  0  0  0  0  0  0  0
    1.0155   22.2693   35.9445 H   0  0  0  0  0  0  0  0  0  0  0  0
    3.5697   19.6078   39.5870 H   0  0  0  0  0  0  0  0  0  0  0  0
    4.0972   21.7780   36.9334 H   0  0  0  0  0  0  0  0  0  0  0  0
    3.5053   19.8326   41.3031 H   0  0  0  0  0  0  0  0  0  0  0  0
    2.1467   21.1044   40.9464 H   0  0  0  0  0  0  0  0  0  0  0  0
   -1.0755   14.6335   41.0709 H   0  0  0  0  0  0  0  0  0  0  0  0
   -1.6277   13.3030   39.9977 H   0  0  0  0  0  0  0  0  0  0  0  0
    0.0988   13.7991   39.9977 H   0  0  0  0  0  0  0  0  0  0  0  0
    1.6166   27.6614   32.7242 H   0  0  0  0  0  0  0  0  0  0  0  0
    0.2947   26.6986   31.9915 H   0  0  0  0  0  0  0  0  0  0  0  0
   -0.1169   14.4765   36.7376 H   0  0  0  0  0  0  0  0  0  0  0  0
    2.8615   18.1622   39.8108 H   0  0  0  0  0  0  0  0  0  0  0  0
    2.7403   23.8621   36.6094 H   0  0  0  0  0  0  0  0  0  0  0  0
    0.8562   23.8120   34.1635 H   0  0  0  0  0  0  0  0  0  0  0  0
   -0.0668   25.4133   35.7281 H   0  0  0  0  0  0  0  0  0  0  0  0
    1.5353   26.3291   35.7666 H   0  0  0  0  0  0  0  0  0  0  0  0
    0.3910   27.7419   34.5248 H   0  0  0  0  0  0  0  0  0  0  0  0
   -0.6958   26.3842   33.8633 H   0  0  0  0  0  0  0  0  0  0  0  0
    1.8805   18.8952   44.0535 H   0  0  0  0  0  0  0  0  0  0  0  0
    1.0098   18.0008   42.7617 H   0  0  0  0  0  0  0  0  0  0  0  0
    2.8053   18.0570   42.7617 H   0  0  0  0  0  0  0  0  0  0  0  0
    0.2320   17.0470   40.2422 H   0  0  0  0  0  0  0  0  0  0  0  0
  2 19  2  0
  2  9  1  0
  3  8  1  0
  3 21  1  0
  4  1  1  0
  5 18  1  0
  7  4  1  0
  7 26  1  0
  9 11  2  0
 10 14  2  3
 11 20  1  0
 11 27  1  0
 12  5  1  0
 12  3  1  0
 12 22  1  0
 13  6  1  0
 13 15  1  0
 14  6  1  0
 15  7  1  0
 17 24  1  0
 17 27  2  0
 18 25  1  0
 19 17  1  0
 20 13  1  0
 21 10  1  0
 22 23  1  0
 22 21  1  0
 24 16  1  0
 25 23  1  0
  1 28  1  0
  1 29  1  0
  1 30  1  0
  2 31  1  0
  3 32  1  6
  5 33  1  0
  5 34  1  0
  6 35  1  0
  6 36  1  0
  7 37  1  1
  8 38  1  0
  8 39  1  0
  8 40  1  0
  9 41  1  0
 10 42  1  0
 13 43  1  1
 14 44  1  6
 15 45  1  0
 15 46  1  0
 16 47  1  0
 16 48  1  0
 16 49  1  0
 18 50  1  0
 18 51  1  0
 19 52  1  0
 20 53  1  0
 21 54  1  1
 22 55  1  6
 23 56  1  0
 23 57  1  0
 25 58  1  0
 25 59  1  0
 26 60  1  0
 26 61  1  0
 26 62  1  0
 27 63  1  0
M  CHG  1  15   1
M  END
>  <mol_id>  (10) 
2026-09-18-6fnk-s0-n100-0010

>  <rmsd_to_ref>  (10) 


$$$$

     RDKit          3D

 70 72  0  0  0  0  0  0  0  0999 V2000
    3.0071   19.8899   41.4803 C   0  0  0  0  0  0  0  0  0  0  0  0
    4.2194   22.0470   41.8965 C   0  0  0  0  0  0  0  0  0  0  0  0
    5.0309   23.7195   33.8887 C   0  0  0  0  0  0  0  0  0  0  0  0
    0.4267   18.3339   41.1458 O   0  0  0  0  0  0  0  0  0  0  0  0
   -1.2070   15.2005   37.4540 C   0  0  0  0  0  0  0  0  0  0  0  0
    5.2588   23.9547   32.7009 C   0  0  0  0  0  0  0  0  0  0  0  0
    4.0659   24.5845   31.7899 C   0  0  0  0  0  0  0  0  0  0  0  0
    1.9510   20.7162   39.1827 C   0  0  0  0  0  0  0  0  0  0  0  0
   -0.0987   15.8056   36.5452 C   0  0  0  0  0  0  0  0  0  0  0  0
    2.3681   21.1945   36.5956 S   0  0  0  0  0  0  0  0  0  0  0  0
    3.6407   25.4867   32.3981 C   0  0  1  0  0  0  0  0  0  0  0  0
    2.6237   25.6483   33.3010 C   0  0  0  0  0  0  0  0  0  0  0  0
    2.9133   21.2260   42.2252 C   0  0  0  0  0  0  0  0  0  0  0  0
   -0.5466   14.5542   38.6740 C   0  0  0  0  0  0  0  0  0  0  0  0
    2.0780   19.9969   40.2900 C   0  0  1  0  0  0  0  0  0  0  0  0
    0.7171   16.7876   38.6279 N   0  0  0  0  0  0  0  0  0  0  0  0
    4.1048   21.7561   38.5312 C   0  0  0  0  0  0  0  0  0  0  0  0
    3.3174   26.0468   30.6524 C   0  0  0  0  0  0  0  0  0  0  0  0
    1.7488   17.6972   39.2796 C   0  0  0  0  0  0  0  0  0  0  0  0
    1.2745   18.6103   40.2978 C   0  0  0  0  0  0  0  0  0  0  0  0
    2.6827   26.2963   31.8845 C   0  0  2  0  0  0  0  0  0  0  0  0
    3.8184   21.3618   35.6579 C   0  0  0  0  0  0  0  0  0  0  0  0
    0.4750   15.5302   39.2783 C   0  0  0  0  0  0  0  0  0  0  0  0
    1.0658   16.5888   37.1959 C   0  0  0  0  0  0  0  0  0  0  0  0
    2.7932   21.2037   38.1401 C   0  0  1  0  0  0  0  0  0  0  0  0
    3.4938   21.5844   34.2800 C   0  0  0  0  0  0  0  0  0  0  0  0
    3.5754   22.7285   33.6170 C   0  0  0  0  0  0  0  0  0  0  0  0
    4.0392   19.7145   41.1425 H   0  0  0  0  0  0  0  0  0  0  0  0
    2.7246   19.0499   42.1319 H   0  0  0  0  0  0  0  0  0  0  0  0
    4.5951   22.5215   42.8150 H   0  0  0  0  0  0  0  0  0  0  0  0
    4.9867   21.3696   41.4935 H   0  0  0  0  0  0  0  0  0  0  0  0
    3.9874   22.8226   41.1517 H   0  0  0  0  0  0  0  0  0  0  0  0
    4.8209   24.6307   34.4682 H   0  0  0  0  0  0  0  0  0  0  0  0
    5.8441   23.2621   34.4714 H   0  0  0  0  0  0  0  0  0  0  0  0
   -1.7710   14.4407   36.8930 H   0  0  0  0  0  0  0  0  0  0  0  0
   -1.8976   15.9927   37.7788 H   0  0  0  0  0  0  0  0  0  0  0  0
    6.1013   24.6611   32.6658 H   0  0  0  0  0  0  0  0  0  0  0  0
    5.4385   22.9630   32.2602 H   0  0  0  0  0  0  0  0  0  0  0  0
    4.4632   24.9279   30.8234 H   0  0  0  0  0  0  0  0  0  0  0  0
    3.2859   23.8393   31.5745 H   0  0  0  0  0  0  0  0  0  0  0  0
    1.1995   20.1419   38.6210 H   0  0  0  0  0  0  0  0  0  0  0  0
    1.9468   21.6747   39.7225 H   0  0  0  0  0  0  0  0  0  0  0  0
   -0.5965   16.4925   35.8450 H   0  0  0  0  0  0  0  0  0  0  0  0
    0.3915   14.9235   36.1074 H   0  0  0  0  0  0  0  0  0  0  0  0
    1.9249   24.8266   33.5167 H   0  0  0  0  0  0  0  0  0  0  0  0
    2.5135   25.9890   34.3411 H   0  0  0  0  0  0  0  0  0  0  0  0
    2.0259   21.7820   41.8883 H   0  0  0  0  0  0  0  0  0  0  0  0
    2.8239   21.0591   43.3087 H   0  0  0  0  0  0  0  0  0  0  0  0
   -1.3150   14.3161   39.4243 H   0  0  0  0  0  0  0  0  0  0  0  0
   -0.0351   13.6296   38.3682 H   0  0  0  0  0  0  0  0  0  0  0  0
    2.0320   21.0893   40.4107 H   0  0  0  0  0  0  0  0  0  0  0  0
    4.1260   21.9148   39.6194 H   0  0  0  0  0  0  0  0  0  0  0  0
    4.8993   21.0499   38.2481 H   0  0  0  0  0  0  0  0  0  0  0  0
    4.2666   22.7153   38.0175 H   0  0  0  0  0  0  0  0  0  0  0  0
    3.9452   26.8014   30.1560 H   0  0  0  0  0  0  0  0  0  0  0  0
    3.1024   25.6350   29.6554 H   0  0  0  0  0  0  0  0  0  0  0  0
    2.5127   17.0542   39.7411 H   0  0  0  0  0  0  0  0  0  0  0  0
    2.1128   18.3424   38.4665 H   0  0  0  0  0  0  0  0  0  0  0  0
    1.9520   27.0731   31.6151 H   0  0  0  0  0  0  0  0  0  0  0  0
    4.3997   22.2155   36.0369 H   0  0  0  0  0  0  0  0  0  0  0  0
    4.4094   20.4380   35.7428 H   0  0  0  0  0  0  0  0  0  0  0  0
    0.1360   15.7576   40.2998 H   0  0  0  0  0  0  0  0  0  0  0  0
    1.4327   14.9981   39.1801 H   0  0  0  0  0  0  0  0  0  0  0  0
    1.9998   16.0140   37.1120 H   0  0  0  0  0  0  0  0  0  0  0  0
    1.2148   17.5556   36.6929 H   0  0  0  0  0  0  0  0  0  0  0  0
    3.2476   20.2091   38.0209 H   0  0  0  0  0  0  0  0  0  0  0  0
    4.1349   20.8867   33.7214 H   0  0  0  0  0  0  0  0  0  0  0  0
    2.3993   21.4916   34.3388 H   0  0  0  0  0  0  0  0  0  0  0  0
    2.7028   23.3370   33.8968 H   0  0  0  0  0  0  0  0  0  0  0  0
    3.6199   22.4411   32.5561 H   0  0  0  0  0  0  0  0  0  0  0  0
  1 13  1  0
  2 13  1  0
  3 27  1  0
  5 14  1  0
  6  3  1  0
  7  6  1  0
  9 24  1  0
  9  5  1  0
 10 25  1  0
 11  7  1  1
 11 12  1  0
 14 23  1  0
 15  8  1  0
 15 20  1  0
 15  1  1  0
 16 19  1  0
 16 23  1  0
 18 11  1  0
 19 20  1  0
 20  4  2  0
 21 18  1  0
 21 11  1  0
 21 12  1  0
 22 10  1  0
 24 16  1  0
 25 17  1  0
 25  8  1  0
 26 22  1  0
 27 26  1  0
  1 28  1  0
  1 29  1  0
  2 30  1  0
  2 31  1  0
  2 32  1  0
  3 33  1  0
  3 34  1  0
  5 35  1  0
  5 36  1  0
  6 37  1  0
  6 38  1  0
  7 39  1  0
  7 40  1  0
  8 41  1  0
  8 42  1  0
  9 43  1  0
  9 44  1  0
 12 45  1  0
 12 46  1  0
 13 47  1  0
 13 48  1  0
 14 49  1  0
 14 50  1  0
 15 51  1  1
 17 52  1  0
 17 53  1  0
 17 54  1  0
 18 55  1  0
 18 56  1  0
 19 57  1  0
 19 58  1  0
 21 59  1  1
 22 60  1  0
 22 61  1  0
 23 62  1  0
 23 63  1  0
 24 64  1  0
 24 65  1  0
 25 66  1  6
 26 67  1  0
 26 68  1  0
 27 69  1  0
 27 70  1  0
M  END
>  <mol_id>  (11) 
2026-09-18-6fnk-s0-n100-0011

>  <rmsd_to_ref>  (11) 


$$$$

     RDKit          3D

 56 58  0  0  0  0  0  0  0  0999 V2000
    2.5380   21.0270   38.4920 C   0  0  0  0  0  0  0  0  0  0  0  0
    3.1990   21.6340   37.6570 C   0  0  0  0  0  0  0  0  0  0  0  0
    0.4850   16.4840   38.0100 C   0  0  1  0  0  0  0  0  0  0  0  0
   -0.3000   15.0990   40.2330 C   0  0  0  0  0  0  0  0  0  0  0  0
    2.7240   23.4120   35.0840 C   0  0  0  0  0  0  0  0  0  0  0  0
   -1.6210   14.5660   39.8530 O   0  0  0  0  0  0  0  0  0  0  0  0
    2.6150   24.2590   33.6930 C   0  0  0  0  0  0  0  0  0  0  0  0
    0.2950   16.2310   39.6240 C   0  0  1  0  0  0  0  0  0  0  0  0
    1.0140   20.9370   42.8380 O   0  0  0  0  0  0  0  0  0  0  0  0
    4.6270   24.4450   32.3140 C   0  0  0  0  0  0  0  0  0  0  0  0
    2.7670   19.9330   41.4970 O   0  0  0  0  0  0  0  0  0  0  0  0
    1.8100   18.5560   43.3290 O   0  0  0  0  0  0  0  0  0  0  0  0
    1.3570   17.2080   40.5800 S   0  0  0  0  0  0  0  0  0  0  0  0
    0.9850   18.5770   44.7190 S   0  0  0  0  0  0  0  0  0  0  0  0
    1.9460   24.8090   35.1190 C   0  0  0  0  0  0  0  0  0  0  0  0
    2.2870   19.6110   39.0530 C   0  0  1  0  0  0  0  0  0  0  0  0
    2.3730   19.8290   40.4660 C   0  0  1  0  0  0  0  0  0  0  0  0
    5.6030   24.4830   31.1210 C   0  0  0  0  0  0  0  0  0  0  0  0
    1.1430   18.8030   39.7770 C   0  0  2  0  0  0  0  0  0  0  0  0
    3.5840   25.1310   30.1790 C   0  0  0  0  0  0  0  0  0  0  0  0
    5.2720   25.5310   29.7920 S   0  0  0  0  0  0  0  0  0  0  0  0
   -0.4410   15.4560   37.3480 O   0  0  0  0  0  0  0  0  0  0  0  0
    2.2060   22.6580   36.6100 C   0  0  0  0  0  0  0  0  0  0  0  0
   -0.4170   16.7240   36.7700 C   0  0  0  0  0  0  0  0  0  0  0  0
    3.6780   25.6240   31.5970 C   0  0  0  0  0  0  0  0  0  0  0  0
    1.8770   19.8570   42.6370 C   0  0  0  0  0  0  0  0  0  0  0  0
    2.8204   21.5649   39.4090 H   0  0  0  0  0  0  0  0  0  0  0  0
    1.6880   20.9373   37.7996 H   0  0  0  0  0  0  0  0  0  0  0  0
    3.9288   22.2692   38.1803 H   0  0  0  0  0  0  0  0  0  0  0  0
    3.6929   20.8870   37.0182 H   0  0  0  0  0  0  0  0  0  0  0  0
    1.4491   16.9803   38.1948 H   0  0  0  0  0  0  0  0  0  0  0  0
   -0.3698   15.3372   41.3046 H   0  0  0  0  0  0  0  0  0  0  0  0
    0.3630   14.2950   39.8809 H   0  0  0  0  0  0  0  0  0  0  0  0
    3.4467   22.5830   35.0606 H   0  0  0  0  0  0  0  0  0  0  0  0
   -2.1398   14.3567   40.6698 H   0  0  0  0  0  0  0  0  0  0  0  0
    3.5039   24.7503   33.2706 H   0  0  0  0  0  0  0  0  0  0  0  0
    2.2501   24.0609   32.6744 H   0  0  0  0  0  0  0  0  0  0  0  0
   -0.7691   16.5097   39.6209 H   0  0  0  0  0  0  0  0  0  0  0  0
    4.1173   23.4789   32.4437 H   0  0  0  0  0  0  0  0  0  0  0  0
    5.0022   24.5864   33.3383 H   0  0  0  0  0  0  0  0  0  0  0  0
    1.8622   18.5547   45.7711 H   0  0  0  0  0  0  0  0  0  0  0  0
    0.8532   24.8273   35.2431 H   0  0  0  0  0  0  0  0  0  0  0  0
    2.0285   25.7313   35.7128 H   0  0  0  0  0  0  0  0  0  0  0  0
    2.7071   19.1458   38.1491 H   0  0  0  0  0  0  0  0  0  0  0  0
    2.8803   20.6292   41.0248 H   0  0  0  0  0  0  0  0  0  0  0  0
    6.5864   24.7720   31.5202 H   0  0  0  0  0  0  0  0  0  0  0  0
    5.5208   23.4763   30.6853 H   0  0  0  0  0  0  0  0  0  0  0  0
    0.0845   18.6568   39.5158 H   0  0  0  0  0  0  0  0  0  0  0  0
    3.3674   24.0548   30.1086 H   0  0  0  0  0  0  0  0  0  0  0  0
    2.7921   25.5443   29.5370 H   0  0  0  0  0  0  0  0  0  0  0  0
    1.8817   23.4932   37.2481 H   0  0  0  0  0  0  0  0  0  0  0  0
    1.5093   21.9027   36.2174 H   0  0  0  0  0  0  0  0  0  0  0  0
    0.0447   16.8613   35.7811 H   0  0  0  0  0  0  0  0  0  0  0  0
   -1.1920   17.4642   36.5221 H   0  0  0  0  0  0  0  0  0  0  0  0
    4.1618   26.6107   31.6458 H   0  0  0  0  0  0  0  0  0  0  0  0
    2.7013   25.7634   32.0835 H   0  0  0  0  0  0  0  0  0  0  0  0
  2  1  1  0
  3  8  1  0
  5 15  1  0
  5 23  1  0
  6  4  1  0
  7  5  1  0
  7 15  1  0
  8  4  1  0
  8 13  1  0
 11 26  1  0
 12 14  1  0
 16  1  1  0
 16 19  1  0
 16 17  1  0
 17 11  1  0
 18 10  1  0
 19 17  1  0
 19 13  1  0
 20 25  1  0
 21 20  1  0
 21 18  1  0
 22  3  1  0
 23  2  1  0
 24 22  1  0
 24  3  1  0
 25 10  1  0
 26  9  2  0
 26 12  1  0
  1 27  1  0
  1 28  1  0
  2 29  1  0
  2 30  1  0
  3 31  1  6
  4 32  1  0
  4 33  1  0
  5 34  1  0
  6 35  1  0
  7 36  1  0
  7 37  1  0
  8 38  1  1
 10 39  1  0
 10 40  1  0
 14 41  1  0
 15 42  1  0
 15 43  1  0
 16 44  1  6
 17 45  1  6
 18 46  1  0
 18 47  1  0
 19 48  1  6
 20 49  1  0
 20 50  1  0
 23 51  1  0
 23 52  1  0
 24 53  1  0
 24 54  1  0
 25 55  1  0
 25 56  1  0
M  END
>  <mol_id>  (12) 
2026-09-18-6fnk-s0-n100-0012

>  <rmsd_to_ref>  (12) 


$$$$

     RDKit          3D

 68 70  0  0  0  0  0  0  0  0999 V2000
    3.1710   25.0950   32.2100 C   0  0  0  0  0  0  0  0  0  0  0  0
    0.1210   15.6780   37.2440 C   0  0  0  0  0  0  0  0  0  0  0  0
    0.7160   17.8350   42.7450 C   0  0  0  0  0  0  0  0  0  0  0  0
    3.4440   23.2090   35.2230 C   0  0  1  0  0  0  0  0  0  0  0  0
    6.1500   24.6310   35.0740 C   0  0  1  0  0  0  0  0  0  0  0  0
    3.3360   25.1860   34.0780 C   0  0  2  0  0  0  0  0  0  0  0  0
    1.8270   18.6140   38.5840 O   0  0  0  0  0  0  0  0  0  0  0  0
    1.5290   16.1940   41.2730 C   0  0  0  0  0  0  0  0  0  0  0  0
    3.8470   22.3950   37.1400 C   0  0  0  0  0  0  0  0  0  0  0  0
    0.6750   16.5710   39.1120 N   0  0  0  0  0  0  0  0  0  0  0  0
    5.6870   23.5340   36.3260 C   0  0  1  0  0  0  0  0  0  0  0  0
    5.5230   23.3830   32.4600 C   0  0  0  0  0  0  0  0  0  0  0  0
    1.7190   17.6930   41.3220 C   0  0  0  0  0  0  0  0  0  0  0  0
    3.0590   16.8330   38.6800 O   0  0  0  0  0  0  0  0  0  0  0  0
    4.4330   25.1600   33.2350 C   0  0  1  0  0  0  0  0  0  0  0  0
    2.5680   21.2740   35.5010 O   0  0  0  0  0  0  0  0  0  0  0  0
    6.7950   24.4110   36.7840 C   0  0  0  0  0  0  0  0  0  0  0  0
    0.1690   14.1900   37.2790 N   0  0  0  0  0  0  0  0  0  0  0  0
    3.1900   17.9910   41.8750 C   0  0  0  0  0  0  0  0  0  0  0  0
    1.8580   17.4700   39.0980 C   0  0  0  0  0  0  0  0  0  0  0  0
    0.5950   15.6740   40.2430 C   0  0  0  0  0  0  0  0  0  0  0  0
   -0.6400   16.1870   38.6230 C   0  0  1  0  0  0  0  0  0  0  0  0
    4.6520   23.1180   36.3590 C   0  0  2  0  0  0  0  0  0  0  0  0
    2.7890   22.2010   36.1340 C   0  0  2  0  0  0  0  0  0  0  0  0
    2.4260   23.9470   34.8760 O   0  0  0  0  0  0  0  0  0  0  0  0
   -1.5760   16.9120   37.9820 C   0  0  0  0  0  0  0  0  0  0  0  0
    5.3230   24.0510   33.9150 C   0  0  2  0  0  0  0  0  0  0  0  0
    2.8849   24.1675   31.6925 H   0  0  0  0  0  0  0  0  0  0  0  0
    2.7302   25.6465   31.3665 H   0  0  0  0  0  0  0  0  0  0  0  0
    1.1421   16.0854   37.2069 H   0  0  0  0  0  0  0  0  0  0  0  0
   -0.4214   16.0261   36.3526 H   0  0  0  0  0  0  0  0  0  0  0  0
    1.3420   17.7464   43.6452 H   0  0  0  0  0  0  0  0  0  0  0  0
    0.2131   18.8133   42.7430 H   0  0  0  0  0  0  0  0  0  0  0  0
   -0.0387   17.0347   42.7430 H   0  0  0  0  0  0  0  0  0  0  0  0
    3.9129   23.3604   34.2395 H   0  0  0  0  0  0  0  0  0  0  0  0
    6.4806   25.4523   34.4211 H   0  0  0  0  0  0  0  0  0  0  0  0
    3.1947   25.8021   34.9782 H   0  0  0  0  0  0  0  0  0  0  0  0
    1.8085   19.2972   39.3002 H   0  0  0  0  0  0  0  0  0  0  0  0
    2.5137   15.7389   41.0903 H   0  0  0  0  0  0  0  0  0  0  0  0
    1.0723   15.9287   42.2379 H   0  0  0  0  0  0  0  0  0  0  0  0
    4.3055   21.4485   37.4623 H   0  0  0  0  0  0  0  0  0  0  0  0
    3.5496   22.8390   38.1015 H   0  0  0  0  0  0  0  0  0  0  0  0
    5.5859   22.5365   36.7785 H   0  0  0  0  0  0  0  0  0  0  0  0
    5.8367   22.3353   32.5776 H   0  0  0  0  0  0  0  0  0  0  0  0
    4.5739   23.4216   31.9052 H   0  0  0  0  0  0  0  0  0  0  0  0
    6.2947   23.9368   31.9052 H   0  0  0  0  0  0  0  0  0  0  0  0
    1.5410   18.2793   40.4085 H   0  0  0  0  0  0  0  0  0  0  0  0
    3.5800   16.5567   39.4752 H   0  0  0  0  0  0  0  0  0  0  0  0
    5.2795   25.7712   32.8887 H   0  0  0  0  0  0  0  0  0  0  0  0
    2.3845   20.5043   36.0959 H   0  0  0  0  0  0  0  0  0  0  0  0
    7.7983   23.9872   36.9386 H   0  0  0  0  0  0  0  0  0  0  0  0
    6.9394   25.0820   37.6436 H   0  0  0  0  0  0  0  0  0  0  0  0
    0.1793   13.8698   38.2579 H   0  0  0  0  0  0  0  0  0  0  0  0
   -0.6601   13.8084   36.8017 H   0  0  0  0  0  0  0  0  0  0  0  0
    1.0210   13.8626   36.8017 H   0  0  0  0  0  0  0  0  0  0  0  0
    3.1758   17.9881   42.9749 H   0  0  0  0  0  0  0  0  0  0  0  0
    3.8812   17.2146   41.5152 H   0  0  0  0  0  0  0  0  0  0  0  0
    3.5246   18.9752   41.5152 H   0  0  0  0  0  0  0  0  0  0  0  0
    1.8214   17.6889   40.1754 H   0  0  0  0  0  0  0  0  0  0  0  0
   -0.4313   15.6545   40.6384 H   0  0  0  0  0  0  0  0  0  0  0  0
    0.8626   14.6477   39.9512 H   0  0  0  0  0  0  0  0  0  0  0  0
   -1.2145   15.7617   39.4591 H   0  0  0  0  0  0  0  0  0  0  0  0
    5.0124   22.1850   35.9010 H   0  0  0  0  0  0  0  0  0  0  0  0
    1.8029   22.2115   36.6214 H   0  0  0  0  0  0  0  0  0  0  0  0
   -2.2213   17.4118   38.7194 H   0  0  0  0  0  0  0  0  0  0  0  0
   -1.0857   17.6683   37.3514 H   0  0  0  0  0  0  0  0  0  0  0  0
   -2.1857   16.2482   37.3514 H   0  0  0  0  0  0  0  0  0  0  0  0
    5.2027   23.2256   34.6321 H   0  0  0  0  0  0  0  0  0  0  0  0
  2 18  1  0
  2 22  1  0
  4 25  1  0
  4 24  1  0
  4 23  1  0
  5 11  1  0
  5 17  1  0
  6  1  1  0
  6 25  1  0
  7 20  1  0
  8 13  1  0
 10 21  1  0
 11 23  1  0
 11 17  1  0
 13 19  1  0
 13  3  1  0
 14 20  1  0
 15  1  1  0
 15 27  1  0
 15  6  1  0
 20 10  1  0
 21  8  1  0
 22 26  1  0
 22 10  1  0
 23  9  1  0
 24 16  1  0
 24  9  1  0
 27 12  1  0
 27  5  1  0
  1 28  1  0
  1 29  1  0
  2 30  1  0
  2 31  1  0
  3 32  1  0
  3 33  1  0
  3 34  1  0
  4 35  1  6
  5 36  1  1
  6 37  1  1
  7 38  1  0
  8 39  1  0
  8 40  1  0
  9 41  1  0
  9 42  1  0
 11 43  1  6
 12 44  1  0
 12 45  1  0
 12 46  1  0
 13 47  1  0
 14 48  1  0
 15 49  1  6
 16 50  1  0
 17 51  1  0
 17 52  1  0
 18 53  1  0
 18 54  1  0
 18 55  1  0
 19 56  1  0
 19 57  1  0
 19 58  1  0
 20 59  1  0
 21 60  1  0
 21 61  1  0
 22 62  1  1
 23 63  1  6
 24 64  1  1
 26 65  1  0
 26 66  1  0
 26 67  1  0
 27 68  1  1
M  CHG  1  18   1
M  END
>  <mol_id>  (13) 
2026-09-18-6fnk-s0-n100-0013

>  <rmsd_to_ref>  (13) 


$$$$

     RDKit          3D

 77 79  0  0  0  0  0  0  0  0999 V2000
    3.4370   24.0800   33.3480 C   0  0  0  0  0  0  0  0  0  0  0  0
    3.2620   25.0880   32.2240 C   0  0  0  0  0  0  0  0  0  0  0  0
    1.9550   19.1850   39.4980 C   0  0  0  0  0  0  0  0  0  0  0  0
    1.7460   22.0750   37.1050 C   0  0  0  0  0  0  0  0  0  0  0  0
   -0.5890   13.8320   39.5260 O   0  0  0  0  0  0  0  0  0  0  0  0
    2.4850   19.9840   42.0760 C   0  0  2  0  0  0  0  0  0  0  0  0
    1.2770   16.4300   40.8720 C   0  0  0  0  0  0  0  0  0  0  0  0
    2.0100   22.4680   35.9090 C   0  0  0  0  0  0  0  0  0  0  0  0
    2.0190   26.0710   32.2510 C   0  0  2  0  0  0  0  0  0  0  0  0
   -0.0700   14.9820   39.1980 C   0  0  1  0  0  0  0  0  0  0  0  0
    0.3720   28.5860   34.7210 C   0  0  0  0  0  0  0  0  0  0  0  0
    3.8480   19.8160   42.6170 O   0  0  0  0  0  0  0  0  0  0  0  0
   -0.5470   16.7940   38.0960 O   0  0  0  0  0  0  0  0  0  0  0  0
    2.1270   18.7520   41.0130 C   0  0  0  0  0  0  0  0  0  0  0  0
   -1.0000   13.9500   41.8430 O   0  0  0  0  0  0  0  0  0  0  0  0
   -0.2810   16.9430   36.8850 C   0  0  0  0  0  0  0  0  0  0  0  0
    2.1250   22.7500   34.5860 C   0  0  0  0  0  0  0  0  0  0  0  0
    2.4870   21.4160   41.3460 C   0  0  0  0  0  0  0  0  0  0  0  0
    2.5410   20.9190   37.7040 C   0  0  0  0  0  0  0  0  0  0  0  0
   -0.8580   11.7650   40.7700 C   0  0  0  0  0  0  0  0  0  0  0  0
    2.2830   20.5800   39.0970 C   0  0  2  0  0  0  0  0  0  0  0  0
    1.6260   28.0460   33.8760 C   0  0  0  0  0  0  0  0  0  0  0  0
    1.7770   17.4680   41.1430 C   0  0  0  0  0  0  0  0  0  0  0  0
    1.9330   26.9750   33.2680 C   0  0  1  0  0  0  0  0  0  0  0  0
    2.2870   21.6110   40.1140 C   0  0  0  0  0  0  0  0  0  0  0  0
    4.7480   20.8440   43.2200 C   0  0  0  0  0  0  0  0  0  0  0  0
    1.5410   29.3690   34.5960 C   0  0  0  0  0  0  0  0  0  0  0  0
    1.3200   19.7070   43.1680 C   0  0  0  0  0  0  0  0  0  0  0  0
    1.0660   26.1640   33.5250 C   0  0  0  0  0  0  0  0  0  0  0  0
   -0.8890   13.2820   40.7750 C   0  0  0  0  0  0  0  0  0  0  0  0
   -0.8450   16.1600   38.8540 C   0  0  0  0  0  0  0  0  0  0  0  0
    0.9490   15.4920   40.0130 C   0  0  0  0  0  0  0  0  0  0  0  0
    2.5120   24.1850   34.2960 C   0  0  0  0  0  0  0  0  0  0  0  0
    4.4252   24.2351   33.8055 H   0  0  0  0  0  0  0  0  0  0  0  0
    3.3382   23.0778   32.9056 H   0  0  0  0  0  0  0  0  0  0  0  0
    4.1663   25.7142   32.2107 H   0  0  0  0  0  0  0  0  0  0  0  0
    3.0800   24.4618   31.3381 H   0  0  0  0  0  0  0  0  0  0  0  0
    2.5954   18.5202   38.8997 H   0  0  0  0  0  0  0  0  0  0  0  0
    0.8705   19.1137   39.3285 H   0  0  0  0  0  0  0  0  0  0  0  0
    0.9551   22.5674   37.6898 H   0  0  0  0  0  0  0  0  0  0  0  0
    0.8867   16.0620   41.8323 H   0  0  0  0  0  0  0  0  0  0  0  0
    1.9004   23.5289   36.1782 H   0  0  0  0  0  0  0  0  0  0  0  0
    2.2743   21.4276   35.6688 H   0  0  0  0  0  0  0  0  0  0  0  0
    1.9308   25.9986   31.1569 H   0  0  0  0  0  0  0  0  0  0  0  0
    0.2538   14.5178   38.2548 H   0  0  0  0  0  0  0  0  0  0  0  0
   -0.5514   28.8879   34.2051 H   0  0  0  0  0  0  0  0  0  0  0  0
   -0.2249   28.2038   35.5622 H   0  0  0  0  0  0  0  0  0  0  0  0
    0.6745   17.4782   36.7826 H   0  0  0  0  0  0  0  0  0  0  0  0
   -0.2027   15.9574   36.4028 H   0  0  0  0  0  0  0  0  0  0  0  0
   -1.0805   17.5246   36.4028 H   0  0  0  0  0  0  0  0  0  0  0  0
    2.8936   22.0905   34.1568 H   0  0  0  0  0  0  0  0  0  0  0  0
    1.1332   22.5899   34.1380 H   0  0  0  0  0  0  0  0  0  0  0  0
    2.6786   22.3003   41.9716 H   0  0  0  0  0  0  0  0  0  0  0  0
    3.2798   20.3635   37.1077 H   0  0  0  0  0  0  0  0  0  0  0  0
   -0.8504   11.3950   41.8059 H   0  0  0  0  0  0  0  0  0  0  0  0
   -1.7485   11.3818   40.2502 H   0  0  0  0  0  0  0  0  0  0  0  0
    0.0474   11.4185   40.2502 H   0  0  0  0  0  0  0  0  0  0  0  0
    1.2132   20.7892   38.9498 H   0  0  0  0  0  0  0  0  0  0  0  0
    2.0361   27.5786   34.7834 H   0  0  0  0  0  0  0  0  0  0  0  0
    2.8972   27.5010   33.3278 H   0  0  0  0  0  0  0  0  0  0  0  0
    2.1013   22.6451   39.7881 H   0  0  0  0  0  0  0  0  0  0  0  0
    4.6931   20.7813   44.3168 H   0  0  0  0  0  0  0  0  0  0  0  0
    5.7826   20.6623   42.8936 H   0  0  0  0  0  0  0  0  0  0  0  0
    4.4311   21.8455   42.8936 H   0  0  0  0  0  0  0  0  0  0  0  0
    2.1689   29.5311   35.4845 H   0  0  0  0  0  0  0  0  0  0  0  0
    1.7025   30.4034   34.2584 H   0  0  0  0  0  0  0  0  0  0  0  0
    1.7363   19.8060   44.1814 H   0  0  0  0  0  0  0  0  0  0  0  0
    0.5087   20.4373   43.0319 H   0  0  0  0  0  0  0  0  0  0  0  0
    0.9242   18.6897   43.0319 H   0  0  0  0  0  0  0  0  0  0  0  0
    0.0034   26.4249   33.4120 H   0  0  0  0  0  0  0  0  0  0  0  0
    0.8021   25.5178   34.3751 H   0  0  0  0  0  0  0  0  0  0  0  0
   -1.8505   15.8040   38.5853 H   0  0  0  0  0  0  0  0  0  0  0  0
   -0.7346   16.7891   39.7496 H   0  0  0  0  0  0  0  0  0  0  0  0
    1.1777   14.5982   40.6120 H   0  0  0  0  0  0  0  0  0  0  0  0
    1.3123   16.1149   39.1823 H   0  0  0  0  0  0  0  0  0  0  0  0
    2.9246   24.6684   35.1938 H   0  0  0  0  0  0  0  0  0  0  0  0
    1.6552   24.8018   33.9870 H   0  0  0  0  0  0  0  0  0  0  0  0
  1 33  1  0
  2  1  1  0
  3 14  1  0
  4 19  2  3
  5 30  1  0
  6 12  1  1
  6 28  1  0
  7 23  2  0
  8  4  1  0
  9  2  1  0
  9 24  1  0
  9 29  1  0
 10 31  1  0
 10  5  1  0
 10 32  1  0
 12 26  1  0
 13 31  1  0
 14 23  2  0
 14  6  1  0
 16 13  1  0
 17  8  1  0
 18  6  1  0
 20 30  1  0
 21 19  1  0
 21  3  1  0
 21 25  1  0
 22 27  1  0
 22 11  1  0
 24 29  1  0
 24 22  1  0
 25 18  2  0
 27 11  1  0
 30 15  2  0
 32  7  1  0
 33 17  1  0
  1 34  1  0
  1 35  1  0
  2 36  1  0
  2 37  1  0
  3 38  1  0
  3 39  1  0
  4 40  1  0
  7 41  1  0
  8 42  1  0
  8 43  1  0
  9 44  1  6
 10 45  1  6
 11 46  1  0
 11 47  1  0
 16 48  1  0
 16 49  1  0
 16 50  1  0
 17 51  1  0
 17 52  1  0
 18 53  1  0
 19 54  1  0
 20 55  1  0
 20 56  1  0
 20 57  1  0
 21 58  1  1
 22 59  1  0
 24 60  1  1
 25 61  1  0
 26 62  1  0
 26 63  1  0
 26 64  1  0
 27 65  1  0
 27 66  1  0
 28 67  1  0
 28 68  1  0
 28 69  1  0
 29 70  1  0
 29 71  1  0
 31 72  1  0
 31 73  1  0
 32 74  1  0
 32 75  1  0
 33 76  1  0
 33 77  1  0
M  END
>  <mol_id>  (14) 
2026-09-18-6fnk-s0-n100-0014

>  <rmsd_to_ref>  (14) 


$$$$

     RDKit          3D

 51 51  0  0  0  0  0  0  0  0999 V2000
    2.4280   20.2580   41.2180 C   0  0  0  0  0  0  0  0  0  0  0  0
    0.8140   23.4370   34.8430 C   0  0  0  0  0  0  0  0  0  0  0  0
    3.8600   21.5550   37.9060 C   0  0  1  0  0  0  0  0  0  0  0  0
    1.6550   14.9590   36.8630 C   0  0  0  0  0  0  0  0  0  0  0  0
    2.8530   16.5090   35.6810 F   0  0  0  0  0  0  0  0  0  0  0  0
    1.3330   17.3790   37.3450 N   0  0  0  0  0  0  0  0  0  0  0  0
    3.4970   20.7610   40.3620 N   0  0  0  0  0  0  0  0  0  0  0  0
    2.1610   20.0700   38.5660 O   0  0  0  0  0  0  0  0  0  0  0  0
    0.7530   22.8940   35.9470 C   0  0  0  0  0  0  0  0  0  0  0  0
    3.1340   23.5370   34.6050 C   0  0  0  0  0  0  0  0  0  0  0  0
    0.5140   17.1230   38.5510 C   0  0  0  0  0  0  0  0  0  0  0  0
    3.1070   20.7460   38.9430 C   0  0  0  0  0  0  0  0  0  0  0  0
    2.9850   22.3160   36.7410 C   0  0  0  0  0  0  0  0  0  0  0  0
    1.8350   24.0580   34.0610 C   0  0  0  0  0  0  0  0  0  0  0  0
    6.0180   22.9380   38.0440 C   0  0  0  0  0  0  0  0  0  0  0  0
    1.6280   22.5180   36.9310 C   0  0  0  0  0  0  0  0  0  0  0  0
   -0.3640   14.8970   38.1330 O   0  0  0  0  0  0  0  0  0  0  0  0
    5.2610   21.6040   37.9790 C   0  0  0  0  0  0  0  0  0  0  0  0
    0.7560   14.2480   37.6590 C   0  0  0  0  0  0  0  0  0  0  0  0
    3.0580   19.4300   42.3350 C   0  0  0  0  0  0  0  0  0  0  0  0
    3.5320   22.8540   35.6020 C   0  0  0  0  0  0  0  0  0  0  0  0
   -0.6860   16.2450   38.1770 C   0  0  0  0  0  0  0  0  0  0  0  0
    1.3480   25.0640   32.9580 C   0  0  0  0  0  0  0  0  0  0  0  0
    1.7560   16.3250   36.5970 C   0  0  0  0  0  0  0  0  0  0  0  0
    1.7446   19.6289   40.6288 H   0  0  0  0  0  0  0  0  0  0  0  0
    1.8570   21.0964   41.6435 H   0  0  0  0  0  0  0  0  0  0  0  0
   -0.1603   23.4458   34.3325 H   0  0  0  0  0  0  0  0  0  0  0  0
    3.9247   20.6669   37.2602 H   0  0  0  0  0  0  0  0  0  0  0  0
    2.4114   14.3380   36.3607 H   0  0  0  0  0  0  0  0  0  0  0  0
    4.4111   21.0862   40.7078 H   0  0  0  0  0  0  0  0  0  0  0  0
    0.0608   23.5530   36.4916 H   0  0  0  0  0  0  0  0  0  0  0  0
    0.6745   21.8805   35.5266 H   0  0  0  0  0  0  0  0  0  0  0  0
    3.9776   23.8270   33.9614 H   0  0  0  0  0  0  0  0  0  0  0  0
    1.1248   16.6067   39.3062 H   0  0  0  0  0  0  0  0  0  0  0  0
    0.1554   18.0789   38.9604 H   0  0  0  0  0  0  0  0  0  0  0  0
    6.1771   23.2184   39.0957 H   0  0  0  0  0  0  0  0  0  0  0  0
    6.9908   22.8324   37.5414 H   0  0  0  0  0  0  0  0  0  0  0  0
    5.4285   23.7190   37.5414 H   0  0  0  0  0  0  0  0  0  0  0  0
    1.2249   22.3657   37.9431 H   0  0  0  0  0  0  0  0  0  0  0  0
    5.5438   21.0432   38.8821 H   0  0  0  0  0  0  0  0  0  0  0  0
    5.5612   21.2113   36.9963 H   0  0  0  0  0  0  0  0  0  0  0  0
    0.9374   13.1909   37.9033 H   0  0  0  0  0  0  0  0  0  0  0  0
    2.7498   19.8351   43.3102 H   0  0  0  0  0  0  0  0  0  0  0  0
    2.7243   18.3853   42.2499 H   0  0  0  0  0  0  0  0  0  0  0  0
    4.1539   19.4730   42.2499 H   0  0  0  0  0  0  0  0  0  0  0  0
    4.6077   22.6346   35.5327 H   0  0  0  0  0  0  0  0  0  0  0  0
   -1.0532   16.5525   37.1868 H   0  0  0  0  0  0  0  0  0  0  0  0
   -1.4540   16.3802   38.9528 H   0  0  0  0  0  0  0  0  0  0  0  0
    0.9169   25.9546   33.4386 H   0  0  0  0  0  0  0  0  0  0  0  0
    2.2014   25.3624   32.3314 H   0  0  0  0  0  0  0  0  0  0  0  0
    0.5846   24.5797   32.3314 H   0  0  0  0  0  0  0  0  0  0  0  0
  1 20  1  0
  2  9  1  0
  3 18  1  0
  3 12  1  0
  4 19  2  0
  5 24  1  0
  6 11  1  0
  7  1  1  0
  8 12  2  0
  9 16  1  0
 10 21  2  0
 12  7  1  0
 13 16  2  0
 13  3  1  0
 14 10  1  0
 14  2  2  0
 17 22  1  0
 18 15  1  0
 19 17  1  0
 21 13  1  0
 22 11  1  0
 23 14  1  0
 24  4  1  0
 24  6  2  0
  1 25  1  0
  1 26  1  0
  2 27  1  0
  3 28  1  6
  4 29  1  0
  7 30  1  0
  9 31  1  0
  9 32  1  0
 10 33  1  0
 11 34  1  0
 11 35  1  0
 15 36  1  0
 15 37  1  0
 15 38  1  0
 16 39  1  0
 18 40  1  0
 18 41  1  0
 19 42  1  0
 20 43  1  0
 20 44  1  0
 20 45  1  0
 21 46  1  0
 22 47  1  0
 22 48  1  0
 23 49  1  0
 23 50  1  0
 23 51  1  0
M  END
>  <mol_id>  (15) 
2026-09-18-6fnk-s0-n100-0015

>  <rmsd_to_ref>  (15) 


$$$$

     RDKit          3D

 55 57  0  0  0  0  0  0  0  0999 V2000
    1.4460   18.1220   40.3950 C   0  0  0  0  0  0  0  0  0  0  0  0
    1.4960   26.3280   33.5420 C   0  0  1  0  0  0  0  0  0  0  0  0
    1.7160   18.1500   38.9190 C   0  0  1  0  0  0  0  0  0  0  0  0
    1.0910   23.2250   35.6020 C   0  0  0  0  0  0  0  0  0  0  0  0
    2.7470   22.3100   35.2830 N   0  0  0  0  0  0  0  0  0  0  0  0
    3.4140   22.8310   34.3390 N   0  0  0  0  0  0  0  0  0  0  0  0
    2.1080   22.2600   36.3140 N   0  0  0  0  0  0  0  0  0  0  0  0
    2.2030   25.7560   32.5080 C   0  0  0  0  0  0  0  0  0  0  0  0
    2.9050   24.5030   32.6680 C   0  0  0  0  0  0  0  0  0  0  0  0
    2.7560   19.8700   35.7850 O   0  0  0  0  0  0  0  0  0  0  0  0
    3.3140   19.5760   43.1060 N   0  0  0  0  0  0  0  0  0  0  0  0
    2.6650   23.9360   33.8940 C   0  0  2  0  0  0  0  0  0  0  0  0
    0.8400   15.5750   39.0310 S   0  0  0  0  0  0  0  0  0  0  0  0
    1.5800   24.3050   34.7390 C   0  0  1  0  0  0  0  0  0  0  0  0
    0.9050   18.4730   43.4850 Cl  0  0  0  0  0  0  0  0  0  0  0  0
    3.8760   20.3250   42.1340 O   0  0  0  0  0  0  0  0  0  0  0  0
    1.2220   17.0490   38.1520 C   0  0  0  0  0  0  0  0  0  0  0  0
    1.2430   27.5850   33.5380 F   0  0  0  0  0  0  0  0  0  0  0  0
    2.1540   19.2220   41.1200 C   0  0  2  0  0  0  0  0  0  0  0  0
    0.9710   25.5690   34.5720 C   0  0  0  0  0  0  0  0  0  0  0  0
    2.3340   20.5760   38.1420 N   0  0  0  0  0  0  0  0  0  0  0  0
    2.3300   19.2840   38.5870 O   0  0  0  0  0  0  0  0  0  0  0  0
   -0.3250   16.8430   36.4190 C   0  0  0  0  0  0  0  0  0  0  0  0
    3.1800   20.3480   41.0210 C   0  0  0  0  0  0  0  0  0  0  0  0
    2.2060   19.0540   42.5950 C   0  0  1  0  0  0  0  0  0  0  0  0
    1.0870   17.0270   36.8120 N   0  0  0  0  0  0  0  0  0  0  0  0
    2.0650   20.7830   36.7180 C   0  0  1  0  0  0  0  0  0  0  0  0
    0.3636   18.2289   40.5592 H   0  0  0  0  0  0  0  0  0  0  0  0
    1.8180   17.1644   40.7882 H   0  0  0  0  0  0  0  0  0  0  0  0
    2.4013   26.5121   34.1391 H   0  0  0  0  0  0  0  0  0  0  0  0
    2.6617   17.6123   39.0818 H   0  0  0  0  0  0  0  0  0  0  0  0
    0.4379   22.5944   34.9808 H   0  0  0  0  0  0  0  0  0  0  0  0
    0.6279   23.7647   36.4412 H   0  0  0  0  0  0  0  0  0  0  0  0
    3.4573   21.6155   35.5550 H   0  0  0  0  0  0  0  0  0  0  0  0
    4.3359   23.1384   34.6802 H   0  0  0  0  0  0  0  0  0  0  0  0
    2.9574   26.4961   32.2028 H   0  0  0  0  0  0  0  0  0  0  0  0
    1.4051   25.4879   31.7998 H   0  0  0  0  0  0  0  0  0  0  0  0
    2.5740   23.8070   31.8832 H   0  0  0  0  0  0  0  0  0  0  0  0
    3.9837   24.7038   32.5901 H   0  0  0  0  0  0  0  0  0  0  0  0
    3.2662   19.1959   36.3001 H   0  0  0  0  0  0  0  0  0  0  0  0
    3.9591   18.8265   43.3939 H   0  0  0  0  0  0  0  0  0  0  0  0
    1.9327   23.2551   33.4357 H   0  0  0  0  0  0  0  0  0  0  0  0
    1.5971   25.0029   35.5891 H   0  0  0  0  0  0  0  0  0  0  0  0
    1.6532   19.4598   40.1699 H   0  0  0  0  0  0  0  0  0  0  0  0
    1.0887   26.1333   35.5089 H   0  0  0  0  0  0  0  0  0  0  0  0
   -0.0810   25.3773   34.3139 H   0  0  0  0  0  0  0  0  0  0  0  0
    1.6171   21.0909   38.6729 H   0  0  0  0  0  0  0  0  0  0  0  0
   -0.9491   16.7617   37.3212 H   0  0  0  0  0  0  0  0  0  0  0  0
   -0.6547   17.7058   35.8216 H   0  0  0  0  0  0  0  0  0  0  0  0
   -0.4226   15.9245   35.8216 H   0  0  0  0  0  0  0  0  0  0  0  0
    3.8411   20.1833   40.1574 H   0  0  0  0  0  0  0  0  0  0  0  0
    2.6863   21.3214   40.8839 H   0  0  0  0  0  0  0  0  0  0  0  0
    2.0508   18.0748   43.0715 H   0  0  0  0  0  0  0  0  0  0  0  0
    1.8675   17.1257   36.1472 H   0  0  0  0  0  0  0  0  0  0  0  0
    1.0179   20.4677   36.5989 H   0  0  0  0  0  0  0  0  0  0  0  0
  2 18  1  0
  2 20  1  0
  3  1  1  0
  4  7  1  0
  5  7  1  0
  6  5  1  0
  7 27  1  0
  8  9  1  0
  8  2  1  0
 12  9  1  0
 12  6  1  0
 12 14  1  0
 14 20  1  0
 14  4  1  0
 16 11  1  0
 17  3  1  0
 17 13  2  0
 19  1  1  0
 19 25  1  0
 21 22  1  0
 22  3  1  0
 23 26  1  0
 24 19  1  0
 24 16  1  0
 25 11  1  0
 25 15  1  0
 26 17  1  0
 27 10  1  0
 27 21  1  0
  1 28  1  0
  1 29  1  0
  2 30  1  1
  3 31  1  1
  4 32  1  0
  4 33  1  0
  5 34  1  0
  6 35  1  0
  8 36  1  0
  8 37  1  0
  9 38  1  0
  9 39  1  0
 10 40  1  0
 11 41  1  0
 12 42  1  1
 14 43  1  1
 19 44  1  1
 20 45  1  0
 20 46  1  0
 21 47  1  0
 23 48  1  0
 23 49  1  0
 23 50  1  0
 24 51  1  0
 24 52  1  0
 25 53  1  6
 26 54  1  0
 27 55  1  1
M  END
>  <mol_id>  (16) 
2026-09-18-6fnk-s0-n100-0016

>  <rmsd_to_ref>  (16) 


$$$$

     RDKit          3D

 93 95  0  0  0  0  0  0  0  0999 V2000
    3.8306   20.3218   41.9648 C   0  0  0  0  0  0  0  0  0  0  0  0
    2.2646   18.8530   40.7925 F   0  0  0  0  0  0  0  0  0  0  0  0
    0.0248   11.8854   41.6142 C   0  0  0  0  0  0  0  0  0  0  0  0
    0.7426   11.2958   39.2002 N   0  0  0  0  0  0  0  0  0  0  0  0
    1.0091   15.2096   38.4710 C   0  0  2  0  0  0  0  0  0  0  0  0
    1.3359   28.4823   33.7627 C   0  0  0  0  0  0  0  0  0  0  0  0
    1.6656   26.2262   32.7409 C   0  0  0  0  0  0  0  0  0  0  0  0
    5.5569   21.4309   40.8532 C   0  0  0  0  0  0  0  0  0  0  0  0
    4.2345   14.8870   40.3179 N   0  0  0  0  0  0  0  0  0  0  0  0
    0.6452   13.1401   41.6374 C   0  0  1  0  0  0  0  0  0  0  0  0
    1.9356   28.1154   35.1747 C   0  0  0  0  0  0  0  0  0  0  0  0
    0.9768   25.9071   34.7373 C   0  0  0  0  0  0  0  0  0  0  0  0
    1.7304   14.3295   39.5158 C   0  0  1  0  0  0  0  0  0  0  0  0
   -0.1697   28.1596   35.6075 C   0  0  0  0  0  0  0  0  0  0  0  0
   -0.0808   27.3970   33.9262 S   0  0  2  0  0  4  0  0  0  0  0  0
    3.1012   17.6788   38.2002 C   0  0  2  0  0  0  0  0  0  0  0  0
    0.1970   24.6715   35.8471 C   0  0  0  0  0  0  0  0  0  0  0  0
    0.6953   23.9020   34.9933 C   0  0  0  0  0  0  0  0  0  0  0  0
    2.1568   17.3249   37.0193 O   0  0  0  0  0  0  0  0  0  0  0  0
    0.4167   29.4508   35.8543 O   0  0  0  0  0  0  0  0  0  0  0  0
    1.7259   16.6572   38.3814 C   0  0  1  0  0  0  0  0  0  0  0  0
   -0.6178   14.5882   40.0109 C   0  0  0  0  0  0  0  0  0  0  0  0
    0.7817   10.9805   40.6896 C   0  0  0  0  0  0  0  0  0  0  0  0
    2.9331   15.1010   40.0875 C   0  0  0  0  0  0  0  0  0  0  0  0
    1.1309   24.2119   33.8372 C   0  0  0  0  0  0  0  0  0  0  0  0
   -0.3584   14.9872   38.6460 O   0  0  0  0  0  0  0  0  0  0  0  0
    3.6173   19.1356   38.3389 C   0  0  0  0  0  0  0  0  0  0  0  0
    0.0817   25.8099   34.1477 C   0  0  1  0  0  0  0  0  0  0  0  0
    0.5485   22.4528   35.5957 C   0  0  0  0  0  0  0  0  0  0  0  0
    2.2449   27.6043   32.8489 N   0  0  0  0  0  0  0  0  0  0  0  0
    3.3144   19.7168   40.8088 C   0  0  0  0  0  0  0  0  0  0  0  0
    4.0307   19.8456   39.6500 C   0  0  0  0  0  0  0  0  0  0  0  0
    0.6358   13.9695   40.3881 N   0  0  0  0  0  0  0  0  0  0  0  0
    2.9381   19.8733   37.4282 C   0  0  0  0  0  0  0  0  0  0  0  0
    1.2823   29.6993   33.3918 C   0  0  0  0  0  0  0  0  0  0  0  0
    0.1143   14.0175   42.7698 C   0  0  0  0  0  0  0  0  0  0  0  0
    5.1763   20.8212   39.7199 C   0  0  0  0  0  0  0  0  0  0  0  0
    4.8543   21.1315   42.0470 C   0  0  0  0  0  0  0  0  0  0  0  0
    0.5217   25.3360   33.2845 C   0  0  1  0  0  0  0  0  0  0  0  0
    3.3160   20.0888   42.9086 H   0  0  0  0  0  0  0  0  0  0  0  0
    0.0215   11.4575   42.6275 H   0  0  0  0  0  0  0  0  0  0  0  0
   -1.0120   11.9914   41.2622 H   0  0  0  0  0  0  0  0  0  0  0  0
    0.9453   12.2952   39.0555 H   0  0  0  0  0  0  0  0  0  0  0  0
    1.4484   10.7278   38.7104 H   0  0  0  0  0  0  0  0  0  0  0  0
   -0.1925   11.0776   38.8276 H   0  0  0  0  0  0  0  0  0  0  0  0
    1.1084   14.9719   37.4016 H   0  0  0  0  0  0  0  0  0  0  0  0
    1.4776   26.1657   31.6588 H   0  0  0  0  0  0  0  0  0  0  0  0
    2.3679   25.8378   33.4932 H   0  0  0  0  0  0  0  0  0  0  0  0
    6.3934   22.1453   40.8555 H   0  0  0  0  0  0  0  0  0  0  0  0
    4.4184   14.9469   41.3297 H   0  0  0  0  0  0  0  0  0  0  0  0
    4.4942   13.9506   39.9766 H   0  0  0  0  0  0  0  0  0  0  0  0
    4.7920   15.5990   39.8249 H   0  0  0  0  0  0  0  0  0  0  0  0
    1.6928   12.8362   41.7800 H   0  0  0  0  0  0  0  0  0  0  0  0
    1.4495   28.7267   35.9494 H   0  0  0  0  0  0  0  0  0  0  0  0
    1.7578   27.0501   35.3829 H   0  0  0  0  0  0  0  0  0  0  0  0
    3.0175   28.3138   35.1763 H   0  0  0  0  0  0  0  0  0  0  0  0
    0.7095   25.9659   35.8028 H   0  0  0  0  0  0  0  0  0  0  0  0
    1.6234   25.0332   34.5692 H   0  0  0  0  0  0  0  0  0  0  0  0
    1.5125   26.8216   34.4427 H   0  0  0  0  0  0  0  0  0  0  0  0
    2.2272   13.4072   39.1805 H   0  0  0  0  0  0  0  0  0  0  0  0
    0.3154   27.4553   36.2994 H   0  0  0  0  0  0  0  0  0  0  0  0
   -1.2457   28.3466   35.7385 H   0  0  0  0  0  0  0  0  0  0  0  0
   -0.9869   27.3618   32.8992 H   0  0  0  0  0  0  0  0  0  0  0  0
    4.0699   17.5724   38.7105 H   0  0  0  0  0  0  0  0  0  0  0  0
    0.1754   25.7560   35.6641 H   0  0  0  0  0  0  0  0  0  0  0  0
   -0.2189   24.2627   36.7798 H   0  0  0  0  0  0  0  0  0  0  0  0
    0.5274   29.5820   36.8294 H   0  0  0  0  0  0  0  0  0  0  0  0
    1.1063   16.5372   39.2824 H   0  0  0  0  0  0  0  0  0  0  0  0
   -1.4499   13.8709   40.0662 H   0  0  0  0  0  0  0  0  0  0  0  0
   -0.9167   15.4195   40.6664 H   0  0  0  0  0  0  0  0  0  0  0  0
    0.3788    9.9653   40.8211 H   0  0  0  0  0  0  0  0  0  0  0  0
    1.8362   11.1121   40.9738 H   0  0  0  0  0  0  0  0  0  0  0  0
    2.9598   15.9914   39.4422 H   0  0  0  0  0  0  0  0  0  0  0  0
    2.6479   14.9039   41.1314 H   0  0  0  0  0  0  0  0  0  0  0  0
    2.2106   24.4069   33.9152 H   0  0  0  0  0  0  0  0  0  0  0  0
    0.9000   23.3660   33.1730 H   0  0  0  0  0  0  0  0  0  0  0  0
   -0.8383   25.2958   34.4627 H   0  0  0  0  0  0  0  0  0  0  0  0
    0.6396   22.5001   36.6909 H   0  0  0  0  0  0  0  0  0  0  0  0
   -0.4360   22.0421   35.3271 H   0  0  0  0  0  0  0  0  0  0  0  0
    1.3393   21.8051   35.1896 H   0  0  0  0  0  0  0  0  0  0  0  0
    3.1892   27.5486   33.2564 H   0  0  0  0  0  0  0  0  0  0  0  0
    2.2989   28.0276   31.9115 H   0  0  0  0  0  0  0  0  0  0  0  0
    3.1345   20.9518   37.3372 H   0  0  0  0  0  0  0  0  0  0  0  0
    2.1903   19.3937   36.7795 H   0  0  0  0  0  0  0  0  0  0  0  0
    1.3496   30.3544   34.2728 H   0  0  0  0  0  0  0  0  0  0  0  0
    2.1200   29.9125   32.7115 H   0  0  0  0  0  0  0  0  0  0  0  0
    0.3310   29.8822   32.8706 H   0  0  0  0  0  0  0  0  0  0  0  0
    0.5313   13.6723   43.7274 H   0  0  0  0  0  0  0  0  0  0  0  0
    0.4125   15.0617   42.5951 H   0  0  0  0  0  0  0  0  0  0  0  0
   -0.9832   13.9501   42.8021 H   0  0  0  0  0  0  0  0  0  0  0  0
    5.7288   21.0452   38.7954 H   0  0  0  0  0  0  0  0  0  0  0  0
    5.1598   21.5656   43.0104 H   0  0  0  0  0  0  0  0  0  0  0  0
   -0.2059   25.1396   32.4832 H   0  0  0  0  0  0  0  0  0  0  0  0
  1 38  1  0
  2 31  1  0
  3 10  1  0
  4 23  1  0
  5 26  1  0
  5 21  1  0
  5 13  1  0
  6 11  1  0
  7 30  1  0
  7 39  1  0
  8 38  2  0
 10 36  1  0
 13 24  1  0
 13 33  1  0
 14 20  1  0
 15  6  1  0
 15 28  1  0
 15 14  1  0
 16 27  1  0
 18 29  1  0
 18 17  2  3
 19 16  1  0
 21 19  1  0
 21 16  1  0
 22 33  1  0
 23  3  1  0
 24  9  1  0
 25 18  1  0
 26 22  1  0
 27 32  1  0
 28 12  1  0
 30  6  1  0
 31  1  2  0
 32 37  2  0
 32 31  1  0
 33 10  1  0
 34 27  2  3
 35  6  1  0
 37  8  1  0
 39 25  1  0
 39 28  1  0
  1 40  1  0
  3 41  1  0
  3 42  1  0
  4 43  1  0
  4 44  1  0
  4 45  1  0
  5 46  1  6
  7 47  1  0
  7 48  1  0
  8 49  1  0
  9 50  1  0
  9 51  1  0
  9 52  1  0
 10 53  1  1
 11 54  1  0
 11 55  1  0
 11 56  1  0
 12 57  1  0
 12 58  1  0
 12 59  1  0
 13 60  1  6
 14 61  1  0
 14 62  1  0
 15 63  1  6
 16 64  1  6
 17 65  1  0
 17 66  1  0
 20 67  1  0
 21 68  1  1
 22 69  1  0
 22 70  1  0
 23 71  1  0
 23 72  1  0
 24 73  1  0
 24 74  1  0
 25 75  1  0
 25 76  1  0
 28 77  1  1
 29 78  1  0
 29 79  1  0
 29 80  1  0
 30 81  1  0
 30 82  1  0
 34 83  1  0
 34 84  1  0
 35 85  1  0
 35 86  1  0
 35 87  1  0
 36 88  1  0
 36 89  1  0
 36 90  1  0
 37 91  1  0
 38 92  1  0
 39 93  1  6
M  CHG  3   4   1   9   1  30   1
M  END
>  <mol_id>  (17) 
2026-09-18-6fnk-s0-n100-0017

>  <rmsd_to_ref>  (17) 


$$$$

     RDKit          3D

 58 61  0  0  0  0  0  0  0  0999 V2000
    3.7880   22.2809   37.0027 C   0  0  0  0  0  0  0  0  0  0  0  0
   -0.3509   17.1607   43.9624 C   0  0  0  0  0  0  0  0  0  0  0  0
    4.5221   21.7166   36.0977 C   0  0  0  0  0  0  0  0  0  0  0  0
    1.6930   16.0425   36.0350 C   0  0  0  0  0  0  0  0  0  0  0  0
    2.0048   19.5100   42.2512 C   0  0  0  0  0  0  0  0  0  0  0  0
    2.2543   17.8574   37.4818 C   0  0  0  0  0  0  0  0  0  0  0  0
    3.5902   25.5322   32.6389 C   0  0  0  0  0  0  0  0  0  0  0  0
    2.3435   25.9105   33.2136 C   0  0  0  0  0  0  0  0  0  0  0  0
    3.2844   17.7379   36.8860 O   0  0  0  0  0  0  0  0  0  0  0  0
   -0.7738   18.3277   44.5207 N   0  0  0  0  0  0  0  0  0  0  0  0
   -0.7066   16.0590   44.2939 O   0  0  0  0  0  0  0  0  0  0  0  0
    4.0888   24.4588   33.2889 C   0  0  2  0  0  0  0  0  0  0  0  0
    3.4712   20.2051   40.3016 C   0  0  0  0  0  0  0  0  0  0  0  0
    5.5913   22.7812   35.4338 C   0  0  0  0  0  0  0  0  0  0  0  0
    3.4802   23.6725   34.4354 C   0  0  2  0  0  0  0  0  0  0  0  0
    1.2558   17.2014   36.9063 O   0  0  0  0  0  0  0  0  0  0  0  0
    0.5553   17.7319   42.9761 C   0  0  1  0  0  0  0  0  0  0  0  0
    2.6806   19.8353   41.3355 C   0  0  0  0  0  0  0  0  0  0  0  0
    2.3576   18.6231   38.7098 C   0  0  0  0  0  0  0  0  0  0  0  0
    0.8737   18.9144   43.0178 C   0  0  2  0  0  0  0  0  0  0  0  0
    3.2046   21.0654   37.9169 C   0  0  0  0  0  0  0  0  0  0  0  0
    2.2337   24.1325   34.8998 C   0  0  0  0  0  0  0  0  0  0  0  0
    1.2656   16.5251   42.0955 C   0  0  0  0  0  0  0  0  0  0  0  0
    4.6658   23.1934   34.3397 C   0  0  1  0  0  0  0  0  0  0  0  0
    3.0229   20.0231   38.8318 C   0  0  1  0  0  0  0  0  0  0  0  0
    1.6813   25.2471   34.2240 C   0  0  0  0  0  0  0  0  0  0  0  0
   -0.1930   19.3867   43.9072 C   0  0  0  0  0  0  0  0  0  0  0  0
   -0.6219   20.5949   44.0562 O   0  0  0  0  0  0  0  0  0  0  0  0
    5.3342   23.6150   33.1042 C   0  0  0  0  0  0  0  0  0  0  0  0
    2.9636   22.8389   36.5348 H   0  0  0  0  0  0  0  0  0  0  0  0
    4.3645   23.0001   37.6030 H   0  0  0  0  0  0  0  0  0  0  0  0
    5.0816   20.8884   36.5571 H   0  0  0  0  0  0  0  0  0  0  0  0
    3.8616   21.3488   35.2988 H   0  0  0  0  0  0  0  0  0  0  0  0
    1.9262   15.1745   36.6693 H   0  0  0  0  0  0  0  0  0  0  0  0
    0.8824   15.7809   35.3389 H   0  0  0  0  0  0  0  0  0  0  0  0
    2.5881   16.3303   35.4640 H   0  0  0  0  0  0  0  0  0  0  0  0
    4.0750   26.0390   31.7914 H   0  0  0  0  0  0  0  0  0  0  0  0
    1.8643   26.8165   32.8139 H   0  0  0  0  0  0  0  0  0  0  0  0
   -1.4425   18.3962   45.3011 H   0  0  0  0  0  0  0  0  0  0  0  0
    3.6718   21.2786   40.4336 H   0  0  0  0  0  0  0  0  0  0  0  0
    4.3090   19.4968   40.3813 H   0  0  0  0  0  0  0  0  0  0  0  0
    5.8565   23.6069   36.1103 H   0  0  0  0  0  0  0  0  0  0  0  0
    6.5898   22.4108   35.1578 H   0  0  0  0  0  0  0  0  0  0  0  0
    2.8871   23.0371   35.1096 H   0  0  0  0  0  0  0  0  0  0  0  0
    0.2573   18.4295   42.1794 H   0  0  0  0  0  0  0  0  0  0  0  0
    1.3235   18.7577   39.0600 H   0  0  0  0  0  0  0  0  0  0  0  0
    3.0807   18.0094   39.2671 H   0  0  0  0  0  0  0  0  0  0  0  0
    1.5537   18.7016   43.8559 H   0  0  0  0  0  0  0  0  0  0  0  0
    2.3598   21.6556   38.3017 H   0  0  0  0  0  0  0  0  0  0  0  0
    3.8784   20.3944   37.3641 H   0  0  0  0  0  0  0  0  0  0  0  0
    1.7162   23.6516   35.7429 H   0  0  0  0  0  0  0  0  0  0  0  0
    1.6367   15.7446   42.7758 H   0  0  0  0  0  0  0  0  0  0  0  0
    0.5264   16.0901   41.4067 H   0  0  0  0  0  0  0  0  0  0  0  0
    2.1059   16.9383   41.5183 H   0  0  0  0  0  0  0  0  0  0  0  0
    3.9884   19.5905   38.5308 H   0  0  0  0  0  0  0  0  0  0  0  0
    0.6813   25.5986   34.5177 H   0  0  0  0  0  0  0  0  0  0  0  0
    5.3567   22.9067   32.2629 H   0  0  0  0  0  0  0  0  0  0  0  0
    6.3764   23.9257   32.9388 H   0  0  0  0  0  0  0  0  0  0  0  0
  1 21  1  0
  2 11  2  0
  2 10  1  0
  3  1  1  0
  4 16  1  0
  6 19  1  0
  7  8  2  0
  8 26  1  0
  9  6  2  0
 12  7  1  0
 12 24  1  0
 12 15  1  0
 13 18  1  0
 14  3  1  0
 15 22  1  0
 16  6  1  0
 17 23  1  0
 17 20  1  0
 17  2  1  0
 18  5  3  0
 19 25  1  0
 20  5  1  0
 20 27  1  0
 24 15  1  0
 24 14  1  1
 25 21  1  0
 25 13  1  0
 26 22  2  0
 27 28  2  0
 27 10  1  0
 12 29  1  6
 29 24  1  0
  1 30  1  0
  1 31  1  0
  3 32  1  0
  3 33  1  0
  4 34  1  0
  4 35  1  0
  4 36  1  0
  7 37  1  0
  8 38  1  0
 10 39  1  0
 13 40  1  0
 13 41  1  0
 14 42  1  0
 14 43  1  0
 15 44  1  6
 17 45  1  6
 19 46  1  0
 19 47  1  0
 20 48  1  1
 21 49  1  0
 21 50  1  0
 22 51  1  0
 23 52  1  0
 23 53  1  0
 23 54  1  0
 25 55  1  6
 26 56  1  0
 29 57  1  0
 29 58  1  0
M  END
>  <mol_id>  (18) 
2026-09-18-6fnk-s0-n100-0018

>  <rmsd_to_ref>  (18) 


$$$$

     RDKit          3D

 66 68  0  0  0  0  0  0  0  0999 V2000
    0.7521   15.2299   38.6934 C   0  0  0  0  0  0  0  0  0  0  0  0
    3.6651   20.3113   40.4662 O   0  0  0  0  0  0  0  0  0  0  0  0
    4.1884   21.0249   38.4012 C   0  0  1  0  0  0  0  0  0  0  0  0
    2.9727   17.0775   38.2481 C   0  0  0  0  0  0  0  0  0  0  0  0
    0.4813   19.6391   43.6630 C   0  0  0  0  0  0  0  0  0  0  0  0
    2.2550   17.1639   36.8948 C   0  0  0  0  0  0  0  0  0  0  0  0
    1.1674   16.1935   39.6645 C   0  0  0  0  0  0  0  0  0  0  0  0
    2.4888   24.9085   30.0507 C   0  0  0  0  0  0  0  0  0  0  0  0
    1.3008   18.6649   42.7901 N   0  0  0  0  0  0  0  0  0  0  0  0
    3.8108   22.0045   37.2958 C   0  0  0  0  0  0  0  0  0  0  0  0
    2.2476   24.8600   29.2160 C   0  0  0  0  0  0  0  0  0  0  0  0
    2.0990   17.3047   39.4548 C   0  0  1  0  0  0  0  0  0  0  0  0
    4.2708   24.2862   31.1950 C   0  0  2  0  0  0  0  0  0  0  0  0
    2.6717   26.2016   32.2846 C   0  0  0  0  0  0  0  0  0  0  0  0
    2.7386   19.2200   40.9293 C   0  0  2  0  0  0  0  0  0  0  0  0
    6.5955   22.0878   38.6289 C   0  0  0  0  0  0  0  0  0  0  0  0
    3.2865   20.1673   43.1896 O   0  0  0  0  0  0  0  0  0  0  0  0
    0.6973   15.4226   37.3559 O   0  0  0  0  0  0  0  0  0  0  0  0
    1.0114   20.7932   42.9753 C   0  0  0  0  0  0  0  0  0  0  0  0
    3.3801   23.1501   32.5310 C   0  0  1  0  0  0  0  0  0  0  0  0
    2.0997   19.7722   42.2561 C   0  0  2  0  0  0  0  0  0  0  0  0
    5.4404   21.2447   39.0870 O   0  0  0  0  0  0  0  0  0  0  0  0
    2.8177   17.6797   40.7324 C   0  0  0  0  0  0  0  0  0  0  0  0
    5.2373   23.6818   32.2345 C   0  0  2  0  0  0  0  0  0  0  0  0
    4.3032   24.2337   33.2061 C   0  0  0  0  0  0  0  0  0  0  0  0
    3.0859   21.0622   39.4699 C   0  0  0  0  0  0  0  0  0  0  0  0
    3.1194   25.3577   31.3027 C   0  0  0  0  0  0  0  0  0  0  0  0
    0.8355   16.7308   36.9300 C   0  0  0  0  0  0  0  0  0  0  0  0
    1.4245   14.3707   38.8336 H   0  0  0  0  0  0  0  0  0  0  0  0
   -0.3232   15.1857   38.9208 H   0  0  0  0  0  0  0  0  0  0  0  0
    4.3043   20.0641   37.8785 H   0  0  0  0  0  0  0  0  0  0  0  0
    3.7708   17.8344   38.2587 H   0  0  0  0  0  0  0  0  0  0  0  0
    3.3439   16.0453   38.3307 H   0  0  0  0  0  0  0  0  0  0  0  0
   -0.6067   19.5214   43.5510 H   0  0  0  0  0  0  0  0  0  0  0  0
    0.5686   19.5807   44.7581 H   0  0  0  0  0  0  0  0  0  0  0  0
    2.7926   16.5258   36.1780 H   0  0  0  0  0  0  0  0  0  0  0  0
    2.2547   18.2249   36.6044 H   0  0  0  0  0  0  0  0  0  0  0  0
    0.2367   16.6645   40.0140 H   0  0  0  0  0  0  0  0  0  0  0  0
    1.7957   15.5501   40.2979 H   0  0  0  0  0  0  0  0  0  0  0  0
    1.8474   17.9798   43.3313 H   0  0  0  0  0  0  0  0  0  0  0  0
    0.8170   18.0242   42.1448 H   0  0  0  0  0  0  0  0  0  0  0  0
    3.4592   22.9455   37.7441 H   0  0  0  0  0  0  0  0  0  0  0  0
    4.6906   22.2043   36.6666 H   0  0  0  0  0  0  0  0  0  0  0  0
    3.0100   21.5705   36.6791 H   0  0  0  0  0  0  0  0  0  0  0  0
    1.9426   24.7987   28.1609 H   0  0  0  0  0  0  0  0  0  0  0  0
    1.5265   18.2086   39.1995 H   0  0  0  0  0  0  0  0  0  0  0  0
    4.6648   24.4913   30.1886 H   0  0  0  0  0  0  0  0  0  0  0  0
    3.3054   26.4141   33.1582 H   0  0  0  0  0  0  0  0  0  0  0  0
    1.6786   26.6669   32.1992 H   0  0  0  0  0  0  0  0  0  0  0  0
    2.1570   19.0283   40.0154 H   0  0  0  0  0  0  0  0  0  0  0  0
    7.1465   22.4617   39.5045 H   0  0  0  0  0  0  0  0  0  0  0  0
    7.2676   21.4808   38.0046 H   0  0  0  0  0  0  0  0  0  0  0  0
    6.2186   22.9384   38.0422 H   0  0  0  0  0  0  0  0  0  0  0  0
    3.0150   20.0529   44.1348 H   0  0  0  0  0  0  0  0  0  0  0  0
    0.3082   21.2771   42.2815 H   0  0  0  0  0  0  0  0  0  0  0  0
    1.3337   21.6935   43.5188 H   0  0  0  0  0  0  0  0  0  0  0  0
    2.5207   22.4858   32.7048 H   0  0  0  0  0  0  0  0  0  0  0  0
    2.3404   17.1747   41.5851 H   0  0  0  0  0  0  0  0  0  0  0  0
    3.8709   17.3684   40.6694 H   0  0  0  0  0  0  0  0  0  0  0  0
    6.3084   23.4410   32.1645 H   0  0  0  0  0  0  0  0  0  0  0  0
    4.0100   25.2833   33.0564 H   0  0  0  0  0  0  0  0  0  0  0  0
    4.4883   24.3324   34.2860 H   0  0  0  0  0  0  0  0  0  0  0  0
    2.8816   22.0899   39.8047 H   0  0  0  0  0  0  0  0  0  0  0  0
    2.1089   20.6891   39.1287 H   0  0  0  0  0  0  0  0  0  0  0  0
    0.2822   17.3872   37.6177 H   0  0  0  0  0  0  0  0  0  0  0  0
    0.4379   16.7958   35.9064 H   0  0  0  0  0  0  0  0  0  0  0  0
  1  7  1  0
  2 15  1  0
  3 10  1  0
  3 22  1  0
  3 26  1  0
  4 12  1  0
  6 28  1  0
  6  4  1  0
  8 27  1  0
  9  5  1  0
 11  8  3  0
 12  7  1  0
 12 23  1  0
 13 27  1  0
 13 24  1  0
 13 20  1  0
 15 23  1  0
 15 21  1  0
 16 22  1  0
 18  1  1  0
 19  5  1  0
 20 25  1  0
 21  9  1  0
 21 19  1  0
 21 17  1  1
 24 20  1  0
 24 25  1  0
 26  2  1  0
 27 14  2  3
 28 18  1  0
  1 29  1  0
  1 30  1  0
  3 31  1  6
  4 32  1  0
  4 33  1  0
  5 34  1  0
  5 35  1  0
  6 36  1  0
  6 37  1  0
  7 38  1  0
  7 39  1  0
  9 40  1  0
  9 41  1  0
 10 42  1  0
 10 43  1  0
 10 44  1  0
 11 45  1  0
 12 46  1  6
 13 47  1  6
 14 48  1  0
 14 49  1  0
 15 50  1  6
 16 51  1  0
 16 52  1  0
 16 53  1  0
 17 54  1  0
 19 55  1  0
 19 56  1  0
 20 57  1  1
 23 58  1  0
 23 59  1  0
 24 60  1  1
 25 61  1  0
 25 62  1  0
 26 63  1  0
 26 64  1  0
 28 65  1  0
 28 66  1  0
M  CHG  1   9   1
M  END
>  <mol_id>  (19) 
2026-09-18-6fnk-s0-n100-0019

>  <rmsd_to_ref>  (19) 


$$$$

     RDKit          3D

 66 67  0  0  0  0  0  0  0  0999 V2000
    1.5030   26.3330   33.1720 C   0  0  2  0  0  0  0  0  0  0  0  0
   -0.3630   15.2580   39.2450 C   0  0  0  0  0  0  0  0  0  0  0  0
    0.6150   28.6910   33.5220 C   0  0  0  0  0  0  0  0  0  0  0  0
    2.5810   25.8140   33.9700 C   0  0  0  0  0  0  0  0  0  0  0  0
    3.8180   21.4450   39.9420 C   0  0  0  0  0  0  0  0  0  0  0  0
    1.8070   18.1330   38.1600 C   0  0  0  0  0  0  0  0  0  0  0  0
    2.2810   20.3580   38.5020 N   0  0  0  0  0  0  0  0  0  0  0  0
    5.7320   21.6100   42.0490 C   0  0  0  0  0  0  0  0  0  0  0  0
    0.8070   17.1650   38.1500 N   0  0  0  0  0  0  0  0  0  0  0  0
    4.6060   20.8300   42.2700 N   0  0  0  0  0  0  0  0  0  0  0  0
    0.8960   15.9450   39.0460 C   0  0  0  0  0  0  0  0  0  0  0  0
    1.7770   26.5070   31.7450 F   0  0  0  0  0  0  0  0  0  0  0  0
    1.9660   19.1660   40.5220 C   0  0  0  0  0  0  0  0  0  0  0  0
    1.1960   27.6750   32.6040 C   0  0  0  0  0  0  0  0  0  0  0  0
    2.6690   17.9680   37.3540 O   0  0  0  0  0  0  0  0  0  0  0  0
    2.7930   20.1860   35.6770 C   0  0  0  0  0  0  0  0  0  0  0  0
   -1.5920   15.5180   38.2560 C   0  0  0  0  0  0  0  0  0  0  0  0
    3.6380   20.8010   41.2170 C   0  0  2  0  0  0  0  0  0  0  0  0
    4.5080   19.9410   43.4850 C   0  0  0  0  0  0  0  0  0  0  0  0
    3.1740   24.4900   33.7460 C   0  0  0  0  0  0  0  0  0  0  0  0
   -1.5150   16.9220   37.6420 C   0  0  0  0  0  0  0  0  0  0  0  0
    2.7720   21.5240   35.7590 C   0  0  0  0  0  0  0  0  0  0  0  0
    2.9320   21.4220   38.6660 C   0  0  0  0  0  0  0  0  0  0  0  0
    2.4080   23.4290   34.5190 C   0  0  0  0  0  0  0  0  0  0  0  0
    2.4870   22.4290   37.2280 S   0  0  0  0  0  0  0  0  0  0  0  0
    1.1910   28.1680   35.0510 S   0  0  0  0  0  0  0  0  0  0  0  0
   -0.0860   17.1260   37.0990 C   0  0  0  0  0  0  0  0  0  0  0  0
    2.4600   20.0670   41.3680 C   0  0  0  0  0  0  0  0  0  0  0  0
    2.0520   19.2010   39.1460 C   0  0  0  0  0  0  0  0  0  0  0  0
    3.1890   22.1940   34.5420 N   0  0  0  0  0  0  0  0  0  0  0  0
    0.8698   25.7617   33.8667 H   0  0  0  0  0  0  0  0  0  0  0  0
   -0.1450   14.1807   39.2011 H   0  0  0  0  0  0  0  0  0  0  0  0
   -0.7218   15.6688   40.2003 H   0  0  0  0  0  0  0  0  0  0  0  0
   -0.4843   28.6801   33.4848 H   0  0  0  0  0  0  0  0  0  0  0  0
    0.8978   29.7245   33.2732 H   0  0  0  0  0  0  0  0  0  0  0  0
    3.4052   26.5359   33.8728 H   0  0  0  0  0  0  0  0  0  0  0  0
    2.0875   25.6731   34.9429 H   0  0  0  0  0  0  0  0  0  0  0  0
    4.7314   22.0521   39.8576 H   0  0  0  0  0  0  0  0  0  0  0  0
    6.1654   21.9102   43.0144 H   0  0  0  0  0  0  0  0  0  0  0  0
    6.4731   21.0308   41.4787 H   0  0  0  0  0  0  0  0  0  0  0  0
    5.4502   22.5074   41.4787 H   0  0  0  0  0  0  0  0  0  0  0  0
    1.6069   15.2373   38.5946 H   0  0  0  0  0  0  0  0  0  0  0  0
    1.2186   16.3035   40.0346 H   0  0  0  0  0  0  0  0  0  0  0  0
    1.4369   18.3088   40.9640 H   0  0  0  0  0  0  0  0  0  0  0  0
    2.1352   28.0878   32.2071 H   0  0  0  0  0  0  0  0  0  0  0  0
    0.4109   27.4906   31.8559 H   0  0  0  0  0  0  0  0  0  0  0  0
    2.9803   19.6971   34.7096 H   0  0  0  0  0  0  0  0  0  0  0  0
    2.6230   19.5771   36.5772 H   0  0  0  0  0  0  0  0  0  0  0  0
   -1.5690   14.7706   37.4492 H   0  0  0  0  0  0  0  0  0  0  0  0
   -2.5271   15.4367   38.8295 H   0  0  0  0  0  0  0  0  0  0  0  0
    3.1279   21.6980   41.5981 H   0  0  0  0  0  0  0  0  0  0  0  0
    4.5757   20.5551   44.3951 H   0  0  0  0  0  0  0  0  0  0  0  0
    3.5457   19.4083   43.4729 H   0  0  0  0  0  0  0  0  0  0  0  0
    5.3312   19.2114   43.4729 H   0  0  0  0  0  0  0  0  0  0  0  0
    3.1375   24.2534   32.6724 H   0  0  0  0  0  0  0  0  0  0  0  0
    4.2171   24.5024   34.0950 H   0  0  0  0  0  0  0  0  0  0  0  0
   -2.2425   17.0113   36.8218 H   0  0  0  0  0  0  0  0  0  0  0  0
   -1.7486   17.6843   38.3999 H   0  0  0  0  0  0  0  0  0  0  0  0
    2.2372   23.7756   35.5489 H   0  0  0  0  0  0  0  0  0  0  0  0
    1.4389   23.2446   34.0324 H   0  0  0  0  0  0  0  0  0  0  0  0
    0.4920   28.8026   36.0438 H   0  0  0  0  0  0  0  0  0  0  0  0
    0.1734   16.2932   36.4289 H   0  0  0  0  0  0  0  0  0  0  0  0
   -0.0381   18.0742   36.5434 H   0  0  0  0  0  0  0  0  0  0  0  0
    1.8786   20.2530   42.2831 H   0  0  0  0  0  0  0  0  0  0  0  0
    2.9785   21.6146   33.7168 H   0  0  0  0  0  0  0  0  0  0  0  0
    4.2034   22.3713   34.5201 H   0  0  0  0  0  0  0  0  0  0  0  0
  1 12  1  0
  1  4  1  0
  3 26  1  0
  5 18  1  0
  6 29  1  0
  7 23  1  0
  7 29  2  0
  8 10  1  0
  9  6  1  0
  9 11  1  0
 10 19  1  0
 11  2  1  0
 13 28  2  0
 14  1  1  0
 14  3  1  0
 15  6  2  0
 16 22  2  3
 17  2  1  0
 18 28  1  0
 18 10  1  0
 20  4  1  0
 20 24  1  0
 21 17  1  0
 22 25  1  0
 23  5  2  0
 24 30  1  0
 25 23  1  0
 27 21  1  0
 27  9  1  0
 29 13  1  0
 30 22  1  0
  1 31  1  6
  2 32  1  0
  2 33  1  0
  3 34  1  0
  3 35  1  0
  4 36  1  0
  4 37  1  0
  5 38  1  0
  8 39  1  0
  8 40  1  0
  8 41  1  0
 11 42  1  0
 11 43  1  0
 13 44  1  0
 14 45  1  0
 14 46  1  0
 16 47  1  0
 16 48  1  0
 17 49  1  0
 17 50  1  0
 18 51  1  1
 19 52  1  0
 19 53  1  0
 19 54  1  0
 20 55  1  0
 20 56  1  0
 21 57  1  0
 21 58  1  0
 24 59  1  0
 24 60  1  0
 26 61  1  0
 27 62  1  0
 27 63  1  0
 28 64  1  0
 30 65  1  0
 30 66  1  0
M  CHG  1  30   1
M  END
>  <mol_id>  (20) 
2026-09-18-6fnk-s0-n100-0020

>  <rmsd_to_ref>  (20) 


$$$$

     RDKit          3D

 59 60  0  0  0  0  0  0  0  0999 V2000
    3.1807   26.1819   33.8182 C   0  0  0  0  0  0  0  0  0  0  0  0
   -2.0508   15.2017   40.3552 O   0  0  0  0  0  0  0  0  0  0  0  0
   -1.0286   15.8643   39.7123 C   0  0  0  0  0  0  0  0  0  0  0  0
    3.4411   22.5939   35.6792 C   0  0  0  0  0  0  0  0  0  0  0  0
    4.2044   25.0051   33.3907 C   0  0  2  0  0  0  0  0  0  0  0  0
    3.8615   21.1438   37.6470 C   0  0  0  0  0  0  0  0  0  0  0  0
    3.2592   21.7695   34.9202 O   0  0  0  0  0  0  0  0  0  0  0  0
   -0.0887   16.6690   37.5238 C   0  0  0  0  0  0  0  0  0  0  0  0
    4.0783   26.4496   36.0596 C   0  0  0  0  0  0  0  0  0  0  0  0
   -1.1646   15.7048   42.5267 C   0  0  0  0  0  0  0  0  0  0  0  0
    1.1106   18.2320   43.6975 O   0  0  0  0  0  0  0  0  0  0  0  0
    3.9565   24.6456   31.9297 C   0  0  0  0  0  0  0  0  0  0  0  0
    1.0840   17.2919   39.6782 C   0  0  0  0  0  0  0  0  0  0  0  0
   -1.0366   15.8111   38.2560 C   0  0  0  0  0  0  0  0  0  0  0  0
    4.7043   24.2337   34.4325 C   0  0  0  0  0  0  0  0  0  0  0  0
   -2.1594   15.1364   41.6937 C   0  0  0  0  0  0  0  0  0  0  0  0
    0.4726   17.7793   44.9016 C   0  0  0  0  0  0  0  0  0  0  0  0
    0.0019   16.5500   41.9732 C   0  0  0  0  0  0  0  0  0  0  0  0
    5.3877   24.2532   31.6425 C   0  0  0  0  0  0  0  0  0  0  0  0
    2.9914   27.0285   35.1497 C   0  0  0  0  0  0  0  0  0  0  0  0
    3.4277   25.0152   36.4224 C   0  0  0  0  0  0  0  0  0  0  0  0
    3.8279   23.8970   35.5074 N   0  0  0  0  0  0  0  0  0  0  0  0
    1.0377   17.2311   38.1867 C   0  0  0  0  0  0  0  0  0  0  0  0
    1.0687   17.6340   42.4075 C   0  0  0  0  0  0  0  0  0  0  0  0
    0.0215   16.5893   40.4374 C   0  0  0  0  0  0  0  0  0  0  0  0
   -3.1899   14.6104   42.1748 O   0  0  0  0  0  0  0  0  0  0  0  0
    3.2098   22.1787   36.9655 O   0  0  0  0  0  0  0  0  0  0  0  0
    5.2362   21.7282   38.3004 C   0  0  0  0  0  0  0  0  0  0  0  0
    2.1922   25.7232   33.6683 H   0  0  0  0  0  0  0  0  0  0  0  0
    3.6816   26.9787   33.2488 H   0  0  0  0  0  0  0  0  0  0  0  0
    5.2843   25.1618   33.2516 H   0  0  0  0  0  0  0  0  0  0  0  0
    4.1021   20.3324   36.9443 H   0  0  0  0  0  0  0  0  0  0  0  0
    3.2090   20.7498   38.4401 H   0  0  0  0  0  0  0  0  0  0  0  0
   -0.2532   16.8766   36.4562 H   0  0  0  0  0  0  0  0  0  0  0  0
    4.2268   27.0668   36.9579 H   0  0  0  0  0  0  0  0  0  0  0  0
    5.0776   26.3968   35.6028 H   0  0  0  0  0  0  0  0  0  0  0  0
   -1.6973   16.3508   43.2400 H   0  0  0  0  0  0  0  0  0  0  0  0
   -0.6391   14.8095   42.8905 H   0  0  0  0  0  0  0  0  0  0  0  0
    3.2505   23.8109   31.8076 H   0  0  0  0  0  0  0  0  0  0  0  0
    3.4989   25.4117   31.2866 H   0  0  0  0  0  0  0  0  0  0  0  0
    1.8825   17.8415   40.1982 H   0  0  0  0  0  0  0  0  0  0  0  0
   -1.7312   15.1488   37.7183 H   0  0  0  0  0  0  0  0  0  0  0  0
    5.0616   23.2894   33.9960 H   0  0  0  0  0  0  0  0  0  0  0  0
    5.4710   24.8707   34.8976 H   0  0  0  0  0  0  0  0  0  0  0  0
    0.9718   18.2290   45.7725 H   0  0  0  0  0  0  0  0  0  0  0  0
   -0.5858   18.0787   44.8906 H   0  0  0  0  0  0  0  0  0  0  0  0
    0.5430   16.6834   44.9640 H   0  0  0  0  0  0  0  0  0  0  0  0
    5.9350   24.1431   32.5903 H   0  0  0  0  0  0  0  0  0  0  0  0
    5.4036   23.2982   31.0969 H   0  0  0  0  0  0  0  0  0  0  0  0
    5.8661   25.0326   31.0313 H   0  0  0  0  0  0  0  0  0  0  0  0
    3.1541   28.1009   34.9669 H   0  0  0  0  0  0  0  0  0  0  0  0
    1.9790   26.9619   35.5746 H   0  0  0  0  0  0  0  0  0  0  0  0
    3.7345   24.7483   37.4445 H   0  0  0  0  0  0  0  0  0  0  0  0
    2.3391   25.1312   36.3141 H   0  0  0  0  0  0  0  0  0  0  0  0
    1.8795   17.6232   37.5971 H   0  0  0  0  0  0  0  0  0  0  0  0
    1.8225   17.9435   41.6685 H   0  0  0  0  0  0  0  0  0  0  0  0
    5.1440   21.7426   39.3965 H   0  0  0  0  0  0  0  0  0  0  0  0
    6.0812   21.0857   38.0119 H   0  0  0  0  0  0  0  0  0  0  0  0
    5.4108   22.7505   37.9336 H   0  0  0  0  0  0  0  0  0  0  0  0
  1 20  1  0
  2 16  1  0
  3  2  1  0
  3 25  1  0
  4 27  1  0
  5 12  1  0
  5  1  1  0
  5 15  1  0
  6 28  1  0
  7  4  2  0
  8 23  2  0
  8 14  1  0
  9 21  1  0
 11 17  1  0
 13 25  2  0
 14  3  2  0
 15 22  1  0
 16 26  2  0
 16 10  1  0
 18 24  2  3
 18 10  1  0
 19 12  1  0
 20  9  1  0
 22  4  1  0
 22 21  1  0
 23 13  1  0
 24 11  1  0
 25 18  1  0
 27  6  1  0
  1 29  1  0
  1 30  1  0
  5 31  1  6
  6 32  1  0
  6 33  1  0
  8 34  1  0
  9 35  1  0
  9 36  1  0
 10 37  1  0
 10 38  1  0
 12 39  1  0
 12 40  1  0
 13 41  1  0
 14 42  1  0
 15 43  1  0
 15 44  1  0
 17 45  1  0
 17 46  1  0
 17 47  1  0
 19 48  1  0
 19 49  1  0
 19 50  1  0
 20 51  1  0
 20 52  1  0
 21 53  1  0
 21 54  1  0
 23 55  1  0
 24 56  1  0
 28 57  1  0
 28 58  1  0
 28 59  1  0
M  END
>  <mol_id>  (21) 
2026-09-18-6fnk-s0-n100-0021

>  <rmsd_to_ref>  (21) 


$$$$

     RDKit          3D

 62 64  0  0  0  0  0  0  0  0999 V2000
    2.7738   28.0503   31.6505 C   0  0  0  0  0  0  0  0  0  0  0  0
    1.4906   26.4313   32.9436 C   0  0  2  0  0  0  0  0  0  0  0  0
    2.6581   26.4214   32.0654 C   0  0  0  0  0  0  0  0  0  0  0  0
   -0.9142   14.8379   38.4828 C   0  0  2  0  0  0  0  0  0  0  0  0
    1.1813   18.1387   41.8962 O   0  0  0  0  0  0  0  0  0  0  0  0
    1.3342   18.7307   40.7122 C   0  0  0  0  0  0  0  0  0  0  0  0
    0.7277   16.5196   39.5558 C   0  0  1  0  0  0  0  0  0  0  0  0
    2.2916   25.7848   30.6653 C   0  0  0  0  0  0  0  0  0  0  0  0
   -0.2133   15.1806   37.2707 C   0  0  0  0  0  0  0  0  0  0  0  0
   -0.0192   15.2008   39.6087 C   0  0  0  0  0  0  0  0  0  0  0  0
    2.6861   25.0857   34.2690 C   0  0  0  0  0  0  0  0  0  0  0  0
    2.3028   20.0321   38.0554 O   0  0  0  0  0  0  0  0  0  0  0  0
    3.8907   21.2577   39.2563 C   0  0  0  0  0  0  0  0  0  0  0  0
    0.8794   15.7142   37.3120 C   0  0  0  0  0  0  0  0  0  0  0  0
    1.4371   16.5685   38.3098 C   0  0  0  0  0  0  0  0  0  0  0  0
    4.1836   20.9691   41.6642 C   0  0  0  0  0  0  0  0  0  0  0  0
    0.2246   26.8428   32.0380 C   0  0  0  0  0  0  0  0  0  0  0  0
    2.3857   19.7145   40.5096 C   0  0  0  0  0  0  0  0  0  0  0  0
    3.1987   20.0425   41.6670 C   0  0  0  0  0  0  0  0  0  0  0  0
    2.8066   20.2880   39.2994 C   0  0  0  0  0  0  0  0  0  0  0  0
    0.7786   18.1987   39.7143 N   0  0  0  0  0  0  0  0  0  0  0  0
    4.4959   21.6161   40.4242 C   0  0  0  0  0  0  0  0  0  0  0  0
    1.5892   26.2024   34.3096 C   0  0  0  0  0  0  0  0  0  0  0  0
    2.4223   24.8643   32.9217 C   0  0  1  0  0  0  0  0  0  0  0  0
    2.3755   21.5652   36.0804 C   0  0  0  0  0  0  0  0  0  0  0  0
    1.8308   20.9971   37.1082 C   0  0  0  0  0  0  0  0  0  0  0  0
   -1.5960   13.4625   38.5006 C   0  0  0  0  0  0  0  0  0  0  0  0
    2.6486   28.6680   32.5519 H   0  0  0  0  0  0  0  0  0  0  0  0
    3.7607   28.2462   31.2060 H   0  0  0  0  0  0  0  0  0  0  0  0
    1.9877   28.3000   30.9228 H   0  0  0  0  0  0  0  0  0  0  0  0
   -1.8366   15.4287   38.5830 H   0  0  0  0  0  0  0  0  0  0  0  0
    0.6809   16.2878   40.6302 H   0  0  0  0  0  0  0  0  0  0  0  0
    1.6862   24.8797   30.8212 H   0  0  0  0  0  0  0  0  0  0  0  0
    1.7183   26.5115   30.0708 H   0  0  0  0  0  0  0  0  0  0  0  0
    3.2154   25.5204   30.1296 H   0  0  0  0  0  0  0  0  0  0  0  0
   -0.0840   14.2445   36.7079 H   0  0  0  0  0  0  0  0  0  0  0  0
   -0.8505   15.9636   36.8337 H   0  0  0  0  0  0  0  0  0  0  0  0
   -0.6360   15.2154   40.5195 H   0  0  0  0  0  0  0  0  0  0  0  0
    0.7775   14.4434   39.5684 H   0  0  0  0  0  0  0  0  0  0  0  0
    3.7039   25.4503   34.4719 H   0  0  0  0  0  0  0  0  0  0  0  0
    2.6531   24.2507   34.9843 H   0  0  0  0  0  0  0  0  0  0  0  0
    4.2157   21.6930   38.2999 H   0  0  0  0  0  0  0  0  0  0  0  0
    1.5913   14.8784   37.2428 H   0  0  0  0  0  0  0  0  0  0  0  0
    0.7008   16.4799   36.5428 H   0  0  0  0  0  0  0  0  0  0  0  0
    2.4790   16.2639   38.4884 H   0  0  0  0  0  0  0  0  0  0  0  0
    1.3671   17.5998   37.9338 H   0  0  0  0  0  0  0  0  0  0  0  0
    4.7288   21.2189   42.5864 H   0  0  0  0  0  0  0  0  0  0  0  0
   -0.6819   26.8596   32.6608 H   0  0  0  0  0  0  0  0  0  0  0  0
    0.3914   27.8408   31.6064 H   0  0  0  0  0  0  0  0  0  0  0  0
    0.0993   26.1093   31.2279 H   0  0  0  0  0  0  0  0  0  0  0  0
    3.0012   19.5033   42.6051 H   0  0  0  0  0  0  0  0  0  0  0  0
    0.3521   18.7934   38.9895 H   0  0  0  0  0  0  0  0  0  0  0  0
    5.2435   22.4231   40.4145 H   0  0  0  0  0  0  0  0  0  0  0  0
    1.9243   27.0951   34.8580 H   0  0  0  0  0  0  0  0  0  0  0  0
    0.6524   25.9384   34.8222 H   0  0  0  0  0  0  0  0  0  0  0  0
    2.5287   23.8064   32.6397 H   0  0  0  0  0  0  0  0  0  0  0  0
    1.8037   22.2944   35.4877 H   0  0  0  0  0  0  0  0  0  0  0  0
    3.4102   21.3186   35.7997 H   0  0  0  0  0  0  0  0  0  0  0  0
    0.7958   21.3214   37.2912 H   0  0  0  0  0  0  0  0  0  0  0  0
   -1.8127   13.1741   39.5397 H   0  0  0  0  0  0  0  0  0  0  0  0
   -2.5353   13.5115   37.9303 H   0  0  0  0  0  0  0  0  0  0  0  0
   -0.9286   12.7165   38.0446 H   0  0  0  0  0  0  0  0  0  0  0  0
  1  3  1  0
  2 17  1  6
  2 24  1  0
  2 23  1  0
  3  2  1  0
  3 24  1  0
  4 27  1  0
  4 10  1  0
  6  5  2  0
  7 21  1  0
  7 10  1  0
  8  3  1  0
  9  4  1  0
 11 23  1  0
 12 20  1  0
 13 20  2  0
 13 22  1  0
 14  9  1  0
 14 15  1  0
 15  7  1  0
 16 19  1  0
 18  6  1  0
 18 19  2  0
 20 18  1  0
 21  6  1  0
 22 16  2  0
 24 11  1  0
 25 26  2  3
 26 12  1  0
  1 28  1  0
  1 29  1  0
  1 30  1  0
  4 31  1  1
  7 32  1  1
  8 33  1  0
  8 34  1  0
  8 35  1  0
  9 36  1  0
  9 37  1  0
 10 38  1  0
 10 39  1  0
 11 40  1  0
 11 41  1  0
 13 42  1  0
 14 43  1  0
 14 44  1  0
 15 45  1  0
 15 46  1  0
 16 47  1  0
 17 48  1  0
 17 49  1  0
 17 50  1  0
 19 51  1  0
 21 52  1  0
 22 53  1  0
 23 54  1  0
 23 55  1  0
 24 56  1  6
 25 57  1  0
 25 58  1  0
 26 59  1  0
 27 60  1  0
 27 61  1  0
 27 62  1  0
M  END
>  <mol_id>  (22) 
2026-09-18-6fnk-s0-n100-0022

>  <rmsd_to_ref>  (22) 


$$$$

     RDKit          3D

 63 63  0  0  0  0  0  0  0  0999 V2000
    2.2933   15.9444   37.3302 C   0  0  0  0  0  0  0  0  0  0  0  0
    2.0037   17.7586   39.3269 C   0  0  0  0  0  0  0  0  0  0  0  0
    2.2051   20.3218   38.2644 O   0  0  0  0  0  0  0  0  0  0  0  0
    0.0688   26.6183   32.4539 C   0  0  0  0  0  0  0  0  0  0  0  0
    2.1021   22.7217   35.2441 C   0  0  0  0  0  0  0  0  0  0  0  0
    2.8317   18.5673   41.8198 C   0  0  0  0  0  0  0  0  0  0  0  0
   -1.2976   15.4203   38.8558 C   0  0  0  0  0  0  0  0  0  0  0  0
    4.9303   19.9392   41.6198 C   0  0  0  0  0  0  0  0  0  0  0  0
    2.5816   21.4936   37.3761 C   0  0  1  0  0  0  0  0  0  0  0  0
    0.6937   16.9007   39.7571 C   0  0  0  0  0  0  0  0  0  0  0  0
    3.6052   19.7428   42.3686 C   0  0  0  0  0  0  0  0  0  0  0  0
    0.2246   15.7183   38.8256 C   0  0  2  0  0  0  0  0  0  0  0  0
    0.2119   25.5210   31.4431 C   0  0  0  0  0  0  0  0  0  0  0  0
    1.7279   24.0035   35.4145 O   0  0  0  0  0  0  0  0  0  0  0  0
    2.5752   20.2096   39.6472 C   0  0  0  0  0  0  0  0  0  0  0  0
    4.1220   21.5402   36.9621 C   0  0  0  0  0  0  0  0  0  0  0  0
   -0.5970   27.7564   31.8131 C   0  0  0  0  0  0  0  0  0  0  0  0
    2.7511   17.1698   38.0748 C   0  0  0  0  0  0  0  0  0  0  0  0
    0.6166   26.1267   34.9917 C   0  0  0  0  0  0  0  0  0  0  0  0
    0.7143   15.7737   37.3361 C   0  0  0  0  0  0  0  0  0  0  0  0
    2.6158   22.4085   34.1457 O   0  0  0  0  0  0  0  0  0  0  0  0
    1.6897   21.7969   36.2541 C   0  0  0  0  0  0  0  0  0  0  0  0
    0.5526   27.1226   33.8584 C   0  0  0  0  0  0  0  0  0  0  0  0
    2.3474   18.8559   40.3351 C   0  0  0  0  0  0  0  0  0  0  0  0
    0.8253   24.6551   34.5591 C   0  0  0  0  0  0  0  0  0  0  0  0
    2.6347   16.0191   36.2872 H   0  0  0  0  0  0  0  0  0  0  0  0
    2.7227   15.0686   37.8388 H   0  0  0  0  0  0  0  0  0  0  0  0
    0.1983   25.6779   33.0098 H   0  0  0  0  0  0  0  0  0  0  0  0
    3.4780   17.6773   41.8220 H   0  0  0  0  0  0  0  0  0  0  0  0
    1.9479   18.3997   42.4531 H   0  0  0  0  0  0  0  0  0  0  0  0
   -1.6391   15.3616   39.8998 H   0  0  0  0  0  0  0  0  0  0  0  0
   -1.8392   16.2253   38.3375 H   0  0  0  0  0  0  0  0  0  0  0  0
   -1.4938   14.4626   38.3515 H   0  0  0  0  0  0  0  0  0  0  0  0
    5.7444   20.0801   42.3460 H   0  0  0  0  0  0  0  0  0  0  0  0
    5.1381   19.0522   41.0034 H   0  0  0  0  0  0  0  0  0  0  0  0
    4.8581   20.8263   40.9733 H   0  0  0  0  0  0  0  0  0  0  0  0
    2.4115   22.3334   38.0658 H   0  0  0  0  0  0  0  0  0  0  0  0
    0.8996   16.4702   40.7482 H   0  0  0  0  0  0  0  0  0  0  0  0
   -0.1309   17.6268   39.7036 H   0  0  0  0  0  0  0  0  0  0  0  0
    2.9961   20.6527   42.2632 H   0  0  0  0  0  0  0  0  0  0  0  0
    3.8313   19.5450   43.4268 H   0  0  0  0  0  0  0  0  0  0  0  0
    0.7501   14.8794   39.3052 H   0  0  0  0  0  0  0  0  0  0  0  0
    0.6602   24.6379   31.9217 H   0  0  0  0  0  0  0  0  0  0  0  0
   -0.7790   25.2585   31.0442 H   0  0  0  0  0  0  0  0  0  0  0  0
    0.8596   25.8613   30.6217 H   0  0  0  0  0  0  0  0  0  0  0  0
    3.0060   21.0618   40.1935 H   0  0  0  0  0  0  0  0  0  0  0  0
    4.7432   21.6066   37.8674 H   0  0  0  0  0  0  0  0  0  0  0  0
    4.3801   20.6265   36.4065 H   0  0  0  0  0  0  0  0  0  0  0  0
    4.3045   22.4194   36.3267 H   0  0  0  0  0  0  0  0  0  0  0  0
   -0.7526   28.5546   32.5538 H   0  0  0  0  0  0  0  0  0  0  0  0
    0.0311   28.1346   30.9931 H   0  0  0  0  0  0  0  0  0  0  0  0
   -1.5691   27.4341   31.4117 H   0  0  0  0  0  0  0  0  0  0  0  0
    3.6590   17.6819   37.7236 H   0  0  0  0  0  0  0  0  0  0  0  0
    1.4517   26.4109   35.6488 H   0  0  0  0  0  0  0  0  0  0  0  0
   -0.3636   26.1645   35.4895 H   0  0  0  0  0  0  0  0  0  0  0  0
    0.2470   16.6275   36.8235 H   0  0  0  0  0  0  0  0  0  0  0  0
    0.4335   14.8480   36.8126 H   0  0  0  0  0  0  0  0  0  0  0  0
    0.7587   22.1923   36.6861 H   0  0  0  0  0  0  0  0  0  0  0  0
    1.6292   20.8411   35.7129 H   0  0  0  0  0  0  0  0  0  0  0  0
    1.5650   27.5322   33.7269 H   0  0  0  0  0  0  0  0  0  0  0  0
   -0.2198   27.8410   34.1706 H   0  0  0  0  0  0  0  0  0  0  0  0
   -0.1411   24.1307   34.5887 H   0  0  0  0  0  0  0  0  0  0  0  0
    1.2379   24.6442   33.5394 H   0  0  0  0  0  0  0  0  0  0  0  0
  1 18  1  0
  2 10  1  0
  2 24  1  0
  3 15  1  0
  4 23  1  0
  5 14  1  0
  5 22  1  0
  6 11  1  0
  8 11  1  0
  9 16  1  0
  9  3  1  0
 12  7  1  0
 12 10  1  0
 13  4  1  0
 15 24  2  3
 17  4  1  0
 18  2  2  0
 20  1  1  0
 20 12  1  0
 21  5  2  0
 22  9  1  0
 23 19  1  0
 24  6  1  0
 25 19  1  0
 25 14  1  0
  1 26  1  0
  1 27  1  0
  4 28  1  0
  6 29  1  0
  6 30  1  0
  7 31  1  0
  7 32  1  0
  7 33  1  0
  8 34  1  0
  8 35  1  0
  8 36  1  0
  9 37  1  1
 10 38  1  0
 10 39  1  0
 11 40  1  0
 11 41  1  0
 12 42  1  1
 13 43  1  0
 13 44  1  0
 13 45  1  0
 15 46  1  0
 16 47  1  0
 16 48  1  0
 16 49  1  0
 17 50  1  0
 17 51  1  0
 17 52  1  0
 18 53  1  0
 19 54  1  0
 19 55  1  0
 20 56  1  0
 20 57  1  0
 22 58  1  0
 22 59  1  0
 23 60  1  0
 23 61  1  0
 25 62  1  0
 25 63  1  0
M  END
>  <mol_id>  (23) 
2026-09-18-6fnk-s0-n100-0023

>  <rmsd_to_ref>  (23) 


$$$$

     RDKit          3D

 68 69  0  0  0  0  0  0  0  0999 V2000
    1.5438   26.3227   31.5267 C   0  0  0  0  0  0  0  0  0  0  0  0
    0.2803   15.8239   40.8422 O   0  0  0  0  0  0  0  0  0  0  0  0
    2.7021   20.9290   39.6147 C   0  0  2  0  0  0  0  0  0  0  0  0
    1.0556   15.7177   37.3772 C   0  0  0  0  0  0  0  0  0  0  0  0
    2.1941   19.6123   39.7793 N   0  0  0  0  0  0  0  0  0  0  0  0
    4.5700   23.6890   35.7315 C   0  0  1  0  0  0  0  0  0  0  0  0
    1.6373   25.3327   28.3380 C   0  0  0  0  0  0  0  0  0  0  0  0
    1.6243   21.6185   39.6617 C   0  0  0  0  0  0  0  0  0  0  0  0
    1.1850   17.9868   40.2126 C   0  0  2  0  0  0  0  0  0  0  0  0
    0.9274   16.8661   39.8323 C   0  0  0  0  0  0  0  0  0  0  0  0
    0.9261   16.5220   36.2168 O   0  0  0  0  0  0  0  0  0  0  0  0
    3.1284   24.7912   32.7732 C   0  0  0  0  0  0  0  0  0  0  0  0
    4.3400   22.3403   36.5635 C   0  0  1  0  0  0  0  0  0  0  0  0
    4.5020   24.7148   33.1436 C   0  0  0  0  0  0  0  0  0  0  0  0
    5.7613   22.9691   36.5777 C   0  0  0  0  0  0  0  0  0  0  0  0
    5.2976   23.7391   34.2388 C   0  0  1  0  0  0  0  0  0  0  0  0
    6.8293   24.0792   34.3873 C   0  0  0  0  0  0  0  0  0  0  0  0
    4.3600   21.6012   37.9415 C   0  0  0  0  0  0  0  0  0  0  0  0
    1.2058   16.6122   38.4844 C   0  0  0  0  0  0  0  0  0  0  0  0
    1.0117   19.6166   42.6254 C   0  0  0  0  0  0  0  0  0  0  0  0
    1.7688   17.8220   38.0910 C   0  0  0  0  0  0  0  0  0  0  0  0
    3.1258   20.7462   38.1139 C   0  0  0  0  0  0  0  0  0  0  0  0
    1.2962   25.9448   29.7399 C   0  0  0  0  0  0  0  0  0  0  0  0
    2.1128   18.4216   39.1067 C   0  0  1  0  0  0  0  0  0  0  0  0
    1.3523   18.5035   41.8976 C   0  0  0  0  0  0  0  0  0  0  0  0
    3.0738   25.8769   31.7194 C   0  0  0  0  0  0  0  0  0  0  0  0
    0.8673   25.7330   32.1628 H   0  0  0  0  0  0  0  0  0  0  0  0
    1.3351   27.3663   31.8046 H   0  0  0  0  0  0  0  0  0  0  0  0
    0.0674   14.9062   40.5376 H   0  0  0  0  0  0  0  0  0  0  0  0
    3.4720   21.3469   40.2800 H   0  0  0  0  0  0  0  0  0  0  0  0
    1.9397   15.0688   37.2918 H   0  0  0  0  0  0  0  0  0  0  0  0
    0.1765   15.0699   37.5091 H   0  0  0  0  0  0  0  0  0  0  0  0
    2.6648   19.3215   40.6480 H   0  0  0  0  0  0  0  0  0  0  0  0
    1.2486   19.8937   39.4831 H   0  0  0  0  0  0  0  0  0  0  0  0
    3.8763   24.5372   35.6364 H   0  0  0  0  0  0  0  0  0  0  0  0
    2.3053   24.4684   28.4680 H   0  0  0  0  0  0  0  0  0  0  0  0
    0.7096   25.0080   27.8441 H   0  0  0  0  0  0  0  0  0  0  0  0
    2.1365   26.0919   27.7180 H   0  0  0  0  0  0  0  0  0  0  0  0
    1.3883   21.8591   40.7088 H   0  0  0  0  0  0  0  0  0  0  0  0
    1.7601   22.5503   39.0930 H   0  0  0  0  0  0  0  0  0  0  0  0
    0.7986   21.0386   39.2237 H   0  0  0  0  0  0  0  0  0  0  0  0
    0.2923   18.6061   40.3845 H   0  0  0  0  0  0  0  0  0  0  0  0
    0.8535   17.4733   36.4811 H   0  0  0  0  0  0  0  0  0  0  0  0
    2.7842   23.8317   32.3597 H   0  0  0  0  0  0  0  0  0  0  0  0
    2.4775   25.0121   33.6321 H   0  0  0  0  0  0  0  0  0  0  0  0
    3.4817   21.7197   36.2664 H   0  0  0  0  0  0  0  0  0  0  0  0
    5.0181   24.5154   32.1930 H   0  0  0  0  0  0  0  0  0  0  0  0
    4.5253   25.6339   33.7474 H   0  0  0  0  0  0  0  0  0  0  0  0
    6.5872   22.4714   36.0484 H   0  0  0  0  0  0  0  0  0  0  0  0
    6.4586   23.2927   37.3645 H   0  0  0  0  0  0  0  0  0  0  0  0
    5.2229   22.7333   33.7995 H   0  0  0  0  0  0  0  0  0  0  0  0
    7.0795   24.1859   35.4532 H   0  0  0  0  0  0  0  0  0  0  0  0
    7.4292   23.2679   33.9492 H   0  0  0  0  0  0  0  0  0  0  0  0
    7.0482   25.0212   33.8632 H   0  0  0  0  0  0  0  0  0  0  0  0
    5.2523   20.9599   37.9931 H   0  0  0  0  0  0  0  0  0  0  0  0
    4.3804   22.3539   38.7434 H   0  0  0  0  0  0  0  0  0  0  0  0
    1.2482   19.6656   43.6985 H   0  0  0  0  0  0  0  0  0  0  0  0
    0.5024   20.4595   42.1354 H   0  0  0  0  0  0  0  0  0  0  0  0
    2.6438   17.6374   37.4505 H   0  0  0  0  0  0  0  0  0  0  0  0
    1.0417   18.4176   37.5196 H   0  0  0  0  0  0  0  0  0  0  0  0
    2.3238   21.0873   37.4428 H   0  0  0  0  0  0  0  0  0  0  0  0
    3.3194   19.6917   37.8677 H   0  0  0  0  0  0  0  0  0  0  0  0
    1.1864   26.9860   29.4022 H   0  0  0  0  0  0  0  0  0  0  0  0
    0.9637   24.9418   30.0455 H   0  0  0  0  0  0  0  0  0  0  0  0
    3.1011   18.3121   38.6363 H   0  0  0  0  0  0  0  0  0  0  0  0
    1.8539   17.7437   42.5149 H   0  0  0  0  0  0  0  0  0  0  0  0
    3.4707   25.4914   30.7686 H   0  0  0  0  0  0  0  0  0  0  0  0
    3.6809   26.7386   32.0339 H   0  0  0  0  0  0  0  0  0  0  0  0
  1 26  1  0
  3  8  1  0
  3  5  1  0
  4 19  1  0
  6 16  1  0
  6 13  1  0
  6 15  1  0
  7 23  1  0
  9 25  1  0
 10  9  1  0
 10  2  1  0
 11  4  1  0
 12 14  1  0
 13 15  1  0
 13 18  1  0
 14 16  1  0
 16 17  1  0
 18 22  1  0
 19 10  2  0
 21 19  1  0
 21 24  1  0
 22  3  1  0
 23  1  1  0
 24  5  1  0
 24  9  1  0
 25 20  2  3
 26 12  1  0
  1 27  1  0
  1 28  1  0
  2 29  1  0
  3 30  1  1
  4 31  1  0
  4 32  1  0
  5 33  1  0
  5 34  1  0
  6 35  1  1
  7 36  1  0
  7 37  1  0
  7 38  1  0
  8 39  1  0
  8 40  1  0
  8 41  1  0
  9 42  1  6
 11 43  1  0
 12 44  1  0
 12 45  1  0
 13 46  1  6
 14 47  1  0
 14 48  1  0
 15 49  1  0
 15 50  1  0
 16 51  1  6
 17 52  1  0
 17 53  1  0
 17 54  1  0
 18 55  1  0
 18 56  1  0
 20 57  1  0
 20 58  1  0
 21 59  1  0
 21 60  1  0
 22 61  1  0
 22 62  1  0
 23 63  1  0
 23 64  1  0
 24 65  1  1
 25 66  1  0
 26 67  1  0
 26 68  1  0
M  CHG  1   5   1
M  END
>  <mol_id>  (24) 
2026-09-18-6fnk-s0-n100-0024

>  <rmsd_to_ref>  (24) 


$$$$

     RDKit          3D

 97 99  0  0  0  0  0  0  0  0999 V2000
    0.0755   16.7072   38.4118 O   0  0  0  0  0  0  0  0  0  0  0  0
    2.9511   19.5350   41.9727 C   0  0  2  0  0  0  0  0  0  0  0  0
    0.8098   13.9649   39.8167 C   0  0  2  0  0  0  0  0  0  0  0  0
    2.1476   19.0801   43.3758 C   0  0  0  0  0  0  0  0  0  0  0  0
    3.1917   22.0861   36.9882 C   0  0  0  0  0  0  0  0  0  0  0  0
    0.6430   15.2523   41.5835 O   0  0  0  0  0  0  0  0  0  0  0  0
    3.9855   20.8638   41.8515 S   0  0  0  0  0  0  0  0  0  0  0  0
    4.3807   24.3200   34.3503 C   0  0  0  0  0  0  0  0  0  0  0  0
    0.5470   26.6732   33.2291 C   0  0  1  0  0  0  0  0  0  0  0  0
    4.3960   21.9078   39.5926 C   0  0  1  0  0  0  0  0  0  0  0  0
    3.1788   24.2035   34.4187 C   0  0  2  0  0  0  0  0  0  0  0  0
   -0.1660   25.7547   32.7113 C   0  0  0  0  0  0  0  0  0  0  0  0
    0.9563   11.7263   40.1246 C   0  0  0  0  0  0  0  0  0  0  0  0
   -1.6384   29.5252   33.8393 C   0  0  0  0  0  0  0  0  0  0  0  0
    0.6277   29.0739   34.3079 C   0  0  0  0  0  0  0  0  0  0  0  0
   -1.9254   15.5591   38.8602 C   0  0  0  0  0  0  0  0  0  0  0  0
    0.3038   17.4419   43.1870 O   0  0  0  0  0  0  0  0  0  0  0  0
    3.4230   22.1620   35.6944 C   0  0  0  0  0  0  0  0  0  0  0  0
    1.8706   16.9651   36.9847 O   0  0  0  0  0  0  0  0  0  0  0  0
   -0.5149   30.4444   34.6116 S   0  0  0  0  0  0  0  0  0  0  0  0
   -0.3836   15.7732   38.8401 C   0  0  2  0  0  0  0  0  0  0  0  0
    1.0509   18.5019   42.4488 C   0  0  2  0  0  0  0  0  0  0  0  0
    3.4665   15.7650   38.2445 N   0  0  0  0  0  0  0  0  0  0  0  0
    4.2619   22.4087   38.3678 C   0  0  1  0  0  0  0  0  0  0  0  0
    6.0844   23.8039   37.2569 C   0  0  0  0  0  0  0  0  0  0  0  0
    0.3075   15.4002   40.2146 C   0  0  2  0  0  0  0  0  0  0  0  0
    1.0992   24.1216   35.1410 O   0  0  0  0  0  0  0  0  0  0  0  0
    3.4671   20.9255   40.2751 C   0  0  0  0  0  0  0  0  0  0  0  0
    0.6812   13.4531   38.2741 N   0  0  0  0  0  0  0  0  0  0  0  0
   -0.6528   12.5156   41.7771 O   0  0  0  0  0  0  0  0  0  0  0  0
   -1.3471   28.3018   33.4844 C   0  0  0  0  0  0  0  0  0  0  0  0
    1.6029   18.2152   41.0970 C   0  0  0  0  0  0  0  0  0  0  0  0
    1.8823   24.6877   34.5679 C   0  0  0  0  0  0  0  0  0  0  0  0
    0.0149   12.9328   40.4025 C   0  0  1  0  0  0  0  0  0  0  0  0
   -0.1970   27.7907   34.1591 C   0  0  1  0  0  0  0  0  0  0  0  0
    1.7024   26.1454   34.1630 C   0  0  0  0  0  0  0  0  0  0  0  0
    2.5090   16.4177   37.7978 C   0  0  0  0  0  0  0  0  0  0  0  0
    2.7968   18.5925   40.9335 O   0  0  0  0  0  0  0  0  0  0  0  0
    1.4766   17.0545   38.4671 C   0  0  2  0  0  0  0  0  0  0  0  0
    3.6701   22.9967   34.5247 C   0  0  2  0  0  0  0  0  0  0  0  0
    5.7745   22.0442   40.2540 O   0  0  0  0  0  0  0  0  0  0  0  0
    4.9905   23.3363   37.9896 C   0  0  0  0  0  0  0  0  0  0  0  0
    3.8025   18.8979   42.2538 H   0  0  0  0  0  0  0  0  0  0  0  0
    1.8566   14.1002   40.1267 H   0  0  0  0  0  0  0  0  0  0  0  0
    2.6745   18.3347   43.9895 H   0  0  0  0  0  0  0  0  0  0  0  0
    1.9192   19.7957   44.1794 H   0  0  0  0  0  0  0  0  0  0  0  0
    2.3400   22.7638   37.1471 H   0  0  0  0  0  0  0  0  0  0  0  0
    3.1865   20.9889   37.0668 H   0  0  0  0  0  0  0  0  0  0  0  0
   -0.0364   15.7082   42.1409 H   0  0  0  0  0  0  0  0  0  0  0  0
    4.8659   24.5742   33.3963 H   0  0  0  0  0  0  0  0  0  0  0  0
    5.1612   24.8851   34.8810 H   0  0  0  0  0  0  0  0  0  0  0  0
    0.8974   27.1341   32.2938 H   0  0  0  0  0  0  0  0  0  0  0  0
    3.6255   22.6753   39.7576 H   0  0  0  0  0  0  0  0  0  0  0  0
    3.1280   24.0867   33.3261 H   0  0  0  0  0  0  0  0  0  0  0  0
   -0.6965   25.2102   33.5064 H   0  0  0  0  0  0  0  0  0  0  0  0
   -0.8975   26.2027   32.0227 H   0  0  0  0  0  0  0  0  0  0  0  0
    0.4798   25.0575   32.1575 H   0  0  0  0  0  0  0  0  0  0  0  0
    1.3037   11.3047   41.0793 H   0  0  0  0  0  0  0  0  0  0  0  0
    0.4090   10.9562   39.5612 H   0  0  0  0  0  0  0  0  0  0  0  0
    1.8222   12.0647   39.5365 H   0  0  0  0  0  0  0  0  0  0  0  0
   -2.5114   29.4637   34.5056 H   0  0  0  0  0  0  0  0  0  0  0  0
   -1.7730   30.0431   32.8782 H   0  0  0  0  0  0  0  0  0  0  0  0
    1.1970   29.2604   33.3853 H   0  0  0  0  0  0  0  0  0  0  0  0
    1.3367   28.9766   35.1433 H   0  0  0  0  0  0  0  0  0  0  0  0
   -2.2862   15.5884   39.8989 H   0  0  0  0  0  0  0  0  0  0  0  0
   -2.4138   16.3558   38.2799 H   0  0  0  0  0  0  0  0  0  0  0  0
   -2.1657   14.5819   38.4160 H   0  0  0  0  0  0  0  0  0  0  0  0
    0.3414   17.6275   44.1587 H   0  0  0  0  0  0  0  0  0  0  0  0
    4.3136   21.5188   35.6396 H   0  0  0  0  0  0  0  0  0  0  0  0
    2.3412   22.2562   35.5185 H   0  0  0  0  0  0  0  0  0  0  0  0
   -0.1522   15.0485   38.0456 H   0  0  0  0  0  0  0  0  0  0  0  0
    0.2610   19.2247   42.1963 H   0  0  0  0  0  0  0  0  0  0  0  0
    3.5041   15.5251   39.2455 H   0  0  0  0  0  0  0  0  0  0  0  0
    3.5457   23.1510   38.7499 H   0  0  0  0  0  0  0  0  0  0  0  0
    6.8307   24.2299   37.9437 H   0  0  0  0  0  0  0  0  0  0  0  0
    6.5344   22.9705   36.6976 H   0  0  0  0  0  0  0  0  0  0  0  0
    5.7495   24.5796   36.5526 H   0  0  0  0  0  0  0  0  0  0  0  0
    0.1440   16.4670   40.4268 H   0  0  0  0  0  0  0  0  0  0  0  0
    2.4266   21.2787   40.2242 H   0  0  0  0  0  0  0  0  0  0  0  0
    3.4888   19.9361   39.7950 H   0  0  0  0  0  0  0  0  0  0  0  0
    0.2457   12.5199   38.2572 H   0  0  0  0  0  0  0  0  0  0  0  0
    0.0983   14.1137   37.7406 H   0  0  0  0  0  0  0  0  0  0  0  0
    1.6184   13.4023   37.8499 H   0  0  0  0  0  0  0  0  0  0  0  0
   -0.1926   12.9785   42.5214 H   0  0  0  0  0  0  0  0  0  0  0  0
   -2.2064   27.6547   33.7142 H   0  0  0  0  0  0  0  0  0  0  0  0
   -1.1226   28.3131   32.4075 H   0  0  0  0  0  0  0  0  0  0  0  0
    1.5587   17.1288   40.9299 H   0  0  0  0  0  0  0  0  0  0  0  0
    0.9916   18.7826   40.3797 H   0  0  0  0  0  0  0  0  0  0  0  0
   -0.9408   13.3414   40.0424 H   0  0  0  0  0  0  0  0  0  0  0  0
   -0.3869   27.2754   35.1121 H   0  0  0  0  0  0  0  0  0  0  0  0
    2.6405   26.4328   33.6655 H   0  0  0  0  0  0  0  0  0  0  0  0
    1.4087   26.5910   35.1249 H   0  0  0  0  0  0  0  0  0  0  0  0
    1.4557   17.5544   39.4467 H   0  0  0  0  0  0  0  0  0  0  0  0
    3.7306   22.0120   34.0381 H   0  0  0  0  0  0  0  0  0  0  0  0
    6.1299   21.1445   40.4647 H   0  0  0  0  0  0  0  0  0  0  0  0
    5.2784   23.7278   38.9764 H   0  0  0  0  0  0  0  0  0  0  0  0
    4.3779   23.4147   37.0794 H   0  0  0  0  0  0  0  0  0  0  0  0
  1 21  1  0
  2  7  1  0
  2  4  1  0
  3 29  1  0
  3 26  1  0
  3 34  1  0
  8 11  1  0
  8 40  1  0
  9 12  1  0
  9 36  1  0
 10 41  1  0
 10 28  1  0
 11 40  1  0
 11 33  1  0
 14 20  1  0
 15 20  1  0
 18  5  1  0
 19 37  1  0
 19 39  1  0
 21 16  1  0
 21 26  1  0
 22 17  1  0
 22  4  1  0
 24  5  1  0
 24 10  1  0
 25 42  1  0
 26  6  1  0
 28  7  1  0
 31 14  1  0
 31 35  1  0
 32 22  1  0
 33 27  2  0
 34 13  1  0
 34 30  1  0
 35  9  1  0
 35 15  1  0
 36 33  1  0
 37 23  2  3
 37 39  1  0
 38 32  1  0
 38  2  1  0
 39  1  1  0
 40 18  1  0
 42 24  1  0
  2 43  1  6
  3 44  1  1
  4 45  1  0
  4 46  1  0
  5 47  1  0
  5 48  1  0
  6 49  1  0
  8 50  1  0
  8 51  1  0
  9 52  1  6
 10 53  1  1
 11 54  1  6
 12 55  1  0
 12 56  1  0
 12 57  1  0
 13 58  1  0
 13 59  1  0
 13 60  1  0
 14 61  1  0
 14 62  1  0
 15 63  1  0
 15 64  1  0
 16 65  1  0
 16 66  1  0
 16 67  1  0
 17 68  1  0
 18 69  1  0
 18 70  1  0
 21 71  1  6
 22 72  1  6
 23 73  1  0
 24 74  1  1
 25 75  1  0
 25 76  1  0
 25 77  1  0
 26 78  1  6
 28 79  1  0
 28 80  1  0
 29 81  1  0
 29 82  1  0
 29 83  1  0
 30 84  1  0
 31 85  1  0
 31 86  1  0
 32 87  1  0
 32 88  1  0
 34 89  1  6
 35 90  1  1
 36 91  1  0
 36 92  1  0
 39 93  1  1
 40 94  1  6
 41 95  1  0
 42 96  1  0
 42 97  1  0
M  CHG  1  29   1
M  END
>  <mol_id>  (25) 
2026-09-18-6fnk-s0-n100-0025

>  <rmsd_to_ref>  (25) 


$$$$

     RDKit          3D

 42 41  0  0  0  0  0  0  0  0999 V2000
    2.2950   19.4190   41.9900 C   0  0  0  0  0  0  0  0  0  0  0  0
   -0.7760   18.9520   44.1590 C   0  0  0  0  0  0  0  0  0  0  0  0
    2.7550   20.1320   38.6840 C   0  0  0  0  0  0  0  0  0  0  0  0
    1.2350   24.0790   34.7740 O   0  0  0  0  0  0  0  0  0  0  0  0
    2.8110   21.4320   38.0680 C   0  0  0  0  0  0  0  0  0  0  0  0
    3.8320   22.6680   36.0880 C   0  0  0  0  0  0  0  0  0  0  0  0
    1.9660   20.4680   40.8850 C   0  0  0  0  0  0  0  0  0  0  0  0
    3.3240   23.5760   33.8830 N   0  0  0  0  0  0  0  0  0  0  0  0
    3.1790   20.5870   40.0370 C   0  0  0  0  0  0  0  0  0  0  0  0
    2.4860   21.6100   34.5240 O   0  0  0  0  0  0  0  0  0  0  0  0
    3.2070   22.4830   34.7790 C   0  0  0  0  0  0  0  0  0  0  0  0
    0.1470   19.8640   43.5540 C   0  0  0  0  0  0  0  0  0  0  0  0
    2.0160   24.1720   33.5730 C   0  0  2  0  0  0  0  0  0  0  0  0
    3.8760   21.6830   37.0340 C   0  0  0  0  0  0  0  0  0  0  0  0
    1.8350   22.1230   38.0960 O   0  0  0  0  0  0  0  0  0  0  0  0
    1.9440   25.5430   33.0250 C   0  0  0  0  0  0  0  0  0  0  0  0
    1.1420   19.0150   42.8170 C   0  0  0  0  0  0  0  0  0  0  0  0
    3.0596   19.8486   42.6540 H   0  0  0  0  0  0  0  0  0  0  0  0
    2.6363   18.5131   41.4677 H   0  0  0  0  0  0  0  0  0  0  0  0
   -0.7006   19.0265   45.2539 H   0  0  0  0  0  0  0  0  0  0  0  0
   -1.7995   19.2033   43.8440 H   0  0  0  0  0  0  0  0  0  0  0  0
   -0.5370   17.9255   43.8440 H   0  0  0  0  0  0  0  0  0  0  0  0
    3.4604   19.4174   38.2348 H   0  0  0  0  0  0  0  0  0  0  0  0
    1.8052   19.5818   38.6128 H   0  0  0  0  0  0  0  0  0  0  0  0
    1.8308   24.1500   35.5614 H   0  0  0  0  0  0  0  0  0  0  0  0
    3.3109   23.5160   36.5564 H   0  0  0  0  0  0  0  0  0  0  0  0
    4.8936   22.7614   35.8156 H   0  0  0  0  0  0  0  0  0  0  0  0
    1.1125   20.1273   40.2805 H   0  0  0  0  0  0  0  0  0  0  0  0
    1.6951   21.4380   41.3275 H   0  0  0  0  0  0  0  0  0  0  0  0
    4.2175   23.9119   33.4960 H   0  0  0  0  0  0  0  0  0  0  0  0
    3.9850   19.9465   40.4245 H   0  0  0  0  0  0  0  0  0  0  0  0
    3.5707   21.6148   40.0213 H   0  0  0  0  0  0  0  0  0  0  0  0
   -0.3778   20.5320   42.8552 H   0  0  0  0  0  0  0  0  0  0  0  0
    0.6374   20.4999   44.3057 H   0  0  0  0  0  0  0  0  0  0  0  0
    1.6403   23.5931   32.7165 H   0  0  0  0  0  0  0  0  0  0  0  0
    3.9682   20.7413   36.4731 H   0  0  0  0  0  0  0  0  0  0  0  0
    4.6892   22.0574   37.6731 H   0  0  0  0  0  0  0  0  0  0  0  0
    1.9060   26.2670   33.8523 H   0  0  0  0  0  0  0  0  0  0  0  0
    2.8331   25.7382   32.4075 H   0  0  0  0  0  0  0  0  0  0  0  0
    1.0393   25.6440   32.4075 H   0  0  0  0  0  0  0  0  0  0  0  0
    0.5266   18.4025   42.1416 H   0  0  0  0  0  0  0  0  0  0  0  0
    1.7050   18.6541   43.6904 H   0  0  0  0  0  0  0  0  0  0  0  0
  1 17  1  0
  3  9  1  0
  5 15  2  0
  5  3  1  0
  6 14  1  0
  7  1  1  0
  8 11  1  0
  9  7  1  0
 10 11  2  0
 11  6  1  0
 12  2  1  0
 13 16  1  0
 13  8  1  0
 13  4  1  0
 14  5  1  0
 17 12  1  0
  1 18  1  0
  1 19  1  0
  2 20  1  0
  2 21  1  0
  2 22  1  0
  3 23  1  0
  3 24  1  0
  4 25  1  0
  6 26  1  0
  6 27  1  0
  7 28  1  0
  7 29  1  0
  8 30  1  0
  9 31  1  0
  9 32  1  0
 12 33  1  0
 12 34  1  0
 13 35  1  6
 14 36  1  0
 14 37  1  0
 16 38  1  0
 16 39  1  0
 16 40  1  0
 17 41  1  0
 17 42  1  0
M  END
>  <mol_id>  (26) 
2026-09-18-6fnk-s0-n100-0026

>  <rmsd_to_ref>  (26) 


$$$$

     RDKit          3D

 43 41  0  0  0  0  0  0  0  0999 V2000
    5.1780   23.1854   34.9281 C   0  0  0  0  0  0  0  0  0  0  0  0
    5.5569   23.8686   32.6015 C   0  0  0  0  0  0  0  0  0  0  0  0
   -1.2190   16.3215   37.3290 O   0  0  0  0  0  0  0  0  0  0  0  0
   -1.4399   15.4477   40.6931 C   0  0  0  0  0  0  0  0  0  0  0  0
   -1.0571   16.5123   38.5435 C   0  0  0  0  0  0  0  0  0  0  0  0
    5.9469   23.3204   35.9868 C   0  0  0  0  0  0  0  0  0  0  0  0
    5.1963   22.9477   41.2008 C   0  0  0  0  0  0  0  0  0  0  0  0
   -0.2798   17.3407   39.0111 O   0  0  0  0  0  0  0  0  0  0  0  0
    5.3884   22.4487   36.8492 C   0  0  0  0  0  0  0  0  0  0  0  0
   -1.9449   15.7644   39.3779 O   0  0  0  0  0  0  0  0  0  0  0  0
    4.7338   25.1227   32.0383 C   0  0  0  0  0  0  0  0  0  0  0  0
    4.6797   21.8338   37.6873 C   0  0  0  0  0  0  0  0  0  0  0  0
    2.7938   22.8627   39.1604 C   0  0  0  0  0  0  0  0  0  0  0  0
    5.2074   21.8181   40.1567 C   0  0  0  0  0  0  0  0  0  0  0  0
    4.8415   23.2926   33.7847 C   0  0  0  0  0  0  0  0  0  0  0  0
    4.0730   21.9137   39.0932 C   0  0  2  0  0  0  0  0  0  0  0  0
    5.0834   22.0909   34.9828 H   0  0  0  0  0  0  0  0  0  0  0  0
    4.8928   24.2395   35.0605 H   0  0  0  0  0  0  0  0  0  0  0  0
    6.5623   24.1962   32.9047 H   0  0  0  0  0  0  0  0  0  0  0  0
    5.6419   23.1033   31.8161 H   0  0  0  0  0  0  0  0  0  0  0  0
   -2.0546   15.9521   41.4531 H   0  0  0  0  0  0  0  0  0  0  0  0
   -1.4823   14.3598   40.8500 H   0  0  0  0  0  0  0  0  0  0  0  0
   -0.3979   15.7901   40.7780 H   0  0  0  0  0  0  0  0  0  0  0  0
    6.9887   23.0487   35.7618 H   0  0  0  0  0  0  0  0  0  0  0  0
    6.0004   24.3506   36.3686 H   0  0  0  0  0  0  0  0  0  0  0  0
    5.1154   22.5146   42.2087 H   0  0  0  0  0  0  0  0  0  0  0  0
    6.1284   23.5267   41.1243 H   0  0  0  0  0  0  0  0  0  0  0  0
    4.3373   23.6094   41.0159 H   0  0  0  0  0  0  0  0  0  0  0  0
    5.3325   21.6408   36.1049 H   0  0  0  0  0  0  0  0  0  0  0  0
    5.6348   23.1596   37.6516 H   0  0  0  0  0  0  0  0  0  0  0  0
    4.3490   25.7168   32.8803 H   0  0  0  0  0  0  0  0  0  0  0  0
    5.3953   25.7479   31.4205 H   0  0  0  0  0  0  0  0  0  0  0  0
    3.8921   24.7644   31.4274 H   0  0  0  0  0  0  0  0  0  0  0  0
    3.7713   21.6650   37.0904 H   0  0  0  0  0  0  0  0  0  0  0  0
    5.5653   21.3127   38.0801 H   0  0  0  0  0  0  0  0  0  0  0  0
    2.5602   23.0893   40.2112 H   0  0  0  0  0  0  0  0  0  0  0  0
    3.0028   23.7983   38.6212 H   0  0  0  0  0  0  0  0  0  0  0  0
    1.9359   22.3551   38.6953 H   0  0  0  0  0  0  0  0  0  0  0  0
    6.1738   21.8440   39.6321 H   0  0  0  0  0  0  0  0  0  0  0  0
    5.0433   20.8801   40.7073 H   0  0  0  0  0  0  0  0  0  0  0  0
    3.9088   23.8733   33.8375 H   0  0  0  0  0  0  0  0  0  0  0  0
    4.9561   22.2336   33.5100 H   0  0  0  0  0  0  0  0  0  0  0  0
    3.4935   21.0452   39.4395 H   0  0  0  0  0  0  0  0  0  0  0  0
  1  6  1  0
  2 15  1  0
  3  5  2  0
  5  8  1  0
  5 10  1  0
  6  9  1  0
  9 12  1  0
 10  4  1  0
 11  2  1  0
 12 16  1  0
 14  7  1  0
 15  1  1  0
 16 13  1  0
 16 14  1  0
  1 17  1  0
  1 18  1  0
  2 19  1  0
  2 20  1  0
  4 21  1  0
  4 22  1  0
  4 23  1  0
  6 24  1  0
  6 25  1  0
  7 26  1  0
  7 27  1  0
  7 28  1  0
  9 29  1  0
  9 30  1  0
 11 31  1  0
 11 32  1  0
 11 33  1  0
 12 34  1  0
 12 35  1  0
 13 36  1  0
 13 37  1  0
 13 38  1  0
 14 39  1  0
 14 40  1  0
 15 41  1  0
 15 42  1  0
 16 43  1  1
M  CHG  1   8  -1
M  END
>  <mol_id>  (27) 
2026-09-18-6fnk-s0-n100-0027

>  <rmsd_to_ref>  (27) 


$$$$

     RDKit          3D

 80 81  0  0  0  0  0  0  0  0999 V2000
    4.7301   25.0736   30.7157 S   0  0  0  0  0  0  0  0  0  0  0  0
    2.3562   24.5966   32.4855 S   0  0  0  0  0  0  0  0  0  0  0  0
   -0.8561   20.5424   40.3119 C   0  0  0  0  0  0  0  0  0  0  0  0
    3.7537   22.6733   34.9590 C   0  0  0  0  0  0  0  0  0  0  0  0
    2.7096   21.8601   34.0462 O   0  0  0  0  0  0  0  0  0  0  0  0
    6.2027   24.8798   32.5651 C   0  0  0  0  0  0  0  0  0  0  0  0
    3.3768   21.3736   38.7616 C   0  0  0  0  0  0  0  0  0  0  0  0
    2.7745   20.2363   40.9393 C   0  0  0  0  0  0  0  0  0  0  0  0
    1.4643   19.9071   41.5371 C   0  0  1  0  0  0  0  0  0  0  0  0
   -0.3754   17.1240   45.2735 C   0  0  0  0  0  0  0  0  0  0  0  0
    1.0854   18.8632   42.4046 C   0  0  0  0  0  0  0  0  0  0  0  0
   -0.1163   19.0697   43.0646 N   0  0  0  0  0  0  0  0  0  0  0  0
   -4.7357   21.7162   38.3028 C   0  0  0  0  0  0  0  0  0  0  0  0
    2.8595   19.7750   37.2062 C   0  0  0  0  0  0  0  0  0  0  0  0
   -0.7121   18.0759   44.1135 C   0  0  0  0  0  0  0  0  0  0  0  0
    1.9908   20.3394   33.0276 C   0  0  0  0  0  0  0  0  0  0  0  0
    2.9149   20.2422   39.4237 C   0  0  1  0  0  0  0  0  0  0  0  0
    3.3737   21.0704   37.3478 C   0  0  0  0  0  0  0  0  0  0  0  0
    4.2041   22.0212   36.2137 C   0  0  0  0  0  0  0  0  0  0  0  0
    2.5447   18.7927   36.1852 C   0  0  0  0  0  0  0  0  0  0  0  0
    3.1451   23.1212   32.3405 C   0  0  2  0  0  0  0  0  0  0  0  0
   -0.1080   18.5794   45.4633 C   0  0  0  0  0  0  0  0  0  0  0  0
    2.4902   22.3752   33.7003 C   0  0  0  0  0  0  0  0  0  0  0  0
    5.2978   24.5561   32.2513 C   0  0  1  0  0  0  0  0  0  0  0  0
    4.6017   23.6573   33.0720 C   0  0  0  0  0  0  0  0  0  0  0  0
   -0.4204   20.4640   42.8356 N   0  0  0  0  0  0  0  0  0  0  0  0
    7.6166   24.9162   31.6890 C   0  0  0  0  0  0  0  0  0  0  0  0
   -3.6889   21.2673   37.4848 C   0  0  0  0  0  0  0  0  0  0  0  0
   -5.1949   23.1967   38.2432 C   0  0  0  0  0  0  0  0  0  0  0  0
    0.1407   20.7467   41.3396 C   0  0  2  0  0  0  0  0  0  0  0  0
    3.5723   25.7419   31.5492 C   0  0  0  0  0  0  0  0  0  0  0  0
    1.7190   17.8068   42.6275 O   0  0  0  0  0  0  0  0  0  0  0  0
    2.6292   19.1247   38.5216 N   0  0  0  0  0  0  0  0  0  0  0  0
   -1.8129   20.2659   40.7789 H   0  0  0  0  0  0  0  0  0  0  0  0
   -0.9840   21.4705   39.7354 H   0  0  0  0  0  0  0  0  0  0  0  0
   -0.5294   19.7353   39.6396 H   0  0  0  0  0  0  0  0  0  0  0  0
    3.2812   23.6282   35.2328 H   0  0  0  0  0  0  0  0  0  0  0  0
    4.6607   22.7635   34.3433 H   0  0  0  0  0  0  0  0  0  0  0  0
    6.0373   25.9213   32.8779 H   0  0  0  0  0  0  0  0  0  0  0  0
    6.4488   24.0637   33.2604 H   0  0  0  0  0  0  0  0  0  0  0  0
    3.6866   22.3214   39.2259 H   0  0  0  0  0  0  0  0  0  0  0  0
    3.0457   21.2423   41.2919 H   0  0  0  0  0  0  0  0  0  0  0  0
    3.4256   19.4100   41.2608 H   0  0  0  0  0  0  0  0  0  0  0  0
    1.2283   19.2723   40.6702 H   0  0  0  0  0  0  0  0  0  0  0  0
    0.4674   16.4240   45.1759 H   0  0  0  0  0  0  0  0  0  0  0  0
   -0.9466   16.3709   45.8361 H   0  0  0  0  0  0  0  0  0  0  0  0
   -5.6148   21.1023   38.0569 H   0  0  0  0  0  0  0  0  0  0  0  0
   -4.3178   21.6248   39.3162 H   0  0  0  0  0  0  0  0  0  0  0  0
   -1.4824   17.8112   43.3741 H   0  0  0  0  0  0  0  0  0  0  0  0
    2.0192   20.2862   34.1260 H   0  0  0  0  0  0  0  0  0  0  0  0
    1.9901   21.3930   32.7115 H   0  0  0  0  0  0  0  0  0  0  0  0
    2.8748   19.8329   32.6130 H   0  0  0  0  0  0  0  0  0  0  0  0
    1.0793   19.8457   32.6600 H   0  0  0  0  0  0  0  0  0  0  0  0
    3.9477   19.8756   39.5180 H   0  0  0  0  0  0  0  0  0  0  0  0
    5.0331   21.3753   35.8890 H   0  0  0  0  0  0  0  0  0  0  0  0
    4.2546   22.9353   36.8236 H   0  0  0  0  0  0  0  0  0  0  0  0
    2.2954   17.8339   36.6633 H   0  0  0  0  0  0  0  0  0  0  0  0
    1.6856   19.1415   35.5933 H   0  0  0  0  0  0  0  0  0  0  0  0
    3.4143   18.6581   35.5252 H   0  0  0  0  0  0  0  0  0  0  0  0
    3.1523   22.5790   31.3834 H   0  0  0  0  0  0  0  0  0  0  0  0
   -0.7281   19.1654   46.1575 H   0  0  0  0  0  0  0  0  0  0  0  0
    0.7727   19.1757   45.7441 H   0  0  0  0  0  0  0  0  0  0  0  0
    2.4158   23.1847   34.4414 H   0  0  0  0  0  0  0  0  0  0  0  0
    1.6523   21.8682   33.1992 H   0  0  0  0  0  0  0  0  0  0  0  0
    5.7733   23.6827   31.7812 H   0  0  0  0  0  0  0  0  0  0  0  0
    4.3599   24.1568   34.0218 H   0  0  0  0  0  0  0  0  0  0  0  0
    5.2434   22.7795   33.2382 H   0  0  0  0  0  0  0  0  0  0  0  0
   -1.4359   20.6300   42.8835 H   0  0  0  0  0  0  0  0  0  0  0  0
    8.4747   24.8793   32.3763 H   0  0  0  0  0  0  0  0  0  0  0  0
    7.6511   24.0496   31.0125 H   0  0  0  0  0  0  0  0  0  0  0  0
    7.6587   25.8438   31.0993 H   0  0  0  0  0  0  0  0  0  0  0  0
   -2.8764   20.8726   38.1126 H   0  0  0  0  0  0  0  0  0  0  0  0
   -4.0581   20.4723   36.8201 H   0  0  0  0  0  0  0  0  0  0  0  0
   -3.3112   22.1049   36.8800 H   0  0  0  0  0  0  0  0  0  0  0  0
   -5.3050   23.5879   39.2654 H   0  0  0  0  0  0  0  0  0  0  0  0
   -4.4447   23.7917   37.7018 H   0  0  0  0  0  0  0  0  0  0  0  0
   -6.1606   23.2604   37.7203 H   0  0  0  0  0  0  0  0  0  0  0  0
    0.3733   21.7459   40.9428 H   0  0  0  0  0  0  0  0  0  0  0  0
    4.0441   26.3973   32.2960 H   0  0  0  0  0  0  0  0  0  0  0  0
    2.9485   26.2450   30.7956 H   0  0  0  0  0  0  0  0  0  0  0  0
  1 31  1  0
  1 24  1  0
  4 19  1  0
  5  4  1  0
  7 17  1  0
  9  8  1  0
  9 11  1  0
 10 22  1  0
 11 32  2  0
 11 12  1  0
 12 15  1  0
 14 18  1  0
 14 33  2  0
 15 10  1  0
 15 22  1  0
 17  8  1  0
 18  7  2  0
 19 18  1  0
 20 14  1  0
 21  2  1  0
 21 25  1  0
 21 23  1  0
 23  5  1  0
 24  6  1  0
 24 25  1  0
 26 12  1  0
 27  6  1  0
 28 13  1  0
 29 13  1  0
 30  3  1  0
 30  9  1  0
 30 26  1  0
 31  2  1  0
 33 17  1  0
  3 34  1  0
  3 35  1  0
  3 36  1  0
  4 37  1  0
  4 38  1  0
  6 39  1  0
  6 40  1  0
  7 41  1  0
  8 42  1  0
  8 43  1  0
  9 44  1  6
 10 45  1  0
 10 46  1  0
 13 47  1  0
 13 48  1  0
 15 49  1  0
 16 50  1  0
 16 51  1  0
 16 52  1  0
 16 53  1  0
 17 54  1  1
 19 55  1  0
 19 56  1  0
 20 57  1  0
 20 58  1  0
 20 59  1  0
 21 60  1  6
 22 61  1  0
 22 62  1  0
 23 63  1  0
 23 64  1  0
 24 65  1  6
 25 66  1  0
 25 67  1  0
 26 68  1  0
 27 69  1  0
 27 70  1  0
 27 71  1  0
 28 72  1  0
 28 73  1  0
 28 74  1  0
 29 75  1  0
 29 76  1  0
 29 77  1  0
 30 78  1  1
 31 79  1  0
 31 80  1  0
M  END
>  <mol_id>  (28) 
2026-09-18-6fnk-s0-n100-0028

>  <rmsd_to_ref>  (28) 


$$$$

     RDKit          3D

 64 66  0  0  0  0  0  0  0  0999 V2000
    1.9687   25.2881   32.5657 S   0  0  0  0  0  0  0  0  0  0  0  0
    2.8095   19.4710   41.4816 C   0  0  1  0  0  0  0  0  0  0  0  0
    3.3857   24.4976   32.4115 C   0  0  2  0  0  0  0  0  0  0  0  0
    2.9716   14.8335   39.0197 S   0  0  0  0  0  0  0  0  0  0  0  0
    2.2441   16.3912   38.6360 C   0  0  2  0  0  0  0  0  0  0  0  0
    3.4757   21.4073   36.0333 C   0  0  0  0  0  0  0  0  0  0  0  0
    6.1461   24.2778   32.1041 C   0  0  0  0  0  0  0  0  0  0  0  0
    1.6288   24.5972   34.3975 S   0  0  0  0  0  0  0  0  0  0  0  0
    4.1661   19.1485   37.0021 O   0  0  0  0  0  0  0  0  0  0  0  0
    2.9704   17.7129   39.1943 C   0  0  0  0  0  0  0  0  0  0  0  0
    2.6094   19.2225   38.9553 C   0  0  1  0  0  0  0  0  0  0  0  0
    2.9012   20.1287   40.1135 C   0  0  0  0  0  0  0  0  0  0  0  0
    1.4835   13.8971   38.8568 C   0  0  0  0  0  0  0  0  0  0  0  0
    0.8695   16.2412   39.1373 C   0  0  0  0  0  0  0  0  0  0  0  0
    3.9259   19.7397   42.4239 C   0  0  0  0  0  0  0  0  0  0  0  0
    1.4331   22.7330   36.2992 C   0  0  0  0  0  0  0  0  0  0  0  0
    1.5208   12.7211   38.5796 O   0  0  0  0  0  0  0  0  0  0  0  0
    3.7740   24.3431   31.0108 C   0  0  0  0  0  0  0  0  0  0  0  0
    3.2742   20.8030   43.2575 C   0  0  0  0  0  0  0  0  0  0  0  0
    0.3904   14.8273   38.7438 C   0  0  0  0  0  0  0  0  0  0  0  0
    2.7054   23.2334   34.3225 C   0  0  0  0  0  0  0  0  0  0  0  0
    1.8323   20.7313   43.0580 N   0  0  0  0  0  0  0  0  0  0  0  0
    3.2989   21.2691   37.4954 C   0  0  0  0  0  0  0  0  0  0  0  0
    1.4425   19.7968   41.9674 C   0  0  0  0  0  0  0  0  0  0  0  0
    2.3589   22.0885   35.3228 C   0  0  1  0  0  0  0  0  0  0  0  0
    3.5240   23.3161   33.3557 C   0  0  0  0  0  0  0  0  0  0  0  0
    5.2534   24.3969   30.9412 C   0  0  0  0  0  0  0  0  0  0  0  0
    3.4238   19.7633   37.7470 C   0  0  0  0  0  0  0  0  0  0  0  0
    2.9501   18.3829   41.4013 H   0  0  0  0  0  0  0  0  0  0  0  0
    4.1993   25.1305   32.7956 H   0  0  0  0  0  0  0  0  0  0  0  0
    2.3274   16.5870   37.5568 H   0  0  0  0  0  0  0  0  0  0  0  0
    4.3952   21.9841   35.8545 H   0  0  0  0  0  0  0  0  0  0  0  0
    3.5147   20.3840   35.6318 H   0  0  0  0  0  0  0  0  0  0  0  0
    5.5558   24.3563   33.0290 H   0  0  0  0  0  0  0  0  0  0  0  0
    6.6564   23.3037   32.0764 H   0  0  0  0  0  0  0  0  0  0  0  0
    6.8936   25.0843   32.0766 H   0  0  0  0  0  0  0  0  0  0  0  0
    2.9433   17.5966   40.2878 H   0  0  0  0  0  0  0  0  0  0  0  0
    3.8706   17.6698   38.5635 H   0  0  0  0  0  0  0  0  0  0  0  0
    1.5225   19.2327   38.7866 H   0  0  0  0  0  0  0  0  0  0  0  0
    2.1820   20.9606   40.0857 H   0  0  0  0  0  0  0  0  0  0  0  0
    3.9461   20.4515   39.9963 H   0  0  0  0  0  0  0  0  0  0  0  0
    0.8533   16.3536   40.2314 H   0  0  0  0  0  0  0  0  0  0  0  0
    0.2112   17.0100   38.7063 H   0  0  0  0  0  0  0  0  0  0  0  0
    4.1877   18.8518   43.0180 H   0  0  0  0  0  0  0  0  0  0  0  0
    4.8819   20.0214   41.9584 H   0  0  0  0  0  0  0  0  0  0  0  0
    1.6974   22.4165   37.3189 H   0  0  0  0  0  0  0  0  0  0  0  0
    1.5206   23.8266   36.2205 H   0  0  0  0  0  0  0  0  0  0  0  0
    0.3987   22.4310   36.0780 H   0  0  0  0  0  0  0  0  0  0  0  0
    3.4166   23.3758   30.6281 H   0  0  0  0  0  0  0  0  0  0  0  0
    3.3317   25.1434   30.3993 H   0  0  0  0  0  0  0  0  0  0  0  0
    3.5101   20.6381   44.3192 H   0  0  0  0  0  0  0  0  0  0  0  0
    3.6460   21.7946   42.9598 H   0  0  0  0  0  0  0  0  0  0  0  0
    0.0265   14.8400   37.7058 H   0  0  0  0  0  0  0  0  0  0  0  0
   -0.4233   14.5176   39.4161 H   0  0  0  0  0  0  0  0  0  0  0  0
    1.3949   20.4134   43.9347 H   0  0  0  0  0  0  0  0  0  0  0  0
    1.5112   21.6719   42.7874 H   0  0  0  0  0  0  0  0  0  0  0  0
    4.0808   21.8215   38.0371 H   0  0  0  0  0  0  0  0  0  0  0  0
    2.3388   21.6769   37.8446 H   0  0  0  0  0  0  0  0  0  0  0  0
    0.8313   20.2877   41.1957 H   0  0  0  0  0  0  0  0  0  0  0  0
    0.8168   18.9416   42.2628 H   0  0  0  0  0  0  0  0  0  0  0  0
    1.9431   21.2510   34.7434 H   0  0  0  0  0  0  0  0  0  0  0  0
    4.3069   22.5578   33.2069 H   0  0  0  0  0  0  0  0  0  0  0  0
    5.5473   23.5861   30.2583 H   0  0  0  0  0  0  0  0  0  0  0  0
    5.4069   25.4527   30.6732 H   0  0  0  0  0  0  0  0  0  0  0  0
  1  8  1  0
  2 12  1  0
  2 24  1  0
  2 15  1  0
  3 18  1  0
  3  1  1  0
  3 26  1  0
  4 13  1  0
  5  4  1  0
  5 10  1  0
  5 14  1  0
  6 23  1  0
  9 28  2  0
 11 10  1  0
 11 12  1  0
 13 20  1  0
 15 19  1  0
 17 13  2  0
 19 22  1  0
 20 14  1  0
 21  8  1  0
 21 25  1  0
 23 28  1  0
 24 22  1  0
 25  6  1  0
 25 16  1  0
 26 21  2  0
 27 18  1  0
 27  7  1  0
 28 11  1  0
  2 29  1  6
  3 30  1  1
  5 31  1  6
  6 32  1  0
  6 33  1  0
  7 34  1  0
  7 35  1  0
  7 36  1  0
 10 37  1  0
 10 38  1  0
 11 39  1  6
 12 40  1  0
 12 41  1  0
 14 42  1  0
 14 43  1  0
 15 44  1  0
 15 45  1  0
 16 46  1  0
 16 47  1  0
 16 48  1  0
 18 49  1  0
 18 50  1  0
 19 51  1  0
 19 52  1  0
 20 53  1  0
 20 54  1  0
 22 55  1  0
 22 56  1  0
 23 57  1  0
 23 58  1  0
 24 59  1  0
 24 60  1  0
 25 61  1  6
 26 62  1  0
 27 63  1  0
 27 64  1  0
M  CHG  1  22   1
M  END
>  <mol_id>  (29) 
2026-09-18-6fnk-s0-n100-0029

>  <rmsd_to_ref>  (29) 


$$$$

     RDKit          3D

 66 66  0  0  0  0  0  0  0  0999 V2000
    3.2141   21.0214   40.5895 C   0  0  0  0  0  0  0  0  0  0  0  0
    1.4547   26.7264   32.5370 C   0  0  2  0  0  0  0  0  0  0  0  0
    2.5405   22.1327   38.4641 C   0  0  0  0  0  0  0  0  0  0  0  0
    3.6362   20.5893   37.1781 O   0  0  0  0  0  0  0  0  0  0  0  0
    1.7695   16.3845   38.5531 O   0  0  0  0  0  0  0  0  0  0  0  0
    5.3586   23.2196   32.5550 C   0  0  0  0  0  0  0  0  0  0  0  0
    1.2418   26.1651   33.8633 C   0  0  1  0  0  0  0  0  0  0  0  0
    1.6630   16.1971   39.9411 O   0  0  0  0  0  0  0  0  0  0  0  0
    3.9616   16.0818   38.1521 O   0  0  0  0  0  0  0  0  0  0  0  0
    5.0016   22.1494   39.2188 C   0  0  0  0  0  0  0  0  0  0  0  0
    2.9102   24.3638   32.6512 N   0  0  0  0  0  0  0  0  0  0  0  0
   -0.3815   15.0473   39.2580 C   0  0  0  0  0  0  0  0  0  0  0  0
    2.4881   19.6303   41.1258 C   0  0  0  0  0  0  0  0  0  0  0  0
    2.4411   14.4772   37.6325 O   0  0  0  0  0  0  0  0  0  0  0  0
    0.6342   27.6662   33.2609 C   0  0  2  0  0  0  0  0  0  0  0  0
    3.9657   23.9016   32.5404 C   0  0  0  0  0  0  0  0  0  0  0  0
   -0.7397   27.5330   33.7983 C   0  0  0  0  0  0  0  0  0  0  0  0
    1.2080   18.4334   42.9045 C   0  0  0  0  0  0  0  0  0  0  0  0
    3.3933   23.3021   35.1674 C   0  0  0  0  0  0  0  0  0  0  0  0
    2.3503   18.4839   40.2401 C   0  0  0  0  0  0  0  0  0  0  0  0
    2.5212   22.2638   35.7651 C   0  0  0  0  0  0  0  0  0  0  0  0
    1.6900   17.3817   40.7269 C   0  0  0  0  0  0  0  0  0  0  0  0
    1.9616   19.5008   42.4423 C   0  0  0  0  0  0  0  0  0  0  0  0
    1.0822   26.0388   31.1816 C   0  0  0  0  0  0  0  0  0  0  0  0
    2.9747   21.5668   37.0934 C   0  0  0  0  0  0  0  0  0  0  0  0
    1.8173   24.5555   33.4735 C   0  0  1  0  0  0  0  0  0  0  0  0
    1.0775   17.3445   41.9966 C   0  0  0  0  0  0  0  0  0  0  0  0
    2.8228   15.6501   38.0206 C   0  0  0  0  0  0  0  0  0  0  0  0
    2.2696   20.4810   43.3738 F   0  0  0  0  0  0  0  0  0  0  0  0
    0.5407   18.5440   43.9923 F   0  0  0  0  0  0  0  0  0  0  0  0
    3.7644   21.6411   41.7447 O   0  0  0  0  0  0  0  0  0  0  0  0
   -0.3786   14.3770   39.6225 C   0  0  0  0  0  0  0  0  0  0  0  0
    2.4740   24.3347   34.7874 C   0  0  0  0  0  0  0  0  0  0  0  0
    3.6190   21.7932   39.3842 N   0  0  0  0  0  0  0  0  0  0  0  0
    2.3972   26.8977   31.9965 H   0  0  0  0  0  0  0  0  0  0  0  0
    1.5971   21.6700   38.7897 H   0  0  0  0  0  0  0  0  0  0  0  0
    2.3666   23.2180   38.4213 H   0  0  0  0  0  0  0  0  0  0  0  0
    5.6584   23.0204   33.5945 H   0  0  0  0  0  0  0  0  0  0  0  0
    5.3084   22.2713   31.9997 H   0  0  0  0  0  0  0  0  0  0  0  0
    6.0968   23.8833   32.0812 H   0  0  0  0  0  0  0  0  0  0  0  0
    1.1532   25.9224   34.9325 H   0  0  0  0  0  0  0  0  0  0  0  0
    5.4561   22.3229   40.2054 H   0  0  0  0  0  0  0  0  0  0  0  0
    5.5325   21.3318   38.7091 H   0  0  0  0  0  0  0  0  0  0  0  0
    5.0744   23.0661   38.6152 H   0  0  0  0  0  0  0  0  0  0  0  0
    2.4438   23.9208   31.8468 H   0  0  0  0  0  0  0  0  0  0  0  0
    3.3295   25.2351   33.0062 H   0  0  0  0  0  0  0  0  0  0  0  0
   -0.3858   16.0137   38.7325 H   0  0  0  0  0  0  0  0  0  0  0  0
    0.6389   28.7570   33.1189 H   0  0  0  0  0  0  0  0  0  0  0  0
    4.4059   24.8774   32.2874 H   0  0  0  0  0  0  0  0  0  0  0  0
    3.5204   22.9835   32.1295 H   0  0  0  0  0  0  0  0  0  0  0  0
   -0.7090   27.5722   34.8972 H   0  0  0  0  0  0  0  0  0  0  0  0
   -1.3631   28.3561   33.4193 H   0  0  0  0  0  0  0  0  0  0  0  0
   -1.1672   26.5716   33.4776 H   0  0  0  0  0  0  0  0  0  0  0  0
    4.1212   23.6751   35.9030 H   0  0  0  0  0  0  0  0  0  0  0  0
    3.9885   22.9264   34.3220 H   0  0  0  0  0  0  0  0  0  0  0  0
    2.7594   18.4992   39.2190 H   0  0  0  0  0  0  0  0  0  0  0  0
    1.5476   22.7354   35.9641 H   0  0  0  0  0  0  0  0  0  0  0  0
    2.5296   21.4515   35.0234 H   0  0  0  0  0  0  0  0  0  0  0  0
    0.3661   25.2249   31.3679 H   0  0  0  0  0  0  0  0  0  0  0  0
    0.6280   26.7798   30.5072 H   0  0  0  0  0  0  0  0  0  0  0  0
    1.9908   25.6285   30.7167 H   0  0  0  0  0  0  0  0  0  0  0  0
    0.9984   23.9851   33.0108 H   0  0  0  0  0  0  0  0  0  0  0  0
    0.4905   16.4616   42.2897 H   0  0  0  0  0  0  0  0  0  0  0  0
   -0.3743   13.4107   40.1479 H   0  0  0  0  0  0  0  0  0  0  0  0
    3.0156   25.2715   34.9850 H   0  0  0  0  0  0  0  0  0  0  0  0
    1.5957   23.9788   35.3460 H   0  0  0  0  0  0  0  0  0  0  0  0
  1 13  1  0
  1 31  2  0
  2 24  1  0
  2 15  1  0
  2  7  1  0
  3 34  1  0
  4 25  2  0
  5  8  1  0
  6 16  1  0
  7 26  1  0
  8 22  1  0
  9 28  1  0
 10 34  1  0
 11 26  1  0
 12 32  3  0
 13 23  2  0
 14 28  2  0
 15  7  1  0
 15 17  1  0
 16 11  1  0
 18 30  1  0
 19 21  1  0
 20 22  2  0
 20 13  1  0
 21 25  1  0
 22 27  1  0
 23 18  1  0
 23 29  1  0
 25  3  1  0
 26 33  1  0
 27 18  2  0
 28  5  1  0
 33 19  1  0
 34  1  1  0
  2 35  1  6
  3 36  1  0
  3 37  1  0
  6 38  1  0
  6 39  1  0
  6 40  1  0
  7 41  1  1
 10 42  1  0
 10 43  1  0
 10 44  1  0
 11 45  1  0
 11 46  1  0
 12 47  1  0
 15 48  1  1
 16 49  1  0
 16 50  1  0
 17 51  1  0
 17 52  1  0
 17 53  1  0
 19 54  1  0
 19 55  1  0
 20 56  1  0
 21 57  1  0
 21 58  1  0
 24 59  1  0
 24 60  1  0
 24 61  1  0
 26 62  1  6
 27 63  1  0
 32 64  1  0
 33 65  1  0
 33 66  1  0
M  CHG  2   9  -1  11   1
M  END
>  <mol_id>  (30) 
2026-09-18-6fnk-s0-n100-0030

>  <rmsd_to_ref>  (30) 


$$$$

     RDKit          3D

 63 64  0  0  0  0  0  0  0  0999 V2000
    2.4820   19.9760   39.2820 N   0  0  0  0  0  0  0  0  0  0  0  0
    3.1250   22.6080   36.8700 C   0  0  2  0  0  0  0  0  0  0  0  0
    1.9210   18.1400   41.5100 S   0  0  0  0  0  0  0  0  0  0  0  0
    1.1020   17.0960   40.0560 C   0  0  0  0  0  0  0  0  0  0  0  0
    2.1730   24.3190   35.1220 C   0  0  2  0  0  0  0  0  0  0  0  0
    1.3860   17.9700   38.8310 C   0  0  0  0  0  0  0  0  0  0  0  0
    4.2260   23.5100   37.4460 C   0  0  0  0  0  0  0  0  0  0  0  0
    3.1730   23.3480   34.4330 C   0  0  0  0  0  0  0  0  0  0  0  0
    0.9510   16.0600   37.3180 C   0  0  0  0  0  0  0  0  0  0  0  0
   -0.1020   28.0560   33.9630 O   0  0  0  0  0  0  0  0  0  0  0  0
    2.3360   22.8090   35.5520 C   0  0  1  0  0  0  0  0  0  0  0  0
    5.4930   23.5830   36.6200 C   0  0  0  0  0  0  0  0  0  0  0  0
    2.5470   21.5990   37.6930 N   0  0  0  0  0  0  0  0  0  0  0  0
    2.0790   19.0170   38.7020 N   0  0  0  0  0  0  0  0  0  0  0  0
   -0.0810   26.8380   33.7490 C   0  0  0  0  0  0  0  0  0  0  0  0
    2.3800   27.0940   34.6040 S   0  0  0  0  0  0  0  0  0  0  0  0
   -0.2790   18.1110   44.2660 C   0  0  0  0  0  0  0  0  0  0  0  0
    4.4680   21.2780   39.0100 O   0  0  0  0  0  0  0  0  0  0  0  0
    3.2990   21.0020   38.6460 C   0  0  0  0  0  0  0  0  0  0  0  0
    1.2150   17.5770   43.9640 C   0  0  0  0  0  0  0  0  0  0  0  0
    0.0270   15.9880   39.7670 C   0  0  0  0  0  0  0  0  0  0  0  0
    0.0970   15.4150   38.3700 C   0  0  0  0  0  0  0  0  0  0  0  0
    0.9480   17.3110   42.4470 C   0  0  0  0  0  0  0  0  0  0  0  0
    0.7030   23.9530   32.9800 C   0  0  0  0  0  0  0  0  0  0  0  0
    0.9660   24.6720   34.2670 C   0  0  2  0  0  0  0  0  0  0  0  0
    0.6960   17.5800   37.5640 C   0  0  0  0  0  0  0  0  0  0  0  0
    1.1260   26.0800   33.9840 C   0  0  1  0  0  0  0  0  0  0  0  0
   -0.3570   18.7390   45.6180 C   0  0  0  0  0  0  0  0  0  0  0  0
    4.1019   22.5639   36.3662 H   0  0  0  0  0  0  0  0  0  0  0  0
    2.2069   25.2851   35.6469 H   0  0  0  0  0  0  0  0  0  0  0  0
    3.8195   24.5280   37.5375 H   0  0  0  0  0  0  0  0  0  0  0  0
    4.5136   23.0653   38.4101 H   0  0  0  0  0  0  0  0  0  0  0  0
    2.9834   23.0135   33.4024 H   0  0  0  0  0  0  0  0  0  0  0  0
    4.2543   23.3791   34.2337 H   0  0  0  0  0  0  0  0  0  0  0  0
    0.6321   15.7614   36.3085 H   0  0  0  0  0  0  0  0  0  0  0  0
    2.0122   15.7770   37.3794 H   0  0  0  0  0  0  0  0  0  0  0  0
    1.6463   21.9606   35.6727 H   0  0  0  0  0  0  0  0  0  0  0  0
    6.3646   23.6332   37.2892 H   0  0  0  0  0  0  0  0  0  0  0  0
    5.5691   22.6877   35.9854 H   0  0  0  0  0  0  0  0  0  0  0  0
    5.4657   24.4811   35.9854 H   0  0  0  0  0  0  0  0  0  0  0  0
    1.5624   21.3257   37.5632 H   0  0  0  0  0  0  0  0  0  0  0  0
   -0.9840   26.3305   33.3787 H   0  0  0  0  0  0  0  0  0  0  0  0
    2.3510   27.0706   35.9735 H   0  0  0  0  0  0  0  0  0  0  0  0
   -0.9800   17.2645   44.2211 H   0  0  0  0  0  0  0  0  0  0  0  0
   -0.5412   18.8673   43.5115 H   0  0  0  0  0  0  0  0  0  0  0  0
    1.9884   18.3396   44.1381 H   0  0  0  0  0  0  0  0  0  0  0  0
    1.5977   16.7450   44.5734 H   0  0  0  0  0  0  0  0  0  0  0  0
    0.1734   15.1679   40.4853 H   0  0  0  0  0  0  0  0  0  0  0  0
   -0.9586   16.4662   39.8665 H   0  0  0  0  0  0  0  0  0  0  0  0
   -0.9317   15.4111   37.9804 H   0  0  0  0  0  0  0  0  0  0  0  0
    0.5932   14.4460   38.5276 H   0  0  0  0  0  0  0  0  0  0  0  0
   -0.0901   17.5922   42.2160 H   0  0  0  0  0  0  0  0  0  0  0  0
    1.1270   16.2425   42.2564 H   0  0  0  0  0  0  0  0  0  0  0  0
    0.3324   22.9399   33.1951 H   0  0  0  0  0  0  0  0  0  0  0  0
   -0.0518   24.5040   32.3998 H   0  0  0  0  0  0  0  0  0  0  0  0
    1.6352   23.8869   32.3998 H   0  0  0  0  0  0  0  0  0  0  0  0
    0.0928   24.3580   34.8577 H   0  0  0  0  0  0  0  0  0  0  0  0
    1.0992   18.1658   36.7248 H   0  0  0  0  0  0  0  0  0  0  0  0
   -0.3834   17.7763   37.6432 H   0  0  0  0  0  0  0  0  0  0  0  0
    1.6418   25.7589   33.0670 H   0  0  0  0  0  0  0  0  0  0  0  0
   -0.2604   17.9611   46.3897 H   0  0  0  0  0  0  0  0  0  0  0  0
    0.4573   19.4700   45.7303 H   0  0  0  0  0  0  0  0  0  0  0  0
   -1.3253   19.2486   45.7303 H   0  0  0  0  0  0  0  0  0  0  0  0
  2  7  1  0
  2 13  1  0
  3 23  1  0
  4  3  1  0
  5 25  1  0
  5 11  1  0
  6  4  2  0
  8  5  1  0
  8 11  1  0
  9 26  1  0
  9 22  1  0
 11  2  1  0
 12  7  1  0
 13 19  1  0
 14  6  1  0
 14  1  2  3
 15 10  2  0
 15 27  1  0
 17 28  1  0
 19 18  2  0
 19  1  1  0
 20 17  1  0
 21  4  1  0
 22 21  1  0
 23 20  1  0
 25 24  1  0
 26  6  1  0
 27 25  1  0
 27 16  1  0
  2 29  1  6
  5 30  1  1
  7 31  1  0
  7 32  1  0
  8 33  1  0
  8 34  1  0
  9 35  1  0
  9 36  1  0
 11 37  1  6
 12 38  1  0
 12 39  1  0
 12 40  1  0
 13 41  1  0
 15 42  1  0
 16 43  1  0
 17 44  1  0
 17 45  1  0
 20 46  1  0
 20 47  1  0
 21 48  1  0
 21 49  1  0
 22 50  1  0
 22 51  1  0
 23 52  1  0
 23 53  1  0
 24 54  1  0
 24 55  1  0
 24 56  1  0
 25 57  1  1
 26 58  1  0
 26 59  1  0
 27 60  1  6
 28 61  1  0
 28 62  1  0
 28 63  1  0
M  END
>  <mol_id>  (31) 
2026-09-18-6fnk-s0-n100-0031

>  <rmsd_to_ref>  (31) 


$$$$

     RDKit          3D

 62 63  0  0  0  0  0  0  0  0999 V2000
    0.6620   24.1009   35.0586 C   0  0  0  0  0  0  0  0  0  0  0  0
   -0.1491   16.4663   39.4196 C   0  0  0  0  0  0  0  0  0  0  0  0
   -0.7458   15.5445   40.3224 C   0  0  0  0  0  0  0  0  0  0  0  0
    1.3866   27.2536   33.1619 C   0  0  0  0  0  0  0  0  0  0  0  0
   -0.7497   16.6800   38.1932 C   0  0  0  0  0  0  0  0  0  0  0  0
    4.4678   20.5499   40.6346 C   0  0  0  0  0  0  0  0  0  0  0  0
    2.5177   20.6242   37.8127 C   0  0  0  0  0  0  0  0  0  0  0  0
    1.6721   22.8941   35.0124 C   0  0  1  0  0  0  0  0  0  0  0  0
    0.8035   26.5309   34.4539 C   0  0  0  0  0  0  0  0  0  0  0  0
   -2.4638   13.8422   40.6749 C   0  0  0  0  0  0  0  0  0  0  0  0
    3.2396   19.7323   40.8121 C   0  0  0  0  0  0  0  0  0  0  0  0
    1.8346   20.6027   39.0915 C   0  0  0  0  0  0  0  0  0  0  0  0
    3.4359   23.3454   35.2999 Cl  0  0  0  0  0  0  0  0  0  0  0  0
    1.7912   18.2125   39.3579 N   0  0  0  0  0  0  0  0  0  0  0  0
    1.0366   17.2384   39.9481 C   0  0  0  0  0  0  0  0  0  0  0  0
    1.2971   21.9697   36.1689 C   0  0  0  0  0  0  0  0  0  0  0  0
    1.1511   25.1545   34.2311 C   0  0  0  0  0  0  0  0  0  0  0  0
    2.3086   19.4348   39.7505 C   0  0  2  0  0  0  0  0  0  0  0  0
   -1.9248   16.0600   37.8808 C   0  0  0  0  0  0  0  0  0  0  0  0
   -1.9505   14.9301   39.9747 C   0  0  0  0  0  0  0  0  0  0  0  0
    2.4527   25.0621   33.5435 C   0  0  0  0  0  0  0  0  0  0  0  0
    2.3545   22.1299   37.2804 C   0  0  0  0  0  0  0  0  0  0  0  0
   -2.6336   12.9759   41.4061 N   0  0  0  0  0  0  0  0  0  0  0  0
   -2.5740   15.2279   38.7349 C   0  0  0  0  0  0  0  0  0  0  0  0
    5.3241   20.6153   41.9482 C   0  0  0  0  0  0  0  0  0  0  0  0
    2.3502   26.2201   32.5349 C   0  0  0  0  0  0  0  0  0  0  0  0
   -0.3214   23.7715   34.6921 H   0  0  0  0  0  0  0  0  0  0  0  0
    0.5626   24.4599   36.0937 H   0  0  0  0  0  0  0  0  0  0  0  0
   -0.2635   15.3176   41.2846 H   0  0  0  0  0  0  0  0  0  0  0  0
    0.5779   27.5054   32.4602 H   0  0  0  0  0  0  0  0  0  0  0  0
    1.8928   28.1990   33.4069 H   0  0  0  0  0  0  0  0  0  0  0  0
   -0.2773   17.3544   37.4637 H   0  0  0  0  0  0  0  0  0  0  0  0
    5.0780   20.1055   39.8345 H   0  0  0  0  0  0  0  0  0  0  0  0
    4.1604   21.5742   40.3775 H   0  0  0  0  0  0  0  0  0  0  0  0
    3.5809   20.3714   37.9379 H   0  0  0  0  0  0  0  0  0  0  0  0
    2.1002   19.8893   37.1086 H   0  0  0  0  0  0  0  0  0  0  0  0
    1.5975   22.4597   34.0044 H   0  0  0  0  0  0  0  0  0  0  0  0
    1.2751   26.9156   35.3702 H   0  0  0  0  0  0  0  0  0  0  0  0
   -0.2758   26.6911   34.5935 H   0  0  0  0  0  0  0  0  0  0  0  0
    3.5821   18.7577   41.1902 H   0  0  0  0  0  0  0  0  0  0  0  0
    2.6329   20.3996   41.4418 H   0  0  0  0  0  0  0  0  0  0  0  0
    2.0816   21.5016   39.6753 H   0  0  0  0  0  0  0  0  0  0  0  0
    0.7411   20.5911   38.9722 H   0  0  0  0  0  0  0  0  0  0  0  0
    1.2308   18.4608   38.5302 H   0  0  0  0  0  0  0  0  0  0  0  0
    2.6815   17.7061   39.4664 H   0  0  0  0  0  0  0  0  0  0  0  0
    0.6586   17.7129   40.8657 H   0  0  0  0  0  0  0  0  0  0  0  0
    1.7758   16.4265   39.8809 H   0  0  0  0  0  0  0  0  0  0  0  0
    0.3050   22.2435   36.5572 H   0  0  0  0  0  0  0  0  0  0  0  0
    1.2653   20.9256   35.8242 H   0  0  0  0  0  0  0  0  0  0  0  0
    0.3908   24.7549   33.5438 H   0  0  0  0  0  0  0  0  0  0  0  0
    3.1083   19.3368   39.0016 H   0  0  0  0  0  0  0  0  0  0  0  0
   -2.3668   16.2431   36.8903 H   0  0  0  0  0  0  0  0  0  0  0  0
    3.2882   25.2116   34.2432 H   0  0  0  0  0  0  0  0  0  0  0  0
    2.6480   24.0824   33.0831 H   0  0  0  0  0  0  0  0  0  0  0  0
    3.3023   22.5151   36.8766 H   0  0  0  0  0  0  0  0  0  0  0  0
    2.0666   22.8465   38.0638 H   0  0  0  0  0  0  0  0  0  0  0  0
   -3.5524   14.7980   38.4742 H   0  0  0  0  0  0  0  0  0  0  0  0
    4.6690   20.4736   42.8205 H   0  0  0  0  0  0  0  0  0  0  0  0
    6.0860   19.8221   41.9292 H   0  0  0  0  0  0  0  0  0  0  0  0
    5.8176   21.5961   42.0158 H   0  0  0  0  0  0  0  0  0  0  0  0
    1.9494   25.8571   31.5770 H   0  0  0  0  0  0  0  0  0  0  0  0
    3.3362   26.6631   32.3313 H   0  0  0  0  0  0  0  0  0  0  0  0
  1  8  1  0
  2 15  1  0
  2  3  1  0
  4  9  1  0
  5  2  2  0
  6 11  1  0
  6 25  1  0
  7 12  1  0
  8 13  1  0
  8 16  1  0
 10 23  3  0
 14 18  1  0
 14 15  1  0
 16 22  1  0
 17  9  1  0
 17  1  1  0
 18 12  1  0
 18 11  1  0
 19  5  1  0
 19 24  2  0
 20  3  2  0
 20 10  1  0
 21 17  1  0
 22  7  1  0
 24 20  1  0
 26  4  1  0
 26 21  1  0
  1 27  1  0
  1 28  1  0
  3 29  1  0
  4 30  1  0
  4 31  1  0
  5 32  1  0
  6 33  1  0
  6 34  1  0
  7 35  1  0
  7 36  1  0
  8 37  1  6
  9 38  1  0
  9 39  1  0
 11 40  1  0
 11 41  1  0
 12 42  1  0
 12 43  1  0
 14 44  1  0
 14 45  1  0
 15 46  1  0
 15 47  1  0
 16 48  1  0
 16 49  1  0
 17 50  1  0
 18 51  1  6
 19 52  1  0
 21 53  1  0
 21 54  1  0
 22 55  1  0
 22 56  1  0
 24 57  1  0
 25 58  1  0
 25 59  1  0
 25 60  1  0
 26 61  1  0
 26 62  1  0
M  CHG  1  14   1
M  END
>  <mol_id>  (32) 
2026-09-18-6fnk-s0-n100-0032

>  <rmsd_to_ref>  (32) 


$$$$

     RDKit          3D

 74 75  0  0  0  0  0  0  0  0999 V2000
    1.6256   22.7488   30.6944 C   0  0  0  0  0  0  0  0  0  0  0  0
    5.4131   21.6080   42.6735 C   0  0  0  0  0  0  0  0  0  0  0  0
    2.8514   21.9992   35.3927 C   0  0  0  0  0  0  0  0  0  0  0  0
    4.2233   23.2625   33.4239 O   0  0  0  0  0  0  0  0  0  0  0  0
    1.8431   13.1504   39.4883 C   0  0  0  0  0  0  0  0  0  0  0  0
    4.2552   21.0692   43.5895 C   0  0  0  0  0  0  0  0  0  0  0  0
    2.6126   20.8932   40.1811 C   0  0  1  0  0  0  0  0  0  0  0  0
    2.8267   13.4745   37.2534 N   0  0  0  0  0  0  0  0  0  0  0  0
    2.8090   23.1536   33.1023 C   0  0  2  0  0  0  0  0  0  0  0  0
    0.3141   13.2128   41.1724 N   0  0  0  0  0  0  0  0  0  0  0  0
    2.1666   24.4100   32.4265 C   0  0  1  0  0  0  0  0  0  0  0  0
    1.6250   17.1329   38.8225 S   0  0  0  0  0  0  0  0  0  0  0  0
    0.7534   10.8303   40.4651 C   0  0  0  0  0  0  0  0  0  0  0  0
    2.8316   12.5784   38.4401 C   0  0  0  0  0  0  0  0  0  0  0  0
    4.9244   21.4021   41.1934 C   0  0  0  0  0  0  0  0  0  0  0  0
    2.5369   18.2788   39.7652 C   0  0  0  0  0  0  0  0  0  0  0  0
    2.3234   15.6942   39.3744 C   0  0  0  0  0  0  0  0  0  0  0  0
    2.2622   22.1629   36.8331 C   0  0  0  0  0  0  0  0  0  0  0  0
    1.5159   14.4297   39.7419 N   0  0  0  0  0  0  0  0  0  0  0  0
    1.0057   12.2806   40.2625 C   0  0  0  0  0  0  0  0  0  0  0  0
    2.0368   24.1031   30.9571 C   0  0  0  0  0  0  0  0  0  0  0  0
    2.6496   20.9972   37.6583 C   0  0  0  0  0  0  0  0  0  0  0  0
    3.0350   20.8700   42.7196 C   0  0  0  0  0  0  0  0  0  0  0  0
    0.8243   24.9895   33.0038 C   0  0  0  0  0  0  0  0  0  0  0  0
    3.2805   21.3952   38.9508 C   0  0  0  0  0  0  0  0  0  0  0  0
    0.7257   14.5645   40.9249 O   0  0  0  0  0  0  0  0  0  0  0  0
    1.7909   19.5629   40.1521 C   0  0  0  0  0  0  0  0  0  0  0  0
    2.0331   22.6821   34.3482 C   0  0  0  0  0  0  0  0  0  0  0  0
    3.5466   20.8844   41.3160 N   0  0  0  0  0  0  0  0  0  0  0  0
    1.3717   22.2522   31.6426 H   0  0  0  0  0  0  0  0  0  0  0  0
    0.7444   22.7543   30.0360 H   0  0  0  0  0  0  0  0  0  0  0  0
    2.4463   22.2050   30.2040 H   0  0  0  0  0  0  0  0  0  0  0  0
    5.5927   22.6750   42.8720 H   0  0  0  0  0  0  0  0  0  0  0  0
    6.3579   21.0779   42.8638 H   0  0  0  0  0  0  0  0  0  0  0  0
    3.8654   22.4253   35.3780 H   0  0  0  0  0  0  0  0  0  0  0  0
    2.8549   20.9245   35.1582 H   0  0  0  0  0  0  0  0  0  0  0  0
    4.3355   23.3121   34.4063 H   0  0  0  0  0  0  0  0  0  0  0  0
    4.5515   20.1122   44.0438 H   0  0  0  0  0  0  0  0  0  0  0  0
    4.0394   21.7836   44.3975 H   0  0  0  0  0  0  0  0  0  0  0  0
    1.8102   21.6382   40.2867 H   0  0  0  0  0  0  0  0  0  0  0  0
    2.6897   14.4485   37.5592 H   0  0  0  0  0  0  0  0  0  0  0  0
    3.7261   13.3935   36.7581 H   0  0  0  0  0  0  0  0  0  0  0  0
    2.0607   13.2023   36.6208 H   0  0  0  0  0  0  0  0  0  0  0  0
    2.7313   22.3946   32.3099 H   0  0  0  0  0  0  0  0  0  0  0  0
   -0.3711   12.9316   41.8880 H   0  0  0  0  0  0  0  0  0  0  0  0
    2.8538   25.2380   32.6549 H   0  0  0  0  0  0  0  0  0  0  0  0
    0.6213   10.6274   41.5381 H   0  0  0  0  0  0  0  0  0  0  0  0
   -0.1570   10.5370   39.9217 H   0  0  0  0  0  0  0  0  0  0  0  0
    1.6091   10.2527   40.0854 H   0  0  0  0  0  0  0  0  0  0  0  0
    2.5152   11.5675   38.1437 H   0  0  0  0  0  0  0  0  0  0  0  0
    3.8440   12.5211   38.8666 H   0  0  0  0  0  0  0  0  0  0  0  0
    5.5655   20.6762   40.6717 H   0  0  0  0  0  0  0  0  0  0  0  0
    4.9660   22.3340   40.6104 H   0  0  0  0  0  0  0  0  0  0  0  0
    2.8529   17.7786   40.6925 H   0  0  0  0  0  0  0  0  0  0  0  0
    3.3724   18.5977   39.1246 H   0  0  0  0  0  0  0  0  0  0  0  0
    3.0253   15.3818   38.5871 H   0  0  0  0  0  0  0  0  0  0  0  0
    2.6896   16.0045   40.3641 H   0  0  0  0  0  0  0  0  0  0  0  0
    2.6573   23.0828   37.2889 H   0  0  0  0  0  0  0  0  0  0  0  0
    1.1653   22.2247   36.7766 H   0  0  0  0  0  0  0  0  0  0  0  0
    3.0122   24.2716   30.4773 H   0  0  0  0  0  0  0  0  0  0  0  0
    1.2573   24.7655   30.5527 H   0  0  0  0  0  0  0  0  0  0  0  0
    1.7494   20.4028   37.8736 H   0  0  0  0  0  0  0  0  0  0  0  0
    3.3912   20.4172   37.0894 H   0  0  0  0  0  0  0  0  0  0  0  0
    2.5541   19.9067   42.9448 H   0  0  0  0  0  0  0  0  0  0  0  0
    2.2782   21.6501   42.8889 H   0  0  0  0  0  0  0  0  0  0  0  0
    0.8608   24.9733   34.1031 H   0  0  0  0  0  0  0  0  0  0  0  0
    0.6926   26.0249   32.6565 H   0  0  0  0  0  0  0  0  0  0  0  0
   -0.0196   24.3757   32.6558 H   0  0  0  0  0  0  0  0  0  0  0  0
    3.2901   22.4942   38.9968 H   0  0  0  0  0  0  0  0  0  0  0  0
    4.2809   20.9377   38.9472 H   0  0  0  0  0  0  0  0  0  0  0  0
    0.9708   19.6976   39.4314 H   0  0  0  0  0  0  0  0  0  0  0  0
    1.4789   19.4029   41.1946 H   0  0  0  0  0  0  0  0  0  0  0  0
    1.5627   23.5635   34.8085 H   0  0  0  0  0  0  0  0  0  0  0  0
    1.3126   21.9320   33.9901 H   0  0  0  0  0  0  0  0  0  0  0  0
  1 21  1  0
  2  6  1  0
  3 18  1  0
  5 19  1  0
  5 20  2  0
  7 25  1  0
  7 29  1  0
  8 14  1  0
  9  4  1  0
  9 28  1  0
 11  9  1  0
 11 24  1  0
 12 17  1  0
 12 16  1  0
 14  5  1  0
 15 29  1  0
 15  2  1  0
 16 27  1  0
 17 19  1  0
 18 22  1  0
 19 26  1  0
 20 13  1  0
 20 10  1  0
 21 11  1  0
 22 25  1  0
 23  6  1  0
 26 10  1  0
 27  7  1  0
 28  3  1  0
 29 23  1  0
  1 30  1  0
  1 31  1  0
  1 32  1  0
  2 33  1  0
  2 34  1  0
  3 35  1  0
  3 36  1  0
  4 37  1  0
  6 38  1  0
  6 39  1  0
  7 40  1  1
  8 41  1  0
  8 42  1  0
  8 43  1  0
  9 44  1  6
 10 45  1  0
 11 46  1  6
 13 47  1  0
 13 48  1  0
 13 49  1  0
 14 50  1  0
 14 51  1  0
 15 52  1  0
 15 53  1  0
 16 54  1  0
 16 55  1  0
 17 56  1  0
 17 57  1  0
 18 58  1  0
 18 59  1  0
 21 60  1  0
 21 61  1  0
 22 62  1  0
 22 63  1  0
 23 64  1  0
 23 65  1  0
 24 66  1  0
 24 67  1  0
 24 68  1  0
 25 69  1  0
 25 70  1  0
 27 71  1  0
 27 72  1  0
 28 73  1  0
 28 74  1  0
M  CHG  1   8   1
M  END
>  <mol_id>  (33) 
2026-09-18-6fnk-s0-n100-0033

>  <rmsd_to_ref>  (33) 


$$$$

     RDKit          3D

 60 63  0  0  0  0  0  0  0  0999 V2000
    4.3368   23.7045   33.8003 C   0  0  2  0  0  0  0  0  0  0  0  0
   -1.1861   12.9051   40.4942 O   0  0  0  0  0  0  0  0  0  0  0  0
   -0.9446   15.1175   41.2711 C   0  0  2  0  0  0  0  0  0  0  0  0
    2.2559   18.3078   37.9758 C   0  0  0  0  0  0  0  0  0  0  0  0
    3.5383   23.0098   35.2352 S   0  0  1  0  0  4  0  0  0  0  0  0
    5.3808   24.6964   31.8988 C   0  0  2  0  0  0  0  0  0  0  0  0
   -1.7773   15.1738   43.4384 O   0  0  0  0  0  0  0  0  0  0  0  0
    0.5715   16.8307   39.9469 C   0  0  0  0  0  0  0  0  0  0  0  0
   -2.0801   13.3221   42.6381 O   0  0  0  0  0  0  0  0  0  0  0  0
    4.3495   22.2790   37.8362 C   0  0  0  0  0  0  0  0  0  0  0  0
    4.0469   21.5583   39.0897 C   0  0  2  0  0  0  0  0  0  0  0  0
    4.9100   22.1759   40.4693 Cl  0  0  0  0  0  0  0  0  0  0  0  0
    3.2011   20.3469   39.1522 C   0  0  0  0  0  0  0  0  0  0  0  0
    5.5814   25.4956   32.9015 C   0  0  0  0  0  0  0  0  0  0  0  0
   -1.6706   14.6036   42.4834 C   0  0  0  0  0  0  0  0  0  0  0  0
    5.1234   24.8334   34.2431 C   0  0  0  0  0  0  0  0  0  0  0  0
    3.9101   24.9319   31.3023 C   0  0  1  0  0  0  0  0  0  0  0  0
   -0.3265   14.7123   38.9028 C   0  0  0  0  0  0  0  0  0  0  0  0
   -0.7320   14.2546   40.3029 C   0  0  2  0  0  0  0  0  0  0  0  0
    1.7029   17.6643   39.0383 C   0  0  0  0  0  0  0  0  0  0  0  0
    2.0829   22.4551   34.2942 C   0  0  0  0  0  0  0  0  0  0  0  0
    3.3649   21.9206   36.7385 C   0  0  2  0  0  0  0  0  0  0  0  0
   -0.1515   16.4150   41.2373 C   0  0  0  0  0  0  0  0  0  0  0  0
    0.1779   15.8496   38.8688 N   0  0  0  0  0  0  0  0  0  0  0  0
    3.1444   20.3683   36.5798 C   0  0  0  0  0  0  0  0  0  0  0  0
    3.8416   23.7854   32.1749 C   0  0  2  0  0  0  0  0  0  0  0  0
    3.7017   26.1519   30.1757 C   0  0  0  0  0  0  0  0  0  0  0  0
    2.8378   19.6637   37.9141 C   0  0  0  0  0  0  0  0  0  0  0  0
    4.7612   22.7480   33.4611 H   0  0  0  0  0  0  0  0  0  0  0  0
   -1.3946   12.7595   41.4510 H   0  0  0  0  0  0  0  0  0  0  0  0
   -1.8190   15.7520   41.0645 H   0  0  0  0  0  0  0  0  0  0  0  0
    2.2722   17.7409   37.0333 H   0  0  0  0  0  0  0  0  0  0  0  0
    4.2600   23.8200   36.0716 H   0  0  0  0  0  0  0  0  0  0  0  0
    6.4094   24.5309   31.5459 H   0  0  0  0  0  0  0  0  0  0  0  0
    4.2970   23.3615   38.0244 H   0  0  0  0  0  0  0  0  0  0  0  0
    5.3574   21.9883   37.5051 H   0  0  0  0  0  0  0  0  0  0  0  0
    3.1566   22.1874   39.2365 H   0  0  0  0  0  0  0  0  0  0  0  0
    2.8492   19.9645   40.1217 H   0  0  0  0  0  0  0  0  0  0  0  0
    6.6537   25.7325   32.9643 H   0  0  0  0  0  0  0  0  0  0  0  0
    4.9941   26.4122   32.7434 H   0  0  0  0  0  0  0  0  0  0  0  0
    4.5148   25.5291   34.8392 H   0  0  0  0  0  0  0  0  0  0  0  0
    5.9638   24.5465   34.8924 H   0  0  0  0  0  0  0  0  0  0  0  0
    4.1249   24.2200   30.4917 H   0  0  0  0  0  0  0  0  0  0  0  0
   -1.2230   14.7122   38.2656 H   0  0  0  0  0  0  0  0  0  0  0  0
    0.4442   14.0115   38.5494 H   0  0  0  0  0  0  0  0  0  0  0  0
    0.3393   14.1694   40.5376 H   0  0  0  0  0  0  0  0  0  0  0  0
    1.2289   22.3345   34.9770 H   0  0  0  0  0  0  0  0  0  0  0  0
    1.8357   23.2032   33.5265 H   0  0  0  0  0  0  0  0  0  0  0  0
    2.3042   21.4924   33.8103 H   0  0  0  0  0  0  0  0  0  0  0  0
    2.3471   22.1990   37.0491 H   0  0  0  0  0  0  0  0  0  0  0  0
   -0.8535   17.2248   41.4849 H   0  0  0  0  0  0  0  0  0  0  0  0
    0.6709   16.2315   41.9445 H   0  0  0  0  0  0  0  0  0  0  0  0
    1.0540   15.7058   38.3466 H   0  0  0  0  0  0  0  0  0  0  0  0
   -0.6813   16.3409   38.5834 H   0  0  0  0  0  0  0  0  0  0  0  0
    2.3004   20.2027   35.8941 H   0  0  0  0  0  0  0  0  0  0  0  0
    4.0804   19.9415   36.1903 H   0  0  0  0  0  0  0  0  0  0  0  0
    3.0885   22.9935   32.0496 H   0  0  0  0  0  0  0  0  0  0  0  0
    3.4116   27.0800   30.6897 H   0  0  0  0  0  0  0  0  0  0  0  0
    4.6439   26.3132   29.6313 H   0  0  0  0  0  0  0  0  0  0  0  0
    2.9125   25.8641   29.4654 H   0  0  0  0  0  0  0  0  0  0  0  0
  1 16  1  0
  1  5  1  0
  3 23  1  0
  3 15  1  0
  4 28  1  0
  4 20  2  0
  5 21  1  0
  6 26  1  0
  6 14  1  0
  8 23  1  0
 10 11  1  0
 11 13  1  0
 11 12  1  0
 14 16  1  0
 15  9  2  0
 15  7  1  0
 17 27  1  0
 17  6  1  0
 17 26  1  0
 18 24  1  0
 18 19  1  0
 19  2  1  0
 19  3  1  0
 20  8  2  0
 22  5  1  0
 22 10  1  0
 24  8  1  0
 25 22  1  0
 25 28  1  0
 26  1  1  0
 28 13  2  0
  1 29  1  6
  2 30  1  0
  3 31  1  6
  4 32  1  0
  5 33  1  0
  6 34  1  6
 10 35  1  0
 10 36  1  0
 11 37  1  1
 13 38  1  0
 14 39  1  0
 14 40  1  0
 16 41  1  0
 16 42  1  0
 17 43  1  1
 18 44  1  0
 18 45  1  0
 19 46  1  1
 21 47  1  0
 21 48  1  0
 21 49  1  0
 22 50  1  1
 23 51  1  0
 23 52  1  0
 24 53  1  0
 24 54  1  0
 25 55  1  0
 25 56  1  0
 26 57  1  6
 27 58  1  0
 27 59  1  0
 27 60  1  0
M  CHG  2   7  -1  24   1
M  END
>  <mol_id>  (34) 
2026-09-18-6fnk-s0-n100-0034

>  <rmsd_to_ref>  (34) 


$$$$

     RDKit          3D

 63 62  0  0  0  0  0  0  0  0999 V2000
    2.8760   20.2340   38.6920 N   0  0  0  0  0  0  0  0  0  0  0  0
    0.8690   26.9040   33.3690 C   0  0  2  0  0  0  0  0  0  0  0  0
    2.2960   23.3800   34.6020 C   0  0  0  0  0  0  0  0  0  0  0  0
   -1.2910   15.0830   40.5300 O   0  0  0  0  0  0  0  0  0  0  0  0
    2.3010   19.0230   38.3090 C   0  0  0  0  0  0  0  0  0  0  0  0
   -0.3390   15.9520   38.4680 C   0  0  0  0  0  0  0  0  0  0  0  0
    2.1680   16.7210   38.3790 O   0  0  0  0  0  0  0  0  0  0  0  0
    1.9210   25.0070   32.4190 S   0  0  0  0  0  0  0  0  0  0  0  0
    3.7710   21.9030   37.3090 C   0  0  0  0  0  0  0  0  0  0  0  0
    0.8820   25.6550   33.9600 C   0  0  0  0  0  0  0  0  0  0  0  0
    1.9560   23.1820   36.0080 C   0  0  0  0  0  0  0  0  0  0  0  0
    2.5970   21.7720   36.4050 C   0  0  2  0  0  0  0  0  0  0  0  0
   -2.6250   15.5910   38.8950 O   0  0  0  0  0  0  0  0  0  0  0  0
   -1.4130   15.4880   39.3640 C   0  0  0  0  0  0  0  0  0  0  0  0
    4.3180   20.2460   43.2890 C   0  0  0  0  0  0  0  0  0  0  0  0
   -0.9450   16.8410   37.5100 N   0  0  0  0  0  0  0  0  0  0  0  0
    0.1160   27.4560   34.1040 C   0  0  0  0  0  0  0  0  0  0  0  0
    4.2480   20.9190   42.1690 C   0  0  0  0  0  0  0  0  0  0  0  0
    0.8790   25.6490   35.2140 F   0  0  0  0  0  0  0  0  0  0  0  0
    3.5700   20.2380   41.1980 C   0  0  0  0  0  0  0  0  0  0  0  0
    1.5310   26.7870   31.9990 C   0  0  0  0  0  0  0  0  0  0  0  0
    0.6760   27.9330   35.2120 C   0  0  0  0  0  0  0  0  0  0  0  0
    3.4300   20.7480   39.7590 C   0  0  0  0  0  0  0  0  0  0  0  0
    3.1390   19.0600   41.8150 C   0  0  0  0  0  0  0  0  0  0  0  0
    2.1430   17.9050   39.2560 C   0  0  0  0  0  0  0  0  0  0  0  0
    3.6430   19.0580   43.0550 C   0  0  0  0  0  0  0  0  0  0  0  0
    2.4760   21.3420   37.6760 C   0  0  1  0  0  0  0  0  0  0  0  0
    1.8820   18.9030   37.1260 O   0  0  0  0  0  0  0  0  0  0  0  0
    1.2368   27.9002   33.0823 H   0  0  0  0  0  0  0  0  0  0  0  0
    3.2444   23.9323   34.5284 H   0  0  0  0  0  0  0  0  0  0  0  0
    2.4018   22.4023   34.1092 H   0  0  0  0  0  0  0  0  0  0  0  0
    1.4979   23.9546   34.1092 H   0  0  0  0  0  0  0  0  0  0  0  0
    0.4302   16.4860   39.0452 H   0  0  0  0  0  0  0  0  0  0  0  0
    0.1461   15.1031   37.9640 H   0  0  0  0  0  0  0  0  0  0  0  0
    2.1853   15.9005   38.9327 H   0  0  0  0  0  0  0  0  0  0  0  0
    1.9542   24.8557   33.7802 H   0  0  0  0  0  0  0  0  0  0  0  0
    4.0872   22.8872   37.6851 H   0  0  0  0  0  0  0  0  0  0  0  0
    4.8235   21.5835   37.3197 H   0  0  0  0  0  0  0  0  0  0  0  0
   -0.0091   25.1089   33.6168 H   0  0  0  0  0  0  0  0  0  0  0  0
    1.8321   25.1895   33.6591 H   0  0  0  0  0  0  0  0  0  0  0  0
    2.3837   23.9865   36.6244 H   0  0  0  0  0  0  0  0  0  0  0  0
    0.8684   23.1978   36.1722 H   0  0  0  0  0  0  0  0  0  0  0  0
    2.3761   21.2905   35.4410 H   0  0  0  0  0  0  0  0  0  0  0  0
    4.8101   20.5580   44.2220 H   0  0  0  0  0  0  0  0  0  0  0  0
   -1.4532   17.5865   38.0069 H   0  0  0  0  0  0  0  0  0  0  0  0
   -0.2127   17.2598   36.9191 H   0  0  0  0  0  0  0  0  0  0  0  0
   -1.6025   16.3124   36.9191 H   0  0  0  0  0  0  0  0  0  0  0  0
   -0.3403   28.2965   33.5605 H   0  0  0  0  0  0  0  0  0  0  0  0
   -0.6176   26.7015   34.4244 H   0  0  0  0  0  0  0  0  0  0  0  0
    4.6849   21.9183   42.0258 H   0  0  0  0  0  0  0  0  0  0  0  0
    0.8467   26.9169   31.1476 H   0  0  0  0  0  0  0  0  0  0  0  0
    2.3152   27.4878   31.6766 H   0  0  0  0  0  0  0  0  0  0  0  0
    0.1726   27.5043   36.0911 H   0  0  0  0  0  0  0  0  0  0  0  0
    1.7417   27.6609   35.2307 H   0  0  0  0  0  0  0  0  0  0  0  0
    0.5769   29.0284   35.2307 H   0  0  0  0  0  0  0  0  0  0  0  0
    4.4699   20.9259   39.4476 H   0  0  0  0  0  0  0  0  0  0  0  0
    2.6352   21.4794   39.9671 H   0  0  0  0  0  0  0  0  0  0  0  0
    2.5050   18.2813   41.3660 H   0  0  0  0  0  0  0  0  0  0  0  0
    2.9718   17.8791   39.9788 H   0  0  0  0  0  0  0  0  0  0  0  0
    1.2275   17.9763   39.8617 H   0  0  0  0  0  0  0  0  0  0  0  0
    2.8241   18.9539   43.7820 H   0  0  0  0  0  0  0  0  0  0  0  0
    4.3423   18.2156   43.1617 H   0  0  0  0  0  0  0  0  0  0  0  0
    1.4687   21.3488   38.1180 H   0  0  0  0  0  0  0  0  0  0  0  0
  1 23  1  0
  2 21  1  0
  2 10  1  0
  2 17  1  0
  3 11  1  0
  5  1  1  0
  5 25  1  0
  6 14  1  0
  7 25  1  0
  9 27  1  0
 10 19  1  0
 12 11  1  0
 12  9  1  0
 12 27  1  0
 13 14  2  0
 14  4  1  0
 16  6  1  0
 17 22  1  0
 18 15  2  0
 20 24  2  0
 20 18  1  0
 21  8  1  0
 23 20  1  0
 24 26  1  0
 26 15  1  0
 27  1  1  0
 28  5  2  0
  2 29  1  1
  3 30  1  0
  3 31  1  0
  3 32  1  0
  6 33  1  0
  6 34  1  0
  7 35  1  0
  8 36  1  0
  9 37  1  0
  9 38  1  0
 10 39  1  0
 10 40  1  0
 11 41  1  0
 11 42  1  0
 12 43  1  6
 15 44  1  0
 16 45  1  0
 16 46  1  0
 16 47  1  0
 17 48  1  0
 17 49  1  0
 18 50  1  0
 21 51  1  0
 21 52  1  0
 22 53  1  0
 22 54  1  0
 22 55  1  0
 23 56  1  0
 23 57  1  0
 24 58  1  0
 25 59  1  0
 25 60  1  0
 26 61  1  0
 26 62  1  0
 27 63  1  1
M  CHG  2   4  -1  16   1
M  END
>  <mol_id>  (35) 
2026-09-18-6fnk-s0-n100-0035

>  <rmsd_to_ref>  (35) 


$$$$

     RDKit          3D

 48 48  0  0  0  0  0  0  0  0999 V2000
    6.4031   21.4581   41.5222 O   0  0  0  0  0  0  0  0  0  0  0  0
    2.1016   19.6642   40.4225 C   0  0  0  0  0  0  0  0  0  0  0  0
    5.5239   19.8551   42.7600 O   0  0  0  0  0  0  0  0  0  0  0  0
    1.5549   23.6220   34.6989 C   0  0  1  0  0  0  0  0  0  0  0  0
    3.1100   21.7006   37.5246 N   0  0  0  0  0  0  0  0  0  0  0  0
    4.2733   20.5333   40.8738 C   0  0  0  0  0  0  0  0  0  0  0  0
   -1.7079   16.0896   38.8872 N   0  0  0  0  0  0  0  0  0  0  0  0
    3.1578   19.7890   41.2965 C   0  0  0  0  0  0  0  0  0  0  0  0
    0.4129   14.6051   40.4624 P   0  0  0  0  0  5  0  0  0  0  0  0
    2.2479   22.2673   36.5912 C   0  0  2  0  0  0  0  0  0  0  0  0
    0.6388   16.0428   39.5300 C   0  0  0  0  0  0  0  0  0  0  0  0
    0.5980   25.4356   33.4864 N   0  0  0  0  0  0  0  0  0  0  0  0
    1.5657   14.4715   41.4028 O   0  0  0  0  0  0  0  0  0  0  0  0
   -0.9091   14.6541   41.0392 O   0  0  0  0  0  0  0  0  0  0  0  0
    2.2380   24.1099   32.4170 N   0  0  0  0  0  0  0  0  0  0  0  0
    1.1090   22.8497   36.8174 C   0  0  0  0  0  0  0  0  0  0  0  0
    0.6533   23.6359   35.7769 C   0  0  0  0  0  0  0  0  0  0  0  0
    5.4243   20.6086   41.7760 N   0  0  0  0  0  0  0  0  0  0  0  0
    0.5934   13.4166   39.4672 O   0  0  0  0  0  0  0  0  0  0  0  0
    1.5353   24.3963   33.5147 C   0  0  0  0  0  0  0  0  0  0  0  0
    2.0703   20.3220   39.1530 C   0  0  0  0  0  0  0  0  0  0  0  0
    3.1523   21.1246   38.7910 C   0  0  0  0  0  0  0  0  0  0  0  0
   -0.3229   16.0838   38.4157 C   0  0  0  0  0  0  0  0  0  0  0  0
    4.2648   21.2377   39.6668 C   0  0  0  0  0  0  0  0  0  0  0  0
    2.6629   22.4147   34.9348 S   0  0  0  0  0  0  0  0  0  0  0  0
    1.2480   19.0337   40.7120 H   0  0  0  0  0  0  0  0  0  0  0  0
    0.8656   22.8993   34.2378 H   0  0  0  0  0  0  0  0  0  0  0  0
    4.0644   21.7111   37.1375 H   0  0  0  0  0  0  0  0  0  0  0  0
   -1.7204   16.0475   39.9162 H   0  0  0  0  0  0  0  0  0  0  0  0
   -2.1739   16.9528   38.5731 H   0  0  0  0  0  0  0  0  0  0  0  0
   -2.2044   15.2725   38.5040 H   0  0  0  0  0  0  0  0  0  0  0  0
    3.1300   19.3222   42.2922 H   0  0  0  0  0  0  0  0  0  0  0  0
    2.7635   23.2327   36.7011 H   0  0  0  0  0  0  0  0  0  0  0  0
    0.4860   16.9212   40.1741 H   0  0  0  0  0  0  0  0  0  0  0  0
    1.6604   16.0487   39.1222 H   0  0  0  0  0  0  0  0  0  0  0  0
    0.5259   26.0416   32.6568 H   0  0  0  0  0  0  0  0  0  0  0  0
   -0.0196   25.5943   34.2953 H   0  0  0  0  0  0  0  0  0  0  0  0
    1.2329   14.4727   42.3352 H   0  0  0  0  0  0  0  0  0  0  0  0
   -0.8403   14.6146   42.0260 H   0  0  0  0  0  0  0  0  0  0  0  0
    2.1736   24.7210   31.5903 H   0  0  0  0  0  0  0  0  0  0  0  0
    0.3576   22.0709   37.0149 H   0  0  0  0  0  0  0  0  0  0  0  0
    1.2651   23.5222   37.6737 H   0  0  0  0  0  0  0  0  0  0  0  0
    0.5352   24.6698   36.1330 H   0  0  0  0  0  0  0  0  0  0  0  0
   -0.3102   23.2332   35.4312 H   0  0  0  0  0  0  0  0  0  0  0  0
    1.2117   20.1977   38.4768 H   0  0  0  0  0  0  0  0  0  0  0  0
   -0.1678   15.1997   37.7800 H   0  0  0  0  0  0  0  0  0  0  0  0
   -0.1515   17.0134   37.8531 H   0  0  0  0  0  0  0  0  0  0  0  0
    5.1173   21.8780   39.3958 H   0  0  0  0  0  0  0  0  0  0  0  0
  1 18  1  0
  2  8  1  0
  4 20  1  0
  4 25  1  0
  4 17  1  0
  5 22  1  0
  6  8  2  0
  6 18  1  0
  9 14  1  0
  9 13  1  0
 10 16  1  0
 10  5  1  0
 11  9  1  0
 12 20  1  0
 15 20  2  3
 17 16  1  0
 18  3  2  0
 19  9  2  0
 21  2  2  0
 22 21  1  0
 22 24  2  0
 23  7  1  0
 23 11  1  0
 24  6  1  0
 25 10  1  0
  2 26  1  0
  4 27  1  1
  5 28  1  0
  7 29  1  0
  7 30  1  0
  7 31  1  0
  8 32  1  0
 10 33  1  6
 11 34  1  0
 11 35  1  0
 12 36  1  0
 12 37  1  0
 13 38  1  0
 14 39  1  0
 15 40  1  0
 16 41  1  0
 16 42  1  0
 17 43  1  0
 17 44  1  0
 21 45  1  0
 23 46  1  0
 23 47  1  0
 24 48  1  0
M  CHG  3   1  -1   7   1  18   1
M  END
>  <mol_id>  (36) 
2026-09-18-6fnk-s0-n100-0036

>  <rmsd_to_ref>  (36) 


$$$$

     RDKit          3D

 75 78  0  0  0  0  0  0  0  0999 V2000
    1.7100   23.0410   36.5560 C   0  0  1  0  0  0  0  0  0  0  0  0
   -3.6840   16.0970   36.7880 C   0  0  0  0  0  0  0  0  0  0  0  0
   -1.0720   24.5330   35.0650 O   0  0  0  0  0  0  0  0  0  0  0  0
    0.3650   22.3070   36.5180 C   0  0  0  0  0  0  0  0  0  0  0  0
    0.8790   14.5250   34.1070 F   0  0  0  0  0  0  0  0  0  0  0  0
   -1.4790   16.2340   34.7200 F   0  0  0  0  0  0  0  0  0  0  0  0
    2.8620   24.9460   33.3340 C   0  0  0  0  0  0  0  0  0  0  0  0
    0.3480   22.2280   35.0670 C   0  0  0  0  0  0  0  0  0  0  0  0
    2.8430   22.0320   36.7620 C   0  0  0  0  0  0  0  0  0  0  0  0
    0.5020   17.0560   43.3690 C   0  0  0  0  0  0  0  0  0  0  0  0
    2.6790   21.2530   38.8530 O   0  0  0  0  0  0  0  0  0  0  0  0
    1.4480   17.9720   41.3150 N   0  0  0  0  0  0  0  0  0  0  0  0
    2.4300   16.8490   38.0430 C   0  0  0  0  0  0  0  0  0  0  0  0
    2.1650   17.5510   39.3200 C   0  0  0  0  0  0  0  0  0  0  0  0
    2.3840   18.8410   39.5040 N   0  0  0  0  0  0  0  0  0  0  0  0
    0.5840   15.0120   35.2420 C   0  0  1  0  0  0  0  0  0  0  0  0
    1.9770   25.8010   32.7700 C   0  0  0  0  0  0  0  0  0  0  0  0
    0.2260   24.4560   34.8560 C   0  0  0  0  0  0  0  0  0  0  0  0
    1.3580   23.3370   35.0960 C   0  0  1  0  0  0  0  0  0  0  0  0
    1.3430   16.4970   37.0920 C   0  0  1  0  0  0  0  0  0  0  0  0
    4.2230   24.0260   35.0680 O   0  0  0  0  0  0  0  0  0  0  0  0
    0.7960   26.6220   33.3300 C   0  0  0  0  0  0  0  0  0  0  0  0
    0.8330   19.6150   42.7780 C   0  0  0  0  0  0  0  0  0  0  0  0
    2.7900   20.8990   37.6950 C   0  0  0  0  0  0  0  0  0  0  0  0
    0.8890   18.1960   42.5490 C   0  0  0  0  0  0  0  0  0  0  0  0
    1.7570   16.8720   40.4370 N   0  0  0  0  0  0  0  0  0  0  0  0
    2.8480   19.6500   37.0830 O   0  0  0  0  0  0  0  0  0  0  0  0
    2.8720   24.3420   34.7790 S   0  0  0  0  0  4  0  0  0  0  0  0
    1.6810   15.4300   36.0320 C   0  0  0  0  0  0  0  0  0  0  0  0
   -1.0810   15.3820   36.9590 C   0  0  2  0  0  0  0  0  0  0  0  0
    1.3750   20.2690   41.6390 C   0  0  0  0  0  0  0  0  0  0  0  0
    1.1090   27.8460   34.0560 C   0  0  0  0  0  0  0  0  0  0  0  0
   -0.4840   26.4710   32.5370 C   0  0  0  0  0  0  0  0  0  0  0  0
   -0.0610   16.3400   37.6980 C   0  0  0  0  0  0  0  0  0  0  0  0
    0.5770   25.5070   34.3530 O   0  0  0  0  0  0  0  0  0  0  0  0
    1.8500   19.2140   40.7400 C   0  0  0  0  0  0  0  0  0  0  0  0
    0.2390   20.3420   43.9900 C   0  0  0  0  0  0  0  0  0  0  0  0
   -0.7270   15.3200   35.5370 C   0  0  1  0  0  0  0  0  0  0  0  0
   -2.6640   14.8300   36.8490 S   0  0  0  0  0  0  0  0  0  0  0  0
    2.0165   23.8287   37.2599 H   0  0  0  0  0  0  0  0  0  0  0  0
   -3.9381   16.4127   37.8106 H   0  0  0  0  0  0  0  0  0  0  0  0
   -3.2020   16.9305   36.2561 H   0  0  0  0  0  0  0  0  0  0  0  0
   -4.6012   15.8041   36.2561 H   0  0  0  0  0  0  0  0  0  0  0  0
    0.3928   21.3221   37.0071 H   0  0  0  0  0  0  0  0  0  0  0  0
   -0.4962   22.7620   37.0292 H   0  0  0  0  0  0  0  0  0  0  0  0
    3.6923   24.6305   32.6851 H   0  0  0  0  0  0  0  0  0  0  0  0
    0.7137   21.2782   34.6498 H   0  0  0  0  0  0  0  0  0  0  0  0
   -0.5822   22.2919   34.4833 H   0  0  0  0  0  0  0  0  0  0  0  0
    3.0294   21.5908   35.7717 H   0  0  0  0  0  0  0  0  0  0  0  0
    3.5931   22.6670   37.2560 H   0  0  0  0  0  0  0  0  0  0  0  0
    0.5923   17.3219   44.4326 H   0  0  0  0  0  0  0  0  0  0  0  0
   -0.5397   16.7813   43.1468 H   0  0  0  0  0  0  0  0  0  0  0  0
    1.1612   16.2039   43.1468 H   0  0  0  0  0  0  0  0  0  0  0  0
    3.1332   17.4838   37.4840 H   0  0  0  0  0  0  0  0  0  0  0  0
    2.7594   15.8587   38.3905 H   0  0  0  0  0  0  0  0  0  0  0  0
    0.2570   14.2307   35.9439 H   0  0  0  0  0  0  0  0  0  0  0  0
    2.1313   25.9392   31.6897 H   0  0  0  0  0  0  0  0  0  0  0  0
    1.2808   17.4299   36.5125 H   0  0  0  0  0  0  0  0  0  0  0  0
    1.6897   15.8577   40.6032 H   0  0  0  0  0  0  0  0  0  0  0  0
    2.0854   14.5482   36.5505 H   0  0  0  0  0  0  0  0  0  0  0  0
    2.4008   15.8949   35.3423 H   0  0  0  0  0  0  0  0  0  0  0  0
   -0.9806   14.9639   37.9715 H   0  0  0  0  0  0  0  0  0  0  0  0
    1.4277   21.3541   41.4661 H   0  0  0  0  0  0  0  0  0  0  0  0
    1.0597   27.6534   35.1379 H   0  0  0  0  0  0  0  0  0  0  0  0
    2.1219   28.1818   33.7891 H   0  0  0  0  0  0  0  0  0  0  0  0
    0.3816   28.6268   33.7891 H   0  0  0  0  0  0  0  0  0  0  0  0
   -1.3339   26.3707   33.2282 H   0  0  0  0  0  0  0  0  0  0  0  0
   -0.6295   27.3582   31.9032 H   0  0  0  0  0  0  0  0  0  0  0  0
   -0.4191   25.5743   31.9032 H   0  0  0  0  0  0  0  0  0  0  0  0
    0.0645   15.9583   38.7220 H   0  0  0  0  0  0  0  0  0  0  0  0
   -0.5114   17.3402   37.6160 H   0  0  0  0  0  0  0  0  0  0  0  0
    0.6157   19.8810   44.9150 H   0  0  0  0  0  0  0  0  0  0  0  0
    0.5331   21.4016   43.9623 H   0  0  0  0  0  0  0  0  0  0  0  0
   -0.8580   20.2651   43.9623 H   0  0  0  0  0  0  0  0  0  0  0  0
   -1.1176   14.3694   35.1448 H   0  0  0  0  0  0  0  0  0  0  0  0
  1  9  1  0
  2 39  1  0
  4  1  1  0
 28  7  1  6
  8  4  1  0
  9 24  1  0
 12 25  1  0
 13 14  1  0
 14 15  2  0
 14 26  1  0
 15 36  1  0
 16  5  1  0
 16 38  1  0
 16 29  1  0
 17 22  1  0
 17  7  2  0
 18  3  2  0
 18 19  1  0
 19  8  1  6
 19  1  1  0
 20 34  1  0
 20 13  1  0
 22 32  1  0
 22 35  1  0
 23 37  1  0
 24 11  1  0
 25 23  2  0
 25 10  1  0
 26 12  1  0
 27 24  2  0
 28 21  2  0
 28 19  1  0
 29 20  1  0
 30 39  1  0
 30 34  1  0
 31 23  1  0
 33 22  1  0
 35 18  1  0
 36 12  1  0
 36 31  2  0
 38  6  1  0
 38 30  1  0
  1 40  1  1
  2 41  1  0
  2 42  1  0
  2 43  1  0
  4 44  1  0
  4 45  1  0
  7 46  1  0
  8 47  1  0
  8 48  1  0
  9 49  1  0
  9 50  1  0
 10 51  1  0
 10 52  1  0
 10 53  1  0
 13 54  1  0
 13 55  1  0
 16 56  1  1
 17 57  1  0
 20 58  1  6
 26 59  1  0
 29 60  1  0
 29 61  1  0
 30 62  1  1
 31 63  1  0
 32 64  1  0
 32 65  1  0
 32 66  1  0
 33 67  1  0
 33 68  1  0
 33 69  1  0
 34 70  1  0
 34 71  1  0
 37 72  1  0
 37 73  1  0
 37 74  1  0
 38 75  1  6
M  CHG  1  11  -1
M  END
>  <mol_id>  (37) 
2026-09-18-6fnk-s0-n100-0037

>  <rmsd_to_ref>  (37) 


$$$$

     RDKit          3D

 66 66  0  0  0  0  0  0  0  0999 V2000
   -1.2176   12.8670   42.2659 C   0  0  0  0  0  0  0  0  0  0  0  0
   -1.0347   13.8687   39.9691 C   0  0  0  0  0  0  0  0  0  0  0  0
    1.2227   26.9985   33.2701 C   0  0  0  0  0  0  0  0  0  0  0  0
    3.4684   22.7607   36.9771 C   0  0  0  0  0  0  0  0  0  0  0  0
    6.2966   21.4400   37.9758 C   0  0  0  0  0  0  0  0  0  0  0  0
   -0.8566   14.1985   42.8360 C   0  0  0  0  0  0  0  0  0  0  0  0
    0.0662   27.0745   31.3023 C   0  0  0  0  0  0  0  0  0  0  0  0
    3.7354   21.1656   39.3606 C   0  0  0  0  0  0  0  0  0  0  0  0
    3.0145   21.2150   36.9066 C   0  0  0  0  0  0  0  0  0  0  0  0
    2.9134   20.4686   38.2531 C   0  0  0  0  0  0  0  0  0  0  0  0
    0.8795   25.8871   34.0697 C   0  0  0  0  0  0  0  0  0  0  0  0
    2.2183   19.2005   38.4819 C   0  0  0  0  0  0  0  0  0  0  0  0
    3.2486   24.8162   34.4412 C   0  0  0  0  0  0  0  0  0  0  0  0
   -1.2323   12.6754   40.8515 C   0  0  0  0  0  0  0  0  0  0  0  0
    5.8241   21.9086   40.2608 C   0  0  0  0  0  0  0  0  0  0  0  0
    5.2589   21.1117   39.0730 C   0  0  0  0  0  0  0  0  0  0  0  0
    3.1997   24.8836   32.7753 C   0  0  0  0  0  0  0  0  0  0  0  0
   -0.3746   16.3078   39.4293 C   0  0  0  0  0  0  0  0  0  0  0  0
   -0.8718   14.2664   44.3314 N   0  0  0  0  0  0  0  0  0  0  0  0
   -0.0696   27.3702   29.8764 C   0  0  0  0  0  0  0  0  0  0  0  0
   -0.5336   15.2775   41.9401 C   0  0  0  0  0  0  0  0  0  0  0  0
    2.3908   25.5686   31.6225 C   0  0  0  0  0  0  0  0  0  0  0  0
    1.8746   25.1896   34.9684 C   0  0  0  0  0  0  0  0  0  0  0  0
    0.9351   17.4053   40.0636 C   0  0  0  0  0  0  0  0  0  0  0  0
    1.3021   26.6283   31.7059 N   0  0  0  0  0  0  0  0  0  0  0  0
    1.4549   18.2429   38.8273 C   0  0  0  0  0  0  0  0  0  0  0  0
   -0.9962   16.4966   38.4274 O   0  0  0  0  0  0  0  0  0  0  0  0
   -0.6518   15.1673   40.4597 C   0  0  0  0  0  0  0  0  0  0  0  0
   -1.4723   12.0328   42.9363 H   0  0  0  0  0  0  0  0  0  0  0  0
   -1.1906   13.7467   38.8870 H   0  0  0  0  0  0  0  0  0  0  0  0
    0.4631   27.7819   33.4095 H   0  0  0  0  0  0  0  0  0  0  0  0
    2.2192   27.3427   33.5842 H   0  0  0  0  0  0  0  0  0  0  0  0
    3.6890   23.0308   38.0204 H   0  0  0  0  0  0  0  0  0  0  0  0
    4.3686   22.9069   36.3622 H   0  0  0  0  0  0  0  0  0  0  0  0
    2.6570   23.3989   36.5970 H   0  0  0  0  0  0  0  0  0  0  0  0
    7.2407   21.7526   38.4459 H   0  0  0  0  0  0  0  0  0  0  0  0
    6.4725   20.5468   37.3584 H   0  0  0  0  0  0  0  0  0  0  0  0
    5.9153   22.2543   37.3422 H   0  0  0  0  0  0  0  0  0  0  0  0
   -0.6721   26.3003   31.5582 H   0  0  0  0  0  0  0  0  0  0  0  0
   -0.0901   28.0313   31.8219 H   0  0  0  0  0  0  0  0  0  0  0  0
    3.4230   22.2183   39.4258 H   0  0  0  0  0  0  0  0  0  0  0  0
    3.5488   20.6364   40.3068 H   0  0  0  0  0  0  0  0  0  0  0  0
    2.0247   21.1782   36.4282 H   0  0  0  0  0  0  0  0  0  0  0  0
    3.8099   20.7016   36.3464 H   0  0  0  0  0  0  0  0  0  0  0  0
    0.0619   26.2235   34.7241 H   0  0  0  0  0  0  0  0  0  0  0  0
    0.6865   25.1160   33.3093 H   0  0  0  0  0  0  0  0  0  0  0  0
    3.9992   25.5249   34.8212 H   0  0  0  0  0  0  0  0  0  0  0  0
    3.5226   23.8042   34.7739 H   0  0  0  0  0  0  0  0  0  0  0  0
   -1.3852   11.6752   40.4201 H   0  0  0  0  0  0  0  0  0  0  0  0
    5.6462   21.3527   41.1931 H   0  0  0  0  0  0  0  0  0  0  0  0
    6.9054   22.0558   40.1223 H   0  0  0  0  0  0  0  0  0  0  0  0
    5.3250   22.8873   40.3164 H   0  0  0  0  0  0  0  0  0  0  0  0
    5.1811   20.0678   38.7349 H   0  0  0  0  0  0  0  0  0  0  0  0
    3.9866   24.2426   32.3511 H   0  0  0  0  0  0  0  0  0  0  0  0
   -0.6352   15.1477   44.8093 H   0  0  0  0  0  0  0  0  0  0  0  0
   -1.1189   13.4320   44.8824 H   0  0  0  0  0  0  0  0  0  0  0  0
    0.1411   28.4355   29.7012 H   0  0  0  0  0  0  0  0  0  0  0  0
    0.6427   26.7567   29.3052 H   0  0  0  0  0  0  0  0  0  0  0  0
   -1.0949   27.1408   29.5504 H   0  0  0  0  0  0  0  0  0  0  0  0
   -0.1832   16.2280   42.3688 H   0  0  0  0  0  0  0  0  0  0  0  0
    2.6466   25.2356   30.6058 H   0  0  0  0  0  0  0  0  0  0  0  0
    2.0360   25.8489   35.8340 H   0  0  0  0  0  0  0  0  0  0  0  0
    1.4034   24.2131   35.1542 H   0  0  0  0  0  0  0  0  0  0  0  0
    0.5283   18.0770   40.8339 H   0  0  0  0  0  0  0  0  0  0  0  0
    1.7502   16.8279   40.5244 H   0  0  0  0  0  0  0  0  0  0  0  0
    0.9733   17.8472   37.9210 H   0  0  0  0  0  0  0  0  0  0  0  0
  1  6  2  0
  2 28  1  0
  2 14  2  0
  3 11  1  0
  5 16  1  0
  6 19  1  0
  7 25  1  0
  9  4  1  0
  9 10  1  0
 10 12  2  0
 10  8  1  0
 11 23  1  0
 12 26  2  0
 13 23  1  0
 14  1  1  0
 16  8  1  0
 16 15  1  0
 17 13  1  0
 18 24  1  0
 18 28  1  0
 20  7  1  0
 21  6  1  0
 22 17  2  0
 25 22  1  0
 25  3  1  0
 26 24  1  0
 27 18  2  0
 28 21  2  0
  1 29  1  0
  2 30  1  0
  3 31  1  0
  3 32  1  0
  4 33  1  0
  4 34  1  0
  4 35  1  0
  5 36  1  0
  5 37  1  0
  5 38  1  0
  7 39  1  0
  7 40  1  0
  8 41  1  0
  8 42  1  0
  9 43  1  0
  9 44  1  0
 11 45  1  0
 11 46  1  0
 13 47  1  0
 13 48  1  0
 14 49  1  0
 15 50  1  0
 15 51  1  0
 15 52  1  0
 16 53  1  0
 17 54  1  0
 19 55  1  0
 19 56  1  0
 20 57  1  0
 20 58  1  0
 20 59  1  0
 21 60  1  0
 22 61  1  0
 23 62  1  0
 23 63  1  0
 24 64  1  0
 24 65  1  0
 26 66  1  0
M  END
>  <mol_id>  (38) 
2026-09-18-6fnk-s0-n100-0038

>  <rmsd_to_ref>  (38) 


$$$$

     RDKit          3D

 55 56  0  0  0  0  0  0  0  0999 V2000
    1.8780   17.4680   37.6810 C   0  0  0  0  0  0  0  0  0  0  0  0
    2.6790   21.2860   39.2940 C   0  0  0  0  0  0  0  0  0  0  0  0
    3.1340   16.9890   37.7200 O   0  0  0  0  0  0  0  0  0  0  0  0
    1.8990   17.9400   41.9940 C   0  0  0  0  0  0  0  0  0  0  0  0
    2.1550   24.4960   33.2490 C   0  0  0  0  0  0  0  0  0  0  0  0
   -0.8080   17.3690   44.3150 C   0  0  0  0  0  0  0  0  0  0  0  0
    2.7400   19.0150   41.7560 C   0  0  0  0  0  0  0  0  0  0  0  0
    1.7880   18.9330   38.3370 C   0  0  0  0  0  0  0  0  0  0  0  0
    2.5080   24.0520   33.6040 C   0  0  2  0  0  0  0  0  0  0  0  0
    2.8530   19.5990   37.5360 C   0  0  1  0  0  0  0  0  0  0  0  0
    2.0720   25.3930   33.0370 C   0  0  0  0  0  0  0  0  0  0  0  0
    2.6160   19.5150   36.0960 C   0  0  0  0  0  0  0  0  0  0  0  0
    2.6250   23.0780   34.5220 C   0  0  1  0  0  0  0  0  0  0  0  0
    2.8730   21.0950   37.8780 C   0  0  0  0  0  0  0  0  0  0  0  0
    0.8300   18.2070   42.8330 C   0  0  0  0  0  0  0  0  0  0  0  0
    0.1800   17.1420   43.3320 C   0  0  0  0  0  0  0  0  0  0  0  0
   -1.1660   18.6650   44.6370 C   0  0  0  0  0  0  0  0  0  0  0  0
    2.4360   21.6130   34.1940 C   0  0  0  0  0  0  0  0  0  0  0  0
    3.1300   20.7720   35.3980 N   0  0  0  0  0  0  0  0  0  0  0  0
   -0.5610   19.6670   43.9940 N   0  0  0  0  0  0  0  0  0  0  0  0
    4.1570   21.6090   35.3020 C   0  0  0  0  0  0  0  0  0  0  0  0
    2.4770   20.3340   42.2130 C   0  0  0  0  0  0  0  0  0  0  0  0
    1.2340   20.5450   42.8400 C   0  0  0  0  0  0  0  0  0  0  0  0
    0.5090   19.4820   43.2420 C   0  0  0  0  0  0  0  0  0  0  0  0
    3.6750   23.6100   34.1270 C   0  0  0  0  0  0  0  0  0  0  0  0
    0.7920   16.9560   36.7980 O   0  0  0  0  0  0  0  0  0  0  0  0
    3.3554   20.6201   39.8499 H   0  0  0  0  0  0  0  0  0  0  0  0
    2.8969   22.3318   39.5562 H   0  0  0  0  0  0  0  0  0  0  0  0
    1.6367   21.0518   39.5562 H   0  0  0  0  0  0  0  0  0  0  0  0
    2.0678   16.9481   41.5495 H   0  0  0  0  0  0  0  0  0  0  0  0
    1.3696   23.9476   32.7083 H   0  0  0  0  0  0  0  0  0  0  0  0
   -1.2899   16.5198   44.8215 H   0  0  0  0  0  0  0  0  0  0  0  0
    3.6614   18.8374   41.1820 H   0  0  0  0  0  0  0  0  0  0  0  0
    0.8024   19.3964   38.1828 H   0  0  0  0  0  0  0  0  0  0  0  0
    1.9139   18.9762   39.4289 H   0  0  0  0  0  0  0  0  0  0  0  0
    2.6983   23.4717   32.6891 H   0  0  0  0  0  0  0  0  0  0  0  0
    3.7949   19.0863   37.7808 H   0  0  0  0  0  0  0  0  0  0  0  0
    1.2806   25.7245   32.3487 H   0  0  0  0  0  0  0  0  0  0  0  0
    2.7648   26.1277   33.4733 H   0  0  0  0  0  0  0  0  0  0  0  0
    3.1407   18.6363   35.6929 H   0  0  0  0  0  0  0  0  0  0  0  0
    1.5345   19.4243   35.9170 H   0  0  0  0  0  0  0  0  0  0  0  0
    2.1219   22.9309   35.4891 H   0  0  0  0  0  0  0  0  0  0  0  0
    3.8431   21.5219   37.5836 H   0  0  0  0  0  0  0  0  0  0  0  0
    2.0600   21.5979   37.3338 H   0  0  0  0  0  0  0  0  0  0  0  0
    0.4106   16.1239   42.9851 H   0  0  0  0  0  0  0  0  0  0  0  0
   -1.9295   18.8656   45.4031 H   0  0  0  0  0  0  0  0  0  0  0  0
    1.3642   21.3734   34.1329 H   0  0  0  0  0  0  0  0  0  0  0  0
    2.8900   21.3629   33.2238 H   0  0  0  0  0  0  0  0  0  0  0  0
    4.4986   21.8874   36.3099 H   0  0  0  0  0  0  0  0  0  0  0  0
    4.9788   21.1202   34.7583 H   0  0  0  0  0  0  0  0  0  0  0  0
    3.8440   22.5126   34.7583 H   0  0  0  0  0  0  0  0  0  0  0  0
    3.2059   21.1476   42.0839 H   0  0  0  0  0  0  0  0  0  0  0  0
    0.8585   21.5665   43.0001 H   0  0  0  0  0  0  0  0  0  0  0  0
    4.3711   23.0372   33.4966 H   0  0  0  0  0  0  0  0  0  0  0  0
    4.5209   24.0997   34.6316 H   0  0  0  0  0  0  0  0  0  0  0  0
  1  3  1  0
  1  8  1  0
  4 15  2  0
  6 17  1  0
  7  4  1  0
  7 22  2  0
  9  5  1  0
  9 25  1  0
  9 13  1  0
 10 12  1  0
 10 14  1  0
 10  8  1  0
 11  5  2  3
 13 18  1  0
 14  2  1  0
 15 24  1  0
 15 16  1  0
 16  6  2  0
 18 19  1  0
 19 12  1  0
 20 17  2  0
 21 19  1  0
 22 23  1  0
 23 24  2  0
 24 20  1  0
 25 13  1  0
 26  1  2  0
  2 27  1  0
  2 28  1  0
  2 29  1  0
  4 30  1  0
  5 31  1  0
  6 32  1  0
  7 33  1  0
  8 34  1  0
  8 35  1  0
  9 36  1  6
 10 37  1  6
 11 38  1  0
 11 39  1  0
 12 40  1  0
 12 41  1  0
 13 42  1  1
 14 43  1  0
 14 44  1  0
 16 45  1  0
 17 46  1  0
 18 47  1  0
 18 48  1  0
 21 49  1  0
 21 50  1  0
 21 51  1  0
 22 52  1  0
 23 53  1  0
 25 54  1  0
 25 55  1  0
M  CHG  1   3  -1
M  END
>  <mol_id>  (39) 
2026-09-18-6fnk-s0-n100-0039

>  <rmsd_to_ref>  (39) 


$$$$

     RDKit          3D

 58 60  0  0  0  0  0  0  0  0999 V2000
    2.0980   21.3097   40.2169 N   0  0  0  0  0  0  0  0  0  0  0  0
    4.5931   21.8393   37.6650 C   0  0  0  0  0  0  0  0  0  0  0  0
    1.2803   26.8206   32.8019 C   0  0  0  0  0  0  0  0  0  0  0  0
    3.1614   25.3599   32.7295 C   0  0  0  0  0  0  0  0  0  0  0  0
    2.0932   16.9327   39.4451 O   0  0  0  0  0  0  0  0  0  0  0  0
    1.2472   19.9095   43.5177 C   0  0  0  0  0  0  0  0  0  0  0  0
    0.8864   18.6448   39.9588 N   0  0  0  0  0  0  0  0  0  0  0  0
   -0.5223   16.1093   38.6074 C   0  0  0  0  0  0  0  0  0  0  0  0
    0.7203   18.8569   44.2629 C   0  0  0  0  0  0  0  0  0  0  0  0
    1.8193   20.8645   41.2627 C   0  0  0  0  0  0  0  0  0  0  0  0
    1.4670   25.0240   34.2319 C   0  0  0  0  0  0  0  0  0  0  0  0
    3.9281   21.2845   38.8756 O   0  0  0  0  0  0  0  0  0  0  0  0
   -1.3164   16.9402   37.6907 C   0  0  0  0  0  0  0  0  0  0  0  0
    0.8554   18.5544   41.4205 C   0  0  0  0  0  0  0  0  0  0  0  0
    0.9766   15.5663   36.5249 C   0  0  0  0  0  0  0  0  0  0  0  0
    0.8265   26.0649   33.8160 C   0  0  0  0  0  0  0  0  0  0  0  0
    2.5507   26.4103   32.2625 C   0  0  0  0  0  0  0  0  0  0  0  0
    2.5481   23.0160   34.4288 C   0  0  0  0  0  0  0  0  0  0  0  0
    0.8606   17.7737   37.8676 O   0  0  0  0  0  0  0  0  0  0  0  0
    1.3093   19.8087   42.1149 C   0  0  0  0  0  0  0  0  0  0  0  0
    0.3091   17.6031   42.2564 C   0  0  0  0  0  0  0  0  0  0  0  0
    2.6396   20.9481   38.8314 C   0  0  0  0  0  0  0  0  0  0  0  0
    0.2149   17.6780   43.5973 C   0  0  0  0  0  0  0  0  0  0  0  0
    1.2567   17.7180   39.0803 C   0  0  0  0  0  0  0  0  0  0  0  0
    3.5686   23.2062   33.5359 C   0  0  0  0  0  0  0  0  0  0  0  0
    2.7642   24.3835   33.8069 C   0  0  0  0  0  0  0  0  0  0  0  0
    0.1980   16.5925   37.3725 C   0  0  0  0  0  0  0  0  0  0  0  0
    1.2044   21.7520   39.9583 H   0  0  0  0  0  0  0  0  0  0  0  0
    3.0447   21.5453   40.5474 H   0  0  0  0  0  0  0  0  0  0  0  0
    5.4426   22.4685   37.9692 H   0  0  0  0  0  0  0  0  0  0  0  0
    4.9554   21.0137   37.0348 H   0  0  0  0  0  0  0  0  0  0  0  0
    3.8727   22.4457   37.0964 H   0  0  0  0  0  0  0  0  0  0  0  0
    0.5376   26.7865   31.9912 H   0  0  0  0  0  0  0  0  0  0  0  0
    1.4305   27.8301   33.2121 H   0  0  0  0  0  0  0  0  0  0  0  0
    4.1323   25.1489   32.2575 H   0  0  0  0  0  0  0  0  0  0  0  0
    1.6131   20.8154   44.0232 H   0  0  0  0  0  0  0  0  0  0  0  0
    0.5813   19.5438   39.5593 H   0  0  0  0  0  0  0  0  0  0  0  0
   -0.2368   16.5142   39.5895 H   0  0  0  0  0  0  0  0  0  0  0  0
   -0.6788   15.1120   39.0442 H   0  0  0  0  0  0  0  0  0  0  0  0
    0.6889   18.9234   45.3604 H   0  0  0  0  0  0  0  0  0  0  0  0
    2.7992   20.9897   41.7465 H   0  0  0  0  0  0  0  0  0  0  0  0
    0.7803   21.1778   41.0833 H   0  0  0  0  0  0  0  0  0  0  0  0
    0.9674   24.5007   35.0604 H   0  0  0  0  0  0  0  0  0  0  0  0
   -2.1239   16.4894   37.0951 H   0  0  0  0  0  0  0  0  0  0  0  0
   -1.9054   17.8647   37.7824 H   0  0  0  0  0  0  0  0  0  0  0  0
    1.5852   14.9314   37.1857 H   0  0  0  0  0  0  0  0  0  0  0  0
    0.2670   14.9391   35.9654 H   0  0  0  0  0  0  0  0  0  0  0  0
    1.6331   16.0963   35.8192 H   0  0  0  0  0  0  0  0  0  0  0  0
   -0.1187   26.3413   34.3062 H   0  0  0  0  0  0  0  0  0  0  0  0
    3.0096   26.9901   31.4481 H   0  0  0  0  0  0  0  0  0  0  0  0
    1.6727   22.4143   34.1432 H   0  0  0  0  0  0  0  0  0  0  0  0
    2.4766   22.6325   35.4573 H   0  0  0  0  0  0  0  0  0  0  0  0
   -0.0885   16.6944   41.7811 H   0  0  0  0  0  0  0  0  0  0  0  0
    2.1163   21.5177   38.0492 H   0  0  0  0  0  0  0  0  0  0  0  0
    2.4943   19.8845   38.5913 H   0  0  0  0  0  0  0  0  0  0  0  0
   -0.2376   16.8583   44.1747 H   0  0  0  0  0  0  0  0  0  0  0  0
    3.5081   22.7329   32.5448 H   0  0  0  0  0  0  0  0  0  0  0  0
    4.6503   23.0130   33.5856 H   0  0  0  0  0  0  0  0  0  0  0  0
  1 10  1  0
  2 12  1  0
  3 16  1  0
  4 26  1  0
  6  9  1  0
  7 14  1  0
 10 20  1  0
 13  8  1  0
 14 20  1  0
 14 21  2  0
 15 27  1  0
 16 11  2  0
 17  3  1  0
 17  4  2  0
 19 24  1  0
 20  6  2  0
 21 23  1  0
 22 12  1  0
 22  1  1  0
 23  9  2  0
 24  5  2  0
 24  7  1  0
 25 26  1  0
 25 18  1  0
 26 11  1  0
 26 18  1  0
 27 13  1  0
 27 19  1  0
 27  8  1  0
  1 28  1  0
  1 29  1  0
  2 30  1  0
  2 31  1  0
  2 32  1  0
  3 33  1  0
  3 34  1  0
  4 35  1  0
  6 36  1  0
  7 37  1  0
  8 38  1  0
  8 39  1  0
  9 40  1  0
 10 41  1  0
 10 42  1  0
 11 43  1  0
 13 44  1  0
 13 45  1  0
 15 46  1  0
 15 47  1  0
 15 48  1  0
 16 49  1  0
 17 50  1  0
 18 51  1  0
 18 52  1  0
 21 53  1  0
 22 54  1  0
 22 55  1  0
 23 56  1  0
 25 57  1  0
 25 58  1  0
M  CHG  1   1   1
M  END
>  <mol_id>  (40) 
2026-09-18-6fnk-s0-n100-0040

>  <rmsd_to_ref>  (40) 


$$$$

     RDKit          3D

 54 55  0  0  0  0  0  0  0  0999 V2000
    5.0921   22.1138   38.1267 O   0  0  0  0  0  0  0  0  0  0  0  0
    4.2210   21.3444   38.6083 C   0  0  0  0  0  0  0  0  0  0  0  0
    4.2240   25.4498   35.0306 S   0  0  0  0  0  0  0  0  0  0  0  0
    2.8547   19.5635   39.0307 C   0  0  2  0  0  0  0  0  0  0  0  0
   -1.2787   14.3985   39.1266 C   0  0  0  0  0  0  0  0  0  0  0  0
    2.0737   26.8014   34.3854 C   0  0  0  0  0  0  0  0  0  0  0  0
    4.5784   20.7077   42.6631 C   0  0  0  0  0  0  0  0  0  0  0  0
    0.8423   16.6759   36.3876 C   0  0  0  0  0  0  0  0  0  0  0  0
    3.1629   20.4567   38.0730 C   0  0  0  0  0  0  0  0  0  0  0  0
    1.9500   21.9647   36.0234 O   0  0  0  0  0  0  0  0  0  0  0  0
    1.7986   24.9272   36.0152 C   0  0  0  0  0  0  0  0  0  0  0  0
    1.4588   26.2433   35.4325 C   0  0  0  0  0  0  0  0  0  0  0  0
    5.3183   21.3063   41.1189 C   0  0  0  0  0  0  0  0  0  0  0  0
   -1.3511   15.6501   37.8961 C   0  0  0  0  0  0  0  0  0  0  0  0
    3.1096   24.4100   35.5967 C   0  0  2  0  0  0  0  0  0  0  0  0
    4.4227   21.0060   39.9336 N   0  0  0  0  0  0  0  0  0  0  0  0
   -0.1849   16.3887   37.6715 C   0  0  1  0  0  0  0  0  0  0  0  0
    1.6176   18.1185   38.7674 S   0  0  1  0  0  4  0  0  0  0  0  0
    3.2096   26.1152   33.8324 C   0  0  0  0  0  0  0  0  0  0  0  0
    2.7479   22.7924   35.9170 C   0  0  0  0  0  0  0  0  0  0  0  0
    3.6286   20.2798   40.4823 C   0  0  0  0  0  0  0  0  0  0  0  0
    1.8123   28.0129   33.9240 F   0  0  0  0  0  0  0  0  0  0  0  0
    3.8285   23.2666   35.9114 N   0  0  0  0  0  0  0  0  0  0  0  0
    0.2558   16.5690   38.7274 C   0  0  0  0  0  0  0  0  0  0  0  0
    1.9249   17.4556   37.1177 C   0  0  0  0  0  0  0  0  0  0  0  0
    2.7981   18.4739   39.1707 H   0  0  0  0  0  0  0  0  0  0  0  0
   -1.4134   14.8523   40.1196 H   0  0  0  0  0  0  0  0  0  0  0  0
   -2.0766   13.6625   38.9484 H   0  0  0  0  0  0  0  0  0  0  0  0
   -0.3007   13.8970   39.0823 H   0  0  0  0  0  0  0  0  0  0  0  0
    5.1231   21.1323   43.5194 H   0  0  0  0  0  0  0  0  0  0  0  0
    3.5240   21.0178   42.7089 H   0  0  0  0  0  0  0  0  0  0  0  0
    4.6396   19.6099   42.6976 H   0  0  0  0  0  0  0  0  0  0  0  0
    0.3615   17.2759   35.6009 H   0  0  0  0  0  0  0  0  0  0  0  0
    1.1864   15.7812   35.8481 H   0  0  0  0  0  0  0  0  0  0  0  0
    3.5301   19.9340   37.1775 H   0  0  0  0  0  0  0  0  0  0  0  0
    2.2749   21.0419   37.7920 H   0  0  0  0  0  0  0  0  0  0  0  0
    1.7981   25.0233   37.1110 H   0  0  0  0  0  0  0  0  0  0  0  0
    1.0439   24.2136   35.6531 H   0  0  0  0  0  0  0  0  0  0  0  0
    0.6359   26.8065   35.8969 H   0  0  0  0  0  0  0  0  0  0  0  0
    5.4679   22.3937   41.1899 H   0  0  0  0  0  0  0  0  0  0  0  0
    6.2798   20.7932   40.9697 H   0  0  0  0  0  0  0  0  0  0  0  0
   -1.6255   15.1666   36.9470 H   0  0  0  0  0  0  0  0  0  0  0  0
   -2.0827   16.3796   38.2738 H   0  0  0  0  0  0  0  0  0  0  0  0
    2.2289   23.9389   35.1358 H   0  0  0  0  0  0  0  0  0  0  0  0
   -0.6331   16.9428   36.8335 H   0  0  0  0  0  0  0  0  0  0  0  0
    2.5310   17.2414   39.2900 H   0  0  0  0  0  0  0  0  0  0  0  0
    2.8487   25.3019   33.1855 H   0  0  0  0  0  0  0  0  0  0  0  0
    3.8005   26.8518   33.2683 H   0  0  0  0  0  0  0  0  0  0  0  0
    2.9108   20.8428   41.0970 H   0  0  0  0  0  0  0  0  0  0  0  0
    4.0589   19.5592   41.1934 H   0  0  0  0  0  0  0  0  0  0  0  0
   -0.5679   16.8065   39.4167 H   0  0  0  0  0  0  0  0  0  0  0  0
    0.7857   15.6530   39.0272 H   0  0  0  0  0  0  0  0  0  0  0  0
    2.7930   16.7855   37.2035 H   0  0  0  0  0  0  0  0  0  0  0  0
    2.0363   18.3610   36.5031 H   0  0  0  0  0  0  0  0  0  0  0  0
  1  2  2  0
  2 16  1  0
  3 15  1  0
  4  9  1  0
  4 21  1  0
  6 12  2  0
  8 25  1  0
  8 17  1  0
  9  2  1  0
 12 11  1  0
 13  7  1  0
 14  5  1  0
 15 23  1  0
 15 11  1  0
 16 21  1  0
 16 13  1  0
 17 14  1  0
 17 24  1  0
 18 25  1  0
 18  4  1  0
 18 24  1  0
 19  6  1  0
 19  3  1  0
 20 10  2  0
 22  6  1  0
 23 20  2  0
  4 26  1  6
  5 27  1  0
  5 28  1  0
  5 29  1  0
  7 30  1  0
  7 31  1  0
  7 32  1  0
  8 33  1  0
  8 34  1  0
  9 35  1  0
  9 36  1  0
 11 37  1  0
 11 38  1  0
 12 39  1  0
 13 40  1  0
 13 41  1  0
 14 42  1  0
 14 43  1  0
 15 44  1  6
 17 45  1  6
 18 46  1  0
 19 47  1  0
 19 48  1  0
 21 49  1  0
 21 50  1  0
 24 51  1  0
 24 52  1  0
 25 53  1  0
 25 54  1  0
M  END
>  <mol_id>  (41) 
2026-09-18-6fnk-s0-n100-0041

>  <rmsd_to_ref>  (41) 


$$$$

     RDKit          3D

 48 48  0  0  0  0  0  0  0  0999 V2000
    4.7540   22.1210   39.8760 C   0  0  0  0  0  0  0  0  0  0  0  0
    0.7550   26.8390   34.2110 C   0  0  0  0  0  0  0  0  0  0  0  0
    1.1090   25.4970   33.5500 C   0  0  0  0  0  0  0  0  0  0  0  0
    3.5690   21.7720   40.0900 N   0  0  0  0  0  0  0  0  0  0  0  0
    5.0610   22.5720   38.5650 N   0  0  0  0  0  0  0  0  0  0  0  0
   -0.6610   14.0070   41.0900 C   0  0  0  0  0  0  0  0  0  0  0  0
    2.9800   21.8920   38.8520 C   0  0  0  0  0  0  0  0  0  0  0  0
   -1.1420   14.5140   42.3460 C   0  0  0  0  0  0  0  0  0  0  0  0
    3.5930   23.2040   35.6220 O   0  0  0  0  0  0  0  0  0  0  0  0
    1.7080   22.6650   36.7540 O   0  0  0  0  0  0  0  0  0  0  0  0
    0.8740   16.2430   37.6570 C   0  0  1  0  0  0  0  0  0  0  0  0
   -0.5670   15.4150   39.1780 O   0  0  0  0  0  0  0  0  0  0  0  0
    0.4820   16.8850   36.6220 N   0  0  0  0  0  0  0  0  0  0  0  0
    1.4340   25.4200   32.3600 O   0  0  0  0  0  0  0  0  0  0  0  0
    2.9740   22.7550   36.6700 C   0  0  0  0  0  0  0  0  0  0  0  0
    0.5100   16.4610   39.0980 C   0  0  0  0  0  0  0  0  0  0  0  0
    3.7260   22.4950   37.9210 C   0  0  0  0  0  0  0  0  0  0  0  0
    1.4100   15.1260   37.1330 N   0  0  0  0  0  0  0  0  0  0  0  0
   -0.0120   14.4510   40.1740 C   0  0  0  0  0  0  0  0  0  0  0  0
    2.2520   15.4380   36.0780 C   0  0  0  0  0  0  0  0  0  0  0  0
    5.8440   22.1580   40.9210 C   0  0  0  0  0  0  0  0  0  0  0  0
    1.0670   16.2990   35.7800 N   0  0  0  0  0  0  0  0  0  0  0  0
    1.1840   24.2570   34.3510 C   0  0  0  0  0  0  0  0  0  0  0  0
   -2.0150   13.3840   42.9460 O   0  0  0  0  0  0  0  0  0  0  0  0
    0.7843   26.7279   35.3050 H   0  0  0  0  0  0  0  0  0  0  0  0
    1.4821   27.6038   33.9005 H   0  0  0  0  0  0  0  0  0  0  0  0
   -0.2547   27.1456   33.9005 H   0  0  0  0  0  0  0  0  0  0  0  0
    5.9637   22.8709   38.1691 H   0  0  0  0  0  0  0  0  0  0  0  0
   -0.0765   13.1262   41.3942 H   0  0  0  0  0  0  0  0  0  0  0  0
   -1.6271   14.1125   40.5748 H   0  0  0  0  0  0  0  0  0  0  0  0
    1.9668   21.5181   38.6433 H   0  0  0  0  0  0  0  0  0  0  0  0
   -0.2996   14.7443   43.0148 H   0  0  0  0  0  0  0  0  0  0  0  0
   -1.7142   15.4445   42.2164 H   0  0  0  0  0  0  0  0  0  0  0  0
    1.3647   16.8422   38.4381 H   0  0  0  0  0  0  0  0  0  0  0  0
   -0.5380   16.8183   36.4951 H   0  0  0  0  0  0  0  0  0  0  0  0
    1.3484   16.2541   39.7793 H   0  0  0  0  0  0  0  0  0  0  0  0
    0.2235   17.4841   39.3830 H   0  0  0  0  0  0  0  0  0  0  0  0
    0.3308   13.5806   39.5953 H   0  0  0  0  0  0  0  0  0  0  0  0
    0.7187   15.0787   40.7051 H   0  0  0  0  0  0  0  0  0  0  0  0
    3.1870   15.9587   36.3322 H   0  0  0  0  0  0  0  0  0  0  0  0
    2.7290   14.7238   35.3907 H   0  0  0  0  0  0  0  0  0  0  0  0
    5.3915   22.1426   41.9235 H   0  0  0  0  0  0  0  0  0  0  0  0
    6.4976   21.2815   40.8003 H   0  0  0  0  0  0  0  0  0  0  0  0
    6.4367   23.0768   40.8003 H   0  0  0  0  0  0  0  0  0  0  0  0
    1.1687   24.5104   35.4213 H   0  0  0  0  0  0  0  0  0  0  0  0
    0.3231   23.6147   34.1139 H   0  0  0  0  0  0  0  0  0  0  0  0
    2.1161   23.7231   34.1139 H   0  0  0  0  0  0  0  0  0  0  0  0
   -1.9799   13.4294   43.9343 H   0  0  0  0  0  0  0  0  0  0  0  0
  1  4  2  0
  1 21  1  0
  3  2  1  0
  3 23  1  0
  5  1  1  0
  6  8  1  0
  7  4  1  0
  8 24  1  0
  9 15  2  0
 11 16  1  0
 12 19  1  0
 13 11  1  0
 14  3  2  0
 15 10  1  0
 15 17  1  0
 16 12  1  0
 17  5  1  0
 17  7  2  0
 18 20  1  0
 18 11  1  0
 19  6  1  0
 22 20  1  0
 22 13  1  0
 22 18  1  0
  2 25  1  0
  2 26  1  0
  2 27  1  0
  5 28  1  0
  6 29  1  0
  6 30  1  0
  7 31  1  0
  8 32  1  0
  8 33  1  0
 11 34  1  1
 13 35  1  0
 16 36  1  0
 16 37  1  0
 19 38  1  0
 19 39  1  0
 20 40  1  0
 20 41  1  0
 21 42  1  0
 21 43  1  0
 21 44  1  0
 23 45  1  0
 23 46  1  0
 23 47  1  0
 24 48  1  0
M  CHG  1  10  -1
M  END
>  <mol_id>  (42) 
2026-09-18-6fnk-s0-n100-0042

>  <rmsd_to_ref>  (42) 


$$$$

     RDKit          3D

 80 84  0  0  0  0  0  0  0  0999 V2000
    3.9264   21.8041   38.8195 N   0  0  0  0  0  0  0  0  0  0  0  0
    3.7808   22.7888   37.3974 C   0  0  0  0  0  0  0  0  0  0  0  0
    0.7114   16.8420   38.8091 C   0  0  0  0  0  0  0  0  0  0  0  0
    0.0902   30.3687   32.7091 C   0  0  2  0  0  0  0  0  0  0  0  0
    2.6975   19.7626   40.1304 C   0  0  0  0  0  0  0  0  0  0  0  0
    0.8278   31.6843   33.2999 C   0  0  0  0  0  0  0  0  0  0  0  0
    2.5815   24.9211   34.7260 C   0  0  0  0  0  0  0  0  0  0  0  0
    5.2936   23.1703   36.9572 C   0  0  0  0  0  0  0  0  0  0  0  0
    2.0495   17.6302   43.2660 O   0  0  0  0  0  0  0  0  0  0  0  0
   -0.8479   29.3013   32.9143 C   0  0  0  0  0  0  0  0  0  0  0  0
    3.0093   24.1370   35.3983 C   0  0  2  0  0  0  0  0  0  0  0  0
    3.2267   20.4868   38.6753 C   0  0  1  0  0  0  0  0  0  0  0  0
    1.4668   18.2033   38.3115 C   0  0  2  0  0  0  0  0  0  0  0  0
    0.3847   29.0898   33.5710 C   0  0  1  0  0  0  0  0  0  0  0  0
    1.9983   18.6558   37.4717 N   0  0  0  0  0  0  0  0  0  0  0  0
    1.5229   25.8641   35.2669 C   0  0  0  0  0  0  0  0  0  0  0  0
    1.8480   25.8961   34.6816 C   0  0  0  0  0  0  0  0  0  0  0  0
    1.9587   18.4902   39.8720 C   0  0  2  0  0  0  0  0  0  0  0  0
   -1.9566   16.0460   40.5993 C   0  0  0  0  0  0  0  0  0  0  0  0
    1.2609   16.4669   42.6540 C   0  0  0  0  0  0  0  0  0  0  0  0
    0.2806   15.8952   38.3076 O   0  0  0  0  0  0  0  0  0  0  0  0
    0.6090   16.4214   41.5972 C   0  0  1  0  0  0  0  0  0  0  0  0
   -0.9853   15.7958   41.9327 C   0  0  2  0  0  0  0  0  0  0  0  0
    2.5439   20.0462   37.4791 C   0  0  0  0  0  0  0  0  0  0  0  0
    0.3101   31.5206   32.1032 N   0  0  0  0  0  0  0  0  0  0  0  0
    0.8850   17.0740   40.2632 C   0  0  2  0  0  0  0  0  0  0  0  0
    2.7915   23.2766   36.5500 C   0  0  0  0  0  0  0  0  0  0  0  0
    4.8470   23.8689   35.6009 C   0  0  0  0  0  0  0  0  0  0  0  0
    1.2536   26.9048   34.7595 C   0  0  0  0  0  0  0  0  0  0  0  0
   -0.9927   13.8896   44.1434 C   0  0  0  0  0  0  0  0  0  0  0  0
   -0.3640   14.9933   43.4649 C   0  0  1  0  0  0  0  0  0  0  0  0
    0.8509   27.9904   34.4329 C   0  0  0  0  0  0  0  0  0  0  0  0
    0.8595   15.6205   43.5997 O   0  0  0  0  0  0  0  0  0  0  0  0
   -2.5898   13.6631   44.2875 C   0  0  0  0  0  0  0  0  0  0  0  0
    4.9253   21.6302   39.0007 H   0  0  0  0  0  0  0  0  0  0  0  0
    3.4845   22.3111   39.5996 H   0  0  0  0  0  0  0  0  0  0  0  0
    3.5726   19.5460   40.7607 H   0  0  0  0  0  0  0  0  0  0  0  0
    2.0145   20.4617   40.6351 H   0  0  0  0  0  0  0  0  0  0  0  0
    0.3392   32.3235   34.0501 H   0  0  0  0  0  0  0  0  0  0  0  0
    1.7978   31.9511   33.7449 H   0  0  0  0  0  0  0  0  0  0  0  0
    3.5068   25.3548   34.3190 H   0  0  0  0  0  0  0  0  0  0  0  0
    1.7429   24.2594   34.4634 H   0  0  0  0  0  0  0  0  0  0  0  0
    5.7865   23.8608   37.6574 H   0  0  0  0  0  0  0  0  0  0  0  0
    6.0379   22.3621   36.9040 H   0  0  0  0  0  0  0  0  0  0  0  0
   -1.7451   29.4938   33.5207 H   0  0  0  0  0  0  0  0  0  0  0  0
   -1.4211   28.6810   32.2096 H   0  0  0  0  0  0  0  0  0  0  0  0
    2.0944   24.2058   34.7916 H   0  0  0  0  0  0  0  0  0  0  0  0
    4.1648   20.0378   38.3169 H   0  0  0  0  0  0  0  0  0  0  0  0
    0.9011   18.6371   37.4738 H   0  0  0  0  0  0  0  0  0  0  0  0
   -0.0030   29.6022   34.4638 H   0  0  0  0  0  0  0  0  0  0  0  0
    2.8039   18.0410   37.2874 H   0  0  0  0  0  0  0  0  0  0  0  0
    1.2361   18.7486   36.7851 H   0  0  0  0  0  0  0  0  0  0  0  0
    0.7741   26.6283   35.5227 H   0  0  0  0  0  0  0  0  0  0  0  0
    1.7381   25.0473   35.9716 H   0  0  0  0  0  0  0  0  0  0  0  0
    2.5888   18.6497   40.7594 H   0  0  0  0  0  0  0  0  0  0  0  0
   -2.8668   16.5829   40.9043 H   0  0  0  0  0  0  0  0  0  0  0  0
   -1.4104   16.6437   39.8548 H   0  0  0  0  0  0  0  0  0  0  0  0
   -2.2329   15.0761   40.1599 H   0  0  0  0  0  0  0  0  0  0  0  0
    1.4101   15.9935   40.9767 H   0  0  0  0  0  0  0  0  0  0  0  0
   -2.0502   15.6817   42.1836 H   0  0  0  0  0  0  0  0  0  0  0  0
    3.2560   20.1257   36.6444 H   0  0  0  0  0  0  0  0  0  0  0  0
    1.6593   20.6959   37.4047 H   0  0  0  0  0  0  0  0  0  0  0  0
    0.9630   31.5143   31.3067 H   0  0  0  0  0  0  0  0  0  0  0  0
   -0.3772   32.1224   31.6275 H   0  0  0  0  0  0  0  0  0  0  0  0
    0.2012   16.6267   40.9996 H   0  0  0  0  0  0  0  0  0  0  0  0
    1.7538   22.9862   36.7705 H   0  0  0  0  0  0  0  0  0  0  0  0
    5.1913   23.2398   34.7667 H   0  0  0  0  0  0  0  0  0  0  0  0
    5.2977   24.8722   35.6165 H   0  0  0  0  0  0  0  0  0  0  0  0
    1.3570   27.3138   35.7753 H   0  0  0  0  0  0  0  0  0  0  0  0
    1.6560   27.6247   34.0316 H   0  0  0  0  0  0  0  0  0  0  0  0
    0.1905   26.7215   34.5444 H   0  0  0  0  0  0  0  0  0  0  0  0
   -0.6146   12.9863   43.6424 H   0  0  0  0  0  0  0  0  0  0  0  0
   -0.7367   14.1318   45.1854 H   0  0  0  0  0  0  0  0  0  0  0  0
   -0.7540   14.5564   44.3960 H   0  0  0  0  0  0  0  0  0  0  0  0
    1.1267   28.3901   35.4199 H   0  0  0  0  0  0  0  0  0  0  0  0
    0.0465   27.2493   34.5492 H   0  0  0  0  0  0  0  0  0  0  0  0
    1.7277   27.5109   33.9734 H   0  0  0  0  0  0  0  0  0  0  0  0
   -2.8556   13.5931   45.3526 H   0  0  0  0  0  0  0  0  0  0  0  0
   -3.1230   14.5103   43.8314 H   0  0  0  0  0  0  0  0  0  0  0  0
   -2.8756   12.7319   43.7763 H   0  0  0  0  0  0  0  0  0  0  0  0
  2  8  1  0
  2  1  1  0
  4 10  1  1
  4  6  1  0
  4 14  1  0
 10 14  1  0
 11  7  1  0
 11 28  1  0
 11 27  1  0
 12  1  1  0
 12  5  1  0
 13 15  1  0
 13  3  1  0
 13 18  1  0
 14 32  1  0
 15 24  1  0
 17  7  1  0
 17 16  2  3
 18 26  1  0
 18  5  1  0
 20 33  1  0
 20  9  2  0
 21  3  2  0
 22 20  1  0
 23 19  1  0
 23 22  1  0
 23 31  1  0
 24 12  1  0
 25  4  1  0
 25  6  1  0
 26  3  1  0
 26 22  1  0
 27  2  2  0
 28  8  1  0
 29 17  1  0
 31 30  1  0
 31 33  1  0
 34 30  1  0
  1 35  1  0
  1 36  1  0
  5 37  1  0
  5 38  1  0
  6 39  1  0
  6 40  1  0
  7 41  1  0
  7 42  1  0
  8 43  1  0
  8 44  1  0
 10 45  1  0
 10 46  1  0
 11 47  1  6
 12 48  1  6
 13 49  1  1
 14 50  1  1
 15 51  1  0
 15 52  1  0
 16 53  1  0
 16 54  1  0
 18 55  1  6
 19 56  1  0
 19 57  1  0
 19 58  1  0
 22 59  1  6
 23 60  1  1
 24 61  1  0
 24 62  1  0
 25 63  1  0
 25 64  1  0
 26 65  1  1
 27 66  1  0
 28 67  1  0
 28 68  1  0
 29 69  1  0
 29 70  1  0
 29 71  1  0
 30 72  1  0
 30 73  1  0
 31 74  1  1
 32 75  1  0
 32 76  1  0
 32 77  1  0
 34 78  1  0
 34 79  1  0
 34 80  1  0
M  CHG  3   1   1  15   1  25   1
M  END
>  <mol_id>  (43) 
2026-09-18-6fnk-s0-n100-0043

>  <rmsd_to_ref>  (43) 


$$$$

     RDKit          3D

 52 53  0  0  0  0  0  0  0  0999 V2000
    1.6870   24.6580   31.1540 F   0  0  0  0  0  0  0  0  0  0  0  0
   -1.1030   15.2090   38.2300 C   0  0  0  0  0  0  0  0  0  0  0  0
    2.9730   22.4110   34.0050 C   0  0  0  0  0  0  0  0  0  0  0  0
    1.4770   21.0530   41.7350 C   0  0  0  0  0  0  0  0  0  0  0  0
    2.5870   19.9170   40.0520 C   0  0  1  0  0  0  0  0  0  0  0  0
    2.2110   18.5110   39.4770 C   0  0  0  0  0  0  0  0  0  0  0  0
    1.5840   17.5710   40.4030 N   0  0  0  0  0  0  0  0  0  0  0  0
    1.7770   22.4150   38.0720 C   0  0  0  0  0  0  0  0  0  0  0  0
    2.1860   22.4090   35.2960 C   0  0  0  0  0  0  0  0  0  0  0  0
    0.6550   16.8820   39.6500 C   0  0  0  0  0  0  0  0  0  0  0  0
    0.1440   25.7410   32.2740 F   0  0  0  0  0  0  0  0  0  0  0  0
    3.1140   21.8790   37.3550 N   0  0  0  0  0  0  0  0  0  0  0  0
    1.2120   24.9970   32.2600 N   0  0  0  0  0  0  0  0  0  0  0  0
    0.1200   15.8840   40.2580 C   0  0  0  0  0  0  0  0  0  0  0  0
    1.5100   24.2210   33.3690 C   0  0  0  0  0  0  0  0  0  0  0  0
    2.9320   20.9630   39.3670 N   0  0  0  0  0  0  0  0  0  0  0  0
    0.3220   17.1220   38.2230 C   0  0  0  0  0  0  0  0  0  0  0  0
    1.0720   22.9960   36.8540 C   0  0  0  0  0  0  0  0  0  0  0  0
    3.7560   21.5480   38.5520 C   0  0  0  0  0  0  0  0  0  0  0  0
   -0.7710   14.9760   39.5530 C   0  0  0  0  0  0  0  0  0  0  0  0
    2.3410   18.4210   38.2820 O   0  0  0  0  0  0  0  0  0  0  0  0
   -0.4910   16.2420   37.5830 C   0  0  0  0  0  0  0  0  0  0  0  0
    0.6770   24.2590   34.5450 C   0  0  0  0  0  0  0  0  0  0  0  0
    3.9460   20.2360   42.1890 C   0  0  0  0  0  0  0  0  0  0  0  0
    4.9680   21.6820   38.8450 O   0  0  0  0  0  0  0  0  0  0  0  0
    1.0940   23.2900   35.5450 C   0  0  0  0  0  0  0  0  0  0  0  0
    2.6300   23.4010   33.1520 C   0  0  0  0  0  0  0  0  0  0  0  0
    2.5670   20.0010   41.6580 C   0  0  0  0  0  0  0  0  0  0  0  0
   -1.8411   14.5777   37.7137 H   0  0  0  0  0  0  0  0  0  0  0  0
    3.7558   21.6716   33.7801 H   0  0  0  0  0  0  0  0  0  0  0  0
    1.2514   21.2707   42.7894 H   0  0  0  0  0  0  0  0  0  0  0  0
    1.8183   21.9718   41.2357 H   0  0  0  0  0  0  0  0  0  0  0  0
    0.5708   20.6793   41.2357 H   0  0  0  0  0  0  0  0  0  0  0  0
    3.6370   19.5904   40.0822 H   0  0  0  0  0  0  0  0  0  0  0  0
    1.7911   17.4485   41.4045 H   0  0  0  0  0  0  0  0  0  0  0  0
    1.2003   21.5993   38.5326 H   0  0  0  0  0  0  0  0  0  0  0  0
    1.9348   23.1143   38.9063 H   0  0  0  0  0  0  0  0  0  0  0  0
    2.4701   21.6928   36.0810 H   0  0  0  0  0  0  0  0  0  0  0  0
    3.3961   21.8059   36.3671 H   0  0  0  0  0  0  0  0  0  0  0  0
    0.3383   15.7148   41.3228 H   0  0  0  0  0  0  0  0  0  0  0  0
    2.2045   21.6651   39.5636 H   0  0  0  0  0  0  0  0  0  0  0  0
    0.7266   17.9971   37.6934 H   0  0  0  0  0  0  0  0  0  0  0  0
    0.1610   22.3798   36.8747 H   0  0  0  0  0  0  0  0  0  0  0  0
    1.5412   23.9683   37.0649 H   0  0  0  0  0  0  0  0  0  0  0  0
   -1.1831   14.0994   40.0743 H   0  0  0  0  0  0  0  0  0  0  0  0
   -0.6620   16.3670   36.5036 H   0  0  0  0  0  0  0  0  0  0  0  0
   -0.1757   24.9424   34.6710 H   0  0  0  0  0  0  0  0  0  0  0  0
    3.9211   20.2318   43.2887 H   0  0  0  0  0  0  0  0  0  0  0  0
    4.6162   19.4391   41.8343 H   0  0  0  0  0  0  0  0  0  0  0  0
    4.3145   21.2099   41.8343 H   0  0  0  0  0  0  0  0  0  0  0  0
    3.2481   23.5706   32.2580 H   0  0  0  0  0  0  0  0  0  0  0  0
    2.3341   19.1379   42.2990 H   0  0  0  0  0  0  0  0  0  0  0  0
  1 13  1  0
  2 20  2  0
  3  9  1  0
  5 16  1  0
  5 28  1  0
  6  5  1  0
  6  7  1  0
  9 26  2  0
 10 14  2  0
 10  7  1  0
 12  8  1  0
 12 19  1  0
 13 11  1  0
 13 15  1  0
 15 23  2  0
 17 10  1  0
 18  8  1  0
 19 25  2  0
 19 16  1  0
 20 14  1  0
 21  6  2  0
 22 17  2  0
 22  2  1  0
 23 26  1  0
 26 18  1  0
 27 15  1  0
 27  3  2  0
 28  4  1  0
 28 24  1  0
  2 29  1  0
  3 30  1  0
  4 31  1  0
  4 32  1  0
  4 33  1  0
  5 34  1  1
  7 35  1  0
  8 36  1  0
  8 37  1  0
  9 38  1  0
 12 39  1  0
 14 40  1  0
 16 41  1  0
 17 42  1  0
 18 43  1  0
 18 44  1  0
 20 45  1  0
 22 46  1  0
 23 47  1  0
 24 48  1  0
 24 49  1  0
 24 50  1  0
 27 51  1  0
 28 52  1  0
M  END
>  <mol_id>  (44) 
2026-09-18-6fnk-s0-n100-0044

>  <rmsd_to_ref>  (44) 


$$$$

     RDKit          3D

 75 76  0  0  0  0  0  0  0  0999 V2000
   -0.5890   19.1380   45.8650 O   0  0  0  0  0  0  0  0  0  0  0  0
    5.7860   24.9920   36.6440 C   0  0  0  0  0  0  0  0  0  0  0  0
    4.6660   24.6730   36.1270 C   0  0  0  0  0  0  0  0  0  0  0  0
    2.1870   19.8710   39.4820 C   0  0  0  0  0  0  0  0  0  0  0  0
    1.1720   12.6680   37.2530 C   0  0  0  0  0  0  0  0  0  0  0  0
    1.2520   13.9330   37.1860 C   0  0  1  0  0  0  0  0  0  0  0  0
    1.3120   26.0830   32.6010 C   0  0  0  0  0  0  0  0  0  0  0  0
    2.6930   20.3120   38.3000 N   0  0  0  0  0  0  0  0  0  0  0  0
    0.8540   28.0040   34.1080 C   0  0  0  0  0  0  0  0  0  0  0  0
    1.7560   25.6270   34.1870 C   0  0  0  0  0  0  0  0  0  0  0  0
    2.0220   17.9420   41.4770 C   0  0  0  0  0  0  0  0  0  0  0  0
   -0.3500   18.2300   44.7950 C   0  0  0  0  0  0  0  0  0  0  0  0
    0.8030   17.8150   42.4660 C   0  0  0  0  0  0  0  0  0  0  0  0
    0.9360   15.2020   37.7390 C   0  0  1  0  0  0  0  0  0  0  0  0
    0.1070   12.1900   37.9690 N   0  0  0  0  0  0  0  0  0  0  0  0
    1.0730   16.6430   37.8810 C   0  0  2  0  0  0  0  0  0  0  0  0
   -0.9560   16.8630   44.8490 O   0  0  0  0  0  0  0  0  0  0  0  0
   -0.2980   14.8930   38.3630 C   0  0  0  0  0  0  0  0  0  0  0  0
    3.4350   15.0230   35.7460 C   0  0  0  0  0  0  0  0  0  0  0  0
    1.2090   17.3840   39.1540 C   0  0  0  0  0  0  0  0  0  0  0  0
    0.9930   27.4780   32.7680 C   0  0  0  0  0  0  0  0  0  0  0  0
    2.0840   20.6940   40.3200 O   0  0  0  0  0  0  0  0  0  0  0  0
    3.4610   24.4010   35.5320 C   0  0  2  0  0  0  0  0  0  0  0  0
   -0.1170   13.2740   39.0120 C   0  0  0  0  0  0  0  0  0  0  0  0
    0.8290   17.3540   36.7800 O   0  0  0  0  0  0  0  0  0  0  0  0
    3.1990   22.3800   36.9780 C   0  0  0  0  0  0  0  0  0  0  0  0
    1.7870   18.3600   39.9580 C   0  0  2  0  0  0  0  0  0  0  0  0
    0.8090   18.4080   43.7830 C   0  0  0  0  0  0  0  0  0  0  0  0
    1.9450   14.5840   35.8930 O   0  0  0  0  0  0  0  0  0  0  0  0
    2.9500   24.7530   34.4890 C   0  0  0  0  0  0  0  0  0  0  0  0
    3.3830   21.6540   38.2420 C   0  0  0  0  0  0  0  0  0  0  0  0
    2.5240   23.6060   36.4870 C   0  0  0  0  0  0  0  0  0  0  0  0
    1.4360   26.8930   34.9360 C   0  0  0  0  0  0  0  0  0  0  0  0
    6.7529   25.2674   37.0903 H   0  0  0  0  0  0  0  0  0  0  0  0
    2.0936   12.2927   37.7217 H   0  0  0  0  0  0  0  0  0  0  0  0
    1.0301   12.3151   36.2208 H   0  0  0  0  0  0  0  0  0  0  0  0
    0.2757   13.9680   36.6804 H   0  0  0  0  0  0  0  0  0  0  0  0
    0.4390   25.5126   32.2509 H   0  0  0  0  0  0  0  0  0  0  0  0
    2.0934   25.8938   31.8502 H   0  0  0  0  0  0  0  0  0  0  0  0
    2.6065   19.7355   37.4508 H   0  0  0  0  0  0  0  0  0  0  0  0
   -0.2017   28.1815   34.3611 H   0  0  0  0  0  0  0  0  0  0  0  0
    1.3459   28.9764   34.2582 H   0  0  0  0  0  0  0  0  0  0  0  0
    1.2248   24.7439   34.5718 H   0  0  0  0  0  0  0  0  0  0  0  0
    2.7022   18.6908   41.9089 H   0  0  0  0  0  0  0  0  0  0  0  0
    2.3858   16.9070   41.3966 H   0  0  0  0  0  0  0  0  0  0  0  0
   -0.0859   17.2539   42.1418 H   0  0  0  0  0  0  0  0  0  0  0  0
    1.9756   15.4291   37.4603 H   0  0  0  0  0  0  0  0  0  0  0  0
   -0.7221   12.0769   37.3685 H   0  0  0  0  0  0  0  0  0  0  0  0
    0.2774   11.2607   38.3791 H   0  0  0  0  0  0  0  0  0  0  0  0
    2.0898   16.4042   38.2263 H   0  0  0  0  0  0  0  0  0  0  0  0
   -0.5072   15.6083   39.1721 H   0  0  0  0  0  0  0  0  0  0  0  0
   -1.1355   14.9517   37.6523 H   0  0  0  0  0  0  0  0  0  0  0  0
    3.8789   15.1538   36.7439 H   0  0  0  0  0  0  0  0  0  0  0  0
    3.9921   14.2508   35.1952 H   0  0  0  0  0  0  0  0  0  0  0  0
    3.4845   15.9739   35.1952 H   0  0  0  0  0  0  0  0  0  0  0  0
    0.1625   17.7085   39.2519 H   0  0  0  0  0  0  0  0  0  0  0  0
    2.0478   16.7209   39.4124 H   0  0  0  0  0  0  0  0  0  0  0  0
    1.7907   28.0535   32.2756 H   0  0  0  0  0  0  0  0  0  0  0  0
   -0.0148   27.5744   32.3379 H   0  0  0  0  0  0  0  0  0  0  0  0
    3.9087   23.5360   35.0207 H   0  0  0  0  0  0  0  0  0  0  0  0
   -1.0304   13.0260   39.5726 H   0  0  0  0  0  0  0  0  0  0  0  0
    0.7863   13.2912   39.6396 H   0  0  0  0  0  0  0  0  0  0  0  0
    0.5184   18.2591   37.0338 H   0  0  0  0  0  0  0  0  0  0  0  0
    4.2393   22.5568   36.6673 H   0  0  0  0  0  0  0  0  0  0  0  0
    2.3796   21.7237   36.6496 H   0  0  0  0  0  0  0  0  0  0  0  0
    0.7866   18.7155   40.2457 H   0  0  0  0  0  0  0  0  0  0  0  0
    1.6771   19.0142   44.0812 H   0  0  0  0  0  0  0  0  0  0  0  0
    2.7068   23.8039   33.9889 H   0  0  0  0  0  0  0  0  0  0  0  0
    3.7155   25.4970   34.2236 H   0  0  0  0  0  0  0  0  0  0  0  0
    4.4608   21.4928   38.3918 H   0  0  0  0  0  0  0  0  0  0  0  0
    2.9272   22.2741   39.0280 H   0  0  0  0  0  0  0  0  0  0  0  0
    2.2589   24.2412   37.3450 H   0  0  0  0  0  0  0  0  0  0  0  0
    1.6180   23.3155   35.9348 H   0  0  0  0  0  0  0  0  0  0  0  0
    2.3667   27.2617   35.3920 H   0  0  0  0  0  0  0  0  0  0  0  0
    0.6606   26.6234   35.6682 H   0  0  0  0  0  0  0  0  0  0  0  0
  3  2  3  0
  4 27  1  0
  4 22  2  0
  5 15  1  0
  6 29  1  0
  6  5  1  0
  6 14  1  0
  7 21  1  0
  7 10  1  0
  8  4  1  0
  9 33  1  0
 10 30  1  0
 10 33  1  0
 11 13  1  0
 12 17  2  0
 12  1  1  0
 13 28  2  3
 14 16  1  0
 14 18  1  0
 15 24  1  0
 16 25  1  0
 16 20  1  0
 18 24  1  0
 19 29  1  0
 21  9  1  0
 23 30  1  0
 23  3  1  0
 23 32  1  0
 26 31  1  0
 27 20  1  0
 27 11  1  0
 28 12  1  0
 31  8  1  0
 32 26  1  0
  2 34  1  0
  5 35  1  0
  5 36  1  0
  6 37  1  1
  7 38  1  0
  7 39  1  0
  8 40  1  0
  9 41  1  0
  9 42  1  0
 10 43  1  0
 11 44  1  0
 11 45  1  0
 13 46  1  0
 14 47  1  1
 15 48  1  0
 15 49  1  0
 16 50  1  6
 18 51  1  0
 18 52  1  0
 19 53  1  0
 19 54  1  0
 19 55  1  0
 20 56  1  0
 20 57  1  0
 21 58  1  0
 21 59  1  0
 23 60  1  6
 24 61  1  0
 24 62  1  0
 25 63  1  0
 26 64  1  0
 26 65  1  0
 27 66  1  1
 28 67  1  0
 30 68  1  0
 30 69  1  0
 31 70  1  0
 31 71  1  0
 32 72  1  0
 32 73  1  0
 33 74  1  0
 33 75  1  0
M  CHG  2   1  -1  15   1
M  END
>  <mol_id>  (45) 
2026-09-18-6fnk-s0-n100-0045

>  <rmsd_to_ref>  (45) 


$$$$

     RDKit          3D

 88 90  0  0  0  0  0  0  0  0999 V2000
    2.7441   22.0875   35.2892 C   0  0  0  0  0  0  0  0  0  0  0  0
    2.4241   23.5143   34.9828 C   0  0  2  0  0  0  0  0  0  0  0  0
    0.7252   16.3860   36.1845 C   0  0  0  0  0  0  0  0  0  0  0  0
    1.6598   17.3453   36.6698 C   0  0  0  0  0  0  0  0  0  0  0  0
    1.9850   18.7772   38.7004 C   0  0  2  0  0  0  0  0  0  0  0  0
   -0.5456   28.7078   34.8140 C   0  0  0  0  0  0  0  0  0  0  0  0
    2.1518   22.2069   37.7381 C   0  0  0  0  0  0  0  0  0  0  0  0
    1.2543   18.1555   37.7443 N   0  0  0  0  0  0  0  0  0  0  0  0
   -0.5658   28.2888   32.4087 C   0  0  1  0  0  0  0  0  0  0  0  0
    2.7973   24.1495   33.6988 C   0  0  1  0  0  0  0  0  0  0  0  0
   -1.5617   29.3180   32.7815 N   0  0  0  0  0  0  0  0  0  0  0  0
    3.8355   22.8384   40.3979 C   0  0  0  0  0  0  0  0  0  0  0  0
    2.7787   17.4421   36.0640 O   0  0  0  0  0  0  0  0  0  0  0  0
    1.5994   20.0500   39.1097 N   0  0  0  0  0  0  0  0  0  0  0  0
    1.2178   27.0877   34.1861 C   0  0  0  0  0  0  0  0  0  0  0  0
    0.9907   25.7985   34.3460 C   0  0  0  0  0  0  0  0  0  0  0  0
    1.2548   14.8842   38.0726 C   0  0  1  0  0  0  0  0  0  0  0  0
    1.2444   14.1203   39.2235 C   0  0  2  0  0  0  0  0  0  0  0  0
    3.1812   17.9985   39.2177 O   0  0  0  0  0  0  0  0  0  0  0  0
    0.8962   14.6762   41.7805 O   0  0  0  0  0  0  0  0  0  0  0  0
    3.1459   17.5827   40.6623 C   0  0  0  0  0  0  0  0  0  0  0  0
    0.6279   12.9316   39.8023 C   0  0  0  0  0  0  0  0  0  0  0  0
    1.5232   24.8412   33.2895 C   0  0  0  0  0  0  0  0  0  0  0  0
    2.8764   22.0649   40.0553 C   0  0  0  0  0  0  0  0  0  0  0  0
    0.2141   28.0663   33.6077 C   0  0  2  0  0  0  0  0  0  0  0  0
   -1.1141   14.8416   38.2857 O   0  0  0  0  0  0  0  0  0  0  0  0
   -0.9001   26.8986   32.2477 C   0  0  0  0  0  0  0  0  0  0  0  0
    3.5809   24.5430   34.7827 C   0  0  0  0  0  0  0  0  0  0  0  0
   -0.3903   14.3172   41.3532 C   0  0  0  0  0  0  0  0  0  0  0  0
   -0.2239   12.7973   41.0390 C   0  0  0  0  0  0  0  0  0  0  0  0
    1.3222   14.9822   36.6804 C   0  0  0  0  0  0  0  0  0  0  0  0
    0.1764   15.0552   38.8506 C   0  0  2  0  0  0  0  0  0  0  0  0
   -1.3184   29.7557   34.2146 C   0  0  0  0  0  0  0  0  0  0  0  0
    2.2135   21.8427   36.6145 C   0  0  0  0  0  0  0  0  0  0  0  0
    2.2160   21.3540   39.0036 C   0  0  1  0  0  0  0  0  0  0  0  0
    3.8322   21.9272   35.2761 H   0  0  0  0  0  0  0  0  0  0  0  0
    2.3083   21.4048   34.5449 H   0  0  0  0  0  0  0  0  0  0  0  0
    1.5077   23.4133   35.5828 H   0  0  0  0  0  0  0  0  0  0  0  0
   -0.2728   16.5602   36.6129 H   0  0  0  0  0  0  0  0  0  0  0  0
    0.5983   16.4314   35.0928 H   0  0  0  0  0  0  0  0  0  0  0  0
    1.3532   18.3235   39.4782 H   0  0  0  0  0  0  0  0  0  0  0  0
   -1.1988   27.9698   35.3026 H   0  0  0  0  0  0  0  0  0  0  0  0
    0.1339   29.0755   35.5970 H   0  0  0  0  0  0  0  0  0  0  0  0
    2.9768   22.9267   37.8442 H   0  0  0  0  0  0  0  0  0  0  0  0
    1.0854   22.4746   37.7697 H   0  0  0  0  0  0  0  0  0  0  0  0
    0.2370   18.2998   37.8164 H   0  0  0  0  0  0  0  0  0  0  0  0
   -0.2055   28.7059   31.4568 H   0  0  0  0  0  0  0  0  0  0  0  0
    3.1885   23.9214   32.6963 H   0  0  0  0  0  0  0  0  0  0  0  0
   -1.4696   30.1293   32.1535 H   0  0  0  0  0  0  0  0  0  0  0  0
   -2.5106   28.9267   32.6965 H   0  0  0  0  0  0  0  0  0  0  0  0
    3.9447   23.1474   41.4479 H   0  0  0  0  0  0  0  0  0  0  0  0
    4.5514   23.1948   39.6425 H   0  0  0  0  0  0  0  0  0  0  0  0
    0.6888   20.1811   38.6465 H   0  0  0  0  0  0  0  0  0  0  0  0
    1.8197   19.9107   40.1062 H   0  0  0  0  0  0  0  0  0  0  0  0
    1.4644   27.4721   35.1868 H   0  0  0  0  0  0  0  0  0  0  0  0
    1.9705   27.0665   33.3843 H   0  0  0  0  0  0  0  0  0  0  0  0
    1.4369   25.5050   35.3077 H   0  0  0  0  0  0  0  0  0  0  0  0
   -0.1029   25.7023   34.2768 H   0  0  0  0  0  0  0  0  0  0  0  0
    2.1486   15.2999   37.5845 H   0  0  0  0  0  0  0  0  0  0  0  0
    2.1509   13.8227   39.7711 H   0  0  0  0  0  0  0  0  0  0  0  0
    0.9208   14.6994   42.7699 H   0  0  0  0  0  0  0  0  0  0  0  0
    2.6530   18.3657   41.2574 H   0  0  0  0  0  0  0  0  0  0  0  0
    2.5855   16.6411   40.7593 H   0  0  0  0  0  0  0  0  0  0  0  0
    4.1733   17.4372   41.0272 H   0  0  0  0  0  0  0  0  0  0  0  0
   -0.0035   12.5335   38.9943 H   0  0  0  0  0  0  0  0  0  0  0  0
    1.5425   12.4670   40.1994 H   0  0  0  0  0  0  0  0  0  0  0  0
    1.7156   25.4103   32.3681 H   0  0  0  0  0  0  0  0  0  0  0  0
    0.7617   24.0609   33.1439 H   0  0  0  0  0  0  0  0  0  0  0  0
    2.3093   21.8526   40.9737 H   0  0  0  0  0  0  0  0  0  0  0  0
    1.0225   28.2476   32.8840 H   0  0  0  0  0  0  0  0  0  0  0  0
   -1.7781   14.7316   39.0117 H   0  0  0  0  0  0  0  0  0  0  0  0
   -1.1570   26.4676   33.2265 H   0  0  0  0  0  0  0  0  0  0  0  0
   -1.7602   26.8046   31.5685 H   0  0  0  0  0  0  0  0  0  0  0  0
   -0.0385   26.3609   31.8251 H   0  0  0  0  0  0  0  0  0  0  0  0
    4.6282   24.2142   34.8529 H   0  0  0  0  0  0  0  0  0  0  0  0
    3.8536   25.5067   35.2375 H   0  0  0  0  0  0  0  0  0  0  0  0
   -1.1339   14.4809   42.1470 H   0  0  0  0  0  0  0  0  0  0  0  0
   -0.7510   14.9071   40.4976 H   0  0  0  0  0  0  0  0  0  0  0  0
   -1.1862   12.3069   40.8309 H   0  0  0  0  0  0  0  0  0  0  0  0
    0.1932   12.1796   41.8480 H   0  0  0  0  0  0  0  0  0  0  0  0
    0.7409   14.1632   36.2317 H   0  0  0  0  0  0  0  0  0  0  0  0
    2.3755   14.9150   36.3705 H   0  0  0  0  0  0  0  0  0  0  0  0
   -0.3443   15.8155   39.4514 H   0  0  0  0  0  0  0  0  0  0  0  0
   -0.7613   30.7040   34.2368 H   0  0  0  0  0  0  0  0  0  0  0  0
   -2.2623   29.9236   34.7538 H   0  0  0  0  0  0  0  0  0  0  0  0
    1.1402   21.8055   36.3765 H   0  0  0  0  0  0  0  0  0  0  0  0
    3.1047   21.2460   36.8589 H   0  0  0  0  0  0  0  0  0  0  0  0
    1.2887   21.8219   39.3659 H   0  0  0  0  0  0  0  0  0  0  0  0
  1 34  1  0
  2  1  1  0
  3  4  1  0
  3 31  1  0
  4  8  1  0
  5  8  1  0
  5 19  1  0
  5 14  1  0
  9 27  1  0
  9 11  1  0
  9 25  1  0
 10 23  1  0
 10 28  1  0
 10  2  1  0
 11 33  1  0
 13  4  2  0
 15 16  1  0
 17 31  1  0
 17 32  1  0
 17 18  1  0
 18 22  1  0
 19 21  1  0
 22 30  1  0
 23 16  1  0
 24 12  2  3
 25 15  1  0
 25  6  1  0
 28  2  1  0
 29 20  1  0
 30 29  1  0
 32 26  1  0
 32 18  1  0
 33  6  1  0
 34  7  1  0
 35  7  1  0
 35 14  1  0
 35 24  1  0
  1 36  1  0
  1 37  1  0
  2 38  1  1
  3 39  1  0
  3 40  1  0
  5 41  1  1
  6 42  1  0
  6 43  1  0
  7 44  1  0
  7 45  1  0
  8 46  1  0
  9 47  1  6
 10 48  1  6
 11 49  1  0
 11 50  1  0
 12 51  1  0
 12 52  1  0
 14 53  1  0
 14 54  1  0
 15 55  1  0
 15 56  1  0
 16 57  1  0
 16 58  1  0
 17 59  1  1
 18 60  1  1
 20 61  1  0
 21 62  1  0
 21 63  1  0
 21 64  1  0
 22 65  1  0
 22 66  1  0
 23 67  1  0
 23 68  1  0
 24 69  1  0
 25 70  1  6
 26 71  1  0
 27 72  1  0
 27 73  1  0
 27 74  1  0
 28 75  1  0
 28 76  1  0
 29 77  1  0
 29 78  1  0
 30 79  1  0
 30 80  1  0
 31 81  1  0
 31 82  1  0
 32 83  1  1
 33 84  1  0
 33 85  1  0
 34 86  1  0
 34 87  1  0
 35 88  1  6
M  CHG  2  11   1  14   1
M  END
>  <mol_id>  (46) 
2026-09-18-6fnk-s0-n100-0046

>  <rmsd_to_ref>  (46) 


$$$$

     RDKit          3D

 55 57  0  0  0  0  0  0  0  0999 V2000
    1.1120   25.2740   33.5780 C   0  0  0  0  0  0  0  0  0  0  0  0
    2.9080   22.7910   35.6790 C   0  0  0  0  0  0  0  0  0  0  0  0
    5.4230   21.1650   42.5590 C   0  0  0  0  0  0  0  0  0  0  0  0
    0.6070   17.1790   38.7000 C   0  0  0  0  0  0  0  0  0  0  0  0
    3.0970   20.8190   39.2910 S   0  0  0  0  0  0  0  0  0  0  0  0
    2.2420   25.5900   31.5700 C   0  0  0  0  0  0  0  0  0  0  0  0
   -1.1780   15.5580   38.3740 C   0  0  0  0  0  0  0  0  0  0  0  0
    2.5350   18.8240   37.6850 O   0  0  0  0  0  0  0  0  0  0  0  0
    0.9400   16.5060   39.6860 C   0  0  0  0  0  0  0  0  0  0  0  0
    2.2850   21.8360   36.6220 C   0  0  0  0  0  0  0  0  0  0  0  0
    2.4350   19.0990   38.9530 C   0  0  2  0  0  0  0  0  0  0  0  0
    2.8490   24.4640   32.2000 C   0  0  0  0  0  0  0  0  0  0  0  0
    2.3660   24.4470   33.6060 C   0  0  0  0  0  0  0  0  0  0  0  0
   -0.4470   16.6680   37.9670 C   0  0  0  0  0  0  0  0  0  0  0  0
   -0.8290   14.9400   39.5340 C   0  0  0  0  0  0  0  0  0  0  0  0
    2.4370   22.9450   34.1410 C   0  0  0  0  0  0  0  0  0  0  0  0
    3.6560   19.5180   42.8780 C   0  0  0  0  0  0  0  0  0  0  0  0
    0.2290   15.2770   40.2300 C   0  0  0  0  0  0  0  0  0  0  0  0
    5.3610   19.6640   44.5470 O   0  0  0  0  0  0  0  0  0  0  0  0
    4.8970   20.1000   43.2340 C   0  0  0  0  0  0  0  0  0  0  0  0
    2.9260   20.4810   36.2190 O   0  0  0  0  0  0  0  0  0  0  0  0
    3.1100   19.8920   41.6980 C   0  0  0  0  0  0  0  0  0  0  0  0
    1.1250   26.0810   32.3170 C   0  0  0  0  0  0  0  0  0  0  0  0
    3.7720   20.8430   40.8310 C   0  0  0  0  0  0  0  0  0  0  0  0
    1.3070   18.8430   38.7580 C   0  0  2  0  0  0  0  0  0  0  0  0
   -1.5090   13.7930   40.2450 O   0  0  0  0  0  0  0  0  0  0  0  0
    4.8880   21.5470   41.3260 C   0  0  0  0  0  0  0  0  0  0  0  0
    0.2299   24.6170   33.5929 H   0  0  0  0  0  0  0  0  0  0  0  0
    1.0671   25.9343   34.4567 H   0  0  0  0  0  0  0  0  0  0  0  0
    2.7894   23.7859   36.1331 H   0  0  0  0  0  0  0  0  0  0  0  0
    3.9118   22.3575   35.5588 H   0  0  0  0  0  0  0  0  0  0  0  0
    6.2691   21.7227   42.9869 H   0  0  0  0  0  0  0  0  0  0  0  0
    2.9892   26.3921   31.4788 H   0  0  0  0  0  0  0  0  0  0  0  0
    1.8783   25.2728   30.5815 H   0  0  0  0  0  0  0  0  0  0  0  0
   -2.0202   15.1876   37.7711 H   0  0  0  0  0  0  0  0  0  0  0  0
    1.8432   16.8314   40.2230 H   0  0  0  0  0  0  0  0  0  0  0  0
    2.5270   22.0938   37.6636 H   0  0  0  0  0  0  0  0  0  0  0  0
    1.1863   21.8289   36.5699 H   0  0  0  0  0  0  0  0  0  0  0  0
    2.9217   18.6518   39.8323 H   0  0  0  0  0  0  0  0  0  0  0  0
    2.5528   23.5374   31.6865 H   0  0  0  0  0  0  0  0  0  0  0  0
    3.9461   24.5330   32.1601 H   0  0  0  0  0  0  0  0  0  0  0  0
    2.9546   24.9267   34.4019 H   0  0  0  0  0  0  0  0  0  0  0  0
   -0.7190   17.1603   37.0217 H   0  0  0  0  0  0  0  0  0  0  0  0
    1.4355   22.5004   34.0444 H   0  0  0  0  0  0  0  0  0  0  0  0
    3.2000   22.4371   33.5328 H   0  0  0  0  0  0  0  0  0  0  0  0
    3.1559   18.7909   43.5347 H   0  0  0  0  0  0  0  0  0  0  0  0
    0.5688   14.7257   41.1191 H   0  0  0  0  0  0  0  0  0  0  0  0
    4.9397   18.8836   44.9869 H   0  0  0  0  0  0  0  0  0  0  0  0
    3.1659   19.9739   37.0347 H   0  0  0  0  0  0  0  0  0  0  0  0
    2.1438   19.4648   41.3915 H   0  0  0  0  0  0  0  0  0  0  0  0
    1.2524   27.1497   32.5441 H   0  0  0  0  0  0  0  0  0  0  0  0
    0.1824   25.9861   31.7580 H   0  0  0  0  0  0  0  0  0  0  0  0
    0.3922   19.3357   39.1191 H   0  0  0  0  0  0  0  0  0  0  0  0
   -1.1345   13.4442   41.0925 H   0  0  0  0  0  0  0  0  0  0  0  0
    5.3277   22.3780   40.7549 H   0  0  0  0  0  0  0  0  0  0  0  0
  1 13  1  0
  2 10  1  0
  3 20  1  0
  4  9  2  0
  5 24  1  0
  6 12  1  0
  6 23  1  0
  7 15  1  0
  8 25  1  0
  8 11  1  0
  9 18  1  0
 11  5  1  0
 12 13  1  0
 13 16  1  0
 14  7  2  0
 14  4  1  0
 15 18  2  0
 15 26  1  0
 16  2  1  0
 17 20  2  0
 20 19  1  0
 21 10  1  0
 22 17  1  0
 23  1  1  0
 24 27  1  0
 24 22  2  0
 25  4  1  0
 25 11  1  0
 27  3  2  0
  1 28  1  0
  1 29  1  0
  2 30  1  0
  2 31  1  0
  3 32  1  0
  6 33  1  0
  6 34  1  0
  7 35  1  0
  9 36  1  0
 10 37  1  0
 10 38  1  0
 11 39  1  1
 12 40  1  0
 12 41  1  0
 13 42  1  0
 14 43  1  0
 16 44  1  0
 16 45  1  0
 17 46  1  0
 18 47  1  0
 19 48  1  0
 21 49  1  0
 22 50  1  0
 23 51  1  0
 23 52  1  0
 25 53  1  6
 26 54  1  0
 27 55  1  0
M  END
>  <mol_id>  (47) 
2026-09-18-6fnk-s0-n100-0047

>  <rmsd_to_ref>  (47) 


$$$$

     RDKit          3D

 70 72  0  0  0  0  0  0  0  0999 V2000
    2.4914   20.6648   39.6256 N   0  0  0  0  0  0  0  0  0  0  0  0
    0.5486   15.9647   38.1612 S   0  0  0  0  0  0  0  0  0  0  0  0
    3.1724   21.0535   40.8541 C   0  0  0  0  0  0  0  0  0  0  0  0
    1.5249   19.4669   39.8535 C   0  0  1  0  0  0  0  0  0  0  0  0
    1.7550   18.4342   37.4947 O   0  0  0  0  0  0  0  0  0  0  0  0
   -1.3019   17.0606   36.0738 C   0  0  0  0  0  0  0  0  0  0  0  0
   -0.6221   21.9219   32.7571 C   0  0  0  0  0  0  0  0  0  0  0  0
    0.5730   17.9208   43.6946 C   0  0  0  0  0  0  0  0  0  0  0  0
   -0.0512   15.0531   36.2846 O   0  0  0  0  0  0  0  0  0  0  0  0
   -0.8831   21.7020   31.3786 C   0  0  0  0  0  0  0  0  0  0  0  0
   -0.1405   16.1952   36.5568 C   0  0  0  0  0  0  0  0  0  0  0  0
   -0.5990   24.7959   32.8589 C   0  0  1  0  0  0  0  0  0  0  0  0
   -0.6678   27.4001   33.1566 N   0  0  0  0  0  0  0  0  0  0  0  0
    5.8195   23.0800   37.2583 F   0  0  0  0  0  0  0  0  0  0  0  0
    1.0092   19.3457   41.0618 N   0  0  0  0  0  0  0  0  0  0  0  0
   -0.3996   23.2237   33.3671 C   0  0  2  0  0  0  0  0  0  0  0  0
    1.8510   21.9817   37.6337 C   0  0  0  0  0  0  0  0  0  0  0  0
    4.1075   21.8898   38.4781 C   0  0  0  0  0  0  0  0  0  0  0  0
   -1.3794   19.3017   42.8457 C   0  0  0  0  0  0  0  0  0  0  0  0
    0.2207   17.3295   40.4842 N   0  0  0  0  0  0  0  0  0  0  0  0
   -0.5353   18.0866   42.6401 C   0  0  0  0  0  0  0  0  0  0  0  0
   -1.4262   23.8960   31.7718 C   0  0  0  0  0  0  0  0  0  0  0  0
    3.5987   23.1708   36.4862 C   0  0  0  0  0  0  0  0  0  0  0  0
   -1.6449   22.9653   31.0060 C   0  0  0  0  0  0  0  0  0  0  0  0
    4.5173   22.7306   37.3954 C   0  0  0  0  0  0  0  0  0  0  0  0
   -0.8581   25.8122   33.0108 C   0  0  1  0  0  0  0  0  0  0  0  0
   -1.2899   26.7612   31.5982 S   0  0  0  0  0  0  0  0  0  0  0  0
    2.2699   22.8370   36.6262 C   0  0  0  0  0  0  0  0  0  0  0  0
    1.0352   23.0824   33.7794 C   0  0  0  0  0  0  0  0  0  0  0  0
    1.3614   18.5195   38.7919 C   0  0  0  0  0  0  0  0  0  0  0  0
    0.3200   18.3103   41.3000 C   0  0  0  0  0  0  0  0  0  0  0  0
   -1.4410   28.2339   33.9744 C   0  0  0  0  0  0  0  0  0  0  0  0
    2.8348   21.5491   38.5546 C   0  0  0  0  0  0  0  0  0  0  0  0
    0.7083   17.3634   39.3376 N   0  0  0  0  0  0  0  0  0  0  0  0
    2.6549   20.6088   41.7168 H   0  0  0  0  0  0  0  0  0  0  0  0
    4.2122   20.6956   40.8259 H   0  0  0  0  0  0  0  0  0  0  0  0
    3.1643   22.1495   40.9468 H   0  0  0  0  0  0  0  0  0  0  0  0
    2.3757   18.8376   40.1535 H   0  0  0  0  0  0  0  0  0  0  0  0
   -1.9077   17.3757   36.9362 H   0  0  0  0  0  0  0  0  0  0  0  0
   -0.9078   17.9489   35.5584 H   0  0  0  0  0  0  0  0  0  0  0  0
   -1.9270   16.4807   35.3789 H   0  0  0  0  0  0  0  0  0  0  0  0
    0.2804   21.3346   32.9820 H   0  0  0  0  0  0  0  0  0  0  0  0
   -1.6016   21.6663   33.1874 H   0  0  0  0  0  0  0  0  0  0  0  0
    0.1195   17.8392   44.6934 H   0  0  0  0  0  0  0  0  0  0  0  0
    1.1511   17.0101   43.4788 H   0  0  0  0  0  0  0  0  0  0  0  0
    1.2406   18.7945   43.6652 H   0  0  0  0  0  0  0  0  0  0  0  0
    0.0499   21.6114   30.8029 H   0  0  0  0  0  0  0  0  0  0  0  0
   -1.4308   20.7712   31.1698 H   0  0  0  0  0  0  0  0  0  0  0  0
    0.2121   25.4852   33.1366 H   0  0  0  0  0  0  0  0  0  0  0  0
   -1.3174   23.2832   33.9705 H   0  0  0  0  0  0  0  0  0  0  0  0
    0.8037   21.6549   37.7136 H   0  0  0  0  0  0  0  0  0  0  0  0
    4.8330   21.5371   39.2259 H   0  0  0  0  0  0  0  0  0  0  0  0
   -1.5747   19.4351   43.9199 H   0  0  0  0  0  0  0  0  0  0  0  0
   -0.8516   20.1849   42.4565 H   0  0  0  0  0  0  0  0  0  0  0  0
   -2.3335   19.1800   42.3119 H   0  0  0  0  0  0  0  0  0  0  0  0
   -0.2802   16.4816   40.7858 H   0  0  0  0  0  0  0  0  0  0  0  0
   -1.2298   17.2336   42.6522 H   0  0  0  0  0  0  0  0  0  0  0  0
   -2.3357   23.7739   32.3783 H   0  0  0  0  0  0  0  0  0  0  0  0
   -0.7698   24.3171   30.9959 H   0  0  0  0  0  0  0  0  0  0  0  0
    3.9210   23.7940   35.6390 H   0  0  0  0  0  0  0  0  0  0  0  0
   -1.3478   23.2683   29.9911 H   0  0  0  0  0  0  0  0  0  0  0  0
   -2.7186   22.7336   31.0655 H   0  0  0  0  0  0  0  0  0  0  0  0
   -0.9825   25.2068   33.9207 H   0  0  0  0  0  0  0  0  0  0  0  0
    1.5299   23.2553   35.9281 H   0  0  0  0  0  0  0  0  0  0  0  0
    1.0930   22.9638   34.8715 H   0  0  0  0  0  0  0  0  0  0  0  0
    1.4717   22.1986   33.2910 H   0  0  0  0  0  0  0  0  0  0  0  0
    1.5935   23.9810   33.4781 H   0  0  0  0  0  0  0  0  0  0  0  0
   -1.3148   27.9357   35.0257 H   0  0  0  0  0  0  0  0  0  0  0  0
   -1.1149   29.2767   33.8475 H   0  0  0  0  0  0  0  0  0  0  0  0
   -2.5004   28.1441   33.6924 H   0  0  0  0  0  0  0  0  0  0  0  0
  1  3  1  0
  2 34  1  0
  4  1  1  0
  4 15  1  0
  5 30  2  0
  6 11  1  0
  7 16  1  0
  9 11  2  0
 10  7  1  0
 11  2  1  0
 12 22  1  0
 12 26  1  0
 12 16  1  0
 13 26  1  0
 13 32  1  0
 14 25  1  0
 15 31  2  0
 16 29  1  0
 17 33  2  0
 18 33  1  0
 20 31  1  0
 21 19  1  0
 21  8  1  0
 23 28  2  0
 23 25  1  0
 24 10  1  0
 24 22  1  0
 25 18  2  0
 26 27  1  0
 27 13  1  0
 28 17  1  0
 30 34  1  0
 30  4  1  0
 31 21  1  0
 33  1  1  0
 34 20  1  0
  3 35  1  0
  3 36  1  0
  3 37  1  0
  4 38  1  6
  6 39  1  0
  6 40  1  0
  6 41  1  0
  7 42  1  0
  7 43  1  0
  8 44  1  0
  8 45  1  0
  8 46  1  0
 10 47  1  0
 10 48  1  0
 12 49  1  6
 16 50  1  1
 17 51  1  0
 18 52  1  0
 19 53  1  0
 19 54  1  0
 19 55  1  0
 20 56  1  0
 21 57  1  0
 22 58  1  0
 22 59  1  0
 23 60  1  0
 24 61  1  0
 24 62  1  0
 26 63  1  1
 28 64  1  0
 29 65  1  0
 29 66  1  0
 29 67  1  0
 32 68  1  0
 32 69  1  0
 32 70  1  0
M  END
>  <mol_id>  (48) 
2026-09-18-6fnk-s0-n100-0048

>  <rmsd_to_ref>  (48) 


$$$$

     RDKit          3D

 50 50  0  0  0  0  0  0  0  0999 V2000
    1.5423   17.8627   36.5658 N   0  0  0  0  0  0  0  0  0  0  0  0
    3.4021   22.2723   36.9879 C   0  0  0  0  0  0  0  0  0  0  0  0
   -0.6230   17.1343   39.3500 C   0  0  0  0  0  0  0  0  0  0  0  0
   -1.9719   17.7046   37.4487 C   0  0  0  0  0  0  0  0  0  0  0  0
    7.4026   21.7611   36.8378 C   0  0  0  0  0  0  0  0  0  0  0  0
    4.0593   22.6683   35.6147 C   0  0  0  0  0  0  0  0  0  0  0  0
   -1.8503   17.2117   38.7656 C   0  0  0  0  0  0  0  0  0  0  0  0
    8.0221   21.3944   38.0212 N   0  0  0  0  0  0  0  0  0  0  0  0
    1.9244   22.5558   40.2613 C   0  0  0  0  0  0  0  0  0  0  0  0
    5.9920   22.3177   37.0713 C   0  0  0  0  0  0  0  0  0  0  0  0
    4.4290   23.7173   34.5953 C   0  0  0  0  0  0  0  0  0  0  0  0
    2.3278   22.6224   37.2248 O   0  0  0  0  0  0  0  0  0  0  0  0
    0.5494   17.1462   38.5215 C   0  0  0  0  0  0  0  0  0  0  0  0
    6.0358   20.5421   38.9492 C   0  0  0  0  0  0  0  0  0  0  0  0
    3.8370   21.5517   38.2400 C   0  0  2  0  0  0  0  0  0  0  0  0
    1.7479   16.7739   39.0947 C   0  0  0  0  0  0  0  0  0  0  0  0
   -2.9282   16.5824   39.3408 F   0  0  0  0  0  0  0  0  0  0  0  0
    7.4531   20.8920   39.0635 C   0  0  0  0  0  0  0  0  0  0  0  0
    5.3018   21.2610   38.0108 C   0  0  1  0  0  0  0  0  0  0  0  0
    1.2109   22.2264   41.5971 C   0  0  0  0  0  0  0  0  0  0  0  0
    2.7905   21.1374   39.5537 S   0  0  0  0  0  0  0  0  0  0  0  0
    0.4130   17.6369   37.2694 C   0  0  0  0  0  0  0  0  0  0  0  0
   -0.7784   18.0095   36.7083 C   0  0  0  0  0  0  0  0  0  0  0  0
    1.4861   18.2363   35.6075 H   0  0  0  0  0  0  0  0  0  0  0  0
    2.4604   17.6614   36.9870 H   0  0  0  0  0  0  0  0  0  0  0  0
   -0.5309   17.0634   40.4439 H   0  0  0  0  0  0  0  0  0  0  0  0
   -2.9636   17.8529   36.9965 H   0  0  0  0  0  0  0  0  0  0  0  0
    8.0109   22.5329   36.3437 H   0  0  0  0  0  0  0  0  0  0  0  0
    7.3116   20.8616   36.2111 H   0  0  0  0  0  0  0  0  0  0  0  0
    5.0602   22.2447   35.7842 H   0  0  0  0  0  0  0  0  0  0  0  0
    3.0689   22.5895   35.1426 H   0  0  0  0  0  0  0  0  0  0  0  0
    1.1716   22.9030   39.5383 H   0  0  0  0  0  0  0  0  0  0  0  0
    2.6780   23.3286   40.4733 H   0  0  0  0  0  0  0  0  0  0  0  0
    6.0384   23.3017   37.5609 H   0  0  0  0  0  0  0  0  0  0  0  0
    5.4398   22.4655   36.1315 H   0  0  0  0  0  0  0  0  0  0  0  0
    4.9604   24.5415   35.0936 H   0  0  0  0  0  0  0  0  0  0  0  0
    5.0804   23.2710   33.8295 H   0  0  0  0  0  0  0  0  0  0  0  0
    3.5159   24.1043   34.1196 H   0  0  0  0  0  0  0  0  0  0  0  0
    5.9730   19.4772   38.6810 H   0  0  0  0  0  0  0  0  0  0  0  0
    5.5909   20.7887   39.9245 H   0  0  0  0  0  0  0  0  0  0  0  0
    4.0566   22.5171   38.7194 H   0  0  0  0  0  0  0  0  0  0  0  0
    1.6443   16.7678   40.1899 H   0  0  0  0  0  0  0  0  0  0  0  0
    2.0238   15.7674   38.7469 H   0  0  0  0  0  0  0  0  0  0  0  0
    2.5312   17.4896   38.8046 H   0  0  0  0  0  0  0  0  0  0  0  0
    8.0090   20.7329   39.9992 H   0  0  0  0  0  0  0  0  0  0  0  0
    5.3108   20.3426   37.4054 H   0  0  0  0  0  0  0  0  0  0  0  0
    1.9278   22.3131   42.4268 H   0  0  0  0  0  0  0  0  0  0  0  0
    0.3817   22.9321   41.7536 H   0  0  0  0  0  0  0  0  0  0  0  0
    0.8166   21.2001   41.5588 H   0  0  0  0  0  0  0  0  0  0  0  0
   -0.8206   18.5193   35.7346 H   0  0  0  0  0  0  0  0  0  0  0  0
  1 22  1  0
  2 12  2  0
  4  7  1  0
  5  8  1  0
  6  2  1  0
  7 17  1  0
  7  3  2  0
  8 18  2  0
  9 20  1  0
 10  5  1  0
 10 19  1  0
 11  6  1  0
 13  3  1  0
 13 16  1  0
 14 18  1  0
 15  2  1  0
 15 21  1  0
 19 15  1  0
 19 14  1  0
 21  9  1  0
 22 13  2  0
 23  4  2  0
 23 22  1  0
  1 24  1  0
  1 25  1  0
  3 26  1  0
  4 27  1  0
  5 28  1  0
  5 29  1  0
  6 30  1  0
  6 31  1  0
  9 32  1  0
  9 33  1  0
 10 34  1  0
 10 35  1  0
 11 36  1  0
 11 37  1  0
 11 38  1  0
 14 39  1  0
 14 40  1  0
 15 41  1  1
 16 42  1  0
 16 43  1  0
 16 44  1  0
 18 45  1  0
 19 46  1  6
 20 47  1  0
 20 48  1  0
 20 49  1  0
 23 50  1  0
M  END
>  <mol_id>  (49) 
2026-09-18-6fnk-s0-n100-0049

>  <rmsd_to_ref>  (49) 


$$$$

     RDKit          3D

 29 29  0  0  0  0  0  0  0  0999 V2000
    2.9990   20.9050   38.0900 C   0  0  0  0  0  0  0  0  0  0  0  0
    0.8710   20.8680   41.4130 C   0  0  0  0  0  0  0  0  0  0  0  0
    2.8460   21.1670   34.0010 C   0  0  0  0  0  0  0  0  0  0  0  0
    1.7280   22.2530   33.8150 C   0  0  0  0  0  0  0  0  0  0  0  0
    2.4760   21.4680   36.7340 C   0  0  0  0  0  0  0  0  0  0  0  0
    1.8270   23.6580   33.9330 C   0  0  0  0  0  0  0  0  0  0  0  0
    2.0770   19.7340   40.6830 S   0  0  0  0  0  0  0  0  0  0  0  0
    3.7310   21.7380   35.3570 S   0  0  0  0  0  0  0  0  0  0  0  0
    3.5170   20.3120   41.9560 C   0  0  0  0  0  0  0  0  0  0  0  0
    2.3340   20.1970   36.7070 C   0  0  0  0  0  0  0  0  0  0  0  0
    2.4850   23.0120   32.7970 C   0  0  0  0  0  0  0  0  0  0  0  0
    4.0726   20.8406   38.3207 H   0  0  0  0  0  0  0  0  0  0  0  0
    2.8183   20.9901   39.1717 H   0  0  0  0  0  0  0  0  0  0  0  0
    0.9314   20.8112   42.5099 H   0  0  0  0  0  0  0  0  0  0  0  0
    1.0894   21.8955   41.0865 H   0  0  0  0  0  0  0  0  0  0  0  0
   -0.1411   20.5868   41.0865 H   0  0  0  0  0  0  0  0  0  0  0  0
    3.4875   21.1054   33.1095 H   0  0  0  0  0  0  0  0  0  0  0  0
    2.4420   20.1543   34.1465 H   0  0  0  0  0  0  0  0  0  0  0  0
    0.8411   21.6942   34.1484 H   0  0  0  0  0  0  0  0  0  0  0  0
    1.8261   22.3514   36.6483 H   0  0  0  0  0  0  0  0  0  0  0  0
    0.9377   24.2830   33.7643 H   0  0  0  0  0  0  0  0  0  0  0  0
    2.1637   24.3390   34.7285 H   0  0  0  0  0  0  0  0  0  0  0  0
    3.1696   20.1726   42.9904 H   0  0  0  0  0  0  0  0  0  0  0  0
    4.4199   19.7066   41.7877 H   0  0  0  0  0  0  0  0  0  0  0  0
    3.7507   21.3736   41.7877 H   0  0  0  0  0  0  0  0  0  0  0  0
    1.3256   19.7594   36.7489 H   0  0  0  0  0  0  0  0  0  0  0  0
    2.6571   19.4017   36.0192 H   0  0  0  0  0  0  0  0  0  0  0  0
    3.5821   22.9444   32.7535 H   0  0  0  0  0  0  0  0  0  0  0  0
    2.4577   23.1144   31.7021 H   0  0  0  0  0  0  0  0  0  0  0  0
  3  8  1  0
  4  6  1  0
  4  3  1  0
  5  1  1  0
  7  2  1  0
  7  9  1  0
  8  5  1  0
 10  5  1  0
 10  1  1  0
 11  4  1  0
 11  6  1  0
  1 12  1  0
  1 13  1  0
  2 14  1  0
  2 15  1  0
  2 16  1  0
  3 17  1  0
  3 18  1  0
  4 19  1  0
  5 20  1  0
  6 21  1  0
  6 22  1  0
  9 23  1  0
  9 24  1  0
  9 25  1  0
 10 26  1  0
 10 27  1  0
 11 28  1  0
 11 29  1  0
M  END
>  <mol_id>  (50) 
2026-09-18-6fnk-s0-n100-0050

>  <rmsd_to_ref>  (50) 


$$$$

     RDKit          3D

 49 48  0  0  0  0  0  0  0  0999 V2000
    2.5067   21.7552   37.1320 C   0  0  0  0  0  0  0  0  0  0  0  0
   -0.5907   17.5157   36.4552 O   0  0  0  0  0  0  0  0  0  0  0  0
    3.0354   20.2853   37.9479 N   0  0  0  0  0  0  0  0  0  0  0  0
    0.4013   27.9183   35.6396 O   0  0  0  0  0  0  0  0  0  0  0  0
    1.3139   23.1770   36.4001 C   0  0  0  0  0  0  0  0  0  0  0  0
    5.9798   21.9494   39.1624 C   0  0  0  0  0  0  0  0  0  0  0  0
    2.0222   25.0935   35.3904 C   0  0  0  0  0  0  0  0  0  0  0  0
    5.1327   21.6617   37.9968 C   0  0  2  0  0  0  0  0  0  0  0  0
    3.9828   22.9343   37.7741 S   0  0  0  0  0  0  0  0  0  0  0  0
    2.1004   19.3585   38.2705 C   0  0  0  0  0  0  0  0  0  0  0  0
    0.8306   25.8198   34.7253 C   0  0  0  0  0  0  0  0  0  0  0  0
   -0.8882   16.6837   40.7203 O   0  0  0  0  0  0  0  0  0  0  0  0
    2.1672   19.0148   39.5144 O   0  0  0  0  0  0  0  0  0  0  0  0
   -0.1241   15.7778   38.4650 C   0  0  0  0  0  0  0  0  0  0  0  0
   -1.4551   16.0152   38.5032 O   0  0  0  0  0  0  0  0  0  0  0  0
   -1.4311   14.3874   40.3868 O   0  0  0  0  0  0  0  0  0  0  0  0
   -1.7167   15.7814   40.0383 S   0  0  0  0  0  4  0  0  0  0  0  0
    4.4060   20.4514   38.5954 N   0  0  0  0  0  0  0  0  0  0  0  0
   -3.1477   16.0534   40.2522 O   0  0  0  0  0  0  0  0  0  0  0  0
    1.0937   27.3835   34.6226 C   0  0  0  0  0  0  0  0  0  0  0  0
    1.9003   24.4974   36.7086 C   0  0  0  0  0  0  0  0  0  0  0  0
    0.6054   17.2465   37.4311 S   0  0  0  0  0  6  0  0  0  0  0  0
    1.7910   16.7055   37.0634 O   0  0  0  0  0  0  0  0  0  0  0  0
    1.2337   19.0422   37.2790 N   0  0  0  0  0  0  0  0  0  0  0  0
    1.5179   22.0943   37.4746 H   0  0  0  0  0  0  0  0  0  0  0  0
    2.3666   21.6905   36.0429 H   0  0  0  0  0  0  0  0  0  0  0  0
    0.8593   27.7154   36.4934 H   0  0  0  0  0  0  0  0  0  0  0  0
    1.3083   22.5569   37.3087 H   0  0  0  0  0  0  0  0  0  0  0  0
    0.2830   23.3088   36.0398 H   0  0  0  0  0  0  0  0  0  0  0  0
    1.9137   22.6821   35.6221 H   0  0  0  0  0  0  0  0  0  0  0  0
    5.5301   21.5031   40.0616 H   0  0  0  0  0  0  0  0  0  0  0  0
    6.9808   21.5223   39.0025 H   0  0  0  0  0  0  0  0  0  0  0  0
    6.0626   23.0382   39.2956 H   0  0  0  0  0  0  0  0  0  0  0  0
    2.8381   25.8284   35.4550 H   0  0  0  0  0  0  0  0  0  0  0  0
    2.1586   24.2151   34.7425 H   0  0  0  0  0  0  0  0  0  0  0  0
    5.6464   21.5317   37.0329 H   0  0  0  0  0  0  0  0  0  0  0  0
    0.6827   25.4138   33.7137 H   0  0  0  0  0  0  0  0  0  0  0  0
   -0.0644   25.6576   35.3439 H   0  0  0  0  0  0  0  0  0  0  0  0
   -0.8202   16.4155   41.6709 H   0  0  0  0  0  0  0  0  0  0  0  0
    0.2984   15.7705   39.4807 H   0  0  0  0  0  0  0  0  0  0  0  0
    0.1125   14.7986   38.0231 H   0  0  0  0  0  0  0  0  0  0  0  0
   -1.2016   14.3278   41.3480 H   0  0  0  0  0  0  0  0  0  0  0  0
    4.2885   20.5925   39.6089 H   0  0  0  0  0  0  0  0  0  0  0  0
   -3.3360   16.0849   41.2236 H   0  0  0  0  0  0  0  0  0  0  0  0
    2.1665   27.6031   34.7272 H   0  0  0  0  0  0  0  0  0  0  0  0
    0.7826   27.7923   33.6499 H   0  0  0  0  0  0  0  0  0  0  0  0
    1.2343   25.0889   37.3539 H   0  0  0  0  0  0  0  0  0  0  0  0
    2.8518   24.4410   37.2577 H   0  0  0  0  0  0  0  0  0  0  0  0
    0.9482   19.6923   36.5329 H   0  0  0  0  0  0  0  0  0  0  0  0
  1  9  1  0
  1  3  1  0
  2 22  2  0
  3 10  1  0
  3 18  1  0
  5 21  1  0
  7 21  1  0
  8 18  1  0
  8  6  1  0
  9  8  1  0
 10 13  2  0
 11  7  1  0
 15 14  1  0
 15 17  1  0
 17 16  1  0
 17 12  1  0
 19 17  1  0
 20 11  1  0
 20  4  1  0
 22 14  1  0
 23 22  2  0
 24 22  1  0
 24 10  1  0
  1 25  1  0
  1 26  1  0
  4 27  1  0
  5 28  1  0
  5 29  1  0
  5 30  1  0
  6 31  1  0
  6 32  1  0
  6 33  1  0
  7 34  1  0
  7 35  1  0
  8 36  1  6
 11 37  1  0
 11 38  1  0
 12 39  1  0
 14 40  1  0
 14 41  1  0
 16 42  1  0
 18 43  1  0
 19 44  1  0
 20 45  1  0
 20 46  1  0
 21 47  1  0
 21 48  1  0
 24 49  1  0
M  END
>  <mol_id>  (51) 
2026-09-18-6fnk-s0-n100-0051

>  <rmsd_to_ref>  (51) 


$$$$

     RDKit          3D

 56 58  0  0  0  0  0  0  0  0999 V2000
    2.9678   20.5105   38.0457 C   0  0  0  0  0  0  0  0  0  0  0  0
    3.4043   20.2778   42.1568 C   0  0  0  0  0  0  0  0  0  0  0  0
   -0.3638   14.9573   38.2531 C   0  0  0  0  0  0  0  0  0  0  0  0
    2.0130   25.6368   32.3450 C   0  0  0  0  0  0  0  0  0  0  0  0
    2.3430   19.5356   38.7711 C   0  0  0  0  0  0  0  0  0  0  0  0
    2.8032   24.7032   32.8611 C   0  0  0  0  0  0  0  0  0  0  0  0
    5.1939   22.0645   40.4766 C   0  0  0  0  0  0  0  0  0  0  0  0
    1.7070   18.2921   38.1453 C   0  0  0  0  0  0  0  0  0  0  0  0
    1.9414   15.9218   38.6733 C   0  0  0  0  0  0  0  0  0  0  0  0
   -0.7509   15.9933   37.2436 C   0  0  0  0  0  0  0  0  0  0  0  0
    1.7706   15.4146   37.3791 C   0  0  0  0  0  0  0  0  0  0  0  0
    4.7121   20.7197   42.7186 C   0  0  0  0  0  0  0  0  0  0  0  0
    4.1105   21.2476   39.9250 C   0  0  0  0  0  0  0  0  0  0  0  0
    0.8766   26.1188   32.8041 C   0  0  0  0  0  0  0  0  0  0  0  0
    0.3634   25.7443   33.9379 C   0  0  0  0  0  0  0  0  0  0  0  0
    2.6177   17.1602   38.6769 N   0  0  0  0  0  0  0  0  0  0  0  0
    3.8865   21.2440   38.5967 C   0  0  0  0  0  0  0  0  0  0  0  0
    1.6826   23.8869   34.6009 C   0  0  0  0  0  0  0  0  0  0  0  0
    3.2969   20.4229   40.7075 C   0  0  0  0  0  0  0  0  0  0  0  0
    5.2360   21.9837   42.0276 C   0  0  0  0  0  0  0  0  0  0  0  0
    2.5368   19.4947   40.0946 C   0  0  0  0  0  0  0  0  0  0  0  0
    2.5958   23.9881   33.7467 C   0  0  0  0  0  0  0  0  0  0  0  0
    0.6183   24.7872   34.7408 C   0  0  0  0  0  0  0  0  0  0  0  0
    0.4539   15.2449   36.8312 C   0  0  0  0  0  0  0  0  0  0  0  0
    2.6921   20.6740   36.9934 H   0  0  0  0  0  0  0  0  0  0  0  0
    3.2611   19.2167   42.4089 H   0  0  0  0  0  0  0  0  0  0  0  0
    2.6344   20.9277   42.5980 H   0  0  0  0  0  0  0  0  0  0  0  0
    0.0705   15.2495   39.2206 H   0  0  0  0  0  0  0  0  0  0  0  0
   -0.8410   14.0976   38.7464 H   0  0  0  0  0  0  0  0  0  0  0  0
    2.3578   26.0713   31.3952 H   0  0  0  0  0  0  0  0  0  0  0  0
    3.0285   24.0360   32.0161 H   0  0  0  0  0  0  0  0  0  0  0  0
    3.5269   25.3656   33.3586 H   0  0  0  0  0  0  0  0  0  0  0  0
    5.0397   23.1117   40.1775 H   0  0  0  0  0  0  0  0  0  0  0  0
    6.1479   21.6815   40.0854 H   0  0  0  0  0  0  0  0  0  0  0  0
    0.6686   18.1613   38.4839 H   0  0  0  0  0  0  0  0  0  0  0  0
    1.6446   18.3315   37.0478 H   0  0  0  0  0  0  0  0  0  0  0  0
    0.9517   16.0576   39.1338 H   0  0  0  0  0  0  0  0  0  0  0  0
    2.5518   15.2027   39.2393 H   0  0  0  0  0  0  0  0  0  0  0  0
   -1.6802   15.8503   36.6727 H   0  0  0  0  0  0  0  0  0  0  0  0
   -0.9373   17.0726   37.3443 H   0  0  0  0  0  0  0  0  0  0  0  0
    2.3092   16.0929   36.7010 H   0  0  0  0  0  0  0  0  0  0  0  0
    2.1370   14.3812   37.4678 H   0  0  0  0  0  0  0  0  0  0  0  0
    4.5857   20.9277   43.7913 H   0  0  0  0  0  0  0  0  0  0  0  0
    5.4427   19.9142   42.5530 H   0  0  0  0  0  0  0  0  0  0  0  0
    0.3402   26.8684   32.2038 H   0  0  0  0  0  0  0  0  0  0  0  0
   -0.4632   26.3870   34.2751 H   0  0  0  0  0  0  0  0  0  0  0  0
    3.4521   17.0899   38.0771 H   0  0  0  0  0  0  0  0  0  0  0  0
    2.8868   17.3839   39.6456 H   0  0  0  0  0  0  0  0  0  0  0  0
    4.5058   21.8871   37.9542 H   0  0  0  0  0  0  0  0  0  0  0  0
    1.7201   23.0298   35.2894 H   0  0  0  0  0  0  0  0  0  0  0  0
    6.2872   22.1038   42.3285 H   0  0  0  0  0  0  0  0  0  0  0  0
    4.5398   22.7709   42.3527 H   0  0  0  0  0  0  0  0  0  0  0  0
    2.0706   18.6947   40.6883 H   0  0  0  0  0  0  0  0  0  0  0  0
    3.3770   23.2231   33.8670 H   0  0  0  0  0  0  0  0  0  0  0  0
   -0.0467   24.6589   35.6076 H   0  0  0  0  0  0  0  0  0  0  0  0
    0.7174   14.9393   35.8079 H   0  0  0  0  0  0  0  0  0  0  0  0
  1 17  2  0
  1  5  1  0
  2 12  1  0
  4 14  2  0
  4  6  1  0
  5 21  2  0
  6 22  1  0
  7 20  1  0
  8  5  1  0
  8 16  1  0
 10  3  1  0
 11  9  1  0
 13  7  1  0
 13 19  2  0
 14 15  1  0
 15 23  2  0
 16  9  1  0
 17 13  1  0
 18 23  1  0
 19  2  1  0
 20 12  1  0
 21 19  1  0
 22 18  2  0
 24 10  1  0
 24 11  1  0
 24  3  1  0
  1 25  1  0
  2 26  1  0
  2 27  1  0
  3 28  1  0
  3 29  1  0
  4 30  1  0
  6 31  1  0
  6 32  1  0
  7 33  1  0
  7 34  1  0
  8 35  1  0
  8 36  1  0
  9 37  1  0
  9 38  1  0
 10 39  1  0
 10 40  1  0
 11 41  1  0
 11 42  1  0
 12 43  1  0
 12 44  1  0
 14 45  1  0
 15 46  1  0
 16 47  1  0
 16 48  1  0
 17 49  1  0
 18 50  1  0
 20 51  1  0
 20 52  1  0
 21 53  1  0
 22 54  1  0
 23 55  1  0
 24 56  1  0
M  CHG  1  16   1
M  END
>  <mol_id>  (52) 
2026-09-18-6fnk-s0-n100-0052

>  <rmsd_to_ref>  (52) 


$$$$

     RDKit          3D

 47 48  0  0  0  0  0  0  0  0999 V2000
   -2.8320   14.4069   39.6298 O   0  0  0  0  0  0  0  0  0  0  0  0
    5.9989   21.2056   40.7613 O   0  0  0  0  0  0  0  0  0  0  0  0
    4.1761   25.7750   35.5594 C   0  0  0  0  0  0  0  0  0  0  0  0
    2.8597   22.0640   39.0375 C   0  0  0  0  0  0  0  0  0  0  0  0
    2.3218   27.2439   35.2583 O   0  0  0  0  0  0  0  0  0  0  0  0
    3.7739   21.4858   39.9877 C   0  0  0  0  0  0  0  0  0  0  0  0
   -0.2960   13.7544   36.0740 C   0  0  0  0  0  0  0  0  0  0  0  0
    0.5278   15.0223   36.1850 C   0  0  0  0  0  0  0  0  0  0  0  0
    5.2119   21.6180   39.7247 C   0  0  0  0  0  0  0  0  0  0  0  0
    4.8993   23.0582   37.7656 C   0  0  0  0  0  0  0  0  0  0  0  0
   -1.9890   15.8990   37.7976 C   0  0  0  0  0  0  0  0  0  0  0  0
   -0.3999   16.5706   38.0470 C   0  0  0  0  0  0  0  0  0  0  0  0
    3.3961   22.8803   37.9535 C   0  0  0  0  0  0  0  0  0  0  0  0
    0.1979   17.2646   38.4401 C   0  0  0  0  0  0  0  0  0  0  0  0
    0.2417   16.2088   36.7283 N   0  0  0  0  0  0  0  0  0  0  0  0
   -1.9642   14.3626   38.3470 S   0  0  1  0  0  4  0  0  0  0  0  0
   -3.1098   16.3605   37.9472 F   0  0  0  0  0  0  0  0  0  0  0  0
    3.0170   26.1045   33.6897 O   0  0  0  0  0  0  0  0  0  0  0  0
    3.9817   25.0932   36.5164 C   0  0  0  0  0  0  0  0  0  0  0  0
   -1.1594   13.2977   38.3193 O   0  0  0  0  0  0  0  0  0  0  0  0
    4.8185   20.8089   42.1450 S   0  0  0  0  0  0  0  0  0  0  0  0
   -1.3803   13.7949   36.9575 C   0  0  2  0  0  0  0  0  0  0  0  0
    0.9388   17.0184   37.1277 C   0  0  0  0  0  0  0  0  0  0  0  0
    3.0012   26.4822   34.8874 C   0  0  0  0  0  0  0  0  0  0  0  0
    5.7674   22.2962   38.6649 C   0  0  0  0  0  0  0  0  0  0  0  0
    3.3787   20.7925   41.0277 O   0  0  0  0  0  0  0  0  0  0  0  0
   -2.2560   14.2679   40.4229 H   0  0  0  0  0  0  0  0  0  0  0  0
    5.1950   25.8944   35.1623 H   0  0  0  0  0  0  0  0  0  0  0  0
    1.7767   21.8934   39.1271 H   0  0  0  0  0  0  0  0  0  0  0  0
   -0.6714   13.6558   35.0447 H   0  0  0  0  0  0  0  0  0  0  0  0
    0.3395   12.8939   36.3302 H   0  0  0  0  0  0  0  0  0  0  0  0
    1.4353   14.7009   36.7173 H   0  0  0  0  0  0  0  0  0  0  0  0
    0.4411   15.3316   35.1329 H   0  0  0  0  0  0  0  0  0  0  0  0
    5.3103   23.7252   36.9935 H   0  0  0  0  0  0  0  0  0  0  0  0
   -1.7249   15.9123   36.7299 H   0  0  0  0  0  0  0  0  0  0  0  0
   -1.2619   16.5043   38.3589 H   0  0  0  0  0  0  0  0  0  0  0  0
   -0.4565   15.6906   38.7045 H   0  0  0  0  0  0  0  0  0  0  0  0
   -1.4305   16.9341   37.9209 H   0  0  0  0  0  0  0  0  0  0  0  0
    2.7031   23.3770   37.2585 H   0  0  0  0  0  0  0  0  0  0  0  0
   -0.2409   18.2651   38.5675 H   0  0  0  0  0  0  0  0  0  0  0  0
    0.6500   17.2185   39.4418 H   0  0  0  0  0  0  0  0  0  0  0  0
    4.8224   24.5803   37.0063 H   0  0  0  0  0  0  0  0  0  0  0  0
    2.9613   24.9763   36.9103 H   0  0  0  0  0  0  0  0  0  0  0  0
   -1.8606   13.8080   35.9680 H   0  0  0  0  0  0  0  0  0  0  0  0
    1.9641   16.6520   37.2846 H   0  0  0  0  0  0  0  0  0  0  0  0
    1.1018   17.8931   36.4809 H   0  0  0  0  0  0  0  0  0  0  0  0
    6.8537   22.2662   38.4947 H   0  0  0  0  0  0  0  0  0  0  0  0
  2 21  1  0
  3 19  2  3
  4  6  2  0
  6 26  1  0
  7  8  1  0
  8 15  1  0
  9  6  1  0
  9  2  1  0
 10 13  2  0
 10 25  1  0
 11 17  1  0
 11 16  1  0
 12 14  1  0
 13  4  1  0
 15 23  1  0
 15 12  1  0
 16 20  1  0
 16  1  1  0
 18 24  2  0
 22  7  1  0
 22 16  1  0
 22 20  1  0
 23 14  1  0
 24  5  1  0
 24  3  1  0
 25  9  2  0
 26 21  1  0
  1 27  1  0
  3 28  1  0
  4 29  1  0
  7 30  1  0
  7 31  1  0
  8 32  1  0
  8 33  1  0
 10 34  1  0
 11 35  1  0
 11 36  1  0
 12 37  1  0
 12 38  1  0
 13 39  1  0
 14 40  1  0
 14 41  1  0
 19 42  1  0
 19 43  1  0
 22 44  1  6
 23 45  1  0
 23 46  1  0
 25 47  1  0
M  CHG  1   5  -1
M  END
>  <mol_id>  (53) 
2026-09-18-6fnk-s0-n100-0053

>  <rmsd_to_ref>  (53) 


$$$$

     RDKit          3D

 64 63  0  0  0  0  0  0  0  0999 V2000
    3.2780   20.3300   41.9640 C   0  0  0  0  0  0  0  0  0  0  0  0
    3.6040   21.1650   39.4810 C   0  0  0  0  0  0  0  0  0  0  0  0
    2.5670   24.1670   34.2410 C   0  0  0  0  0  0  0  0  0  0  0  0
    3.2300   17.4630   37.2890 O   0  0  0  0  0  0  0  0  0  0  0  0
    3.1360   15.6280   35.9430 O   0  0  0  0  0  0  0  0  0  0  0  0
    1.4860   13.8030   35.8090 C   0  0  0  0  0  0  0  0  0  0  0  0
    2.2120   15.5780   36.8610 C   0  0  2  0  0  0  0  0  0  0  0  0
    0.7610   25.8600   31.2720 C   0  0  0  0  0  0  0  0  0  0  0  0
    4.3750   22.7970   37.3640 C   0  0  0  0  0  0  0  0  0  0  0  0
   -0.5560   15.0550   39.6430 C   0  0  0  0  0  0  0  0  0  0  0  0
    3.1130   22.2030   37.2930 C   0  0  0  0  0  0  0  0  0  0  0  0
    2.7630   26.6100   32.4000 C   0  0  0  0  0  0  0  0  0  0  0  0
    1.0210   14.9240   36.3710 C   0  0  0  0  0  0  0  0  0  0  0  0
    2.0700   20.0750   38.2490 O   0  0  0  0  0  0  0  0  0  0  0  0
    1.7770   25.7580   32.4280 C   0  0  0  0  0  0  0  0  0  0  0  0
    1.6040   24.9240   33.5500 N   0  0  0  0  0  0  0  0  0  0  0  0
    4.9120   21.7860   39.5040 C   0  0  0  0  0  0  0  0  0  0  0  0
    5.2660   22.5860   38.3930 C   0  0  0  0  0  0  0  0  0  0  0  0
    4.0240   24.5290   34.1670 C   0  0  0  0  0  0  0  0  0  0  0  0
    1.0800   17.0660   39.6720 C   0  0  0  0  0  0  0  0  0  0  0  0
    2.2310   16.9930   37.4320 C   0  0  0  0  0  0  0  0  0  0  0  0
    1.0110   17.4440   38.2360 C   0  0  0  0  0  0  0  0  0  0  0  0
    0.3890   15.9230   40.0270 C   0  0  0  0  0  0  0  0  0  0  0  0
    2.3700   23.1590   35.1100 C   0  0  0  0  0  0  0  0  0  0  0  0
    2.8920   21.1780   38.2870 C   0  0  0  0  0  0  0  0  0  0  0  0
   -1.5120   14.1920   40.1390 C   0  0  0  0  0  0  0  0  0  0  0  0
    2.1930   22.4880   36.2120 C   0  0  0  0  0  0  0  0  0  0  0  0
    3.1430   20.5130   40.5920 O   0  0  0  0  0  0  0  0  0  0  0  0
    2.7062   21.1051   42.4953 H   0  0  0  0  0  0  0  0  0  0  0  0
    2.8945   19.3369   42.2409 H   0  0  0  0  0  0  0  0  0  0  0  0
    4.3400   20.4033   42.2409 H   0  0  0  0  0  0  0  0  0  0  0  0
    4.0263   15.6762   36.3732 H   0  0  0  0  0  0  0  0  0  0  0  0
    1.7805   13.0931   36.5960 H   0  0  0  0  0  0  0  0  0  0  0  0
    0.7004   13.3528   35.1844 H   0  0  0  0  0  0  0  0  0  0  0  0
    2.3596   14.0411   35.1844 H   0  0  0  0  0  0  0  0  0  0  0  0
    2.3457   14.9139   37.7277 H   0  0  0  0  0  0  0  0  0  0  0  0
   -0.2539   25.9619   31.6838 H   0  0  0  0  0  0  0  0  0  0  0  0
    0.9959   26.7391   30.6539 H   0  0  0  0  0  0  0  0  0  0  0  0
    0.8164   24.9518   30.6539 H   0  0  0  0  0  0  0  0  0  0  0  0
    4.6752   23.4733   36.5501 H   0  0  0  0  0  0  0  0  0  0  0  0
   -1.1736   15.6963   38.9971 H   0  0  0  0  0  0  0  0  0  0  0  0
    0.1805   14.2418   39.5639 H   0  0  0  0  0  0  0  0  0  0  0  0
    3.5254   26.5952   33.1928 H   0  0  0  0  0  0  0  0  0  0  0  0
    2.8327   27.3439   31.5836 H   0  0  0  0  0  0  0  0  0  0  0  0
    0.5059   15.5511   35.6284 H   0  0  0  0  0  0  0  0  0  0  0  0
    0.2831   14.7304   37.1635 H   0  0  0  0  0  0  0  0  0  0  0  0
    2.0312   19.4597   39.0236 H   0  0  0  0  0  0  0  0  0  0  0  0
    1.1974   25.5402   34.2682 H   0  0  0  0  0  0  0  0  0  0  0  0
    1.1128   24.1482   33.0834 H   0  0  0  0  0  0  0  0  0  0  0  0
    5.6007   21.6416   40.3495 H   0  0  0  0  0  0  0  0  0  0  0  0
    6.2646   23.0452   38.3500 H   0  0  0  0  0  0  0  0  0  0  0  0
    4.4290   24.6296   35.1848 H   0  0  0  0  0  0  0  0  0  0  0  0
    4.5712   23.7395   33.6310 H   0  0  0  0  0  0  0  0  0  0  0  0
    4.1381   25.4828   33.6310 H   0  0  0  0  0  0  0  0  0  0  0  0
    0.6747   17.9020   40.2609 H   0  0  0  0  0  0  0  0  0  0  0  0
    2.1395   16.8492   39.8732 H   0  0  0  0  0  0  0  0  0  0  0  0
    0.9326   18.5390   38.1667 H   0  0  0  0  0  0  0  0  0  0  0  0
    0.1335   16.9374   37.8078 H   0  0  0  0  0  0  0  0  0  0  0  0
   -0.0220   16.2393   40.9971 H   0  0  0  0  0  0  0  0  0  0  0  0
    1.1688   15.2949   39.5716 H   0  0  0  0  0  0  0  0  0  0  0  0
   -1.4893   14.2125   41.2386 H   0  0  0  0  0  0  0  0  0  0  0  0
   -2.5062   14.5045   39.7869 H   0  0  0  0  0  0  0  0  0  0  0  0
   -1.3025   13.1712   39.7869 H   0  0  0  0  0  0  0  0  0  0  0  0
    1.1834   22.0713   36.3423 H   0  0  0  0  0  0  0  0  0  0  0  0
  2 17  1  0
  2 28  1  0
  3 24  2  0
  4 21  2  0
  6 13  1  0
  7  5  1  0
  7 21  1  0
  8 15  1  0
  9 18  1  0
 10 23  1  0
 10 26  1  0
 11  9  2  0
 11 25  1  0
 12 15  2  3
 13  7  1  0
 14 25  1  0
 15 16  1  0
 16  3  1  0
 18 17  2  0
 19  3  1  0
 20 23  1  0
 21 22  1  0
 22 20  1  0
 24 27  2  0
 25  2  2  0
 27 11  1  0
 28  1  1  0
  1 29  1  0
  1 30  1  0
  1 31  1  0
  5 32  1  0
  6 33  1  0
  6 34  1  0
  6 35  1  0
  7 36  1  1
  8 37  1  0
  8 38  1  0
  8 39  1  0
  9 40  1  0
 10 41  1  0
 10 42  1  0
 12 43  1  0
 12 44  1  0
 13 45  1  0
 13 46  1  0
 14 47  1  0
 16 48  1  0
 16 49  1  0
 17 50  1  0
 18 51  1  0
 19 52  1  0
 19 53  1  0
 19 54  1  0
 20 55  1  0
 20 56  1  0
 22 57  1  0
 22 58  1  0
 23 59  1  0
 23 60  1  0
 26 61  1  0
 26 62  1  0
 26 63  1  0
 27 64  1  0
M  CHG  1  16   1
M  END
>  <mol_id>  (54) 
2026-09-18-6fnk-s0-n100-0054

>  <rmsd_to_ref>  (54) 


$$$$

     RDKit          3D

 57 60  0  0  0  0  0  0  0  0999 V2000
    1.9499   14.1483   37.3172 C   0  0  0  0  0  0  0  0  0  0  0  0
    1.0684   24.0066   34.4423 C   0  0  0  0  0  0  0  0  0  0  0  0
    2.4189   21.2271   37.9600 C   0  0  0  0  0  0  0  0  0  0  0  0
    1.3993   13.9600   39.8011 C   0  0  0  0  0  0  0  0  0  0  0  0
    1.2280   21.6316   37.3983 C   0  0  0  0  0  0  0  0  0  0  0  0
    2.1651   18.7851   38.4992 C   0  0  0  0  0  0  0  0  0  0  0  0
    0.9388   15.4512   39.5658 C   0  0  0  0  0  0  0  0  0  0  0  0
    2.6205   17.5099   39.3750 C   0  0  0  0  0  0  0  0  0  0  0  0
    1.7135   11.8442   38.5043 C   0  0  0  0  0  0  0  0  0  0  0  0
    1.3500   13.2644   38.4482 N   0  0  0  0  0  0  0  0  0  0  0  0
    1.2235   21.9207   35.9643 C   0  0  0  0  0  0  0  0  0  0  0  0
    2.8596   17.9678   40.7976 C   0  0  0  0  0  0  0  0  0  0  0  0
    2.7265   24.4785   33.5003 S   0  0  0  0  0  0  0  0  0  0  0  0
    1.0172   23.1596   35.4684 N   0  0  0  0  0  0  0  0  0  0  0  0
    3.4885   20.3499   40.0876 C   0  0  0  0  0  0  0  0  0  0  0  0
    2.4577   27.0696   31.3299 C   0  0  0  0  0  0  0  0  0  0  0  0
    2.6216   20.0842   38.8684 C   0  0  0  0  0  0  0  0  0  0  0  0
    3.4774   19.1532   41.0313 C   0  0  0  0  0  0  0  0  0  0  0  0
    2.0501   27.0575   32.7713 C   0  0  1  0  0  0  0  0  0  0  0  0
    0.0697   24.8673   33.8955 C   0  0  0  0  0  0  0  0  0  0  0  0
    0.8017   26.7106   33.3544 C   0  0  0  0  0  0  0  0  0  0  0  0
    2.5805   15.4869   37.7275 C   0  0  0  0  0  0  0  0  0  0  0  0
    2.1515   16.0418   39.0451 N   0  0  0  0  0  0  0  0  0  0  0  0
    0.1510   25.6504   32.6908 C   0  0  0  0  0  0  0  0  0  0  0  0
    4.3234   21.5805   40.2270 C   0  0  0  0  0  0  0  0  0  0  0  0
    2.7702   25.8020   32.2343 C   0  0  1  0  0  0  0  0  0  0  0  0
    1.1404   14.3689   36.6060 H   0  0  0  0  0  0  0  0  0  0  0  0
    2.7834   13.5572   36.9096 H   0  0  0  0  0  0  0  0  0  0  0  0
    2.7822   22.1025   38.5183 H   0  0  0  0  0  0  0  0  0  0  0  0
    2.9165   20.8330   37.0617 H   0  0  0  0  0  0  0  0  0  0  0  0
    2.4241   13.9389   40.2003 H   0  0  0  0  0  0  0  0  0  0  0  0
    0.7453   13.4555   40.5276 H   0  0  0  0  0  0  0  0  0  0  0  0
    0.4916   20.8342   37.5763 H   0  0  0  0  0  0  0  0  0  0  0  0
    1.0029   22.5946   37.8798 H   0  0  0  0  0  0  0  0  0  0  0  0
    1.5090   18.6539   37.6260 H   0  0  0  0  0  0  0  0  0  0  0  0
    0.1172   15.5089   38.8366 H   0  0  0  0  0  0  0  0  0  0  0  0
    0.5445   15.9486   40.4641 H   0  0  0  0  0  0  0  0  0  0  0  0
    1.6060   11.4787   39.5362 H   0  0  0  0  0  0  0  0  0  0  0  0
    1.0505   11.2695   37.8408 H   0  0  0  0  0  0  0  0  0  0  0  0
    2.7565   11.7195   38.1779 H   0  0  0  0  0  0  0  0  0  0  0  0
    1.3954   21.0935   35.2599 H   0  0  0  0  0  0  0  0  0  0  0  0
    2.5331   17.3409   41.6405 H   0  0  0  0  0  0  0  0  0  0  0  0
    1.6932   27.0079   30.5415 H   0  0  0  0  0  0  0  0  0  0  0  0
    3.0567   27.7402   30.6962 H   0  0  0  0  0  0  0  0  0  0  0  0
    4.0168   19.2595   41.9841 H   0  0  0  0  0  0  0  0  0  0  0  0
    2.1610   27.8883   33.4837 H   0  0  0  0  0  0  0  0  0  0  0  0
   -0.8713   24.9406   34.4605 H   0  0  0  0  0  0  0  0  0  0  0  0
    0.9749   26.4143   34.3995 H   0  0  0  0  0  0  0  0  0  0  0  0
    0.1494   27.5929   33.2761 H   0  0  0  0  0  0  0  0  0  0  0  0
    3.6711   15.3476   37.7613 H   0  0  0  0  0  0  0  0  0  0  0  0
    2.2397   16.2150   36.9767 H   0  0  0  0  0  0  0  0  0  0  0  0
   -0.8308   25.9262   32.2785 H   0  0  0  0  0  0  0  0  0  0  0  0
    0.6180   25.2111   31.7970 H   0  0  0  0  0  0  0  0  0  0  0  0
    4.3767   21.8693   41.2871 H   0  0  0  0  0  0  0  0  0  0  0  0
    5.3372   21.3804   39.8500 H   0  0  0  0  0  0  0  0  0  0  0  0
    3.8711   22.3982   39.6466 H   0  0  0  0  0  0  0  0  0  0  0  0
    3.3909   24.9989   31.8102 H   0  0  0  0  0  0  0  0  0  0  0  0
  1 22  1  0
  1 10  1  0
  2 14  1  0
  3 17  1  0
  5  3  1  0
  6 17  1  0
  6  8  2  0
  7  4  1  0
  8 12  1  0
 10  9  1  0
 10  4  1  0
 11  5  1  0
 12 18  2  0
 13  2  1  0
 14 11  2  3
 15 18  1  0
 17 15  2  0
 19 16  1  0
 19 21  1  0
 20  2  2  0
 22 23  1  0
 23  8  1  0
 23  7  1  0
 24 21  1  0
 24 20  1  0
 25 15  1  0
 26 16  1  0
 26 19  1  0
 26 13  1  0
  1 27  1  0
  1 28  1  0
  3 29  1  0
  3 30  1  0
  4 31  1  0
  4 32  1  0
  5 33  1  0
  5 34  1  0
  6 35  1  0
  7 36  1  0
  7 37  1  0
  9 38  1  0
  9 39  1  0
  9 40  1  0
 11 41  1  0
 12 42  1  0
 16 43  1  0
 16 44  1  0
 18 45  1  0
 19 46  1  1
 20 47  1  0
 21 48  1  0
 21 49  1  0
 22 50  1  0
 22 51  1  0
 24 52  1  0
 24 53  1  0
 25 54  1  0
 25 55  1  0
 25 56  1  0
 26 57  1  1
M  END
>  <mol_id>  (55) 
2026-09-18-6fnk-s0-n100-0055

>  <rmsd_to_ref>  (55) 


$$$$

     RDKit          3D

 94 96  0  0  0  0  0  0  0  0999 V2000
    5.7712   18.7932   42.5776 C   0  0  0  0  0  0  0  0  0  0  0  0
   -1.8862   12.7984   38.9415 N   0  0  0  0  0  0  0  0  0  0  0  0
   -2.6164   11.5334   39.7508 S   0  0  0  0  0  4  0  0  0  0  0  0
   -0.0493   25.2705   31.5323 F   0  0  0  0  0  0  0  0  0  0  0  0
    4.5030   20.6355   38.5706 C   0  0  2  0  0  0  0  0  0  0  0  0
    4.2642   24.4976   31.9360 C   0  0  0  0  0  0  0  0  0  0  0  0
   -3.9873   11.1342   40.3434 O   0  0  0  0  0  0  0  0  0  0  0  0
    3.0757   18.4325   36.7959 O   0  0  0  0  0  0  0  0  0  0  0  0
    0.2344   27.0801   29.9939 F   0  0  0  0  0  0  0  0  0  0  0  0
   -1.8642   11.6584   41.0703 O   0  0  0  0  0  0  0  0  0  0  0  0
    0.7433   27.6827   32.4465 C   0  0  0  0  0  0  0  0  0  0  0  0
    0.8102   16.2119   37.1158 C   0  0  0  0  0  0  0  0  0  0  0  0
   -1.7516   13.9994   39.1264 C   0  0  0  0  0  0  0  0  0  0  0  0
   -2.6088   10.2708   39.2231 O   0  0  0  0  0  0  0  0  0  0  0  0
    7.8362   20.7627   37.2462 C   0  0  0  0  0  0  0  0  0  0  0  0
   -0.4666   14.7127   38.6824 C   0  0  1  0  0  0  0  0  0  0  0  0
   -1.3034   29.7832   31.6178 C   0  0  0  0  0  0  0  0  0  0  0  0
    1.8816   26.4571   31.8678 O   0  0  0  0  0  0  0  0  0  0  0  0
    4.6494   18.4940   41.7354 C   0  0  0  0  0  0  0  0  0  0  0  0
    1.7086   16.4704   38.2535 N   0  0  0  0  0  0  0  0  0  0  0  0
    2.5731   18.8908   37.9290 C   0  0  2  0  0  0  0  0  0  0  0  0
   -1.6219   28.7055   31.6905 C   0  0  0  0  0  0  0  0  0  0  0  0
    3.3825   19.6638   38.9033 N   0  0  0  0  0  0  0  0  0  0  0  0
    4.1730   21.1962   37.1281 C   0  0  0  0  0  0  0  0  0  0  0  0
   -0.5058   15.6569   37.4877 C   0  0  0  0  0  0  0  0  0  0  0  0
    0.4055   14.8492   39.5549 O   0  0  0  0  0  0  0  0  0  0  0  0
    3.3953   24.4534   31.8188 C   0  0  1  0  0  0  0  0  0  0  0  0
    1.6103   15.8159   36.2070 O   0  0  0  0  0  0  0  0  0  0  0  0
    5.8977   20.1264   38.6646 C   0  0  0  0  0  0  0  0  0  0  0  0
    6.1589   22.5520   37.9319 C   0  0  0  0  0  0  0  0  0  0  0  0
    3.4287   25.4134   32.9267 C   0  0  0  0  0  0  0  0  0  0  0  0
    2.8328   19.6873   40.3132 C   0  0  2  0  0  0  0  0  0  0  0  0
    2.5071   25.8655   32.0050 C   0  0  2  0  0  0  0  0  0  0  0  0
    6.8085   21.3136   38.3451 C   0  0  2  0  0  0  0  0  0  0  0  0
    2.5668   25.8709   31.0693 C   0  0  0  0  0  0  0  0  0  0  0  0
    5.0988   22.3116   36.8671 C   0  0  0  0  0  0  0  0  0  0  0  0
    1.6424   15.0289   39.1458 C   0  0  0  0  0  0  0  0  0  0  0  0
   -0.7137   27.4585   32.0984 C   0  0  1  0  0  0  0  0  0  0  0  0
    2.1811   17.5884   38.8552 C   0  0  1  0  0  0  0  0  0  0  0  0
    3.9340   19.7665   41.3537 C   0  0  0  0  0  0  0  0  0  0  0  0
   -2.8056   28.2252   31.1128 O   0  0  0  0  0  0  0  0  0  0  0  0
    1.7369   18.0794   40.5438 S   0  0  0  0  0  0  0  0  0  0  0  0
   -0.4267   26.3316   30.8733 C   0  0  0  0  0  0  0  0  0  0  0  0
    5.4949   18.6266   43.6292 H   0  0  0  0  0  0  0  0  0  0  0  0
    6.6142   18.1385   42.3118 H   0  0  0  0  0  0  0  0  0  0  0  0
    6.0649   19.8440   42.4377 H   0  0  0  0  0  0  0  0  0  0  0  0
   -2.3414   12.7647   38.0182 H   0  0  0  0  0  0  0  0  0  0  0  0
    4.5131   21.4118   39.3498 H   0  0  0  0  0  0  0  0  0  0  0  0
    4.4920   24.4523   33.0112 H   0  0  0  0  0  0  0  0  0  0  0  0
    4.7468   23.6525   31.4231 H   0  0  0  0  0  0  0  0  0  0  0  0
    4.6426   25.4432   31.5206 H   0  0  0  0  0  0  0  0  0  0  0  0
   -3.9184   11.0839   41.3298 H   0  0  0  0  0  0  0  0  0  0  0  0
    3.8056   17.7933   36.9933 H   0  0  0  0  0  0  0  0  0  0  0  0
   -2.4700   11.4282   41.8186 H   0  0  0  0  0  0  0  0  0  0  0  0
    0.8708   27.6360   33.5380 H   0  0  0  0  0  0  0  0  0  0  0  0
    1.3577   26.9035   31.9718 H   0  0  0  0  0  0  0  0  0  0  0  0
    1.0593   28.6714   32.0824 H   0  0  0  0  0  0  0  0  0  0  0  0
   -2.5842   14.4946   38.6052 H   0  0  0  0  0  0  0  0  0  0  0  0
   -1.7157   14.0804   40.2228 H   0  0  0  0  0  0  0  0  0  0  0  0
   -2.5326    9.6079   39.9545 H   0  0  0  0  0  0  0  0  0  0  0  0
    8.6923   20.2895   37.7493 H   0  0  0  0  0  0  0  0  0  0  0  0
    7.3300   20.0222   36.6095 H   0  0  0  0  0  0  0  0  0  0  0  0
    8.1918   21.5982   36.6253 H   0  0  0  0  0  0  0  0  0  0  0  0
    0.0054   13.9307   38.0694 H   0  0  0  0  0  0  0  0  0  0  0  0
   -2.0317   30.5533   31.3234 H   0  0  0  0  0  0  0  0  0  0  0  0
   -0.2641   30.0658   31.8411 H   0  0  0  0  0  0  0  0  0  0  0  0
    5.0027   17.9881   40.8248 H   0  0  0  0  0  0  0  0  0  0  0  0
    3.9537   17.8396   42.2811 H   0  0  0  0  0  0  0  0  0  0  0  0
    1.8111   19.5751   37.5277 H   0  0  0  0  0  0  0  0  0  0  0  0
    4.3148   20.4060   36.3760 H   0  0  0  0  0  0  0  0  0  0  0  0
    3.1286   21.5371   37.0733 H   0  0  0  0  0  0  0  0  0  0  0  0
   -1.1775   16.4935   37.7304 H   0  0  0  0  0  0  0  0  0  0  0  0
   -0.8561   15.0669   36.6280 H   0  0  0  0  0  0  0  0  0  0  0  0
    3.1160   23.5600   31.2410 H   0  0  0  0  0  0  0  0  0  0  0  0
    6.0996   19.7532   39.6795 H   0  0  0  0  0  0  0  0  0  0  0  0
    6.0675   19.2923   37.9679 H   0  0  0  0  0  0  0  0  0  0  0  0
    5.6825   23.0133   38.8096 H   0  0  0  0  0  0  0  0  0  0  0  0
    6.9273   23.2122   37.5034 H   0  0  0  0  0  0  0  0  0  0  0  0
    3.0541   25.0803   33.9058 H   0  0  0  0  0  0  0  0  0  0  0  0
    4.2875   25.9380   33.3710 H   0  0  0  0  0  0  0  0  0  0  0  0
    2.2225   20.5905   40.4607 H   0  0  0  0  0  0  0  0  0  0  0  0
    7.2963   21.6441   39.2740 H   0  0  0  0  0  0  0  0  0  0  0  0
    3.3964   26.3614   30.5392 H   0  0  0  0  0  0  0  0  0  0  0  0
    2.4778   25.1932   30.2073 H   0  0  0  0  0  0  0  0  0  0  0  0
    5.6142   22.1078   35.9170 H   0  0  0  0  0  0  0  0  0  0  0  0
    4.4778   23.2194   36.8519 H   0  0  0  0  0  0  0  0  0  0  0  0
    1.9500   14.1848   38.5111 H   0  0  0  0  0  0  0  0  0  0  0  0
    2.3208   15.0883   40.0097 H   0  0  0  0  0  0  0  0  0  0  0  0
   -1.3489   27.1625   32.9463 H   0  0  0  0  0  0  0  0  0  0  0  0
    3.0824   16.9878   39.0479 H   0  0  0  0  0  0  0  0  0  0  0  0
    4.6932   20.4652   40.9722 H   0  0  0  0  0  0  0  0  0  0  0  0
    3.4164   20.0741   42.2743 H   0  0  0  0  0  0  0  0  0  0  0  0
   -3.0472   27.2693   31.2012 H   0  0  0  0  0  0  0  0  0  0  0  0
   -1.1503   25.8425   30.2045 H   0  0  0  0  0  0  0  0  0  0  0  0
  2 13  1  0
  2  3  1  0
  3  7  1  0
  3 10  1  0
  5 24  1  0
  5 29  1  0
  9 43  1  0
 12 25  1  0
 12 20  1  0
 14  3  1  0
 16 13  1  0
 16 26  1  0
 17 22  2  3
 33 18  1  1
 19  1  1  0
 20 37  1  0
 21  8  1  0
 21 39  1  0
 21 23  1  0
 22 38  1  0
 23  5  1  0
 23 32  1  0
 25 16  1  0
 27 33  1  0
 27  6  1  0
 27 31  1  0
 28 12  2  0
 30 34  1  0
 32 42  1  0
 32 40  1  0
 33 35  1  0
 33 31  1  0
 34 15  1  0
 34 29  1  0
 35 18  1  0
 36 24  1  0
 36 30  1  0
 37 26  1  0
 38 11  1  0
 39 20  1  0
 39 42  1  0
 40 19  1  0
 41 22  1  0
 43  4  1  0
 43 38  1  0
  1 44  1  0
  1 45  1  0
  1 46  1  0
  2 47  1  0
  5 48  1  1
  6 49  1  0
  6 50  1  0
  6 51  1  0
  7 52  1  0
  8 53  1  0
 10 54  1  0
 11 55  1  0
 11 56  1  0
 11 57  1  0
 13 58  1  0
 13 59  1  0
 14 60  1  0
 15 61  1  0
 15 62  1  0
 15 63  1  0
 16 64  1  6
 17 65  1  0
 17 66  1  0
 19 67  1  0
 19 68  1  0
 21 69  1  6
 24 70  1  0
 24 71  1  0
 25 72  1  0
 25 73  1  0
 27 74  1  1
 29 75  1  0
 29 76  1  0
 30 77  1  0
 30 78  1  0
 31 79  1  0
 31 80  1  0
 32 81  1  6
 34 82  1  1
 35 83  1  0
 35 84  1  0
 36 85  1  0
 36 86  1  0
 37 87  1  0
 37 88  1  0
 38 89  1  1
 39 90  1  1
 40 91  1  0
 40 92  1  0
 41 93  1  0
 43 94  1  0
M  END
>  <mol_id>  (56) 
2026-09-18-6fnk-s0-n100-0056

>  <rmsd_to_ref>  (56) 


$$$$

     RDKit          3D

 62 65  0  0  0  0  0  0  0  0999 V2000
   -1.8773   11.3423   42.7490 N   0  0  0  0  0  0  0  0  0  0  0  0
    1.3068   16.3277   38.7402 C   0  0  1  0  0  0  0  0  0  0  0  0
    2.1205   24.5685   33.4260 C   0  0  2  0  0  0  0  0  0  0  0  0
    2.5872   26.9106   34.1515 C   0  0  0  0  0  0  0  0  0  0  0  0
    2.9626   18.3899   38.5525 C   0  0  0  0  0  0  0  0  0  0  0  0
    1.0008   25.1767   34.2895 C   0  0  2  0  0  0  0  0  0  0  0  0
   -0.9790   11.7671   41.6644 C   0  0  0  0  0  0  0  0  0  0  0  0
   -0.7741   13.6496   40.3191 O   0  0  0  0  0  0  0  0  0  0  0  0
    2.5574   17.1339   38.9550 O   0  0  0  0  0  0  0  0  0  0  0  0
    0.6872   16.3923   37.5022 C   0  0  0  0  0  0  0  0  0  0  0  0
    3.2595   24.1666   34.3748 C   0  0  2  0  0  0  0  0  0  0  0  0
    0.9744   15.3852   39.7368 C   0  0  0  0  0  0  0  0  0  0  0  0
    2.8945   18.8780   37.2116 N   0  0  0  0  0  0  0  0  0  0  0  0
    1.0832   26.6774   34.0080 C   0  0  0  0  0  0  0  0  0  0  0  0
   -0.6180   15.8131   37.4730 C   0  0  0  0  0  0  0  0  0  0  0  0
    2.9798   24.2695   35.9442 C   0  0  0  0  0  0  0  0  0  0  0  0
    4.0433   20.3126   38.5960 N   0  0  0  0  0  0  0  0  0  0  0  0
   -0.2650   14.7326   39.5581 C   0  0  0  0  0  0  0  0  0  0  0  0
    3.6128   19.2905   39.2960 C   0  0  1  0  0  0  0  0  0  0  0  0
    3.3664   21.1912   36.4119 N   0  0  0  0  0  0  0  0  0  0  0  0
    1.4922   24.8049   35.8028 C   0  0  0  0  0  0  0  0  0  0  0  0
    3.9924   19.1598   40.7100 C   0  0  0  0  0  0  0  0  0  0  0  0
   -0.8821   13.1894   41.5635 C   0  0  0  0  0  0  0  0  0  0  0  0
    3.4580   20.1588   37.3635 C   0  0  2  0  0  0  0  0  0  0  0  0
   -1.2039   15.0974   38.4904 C   0  0  0  0  0  0  0  0  0  0  0  0
    3.1378   25.5459   33.9071 N   0  0  0  0  0  0  0  0  0  0  0  0
   -1.3435   11.2652   43.6265 H   0  0  0  0  0  0  0  0  0  0  0  0
   -2.6289   12.0370   42.8643 H   0  0  0  0  0  0  0  0  0  0  0  0
   -2.2885   10.4272   42.5157 H   0  0  0  0  0  0  0  0  0  0  0  0
    0.3807   16.8539   39.0148 H   0  0  0  0  0  0  0  0  0  0  0  0
    1.7026   24.0952   32.5253 H   0  0  0  0  0  0  0  0  0  0  0  0
    2.8416   27.2695   35.1598 H   0  0  0  0  0  0  0  0  0  0  0  0
    2.9840   27.6774   33.4699 H   0  0  0  0  0  0  0  0  0  0  0  0
   -0.0303   24.8348   34.1171 H   0  0  0  0  0  0  0  0  0  0  0  0
    0.0239   11.3573   41.8552 H   0  0  0  0  0  0  0  0  0  0  0  0
   -1.3944   11.3910   40.7178 H   0  0  0  0  0  0  0  0  0  0  0  0
    0.6023   17.4503   37.2132 H   0  0  0  0  0  0  0  0  0  0  0  0
    1.3085   15.8104   36.8055 H   0  0  0  0  0  0  0  0  0  0  0  0
    3.9397   23.3027   34.3444 H   0  0  0  0  0  0  0  0  0  0  0  0
    1.6336   15.1743   40.5918 H   0  0  0  0  0  0  0  0  0  0  0  0
    0.7303   26.9196   32.9947 H   0  0  0  0  0  0  0  0  0  0  0  0
    0.4597   27.3003   34.6663 H   0  0  0  0  0  0  0  0  0  0  0  0
   -1.3024   16.6519   37.2781 H   0  0  0  0  0  0  0  0  0  0  0  0
   -0.4503   15.0052   36.7455 H   0  0  0  0  0  0  0  0  0  0  0  0
    3.0359   23.2955   36.4521 H   0  0  0  0  0  0  0  0  0  0  0  0
    3.6786   24.8716   36.5434 H   0  0  0  0  0  0  0  0  0  0  0  0
    3.7501   21.1997   39.0296 H   0  0  0  0  0  0  0  0  0  0  0  0
    5.0712   20.3425   38.5396 H   0  0  0  0  0  0  0  0  0  0  0  0
    4.5593   18.7627   39.1075 H   0  0  0  0  0  0  0  0  0  0  0  0
    3.8112   22.0422   36.7848 H   0  0  0  0  0  0  0  0  0  0  0  0
    3.8459   20.9041   35.5467 H   0  0  0  0  0  0  0  0  0  0  0  0
    2.3753   21.3830   36.2078 H   0  0  0  0  0  0  0  0  0  0  0  0
    1.4023   25.7126   36.4175 H   0  0  0  0  0  0  0  0  0  0  0  0
    0.8480   23.9738   36.1259 H   0  0  0  0  0  0  0  0  0  0  0  0
    5.0508   18.8687   40.7801 H   0  0  0  0  0  0  0  0  0  0  0  0
    3.8422   20.1225   41.2205 H   0  0  0  0  0  0  0  0  0  0  0  0
    3.3681   18.3902   41.1876 H   0  0  0  0  0  0  0  0  0  0  0  0
    0.0046   13.5141   42.1277 H   0  0  0  0  0  0  0  0  0  0  0  0
   -1.8216   13.5958   41.9664 H   0  0  0  0  0  0  0  0  0  0  0  0
    4.3868   19.8061   36.8914 H   0  0  0  0  0  0  0  0  0  0  0  0
   -2.0095   15.7062   38.9267 H   0  0  0  0  0  0  0  0  0  0  0  0
   -1.5821   14.1609   38.0546 H   0  0  0  0  0  0  0  0  0  0  0  0
  2  9  1  0
  2 12  1  0
  3  6  1  0
  3 26  1  0
  3 11  1  0
  4 26  1  0
  5  9  1  0
  5 19  1  0
  6 21  1  0
  7  1  1  0
  8 23  1  0
 10  2  1  0
 11 16  1  0
 13 24  1  0
 13  5  2  0
 14  6  1  0
 14  4  1  0
 15 10  1  0
 15 25  1  0
 17 19  1  0
 18 12  2  0
 18  8  1  0
 19 22  1  0
 20 24  1  0
 21 16  1  0
 23  7  1  0
 24 17  1  0
 25 18  1  0
 26 11  1  0
  1 27  1  0
  1 28  1  0
  1 29  1  0
  2 30  1  1
  3 31  1  6
  4 32  1  0
  4 33  1  0
  6 34  1  6
  7 35  1  0
  7 36  1  0
 10 37  1  0
 10 38  1  0
 11 39  1  1
 12 40  1  0
 14 41  1  0
 14 42  1  0
 15 43  1  0
 15 44  1  0
 16 45  1  0
 16 46  1  0
 17 47  1  0
 17 48  1  0
 19 49  1  1
 20 50  1  0
 20 51  1  0
 20 52  1  0
 21 53  1  0
 21 54  1  0
 22 55  1  0
 22 56  1  0
 22 57  1  0
 23 58  1  0
 23 59  1  0
 24 60  1  6
 25 61  1  0
 25 62  1  0
M  CHG  3   1   1  17   1  20   1
M  END
>  <mol_id>  (57) 
2026-09-18-6fnk-s0-n100-0057

>  <rmsd_to_ref>  (57) 


$$$$

     RDKit          3D

 47 48  0  0  0  0  0  0  0  0999 V2000
    1.3865   18.1496   37.9171 C   0  0  0  0  0  0  0  0  0  0  0  0
    1.8323   20.1507   42.7347 N   0  0  0  0  0  0  0  0  0  0  0  0
    2.0935   24.5780   34.2513 C   0  0  0  0  0  0  0  0  0  0  0  0
    4.0227   23.2881   34.9276 C   0  0  0  0  0  0  0  0  0  0  0  0
    0.4463   16.4960   36.6559 C   0  0  2  0  0  0  0  0  0  0  0  0
    4.0886   21.5833   38.1877 C   0  0  0  0  0  0  0  0  0  0  0  0
    0.0923   17.5964   38.6998 S   0  0  0  0  0  0  0  0  0  0  0  0
    1.5757   25.8128   33.6177 C   0  0  0  0  0  0  0  0  0  0  0  0
    1.9509   23.1129   36.2056 C   0  0  0  0  0  0  0  0  0  0  0  0
    3.3436   24.1650   33.9836 C   0  0  0  0  0  0  0  0  0  0  0  0
    1.3510   23.9479   35.2971 C   0  0  0  0  0  0  0  0  0  0  0  0
    0.5014   15.5103   35.8093 O   0  0  0  0  0  0  0  0  0  0  0  0
    2.7267   19.9712   41.8522 C   0  0  0  0  0  0  0  0  0  0  0  0
    3.7624   20.7458   38.9682 C   0  0  0  0  0  0  0  0  0  0  0  0
   -0.5392   16.6914   37.5855 C   0  0  2  0  0  0  0  0  0  0  0  0
    2.9419   19.5421   39.3923 C   0  0  2  0  0  0  0  0  0  0  0  0
    1.3023   17.4533   36.7592 C   0  0  0  0  0  0  0  0  0  0  0  0
    3.9411   20.4866   41.9098 O   0  0  0  0  0  0  0  0  0  0  0  0
    3.3548   22.8159   36.1018 C   0  0  0  0  0  0  0  0  0  0  0  0
   -2.1036   16.2454   37.6407 C   0  0  0  0  0  0  0  0  0  0  0  0
    2.3425   18.9501   38.4086 N   0  0  0  0  0  0  0  0  0  0  0  0
    4.2542   22.5393   37.2221 C   0  0  0  0  0  0  0  0  0  0  0  0
    2.6381   19.0786   40.6607 C   0  0  0  0  0  0  0  0  0  0  0  0
    2.3320   17.6932   35.6528 C   0  0  0  0  0  0  0  0  0  0  0  0
    1.0069   26.5698   33.3878 N   0  0  0  0  0  0  0  0  0  0  0  0
    0.9049   19.7166   42.6237 H   0  0  0  0  0  0  0  0  0  0  0  0
    2.0339   20.7304   43.5618 H   0  0  0  0  0  0  0  0  0  0  0  0
    5.0624   22.9848   34.7354 H   0  0  0  0  0  0  0  0  0  0  0  0
    1.0211   15.9036   37.3830 H   0  0  0  0  0  0  0  0  0  0  0  0
    1.3559   22.6684   37.0169 H   0  0  0  0  0  0  0  0  0  0  0  0
    3.8491   24.4860   33.0609 H   0  0  0  0  0  0  0  0  0  0  0  0
    0.2703   24.1373   35.3759 H   0  0  0  0  0  0  0  0  0  0  0  0
    0.5472   14.6534   36.3030 H   0  0  0  0  0  0  0  0  0  0  0  0
    4.3868   20.9561   39.8490 H   0  0  0  0  0  0  0  0  0  0  0  0
   -0.8241   17.6292   37.0862 H   0  0  0  0  0  0  0  0  0  0  0  0
    3.8491   18.9202   39.3824 H   0  0  0  0  0  0  0  0  0  0  0  0
   -2.4061   16.0976   38.6880 H   0  0  0  0  0  0  0  0  0  0  0  0
   -2.7252   17.0314   37.1871 H   0  0  0  0  0  0  0  0  0  0  0  0
   -2.2369   15.3058   37.0845 H   0  0  0  0  0  0  0  0  0  0  0  0
    3.1584   18.4583   38.0170 H   0  0  0  0  0  0  0  0  0  0  0  0
    1.6635   19.7244   38.3930 H   0  0  0  0  0  0  0  0  0  0  0  0
    5.1565   23.1641   37.2961 H   0  0  0  0  0  0  0  0  0  0  0  0
    1.6004   18.7158   40.6196 H   0  0  0  0  0  0  0  0  0  0  0  0
    3.4404   18.3497   40.8476 H   0  0  0  0  0  0  0  0  0  0  0  0
    3.3262   17.8349   36.1018 H   0  0  0  0  0  0  0  0  0  0  0  0
    2.3547   16.8245   34.9784 H   0  0  0  0  0  0  0  0  0  0  0  0
    2.0554   18.5926   35.0831 H   0  0  0  0  0  0  0  0  0  0  0  0
  1 21  1  0
  1  7  1  0
  3 11  2  0
  4 19  1  0
  5 12  1  0
  5 17  1  0
  5 15  1  0
  6 14  2  0
  8  3  1  0
 10  3  1  0
 10  4  2  0
 11  9  1  0
 13 18  2  0
 13  2  1  0
 15 20  1  0
 15  7  1  0
 16 14  1  0
 16 23  1  0
 17  1  2  0
 19  9  2  0
 19 22  1  0
 21 16  1  0
 22  6  2  0
 23 13  1  0
 24 17  1  0
 25  8  3  0
  2 26  1  0
  2 27  1  0
  4 28  1  0
  5 29  1  1
  9 30  1  0
 10 31  1  0
 11 32  1  0
 12 33  1  0
 14 34  1  0
 15 35  1  1
 16 36  1  6
 20 37  1  0
 20 38  1  0
 20 39  1  0
 21 40  1  0
 21 41  1  0
 22 42  1  0
 23 43  1  0
 23 44  1  0
 24 45  1  0
 24 46  1  0
 24 47  1  0
M  CHG  1  21   1
M  END
>  <mol_id>  (58) 
2026-09-18-6fnk-s0-n100-0058

>  <rmsd_to_ref>  (58) 


$$$$

     RDKit          3D

 57 60  0  0  0  0  0  0  0  0999 V2000
    3.5620   19.0890   42.4970 C   0  0  0  0  0  0  0  0  0  0  0  0
    1.5600   18.7420   42.0440 N   0  0  0  0  0  0  0  0  0  0  0  0
   -0.3820   17.2450   44.9890 N   0  0  0  0  0  0  0  0  0  0  0  0
    4.2380   22.7180   32.9470 C   0  0  0  0  0  0  0  0  0  0  0  0
    3.1530   22.8860   33.7190 C   0  0  0  0  0  0  0  0  0  0  0  0
    1.3020   18.7880   43.2930 N   0  0  0  0  0  0  0  0  0  0  0  0
    1.1440   25.4080   31.8500 C   0  0  0  0  0  0  0  0  0  0  0  0
    1.5720   22.1890   34.3800 S   0  0  0  0  0  0  0  0  0  0  0  0
    1.3200   27.3170   33.4440 C   0  0  0  0  0  0  0  0  0  0  0  0
    2.3080   21.1030   35.2300 C   0  0  0  0  0  0  0  0  0  0  0  0
    2.5540   23.6940   34.5180 C   0  0  2  0  0  0  0  0  0  0  0  0
    2.7100   18.3040   41.6910 C   0  0  1  0  0  0  0  0  0  0  0  0
    2.0360   19.7660   39.0020 O   0  0  0  0  0  0  0  0  0  0  0  0
    1.4400   24.8190   34.3830 C   0  0  0  0  0  0  0  0  0  0  0  0
   -0.0900   19.1000   43.5330 C   0  0  1  0  0  0  0  0  0  0  0  0
   -0.9280   18.0490   43.9810 C   0  0  0  0  0  0  0  0  0  0  0  0
    2.9750   18.0130   36.9820 N   0  0  0  0  0  0  0  0  0  0  0  0
    1.9030   18.7190   38.2490 C   0  0  0  0  0  0  0  0  0  0  0  0
    2.0140   18.4790   36.7330 C   0  0  1  0  0  0  0  0  0  0  0  0
    2.5290   25.4650   32.1300 C   0  0  0  0  0  0  0  0  0  0  0  0
    2.5410   19.5900   42.2380 C   0  0  2  0  0  0  0  0  0  0  0  0
    1.6140   25.8490   33.1910 C   0  0  0  0  0  0  0  0  0  0  0  0
   -0.3420   20.2450   43.6880 C   0  0  0  0  0  0  0  0  0  0  0  0
    1.7010   18.6760   39.6590 N   0  0  0  0  0  0  0  0  0  0  0  0
   -0.5070   21.1550   44.3300 O   0  0  0  0  0  0  0  0  0  0  0  0
    2.8660   19.2690   37.3170 O   0  0  0  0  0  0  0  0  0  0  0  0
    2.3750   17.2880   36.1550 C   0  0  0  0  0  0  0  0  0  0  0  0
    3.7558   18.7754   43.5334 H   0  0  0  0  0  0  0  0  0  0  0  0
    4.6047   19.4186   42.3777 H   0  0  0  0  0  0  0  0  0  0  0  0
   -0.6409   17.6262   45.9102 H   0  0  0  0  0  0  0  0  0  0  0  0
   -0.7475   16.2862   44.8992 H   0  0  0  0  0  0  0  0  0  0  0  0
    0.6440   17.2312   44.8992 H   0  0  0  0  0  0  0  0  0  0  0  0
    4.3693   21.7857   32.3782 H   0  0  0  0  0  0  0  0  0  0  0  0
    4.9959   23.5126   32.8831 H   0  0  0  0  0  0  0  0  0  0  0  0
    2.5369   21.9786   33.6347 H   0  0  0  0  0  0  0  0  0  0  0  0
    1.5177   17.8729   43.7137 H   0  0  0  0  0  0  0  0  0  0  0  0
    0.6922   26.1350   31.1591 H   0  0  0  0  0  0  0  0  0  0  0  0
    0.4559   24.6320   31.4835 H   0  0  0  0  0  0  0  0  0  0  0  0
    1.2829   27.5021   34.5277 H   0  0  0  0  0  0  0  0  0  0  0  0
    2.1127   27.9326   32.9938 H   0  0  0  0  0  0  0  0  0  0  0  0
    0.3514   27.5799   32.9938 H   0  0  0  0  0  0  0  0  0  0  0  0
    2.1643   21.3151   36.2997 H   0  0  0  0  0  0  0  0  0  0  0  0
    1.8953   20.1110   34.9942 H   0  0  0  0  0  0  0  0  0  0  0  0
    3.3823   21.1187   34.9942 H   0  0  0  0  0  0  0  0  0  0  0  0
    3.1944   24.3150   35.1616 H   0  0  0  0  0  0  0  0  0  0  0  0
    2.9144   17.4110   41.0821 H   0  0  0  0  0  0  0  0  0  0  0  0
    0.4711   24.3153   34.2504 H   0  0  0  0  0  0  0  0  0  0  0  0
    1.5215   25.4201   35.3006 H   0  0  0  0  0  0  0  0  0  0  0  0
   -0.6276   19.0634   42.5740 H   0  0  0  0  0  0  0  0  0  0  0  0
   -1.8575   18.4941   44.3656 H   0  0  0  0  0  0  0  0  0  0  0  0
   -1.0850   17.3904   43.1140 H   0  0  0  0  0  0  0  0  0  0  0  0
    3.1036   24.5313   32.2201 H   0  0  0  0  0  0  0  0  0  0  0  0
    3.3854   25.9573   31.6460 H   0  0  0  0  0  0  0  0  0  0  0  0
    2.4070   20.6684   42.4084 H   0  0  0  0  0  0  0  0  0  0  0  0
   -0.4970   20.6176   42.6647 H   0  0  0  0  0  0  0  0  0  0  0  0
    2.6906   17.2288   35.1029 H   0  0  0  0  0  0  0  0  0  0  0  0
    2.0028   16.2570   36.0625 H   0  0  0  0  0  0  0  0  0  0  0  0
  2 21  1  0
  2  6  1  0
  4  5  2  3
  6 15  1  0
  7 20  1  0
  7 22  1  0
  8 11  1  0
  8 10  1  0
 11  5  1  0
 12  2  1  0
 12 21  1  0
 12  1  1  0
 13 24  1  0
 14 11  1  0
 15 23  1  0
 15 16  1  0
 16  3  1  0
 17 27  1  0
 17 26  1  0
 18 13  1  0
 18 24  2  0
 19 17  1  0
 19 26  1  0
 19 18  1  1
 20 22  1  0
 21  1  1  0
 22  9  1  0
 22 14  1  0
 23 25  2  0
 27 19  1  0
  1 28  1  0
  1 29  1  0
  3 30  1  0
  3 31  1  0
  3 32  1  0
  4 33  1  0
  4 34  1  0
  5 35  1  0
  6 36  1  0
  7 37  1  0
  7 38  1  0
  9 39  1  0
  9 40  1  0
  9 41  1  0
 10 42  1  0
 10 43  1  0
 10 44  1  0
 11 45  1  1
 12 46  1  6
 14 47  1  0
 14 48  1  0
 15 49  1  6
 16 50  1  0
 16 51  1  0
 20 52  1  0
 20 53  1  0
 21 54  1  6
 23 55  1  0
 27 56  1  0
 27 57  1  0
M  CHG  1   3   1
M  END
>  <mol_id>  (59) 
2026-09-18-6fnk-s0-n100-0059

>  <rmsd_to_ref>  (59) 


$$$$

     RDKit          3D

 46 47  0  0  0  0  0  0  0  0999 V2000
   -1.9725   16.0480   39.0198 C   0  0  0  0  0  0  0  0  0  0  0  0
    3.5242   21.8370   40.4477 C   0  0  0  0  0  0  0  0  0  0  0  0
    2.1339   21.9422   40.9810 O   0  0  0  0  0  0  0  0  0  0  0  0
    4.2513   23.4260   34.3224 C   0  0  0  0  0  0  0  0  0  0  0  0
    1.0149   18.4123   38.9614 C   0  0  0  0  0  0  0  0  0  0  0  0
    4.1349   25.1152   32.0457 C   0  0  0  0  0  0  0  0  0  0  0  0
    5.2333   24.3016   32.3188 C   0  0  0  0  0  0  0  0  0  0  0  0
    3.6551   21.6549   39.0389 C   0  0  1  0  0  0  0  0  0  0  0  0
    3.1005   25.0978   32.9369 C   0  0  0  0  0  0  0  0  0  0  0  0
    2.8551   22.1095   35.9510 C   0  0  0  0  0  0  0  0  0  0  0  0
   -3.3134   15.9123   38.8289 O   0  0  0  0  0  0  0  0  0  0  0  0
    5.2774   23.3911   33.4023 C   0  0  0  0  0  0  0  0  0  0  0  0
    0.5107   18.2664   40.1844 O   0  0  0  0  0  0  0  0  0  0  0  0
    0.2407   17.3118   38.1188 C   0  0  2  0  0  0  0  0  0  0  0  0
   -1.3095   17.2384   38.2937 C   0  0  0  0  0  0  0  0  0  0  0  0
    4.1414   22.6737   35.6841 C   0  0  2  0  0  0  0  0  0  0  0  0
   -1.1459   15.3199   39.8704 O   0  0  0  0  0  0  0  0  0  0  0  0
    0.9017   16.3690   37.1390 C   0  0  0  0  0  0  0  0  0  0  0  0
    5.8407   22.6556   38.9462 F   0  0  0  0  0  0  0  0  0  0  0  0
    2.3656   21.3092   36.8879 C   0  0  0  0  0  0  0  0  0  0  0  0
    0.9687   15.2474   37.4037 O   0  0  0  0  0  0  0  0  0  0  0  0
    4.7577   22.2834   38.1699 C   0  0  0  0  0  0  0  0  0  0  0  0
    3.1751   24.2910   34.0343 C   0  0  0  0  0  0  0  0  0  0  0  0
    5.0894   22.6238   36.8108 C   0  0  0  0  0  0  0  0  0  0  0  0
    1.2371   16.9431   36.2102 O   0  0  0  0  0  0  0  0  0  0  0  0
    2.6497   20.9426   38.2399 C   0  0  0  0  0  0  0  0  0  0  0  0
    1.8485   19.7301   38.6801 C   0  0  0  0  0  0  0  0  0  0  0  0
    4.0554   22.7623   40.7155 H   0  0  0  0  0  0  0  0  0  0  0  0
    3.9397   20.9236   40.8984 H   0  0  0  0  0  0  0  0  0  0  0  0
    2.1664   22.1278   41.9529 H   0  0  0  0  0  0  0  0  0  0  0  0
    4.1026   25.7474   31.1462 H   0  0  0  0  0  0  0  0  0  0  0  0
    6.1107   24.3703   31.6588 H   0  0  0  0  0  0  0  0  0  0  0  0
    3.0174   22.5343   38.8659 H   0  0  0  0  0  0  0  0  0  0  0  0
    2.2148   25.7289   32.7713 H   0  0  0  0  0  0  0  0  0  0  0  0
    2.6280   21.5665   35.0218 H   0  0  0  0  0  0  0  0  0  0  0  0
    2.4302   23.0305   36.3768 H   0  0  0  0  0  0  0  0  0  0  0  0
    6.1068   22.6762   33.5070 H   0  0  0  0  0  0  0  0  0  0  0  0
    0.8282   18.8443   40.9229 H   0  0  0  0  0  0  0  0  0  0  0  0
    0.1139   18.0310   37.2962 H   0  0  0  0  0  0  0  0  0  0  0  0
   -1.6055   18.1442   38.8435 H   0  0  0  0  0  0  0  0  0  0  0  0
   -1.6642   17.1187   37.2593 H   0  0  0  0  0  0  0  0  0  0  0  0
    5.1206   22.3896   35.2714 H   0  0  0  0  0  0  0  0  0  0  0  0
    1.3266   21.6621   36.9645 H   0  0  0  0  0  0  0  0  0  0  0  0
    2.8668   20.4204   36.4770 H   0  0  0  0  0  0  0  0  0  0  0  0
    2.3362   24.3168   34.7452 H   0  0  0  0  0  0  0  0  0  0  0  0
    6.1401   22.8674   36.5954 H   0  0  0  0  0  0  0  0  0  0  0  0
  1 11  2  0
  1 17  1  0
  2  3  1  0
  4 23  1  0
  5 13  1  0
  6  9  1  0
  7  6  2  0
  7 12  1  0
  8  2  1  0
  9 23  2  0
 10 20  1  0
 12  4  2  0
 14 15  1  0
 14  5  1  0
 15  1  1  0
 16  4  1  0
 16 10  1  0
 16 24  1  0
 18 21  1  0
 18 14  1  0
 20 26  1  0
 22 19  1  0
 22  8  1  0
 24 22  2  0
 25 18  2  0
 26 27  2  0
 26  8  1  0
 27  5  2  0
  2 28  1  0
  2 29  1  0
  3 30  1  0
  6 31  1  0
  7 32  1  0
  8 33  1  1
  9 34  1  0
 10 35  1  0
 10 36  1  0
 12 37  1  0
 13 38  1  0
 14 39  1  6
 15 40  1  0
 15 41  1  0
 16 42  1  6
 20 43  1  0
 20 44  1  0
 23 45  1  0
 24 46  1  0
M  CHG  2  17  -1  21  -1
M  END
>  <mol_id>  (60) 
2026-09-18-6fnk-s0-n100-0060

>  <rmsd_to_ref>  (60) 


$$$$

     RDKit          3D

 41 39  0  0  0  0  0  0  0  0999 V2000
    2.9026   19.0967   39.9846 C   0  0  2  0  0  0  0  0  0  0  0  0
    2.5605   23.0724   35.8878 C   0  0  0  0  0  0  0  0  0  0  0  0
    2.1737   18.3688   38.8446 C   0  0  0  0  0  0  0  0  0  0  0  0
    5.0741   23.1825   36.7734 C   0  0  0  0  0  0  0  0  0  0  0  0
    2.3013   19.4798   41.2813 C   0  0  0  0  0  0  0  0  0  0  0  0
   -0.7795   16.8020   38.0893 C   0  0  0  0  0  0  0  0  0  0  0  0
    1.5233   17.0686   39.1626 C   0  0  0  0  0  0  0  0  0  0  0  0
    2.3638   24.8691   33.5622 S   0  0  0  0  0  0  0  0  0  0  0  0
    3.8573   20.5544   39.9258 F   0  0  0  0  0  0  0  0  0  0  0  0
    0.0516   16.9649   39.1711 O   0  0  0  0  0  0  0  0  0  0  0  0
    1.4803   25.4342   35.4474 S   0  0  0  0  0  0  0  0  0  0  0  0
    0.0836   16.7027   36.7681 C   0  0  0  0  0  0  0  0  0  0  0  0
    3.7196   22.3459   36.7196 C   0  0  0  0  0  0  0  0  0  0  0  0
    1.8633   24.1913   36.7313 C   0  0  0  0  0  0  0  0  0  0  0  0
    2.0959   20.0490   43.4751 O   0  0  0  0  0  0  0  0  0  0  0  0
    2.4767   20.4846   42.2397 C   0  0  0  0  0  0  0  0  0  0  0  0
    3.4172   18.1371   39.8292 H   0  0  0  0  0  0  0  0  0  0  0  0
    1.8085   22.3249   35.5949 H   0  0  0  0  0  0  0  0  0  0  0  0
    3.0136   23.5405   35.0015 H   0  0  0  0  0  0  0  0  0  0  0  0
    2.9101   18.1826   38.0490 H   0  0  0  0  0  0  0  0  0  0  0  0
    1.3438   19.0372   38.5717 H   0  0  0  0  0  0  0  0  0  0  0  0
    5.5455   23.0540   37.7588 H   0  0  0  0  0  0  0  0  0  0  0  0
    5.7580   22.8238   35.9901 H   0  0  0  0  0  0  0  0  0  0  0  0
    4.8541   24.2476   36.6083 H   0  0  0  0  0  0  0  0  0  0  0  0
    1.2391   19.5934   41.0189 H   0  0  0  0  0  0  0  0  0  0  0  0
    2.8762   18.7348   41.8509 H   0  0  0  0  0  0  0  0  0  0  0  0
   -1.3659   15.8797   38.2138 H   0  0  0  0  0  0  0  0  0  0  0  0
   -1.4595   17.6636   38.0178 H   0  0  0  0  0  0  0  0  0  0  0  0
    1.8891   16.3408   38.4234 H   0  0  0  0  0  0  0  0  0  0  0  0
    1.7958   16.8992   40.2148 H   0  0  0  0  0  0  0  0  0  0  0  0
    3.5298   24.1869   33.7905 H   0  0  0  0  0  0  0  0  0  0  0  0
    1.1115   16.4054   37.0231 H   0  0  0  0  0  0  0  0  0  0  0  0
   -0.3591   15.9525   36.0964 H   0  0  0  0  0  0  0  0  0  0  0  0
    0.0988   17.6812   36.2657 H   0  0  0  0  0  0  0  0  0  0  0  0
    3.3650   22.1887   37.7489 H   0  0  0  0  0  0  0  0  0  0  0  0
    3.9421   21.3973   36.2091 H   0  0  0  0  0  0  0  0  0  0  0  0
    0.9482   23.8183   37.2146 H   0  0  0  0  0  0  0  0  0  0  0  0
    2.4777   24.5767   37.5583 H   0  0  0  0  0  0  0  0  0  0  0  0
    2.8774   20.0558   44.0828 H   0  0  0  0  0  0  0  0  0  0  0  0
    3.5380   20.7722   42.2703 H   0  0  0  0  0  0  0  0  0  0  0  0
    1.8533   21.3477   41.9631 H   0  0  0  0  0  0  0  0  0  0  0  0
  1  9  1  0
  1  5  1  0
  2 14  1  0
  2 13  1  0
  3  7  1  0
  3  1  1  0
  5 16  1  0
  6 10  1  0
  8 11  1  0
 10  7  1  0
 11 14  1  0
 12  6  1  0
 13  4  1  0
 16 15  1  0
  1 17  1  1
  2 18  1  0
  2 19  1  0
  3 20  1  0
  3 21  1  0
  4 22  1  0
  4 23  1  0
  4 24  1  0
  5 25  1  0
  5 26  1  0
  6 27  1  0
  6 28  1  0
  7 29  1  0
  7 30  1  0
  8 31  1  0
 12 32  1  0
 12 33  1  0
 12 34  1  0
 13 35  1  0
 13 36  1  0
 14 37  1  0
 14 38  1  0
 15 39  1  0
 16 40  1  0
 16 41  1  0
M  END
>  <mol_id>  (61) 
2026-09-18-6fnk-s0-n100-0061

>  <rmsd_to_ref>  (61) 


$$$$

     RDKit          3D

 63 64  0  0  0  0  0  0  0  0999 V2000
    1.7523   18.3083   38.5079 C   0  0  1  0  0  0  0  0  0  0  0  0
    4.0785   23.6823   34.6243 C   0  0  0  0  0  0  0  0  0  0  0  0
    5.1561   21.2540   38.5585 C   0  0  0  0  0  0  0  0  0  0  0  0
    6.3433   22.0742   38.0320 O   0  0  0  0  0  0  0  0  0  0  0  0
    4.3053   22.6265   36.5725 O   0  0  0  0  0  0  0  0  0  0  0  0
    2.2322   20.0418   42.3446 C   0  0  0  0  0  0  0  0  0  0  0  0
    0.8242   16.8557   36.7850 C   0  0  1  0  0  0  0  0  0  0  0  0
    3.8972   21.5266   37.7563 C   0  0  1  0  0  0  0  0  0  0  0  0
    0.7200   17.2839   39.5369 S   0  0  0  0  0  0  0  0  0  0  0  0
    1.6979   19.5207   41.2809 C   0  0  0  0  0  0  0  0  0  0  0  0
    2.4588   25.6113   31.0515 S   0  0  0  0  0  0  0  0  0  0  0  0
    2.6584   21.9564   35.8385 O   0  0  0  0  0  0  0  0  0  0  0  0
    3.5970   23.7193   33.0650 C   0  0  1  0  0  0  0  0  0  0  0  0
    3.6072   19.7683   37.5336 C   0  0  0  0  0  0  0  0  0  0  0  0
   -0.9708   15.3759   37.8336 N   0  0  0  0  0  0  0  0  0  0  0  0
    2.3095   25.1139   32.8192 C   0  0  0  0  0  0  0  0  0  0  0  0
    2.8880   23.9012   29.9215 S   0  0  0  0  0  0  0  0  0  0  0  0
    1.8350   17.8659   37.1469 N   0  0  0  0  0  0  0  0  0  0  0  0
    4.5882   24.0924   32.2237 C   0  0  0  0  0  0  0  0  0  0  0  0
    3.4455   22.8311   35.7752 C   0  0  0  0  0  0  0  0  0  0  0  0
    1.2194   15.9167   35.8056 O   0  0  0  0  0  0  0  0  0  0  0  0
    4.6353   23.2329   30.6344 S   0  0  1  0  0  4  0  0  0  0  0  0
    1.0918   20.4764   43.1604 C   0  0  0  0  0  0  0  0  0  0  0  0
    5.8556   22.3382   31.2017 C   0  0  0  0  0  0  0  0  0  0  0  0
    0.2179   16.1309   38.0024 C   0  0  1  0  0  0  0  0  0  0  0  0
    2.5453   19.5737   38.7810 C   0  0  1  0  0  0  0  0  0  0  0  0
    2.2206   20.1043   39.9010 N   0  0  0  0  0  0  0  0  0  0  0  0
    2.6277   17.7008   38.7814 H   0  0  0  0  0  0  0  0  0  0  0  0
    4.0101   24.7247   34.9692 H   0  0  0  0  0  0  0  0  0  0  0  0
    5.0329   23.1481   34.5072 H   0  0  0  0  0  0  0  0  0  0  0  0
    5.4009   20.1838   38.4882 H   0  0  0  0  0  0  0  0  0  0  0  0
    4.9709   21.5435   39.6034 H   0  0  0  0  0  0  0  0  0  0  0  0
    6.9172   22.3486   38.7905 H   0  0  0  0  0  0  0  0  0  0  0  0
    2.8682   20.8991   42.0790 H   0  0  0  0  0  0  0  0  0  0  0  0
    2.8774   19.3283   42.8782 H   0  0  0  0  0  0  0  0  0  0  0  0
    0.0418   17.4707   36.3164 H   0  0  0  0  0  0  0  0  0  0  0  0
    2.9711   22.0326   38.0663 H   0  0  0  0  0  0  0  0  0  0  0  0
    1.9038   18.4402   41.2922 H   0  0  0  0  0  0  0  0  0  0  0  0
    0.6268   19.7672   41.3280 H   0  0  0  0  0  0  0  0  0  0  0  0
    3.2299   22.7041   32.8533 H   0  0  0  0  0  0  0  0  0  0  0  0
    3.1554   19.5376   36.5576 H   0  0  0  0  0  0  0  0  0  0  0  0
    4.4959   19.1201   37.5408 H   0  0  0  0  0  0  0  0  0  0  0  0
   -1.3028   15.0483   38.7520 H   0  0  0  0  0  0  0  0  0  0  0  0
   -1.6937   15.9664   37.3979 H   0  0  0  0  0  0  0  0  0  0  0  0
   -0.7794   14.5648   37.2283 H   0  0  0  0  0  0  0  0  0  0  0  0
    2.5335   25.9652   33.4788 H   0  0  0  0  0  0  0  0  0  0  0  0
    1.2911   24.7787   33.0654 H   0  0  0  0  0  0  0  0  0  0  0  0
    2.7689   17.4594   36.9941 H   0  0  0  0  0  0  0  0  0  0  0  0
    1.6603   18.6895   36.5536 H   0  0  0  0  0  0  0  0  0  0  0  0
    4.4734   25.1678   32.0226 H   0  0  0  0  0  0  0  0  0  0  0  0
    5.5273   23.8306   32.7331 H   0  0  0  0  0  0  0  0  0  0  0  0
    1.5581   15.0994   36.2498 H   0  0  0  0  0  0  0  0  0  0  0  0
    4.8488   22.8529   29.3356 H   0  0  0  0  0  0  0  0  0  0  0  0
    1.3103   20.2941   44.2229 H   0  0  0  0  0  0  0  0  0  0  0  0
    0.9153   21.5503   43.0013 H   0  0  0  0  0  0  0  0  0  0  0  0
    0.1951   19.9103   42.8682 H   0  0  0  0  0  0  0  0  0  0  0  0
    5.8011   22.2977   32.2996 H   0  0  0  0  0  0  0  0  0  0  0  0
    5.7841   21.3194   30.7932 H   0  0  0  0  0  0  0  0  0  0  0  0
    6.8123   22.7885   30.8985 H   0  0  0  0  0  0  0  0  0  0  0  0
    0.5878   15.1286   38.2641 H   0  0  0  0  0  0  0  0  0  0  0  0
    3.2962   18.9852   39.3285 H   0  0  0  0  0  0  0  0  0  0  0  0
    3.0715   20.6176   40.1718 H   0  0  0  0  0  0  0  0  0  0  0  0
    1.3035   20.4511   39.5853 H   0  0  0  0  0  0  0  0  0  0  0  0
  1 26  1  0
  1  9  1  0
  2 20  1  0
  4  3  1  0
  5  8  1  0
  6 23  1  0
  7 21  1  0
  7 18  1  0
  7 25  1  0
  8 14  1  0
  8  3  1  0
 10  6  1  0
 11 16  1  0
 13  2  1  0
 16 13  1  0
 17 22  1  0
 17 11  1  0
 18  1  1  0
 19 13  1  0
 20 12  2  0
 20  5  1  0
 22 24  1  0
 22 19  1  0
 25 15  1  0
 25  9  1  0
 26 14  1  0
 26 27  1  0
 27 10  1  0
  1 28  1  1
  2 29  1  0
  2 30  1  0
  3 31  1  0
  3 32  1  0
  4 33  1  0
  6 34  1  0
  6 35  1  0
  7 36  1  6
  8 37  1  1
 10 38  1  0
 10 39  1  0
 13 40  1  6
 14 41  1  0
 14 42  1  0
 15 43  1  0
 15 44  1  0
 15 45  1  0
 16 46  1  0
 16 47  1  0
 18 48  1  0
 18 49  1  0
 19 50  1  0
 19 51  1  0
 21 52  1  0
 22 53  1  0
 23 54  1  0
 23 55  1  0
 23 56  1  0
 24 57  1  0
 24 58  1  0
 24 59  1  0
 25 60  1  1
 26 61  1  6
 27 62  1  0
 27 63  1  0
M  CHG  3  15   1  18   1  27   1
M  END
>  <mol_id>  (62) 
2026-09-18-6fnk-s0-n100-0062

>  <rmsd_to_ref>  (62) 


$$$$

     RDKit          3D

 66 67  0  0  0  0  0  0  0  0999 V2000
    5.5916   23.2581   33.5918 S   0  0  0  0  0  0  0  0  0  0  0  0
    2.6121   22.8805   33.8162 C   0  0  2  0  0  0  0  0  0  0  0  0
   -0.8740   14.3799   44.3696 O   0  0  0  0  0  0  0  0  0  0  0  0
    3.5100   20.4785   37.8591 C   0  0  1  0  0  0  0  0  0  0  0  0
    0.7818   24.6810   33.5229 C   0  0  0  0  0  0  0  0  0  0  0  0
    3.3369   21.5235   35.7183 C   0  0  0  0  0  0  0  0  0  0  0  0
    2.8323   18.2785   38.7318 C   0  0  0  0  0  0  0  0  0  0  0  0
    3.9901   22.7993   33.4430 C   0  0  2  0  0  0  0  0  0  0  0  0
    1.9596   18.1413   39.7708 N   0  0  0  0  0  0  0  0  0  0  0  0
    1.1702   17.0726   39.9835 C   0  0  2  0  0  0  0  0  0  0  0  0
    0.1789   14.2861   43.8343 C   0  0  0  0  0  0  0  0  0  0  0  0
    1.3263   15.8804   42.4230 C   0  0  0  0  0  0  0  0  0  0  0  0
    2.2375   24.3041   33.3446 C   0  0  0  0  0  0  0  0  0  0  0  0
    0.5586   26.2120   33.7581 C   0  0  0  0  0  0  0  0  0  0  0  0
    3.7377   21.0405   39.1264 C   0  0  0  0  0  0  0  0  0  0  0  0
    3.3816   22.8851   35.0505 C   0  0  1  0  0  0  0  0  0  0  0  0
    0.3047   14.9219   42.5759 N   0  0  0  0  0  0  0  0  0  0  0  0
    1.6231   27.0203   33.1533 C   0  0  0  0  0  0  0  0  0  0  0  0
    1.4536   16.3376   41.1303 N   0  0  0  0  0  0  0  0  0  0  0  0
    2.8624   19.2492   37.8166 N   0  0  0  0  0  0  0  0  0  0  0  0
    1.4485   13.9111   44.3223 N   0  0  0  0  0  0  0  0  0  0  0  0
    4.0302   21.2216   36.9115 N   0  0  0  0  0  0  0  0  0  0  0  0
    1.6791   16.5140   43.3984 O   0  0  0  0  0  0  0  0  0  0  0  0
    2.9206   25.0971   32.1472 C   0  0  0  0  0  0  0  0  0  0  0  0
    2.0642   26.3851   31.9170 C   0  0  0  0  0  0  0  0  0  0  0  0
    0.0266   16.7637   39.1285 C   0  0  0  0  0  0  0  0  0  0  0  0
    5.9134   23.6776   35.3037 C   0  0  0  0  0  0  0  0  0  0  0  0
    1.7235   22.2641   33.6155 H   0  0  0  0  0  0  0  0  0  0  0  0
    4.4812   19.9649   37.9123 H   0  0  0  0  0  0  0  0  0  0  0  0
    0.3840   24.1338   34.3902 H   0  0  0  0  0  0  0  0  0  0  0  0
    0.2623   24.4174   32.5898 H   0  0  0  0  0  0  0  0  0  0  0  0
    3.7026   20.8074   34.9677 H   0  0  0  0  0  0  0  0  0  0  0  0
    2.2917   21.4833   36.0589 H   0  0  0  0  0  0  0  0  0  0  0  0
    3.8263   18.3056   39.2022 H   0  0  0  0  0  0  0  0  0  0  0  0
    2.4712   17.4564   38.0964 H   0  0  0  0  0  0  0  0  0  0  0  0
    4.2754   22.4970   32.4245 H   0  0  0  0  0  0  0  0  0  0  0  0
    2.5313   18.2335   40.6227 H   0  0  0  0  0  0  0  0  0  0  0  0
    1.2524   18.8438   39.5112 H   0  0  0  0  0  0  0  0  0  0  0  0
    0.5217   17.6807   40.6313 H   0  0  0  0  0  0  0  0  0  0  0  0
    2.9122   24.7082   34.1137 H   0  0  0  0  0  0  0  0  0  0  0  0
   -0.4046   26.5031   33.3138 H   0  0  0  0  0  0  0  0  0  0  0  0
    0.5669   26.3947   34.8428 H   0  0  0  0  0  0  0  0  0  0  0  0
    4.0577   20.2530   39.8246 H   0  0  0  0  0  0  0  0  0  0  0  0
    4.5238   21.8063   39.0520 H   0  0  0  0  0  0  0  0  0  0  0  0
    2.8097   21.5022   39.4948 H   0  0  0  0  0  0  0  0  0  0  0  0
    3.5175   23.5158   35.9414 H   0  0  0  0  0  0  0  0  0  0  0  0
   -0.3295   14.6916   41.7977 H   0  0  0  0  0  0  0  0  0  0  0  0
    1.2401   28.0276   32.9330 H   0  0  0  0  0  0  0  0  0  0  0  0
    2.4698   27.0981   33.8513 H   0  0  0  0  0  0  0  0  0  0  0  0
    2.2706   15.7958   40.8144 H   0  0  0  0  0  0  0  0  0  0  0  0
    1.8719   19.4880   37.6660 H   0  0  0  0  0  0  0  0  0  0  0  0
    3.4810   18.7851   37.1363 H   0  0  0  0  0  0  0  0  0  0  0  0
    2.2589   13.8904   43.6869 H   0  0  0  0  0  0  0  0  0  0  0  0
    1.5650   13.6579   45.3139 H   0  0  0  0  0  0  0  0  0  0  0  0
    4.9014   20.7524   36.6254 H   0  0  0  0  0  0  0  0  0  0  0  0
    4.0776   22.1438   37.3677 H   0  0  0  0  0  0  0  0  0  0  0  0
    3.9525   25.3700   32.4129 H   0  0  0  0  0  0  0  0  0  0  0  0
    2.9624   24.4811   31.2369 H   0  0  0  0  0  0  0  0  0  0  0  0
    2.6692   27.1085   31.3508 H   0  0  0  0  0  0  0  0  0  0  0  0
    1.1599   26.0785   31.3709 H   0  0  0  0  0  0  0  0  0  0  0  0
   -0.8197   16.4385   39.7514 H   0  0  0  0  0  0  0  0  0  0  0  0
   -0.2598   17.6612   38.5606 H   0  0  0  0  0  0  0  0  0  0  0  0
    0.2981   15.9588   38.4297 H   0  0  0  0  0  0  0  0  0  0  0  0
    6.3062   22.7951   35.8298 H   0  0  0  0  0  0  0  0  0  0  0  0
    6.6527   24.4908   35.3492 H   0  0  0  0  0  0  0  0  0  0  0  0
    4.9788   24.0044   35.7830 H   0  0  0  0  0  0  0  0  0  0  0  0
  1 27  1  0
  2 13  1  0
  2 16  1  0
  4 15  1  0
  5 14  1  0
  5 13  1  0
  6 22  1  0
  7  9  1  0
  8  2  1  0
  8  1  1  0
  8 16  1  0
  9 10  1  0
 10 26  1  0
 10 19  1  0
 11  3  2  0
 11 21  1  0
 12 23  2  0
 16  6  1  0
 17 12  1  0
 17 11  1  0
 18 14  1  0
 19 12  1  0
 20  4  1  0
 20  7  1  0
 22  4  1  0
 24 13  1  0
 25 24  1  0
 25 18  1  0
  2 28  1  1
  4 29  1  6
  5 30  1  0
  5 31  1  0
  6 32  1  0
  6 33  1  0
  7 34  1  0
  7 35  1  0
  8 36  1  1
  9 37  1  0
  9 38  1  0
 10 39  1  6
 13 40  1  0
 14 41  1  0
 14 42  1  0
 15 43  1  0
 15 44  1  0
 15 45  1  0
 16 46  1  1
 17 47  1  0
 18 48  1  0
 18 49  1  0
 19 50  1  0
 20 51  1  0
 20 52  1  0
 21 53  1  0
 21 54  1  0
 22 55  1  0
 22 56  1  0
 24 57  1  0
 24 58  1  0
 25 59  1  0
 25 60  1  0
 26 61  1  0
 26 62  1  0
 26 63  1  0
 27 64  1  0
 27 65  1  0
 27 66  1  0
M  CHG  3   9   1  20   1  22   1
M  END
>  <mol_id>  (63) 
2026-09-18-6fnk-s0-n100-0063

>  <rmsd_to_ref>  (63) 


$$$$

     RDKit          3D

 67 68  0  0  0  0  0  0  0  0999 V2000
    2.6236   17.1642   39.4912 C   0  0  0  0  0  0  0  0  0  0  0  0
    1.0196   15.5989   40.7085 C   0  0  0  0  0  0  0  0  0  0  0  0
   -0.4309   16.6835   37.4713 C   0  0  0  0  0  0  0  0  0  0  0  0
    1.0059   15.0422   43.1868 C   0  0  0  0  0  0  0  0  0  0  0  0
    4.8726   23.2890   34.9080 C   0  0  0  0  0  0  0  0  0  0  0  0
    3.0687   16.2001   38.3688 O   0  0  0  0  0  0  0  0  0  0  0  0
    3.4860   19.6086   39.5108 C   0  0  0  0  0  0  0  0  0  0  0  0
    0.2508   13.8970   42.9261 C   0  0  0  0  0  0  0  0  0  0  0  0
    1.6514   23.8181   35.9238 C   0  0  0  0  0  0  0  0  0  0  0  0
    2.5098   23.4593   34.9610 O   0  0  0  0  0  0  0  0  0  0  0  0
    4.5656   22.5201   36.1536 C   0  0  0  0  0  0  0  0  0  0  0  0
    3.5756   23.8537   34.3626 C   0  0  2  0  0  0  0  0  0  0  0  0
    3.2581   24.8488   33.2944 C   0  0  0  0  0  0  0  0  0  0  0  0
    0.1203   13.4398   41.6122 C   0  0  0  0  0  0  0  0  0  0  0  0
   -0.5997   27.2177   31.3343 C   0  0  0  0  0  0  0  0  0  0  0  0
    1.9407   25.6903   33.3827 C   0  0  2  0  0  0  0  0  0  0  0  0
   -0.9620   17.3801   36.6326 O   0  0  0  0  0  0  0  0  0  0  0  0
    2.3109   18.5800   38.7440 C   0  0  1  0  0  0  0  0  0  0  0  0
    5.8315   21.8087   36.5760 F   0  0  0  0  0  0  0  0  0  0  0  0
    1.1151   16.6744   39.5088 C   0  0  2  0  0  0  0  0  0  0  0  0
    0.3935   27.0413   32.2736 C   0  0  0  0  0  0  0  0  0  0  0  0
    0.6476   25.8514   34.3636 C   0  0  0  0  0  0  0  0  0  0  0  0
   -0.9239   15.3900   37.7005 N   0  0  0  0  0  0  0  0  0  0  0  0
    1.4378   18.0821   37.5654 C   0  0  0  0  0  0  0  0  0  0  0  0
    6.0117   23.3578   34.4672 O   0  0  0  0  0  0  0  0  0  0  0  0
    0.3834   14.3496   40.4965 C   0  0  0  0  0  0  0  0  0  0  0  0
   -0.0323   27.0664   33.7118 C   0  0  0  0  0  0  0  0  0  0  0  0
    2.8475   17.7511   40.8585 O   0  0  0  0  0  0  0  0  0  0  0  0
    3.5288   22.1129   36.5817 C   0  0  0  0  0  0  0  0  0  0  0  0
    1.5155   26.1559   32.0101 C   0  0  0  0  0  0  0  0  0  0  0  0
   -0.4388   13.1923   43.7170 N   0  0  0  0  0  0  0  0  0  0  0  0
    1.4275   15.8319   42.0696 C   0  0  0  0  0  0  0  0  0  0  0  0
    0.6637   17.0432   38.0944 N   0  0  0  0  0  0  0  0  0  0  0  0
    1.2681   15.3280   44.2162 H   0  0  0  0  0  0  0  0  0  0  0  0
    3.7494   15.5741   38.7221 H   0  0  0  0  0  0  0  0  0  0  0  0
    3.6234   19.2929   40.5555 H   0  0  0  0  0  0  0  0  0  0  0  0
    4.4442   19.5330   38.9758 H   0  0  0  0  0  0  0  0  0  0  0  0
    3.1333   20.6503   39.4858 H   0  0  0  0  0  0  0  0  0  0  0  0
    2.1525   23.7620   36.9014 H   0  0  0  0  0  0  0  0  0  0  0  0
    1.3100   24.8485   35.7454 H   0  0  0  0  0  0  0  0  0  0  0  0
    0.7863   23.1387   35.9156 H   0  0  0  0  0  0  0  0  0  0  0  0
    3.6827   24.6704   35.0916 H   0  0  0  0  0  0  0  0  0  0  0  0
    4.0925   25.5651   33.2679 H   0  0  0  0  0  0  0  0  0  0  0  0
    3.1032   24.2248   32.4018 H   0  0  0  0  0  0  0  0  0  0  0  0
   -0.1791   12.3995   41.4171 H   0  0  0  0  0  0  0  0  0  0  0  0
   -1.4436   27.8907   31.5461 H   0  0  0  0  0  0  0  0  0  0  0  0
   -0.5484   26.6855   30.3731 H   0  0  0  0  0  0  0  0  0  0  0  0
    2.5086   26.0081   34.2695 H   0  0  0  0  0  0  0  0  0  0  0  0
    1.8235   19.5409   38.5224 H   0  0  0  0  0  0  0  0  0  0  0  0
    0.0857   16.8754   39.8405 H   0  0  0  0  0  0  0  0  0  0  0  0
    0.0027   24.9606   34.3387 H   0  0  0  0  0  0  0  0  0  0  0  0
    0.8875   25.9719   35.4304 H   0  0  0  0  0  0  0  0  0  0  0  0
   -1.7825   15.0746   37.2268 H   0  0  0  0  0  0  0  0  0  0  0  0
   -0.4273   14.7558   38.3425 H   0  0  0  0  0  0  0  0  0  0  0  0
    2.0712   17.7121   36.7457 H   0  0  0  0  0  0  0  0  0  0  0  0
    0.8149   18.8865   37.1471 H   0  0  0  0  0  0  0  0  0  0  0  0
    0.0831   14.0601   39.4787 H   0  0  0  0  0  0  0  0  0  0  0  0
    0.2995   27.9973   34.1947 H   0  0  0  0  0  0  0  0  0  0  0  0
   -1.1268   27.0244   33.8138 H   0  0  0  0  0  0  0  0  0  0  0  0
    3.3578   17.1094   41.4135 H   0  0  0  0  0  0  0  0  0  0  0  0
    3.5057   21.5588   37.5317 H   0  0  0  0  0  0  0  0  0  0  0  0
    2.5963   22.2916   36.0264 H   0  0  0  0  0  0  0  0  0  0  0  0
    1.2043   25.3045   31.3870 H   0  0  0  0  0  0  0  0  0  0  0  0
    2.3282   26.6529   31.4601 H   0  0  0  0  0  0  0  0  0  0  0  0
   -0.9440   12.3669   43.3642 H   0  0  0  0  0  0  0  0  0  0  0  0
   -0.4954   13.4434   44.7143 H   0  0  0  0  0  0  0  0  0  0  0  0
    2.1088   16.6733   42.2640 H   0  0  0  0  0  0  0  0  0  0  0  0
  1 28  1  0
  2 32  1  0
  3 23  1  0
  3 33  1  0
  5 11  1  0
  6  1  1  0
  8  4  1  0
  8 31  1  0
 10  9  1  0
 11 29  2  3
 11 19  1  0
 12 13  1  0
 12 10  1  0
 12  5  1  0
 14  8  2  0
 15 21  2  3
 16 13  1  0
 16 22  1  0
 17  3  2  0
 18  1  1  0
 18  7  1  0
 20  1  1  0
 20  2  1  0
 21 30  1  0
 21 27  1  0
 24 33  1  0
 24 18  1  0
 25  5  2  0
 26  2  2  0
 26 14  1  0
 27 22  1  0
 30 16  1  0
 32  4  2  0
 33 20  1  0
  4 34  1  0
  6 35  1  0
  7 36  1  0
  7 37  1  0
  7 38  1  0
  9 39  1  0
  9 40  1  0
  9 41  1  0
 12 42  1  6
 13 43  1  0
 13 44  1  0
 14 45  1  0
 15 46  1  0
 15 47  1  0
 16 48  1  1
 18 49  1  1
 20 50  1  1
 22 51  1  0
 22 52  1  0
 23 53  1  0
 23 54  1  0
 24 55  1  0
 24 56  1  0
 26 57  1  0
 27 58  1  0
 27 59  1  0
 28 60  1  0
 29 61  1  0
 29 62  1  0
 30 63  1  0
 30 64  1  0
 31 65  1  0
 31 66  1  0
 32 67  1  0
M  END
>  <mol_id>  (64) 
2026-09-18-6fnk-s0-n100-0064

>  <rmsd_to_ref>  (64) 


$$$$

     RDKit          3D

 44 48  0  0  0  0  0  0  0  0999 V2000
    2.2470   17.1372   36.2393 C   0  0  0  0  0  0  0  0  0  0  0  0
    7.3841   23.3281   35.5723 C   0  0  0  0  0  0  0  0  0  0  0  0
   -0.4287   18.2043   40.3511 C   0  0  0  0  0  0  0  0  0  0  0  0
    2.3638   21.3440   38.3236 C   0  0  0  0  0  0  0  0  0  0  0  0
    4.0051   21.9746   36.8589 C   0  0  0  0  0  0  0  0  0  0  0  0
    8.5325   22.3393   36.0964 C   0  0  0  0  0  0  0  0  0  0  0  0
    2.6744   21.9769   37.1926 N   0  0  0  0  0  0  0  0  0  0  0  0
    2.1788   17.7788   37.5496 C   0  0  0  0  0  0  0  0  0  0  0  0
    7.9463   21.5430   37.2069 C   0  0  0  0  0  0  0  0  0  0  0  0
   -0.1401   16.9636   37.8569 C   0  0  0  0  0  0  0  0  0  0  0  0
   -0.1105   16.3376   36.5227 C   0  0  0  0  0  0  0  0  0  0  0  0
    6.4132   21.7567   37.1453 C   0  0  1  0  0  0  0  0  0  0  0  0
    3.1635   20.6270   39.2716 C   0  0  0  0  0  0  0  0  0  0  0  0
    4.6888   20.5892   39.0362 C   0  0  0  0  0  0  0  0  0  0  0  0
   -1.4950   16.9655   38.6049 C   0  0  0  0  0  0  0  0  0  0  0  0
    1.0317   16.4862   35.7890 C   0  0  0  0  0  0  0  0  0  0  0  0
    1.0493   17.6889   38.4121 C   0  0  0  0  0  0  0  0  0  0  0  0
    5.0885   21.3678   37.7651 C   0  0  0  0  0  0  0  0  0  0  0  0
    2.2766   19.5063   40.1664 S   0  0  0  0  0  0  0  0  0  0  0  0
    3.9184   22.9399   34.6376 O   0  0  0  0  0  0  0  0  0  0  0  0
    0.8711   18.4393   39.6995 C   0  0  1  0  0  0  0  0  0  0  0  0
    4.6521   22.5183   35.6665 C   0  0  0  0  0  0  0  0  0  0  0  0
   -1.3795   17.0889   40.2512 C   0  0  0  0  0  0  0  0  0  0  0  0
    6.1081   22.6070   36.0208 N   0  0  0  0  0  0  0  0  0  0  0  0
    3.1637   17.1470   35.6315 H   0  0  0  0  0  0  0  0  0  0  0  0
    7.4184   23.4352   34.4781 H   0  0  0  0  0  0  0  0  0  0  0  0
    7.4722   24.3533   35.9612 H   0  0  0  0  0  0  0  0  0  0  0  0
   -0.1949   18.2525   41.4249 H   0  0  0  0  0  0  0  0  0  0  0  0
   -1.0067   18.9216   39.7500 H   0  0  0  0  0  0  0  0  0  0  0  0
    1.2938   21.3787   38.5764 H   0  0  0  0  0  0  0  0  0  0  0  0
    8.8570   21.6728   35.2837 H   0  0  0  0  0  0  0  0  0  0  0  0
    9.4112   22.9049   36.4399 H   0  0  0  0  0  0  0  0  0  0  0  0
    3.0469   18.3631   37.8886 H   0  0  0  0  0  0  0  0  0  0  0  0
    8.1862   20.4773   37.0772 H   0  0  0  0  0  0  0  0  0  0  0  0
    8.3518   21.8604   38.1789 H   0  0  0  0  0  0  0  0  0  0  0  0
   -0.9721   15.7746   36.1345 H   0  0  0  0  0  0  0  0  0  0  0  0
    6.3254   20.9222   36.4341 H   0  0  0  0  0  0  0  0  0  0  0  0
    5.4027   20.0712   39.6934 H   0  0  0  0  0  0  0  0  0  0  0  0
   -2.0867   17.8174   38.2387 H   0  0  0  0  0  0  0  0  0  0  0  0
   -1.9630   15.9914   38.3996 H   0  0  0  0  0  0  0  0  0  0  0  0
    1.0299   16.0767   34.7681 H   0  0  0  0  0  0  0  0  0  0  0  0
    1.3240   17.6018   40.2504 H   0  0  0  0  0  0  0  0  0  0  0  0
   -2.3478   17.3339   40.7122 H   0  0  0  0  0  0  0  0  0  0  0  0
   -1.0720   16.1671   40.7669 H   0  0  0  0  0  0  0  0  0  0  0  0
  1  8  1  0
  2 24  1  0
  2  6  1  0
  4 13  1  0
  5  7  1  0
  5 18  2  0
  6  9  1  0
  7  4  2  0
  8 17  2  0
 10 17  1  0
 10 15  1  0
 11 10  2  0
 12  9  1  0
 12 18  1  0
 13 19  1  0
 14 13  2  0
 15 23  1  0
 16  1  2  0
 16 11  1  0
 17 21  1  0
 18 14  1  0
 20 22  2  0
 21 19  1  0
 21  3  1  0
 22 24  1  0
 22  5  1  0
 23  3  1  0
 24 12  1  0
  1 25  1  0
  2 26  1  0
  2 27  1  0
  3 28  1  0
  3 29  1  0
  4 30  1  0
  6 31  1  0
  6 32  1  0
  8 33  1  0
  9 34  1  0
  9 35  1  0
 11 36  1  0
 12 37  1  1
 14 38  1  0
 15 39  1  0
 15 40  1  0
 16 41  1  0
 21 42  1  1
 23 43  1  0
 23 44  1  0
M  END
>  <mol_id>  (65) 
2026-09-18-6fnk-s0-n100-0065

>  <rmsd_to_ref>  (65) 


$$$$

     RDKit          3D

 69 69  0  0  0  0  0  0  0  0999 V2000
    2.4665   21.5433   38.3508 C   0  0  0  0  0  0  0  0  0  0  0  0
    0.5526   16.8449   39.3701 C   0  0  0  0  0  0  0  0  0  0  0  0
    0.6524   24.9105   33.0521 C   0  0  0  0  0  0  0  0  0  0  0  0
    2.0581   23.1953   35.3082 C   0  0  2  0  0  0  0  0  0  0  0  0
    1.1793   24.9429   31.8372 C   0  0  0  0  0  0  0  0  0  0  0  0
    4.6120   22.9648   36.8194 O   0  0  0  0  0  0  0  0  0  0  0  0
    2.0479   24.5659   35.7704 C   0  0  0  0  0  0  0  0  0  0  0  0
   -0.8539   14.8783   38.0140 N   0  0  0  0  0  0  0  0  0  0  0  0
    2.3539   25.2630   29.4832 C   0  0  0  0  0  0  0  0  0  0  0  0
    1.2063   25.5732   35.2358 C   0  0  0  0  0  0  0  0  0  0  0  0
    2.3781   21.4201   35.7490 O   0  0  0  0  0  0  0  0  0  0  0  0
   -0.9487   14.8153   39.1786 C   0  0  0  0  0  0  0  0  0  0  0  0
    3.2022   22.3107   36.8555 S   0  0  1  0  0  4  0  0  0  0  0  0
    1.7711   20.2647   40.3926 C   0  0  0  0  0  0  0  0  0  0  0  0
    1.3070   25.9484   33.9041 C   0  0  0  0  0  0  0  0  0  0  0  0
    4.3683   20.9201   42.3519 C   0  0  0  0  0  0  0  0  0  0  0  0
    3.6516   19.5685   42.0481 C   0  0  0  0  0  0  0  0  0  0  0  0
    2.5039   25.3896   31.1228 C   0  0  0  0  0  0  0  0  0  0  0  0
    0.3568   15.5179   36.3044 O   0  0  0  0  0  0  0  0  0  0  0  0
   -0.5070   16.1491   37.2589 C   0  0  2  0  0  0  0  0  0  0  0  0
    0.6180   15.2989   39.6550 C   0  0  0  0  0  0  0  0  0  0  0  0
    0.5839   17.0733   37.8535 C   0  0  0  0  0  0  0  0  0  0  0  0
    2.4708   19.2953   41.4273 C   0  0  0  0  0  0  0  0  0  0  0  0
    2.2571   19.6105   38.3367 C   0  0  0  0  0  0  0  0  0  0  0  0
    2.7174   20.5666   39.1047 C   0  0  1  0  0  0  0  0  0  0  0  0
    1.4415   21.3226   38.0181 H   0  0  0  0  0  0  0  0  0  0  0  0
    2.9055   22.2821   39.0374 H   0  0  0  0  0  0  0  0  0  0  0  0
   -0.3780   17.2579   39.7864 H   0  0  0  0  0  0  0  0  0  0  0  0
    1.4113   17.3468   39.8400 H   0  0  0  0  0  0  0  0  0  0  0  0
    0.8131   23.9167   33.4955 H   0  0  0  0  0  0  0  0  0  0  0  0
   -0.4271   25.1129   32.9902 H   0  0  0  0  0  0  0  0  0  0  0  0
    1.5505   23.5019   34.3817 H   0  0  0  0  0  0  0  0  0  0  0  0
    1.1157   23.8853   31.5416 H   0  0  0  0  0  0  0  0  0  0  0  0
    0.6615   25.8785   31.5794 H   0  0  0  0  0  0  0  0  0  0  0  0
    4.9375   23.0987   37.7448 H   0  0  0  0  0  0  0  0  0  0  0  0
    1.8117   24.5176   36.8436 H   0  0  0  0  0  0  0  0  0  0  0  0
    3.0342   24.9114   35.4270 H   0  0  0  0  0  0  0  0  0  0  0  0
   -0.1299   14.1930   37.7551 H   0  0  0  0  0  0  0  0  0  0  0  0
   -1.8345   14.7426   37.7296 H   0  0  0  0  0  0  0  0  0  0  0  0
    1.4955   24.6188   29.2422 H   0  0  0  0  0  0  0  0  0  0  0  0
    2.1953   26.2622   29.0513 H   0  0  0  0  0  0  0  0  0  0  0  0
    3.2711   24.8239   29.0639 H   0  0  0  0  0  0  0  0  0  0  0  0
    0.1719   25.2316   35.3884 H   0  0  0  0  0  0  0  0  0  0  0  0
    1.5359   26.4764   35.7701 H   0  0  0  0  0  0  0  0  0  0  0  0
   -1.7179   15.5031   39.5597 H   0  0  0  0  0  0  0  0  0  0  0  0
   -1.2553   13.8292   39.5574 H   0  0  0  0  0  0  0  0  0  0  0  0
    0.8369   19.7991   40.0456 H   0  0  0  0  0  0  0  0  0  0  0  0
    1.5746   21.2199   40.9013 H   0  0  0  0  0  0  0  0  0  0  0  0
    2.3676   26.0378   33.6260 H   0  0  0  0  0  0  0  0  0  0  0  0
    0.8099   26.9181   33.7540 H   0  0  0  0  0  0  0  0  0  0  0  0
    4.3920   21.0863   43.4389 H   0  0  0  0  0  0  0  0  0  0  0  0
    5.3969   20.8851   41.9637 H   0  0  0  0  0  0  0  0  0  0  0  0
    3.8213   21.7422   41.8671 H   0  0  0  0  0  0  0  0  0  0  0  0
    4.3922   19.0063   41.4604 H   0  0  0  0  0  0  0  0  0  0  0  0
    3.3090   19.3688   43.0741 H   0  0  0  0  0  0  0  0  0  0  0  0
    3.3306   24.7472   31.4605 H   0  0  0  0  0  0  0  0  0  0  0  0
    2.7074   26.4397   31.3794 H   0  0  0  0  0  0  0  0  0  0  0  0
    0.9711   14.8993   36.7736 H   0  0  0  0  0  0  0  0  0  0  0  0
   -1.4243   16.7278   37.0756 H   0  0  0  0  0  0  0  0  0  0  0  0
    1.3942   14.8086   39.0491 H   0  0  0  0  0  0  0  0  0  0  0  0
    0.8779   15.0388   40.6918 H   0  0  0  0  0  0  0  0  0  0  0  0
    1.5715   16.8087   37.4477 H   0  0  0  0  0  0  0  0  0  0  0  0
    0.3990   18.1279   37.6014 H   0  0  0  0  0  0  0  0  0  0  0  0
    1.7386   19.1412   42.2336 H   0  0  0  0  0  0  0  0  0  0  0  0
    2.7677   18.4656   40.7689 H   0  0  0  0  0  0  0  0  0  0  0  0
    1.8020   18.8266   38.9600 H   0  0  0  0  0  0  0  0  0  0  0  0
    1.4995   20.0216   37.6534 H   0  0  0  0  0  0  0  0  0  0  0  0
    3.0834   19.1802   37.7518 H   0  0  0  0  0  0  0  0  0  0  0  0
    3.7495   20.6942   39.4630 H   0  0  0  0  0  0  0  0  0  0  0  0
  1 25  1  0
  2 21  1  0
  3 15  1  0
  4  7  1  0
  4 11  1  0
  4 13  1  0
  5  3  1  0
  8 12  1  0
  9 18  1  0
 10  7  1  0
 11 13  1  0
 12 21  1  0
 13  6  1  1
 13  1  1  0
 14 23  1  0
 15 10  1  0
 17 16  1  0
 18  5  1  0
 20 19  1  0
 20 22  1  0
 20  8  1  0
 22  2  1  0
 23 17  1  0
 25 24  1  0
 25 14  1  0
  1 26  1  0
  1 27  1  0
  2 28  1  0
  2 29  1  0
  3 30  1  0
  3 31  1  0
  4 32  1  6
  5 33  1  0
  5 34  1  0
  6 35  1  0
  7 36  1  0
  7 37  1  0
  8 38  1  0
  8 39  1  0
  9 40  1  0
  9 41  1  0
  9 42  1  0
 10 43  1  0
 10 44  1  0
 12 45  1  0
 12 46  1  0
 14 47  1  0
 14 48  1  0
 15 49  1  0
 15 50  1  0
 16 51  1  0
 16 52  1  0
 16 53  1  0
 17 54  1  0
 17 55  1  0
 18 56  1  0
 18 57  1  0
 19 58  1  0
 20 59  1  6
 21 60  1  0
 21 61  1  0
 22 62  1  0
 22 63  1  0
 23 64  1  0
 23 65  1  0
 24 66  1  0
 24 67  1  0
 24 68  1  0
 25 69  1  1
M  CHG  1   8   1
M  END
>  <mol_id>  (66) 
2026-09-18-6fnk-s0-n100-0066

>  <rmsd_to_ref>  (66) 


$$$$

     RDKit          3D

 65 65  0  0  0  0  0  0  0  0999 V2000
    1.7810   21.4130   36.6800 C   0  0  0  0  0  0  0  0  0  0  0  0
    3.3960   18.7460   35.2560 O   0  0  0  0  0  0  0  0  0  0  0  0
    5.9470   23.3390   36.9420 C   0  0  0  0  0  0  0  0  0  0  0  0
    0.9670   26.2440   33.4530 C   0  0  0  0  0  0  0  0  0  0  0  0
    2.4810   19.7790   35.4390 S   0  0  0  0  0  4  0  0  0  0  0  0
    2.8730   19.0050   38.4280 C   0  0  0  0  0  0  0  0  0  0  0  0
    3.1790   21.1840   36.2380 O   0  0  0  0  0  0  0  0  0  0  0  0
    3.1190   21.9330   36.1100 C   0  0  0  0  0  0  0  0  0  0  0  0
    3.6000   25.4570   34.3260 S   0  0  0  0  0  0  0  0  0  0  0  0
    2.2570   19.6670   37.2220 C   0  0  0  0  0  0  0  0  0  0  0  0
   -0.0070   19.6830   44.5260 N   0  0  0  0  0  0  0  0  0  0  0  0
    2.2020   18.3240   42.2380 C   0  0  0  0  0  0  0  0  0  0  0  0
    1.7440   24.9560   33.9300 C   0  0  1  0  0  0  0  0  0  0  0  0
    5.4160   23.5570   35.5260 C   0  0  0  0  0  0  0  0  0  0  0  0
    1.9670   18.1060   40.7790 C   0  0  0  0  0  0  0  0  0  0  0  0
    2.7860   23.4460   35.6190 C   0  0  1  0  0  0  0  0  0  0  0  0
    0.2700   18.7500   45.3390 C   0  0  0  0  0  0  0  0  0  0  0  0
    0.5150   19.4960   43.2980 C   0  0  0  0  0  0  0  0  0  0  0  0
    1.0870   18.0360   43.2760 C   0  0  2  0  0  0  0  0  0  0  0  0
    4.0140   24.0770   35.2310 C   0  0  1  0  0  0  0  0  0  0  0  0
    0.4690   20.2940   42.4350 C   0  0  0  0  0  0  0  0  0  0  0  0
    2.4080   19.2800   39.9550 C   0  0  0  0  0  0  0  0  0  0  0  0
    1.1500   17.7060   44.7490 C   0  0  0  0  0  0  0  0  0  0  0  0
    1.2840   18.6300   35.1320 N   0  0  0  0  0  0  0  0  0  0  0  0
    1.8350   23.7490   35.0800 C   0  0  0  0  0  0  0  0  0  0  0  0
    0.2990   16.7270   42.7570 C   0  0  0  0  0  0  0  0  0  0  0  0
    1.7404   21.4196   37.7792 H   0  0  0  0  0  0  0  0  0  0  0  0
    1.4283   22.3809   36.2942 H   0  0  0  0  0  0  0  0  0  0  0  0
    1.1380   20.6082   36.2942 H   0  0  0  0  0  0  0  0  0  0  0  0
    5.1853   23.6517   37.6714 H   0  0  0  0  0  0  0  0  0  0  0  0
    6.1779   22.2733   37.0870 H   0  0  0  0  0  0  0  0  0  0  0  0
    6.8601   23.9350   37.0870 H   0  0  0  0  0  0  0  0  0  0  0  0
    0.6245   26.8117   34.3307 H   0  0  0  0  0  0  0  0  0  0  0  0
    1.6365   26.8730   32.8479 H   0  0  0  0  0  0  0  0  0  0  0  0
    0.0984   25.9451   32.8479 H   0  0  0  0  0  0  0  0  0  0  0  0
    3.6910   18.2890   38.2603 H   0  0  0  0  0  0  0  0  0  0  0  0
    2.8751   22.1546   37.1595 H   0  0  0  0  0  0  0  0  0  0  0  0
    3.5428   21.7505   35.1114 H   0  0  0  0  0  0  0  0  0  0  0  0
    1.3947   20.2768   37.5297 H   0  0  0  0  0  0  0  0  0  0  0  0
   -1.0313   19.7467   44.4390 H   0  0  0  0  0  0  0  0  0  0  0  0
    0.4065   20.5476   44.9034 H   0  0  0  0  0  0  0  0  0  0  0  0
    2.4742   19.3832   42.3565 H   0  0  0  0  0  0  0  0  0  0  0  0
    2.9597   17.5637   42.4782 H   0  0  0  0  0  0  0  0  0  0  0  0
    1.0882   24.5058   33.1702 H   0  0  0  0  0  0  0  0  0  0  0  0
    6.1080   24.2674   35.0500 H   0  0  0  0  0  0  0  0  0  0  0  0
    5.3465   22.5227   35.1579 H   0  0  0  0  0  0  0  0  0  0  0  0
    2.5288   17.2164   40.4582 H   0  0  0  0  0  0  0  0  0  0  0  0
    0.8860   17.9717   40.6262 H   0  0  0  0  0  0  0  0  0  0  0  0
    2.3359   23.8982   36.5151 H   0  0  0  0  0  0  0  0  0  0  0  0
    0.7792   19.1853   46.2115 H   0  0  0  0  0  0  0  0  0  0  0  0
   -0.6769   18.2635   45.6160 H   0  0  0  0  0  0  0  0  0  0  0  0
    3.9802   23.4670   34.3163 H   0  0  0  0  0  0  0  0  0  0  0  0
    0.9179   20.0715   41.4557 H   0  0  0  0  0  0  0  0  0  0  0  0
   -0.0229   21.2627   42.6073 H   0  0  0  0  0  0  0  0  0  0  0  0
    3.2572   19.7454   40.4768 H   0  0  0  0  0  0  0  0  0  0  0  0
    1.5066   19.9032   39.8599 H   0  0  0  0  0  0  0  0  0  0  0  0
    0.7617   16.6965   44.9492 H   0  0  0  0  0  0  0  0  0  0  0  0
    2.1707   17.7034   45.1591 H   0  0  0  0  0  0  0  0  0  0  0  0
    0.9130   18.2739   36.0244 H   0  0  0  0  0  0  0  0  0  0  0  0
    0.5218   19.0641   34.5921 H   0  0  0  0  0  0  0  0  0  0  0  0
    1.1268   24.0392   35.8701 H   0  0  0  0  0  0  0  0  0  0  0  0
    1.6619   22.8596   34.4563 H   0  0  0  0  0  0  0  0  0  0  0  0
   -0.0521   16.1438   43.6211 H   0  0  0  0  0  0  0  0  0  0  0  0
   -0.5635   17.0357   42.1481 H   0  0  0  0  0  0  0  0  0  0  0  0
    0.9754   16.1092   42.1481 H   0  0  0  0  0  0  0  0  0  0  0  0
  2  5  2  0
  5 24  1  6
  5 10  1  0
  6 22  1  0
  7  1  1  0
  8  7  1  0
  9 20  1  0
 10  6  2  3
 11 17  1  0
 19 12  1  6
 13  4  1  0
 13  9  1  0
 13 25  1  0
 14  3  1  0
 15 12  1  0
 16  8  1  0
 18 11  1  0
 19 26  1  0
 19 18  1  0
 19 23  1  0
 20 14  1  0
 20 16  1  0
 21 18  2  3
 22 15  1  0
 23 17  1  0
 25 16  1  0
  1 27  1  0
  1 28  1  0
  1 29  1  0
  3 30  1  0
  3 31  1  0
  3 32  1  0
  4 33  1  0
  4 34  1  0
  4 35  1  0
  6 36  1  0
  8 37  1  0
  8 38  1  0
 10 39  1  0
 11 40  1  0
 11 41  1  0
 12 42  1  0
 12 43  1  0
 13 44  1  6
 14 45  1  0
 14 46  1  0
 15 47  1  0
 15 48  1  0
 16 49  1  1
 17 50  1  0
 17 51  1  0
 20 52  1  1
 21 53  1  0
 21 54  1  0
 22 55  1  0
 22 56  1  0
 23 57  1  0
 23 58  1  0
 24 59  1  0
 24 60  1  0
 25 61  1  0
 25 62  1  0
 26 63  1  0
 26 64  1  0
 26 65  1  0
M  CHG  1  11   1
M  END
>  <mol_id>  (67) 
2026-09-18-6fnk-s0-n100-0067

>  <rmsd_to_ref>  (67) 


$$$$

     RDKit          3D

100102  0  0  0  0  0  0  0  0999 V2000
    0.9497   15.8228   36.5135 C   0  0  0  0  0  0  0  0  0  0  0  0
    0.0528   14.9850   40.2042 C   0  0  2  0  0  0  0  0  0  0  0  0
    0.0554   27.7308   33.0528 C   0  0  2  0  0  0  0  0  0  0  0  0
    1.7804   16.7678   41.2051 C   0  0  0  0  0  0  0  0  0  0  0  0
    1.6414   19.3412   37.3807 O   0  0  0  0  0  0  0  0  0  0  0  0
    0.3442   15.8924   37.7857 C   0  0  1  0  0  0  0  0  0  0  0  0
    1.7747   22.0210   36.1884 C   0  0  1  0  0  0  0  0  0  0  0  0
    4.6725   20.4123   41.2620 C   0  0  0  0  0  0  0  0  0  0  0  0
    0.1676   25.9955   33.4325 C   0  0  1  0  0  0  0  0  0  0  0  0
    0.6019   16.3051   35.4598 O   0  0  0  0  0  0  0  0  0  0  0  0
    3.6901   20.0003   37.9363 N   0  0  0  0  0  0  0  0  0  0  0  0
    4.3821   20.7716   39.9246 C   0  0  2  0  0  0  0  0  0  0  0  0
    2.7731   18.6554   41.2457 C   0  0  0  0  0  0  0  0  0  0  0  0
   -0.5448   28.3207   34.1095 C   0  0  0  0  0  0  0  0  0  0  0  0
    2.0119   25.0520   31.8935 C   0  0  0  0  0  0  0  0  0  0  0  0
   -0.7562   29.5555   36.3887 C   0  0  0  0  0  0  0  0  0  0  0  0
    0.7696   23.3962   36.2727 C   0  0  1  0  0  0  0  0  0  0  0  0
    4.4671   15.7130   35.3407 C   0  0  0  0  0  0  0  0  0  0  0  0
    2.3348   15.4613   36.1700 C   0  0  0  0  0  0  0  0  0  0  0  0
   -2.1676   14.1813   39.8028 F   0  0  0  0  0  0  0  0  0  0  0  0
    1.0209   16.0344   40.0852 C   0  0  0  0  0  0  0  0  0  0  0  0
   -0.2679   28.1252   32.1147 C   0  0  0  0  0  0  0  0  0  0  0  0
    5.7065   21.0793   42.0651 C   0  0  0  0  0  0  0  0  0  0  0  0
    0.2064   13.9959   41.1589 O   0  0  0  0  0  0  0  0  0  0  0  0
   -0.9559   15.4208   38.0328 C   0  0  0  0  0  0  0  0  0  0  0  0
    2.3964   19.1230   39.9895 C   0  0  0  0  0  0  0  0  0  0  0  0
    1.0869   16.4578   38.7215 C   0  0  0  0  0  0  0  0  0  0  0  0
    3.9815   14.2003   35.2423 C   0  0  0  0  0  0  0  0  0  0  0  0
    0.6222   25.3320   32.2110 C   0  0  2  0  0  0  0  0  0  0  0  0
    2.5822   14.3064   35.3557 N   0  0  0  0  0  0  0  0  0  0  0  0
   -1.0248   14.8174   39.3505 C   0  0  2  0  0  0  0  0  0  0  0  0
   -0.8507   29.0135   34.1281 O   0  0  0  0  0  0  0  0  0  0  0  0
    3.8943   19.5080   42.0502 C   0  0  0  0  0  0  0  0  0  0  0  0
    0.3226   25.5837   34.6790 C   0  0  0  0  0  0  0  0  0  0  0  0
    1.8670   23.0345   35.3990 C   0  0  2  0  0  0  0  0  0  0  0  0
    3.4814   20.0277   39.3328 C   0  0  2  0  0  0  0  0  0  0  0  0
   -0.0949   25.4837   30.9259 O   0  0  0  0  0  0  0  0  0  0  0  0
    5.6019   21.6058   39.0524 C   0  0  0  0  0  0  0  0  0  0  0  0
    2.4896   21.2924   36.4790 N   0  0  0  0  0  0  0  0  0  0  0  0
    3.2947   16.4410   35.5748 N   0  0  0  0  0  0  0  0  0  0  0  0
   -0.3418   28.6343   35.3286 C   0  0  0  0  0  0  0  0  0  0  0  0
    0.7506   24.0023   34.8361 C   0  0  1  0  0  0  0  0  0  0  0  0
    2.5875   20.1868   37.2413 C   0  0  0  0  0  0  0  0  0  0  0  0
   -0.5161   15.5916   40.9242 H   0  0  0  0  0  0  0  0  0  0  0  0
    1.1089   27.9908   32.8726 H   0  0  0  0  0  0  0  0  0  0  0  0
    1.5341   16.3112   42.1750 H   0  0  0  0  0  0  0  0  0  0  0  0
    2.8630   16.6885   41.0267 H   0  0  0  0  0  0  0  0  0  0  0  0
    1.4870   17.8279   41.2138 H   0  0  0  0  0  0  0  0  0  0  0  0
   -0.0626   16.8839   37.5379 H   0  0  0  0  0  0  0  0  0  0  0  0
    1.5968   20.9870   36.5186 H   0  0  0  0  0  0  0  0  0  0  0  0
   -0.7576   25.4641   33.7000 H   0  0  0  0  0  0  0  0  0  0  0  0
    4.6130   19.8495   37.5045 H   0  0  0  0  0  0  0  0  0  0  0  0
    3.7642   21.6807   39.9651 H   0  0  0  0  0  0  0  0  0  0  0  0
    3.1638   17.6354   41.1153 H   0  0  0  0  0  0  0  0  0  0  0  0
    1.8641   18.7325   41.8604 H   0  0  0  0  0  0  0  0  0  0  0  0
    2.5838   24.9313   32.8253 H   0  0  0  0  0  0  0  0  0  0  0  0
    2.0738   24.1261   31.3027 H   0  0  0  0  0  0  0  0  0  0  0  0
    2.4305   25.8866   31.3118 H   0  0  0  0  0  0  0  0  0  0  0  0
   -0.6331   29.5249   37.4814 H   0  0  0  0  0  0  0  0  0  0  0  0
   -0.8472   30.6010   36.0591 H   0  0  0  0  0  0  0  0  0  0  0  0
    0.1191   29.0944   35.9080 H   0  0  0  0  0  0  0  0  0  0  0  0
   -1.6638   29.0018   36.1064 H   0  0  0  0  0  0  0  0  0  0  0  0
    0.0927   23.7347   37.0710 H   0  0  0  0  0  0  0  0  0  0  0  0
    4.9416   16.0312   34.4008 H   0  0  0  0  0  0  0  0  0  0  0  0
    5.2175   15.8617   36.1311 H   0  0  0  0  0  0  0  0  0  0  0  0
    2.5203   15.3207   37.2451 H   0  0  0  0  0  0  0  0  0  0  0  0
   -0.8094   29.0683   32.2805 H   0  0  0  0  0  0  0  0  0  0  0  0
    0.6068   28.3123   31.4745 H   0  0  0  0  0  0  0  0  0  0  0  0
   -0.9344   27.4015   31.6227 H   0  0  0  0  0  0  0  0  0  0  0  0
    5.5505   20.8478   43.1292 H   0  0  0  0  0  0  0  0  0  0  0  0
    6.6995   20.7225   41.7541 H   0  0  0  0  0  0  0  0  0  0  0  0
    5.6437   22.1670   41.9135 H   0  0  0  0  0  0  0  0  0  0  0  0
    0.2863   14.4108   42.0542 H   0  0  0  0  0  0  0  0  0  0  0  0
   -1.6641   16.2609   37.9797 H   0  0  0  0  0  0  0  0  0  0  0  0
   -1.2149   14.6651   37.2766 H   0  0  0  0  0  0  0  0  0  0  0  0
    2.2142   18.2595   39.3330 H   0  0  0  0  0  0  0  0  0  0  0  0
    1.4908   19.7335   40.1208 H   0  0  0  0  0  0  0  0  0  0  0  0
    1.7716   17.2730   38.4445 H   0  0  0  0  0  0  0  0  0  0  0  0
    4.2670   13.7559   34.2775 H   0  0  0  0  0  0  0  0  0  0  0  0
    4.4296   13.5515   36.0093 H   0  0  0  0  0  0  0  0  0  0  0  0
    0.2459   24.4826   32.8000 H   0  0  0  0  0  0  0  0  0  0  0  0
    2.1564   14.4271   34.4257 H   0  0  0  0  0  0  0  0  0  0  0  0
    2.1733   13.4579   35.7725 H   0  0  0  0  0  0  0  0  0  0  0  0
   -1.3894   15.7681   39.7668 H   0  0  0  0  0  0  0  0  0  0  0  0
    4.0465   19.3974   43.1341 H   0  0  0  0  0  0  0  0  0  0  0  0
    1.1056   26.1981   35.1474 H   0  0  0  0  0  0  0  0  0  0  0  0
   -0.6594   25.6879   35.1636 H   0  0  0  0  0  0  0  0  0  0  0  0
    2.8258   22.9878   34.8618 H   0  0  0  0  0  0  0  0  0  0  0  0
    2.7374   20.8279   39.2059 H   0  0  0  0  0  0  0  0  0  0  0  0
   -1.0500   25.6758   31.1017 H   0  0  0  0  0  0  0  0  0  0  0  0
    6.3518   21.9982   39.7550 H   0  0  0  0  0  0  0  0  0  0  0  0
    6.0865   20.9143   38.3473 H   0  0  0  0  0  0  0  0  0  0  0  0
    5.1494   22.4396   38.4956 H   0  0  0  0  0  0  0  0  0  0  0  0
    3.3976   21.4958   36.0373 H   0  0  0  0  0  0  0  0  0  0  0  0
    3.4749   17.2140   36.2313 H   0  0  0  0  0  0  0  0  0  0  0  0
    2.9261   16.8639   34.7110 H   0  0  0  0  0  0  0  0  0  0  0  0
   -0.4365   27.7375   35.9586 H   0  0  0  0  0  0  0  0  0  0  0  0
    0.6699   29.0525   35.4361 H   0  0  0  0  0  0  0  0  0  0  0  0
   -1.0836   29.3833   35.6430 H   0  0  0  0  0  0  0  0  0  0  0  0
    0.3532   24.0370   33.8111 H   0  0  0  0  0  0  0  0  0  0  0  0
  2 24  1  0
  3 22  1  0
  3  9  1  0
  3 14  1  0
  6  1  1  0
  6 25  1  0
  6 27  1  0
  7 39  1  0
  8 33  2  0
  8 23  1  0
  9 34  1  0
 10  1  2  0
 11 36  1  0
 12 38  1  0
 12  8  1  0
 13 33  1  0
 14 41  1  0
 15 29  1  0
 17  7  1  0
 18 40  1  0
 19  1  1  0
 21  2  1  0
 21  4  1  0
 25 31  1  0
 26 13  1  0
 27 21  2  0
 28 18  1  0
 29  9  1  0
 30 28  1  0
 30 19  1  0
 31 20  1  0
 31  2  1  0
 32 14  2  0
 34 42  1  0
 35 17  1  0
 35  7  1  0
 36 26  1  0
 36 12  1  0
 37 29  1  0
 39 43  1  0
 40 19  1  0
 42 35  1  0
 42 17  1  0
 43  5  2  0
 43 11  1  0
  2 44  1  1
  3 45  1  1
  4 46  1  0
  4 47  1  0
  4 48  1  0
  6 49  1  6
  7 50  1  6
  9 51  1  6
 11 52  1  0
 12 53  1  1
 13 54  1  0
 13 55  1  0
 15 56  1  0
 15 57  1  0
 15 58  1  0
 16 59  1  0
 16 60  1  0
 16 61  1  0
 16 62  1  0
 17 63  1  1
 18 64  1  0
 18 65  1  0
 19 66  1  0
 22 67  1  0
 22 68  1  0
 22 69  1  0
 23 70  1  0
 23 71  1  0
 23 72  1  0
 24 73  1  0
 25 74  1  0
 25 75  1  0
 26 76  1  0
 26 77  1  0
 27 78  1  0
 28 79  1  0
 28 80  1  0
 29 81  1  1
 30 82  1  0
 30 83  1  0
 31 84  1  6
 33 85  1  0
 34 86  1  0
 34 87  1  0
 35 88  1  1
 36 89  1  6
 37 90  1  0
 38 91  1  0
 38 92  1  0
 38 93  1  0
 39 94  1  0
 40 95  1  0
 40 96  1  0
 41 97  1  0
 41 98  1  0
 41 99  1  0
 42100  1  6
M  CHG  2  30   1  40   1
M  END
>  <mol_id>  (68) 
2026-09-18-6fnk-s0-n100-0068

>  <rmsd_to_ref>  (68) 


$$$$

     RDKit          3D

 70 71  0  0  0  0  0  0  0  0999 V2000
    2.2843   19.6064   40.6975 C   0  0  0  0  0  0  0  0  0  0  0  0
    0.1249   28.4515   33.6410 O   0  0  0  0  0  0  0  0  0  0  0  0
    1.7236   25.8628   29.9999 C   0  0  0  0  0  0  0  0  0  0  0  0
    1.9203   22.1055   35.9054 C   0  0  0  0  0  0  0  0  0  0  0  0
    3.5726   21.5956   37.6658 C   0  0  0  0  0  0  0  0  0  0  0  0
    0.4671   25.5981   30.7824 C   0  0  0  0  0  0  0  0  0  0  0  0
    0.0314   15.9519   38.4358 C   0  0  2  0  0  0  0  0  0  0  0  0
    0.3797   15.8630   39.7631 C   0  0  1  0  0  0  0  0  0  0  0  0
   -0.6578   27.6380   32.1813 S   0  0  0  0  0  4  0  0  0  0  0  0
   -0.2872   13.5384   39.9709 O   0  0  0  0  0  0  0  0  0  0  0  0
    3.7521   21.3624   41.0818 O   0  0  0  0  0  0  0  0  0  0  0  0
    4.7302   23.4970   34.2454 C   0  0  0  0  0  0  0  0  0  0  0  0
    2.3867   23.8458   32.9388 C   0  0  0  0  0  0  0  0  0  0  0  0
    0.6503   15.9915   36.1072 O   0  0  0  0  0  0  0  0  0  0  0  0
   -1.3668   16.3697   38.1847 C   0  0  0  0  0  0  0  0  0  0  0  0
    2.3954   21.0631   38.6376 C   0  0  0  0  0  0  0  0  0  0  0  0
    2.3784   20.9319   41.4416 C   0  0  0  0  0  0  0  0  0  0  0  0
    4.2155   24.1435   32.7601 S   0  0  0  0  0  0  0  0  0  0  0  0
   -1.5378   14.9361   41.1212 O   0  0  0  0  0  0  0  0  0  0  0  0
    2.5243   25.5037   31.0410 O   0  0  0  0  0  0  0  0  0  0  0  0
   -1.4486   26.2626   32.9808 C   0  0  0  0  0  0  0  0  0  0  0  0
    2.3294   19.6396   39.3842 C   0  0  2  0  0  0  0  0  0  0  0  0
    3.2333   21.8096   36.2913 C   0  0  0  0  0  0  0  0  0  0  0  0
   -0.3525   25.3437   33.2105 C   0  0  0  0  0  0  0  0  0  0  0  0
    1.2467   17.4561   39.6691 C   0  0  1  0  0  0  0  0  0  0  0  0
   -0.5224   14.6410   40.3651 C   0  0  0  0  0  0  0  0  0  0  0  0
    2.0384   24.5356   31.6465 C   0  0  0  0  0  0  0  0  0  0  0  0
    1.8858   17.2323   40.7084 C   0  0  0  0  0  0  0  0  0  0  0  0
    0.6892   15.8022   37.3098 C   0  0  0  0  0  0  0  0  0  0  0  0
    2.1467   18.4340   41.3261 C   0  0  0  0  0  0  0  0  0  0  0  0
    0.4621   26.1822   32.0391 C   0  0  1  0  0  0  0  0  0  0  0  0
    1.7256   18.5687   38.7820 C   0  0  0  0  0  0  0  0  0  0  0  0
    4.2140   22.5580   35.5034 C   0  0  0  0  0  0  0  0  0  0  0  0
    1.8350   25.2156   29.1175 H   0  0  0  0  0  0  0  0  0  0  0  0
    1.8639   26.8504   29.5361 H   0  0  0  0  0  0  0  0  0  0  0  0
    1.3392   22.4128   36.7874 H   0  0  0  0  0  0  0  0  0  0  0  0
    1.9298   22.9232   35.1695 H   0  0  0  0  0  0  0  0  0  0  0  0
    1.4601   21.2131   35.4559 H   0  0  0  0  0  0  0  0  0  0  0  0
    3.9308   22.5530   38.0722 H   0  0  0  0  0  0  0  0  0  0  0  0
    4.3200   20.7886   37.6535 H   0  0  0  0  0  0  0  0  0  0  0  0
   -0.3871   25.9925   30.2124 H   0  0  0  0  0  0  0  0  0  0  0  0
    0.4038   24.5102   30.9324 H   0  0  0  0  0  0  0  0  0  0  0  0
    0.3483   17.0053   38.4232 H   0  0  0  0  0  0  0  0  0  0  0  0
    0.8595   15.5793   40.7114 H   0  0  0  0  0  0  0  0  0  0  0  0
    4.2482   21.6041   41.9038 H   0  0  0  0  0  0  0  0  0  0  0  0
    5.7665   23.8135   34.4350 H   0  0  0  0  0  0  0  0  0  0  0  0
    2.1205   22.7785   32.9449 H   0  0  0  0  0  0  0  0  0  0  0  0
    1.8922   24.1880   33.8599 H   0  0  0  0  0  0  0  0  0  0  0  0
   -1.8300   16.6876   39.1304 H   0  0  0  0  0  0  0  0  0  0  0  0
   -1.3769   17.2073   37.4718 H   0  0  0  0  0  0  0  0  0  0  0  0
   -1.9324   15.5246   37.7653 H   0  0  0  0  0  0  0  0  0  0  0  0
    2.3331   21.8094   39.4434 H   0  0  0  0  0  0  0  0  0  0  0  0
    1.6037   20.9086   37.8898 H   0  0  0  0  0  0  0  0  0  0  0  0
    1.6241   21.6492   41.0858 H   0  0  0  0  0  0  0  0  0  0  0  0
    2.1954   20.8581   42.5238 H   0  0  0  0  0  0  0  0  0  0  0  0
   -1.9118   26.5702   33.9300 H   0  0  0  0  0  0  0  0  0  0  0  0
   -2.2630   25.8249   32.3848 H   0  0  0  0  0  0  0  0  0  0  0  0
    3.3881   19.4513   39.1522 H   0  0  0  0  0  0  0  0  0  0  0  0
    0.0946   25.3984   34.2141 H   0  0  0  0  0  0  0  0  0  0  0  0
   -0.4826   24.2523   33.1683 H   0  0  0  0  0  0  0  0  0  0  0  0
    0.5494   18.0748   39.0852 H   0  0  0  0  0  0  0  0  0  0  0  0
    0.9892   24.8314   31.7937 H   0  0  0  0  0  0  0  0  0  0  0  0
    2.4696   23.7657   30.9896 H   0  0  0  0  0  0  0  0  0  0  0  0
    1.2933   16.5916   41.3780 H   0  0  0  0  0  0  0  0  0  0  0  0
    2.8284   16.7185   40.4687 H   0  0  0  0  0  0  0  0  0  0  0  0
    1.6486   15.3174   37.5430 H   0  0  0  0  0  0  0  0  0  0  0  0
    2.2501   18.4300   42.4212 H   0  0  0  0  0  0  0  0  0  0  0  0
    1.5470   26.3186   32.1597 H   0  0  0  0  0  0  0  0  0  0  0  0
    2.4484   18.1379   38.0735 H   0  0  0  0  0  0  0  0  0  0  0  0
    0.8116   18.9797   38.3284 H   0  0  0  0  0  0  0  0  0  0  0  0
  1 30  2  0
  1 17  1  0
  3  6  1  0
  3 20  1  0
  4 23  1  0
  5 16  1  0
  7 15  1  0
  7  8  1  0
  8 26  1  0
  9 21  1  1
  9  2  2  0
 10 26  2  0
 11 17  1  0
 12 33  2  0
 13 18  1  0
 14 29  2  0
 18 12  1  0
 20 27  1  0
 21 24  1  0
 22 16  1  0
 22  1  1  0
 23  5  1  0
 25  8  1  0
 25 28  1  0
 26 19  1  0
 27 13  1  0
 28 30  1  0
 29  7  1  0
 31  6  1  0
 31  9  1  0
 31 24  1  0
 32 25  1  0
 32 22  1  0
 33 23  2  0
  3 34  1  0
  3 35  1  0
  4 36  1  0
  4 37  1  0
  4 38  1  0
  5 39  1  0
  5 40  1  0
  6 41  1  0
  6 42  1  0
  7 43  1  6
  8 44  1  6
 11 45  1  0
 12 46  1  0
 13 47  1  0
 13 48  1  0
 15 49  1  0
 15 50  1  0
 15 51  1  0
 16 52  1  0
 16 53  1  0
 17 54  1  0
 17 55  1  0
 21 56  1  0
 21 57  1  0
 22 58  1  1
 24 59  1  0
 24 60  1  0
 25 61  1  1
 27 62  1  0
 27 63  1  0
 28 64  1  0
 28 65  1  0
 29 66  1  0
 30 67  1  0
 31 68  1  1
 32 69  1  0
 32 70  1  0
M  CHG  1  19  -1
M  END
>  <mol_id>  (69) 
2026-09-18-6fnk-s0-n100-0069

>  <rmsd_to_ref>  (69) 


$$$$

     RDKit          3D

 67 69  0  0  0  0  0  0  0  0999 V2000
    1.1545   15.7532   42.5352 C   0  0  0  0  0  0  0  0  0  0  0  0
   -0.2509   14.5629   44.2235 O   0  0  0  0  0  0  0  0  0  0  0  0
    3.6506   20.4437   36.9487 C   0  0  1  0  0  0  0  0  0  0  0  0
    2.3746   19.7130   39.5997 C   0  0  1  0  0  0  0  0  0  0  0  0
    2.0150   19.2392   38.2183 C   0  0  0  0  0  0  0  0  0  0  0  0
    3.0243   21.2781   35.9510 C   0  0  0  0  0  0  0  0  0  0  0  0
    2.5083   23.7253   30.0948 C   0  0  0  0  0  0  0  0  0  0  0  0
    3.3275   18.8850   40.4156 C   0  0  0  0  0  0  0  0  0  0  0  0
    3.0499   24.6385   31.2403 C   0  0  1  0  0  0  0  0  0  0  0  0
    1.8460   18.5232   42.6269 S   0  0  0  0  0  4  0  0  0  0  0  0
    2.7288   18.0094   41.4141 O   0  0  0  0  0  0  0  0  0  0  0  0
    3.7642   21.1419   41.0457 C   0  0  0  0  0  0  0  0  0  0  0  0
   -0.4960   13.9271   42.1741 O   0  0  0  0  0  0  0  0  0  0  0  0
    3.9193   22.0545   35.2937 C   0  0  0  0  0  0  0  0  0  0  0  0
    3.0164   19.0643   37.2397 C   0  0  1  0  0  0  0  0  0  0  0  0
    1.7917   25.9180   31.0842 S   0  0  0  0  0  0  0  0  0  0  0  0
    1.0420   19.8206   42.3157 O   0  0  0  0  0  0  0  0  0  0  0  0
    2.9850   21.1339   39.7654 C   0  0  0  0  0  0  0  0  0  0  0  0
    4.0210   23.9820   33.5460 C   0  0  2  0  0  0  0  0  0  0  0  0
    3.9401   19.1365   36.3288 C   0  0  0  0  0  0  0  0  0  0  0  0
    5.3261   23.1628   32.9491 C   0  0  0  0  0  0  0  0  0  0  0  0
    2.6844   18.8708   43.7449 O   0  0  0  0  0  0  0  0  0  0  0  0
    3.6937   23.1397   34.6594 C   0  0  0  0  0  0  0  0  0  0  0  0
    1.0494   17.1092   43.1740 N   0  0  0  0  0  0  0  0  0  0  0  0
    2.7849   23.9713   32.5724 C   0  0  0  0  0  0  0  0  0  0  0  0
    4.3968   25.3605   31.3524 C   0  0  0  0  0  0  0  0  0  0  0  0
    2.4827   26.7905   32.4376 C   0  0  0  0  0  0  0  0  0  0  0  0
   -0.0189   14.7717   43.0649 C   0  0  0  0  0  0  0  0  0  0  0  0
    5.3507   25.0336   32.8683 S   0  0  1  0  0  4  0  0  0  0  0  0
    2.1315   15.3131   42.7834 H   0  0  0  0  0  0  0  0  0  0  0  0
    1.0505   15.8691   41.4462 H   0  0  0  0  0  0  0  0  0  0  0  0
    4.0834   21.2454   37.5652 H   0  0  0  0  0  0  0  0  0  0  0  0
    1.3355   19.6502   39.9548 H   0  0  0  0  0  0  0  0  0  0  0  0
    1.5176   18.2654   38.3382 H   0  0  0  0  0  0  0  0  0  0  0  0
    1.4190   20.0723   37.8174 H   0  0  0  0  0  0  0  0  0  0  0  0
    2.5124   20.6334   35.2213 H   0  0  0  0  0  0  0  0  0  0  0  0
    2.3159   21.9438   36.4658 H   0  0  0  0  0  0  0  0  0  0  0  0
    1.8383   22.9632   30.5192 H   0  0  0  0  0  0  0  0  0  0  0  0
    1.9537   24.3379   29.3688 H   0  0  0  0  0  0  0  0  0  0  0  0
    3.3516   23.2318   29.5896 H   0  0  0  0  0  0  0  0  0  0  0  0
    3.9046   18.2565   39.7213 H   0  0  0  0  0  0  0  0  0  0  0  0
    3.9322   19.6074   40.9833 H   0  0  0  0  0  0  0  0  0  0  0  0
    3.0696   21.1883   41.8974 H   0  0  0  0  0  0  0  0  0  0  0  0
    4.3670   20.2243   41.1138 H   0  0  0  0  0  0  0  0  0  0  0  0
    4.4279   22.0189   41.0655 H   0  0  0  0  0  0  0  0  0  0  0  0
    4.6670   22.3248   36.0539 H   0  0  0  0  0  0  0  0  0  0  0  0
    4.1180   21.3950   34.4360 H   0  0  0  0  0  0  0  0  0  0  0  0
    3.7597   18.8896   38.0315 H   0  0  0  0  0  0  0  0  0  0  0  0
    0.6976   20.2059   43.1601 H   0  0  0  0  0  0  0  0  0  0  0  0
    3.6508   21.3579   38.9189 H   0  0  0  0  0  0  0  0  0  0  0  0
    2.1922   21.8962   39.7891 H   0  0  0  0  0  0  0  0  0  0  0  0
    3.6590   18.9764   35.2775 H   0  0  0  0  0  0  0  0  0  0  0  0
    4.8808   18.5823   36.1950 H   0  0  0  0  0  0  0  0  0  0  0  0
    6.0026   22.6389   33.6403 H   0  0  0  0  0  0  0  0  0  0  0  0
    5.4532   22.3625   32.2052 H   0  0  0  0  0  0  0  0  0  0  0  0
    2.1715   18.7703   44.5858 H   0  0  0  0  0  0  0  0  0  0  0  0
    3.8499   23.8586   35.4772 H   0  0  0  0  0  0  0  0  0  0  0  0
    2.9574   22.6128   34.0347 H   0  0  0  0  0  0  0  0  0  0  0  0
    0.0455   17.3394   43.1637 H   0  0  0  0  0  0  0  0  0  0  0  0
    1.9522   24.4962   33.0636 H   0  0  0  0  0  0  0  0  0  0  0  0
    2.5526   22.9169   32.3617 H   0  0  0  0  0  0  0  0  0  0  0  0
    5.0141   25.0574   30.4939 H   0  0  0  0  0  0  0  0  0  0  0  0
    4.1579   26.4339   31.3768 H   0  0  0  0  0  0  0  0  0  0  0  0
    1.9923   26.4706   33.3689 H   0  0  0  0  0  0  0  0  0  0  0  0
    3.5602   26.5782   32.4990 H   0  0  0  0  0  0  0  0  0  0  0  0
    2.3292   27.8702   32.2946 H   0  0  0  0  0  0  0  0  0  0  0  0
    6.2491   26.0243   33.1653 H   0  0  0  0  0  0  0  0  0  0  0  0
  1 28  1  0
  1 24  1  0
  3  6  1  0
  3 15  1  0
  4  5  1  0
  4 18  1  0
  4  8  1  0
  8 11  1  0
  9  7  1  0
  9 16  1  1
  9 25  1  0
 10 24  1  0
 10 22  1  0
 11 10  1  0
 13 28  2  0
 14  6  1  0
 15  5  1  0
 16 27  1  0
 17 10  1  0
 18 12  1  0
 19 23  1  1
 20  3  1  0
 20 15  1  0
 21 19  1  0
 23 14  1  0
 25 19  1  0
 26  9  1  0
 28  2  1  0
 29 26  1  0
 29 21  1  0
 29 19  1  0
  1 30  1  0
  1 31  1  0
  3 32  1  1
  4 33  1  1
  5 34  1  0
  5 35  1  0
  6 36  1  0
  6 37  1  0
  7 38  1  0
  7 39  1  0
  7 40  1  0
  8 41  1  0
  8 42  1  0
 12 43  1  0
 12 44  1  0
 12 45  1  0
 14 46  1  0
 14 47  1  0
 15 48  1  1
 17 49  1  0
 18 50  1  0
 18 51  1  0
 20 52  1  0
 20 53  1  0
 21 54  1  0
 21 55  1  0
 22 56  1  0
 23 57  1  0
 23 58  1  0
 24 59  1  0
 25 60  1  0
 25 61  1  0
 26 62  1  0
 26 63  1  0
 27 64  1  0
 27 65  1  0
 27 66  1  0
 29 67  1  1
M  CHG  1   2  -1
M  END
>  <mol_id>  (70) 
2026-09-18-6fnk-s0-n100-0070

>  <rmsd_to_ref>  (70) 


$$$$

     RDKit          3D

 54 56  0  0  0  0  0  0  0  0999 V2000
    1.1640   26.6710   31.9060 C   0  0  0  0  0  0  0  0  0  0  0  0
    0.9840   19.0890   42.4290 N   0  0  0  0  0  0  0  0  0  0  0  0
    2.7510   23.5330   34.6440 C   0  0  2  0  0  0  0  0  0  0  0  0
    2.4950   22.2140   36.7660 C   0  0  0  0  0  0  0  0  0  0  0  0
    2.4110   17.9880   40.4890 C   0  0  0  0  0  0  0  0  0  0  0  0
   -0.4520   20.4210   44.6860 O   0  0  0  0  0  0  0  0  0  0  0  0
   -0.5550   17.0880   45.6670 C   0  0  0  0  0  0  0  0  0  0  0  0
    3.8990   23.4960   33.4770 O   0  0  0  0  0  0  0  0  0  0  0  0
   -0.0810   16.3050   44.5630 C   0  0  0  0  0  0  0  0  0  0  0  0
    1.6400   18.3250   39.1850 C   0  0  0  0  0  0  0  0  0  0  0  0
    1.9630   25.6840   33.9030 N   0  0  0  0  0  0  0  0  0  0  0  0
    1.0970   16.8180   42.3390 N   0  0  0  0  0  0  0  0  0  0  0  0
    2.3990   19.4510   38.4310 C   0  0  0  0  0  0  0  0  0  0  0  0
    1.8160   19.8320   37.1910 C   0  0  0  0  0  0  0  0  0  0  0  0
    0.9490   27.5820   33.0570 C   0  0  0  0  0  0  0  0  0  0  0  0
    0.3600   18.5130   43.5530 C   0  0  2  0  0  0  0  0  0  0  0  0
    0.4130   17.1860   43.4780 C   0  0  0  0  0  0  0  0  0  0  0  0
    1.0500   26.9540   34.3640 C   0  0  0  0  0  0  0  0  0  0  0  0
    2.0990   22.7360   35.1860 C   0  0  0  0  0  0  0  0  0  0  0  0
    1.6680   21.1900   37.0660 C   0  0  0  0  0  0  0  0  0  0  0  0
   -0.2810   19.2020   44.6710 C   0  0  0  0  0  0  0  0  0  0  0  0
    2.8360   25.1150   34.9930 C   0  0  0  0  0  0  0  0  0  0  0  0
    1.9070   25.4900   32.4850 C   0  0  0  0  0  0  0  0  0  0  0  0
   -0.6430   18.3990   45.7340 N   0  0  0  0  0  0  0  0  0  0  0  0
    2.4610   24.7440   31.6910 O   0  0  0  0  0  0  0  0  0  0  0  0
    1.4850   17.9470   41.7370 C   0  0  0  0  0  0  0  0  0  0  0  0
    1.7654   27.1641   31.1281 H   0  0  0  0  0  0  0  0  0  0  0  0
    0.2188   26.3742   31.4280 H   0  0  0  0  0  0  0  0  0  0  0  0
    3.5176   23.3240   35.4047 H   0  0  0  0  0  0  0  0  0  0  0  0
    2.3516   23.0367   37.4820 H   0  0  0  0  0  0  0  0  0  0  0  0
    3.5466   21.8961   36.8206 H   0  0  0  0  0  0  0  0  0  0  0  0
    3.1843   18.7538   40.6490 H   0  0  0  0  0  0  0  0  0  0  0  0
    2.8505   16.9870   40.3671 H   0  0  0  0  0  0  0  0  0  0  0  0
   -0.8814   16.5302   46.5571 H   0  0  0  0  0  0  0  0  0  0  0  0
    4.7952   23.4671   33.8965 H   0  0  0  0  0  0  0  0  0  0  0  0
    0.7390   15.6562   44.9046 H   0  0  0  0  0  0  0  0  0  0  0  0
   -0.9106   15.6946   44.1767 H   0  0  0  0  0  0  0  0  0  0  0  0
    1.5803   17.4295   38.5490 H   0  0  0  0  0  0  0  0  0  0  0  0
    0.6212   18.6601   39.4294 H   0  0  0  0  0  0  0  0  0  0  0  0
    2.4314   20.3376   39.0814 H   0  0  0  0  0  0  0  0  0  0  0  0
    3.3962   19.0507   38.1960 H   0  0  0  0  0  0  0  0  0  0  0  0
    2.4602   19.4725   36.3750 H   0  0  0  0  0  0  0  0  0  0  0  0
    0.8119   19.3849   37.1469 H   0  0  0  0  0  0  0  0  0  0  0  0
    1.7015   28.3826   33.0039 H   0  0  0  0  0  0  0  0  0  0  0  0
   -0.0847   27.9482   32.9707 H   0  0  0  0  0  0  0  0  0  0  0  0
    1.3183   18.5284   44.0929 H   0  0  0  0  0  0  0  0  0  0  0  0
    0.0709   26.6468   34.7603 H   0  0  0  0  0  0  0  0  0  0  0  0
    1.4469   27.5757   35.1800 H   0  0  0  0  0  0  0  0  0  0  0  0
    1.0792   23.1453   35.2363 H   0  0  0  0  0  0  0  0  0  0  0  0
    2.2616   21.8322   34.5805 H   0  0  0  0  0  0  0  0  0  0  0  0
    1.2633   21.4825   38.0461 H   0  0  0  0  0  0  0  0  0  0  0  0
    1.2054   21.1448   36.0690 H   0  0  0  0  0  0  0  0  0  0  0  0
    2.4315   25.3327   35.9925 H   0  0  0  0  0  0  0  0  0  0  0  0
    3.8568   25.5237   35.0230 H   0  0  0  0  0  0  0  0  0  0  0  0
  1 23  1  0
  1 15  1  0
  3  8  1  0
  3 22  1  0
  3 19  1  0
  4 20  1  0
  5 26  1  0
  7 24  2  0
  9  7  1  0
 10  5  1  0
 11 18  1  0
 11 22  1  0
 12 17  2  0
 13 10  1  0
 14 13  1  0
 15 18  1  0
 16  2  1  0
 16 21  1  0
 17 16  1  0
 17  9  1  0
 19  4  1  0
 20 14  1  0
 21  6  2  0
 21 24  1  0
 23 11  1  0
 25 23  2  0
 26 12  1  0
 26  2  2  0
  1 27  1  0
  1 28  1  0
  3 29  1  6
  4 30  1  0
  4 31  1  0
  5 32  1  0
  5 33  1  0
  7 34  1  0
  8 35  1  0
  9 36  1  0
  9 37  1  0
 10 38  1  0
 10 39  1  0
 13 40  1  0
 13 41  1  0
 14 42  1  0
 14 43  1  0
 15 44  1  0
 15 45  1  0
 16 46  1  1
 18 47  1  0
 18 48  1  0
 19 49  1  0
 19 50  1  0
 20 51  1  0
 20 52  1  0
 22 53  1  0
 22 54  1  0
M  END
>  <mol_id>  (71) 
2026-09-18-6fnk-s0-n100-0071

>  <rmsd_to_ref>  (71) 


$$$$

     RDKit          3D

 61 62  0  0  0  0  0  0  0  0999 V2000
    1.2349   19.3488   39.9480 O   0  0  0  0  0  0  0  0  0  0  0  0
    0.6586   14.7017   42.0441 C   0  0  0  0  0  0  0  0  0  0  0  0
    1.4081   22.0011   33.9857 C   0  0  0  0  0  0  0  0  0  0  0  0
    0.7303   15.4753   43.2862 C   0  0  0  0  0  0  0  0  0  0  0  0
    3.4034   22.0382   38.3431 C   0  0  0  0  0  0  0  0  0  0  0  0
    2.8007   17.6676   39.4694 C   0  0  0  0  0  0  0  0  0  0  0  0
    2.2628   18.9180   39.5628 C   0  0  0  0  0  0  0  0  0  0  0  0
    2.5788   16.4198   40.6659 S   0  0  0  0  0  0  0  0  0  0  0  0
   -0.9860   14.5200   38.7822 N   0  0  0  0  0  0  0  0  0  0  0  0
    3.9167   22.4375   36.0127 O   0  0  0  0  0  0  0  0  0  0  0  0
    4.8266   24.4289   35.8133 O   0  0  0  0  0  0  0  0  0  0  0  0
    1.9617   24.3455   33.4527 C   0  0  0  0  0  0  0  0  0  0  0  0
    0.1930   14.9771   40.6388 C   0  0  0  0  0  0  0  0  0  0  0  0
    6.2207   22.9945   37.0541 C   0  0  0  0  0  0  0  0  0  0  0  0
    3.3242   19.9664   39.5563 O   0  0  0  0  0  0  0  0  0  0  0  0
    4.9522   23.3569   36.2756 C   0  0  0  0  0  0  0  0  0  0  0  0
    2.6211   21.1002   39.1244 C   0  0  0  0  0  0  0  0  0  0  0  0
   -0.7154   14.2443   40.0513 C   0  0  0  0  0  0  0  0  0  0  0  0
    1.1270   15.8382   39.9499 C   0  0  0  0  0  0  0  0  0  0  0  0
    0.3669   22.4726   34.7586 N   0  0  0  0  0  0  0  0  0  0  0  0
   -0.2862   15.3230   38.0204 C   0  0  0  0  0  0  0  0  0  0  0  0
    0.7139   16.0027   38.6189 C   0  0  0  0  0  0  0  0  0  0  0  0
    2.2703   24.0095   32.2243 C   0  0  0  0  0  0  0  0  0  0  0  0
   -0.4570   14.5577   43.1770 C   0  0  0  0  0  0  0  0  0  0  0  0
    1.2486   25.1154   31.4594 C   0  0  0  0  0  0  0  0  0  0  0  0
    0.8882   24.9789   32.8919 C   0  0  0  0  0  0  0  0  0  0  0  0
    2.9992   21.9723   36.8069 C   0  0  0  0  0  0  0  0  0  0  0  0
    2.2193   23.2122   33.7332 C   0  0  0  0  0  0  0  0  0  0  0  0
    1.4690   14.1773   41.5166 H   0  0  0  0  0  0  0  0  0  0  0  0
    1.9906   21.2428   34.5294 H   0  0  0  0  0  0  0  0  0  0  0  0
    1.0701   21.5088   33.0619 H   0  0  0  0  0  0  0  0  0  0  0  0
    1.5202   15.2444   44.0161 H   0  0  0  0  0  0  0  0  0  0  0  0
    0.8261   16.5517   43.4913 H   0  0  0  0  0  0  0  0  0  0  0  0
    3.2255   23.0565   38.7190 H   0  0  0  0  0  0  0  0  0  0  0  0
    4.4670   21.7739   38.4384 H   0  0  0  0  0  0  0  0  0  0  0  0
    2.4189   17.2484   38.5268 H   0  0  0  0  0  0  0  0  0  0  0  0
    3.8706   17.8901   39.5950 H   0  0  0  0  0  0  0  0  0  0  0  0
    2.2286   24.9368   34.3411 H   0  0  0  0  0  0  0  0  0  0  0  0
    6.0217   23.0669   38.1335 H   0  0  0  0  0  0  0  0  0  0  0  0
    6.5225   21.9664   36.8051 H   0  0  0  0  0  0  0  0  0  0  0  0
    7.0287   23.6899   36.7828 H   0  0  0  0  0  0  0  0  0  0  0  0
    2.2419   21.6269   40.0124 H   0  0  0  0  0  0  0  0  0  0  0  0
    1.8217   20.7360   38.4623 H   0  0  0  0  0  0  0  0  0  0  0  0
   -1.2332   13.4341   40.5858 H   0  0  0  0  0  0  0  0  0  0  0  0
    0.6129   22.3870   35.7552 H   0  0  0  0  0  0  0  0  0  0  0  0
    0.1917   23.4620   34.5320 H   0  0  0  0  0  0  0  0  0  0  0  0
   -0.4811   21.9207   34.5657 H   0  0  0  0  0  0  0  0  0  0  0  0
   -0.5026   15.4374   36.9480 H   0  0  0  0  0  0  0  0  0  0  0  0
    1.2502   16.7478   38.0130 H   0  0  0  0  0  0  0  0  0  0  0  0
    3.3313   24.1839   31.9923 H   0  0  0  0  0  0  0  0  0  0  0  0
    2.1475   22.9505   31.9534 H   0  0  0  0  0  0  0  0  0  0  0  0
   -1.4672   14.9650   43.0232 H   0  0  0  0  0  0  0  0  0  0  0  0
   -0.8922   13.7401   43.7705 H   0  0  0  0  0  0  0  0  0  0  0  0
    1.6752   26.0698   31.1172 H   0  0  0  0  0  0  0  0  0  0  0  0
    0.6344   25.0164   30.5523 H   0  0  0  0  0  0  0  0  0  0  0  0
    0.7355   25.9668   33.3509 H   0  0  0  0  0  0  0  0  0  0  0  0
   -0.0500   24.4234   33.0376 H   0  0  0  0  0  0  0  0  0  0  0  0
    2.0812   22.5607   36.6621 H   0  0  0  0  0  0  0  0  0  0  0  0
    2.8566   20.9115   36.5532 H   0  0  0  0  0  0  0  0  0  0  0  0
    2.8812   22.8992   32.9123 H   0  0  0  0  0  0  0  0  0  0  0  0
    2.4313   23.4154   34.7932 H   0  0  0  0  0  0  0  0  0  0  0  0
  2 24  1  0
  2  4  1  0
  3 20  1  0
  5 17  1  0
  6  7  1  0
  6  8  1  0
  7 15  1  0
  7  1  2  0
  9 18  1  0
 10 16  1  0
 10 27  1  0
 11 16  2  0
 12 28  1  0
 13  2  1  0
 16 14  1  0
 17 15  1  0
 18 13  2  0
 19 13  1  0
 19  8  1  0
 21 22  1  0
 21  9  2  0
 22 19  2  0
 23 12  1  0
 24  4  1  0
 25 23  1  0
 25 26  1  0
 26 12  1  0
 27  5  1  0
 28  3  1  0
  2 29  1  0
  3 30  1  0
  3 31  1  0
  4 32  1  0
  4 33  1  0
  5 34  1  0
  5 35  1  0
  6 36  1  0
  6 37  1  0
 12 38  1  0
 14 39  1  0
 14 40  1  0
 14 41  1  0
 17 42  1  0
 17 43  1  0
 18 44  1  0
 20 45  1  0
 20 46  1  0
 20 47  1  0
 21 48  1  0
 22 49  1  0
 23 50  1  0
 23 51  1  0
 24 52  1  0
 24 53  1  0
 25 54  1  0
 25 55  1  0
 26 56  1  0
 26 57  1  0
 27 58  1  0
 27 59  1  0
 28 60  1  0
 28 61  1  0
M  CHG  1  20   1
M  END
>  <mol_id>  (72) 
2026-09-18-6fnk-s0-n100-0072

>  <rmsd_to_ref>  (72) 


$$$$

     RDKit          3D

 49 50  0  0  0  0  0  0  0  0999 V2000
    3.7973   20.7748   37.9301 C   0  0  0  0  0  0  0  0  0  0  0  0
    5.5241   22.8580   33.3936 C   0  0  0  0  0  0  0  0  0  0  0  0
    3.5663   21.7500   35.4504 C   0  0  2  0  0  0  0  0  0  0  0  0
    2.6016   21.8603   42.0384 C   0  0  0  0  0  0  0  0  0  0  0  0
    0.5651   22.3838   32.6879 C   0  0  0  0  0  0  0  0  0  0  0  0
    2.8833   20.6391   41.2346 C   0  0  0  0  0  0  0  0  0  0  0  0
    2.3662   21.2596   34.1228 C   0  0  2  0  0  0  0  0  0  0  0  0
    1.8819   21.6998   32.6825 C   0  0  0  0  0  0  0  0  0  0  0  0
    3.0514   19.9092   43.5200 C   0  0  0  0  0  0  0  0  0  0  0  0
    3.6727   20.7739   36.5952 C   0  0  0  0  0  0  0  0  0  0  0  0
    2.4110   21.2924   43.4655 C   0  0  0  0  0  0  0  0  0  0  0  0
    2.6867   20.4021   39.9529 C   0  0  0  0  0  0  0  0  0  0  0  0
    2.7813   20.0022   38.6623 C   0  0  0  0  0  0  0  0  0  0  0  0
    4.5127   23.4630   34.0226 C   0  0  0  0  0  0  0  0  0  0  0  0
    4.3157   22.6320   32.8885 C   0  0  0  0  0  0  0  0  0  0  0  0
    3.2388   19.4632   42.0533 C   0  0  0  0  0  0  0  0  0  0  0  0
    2.3636   22.3684   35.0837 C   0  0  0  0  0  0  0  0  0  0  0  0
    3.7430   21.8180   38.2747 H   0  0  0  0  0  0  0  0  0  0  0  0
    4.7595   20.2864   38.1436 H   0  0  0  0  0  0  0  0  0  0  0  0
    6.2410   23.4649   32.8211 H   0  0  0  0  0  0  0  0  0  0  0  0
    6.3316   22.1938   33.7356 H   0  0  0  0  0  0  0  0  0  0  0  0
    4.6008   22.0891   35.6077 H   0  0  0  0  0  0  0  0  0  0  0  0
    1.6893   22.3646   41.6871 H   0  0  0  0  0  0  0  0  0  0  0  0
    3.3959   22.6185   41.9730 H   0  0  0  0  0  0  0  0  0  0  0  0
    0.2506   22.5657   33.7262 H   0  0  0  0  0  0  0  0  0  0  0  0
    0.6481   23.3432   32.1565 H   0  0  0  0  0  0  0  0  0  0  0  0
   -0.1797   21.7494   32.1850 H   0  0  0  0  0  0  0  0  0  0  0  0
    3.3686   21.4164   40.6262 H   0  0  0  0  0  0  0  0  0  0  0  0
    2.1035   20.2527   33.7660 H   0  0  0  0  0  0  0  0  0  0  0  0
    1.8064   20.8027   32.0505 H   0  0  0  0  0  0  0  0  0  0  0  0
    2.6199   22.4186   32.2971 H   0  0  0  0  0  0  0  0  0  0  0  0
    4.0244   19.9593   44.0307 H   0  0  0  0  0  0  0  0  0  0  0  0
    2.4240   19.1986   44.0781 H   0  0  0  0  0  0  0  0  0  0  0  0
    2.7580   20.1781   36.4609 H   0  0  0  0  0  0  0  0  0  0  0  0
    4.7529   20.6322   36.4424 H   0  0  0  0  0  0  0  0  0  0  0  0
    2.8951   21.9555   44.1975 H   0  0  0  0  0  0  0  0  0  0  0  0
    1.3398   21.2237   43.7061 H   0  0  0  0  0  0  0  0  0  0  0  0
    1.7045   19.9321   40.1093 H   0  0  0  0  0  0  0  0  0  0  0  0
    3.5290   21.0803   39.7508 H   0  0  0  0  0  0  0  0  0  0  0  0
    1.8059   20.1410   38.1730 H   0  0  0  0  0  0  0  0  0  0  0  0
    3.0789   18.9433   38.6506 H   0  0  0  0  0  0  0  0  0  0  0  0
    4.1970   23.1261   35.0211 H   0  0  0  0  0  0  0  0  0  0  0  0
    4.2581   24.4963   34.3008 H   0  0  0  0  0  0  0  0  0  0  0  0
    4.0267   23.0707   31.9221 H   0  0  0  0  0  0  0  0  0  0  0  0
    3.7106   21.7429   32.6572 H   0  0  0  0  0  0  0  0  0  0  0  0
    2.5744   18.6179   41.8208 H   0  0  0  0  0  0  0  0  0  0  0  0
    4.2674   19.1260   41.8578 H   0  0  0  0  0  0  0  0  0  0  0  0
    2.4487   23.3790   34.6576 H   0  0  0  0  0  0  0  0  0  0  0  0
    1.5394   22.6131   35.7700 H   0  0  0  0  0  0  0  0  0  0  0  0
  1 13  1  0
  2 14  1  0
  3 10  1  0
  4 11  1  0
  5  8  1  0
  6  4  1  0
  6 16  1  0
  7  8  1  0
  7 17  1  0
  7  3  1  0
 10  1  1  0
 11  9  1  0
 12  6  1  0
 13 12  1  0
 15  2  1  0
 15 14  1  0
 16  9  1  0
 17  3  1  0
  1 18  1  0
  1 19  1  0
  2 20  1  0
  2 21  1  0
  3 22  1  6
  4 23  1  0
  4 24  1  0
  5 25  1  0
  5 26  1  0
  5 27  1  0
  6 28  1  0
  7 29  1  1
  8 30  1  0
  8 31  1  0
  9 32  1  0
  9 33  1  0
 10 34  1  0
 10 35  1  0
 11 36  1  0
 11 37  1  0
 12 38  1  0
 12 39  1  0
 13 40  1  0
 13 41  1  0
 14 42  1  0
 14 43  1  0
 15 44  1  0
 15 45  1  0
 16 46  1  0
 16 47  1  0
 17 48  1  0
 17 49  1  0
M  END
>  <mol_id>  (73) 
2026-09-18-6fnk-s0-n100-0073

>  <rmsd_to_ref>  (73) 


$$$$

     RDKit          3D

 59 58  0  0  0  0  0  0  0  0999 V2000
    0.3810   25.6570   33.7700 C   0  0  0  0  0  0  0  0  0  0  0  0
    3.6510   19.6540   41.9500 S   0  0  0  0  0  4  0  0  0  0  0  0
   -0.9460   15.6530   38.5460 C   0  0  0  0  0  0  0  0  0  0  0  0
    1.1330   17.2100   37.9800 C   0  0  2  0  0  0  0  0  0  0  0  0
    1.9180   17.8950   36.7270 C   0  0  0  0  0  0  0  0  0  0  0  0
    3.1370   22.5240   33.7270 F   0  0  0  0  0  0  0  0  0  0  0  0
    2.7210   20.1040   40.5620 C   0  0  1  0  0  0  0  0  0  0  0  0
    3.9840   17.4010   35.3920 O   0  0  0  0  0  0  0  0  0  0  0  0
    2.1440   23.4460   33.6830 C   0  0  0  0  0  0  0  0  0  0  0  0
    2.5700   19.3290   39.1360 C   0  0  2  0  0  0  0  0  0  0  0  0
    1.5850   21.2770   40.6060 C   0  0  0  0  0  0  0  0  0  0  0  0
    0.7200   26.0680   31.0540 S   0  0  0  0  0  0  0  0  0  0  0  0
    2.8760   20.6240   37.9930 S   0  0  0  0  0  0  0  0  0  0  0  0
    1.9300   19.0070   36.1610 O   0  0  0  0  0  0  0  0  0  0  0  0
   -0.4150   16.6880   38.5300 O   0  0  0  0  0  0  0  0  0  0  0  0
    1.2490   23.5480   34.7240 C   0  0  0  0  0  0  0  0  0  0  0  0
    2.5310   19.2460   43.1200 C   0  0  0  0  0  0  0  0  0  0  0  0
    2.0030   24.3050   32.4950 C   0  0  0  0  0  0  0  0  0  0  0  0
    4.0350   21.0270   42.1290 C   0  0  0  0  0  0  0  0  0  0  0  0
    3.0960   16.9360   36.4910 C   0  0  0  0  0  0  0  0  0  0  0  0
    0.3960   24.7130   34.7910 C   0  0  0  0  0  0  0  0  0  0  0  0
    0.7330   17.2250   41.4040 O   0  0  0  0  0  0  0  0  0  0  0  0
    1.1860   22.4160   35.6970 C   0  0  0  0  0  0  0  0  0  0  0  0
    1.5730   18.3090   39.1380 C   0  0  2  0  0  0  0  0  0  0  0  0
    1.0670   25.2940   32.5670 C   0  0  0  0  0  0  0  0  0  0  0  0
   -0.4100   27.0100   33.8740 C   0  0  0  0  0  0  0  0  0  0  0  0
    1.4720   17.4910   40.3370 N   0  0  0  0  0  0  0  0  0  0  0  0
    4.6040   18.6701   41.9268 H   0  0  0  0  0  0  0  0  0  0  0  0
   -1.1068   15.3395   39.5880 H   0  0  0  0  0  0  0  0  0  0  0  0
   -1.9157   15.7304   38.0325 H   0  0  0  0  0  0  0  0  0  0  0  0
   -0.3175   14.9105   38.0325 H   0  0  0  0  0  0  0  0  0  0  0  0
    1.3317   16.1794   37.6509 H   0  0  0  0  0  0  0  0  0  0  0  0
    3.8006   20.1792   40.7590 H   0  0  0  0  0  0  0  0  0  0  0  0
    4.7919   17.8241   35.7772 H   0  0  0  0  0  0  0  0  0  0  0  0
    3.2518   18.5420   38.7814 H   0  0  0  0  0  0  0  0  0  0  0  0
    1.3494   21.5202   41.6526 H   0  0  0  0  0  0  0  0  0  0  0  0
    1.9655   22.1752   40.0975 H   0  0  0  0  0  0  0  0  0  0  0  0
    0.6751   20.9255   40.0975 H   0  0  0  0  0  0  0  0  0  0  0  0
    0.1677   27.2999   31.2873 H   0  0  0  0  0  0  0  0  0  0  0  0
    3.1492   21.7802   38.6753 H   0  0  0  0  0  0  0  0  0  0  0  0
    2.9677   19.4051   44.1170 H   0  0  0  0  0  0  0  0  0  0  0  0
    1.6364   19.8760   43.0068 H   0  0  0  0  0  0  0  0  0  0  0  0
    2.2513   18.1882   43.0068 H   0  0  0  0  0  0  0  0  0  0  0  0
    2.6204   24.1565   31.5968 H   0  0  0  0  0  0  0  0  0  0  0  0
    4.0982   21.2529   43.2037 H   0  0  0  0  0  0  0  0  0  0  0  0
    5.0153   21.1977   41.6602 H   0  0  0  0  0  0  0  0  0  0  0  0
    3.2854   21.6815   41.6602 H   0  0  0  0  0  0  0  0  0  0  0  0
    2.6990   15.9437   36.2306 H   0  0  0  0  0  0  0  0  0  0  0  0
    3.6919   16.8973   37.4148 H   0  0  0  0  0  0  0  0  0  0  0  0
   -0.2541   24.8557   35.6668 H   0  0  0  0  0  0  0  0  0  0  0  0
    1.2562   17.4133   42.2231 H   0  0  0  0  0  0  0  0  0  0  0  0
    1.2081   22.8126   36.7228 H   0  0  0  0  0  0  0  0  0  0  0  0
    0.2550   21.8509   35.5423 H   0  0  0  0  0  0  0  0  0  0  0  0
    2.0485   21.7511   35.5423 H   0  0  0  0  0  0  0  0  0  0  0  0
    0.9467   19.1880   38.9256 H   0  0  0  0  0  0  0  0  0  0  0  0
   -0.5600   27.2666   34.9331 H   0  0  0  0  0  0  0  0  0  0  0  0
    0.1634   27.8088   33.3809 H   0  0  0  0  0  0  0  0  0  0  0  0
   -1.3873   26.9022   33.3809 H   0  0  0  0  0  0  0  0  0  0  0  0
    1.5325   16.5511   39.9202 H   0  0  0  0  0  0  0  0  0  0  0  0
  1 26  1  0
  1 21  1  0
  2 19  1  0
  2 17  1  0
  4  5  1  0
  4 15  1  0
  4 24  1  0
  7 11  1  0
  7  2  1  0
  8 20  1  0
  9  6  1  0
  9 16  1  0
 10 13  1  0
 10 24  1  0
 10  7  1  0
 12 25  1  0
 14  5  2  0
 15  3  1  0
 16 21  2  0
 16 23  1  0
 18 25  1  0
 18  9  2  0
 20  5  1  0
 24 27  1  0
 25  1  2  0
 27 22  1  0
  2 28  1  0
  3 29  1  0
  3 30  1  0
  3 31  1  0
  4 32  1  1
  7 33  1  6
  8 34  1  0
 10 35  1  1
 11 36  1  0
 11 37  1  0
 11 38  1  0
 12 39  1  0
 13 40  1  0
 17 41  1  0
 17 42  1  0
 17 43  1  0
 18 44  1  0
 19 45  1  0
 19 46  1  0
 19 47  1  0
 20 48  1  0
 20 49  1  0
 21 50  1  0
 22 51  1  0
 23 52  1  0
 23 53  1  0
 23 54  1  0
 24 55  1  1
 26 56  1  0
 26 57  1  0
 26 58  1  0
 27 59  1  0
M  END
>  <mol_id>  (74) 
2026-09-18-6fnk-s0-n100-0074

>  <rmsd_to_ref>  (74) 


$$$$

     RDKit          3D

 63 65  0  0  0  0  0  0  0  0999 V2000
   -3.3029   15.4106   39.3971 C   0  0  0  0  0  0  0  0  0  0  0  0
    4.3587   19.9561   39.7814 O   0  0  0  0  0  0  0  0  0  0  0  0
    7.6075   23.3796   35.5729 C   0  0  0  0  0  0  0  0  0  0  0  0
    3.2413   24.8341   35.1963 C   0  0  1  0  0  0  0  0  0  0  0  0
    1.9307   25.5669   33.9459 S   0  0  0  0  0  0  0  0  0  0  0  0
    4.1577   26.0484   35.3645 C   0  0  0  0  0  0  0  0  0  0  0  0
    0.1829   16.2537   39.6945 C   0  0  0  0  0  0  0  0  0  0  0  0
    4.9759   25.5618   33.0629 N   0  0  0  0  0  0  0  0  0  0  0  0
    6.5172   22.8581   35.8824 C   0  0  0  0  0  0  0  0  0  0  0  0
    1.5484   17.7686   38.5798 C   0  0  0  0  0  0  0  0  0  0  0  0
    5.2863   22.9684   36.6566 C   0  0  2  0  0  0  0  0  0  0  0  0
    5.5189   23.9954   37.6056 O   0  0  0  0  0  0  0  0  0  0  0  0
    0.0286   16.4024   38.3300 C   0  0  2  0  0  0  0  0  0  0  0  0
   -0.8852   15.3010   40.0223 O   0  0  0  0  0  0  0  0  0  0  0  0
    3.4780   19.3374   37.1631 O   0  0  0  0  0  0  0  0  0  0  0  0
   -0.6718   15.9654   37.1807 C   0  0  0  0  0  0  0  0  0  0  0  0
    1.2938   16.9502   37.5192 C   0  0  0  0  0  0  0  0  0  0  0  0
    4.1136   20.0865   38.3335 S   0  0  0  0  0  6  0  0  0  0  0  0
   -2.0480   15.1724   39.2708 C   0  0  2  0  0  0  0  0  0  0  0  0
    1.9909   24.5323   35.3698 C   0  0  0  0  0  0  0  0  0  0  0  0
    4.5771   21.6529   37.5409 C   0  0  2  0  0  0  0  0  0  0  0  0
   -3.0888   14.2064   40.2660 C   0  0  1  0  0  0  0  0  0  0  0  0
    2.1696   20.6331   39.3528 S   0  0  0  0  0  0  0  0  0  0  0  0
    2.9357   25.6717   32.5463 C   0  0  0  0  0  0  0  0  0  0  0  0
   -2.2235   13.7668   41.2834 C   0  0  0  0  0  0  0  0  0  0  0  0
    1.3067   18.7790   39.5701 C   0  0  0  0  0  0  0  0  0  0  0  0
   -2.2510   13.9275   38.5481 S   0  0  0  0  0  0  0  0  0  0  0  0
    3.5623   22.3681   36.4661 S   0  0  0  0  0  0  0  0  0  0  0  0
    4.5668   24.8680   34.5218 C   0  0  2  0  0  0  0  0  0  0  0  0
   -3.5841   16.3462   39.9025 H   0  0  0  0  0  0  0  0  0  0  0  0
   -4.0431   15.5283   38.5920 H   0  0  0  0  0  0  0  0  0  0  0  0
    8.2835   22.8668   34.8729 H   0  0  0  0  0  0  0  0  0  0  0  0
    7.8929   24.3523   36.0002 H   0  0  0  0  0  0  0  0  0  0  0  0
    2.5295   24.0450   35.4801 H   0  0  0  0  0  0  0  0  0  0  0  0
    3.9008   27.0061   34.8884 H   0  0  0  0  0  0  0  0  0  0  0  0
    4.5910   26.5938   36.2158 H   0  0  0  0  0  0  0  0  0  0  0  0
    0.0399   17.2100   40.2191 H   0  0  0  0  0  0  0  0  0  0  0  0
    1.1858   15.9142   39.9923 H   0  0  0  0  0  0  0  0  0  0  0  0
    5.8151   26.1467   33.1842 H   0  0  0  0  0  0  0  0  0  0  0  0
    5.1698   24.8218   32.3732 H   0  0  0  0  0  0  0  0  0  0  0  0
    4.1957   26.1458   32.7297 H   0  0  0  0  0  0  0  0  0  0  0  0
    6.4595   21.9050   35.3362 H   0  0  0  0  0  0  0  0  0  0  0  0
    2.4625   18.2204   38.1669 H   0  0  0  0  0  0  0  0  0  0  0  0
    0.9252   17.0949   39.1861 H   0  0  0  0  0  0  0  0  0  0  0  0
    5.7128   23.5914   38.4883 H   0  0  0  0  0  0  0  0  0  0  0  0
   -0.8169   16.5555   39.0167 H   0  0  0  0  0  0  0  0  0  0  0  0
   -1.2874   15.0906   37.4369 H   0  0  0  0  0  0  0  0  0  0  0  0
   -1.3200   16.7758   36.8161 H   0  0  0  0  0  0  0  0  0  0  0  0
    0.0478   15.6900   36.3955 H   0  0  0  0  0  0  0  0  0  0  0  0
    2.0728   16.1987   37.3230 H   0  0  0  0  0  0  0  0  0  0  0  0
    1.1979   17.3436   36.4965 H   0  0  0  0  0  0  0  0  0  0  0  0
    1.7124   23.4778   35.2268 H   0  0  0  0  0  0  0  0  0  0  0  0
    1.4076   24.6519   36.2948 H   0  0  0  0  0  0  0  0  0  0  0  0
    5.1305   21.2597   38.4064 H   0  0  0  0  0  0  0  0  0  0  0  0
    3.9917   25.6106   32.8478 H   0  0  0  0  0  0  0  0  0  0  0  0
    2.7009   24.8419   31.8634 H   0  0  0  0  0  0  0  0  0  0  0  0
    2.7548   26.6292   32.0359 H   0  0  0  0  0  0  0  0  0  0  0  0
   -2.6575   14.0101   42.2645 H   0  0  0  0  0  0  0  0  0  0  0  0
   -2.0861   12.6783   41.2031 H   0  0  0  0  0  0  0  0  0  0  0  0
   -1.2499   14.2679   41.1787 H   0  0  0  0  0  0  0  0  0  0  0  0
    0.2185   18.9348   39.6099 H   0  0  0  0  0  0  0  0  0  0  0  0
    1.7847   18.3750   40.4747 H   0  0  0  0  0  0  0  0  0  0  0  0
    5.2401   24.0040   34.4210 H   0  0  0  0  0  0  0  0  0  0  0  0
  1 19  1  0
  1 22  1  0
  3  9  2  3
  4 20  1  0
  4  6  1  0
  5 20  1  0
  7 14  1  0
  9 11  1  0
 10 26  1  0
 11 21  1  0
 11 12  1  1
 13 16  1  0
 13  7  1  0
 15 18  2  0
 17 13  1  0
 17 10  1  0
 18 23  1  0
 18  2  2  0
 19 22  1  0
 19 14  1  1
 21 18  1  0
 22 25  1  1
 23 26  1  0
 24  5  1  0
 27 19  1  0
 27 22  1  0
 28 11  1  0
 28 21  1  0
 29  8  1  0
 29  4  1  0
 29  6  1  0
  1 30  1  0
  1 31  1  0
  3 32  1  0
  3 33  1  0
  4 34  1  1
  6 35  1  0
  6 36  1  0
  7 37  1  0
  7 38  1  0
  8 39  1  0
  8 40  1  0
  8 41  1  0
  9 42  1  0
 10 43  1  0
 10 44  1  0
 12 45  1  0
 13 46  1  1
 16 47  1  0
 16 48  1  0
 16 49  1  0
 17 50  1  0
 17 51  1  0
 20 52  1  0
 20 53  1  0
 21 54  1  1
 24 55  1  0
 24 56  1  0
 24 57  1  0
 25 58  1  0
 25 59  1  0
 25 60  1  0
 26 61  1  0
 26 62  1  0
 29 63  1  1
M  CHG  1   8   1
M  END
>  <mol_id>  (75) 
2026-09-18-6fnk-s0-n100-0075

>  <rmsd_to_ref>  (75) 


$$$$

     RDKit          3D

 69 69  0  0  0  0  0  0  0  0999 V2000
    3.0204   20.5817   39.2575 C   0  0  0  0  0  0  0  0  0  0  0  0
    3.0782   24.2768   33.4363 C   0  0  0  0  0  0  0  0  0  0  0  0
    1.4554   26.2272   33.1842 C   0  0  0  0  0  0  0  0  0  0  0  0
    2.2166   18.4947   40.6202 N   0  0  0  0  0  0  0  0  0  0  0  0
    6.0215   23.2239   36.9756 O   0  0  0  0  0  0  0  0  0  0  0  0
   -0.7243   15.0151   39.4814 C   0  0  1  0  0  0  0  0  0  0  0  0
   -0.1161   15.9100   37.3406 C   0  0  0  0  0  0  0  0  0  0  0  0
    0.8733   16.5825   40.4660 C   0  0  0  0  0  0  0  0  0  0  0  0
    4.1985   22.9138   35.3760 C   0  0  2  0  0  0  0  0  0  0  0  0
    0.8955   16.8166   37.7236 C   0  0  0  0  0  0  0  0  0  0  0  0
    5.4760   23.6901   35.7594 C   0  0  0  0  0  0  0  0  0  0  0  0
    2.4835   19.6148   39.8013 N   0  0  0  0  0  0  0  0  0  0  0  0
   -1.7758   14.1836   40.0567 C   0  0  0  0  0  0  0  0  0  0  0  0
    2.9333   23.4646   34.8267 C   0  0  0  0  0  0  0  0  0  0  0  0
    2.6464   21.9514   37.0634 C   0  0  0  0  0  0  0  0  0  0  0  0
    0.2178   26.2438   34.0024 C   0  0  0  0  0  0  0  0  0  0  0  0
    1.5505   26.8159   31.9440 C   0  0  0  0  0  0  0  0  0  0  0  0
    1.6733   17.7510   38.4525 N   0  0  0  0  0  0  0  0  0  0  0  0
    0.7163   15.3756   39.6614 C   0  0  0  0  0  0  0  0  0  0  0  0
    3.9873   22.2104   36.6791 N   0  0  0  0  0  0  0  0  0  0  0  0
   -1.0550   14.8745   37.9503 C   0  0  0  0  0  0  0  0  0  0  0  0
    1.7036   17.5591   39.6230 C   0  0  1  0  0  0  0  0  0  0  0  0
    2.4290   18.5171   42.1227 C   0  0  0  0  0  0  0  0  0  0  0  0
    2.5459   25.5606   33.5655 N   0  0  0  0  0  0  0  0  0  0  0  0
    2.7355   20.7347   37.9262 C   0  0  0  0  0  0  0  0  0  0  0  0
    2.6940   21.4918   39.7821 H   0  0  0  0  0  0  0  0  0  0  0  0
    4.1042   20.4036   39.3191 H   0  0  0  0  0  0  0  0  0  0  0  0
    2.5376   23.7383   32.6439 H   0  0  0  0  0  0  0  0  0  0  0  0
    4.1447   24.3568   33.1789 H   0  0  0  0  0  0  0  0  0  0  0  0
    5.4914   23.5791   37.7325 H   0  0  0  0  0  0  0  0  0  0  0  0
   -0.7808   15.7552   40.2932 H   0  0  0  0  0  0  0  0  0  0  0  0
   -0.8302   16.5816   36.8416 H   0  0  0  0  0  0  0  0  0  0  0  0
    0.6167   15.1428   37.0500 H   0  0  0  0  0  0  0  0  0  0  0  0
   -0.1106   17.0183   40.6944 H   0  0  0  0  0  0  0  0  0  0  0  0
    1.3674   16.3622   41.4237 H   0  0  0  0  0  0  0  0  0  0  0  0
    4.4082   22.4020   34.4252 H   0  0  0  0  0  0  0  0  0  0  0  0
    1.7213   16.1062   37.5704 H   0  0  0  0  0  0  0  0  0  0  0  0
    0.1535   17.6178   37.5916 H   0  0  0  0  0  0  0  0  0  0  0  0
    6.2230   23.5647   34.9617 H   0  0  0  0  0  0  0  0  0  0  0  0
    5.2103   24.7500   35.8850 H   0  0  0  0  0  0  0  0  0  0  0  0
    1.6502   20.1399   40.1026 H   0  0  0  0  0  0  0  0  0  0  0  0
   -1.7656   14.2852   41.1519 H   0  0  0  0  0  0  0  0  0  0  0  0
   -2.7527   14.5066   39.6676 H   0  0  0  0  0  0  0  0  0  0  0  0
   -1.6021   13.1321   39.7842 H   0  0  0  0  0  0  0  0  0  0  0  0
    2.5066   24.1475   35.5761 H   0  0  0  0  0  0  0  0  0  0  0  0
    2.2947   22.5965   34.6062 H   0  0  0  0  0  0  0  0  0  0  0  0
    2.0190   21.7576   36.1809 H   0  0  0  0  0  0  0  0  0  0  0  0
    2.1881   22.8036   37.5865 H   0  0  0  0  0  0  0  0  0  0  0  0
    0.4840   26.2561   35.0696 H   0  0  0  0  0  0  0  0  0  0  0  0
   -0.3696   27.1419   33.7607 H   0  0  0  0  0  0  0  0  0  0  0  0
   -0.3786   25.3458   33.7835 H   0  0  0  0  0  0  0  0  0  0  0  0
    0.7025   27.3886   31.5405 H   0  0  0  0  0  0  0  0  0  0  0  0
    2.4747   26.7137   31.3562 H   0  0  0  0  0  0  0  0  0  0  0  0
    2.6387   17.7140   38.0954 H   0  0  0  0  0  0  0  0  0  0  0  0
    1.2290   18.6704   38.3177 H   0  0  0  0  0  0  0  0  0  0  0  0
    1.2324   14.5433   40.1624 H   0  0  0  0  0  0  0  0  0  0  0  0
    1.1491   15.5665   38.6682 H   0  0  0  0  0  0  0  0  0  0  0  0
    4.4752   21.3049   36.6256 H   0  0  0  0  0  0  0  0  0  0  0  0
    4.3489   22.8584   37.3934 H   0  0  0  0  0  0  0  0  0  0  0  0
   -2.1081   15.1154   37.7428 H   0  0  0  0  0  0  0  0  0  0  0  0
   -0.9198   13.8575   37.5536 H   0  0  0  0  0  0  0  0  0  0  0  0
    2.3503   17.0617   38.8851 H   0  0  0  0  0  0  0  0  0  0  0  0
    1.4535   18.5164   42.6310 H   0  0  0  0  0  0  0  0  0  0  0  0
    3.0009   17.6276   42.4255 H   0  0  0  0  0  0  0  0  0  0  0  0
    2.9866   19.4237   42.4007 H   0  0  0  0  0  0  0  0  0  0  0  0
    2.5194   25.6775   34.5885 H   0  0  0  0  0  0  0  0  0  0  0  0
    3.1207   25.9419   32.8006 H   0  0  0  0  0  0  0  0  0  0  0  0
    1.7470   20.2648   37.8160 H   0  0  0  0  0  0  0  0  0  0  0  0
    3.7045   20.3790   37.5461 H   0  0  0  0  0  0  0  0  0  0  0  0
  1 12  1  0
  2 24  1  0
  2 14  1  0
  3 24  1  0
  3 16  1  0
  4 23  1  0
  6 19  1  0
  6 13  1  0
  7 10  1  0
  7 21  1  0
  9 14  1  0
  9 11  1  0
  9 20  1  0
 10 18  1  0
 11  5  1  0
 12  4  1  0
 15 25  1  0
 17  3  2  3
 18 22  1  0
 19  8  1  0
 20 15  1  0
 21  6  1  0
 22  8  1  0
 22  4  1  0
 25  1  1  0
  1 26  1  0
  1 27  1  0
  2 28  1  0
  2 29  1  0
  5 30  1  0
  6 31  1  1
  7 32  1  0
  7 33  1  0
  8 34  1  0
  8 35  1  0
  9 36  1  6
 10 37  1  0
 10 38  1  0
 11 39  1  0
 11 40  1  0
 12 41  1  0
 13 42  1  0
 13 43  1  0
 13 44  1  0
 14 45  1  0
 14 46  1  0
 15 47  1  0
 15 48  1  0
 16 49  1  0
 16 50  1  0
 16 51  1  0
 17 52  1  0
 17 53  1  0
 18 54  1  0
 18 55  1  0
 19 56  1  0
 19 57  1  0
 20 58  1  0
 20 59  1  0
 21 60  1  0
 21 61  1  0
 22 62  1  6
 23 63  1  0
 23 64  1  0
 23 65  1  0
 24 66  1  0
 24 67  1  0
 25 68  1  0
 25 69  1  0
M  CHG  3  18   1  20   1  24   1
M  END
>  <mol_id>  (76) 
2026-09-18-6fnk-s0-n100-0076

>  <rmsd_to_ref>  (76) 


$$$$

     RDKit          3D

 57 57  0  0  0  0  0  0  0  0999 V2000
   -2.7582   13.6163   39.3914 O   0  0  0  0  0  0  0  0  0  0  0  0
    2.4827   19.6904   37.3193 C   0  0  0  0  0  0  0  0  0  0  0  0
    3.4456   24.7852   34.0976 C   0  0  0  0  0  0  0  0  0  0  0  0
    0.7749   24.2263   34.7657 C   0  0  0  0  0  0  0  0  0  0  0  0
    0.3229   15.4414   38.3116 C   0  0  0  0  0  0  0  0  0  0  0  0
    3.7098   24.1237   35.3132 C   0  0  0  0  0  0  0  0  0  0  0  0
    0.3340   16.4881   37.1156 C   0  0  0  0  0  0  0  0  0  0  0  0
   -0.6798   13.1556   39.7741 O   0  0  0  0  0  0  0  0  0  0  0  0
    3.0033   22.2446   36.7103 N   0  0  0  0  0  0  0  0  0  0  0  0
    4.6347   19.5311   42.8854 C   0  0  0  0  0  0  0  0  0  0  0  0
    4.9030   24.1033   36.0581 F   0  0  0  0  0  0  0  0  0  0  0  0
    2.3637   20.5908   38.4422 C   0  0  0  0  0  0  0  0  0  0  0  0
   -1.1661   15.0380   38.4664 C   0  0  0  0  0  0  0  0  0  0  0  0
    1.3922   17.2198   36.7958 N   0  0  0  0  0  0  0  0  0  0  0  0
    4.4729   20.8872   42.4932 O   0  0  0  0  0  0  0  0  0  0  0  0
    2.1812   18.1731   37.7459 N   0  0  0  0  0  0  0  0  0  0  0  0
    0.8842   24.8546   33.4953 C   0  0  0  0  0  0  0  0  0  0  0  0
   -1.5012   13.8692   39.3500 C   0  0  0  0  0  0  0  0  0  0  0  0
    3.6663   20.8881   41.0101 C   0  0  0  0  0  0  0  0  0  0  0  0
    1.4292   23.5314   35.8002 C   0  0  0  0  0  0  0  0  0  0  0  0
    4.2826   22.3154   38.8521 C   0  0  0  0  0  0  0  0  0  0  0  0
    2.9830   22.0116   38.2268 C   0  0  1  0  0  0  0  0  0  0  0  0
    2.7684   23.3469   36.0128 C   0  0  2  0  0  0  0  0  0  0  0  0
    2.3156   24.9881   33.2315 C   0  0  0  0  0  0  0  0  0  0  0  0
    4.6193   21.6109   40.0190 C   0  0  0  0  0  0  0  0  0  0  0  0
    3.5052   19.7524   36.9186 H   0  0  0  0  0  0  0  0  0  0  0  0
    1.7449   19.9878   36.5596 H   0  0  0  0  0  0  0  0  0  0  0  0
    4.3464   25.2798   33.7053 H   0  0  0  0  0  0  0  0  0  0  0  0
   -0.2764   24.3267   35.0738 H   0  0  0  0  0  0  0  0  0  0  0  0
    0.6976   15.9047   39.2362 H   0  0  0  0  0  0  0  0  0  0  0  0
    0.9707   14.5749   38.1129 H   0  0  0  0  0  0  0  0  0  0  0  0
    0.0800   15.9150   36.2117 H   0  0  0  0  0  0  0  0  0  0  0  0
   -0.3533   17.2579   37.4965 H   0  0  0  0  0  0  0  0  0  0  0  0
    3.9533   21.9657   36.4263 H   0  0  0  0  0  0  0  0  0  0  0  0
    2.1255   21.7541   36.4868 H   0  0  0  0  0  0  0  0  0  0  0  0
    4.6382   19.4648   43.9834 H   0  0  0  0  0  0  0  0  0  0  0  0
    3.8039   18.9318   42.4846 H   0  0  0  0  0  0  0  0  0  0  0  0
    5.5873   19.1466   42.4918 H   0  0  0  0  0  0  0  0  0  0  0  0
    1.2940   20.7164   38.6656 H   0  0  0  0  0  0  0  0  0  0  0  0
    2.9336   20.1312   39.2631 H   0  0  0  0  0  0  0  0  0  0  0  0
   -1.7001   15.9123   38.8670 H   0  0  0  0  0  0  0  0  0  0  0  0
   -1.4639   14.7102   37.4595 H   0  0  0  0  0  0  0  0  0  0  0  0
    2.0907   16.5452   36.4527 H   0  0  0  0  0  0  0  0  0  0  0  0
    3.0945   17.7285   37.9163 H   0  0  0  0  0  0  0  0  0  0  0  0
    0.4094   24.2346   32.7205 H   0  0  0  0  0  0  0  0  0  0  0  0
    0.3807   25.8326   33.4856 H   0  0  0  0  0  0  0  0  0  0  0  0
    3.4742   19.8577   40.6764 H   0  0  0  0  0  0  0  0  0  0  0  0
    2.6901   21.3907   41.0771 H   0  0  0  0  0  0  0  0  0  0  0  0
    0.7672   23.0690   36.5471 H   0  0  0  0  0  0  0  0  0  0  0  0
    4.2864   23.3869   39.1010 H   0  0  0  0  0  0  0  0  0  0  0  0
    5.0316   22.0031   38.1094 H   0  0  0  0  0  0  0  0  0  0  0  0
    2.3419   22.7180   38.7744 H   0  0  0  0  0  0  0  0  0  0  0  0
    3.3920   24.0292   36.6091 H   0  0  0  0  0  0  0  0  0  0  0  0
    2.4969   24.3013   32.3915 H   0  0  0  0  0  0  0  0  0  0  0  0
    2.3524   26.0872   33.2069 H   0  0  0  0  0  0  0  0  0  0  0  0
    5.3142   20.8282   39.6806 H   0  0  0  0  0  0  0  0  0  0  0  0
    4.8998   22.4652   40.6527 H   0  0  0  0  0  0  0  0  0  0  0  0
  2 16  1  0
  2 12  1  0
  3  6  2  0
  4 20  2  0
  5 13  1  0
  6 23  1  0
  6 11  1  0
  7  5  1  0
  9 22  1  0
 13 18  1  0
 14  7  1  0
 14 16  1  0
 15 10  1  0
 17  4  1  0
 18  1  2  0
 18  8  1  0
 19 15  1  0
 20 23  1  0
 21 25  1  0
 22 12  1  0
 22 21  1  0
 23  9  1  0
 24 17  1  0
 24  3  1  0
 25 19  1  0
  2 26  1  0
  2 27  1  0
  3 28  1  0
  4 29  1  0
  5 30  1  0
  5 31  1  0
  7 32  1  0
  7 33  1  0
  9 34  1  0
  9 35  1  0
 10 36  1  0
 10 37  1  0
 10 38  1  0
 12 39  1  0
 12 40  1  0
 13 41  1  0
 13 42  1  0
 14 43  1  0
 16 44  1  0
 17 45  1  0
 17 46  1  0
 19 47  1  0
 19 48  1  0
 20 49  1  0
 21 50  1  0
 21 51  1  0
 22 52  1  1
 23 53  1  1
 24 54  1  0
 24 55  1  0
 25 56  1  0
 25 57  1  0
M  CHG  2   8  -1   9   1
M  END
>  <mol_id>  (77) 
2026-09-18-6fnk-s0-n100-0077

>  <rmsd_to_ref>  (77) 


$$$$

     RDKit          3D

 59 59  0  0  0  0  0  0  0  0999 V2000
    0.3355   18.3323   41.8086 C   0  0  0  0  0  0  0  0  0  0  0  0
    1.2369   19.3035   41.0031 C   0  0  0  0  0  0  0  0  0  0  0  0
    3.3137   24.6065   33.5851 C   0  0  0  0  0  0  0  0  0  0  0  0
    0.8232   18.4553   45.7403 C   0  0  0  0  0  0  0  0  0  0  0  0
    2.8324   20.6596   37.9963 N   0  0  0  0  0  0  0  0  0  0  0  0
    2.2015   20.4713   39.1539 C   0  0  0  0  0  0  0  0  0  0  0  0
    0.0284   16.5999   37.4827 C   0  0  0  0  0  0  0  0  0  0  0  0
   -0.4622   17.7703   37.2564 N   0  0  0  0  0  0  0  0  0  0  0  0
   -0.0466   19.6658   45.9588 C   0  0  0  0  0  0  0  0  0  0  0  0
   -0.2665   20.1738   44.5547 C   0  0  0  0  0  0  0  0  0  0  0  0
    0.8787   20.9466   44.1271 C   0  0  0  0  0  0  0  0  0  0  0  0
    1.4147   25.7641   34.5241 C   0  0  0  0  0  0  0  0  0  0  0  0
    0.1847   18.7518   37.7632 O   0  0  0  0  0  0  0  0  0  0  0  0
    4.7191   22.1283   37.5387 C   0  0  0  0  0  0  0  0  0  0  0  0
    1.1605   18.1987   38.6857 C   0  0  0  0  0  0  0  0  0  0  0  0
    2.2646   21.5247   40.4762 S   0  0  0  0  0  0  0  0  0  0  0  0
    3.1362   21.9153   35.2461 O   0  0  0  0  0  0  0  0  0  0  0  0
    1.5205   19.2444   39.5928 C   0  0  0  0  0  0  0  0  0  0  0  0
    2.5257   26.6822   32.3204 C   0  0  0  0  0  0  0  0  0  0  0  0
    4.1039   23.7772   34.3470 C   0  0  0  0  0  0  0  0  0  0  0  0
    2.7234   26.1452   33.6668 C   0  0  2  0  0  0  0  0  0  0  0  0
    1.3635   21.1574   42.9235 C   0  0  0  0  0  0  0  0  0  0  0  0
    1.1036   26.8282   31.7582 C   0  0  0  0  0  0  0  0  0  0  0  0
    1.0362   16.9107   38.5164 C   0  0  0  0  0  0  0  0  0  0  0  0
    1.5766   20.5402   41.6717 C   0  0  0  0  0  0  0  0  0  0  0  0
    3.8811   22.5843   35.0289 C   0  0  0  0  0  0  0  0  0  0  0  0
    3.8816   21.3601   37.7275 C   0  0  0  0  0  0  0  0  0  0  0  0
    0.5214   18.4665   42.8843 H   0  0  0  0  0  0  0  0  0  0  0  0
   -0.7211   18.5459   41.5896 H   0  0  0  0  0  0  0  0  0  0  0  0
    0.5667   17.2954   41.5230 H   0  0  0  0  0  0  0  0  0  0  0  0
    2.3932   24.0134   33.4809 H   0  0  0  0  0  0  0  0  0  0  0  0
    4.1366   24.8844   32.9102 H   0  0  0  0  0  0  0  0  0  0  0  0
    1.2133   18.1048   46.7073 H   0  0  0  0  0  0  0  0  0  0  0  0
    0.2288   17.6563   45.2732 H   0  0  0  0  0  0  0  0  0  0  0  0
    1.6625   18.7211   45.0809 H   0  0  0  0  0  0  0  0  0  0  0  0
    2.4183   20.1698   37.1904 H   0  0  0  0  0  0  0  0  0  0  0  0
   -0.2327   15.6324   37.0292 H   0  0  0  0  0  0  0  0  0  0  0  0
   -0.9992   19.3892   46.4344 H   0  0  0  0  0  0  0  0  0  0  0  0
    0.4052   20.4130   46.6278 H   0  0  0  0  0  0  0  0  0  0  0  0
   -0.4049   19.3200   43.8751 H   0  0  0  0  0  0  0  0  0  0  0  0
   -1.1621   20.8121   44.5361 H   0  0  0  0  0  0  0  0  0  0  0  0
    0.6779   21.9566   44.5140 H   0  0  0  0  0  0  0  0  0  0  0  0
    1.6558   20.2483   44.4714 H   0  0  0  0  0  0  0  0  0  0  0  0
    1.6409   25.8523   35.5971 H   0  0  0  0  0  0  0  0  0  0  0  0
    0.5942   26.4492   34.2648 H   0  0  0  0  0  0  0  0  0  0  0  0
    1.1152   24.7305   34.2962 H   0  0  0  0  0  0  0  0  0  0  0  0
    5.5188   22.8617   37.3584 H   0  0  0  0  0  0  0  0  0  0  0  0
    2.9778   27.6849   32.3078 H   0  0  0  0  0  0  0  0  0  0  0  0
    2.9793   25.9183   31.6718 H   0  0  0  0  0  0  0  0  0  0  0  0
    4.9263   23.5214   33.6628 H   0  0  0  0  0  0  0  0  0  0  0  0
    4.0865   24.4136   35.2440 H   0  0  0  0  0  0  0  0  0  0  0  0
    3.3201   26.9564   34.1091 H   0  0  0  0  0  0  0  0  0  0  0  0
    0.7736   22.0344   42.6186 H   0  0  0  0  0  0  0  0  0  0  0  0
    2.3768   20.8892   43.2569 H   0  0  0  0  0  0  0  0  0  0  0  0
    0.3942   26.9684   32.5871 H   0  0  0  0  0  0  0  0  0  0  0  0
    1.0618   27.6999   31.0885 H   0  0  0  0  0  0  0  0  0  0  0  0
    0.8365   25.9211   31.1963 H   0  0  0  0  0  0  0  0  0  0  0  0
    1.6088   16.1537   39.0724 H   0  0  0  0  0  0  0  0  0  0  0  0
    4.8211   22.2461   35.4896 H   0  0  0  0  0  0  0  0  0  0  0  0
  2  1  1  0
  2 25  2  0
  3 21  1  0
  3 20  1  0
  4  9  1  0
  5  6  1  0
  6 18  2  0
  6 16  1  0
  7 24  1  0
  8  7  2  0
  8 13  1  0
 10  9  1  0
 11 10  1  0
 13 15  1  0
 14 27  3  0
 15 18  1  0
 16 25  1  0
 18  2  1  0
 19 21  1  0
 20 26  1  0
 21 12  1  0
 22 11  1  0
 23 19  1  0
 24 15  2  0
 25 22  1  0
 26 17  2  0
 27  5  1  0
  1 28  1  0
  1 29  1  0
  1 30  1  0
  3 31  1  0
  3 32  1  0
  4 33  1  0
  4 34  1  0
  4 35  1  0
  5 36  1  0
  7 37  1  0
  9 38  1  0
  9 39  1  0
 10 40  1  0
 10 41  1  0
 11 42  1  0
 11 43  1  0
 12 44  1  0
 12 45  1  0
 12 46  1  0
 14 47  1  0
 19 48  1  0
 19 49  1  0
 20 50  1  0
 20 51  1  0
 21 52  1  1
 22 53  1  0
 22 54  1  0
 23 55  1  0
 23 56  1  0
 23 57  1  0
 24 58  1  0
 26 59  1  0
M  END
>  <mol_id>  (78) 
2026-09-18-6fnk-s0-n100-0079

>  <rmsd_to_ref>  (78) 


$$$$

     RDKit          3D

 58 59  0  0  0  0  0  0  0  0999 V2000
   -0.3180   16.1180   37.0610 C   0  0  0  0  0  0  0  0  0  0  0  0
    0.4590   25.3530   34.7090 C   0  0  0  0  0  0  0  0  0  0  0  0
    3.1350   21.4760   34.5390 C   0  0  0  0  0  0  0  0  0  0  0  0
    1.9710   25.4630   32.8720 C   0  0  0  0  0  0  0  0  0  0  0  0
    1.4820   17.7100   39.5280 O   0  0  0  0  0  0  0  0  0  0  0  0
    0.0100   17.4760   36.7420 C   0  0  0  0  0  0  0  0  0  0  0  0
    2.6910   20.3510   41.1450 C   0  0  0  0  0  0  0  0  0  0  0  0
    0.9350   25.9490   33.5810 C   0  0  0  0  0  0  0  0  0  0  0  0
    1.4600   17.8580   36.9780 C   0  0  0  0  0  0  0  0  0  0  0  0
    0.5850   20.6960   42.4070 C   0  0  0  0  0  0  0  0  0  0  0  0
    2.6650   20.3530   39.8210 N   0  0  0  0  0  0  0  0  0  0  0  0
    1.1300   24.2890   35.2010 C   0  0  0  0  0  0  0  0  0  0  0  0
    2.4360   19.5930   38.8100 C   0  0  0  0  0  0  0  0  0  0  0  0
    2.0790   17.9140   44.9810 F   0  0  0  0  0  0  0  0  0  0  0  0
   -0.2350   27.7780   34.4170 C   0  0  0  0  0  0  0  0  0  0  0  0
    0.1590   19.2470   44.3030 C   0  0  0  0  0  0  0  0  0  0  0  0
    2.7150   24.3900   33.4310 C   0  0  0  0  0  0  0  0  0  0  0  0
    0.4070   27.2060   33.2360 O   0  0  0  0  0  0  0  0  0  0  0  0
    3.0880   22.8440   35.3000 C   0  0  0  0  0  0  0  0  0  0  0  0
    1.6720   19.9880   42.0800 C   0  0  0  0  0  0  0  0  0  0  0  0
   -0.2060   20.3190   43.4610 C   0  0  0  0  0  0  0  0  0  0  0  0
    1.9940   18.7770   42.7940 C   0  0  0  0  0  0  0  0  0  0  0  0
    1.3280   18.5310   43.9560 C   0  0  0  0  0  0  0  0  0  0  0  0
    2.3500   23.8150   34.6490 C   0  0  0  0  0  0  0  0  0  0  0  0
    2.6860   19.8530   37.7520 C   0  0  0  0  0  0  0  0  0  0  0  0
    1.8970   18.3920   38.4350 C   0  0  1  0  0  0  0  0  0  0  0  0
    4.4530   22.2510   35.0250 C   0  0  0  0  0  0  0  0  0  0  0  0
   -0.3477   15.9949   38.1537 H   0  0  0  0  0  0  0  0  0  0  0  0
   -1.3021   15.8692   36.6371 H   0  0  0  0  0  0  0  0  0  0  0  0
    0.4440   15.4475   36.6371 H   0  0  0  0  0  0  0  0  0  0  0  0
   -0.4477   25.7280   35.2062 H   0  0  0  0  0  0  0  0  0  0  0  0
    2.8810   21.4230   33.4700 H   0  0  0  0  0  0  0  0  0  0  0  0
    2.7053   20.4731   34.6792 H   0  0  0  0  0  0  0  0  0  0  0  0
    2.2332   25.8839   31.8901 H   0  0  0  0  0  0  0  0  0  0  0  0
    1.7726   18.1876   40.3450 H   0  0  0  0  0  0  0  0  0  0  0  0
   -0.6208   18.1333   37.3585 H   0  0  0  0  0  0  0  0  0  0  0  0
   -0.1660   17.5893   35.6621 H   0  0  0  0  0  0  0  0  0  0  0  0
    2.9436   21.3880   41.4110 H   0  0  0  0  0  0  0  0  0  0  0  0
    3.3337   19.4683   41.2780 H   0  0  0  0  0  0  0  0  0  0  0  0
    2.0677   16.9661   36.7653 H   0  0  0  0  0  0  0  0  0  0  0  0
    1.6163   18.7254   36.3198 H   0  0  0  0  0  0  0  0  0  0  0  0
    0.3231   21.5909   41.8234 H   0  0  0  0  0  0  0  0  0  0  0  0
    1.9993   21.1183   39.6420 H   0  0  0  0  0  0  0  0  0  0  0  0
    3.6763   20.1642   39.7714 H   0  0  0  0  0  0  0  0  0  0  0  0
    0.7111   23.7637   36.0720 H   0  0  0  0  0  0  0  0  0  0  0  0
    0.2299   27.3638   35.3238 H   0  0  0  0  0  0  0  0  0  0  0  0
   -0.1117   28.8710   34.4082 H   0  0  0  0  0  0  0  0  0  0  0  0
   -1.3066   27.5298   34.4082 H   0  0  0  0  0  0  0  0  0  0  0  0
   -0.4379   18.9808   45.1878 H   0  0  0  0  0  0  0  0  0  0  0  0
    3.5947   24.0053   32.8942 H   0  0  0  0  0  0  0  0  0  0  0  0
    2.7590   23.3092   36.2409 H   0  0  0  0  0  0  0  0  0  0  0  0
   -1.1428   20.8622   43.6541 H   0  0  0  0  0  0  0  0  0  0  0  0
    2.7515   18.0762   42.4130 H   0  0  0  0  0  0  0  0  0  0  0  0
    2.4563   19.1445   36.9425 H   0  0  0  0  0  0  0  0  0  0  0  0
    3.1618   20.8174   37.5203 H   0  0  0  0  0  0  0  0  0  0  0  0
    2.6774   18.2124   37.6808 H   0  0  0  0  0  0  0  0  0  0  0  0
    5.0536   21.8473   35.8534 H   0  0  0  0  0  0  0  0  0  0  0  0
    5.3698   22.6078   34.5330 H   0  0  0  0  0  0  0  0  0  0  0  0
  2 12  2  0
  3 27  1  0
  3 19  1  0
  4 17  1  0
  4  8  2  0
  6  9  1  0
  6  1  1  0
  7 20  1  0
  8  2  1  0
  9 26  1  0
 10 21  1  0
 11  7  1  0
 13 11  1  0
 17 24  2  0
 18  8  1  0
 18 15  1  0
 20 10  2  0
 20 22  1  0
 21 16  2  0
 22 23  2  0
 23 16  1  0
 23 14  1  0
 24 12  1  0
 24 19  1  0
 25 13  2  3
 26 13  1  0
 26  5  1  0
 27 19  1  0
  1 28  1  0
  1 29  1  0
  1 30  1  0
  2 31  1  0
  3 32  1  0
  3 33  1  0
  4 34  1  0
  5 35  1  0
  6 36  1  0
  6 37  1  0
  7 38  1  0
  7 39  1  0
  9 40  1  0
  9 41  1  0
 10 42  1  0
 11 43  1  0
 11 44  1  0
 12 45  1  0
 15 46  1  0
 15 47  1  0
 15 48  1  0
 16 49  1  0
 17 50  1  0
 19 51  1  0
 21 52  1  0
 22 53  1  0
 25 54  1  0
 25 55  1  0
 26 56  1  6
 27 57  1  0
 27 58  1  0
M  CHG  1  11   1
M  END
>  <mol_id>  (79) 
2026-09-18-6fnk-s0-n100-0080

>  <rmsd_to_ref>  (79) 


$$$$

     RDKit          3D

 67 69  0  0  0  0  0  0  0  0999 V2000
    0.8950   17.0920   37.4790 O   0  0  0  0  0  0  0  0  0  0  0  0
    1.8830   25.3920   33.6180 C   0  0  0  0  0  0  0  0  0  0  0  0
    2.6510   20.0810   40.0470 C   0  0  0  0  0  0  0  0  0  0  0  0
    1.5120   26.8940   33.9660 C   0  0  0  0  0  0  0  0  0  0  0  0
    4.7900   22.4720   38.3430 C   0  0  0  0  0  0  0  0  0  0  0  0
   -0.4500   16.6640   36.9450 C   0  0  0  0  0  0  0  0  0  0  0  0
    1.4150   25.0040   32.3420 C   0  0  0  0  0  0  0  0  0  0  0  0
    4.5480   22.8520   35.7540 C   0  0  0  0  0  0  0  0  0  0  0  0
   -0.4430   16.3460   39.4400 C   0  0  0  0  0  0  0  0  0  0  0  0
    1.0220   16.7750   38.9540 C   0  0  2  0  0  0  0  0  0  0  0  0
    1.1980   24.3510   33.6850 C   0  0  0  0  0  0  0  0  0  0  0  0
    1.3870   20.0420   40.5090 C   0  0  0  0  0  0  0  0  0  0  0  0
    1.5990   18.9340   41.5820 C   0  0  0  0  0  0  0  0  0  0  0  0
    2.1610   17.2340   39.6920 C   0  0  0  0  0  0  0  0  0  0  0  0
    2.7390   21.4410   39.3160 C   0  0  0  0  0  0  0  0  0  0  0  0
    3.5050   23.8200   35.5250 C   0  0  0  0  0  0  0  0  0  0  0  0
    3.4130   21.6840   38.0190 C   0  0  0  0  0  0  0  0  0  0  0  0
    2.1190   17.6870   41.0960 C   0  0  0  0  0  0  0  0  0  0  0  0
    5.1600   23.3510   37.1400 C   0  0  0  0  0  0  0  0  0  0  0  0
    1.1750   19.1990   43.0130 C   0  0  0  0  0  0  0  0  0  0  0  0
    1.0620   18.0980   43.8990 C   0  0  0  0  0  0  0  0  0  0  0  0
   -1.2790   16.8990   38.3090 C   0  0  0  0  0  0  0  0  0  0  0  0
    2.1820   23.0910   35.3540 C   0  0  0  0  0  0  0  0  0  0  0  0
    2.1740   22.4220   37.1020 C   0  0  0  0  0  0  0  0  0  0  0  0
    2.8850   26.3450   33.9120 C   0  0  0  0  0  0  0  0  0  0  0  0
    3.3722   20.0352   40.8763 H   0  0  0  0  0  0  0  0  0  0  0  0
    2.8888   19.2309   39.3907 H   0  0  0  0  0  0  0  0  0  0  0  0
    1.1480   27.5799   33.1869 H   0  0  0  0  0  0  0  0  0  0  0  0
    0.8817   27.4209   34.6975 H   0  0  0  0  0  0  0  0  0  0  0  0
    4.6522   23.1041   39.2327 H   0  0  0  0  0  0  0  0  0  0  0  0
    5.5954   21.7478   38.5348 H   0  0  0  0  0  0  0  0  0  0  0  0
   -0.8007   17.3047   36.1225 H   0  0  0  0  0  0  0  0  0  0  0  0
   -0.5081   15.6609   36.4973 H   0  0  0  0  0  0  0  0  0  0  0  0
    0.6094   25.5542   31.8337 H   0  0  0  0  0  0  0  0  0  0  0  0
    1.8206   24.7495   31.3517 H   0  0  0  0  0  0  0  0  0  0  0  0
    5.3005   22.8771   34.9520 H   0  0  0  0  0  0  0  0  0  0  0  0
    4.1925   21.8112   35.7737 H   0  0  0  0  0  0  0  0  0  0  0  0
   -0.5406   15.2533   39.5210 H   0  0  0  0  0  0  0  0  0  0  0  0
   -0.7213   16.7132   40.4388 H   0  0  0  0  0  0  0  0  0  0  0  0
    1.6325   15.9885   39.4216 H   0  0  0  0  0  0  0  0  0  0  0  0
    1.6828   23.3899   33.9115 H   0  0  0  0  0  0  0  0  0  0  0  0
    0.3128   24.0439   34.2612 H   0  0  0  0  0  0  0  0  0  0  0  0
    1.0728   20.9989   40.9512 H   0  0  0  0  0  0  0  0  0  0  0  0
    0.6002   19.8554   39.7633 H   0  0  0  0  0  0  0  0  0  0  0  0
    2.8819   16.4034   39.6705 H   0  0  0  0  0  0  0  0  0  0  0  0
    2.3687   18.1836   39.1772 H   0  0  0  0  0  0  0  0  0  0  0  0
    1.6961   21.7563   39.1641 H   0  0  0  0  0  0  0  0  0  0  0  0
    3.4246   21.9755   39.9900 H   0  0  0  0  0  0  0  0  0  0  0  0
    3.4410   24.5035   36.3845 H   0  0  0  0  0  0  0  0  0  0  0  0
    3.7294   24.4005   34.6180 H   0  0  0  0  0  0  0  0  0  0  0  0
    3.7813   20.8405   37.4166 H   0  0  0  0  0  0  0  0  0  0  0  0
    1.5455   16.9132   41.6275 H   0  0  0  0  0  0  0  0  0  0  0  0
    3.1922   17.8651   41.2588 H   0  0  0  0  0  0  0  0  0  0  0  0
    6.2560   23.3662   37.0478 H   0  0  0  0  0  0  0  0  0  0  0  0
    4.7352   24.3471   37.3332 H   0  0  0  0  0  0  0  0  0  0  0  0
    0.9600   20.2218   43.3560 H   0  0  0  0  0  0  0  0  0  0  0  0
    1.0989   18.4580   44.9378 H   0  0  0  0  0  0  0  0  0  0  0  0
    0.1062   17.5826   43.7233 H   0  0  0  0  0  0  0  0  0  0  0  0
    1.8931   17.3992   43.7233 H   0  0  0  0  0  0  0  0  0  0  0  0
   -1.4565   17.9738   38.4619 H   0  0  0  0  0  0  0  0  0  0  0  0
   -2.2565   16.3966   38.2637 H   0  0  0  0  0  0  0  0  0  0  0  0
    1.3393   23.7664   35.1449 H   0  0  0  0  0  0  0  0  0  0  0  0
    2.0851   22.3768   34.5231 H   0  0  0  0  0  0  0  0  0  0  0  0
    1.8692   23.2838   37.7139 H   0  0  0  0  0  0  0  0  0  0  0  0
    1.5928   21.5107   36.8977 H   0  0  0  0  0  0  0  0  0  0  0  0
    3.4547   26.2456   34.8477 H   0  0  0  0  0  0  0  0  0  0  0  0
    3.7855   26.6617   33.3653 H   0  0  0  0  0  0  0  0  0  0  0  0
  1 10  1  0
  2 11  1  0
  2 25  1  0
  2  4  1  0
  3 12  1  0
  6  1  1  0
  6 22  1  0
  7  2  1  0
  7 11  1  0
  8 19  1  0
 10  9  1  0
 10 14  1  0
 12 13  1  0
 13 20  2  3
 14 18  1  0
 15  3  1  0
 16  8  1  0
 17  5  1  0
 17 15  1  0
 18 13  1  0
 19  5  1  0
 20 21  1  0
 22  9  1  0
 23 16  1  0
 23 24  1  0
 24 17  1  0
 25  4  1  0
  3 26  1  0
  3 27  1  0
  4 28  1  0
  4 29  1  0
  5 30  1  0
  5 31  1  0
  6 32  1  0
  6 33  1  0
  7 34  1  0
  7 35  1  0
  8 36  1  0
  8 37  1  0
  9 38  1  0
  9 39  1  0
 10 40  1  6
 11 41  1  0
 11 42  1  0
 12 43  1  0
 12 44  1  0
 14 45  1  0
 14 46  1  0
 15 47  1  0
 15 48  1  0
 16 49  1  0
 16 50  1  0
 17 51  1  0
 18 52  1  0
 18 53  1  0
 19 54  1  0
 19 55  1  0
 20 56  1  0
 21 57  1  0
 21 58  1  0
 21 59  1  0
 22 60  1  0
 22 61  1  0
 23 62  1  0
 23 63  1  0
 24 64  1  0
 24 65  1  0
 25 66  1  0
 25 67  1  0
M  END
>  <mol_id>  (80) 
2026-09-18-6fnk-s0-n100-0081

>  <rmsd_to_ref>  (80) 


$$$$

     RDKit          3D

 61 60  0  0  0  0  0  0  0  0999 V2000
   -1.0483   13.2265   39.8324 O   0  0  0  0  0  0  0  0  0  0  0  0
    0.6433   25.6198   35.4489 C   0  0  0  0  0  0  0  0  0  0  0  0
   -0.5076   12.6888   39.0229 C   0  0  0  0  0  0  0  0  0  0  0  0
    1.1685   24.3443   35.0882 C   0  0  0  0  0  0  0  0  0  0  0  0
    3.3521   21.7657   35.0485 Cl  0  0  0  0  0  0  0  0  0  0  0  0
   -0.2674   15.6326   38.0180 N   0  0  0  0  0  0  0  0  0  0  0  0
    0.1895   26.7369   34.5925 C   0  0  2  0  0  0  0  0  0  0  0  0
    2.9243   21.9069   37.6617 C   0  0  0  0  0  0  0  0  0  0  0  0
   -1.4161   28.6692   35.2300 C   0  0  0  0  0  0  0  0  0  0  0  0
    3.9461   22.6363   38.2474 C   0  0  0  0  0  0  0  0  0  0  0  0
   -0.0453   16.7176   37.0761 C   0  0  0  0  0  0  0  0  0  0  0  0
   -0.0186   12.3251   36.6573 N   0  0  0  0  0  0  0  0  0  0  0  0
    2.4467   22.3359   36.3318 C   0  0  1  0  0  0  0  0  0  0  0  0
    4.3311   20.3915   42.6244 C   0  0  0  0  0  0  0  0  0  0  0  0
   -0.5066   14.4667   37.4299 C   0  0  0  0  0  0  0  0  0  0  0  0
    4.4172   22.3395   39.4974 C   0  0  0  0  0  0  0  0  0  0  0  0
    2.9338   19.7757   42.5305 C   0  0  0  0  0  0  0  0  0  0  0  0
    2.3522   20.7217   38.3561 C   0  0  0  0  0  0  0  0  0  0  0  0
    3.9079   21.1941   40.3068 C   0  0  0  0  0  0  0  0  0  0  0  0
    2.8436   20.4108   39.6777 C   0  0  0  0  0  0  0  0  0  0  0  0
    1.0342   17.2448   36.9647 O   0  0  0  0  0  0  0  0  0  0  0  0
    1.5735   23.3335   36.0017 C   0  0  0  0  0  0  0  0  0  0  0  0
    0.0710   13.2786   37.7712 C   0  0  1  0  0  0  0  0  0  0  0  0
    4.5774   21.3173   41.5183 O   0  0  0  0  0  0  0  0  0  0  0  0
    0.0641   26.4193   33.1243 C   0  0  0  0  0  0  0  0  0  0  0  0
   -1.2391   17.1153   36.3507 C   0  0  0  0  0  0  0  0  0  0  0  0
    0.0283   28.1317   35.0174 C   0  0  0  0  0  0  0  0  0  0  0  0
    0.5632   25.8008   36.5310 H   0  0  0  0  0  0  0  0  0  0  0  0
   -0.3834   11.6038   39.1548 H   0  0  0  0  0  0  0  0  0  0  0  0
    1.2685   24.1245   34.0151 H   0  0  0  0  0  0  0  0  0  0  0  0
   -0.2417   15.7562   39.0402 H   0  0  0  0  0  0  0  0  0  0  0  0
   -0.6137   26.8446   35.3364 H   0  0  0  0  0  0  0  0  0  0  0  0
   -1.6180   28.7619   36.3073 H   0  0  0  0  0  0  0  0  0  0  0  0
   -1.5145   29.6552   34.7523 H   0  0  0  0  0  0  0  0  0  0  0  0
   -2.1372   27.9706   34.7806 H   0  0  0  0  0  0  0  0  0  0  0  0
    4.3904   23.4762   37.6932 H   0  0  0  0  0  0  0  0  0  0  0  0
   -0.1312   11.3715   37.0299 H   0  0  0  0  0  0  0  0  0  0  0  0
   -0.8293   12.5613   36.0676 H   0  0  0  0  0  0  0  0  0  0  0  0
    0.8420   12.3740   36.0934 H   0  0  0  0  0  0  0  0  0  0  0  0
    1.5243   21.9345   36.7767 H   0  0  0  0  0  0  0  0  0  0  0  0
    4.4195   20.9372   43.5754 H   0  0  0  0  0  0  0  0  0  0  0  0
    5.0730   19.5811   42.5717 H   0  0  0  0  0  0  0  0  0  0  0  0
   -0.2576   14.6182   36.3692 H   0  0  0  0  0  0  0  0  0  0  0  0
   -1.5381   14.2861   37.7667 H   0  0  0  0  0  0  0  0  0  0  0  0
    5.2073   22.9742   39.9250 H   0  0  0  0  0  0  0  0  0  0  0  0
    2.5302   19.6262   43.5428 H   0  0  0  0  0  0  0  0  0  0  0  0
    2.2724   20.4512   41.9681 H   0  0  0  0  0  0  0  0  0  0  0  0
    2.9941   18.8068   42.0131 H   0  0  0  0  0  0  0  0  0  0  0  0
    1.5793   20.1022   37.8778 H   0  0  0  0  0  0  0  0  0  0  0  0
    2.4066   19.5632   40.2260 H   0  0  0  0  0  0  0  0  0  0  0  0
    1.6713   23.9514   36.9065 H   0  0  0  0  0  0  0  0  0  0  0  0
    0.9773   22.6034   35.4346 H   0  0  0  0  0  0  0  0  0  0  0  0
    1.1301   13.4875   37.9829 H   0  0  0  0  0  0  0  0  0  0  0  0
   -0.4268   25.4427   33.0011 H   0  0  0  0  0  0  0  0  0  0  0  0
   -0.5376   27.1969   32.6310 H   0  0  0  0  0  0  0  0  0  0  0  0
    1.0651   26.3865   32.6694 H   0  0  0  0  0  0  0  0  0  0  0  0
   -2.0257   17.3978   37.0658 H   0  0  0  0  0  0  0  0  0  0  0  0
   -1.0061   17.9739   35.7038 H   0  0  0  0  0  0  0  0  0  0  0  0
   -1.5897   16.2753   35.7330 H   0  0  0  0  0  0  0  0  0  0  0  0
    0.5636   28.2468   35.9714 H   0  0  0  0  0  0  0  0  0  0  0  0
    0.4193   28.7219   34.1754 H   0  0  0  0  0  0  0  0  0  0  0  0
  3  1  2  0
  4  2  2  3
  4 22  1  0
  7 25  1  0
  7 27  1  0
  7  2  1  0
  8 10  1  0
  8 18  2  0
 10 16  2  0
 11  6  1  0
 13  5  1  0
 13  8  1  0
 15 23  1  0
 15  6  1  0
 16 19  1  0
 17 14  1  0
 18 20  1  0
 19 24  1  0
 20 19  2  0
 21 11  2  0
 22 13  1  0
 23 12  1  0
 23  3  1  0
 24 14  1  0
 26 11  1  0
 27  9  1  0
  2 28  1  0
  3 29  1  0
  4 30  1  0
  6 31  1  0
  7 32  1  1
  9 33  1  0
  9 34  1  0
  9 35  1  0
 10 36  1  0
 12 37  1  0
 12 38  1  0
 12 39  1  0
 13 40  1  6
 14 41  1  0
 14 42  1  0
 15 43  1  0
 15 44  1  0
 16 45  1  0
 17 46  1  0
 17 47  1  0
 17 48  1  0
 18 49  1  0
 20 50  1  0
 22 51  1  0
 22 52  1  0
 23 53  1  1
 25 54  1  0
 25 55  1  0
 25 56  1  0
 26 57  1  0
 26 58  1  0
 26 59  1  0
 27 60  1  0
 27 61  1  0
M  CHG  1  12   1
M  END
>  <mol_id>  (81) 
2026-09-18-6fnk-s0-n100-0082

>  <rmsd_to_ref>  (81) 


$$$$

     RDKit          3D

 87 89  0  0  0  0  0  0  0  0999 V2000
    3.6498   13.1203   36.3895 C   0  0  0  0  0  0  0  0  0  0  0  0
    1.9209   23.0806   37.8003 C   0  0  2  0  0  0  0  0  0  0  0  0
    2.0646   24.4189   38.0898 O   0  0  0  0  0  0  0  0  0  0  0  0
    0.8600   23.4854   35.4315 C   0  0  0  0  0  0  0  0  0  0  0  0
    0.0124   16.5377   42.8146 C   0  0  0  0  0  0  0  0  0  0  0  0
   -1.0862   29.0020   33.6236 C   0  0  0  0  0  0  0  0  0  0  0  0
    3.6051   21.5519   39.0394 C   0  0  2  0  0  0  0  0  0  0  0  0
    3.5041   13.8269   37.6740 C   0  0  0  0  0  0  0  0  0  0  0  0
    0.4266   29.6062   34.9108 C   0  0  0  0  0  0  0  0  0  0  0  0
    0.1088   16.0927   39.0478 C   0  0  0  0  0  0  0  0  0  0  0  0
    0.4078   16.2686   41.4557 C   0  0  0  0  0  0  0  0  0  0  0  0
    4.9210   22.1753   38.9080 C   0  0  0  0  0  0  0  0  0  0  0  0
    0.7555   22.9218   41.0452 C   0  0  0  0  0  0  0  0  0  0  0  0
    1.6926   24.7759   34.9838 C   0  0  0  0  0  0  0  0  0  0  0  0
    2.3332   16.2569   39.9636 C   0  0  0  0  0  0  0  0  0  0  0  0
    2.0813   15.8520   37.4892 C   0  0  0  0  0  0  0  0  0  0  0  0
    3.1958   15.2249   37.2712 N   0  0  0  0  0  0  0  0  0  0  0  0
   -0.5117   15.9124   43.8304 C   0  0  0  0  0  0  0  0  0  0  0  0
    0.2467   28.4222   34.0279 C   0  0  0  0  0  0  0  0  0  0  0  0
    0.2964   25.9856   32.9218 C   0  0  0  0  0  0  0  0  0  0  0  0
    1.1954   22.7314   36.5481 C   0  0  0  0  0  0  0  0  0  0  0  0
    4.9247   13.6902   35.5679 C   0  0  0  0  0  0  0  0  0  0  0  0
    0.6814   22.7488   42.5770 C   0  0  0  0  0  0  0  0  0  0  0  0
    1.8014   16.3165   41.2690 C   0  0  0  0  0  0  0  0  0  0  0  0
   -0.9720   29.7684   34.6393 C   0  0  0  0  0  0  0  0  0  0  0  0
    5.6035   14.6749   35.6976 N   0  0  0  0  0  0  0  0  0  0  0  0
    2.3647   22.2787   38.9449 C   0  0  2  0  0  0  0  0  0  0  0  0
    5.3318   13.6155   33.3944 C   0  0  0  0  0  0  0  0  0  0  0  0
    2.2543   20.9165   40.5960 C   0  0  0  0  0  0  0  0  0  0  0  0
    5.0721   12.6872   34.6558 O   0  0  0  0  0  0  0  0  0  0  0  0
    0.7379   25.5628   34.3719 C   0  0  2  0  0  0  0  0  0  0  0  0
   -0.4478   16.1248   40.3257 C   0  0  0  0  0  0  0  0  0  0  0  0
    1.4928   16.1716   38.8459 C   0  0  0  0  0  0  0  0  0  0  0  0
    1.7288   22.1276   40.2292 C   0  0  1  0  0  0  0  0  0  0  0  0
    0.4372   27.0656   34.4899 C   0  0  1  0  0  0  0  0  0  0  0  0
    3.3723   20.5777   39.9218 O   0  0  0  0  0  0  0  0  0  0  0  0
    3.7937   12.0468   36.5816 H   0  0  0  0  0  0  0  0  0  0  0  0
    2.7410   13.2809   35.7909 H   0  0  0  0  0  0  0  0  0  0  0  0
    2.2668   22.2596   37.1551 H   0  0  0  0  0  0  0  0  0  0  0  0
    2.0719   24.5452   39.0717 H   0  0  0  0  0  0  0  0  0  0  0  0
    0.8858   22.7935   34.5767 H   0  0  0  0  0  0  0  0  0  0  0  0
   -0.0975   23.9307   35.7396 H   0  0  0  0  0  0  0  0  0  0  0  0
    0.2138   17.5879   43.0723 H   0  0  0  0  0  0  0  0  0  0  0  0
   -1.0906   29.5186   32.6524 H   0  0  0  0  0  0  0  0  0  0  0  0
   -1.9741   28.3741   33.4583 H   0  0  0  0  0  0  0  0  0  0  0  0
    3.8706   21.1576   38.0474 H   0  0  0  0  0  0  0  0  0  0  0  0
    2.6823   13.3987   38.2667 H   0  0  0  0  0  0  0  0  0  0  0  0
    4.4007   13.7523   38.3068 H   0  0  0  0  0  0  0  0  0  0  0  0
    0.6901   29.3890   35.9565 H   0  0  0  0  0  0  0  0  0  0  0  0
    1.1867   30.3871   34.7619 H   0  0  0  0  0  0  0  0  0  0  0  0
   -0.5558   16.0033   38.1758 H   0  0  0  0  0  0  0  0  0  0  0  0
    5.2701   22.5069   39.8970 H   0  0  0  0  0  0  0  0  0  0  0  0
    5.6326   21.4460   38.4936 H   0  0  0  0  0  0  0  0  0  0  0  0
    4.8505   23.0421   38.2344 H   0  0  0  0  0  0  0  0  0  0  0  0
   -0.2458   22.6877   40.6543 H   0  0  0  0  0  0  0  0  0  0  0  0
    1.1269   23.9512   40.9338 H   0  0  0  0  0  0  0  0  0  0  0  0
    2.1280   25.2876   35.8547 H   0  0  0  0  0  0  0  0  0  0  0  0
    2.5436   24.5376   34.3287 H   0  0  0  0  0  0  0  0  0  0  0  0
    3.4237   16.2777   39.8212 H   0  0  0  0  0  0  0  0  0  0  0  0
    1.3112   15.2599   36.9729 H   0  0  0  0  0  0  0  0  0  0  0  0
    2.3681   16.8634   37.1656 H   0  0  0  0  0  0  0  0  0  0  0  0
    3.9224   15.8015   37.7190 H   0  0  0  0  0  0  0  0  0  0  0  0
    3.1333   15.1044   36.2502 H   0  0  0  0  0  0  0  0  0  0  0  0
   -0.6896   16.4488   44.7741 H   0  0  0  0  0  0  0  0  0  0  0  0
   -0.7764   14.8483   43.7442 H   0  0  0  0  0  0  0  0  0  0  0  0
    0.9896   28.1374   33.2682 H   0  0  0  0  0  0  0  0  0  0  0  0
    1.0256   26.0681   32.1023 H   0  0  0  0  0  0  0  0  0  0  0  0
   -0.4634   25.7079   32.1764 H   0  0  0  0  0  0  0  0  0  0  0  0
    0.2265   22.3538   36.9066 H   0  0  0  0  0  0  0  0  0  0  0  0
    2.0166   22.1697   36.0790 H   0  0  0  0  0  0  0  0  0  0  0  0
    0.8764   23.7152   43.0650 H   0  0  0  0  0  0  0  0  0  0  0  0
   -0.3205   22.3918   42.8577 H   0  0  0  0  0  0  0  0  0  0  0  0
    1.4355   22.0160   42.9002 H   0  0  0  0  0  0  0  0  0  0  0  0
    2.4728   16.3998   42.1363 H   0  0  0  0  0  0  0  0  0  0  0  0
   -1.2232   30.8111   34.3955 H   0  0  0  0  0  0  0  0  0  0  0  0
   -1.6401   29.5296   35.4799 H   0  0  0  0  0  0  0  0  0  0  0  0
    6.3848   14.8508   35.0499 H   0  0  0  0  0  0  0  0  0  0  0  0
    2.8513   23.1654   39.3775 H   0  0  0  0  0  0  0  0  0  0  0  0
    5.5676   14.6355   33.7321 H   0  0  0  0  0  0  0  0  0  0  0  0
    6.1767   13.2169   32.8136 H   0  0  0  0  0  0  0  0  0  0  0  0
    4.4310   13.6372   32.7634 H   0  0  0  0  0  0  0  0  0  0  0  0
    2.4950   20.9542   41.6686 H   0  0  0  0  0  0  0  0  0  0  0  0
    1.4963   20.1554   40.3590 H   0  0  0  0  0  0  0  0  0  0  0  0
    0.4473   24.6504   34.9133 H   0  0  0  0  0  0  0  0  0  0  0  0
   -1.5363   16.0398   40.4601 H   0  0  0  0  0  0  0  0  0  0  0  0
    0.8819   21.6149   39.7495 H   0  0  0  0  0  0  0  0  0  0  0  0
    0.4451   27.5549   35.4750 H   0  0  0  0  0  0  0  0  0  0  0  0
  1  8  1  0
  2  3  1  0
  4 21  1  0
  5 18  2  3
  6 19  1  0
  6 25  1  0
  7 12  1  0
  7 27  1  0
  7 36  1  0
 10 32  1  0
 11  5  1  0
 13 23  1  0
 14  4  1  0
 15 24  2  0
 16 33  1  0
 17  8  1  0
 17 16  1  0
 19  9  1  0
 20 31  1  0
 20 35  1  0
 21  2  1  0
 22 26  2  3
 22  1  1  0
 24 11  1  0
 25  9  1  0
 27  2  1  0
 27 34  1  0
 28 30  1  0
 30 22  1  0
 31 35  1  0
 31 14  1  0
 32 11  2  0
 33 10  2  0
 33 15  1  0
 34 29  1  0
 34 13  1  0
 35 19  1  0
 36 29  1  0
  1 37  1  0
  1 38  1  0
  2 39  1  6
  3 40  1  0
  4 41  1  0
  4 42  1  0
  5 43  1  0
  6 44  1  0
  6 45  1  0
  7 46  1  6
  8 47  1  0
  8 48  1  0
  9 49  1  0
  9 50  1  0
 10 51  1  0
 12 52  1  0
 12 53  1  0
 12 54  1  0
 13 55  1  0
 13 56  1  0
 14 57  1  0
 14 58  1  0
 15 59  1  0
 16 60  1  0
 16 61  1  0
 17 62  1  0
 17 63  1  0
 18 64  1  0
 18 65  1  0
 19 66  1  0
 20 67  1  0
 20 68  1  0
 21 69  1  0
 21 70  1  0
 23 71  1  0
 23 72  1  0
 23 73  1  0
 24 74  1  0
 25 75  1  0
 25 76  1  0
 26 77  1  0
 27 78  1  6
 28 79  1  0
 28 80  1  0
 28 81  1  0
 29 82  1  0
 29 83  1  0
 31 84  1  1
 32 85  1  0
 34 86  1  6
 35 87  1  1
M  CHG  1  17   1
M  END
>  <mol_id>  (82) 
2026-09-18-6fnk-s0-n100-0083

>  <rmsd_to_ref>  (82) 


$$$$

     RDKit          3D

 69 69  0  0  0  0  0  0  0  0999 V2000
    3.0020   20.6047   35.7136 C   0  0  0  0  0  0  0  0  0  0  0  0
    3.2679   20.8772   37.0754 C   0  0  0  0  0  0  0  0  0  0  0  0
    2.4983   21.0609   38.2441 C   0  0  0  0  0  0  0  0  0  0  0  0
    6.5185   24.5848   32.3928 C   0  0  0  0  0  0  0  0  0  0  0  0
    2.5247   19.9335   39.2497 N   0  0  0  0  0  0  0  0  0  0  0  0
    3.9028   19.3222   41.1744 C   0  0  0  0  0  0  0  0  0  0  0  0
   -0.5846   14.9556   37.8239 N   0  0  0  0  0  0  0  0  0  0  0  0
    3.3636   13.8058   36.1229 O   0  0  0  0  0  0  0  0  0  0  0  0
    2.2642   14.0117   37.5319 P   0  0  0  0  0  0  0  0  0  0  0  0
    3.5985   23.7399   31.3465 S   0  0  0  0  0  0  0  0  0  0  0  0
    2.5437   18.6073   38.8014 C   0  0  0  0  0  0  0  0  0  0  0  0
    1.4450   19.4266   42.7535 C   0  0  0  0  0  0  0  0  0  0  0  0
    0.5334   19.7113   43.7380 C   0  0  0  0  0  0  0  0  0  0  0  0
    5.3520   23.8097   32.0018 C   0  0  0  0  0  0  0  0  0  0  0  0
    4.4662   22.9070   32.3287 C   0  0  1  0  0  0  0  0  0  0  0  0
    1.3932   12.8104   37.2597 O   0  0  0  0  0  0  0  0  0  0  0  0
    2.4974   23.7832   34.4356 O   0  0  0  0  0  0  0  0  0  0  0  0
   -0.2745   21.6321   42.6380 C   0  0  0  0  0  0  0  0  0  0  0  0
    1.8942   16.1216   35.7462 C   0  0  0  0  0  0  0  0  0  0  0  0
    2.9862   16.5055   36.6011 C   0  0  0  0  0  0  0  0  0  0  0  0
   -0.0624   15.2579   36.6261 C   0  0  0  0  0  0  0  0  0  0  0  0
    2.9911   22.6241   34.2935 C   0  0  0  0  0  0  0  0  0  0  0  0
    4.0648   22.3735   33.4207 N   0  0  0  0  0  0  0  0  0  0  0  0
   -1.0435   22.8051   42.6641 N   0  0  0  0  0  0  0  0  0  0  0  0
    2.6997   20.0646   40.6121 C   0  0  2  0  0  0  0  0  0  0  0  0
    0.7185   21.3957   41.5502 C   0  0  0  0  0  0  0  0  0  0  0  0
    2.6345   21.6213   35.0308 N   0  0  0  0  0  0  0  0  0  0  0  0
    1.6200   20.2899   41.6390 C   0  0  0  0  0  0  0  0  0  0  0  0
   -0.3634   20.7981   43.7319 C   0  0  0  0  0  0  0  0  0  0  0  0
    1.4886   15.5773   37.0234 C   0  0  0  0  0  0  0  0  0  0  0  0
    3.9180   20.1989   35.2593 H   0  0  0  0  0  0  0  0  0  0  0  0
    2.1615   19.8953   35.6950 H   0  0  0  0  0  0  0  0  0  0  0  0
    3.9345   20.0489   37.3576 H   0  0  0  0  0  0  0  0  0  0  0  0
    3.4357   21.9524   36.9151 H   0  0  0  0  0  0  0  0  0  0  0  0
    2.8655   21.9673   38.7477 H   0  0  0  0  0  0  0  0  0  0  0  0
    1.4551   21.1218   37.9006 H   0  0  0  0  0  0  0  0  0  0  0  0
    6.5395   24.6886   33.4877 H   0  0  0  0  0  0  0  0  0  0  0  0
    7.4304   24.0703   32.0558 H   0  0  0  0  0  0  0  0  0  0  0  0
    6.4680   25.5818   31.9309 H   0  0  0  0  0  0  0  0  0  0  0  0
    3.8966   19.3923   42.2722 H   0  0  0  0  0  0  0  0  0  0  0  0
    3.8544   18.2651   40.8743 H   0  0  0  0  0  0  0  0  0  0  0  0
    4.8271   19.7724   40.7834 H   0  0  0  0  0  0  0  0  0  0  0  0
   -0.0487   15.4330   38.5625 H   0  0  0  0  0  0  0  0  0  0  0  0
   -1.5666   15.2644   37.8581 H   0  0  0  0  0  0  0  0  0  0  0  0
   -0.5398   13.9371   37.9709 H   0  0  0  0  0  0  0  0  0  0  0  0
    4.2985   13.7366   36.4411 H   0  0  0  0  0  0  0  0  0  0  0  0
    2.7981   24.5952   32.0570 H   0  0  0  0  0  0  0  0  0  0  0  0
    2.5349   17.9278   39.6663 H   0  0  0  0  0  0  0  0  0  0  0  0
    1.6574   18.4185   38.1777 H   0  0  0  0  0  0  0  0  0  0  0  0
    3.4534   18.4339   38.2079 H   0  0  0  0  0  0  0  0  0  0  0  0
    2.0521   18.5124   42.8284 H   0  0  0  0  0  0  0  0  0  0  0  0
    0.4997   19.0348   44.6047 H   0  0  0  0  0  0  0  0  0  0  0  0
    5.7466   23.3466   31.0854 H   0  0  0  0  0  0  0  0  0  0  0  0
    4.7016   24.5898   32.4245 H   0  0  0  0  0  0  0  0  0  0  0  0
    4.7225   21.8380   32.3677 H   0  0  0  0  0  0  0  0  0  0  0  0
    1.0605   12.4431   38.1167 H   0  0  0  0  0  0  0  0  0  0  0  0
    1.2770   16.9352   35.3372 H   0  0  0  0  0  0  0  0  0  0  0  0
    1.9654   15.5781   34.7925 H   0  0  0  0  0  0  0  0  0  0  0  0
    3.9665   16.0110   36.5345 H   0  0  0  0  0  0  0  0  0  0  0  0
    3.5047   17.4231   36.9159 H   0  0  0  0  0  0  0  0  0  0  0  0
   -0.5536   16.1367   36.1831 H   0  0  0  0  0  0  0  0  0  0  0  0
   -0.1797   14.4664   35.8713 H   0  0  0  0  0  0  0  0  0  0  0  0
    4.6578   21.5891   33.7272 H   0  0  0  0  0  0  0  0  0  0  0  0
   -1.0107   23.4601   41.8699 H   0  0  0  0  0  0  0  0  0  0  0  0
   -1.6408   23.0113   43.4775 H   0  0  0  0  0  0  0  0  0  0  0  0
    2.8307   21.1452   40.4532 H   0  0  0  0  0  0  0  0  0  0  0  0
    0.7568   22.0703   40.6822 H   0  0  0  0  0  0  0  0  0  0  0  0
    1.6072   21.6590   35.0956 H   0  0  0  0  0  0  0  0  0  0  0  0
   -1.0849   20.9693   44.5444 H   0  0  0  0  0  0  0  0  0  0  0  0
  1  2  1  0
  2  3  1  0
  3  5  1  0
  5 25  1  0
  8  9  1  0
 11  5  1  0
 12 13  1  0
 13 29  2  0
 14 15  1  0
 14  4  1  0
 15 10  1  0
 15 23  1  0
 16  9  1  0
 18 24  1  0
 18 29  1  0
 19 20  1  0
 19 30  1  0
 20 30  1  0
 21 30  1  0
 21  7  1  0
 22 17  2  0
 22 27  1  0
 23 22  1  0
 25  6  1  0
 25 28  1  0
 26 18  2  0
 27  1  1  0
 28 26  1  0
 28 12  2  0
 30  9  1  0
  1 31  1  0
  1 32  1  0
  2 33  1  0
  2 34  1  0
  3 35  1  0
  3 36  1  0
  4 37  1  0
  4 38  1  0
  4 39  1  0
  6 40  1  0
  6 41  1  0
  6 42  1  0
  7 43  1  0
  7 44  1  0
  7 45  1  0
  8 46  1  0
 10 47  1  0
 11 48  1  0
 11 49  1  0
 11 50  1  0
 12 51  1  0
 13 52  1  0
 14 53  1  0
 14 54  1  0
 15 55  1  6
 16 56  1  0
 19 57  1  0
 19 58  1  0
 20 59  1  0
 20 60  1  0
 21 61  1  0
 21 62  1  0
 23 63  1  0
 24 64  1  0
 24 65  1  0
 25 66  1  6
 26 67  1  0
 27 68  1  0
 29 69  1  0
M  CHG  1   7   1
M  END
>  <mol_id>  (83) 
2026-09-18-6fnk-s0-n100-0084

>  <rmsd_to_ref>  (83) 


$$$$

     RDKit          3D

 59 62  0  0  0  0  0  0  0  0999 V2000
   -0.6980   16.0220   39.2000 C   0  0  0  0  0  0  0  0  0  0  0  0
    2.0170   18.6600   39.8730 N   0  0  0  0  0  0  0  0  0  0  0  0
    2.0670   26.4430   33.0930 C   0  0  0  0  0  0  0  0  0  0  0  0
    2.5240   19.1890   38.6390 C   0  0  0  0  0  0  0  0  0  0  0  0
    3.3280   18.2080   42.2590 O   0  0  0  0  0  0  0  0  0  0  0  0
    1.5090   17.3590   40.2850 C   0  0  0  0  0  0  0  0  0  0  0  0
    1.2390   24.0400   34.5390 C   0  0  0  0  0  0  0  0  0  0  0  0
    3.1010   25.2160   33.1510 C   0  0  0  0  0  0  0  0  0  0  0  0
    0.3150   14.2070   37.5930 C   0  0  0  0  0  0  0  0  0  0  0  0
    1.4290   18.1960   43.6890 O   0  0  0  0  0  0  0  0  0  0  0  0
    0.6490   26.2240   33.4210 C   0  0  0  0  0  0  0  0  0  0  0  0
    1.2410   14.6290   38.5440 N   0  0  0  0  0  0  0  0  0  0  0  0
    2.4480   24.1260   34.0810 C   0  0  0  0  0  0  0  0  0  0  0  0
    2.6220   21.1980   36.4140 C   0  0  0  0  0  0  0  0  0  0  0  0
    3.0960   21.5670   37.8090 C   0  0  0  0  0  0  0  0  0  0  0  0
    3.5790   22.9620   34.6600 S   0  0  0  0  0  0  0  0  0  0  0  0
    2.6420   19.4330   42.1260 C   0  0  2  0  0  0  0  0  0  0  0  0
    1.4170   19.3660   42.9400 C   0  0  0  0  0  0  0  0  0  0  0  0
    0.6690   16.7690   39.1350 C   0  0  1  0  0  0  0  0  0  0  0  0
   -0.8720   15.5080   37.7940 C   0  0  0  0  0  0  0  0  0  0  0  0
    1.1350   22.9190   35.3570 N   0  0  0  0  0  0  0  0  0  0  0  0
    2.1840   20.9610   40.1030 N   0  0  0  0  0  0  0  0  0  0  0  0
    2.1730   19.7810   40.7720 C   0  0  1  0  0  0  0  0  0  0  0  0
    2.2510   22.2570   35.5280 C   0  0  0  0  0  0  0  0  0  0  0  0
    1.5820   16.0120   38.2320 C   0  0  0  0  0  0  0  0  0  0  0  0
    0.1090   25.0360   34.2810 C   0  0  0  0  0  0  0  0  0  0  0  0
    2.6500   20.6190   38.8440 C   0  0  1  0  0  0  0  0  0  0  0  0
   -0.6613   15.1930   39.9221 H   0  0  0  0  0  0  0  0  0  0  0  0
   -1.5270   16.6642   39.5320 H   0  0  0  0  0  0  0  0  0  0  0  0
    2.4179   27.4460   32.8085 H   0  0  0  0  0  0  0  0  0  0  0  0
    1.8241   18.9802   37.8165 H   0  0  0  0  0  0  0  0  0  0  0  0
    3.4875   18.7325   38.3684 H   0  0  0  0  0  0  0  0  0  0  0  0
    3.4455   17.9982   43.2193 H   0  0  0  0  0  0  0  0  0  0  0  0
    2.3506   16.6877   40.5107 H   0  0  0  0  0  0  0  0  0  0  0  0
    0.8869   17.4679   41.1856 H   0  0  0  0  0  0  0  0  0  0  0  0
    4.0737   25.1499   32.6416 H   0  0  0  0  0  0  0  0  0  0  0  0
   -0.1064   13.2198   37.8334 H   0  0  0  0  0  0  0  0  0  0  0  0
    0.7046   14.0669   36.5739 H   0  0  0  0  0  0  0  0  0  0  0  0
    1.4267   18.4213   44.6530 H   0  0  0  0  0  0  0  0  0  0  0  0
   -0.0828   26.9480   33.0333 H   0  0  0  0  0  0  0  0  0  0  0  0
    0.8297   14.5712   39.4866 H   0  0  0  0  0  0  0  0  0  0  0  0
    2.0808   14.0329   38.5254 H   0  0  0  0  0  0  0  0  0  0  0  0
    3.4351   20.6368   35.9303 H   0  0  0  0  0  0  0  0  0  0  0  0
    1.6888   20.6399   36.5802 H   0  0  0  0  0  0  0  0  0  0  0  0
    4.1957   21.5925   37.8090 H   0  0  0  0  0  0  0  0  0  0  0  0
    2.6595   22.5466   38.0536 H   0  0  0  0  0  0  0  0  0  0  0  0
    3.3818   20.1889   42.4281 H   0  0  0  0  0  0  0  0  0  0  0  0
    1.3756   20.2340   43.6144 H   0  0  0  0  0  0  0  0  0  0  0  0
    0.5355   19.3743   42.2821 H   0  0  0  0  0  0  0  0  0  0  0  0
    0.2220   17.7314   38.8452 H   0  0  0  0  0  0  0  0  0  0  0  0
   -0.6829   16.3123   37.0678 H   0  0  0  0  0  0  0  0  0  0  0  0
   -1.8966   15.1458   37.6234 H   0  0  0  0  0  0  0  0  0  0  0  0
    1.2365   21.3611   40.0480 H   0  0  0  0  0  0  0  0  0  0  0  0
    2.7649   21.6761   40.5635 H   0  0  0  0  0  0  0  0  0  0  0  0
    1.4373   20.2586   41.4358 H   0  0  0  0  0  0  0  0  0  0  0  0
    2.6367   16.2247   38.4607 H   0  0  0  0  0  0  0  0  0  0  0  0
    1.4656   16.2679   37.1685 H   0  0  0  0  0  0  0  0  0  0  0  0
   -0.9242   24.9328   34.6442 H   0  0  0  0  0  0  0  0  0  0  0  0
    3.6925   20.4809   39.1667 H   0  0  0  0  0  0  0  0  0  0  0  0
  2  6  1  0
  2 23  1  0
  3  8  1  0
  3 11  2  0
  4 27  1  0
  4  2  1  0
  7 21  1  0
  8 13  2  0
  9 20  1  0
  9 12  1  0
 11 26  1  0
 13  7  1  0
 13 16  1  0
 14 15  1  0
 16 24  1  0
 17  5  1  0
 17 18  1  0
 18 10  1  0
 19  1  1  0
 19  6  1  0
 20  1  1  0
 21 24  2  0
 22 23  1  0
 23 17  1  0
 24 14  1  0
 25 12  1  0
 25 19  1  0
 26  7  2  0
 27 15  1  0
 27 22  1  0
  1 28  1  0
  1 29  1  0
  3 30  1  0
  4 31  1  0
  4 32  1  0
  5 33  1  0
  6 34  1  0
  6 35  1  0
  8 36  1  0
  9 37  1  0
  9 38  1  0
 10 39  1  0
 11 40  1  0
 12 41  1  0
 12 42  1  0
 14 43  1  0
 14 44  1  0
 15 45  1  0
 15 46  1  0
 17 47  1  1
 18 48  1  0
 18 49  1  0
 19 50  1  6
 20 51  1  0
 20 52  1  0
 22 53  1  0
 22 54  1  0
 23 55  1  1
 25 56  1  0
 25 57  1  0
 26 58  1  0
 27 59  1  1
M  CHG  2  12   1  22   1
M  END
>  <mol_id>  (84) 
2026-09-18-6fnk-s0-n100-0085

>  <rmsd_to_ref>  (84) 


$$$$

     RDKit          3D

 55 58  0  0  0  0  0  0  0  0999 V2000
    1.8070   22.5570   36.1390 C   0  0  2  0  0  0  0  0  0  0  0  0
   -0.4390   15.5750   37.6890 C   0  0  0  0  0  0  0  0  0  0  0  0
    1.7950   18.9780   40.0010 C   0  0  0  0  0  0  0  0  0  0  0  0
    1.6090   16.2330   36.8100 C   0  0  0  0  0  0  0  0  0  0  0  0
    2.2270   17.5920   40.2760 C   0  0  1  0  0  0  0  0  0  0  0  0
    2.2830   15.4840   36.0740 O   0  0  0  0  0  0  0  0  0  0  0  0
    2.3570   17.0970   41.6140 C   0  0  0  0  0  0  0  0  0  0  0  0
    2.9180   22.2740   34.9220 N   0  0  0  0  0  0  0  0  0  0  0  0
    3.0220   23.5670   34.2870 O   0  0  0  0  0  0  0  0  0  0  0  0
    0.9730   17.6580   42.2140 O   0  0  0  0  0  0  0  0  0  0  0  0
    0.1670   16.1400   36.5890 O   0  0  0  0  0  0  0  0  0  0  0  0
    0.4120   26.7280   33.9680 S   0  0  2  0  0  4  0  0  0  0  0  0
    1.8420   24.2790   35.2580 C   0  0  1  0  0  0  0  0  0  0  0  0
    2.8350   21.7440   36.4870 C   0  0  1  0  0  0  0  0  0  0  0  0
    0.1780   16.0330   39.0880 C   0  0  2  0  0  0  0  0  0  0  0  0
   -0.5780   15.7190   40.2430 F   0  0  0  0  0  0  0  0  0  0  0  0
    2.0560   24.5750   33.9250 C   0  0  1  0  0  0  0  0  0  0  0  0
    1.0760   25.3160   35.9240 C   0  0  0  0  0  0  0  0  0  0  0  0
    2.0210   16.9080   37.9800 N   0  0  0  0  0  0  0  0  0  0  0  0
    1.4210   16.7470   39.1730 C   0  0  0  0  0  0  0  0  0  0  0  0
    0.2210   28.2510   34.1980 C   0  0  0  0  0  0  0  0  0  0  0  0
    2.9200   20.1530   39.9630 C   0  0  0  0  0  0  0  0  0  0  0  0
    0.6140   26.3400   35.4960 C   0  0  0  0  0  0  0  0  0  0  0  0
    3.5010   21.8640   37.9340 C   0  0  0  0  0  0  0  0  0  0  0  0
    2.4740   21.3140   39.0980 C   0  0  0  0  0  0  0  0  0  0  0  0
    1.8080   25.9470   33.5500 C   0  0  0  0  0  0  0  0  0  0  0  0
    0.8842   22.4793   36.7326 H   0  0  0  0  0  0  0  0  0  0  0  0
   -0.3427   14.4820   37.6116 H   0  0  0  0  0  0  0  0  0  0  0  0
   -1.4853   15.9143   37.6806 H   0  0  0  0  0  0  0  0  0  0  0  0
    1.2978   18.9737   39.0198 H   0  0  0  0  0  0  0  0  0  0  0  0
    1.1653   19.2383   40.8646 H   0  0  0  0  0  0  0  0  0  0  0  0
    3.3180   17.4890   40.1810 H   0  0  0  0  0  0  0  0  0  0  0  0
    2.4072   15.9986   41.6461 H   0  0  0  0  0  0  0  0  0  0  0  0
    3.2678   17.4033   42.1494 H   0  0  0  0  0  0  0  0  0  0  0  0
    1.0117   17.6423   43.2031 H   0  0  0  0  0  0  0  0  0  0  0  0
   -0.5295   26.4342   33.0172 H   0  0  0  0  0  0  0  0  0  0  0  0
    2.9279   24.1716   35.3971 H   0  0  0  0  0  0  0  0  0  0  0  0
    3.1318   20.7290   36.7897 H   0  0  0  0  0  0  0  0  0  0  0  0
    0.7209   15.0791   39.1608 H   0  0  0  0  0  0  0  0  0  0  0  0
    1.6845   24.5347   32.8904 H   0  0  0  0  0  0  0  0  0  0  0  0
    0.2061   24.7824   36.3346 H   0  0  0  0  0  0  0  0  0  0  0  0
    1.9064   25.7623   36.4907 H   0  0  0  0  0  0  0  0  0  0  0  0
    0.1950   28.4583   35.2780 H   0  0  0  0  0  0  0  0  0  0  0  0
    1.0575   28.7988   33.7395 H   0  0  0  0  0  0  0  0  0  0  0  0
   -0.7248   28.5753   33.7395 H   0  0  0  0  0  0  0  0  0  0  0  0
    3.0945   20.5153   40.9869 H   0  0  0  0  0  0  0  0  0  0  0  0
    3.8435   19.7359   39.5352 H   0  0  0  0  0  0  0  0  0  0  0  0
    1.2526   27.1346   35.9091 H   0  0  0  0  0  0  0  0  0  0  0  0
   -0.4377   26.1960   35.7844 H   0  0  0  0  0  0  0  0  0  0  0  0
    4.4246   21.2669   37.9565 H   0  0  0  0  0  0  0  0  0  0  0  0
    3.7244   22.9226   38.1326 H   0  0  0  0  0  0  0  0  0  0  0  0
    2.2630   22.1583   39.7707 H   0  0  0  0  0  0  0  0  0  0  0  0
    1.6156   20.9178   38.5357 H   0  0  0  0  0  0  0  0  0  0  0  0
    2.6317   26.5374   33.9778 H   0  0  0  0  0  0  0  0  0  0  0  0
    1.7155   25.8756   32.4562 H   0  0  0  0  0  0  0  0  0  0  0  0
  1 14  1  0
  2 15  1  0
  3  5  1  0
  4 19  1  0
  5  7  1  0
  6  4  2  0
  7 10  1  0
  8  1  1  0
  8 14  1  0
  9  8  1  0
 11  4  1  0
 11  2  1  0
 12 21  1  0
 12 23  1  0
 13 18  1  0
 13  1  1  0
 14 24  1  0
 15 20  1  0
 15 16  1  0
 17  9  1  0
 17 13  1  0
 19 20  2  0
 20  5  1  0
 22  3  1  0
 23 18  1  0
 24 25  1  0
 25 22  1  0
 26 17  1  0
 26 12  1  0
  1 27  1  6
  2 28  1  0
  2 29  1  0
  3 30  1  0
  3 31  1  0
  5 32  1  6
  7 33  1  0
  7 34  1  0
 10 35  1  0
 12 36  1  6
 13 37  1  1
 14 38  1  6
 15 39  1  1
 17 40  1  6
 18 41  1  0
 18 42  1  0
 21 43  1  0
 21 44  1  0
 21 45  1  0
 22 46  1  0
 22 47  1  0
 23 48  1  0
 23 49  1  0
 24 50  1  0
 24 51  1  0
 25 52  1  0
 25 53  1  0
 26 54  1  0
 26 55  1  0
M  END
>  <mol_id>  (85) 
2026-09-18-6fnk-s0-n100-0086

>  <rmsd_to_ref>  (85) 


$$$$

     RDKit          3D

 64 68  0  0  0  0  0  0  0  0999 V2000
    0.6490   15.2198   38.1538 C   0  0  0  0  0  0  0  0  0  0  0  0
    1.7719   16.9844   39.5495 C   0  0  0  0  0  0  0  0  0  0  0  0
    2.9981   22.2237   36.8129 C   0  0  2  0  0  0  0  0  0  0  0  0
    0.1742   26.6242   34.6900 C   0  0  1  0  0  0  0  0  0  0  0  0
    0.0491   13.1575   41.0774 C   0  0  0  0  0  0  0  0  0  0  0  0
    1.4146   27.1145   32.6664 C   0  0  0  0  0  0  0  0  0  0  0  0
    2.4325   14.1386   41.3745 C   0  0  0  0  0  0  0  0  0  0  0  0
   -0.0886   11.7623   40.3603 C   0  0  0  0  0  0  0  0  0  0  0  0
    3.0143   20.3697   38.1263 C   0  0  0  0  0  0  0  0  0  0  0  0
    0.3179   28.1526   35.1238 C   0  0  1  0  0  0  0  0  0  0  0  0
    1.7471   21.4984   36.1878 C   0  0  0  0  0  0  0  0  0  0  0  0
    0.1930   27.7146   33.5199 C   0  0  2  0  0  0  0  0  0  0  0  0
    2.4624   19.3555   38.8567 C   0  0  0  0  0  0  0  0  0  0  0  0
    2.3539   14.7800   42.4900 O   0  0  0  0  0  0  0  0  0  0  0  0
    1.2288   14.0819   40.3421 C   0  0  2  0  0  0  0  0  0  0  0  0
    3.2612   13.1747   41.2001 O   0  0  0  0  0  0  0  0  0  0  0  0
    3.3434   20.1135   41.2209 C   0  0  0  0  0  0  0  0  0  0  0  0
    3.1325   21.8543   38.3168 C   0  0  0  0  0  0  0  0  0  0  0  0
    0.7075   24.6033   35.5244 C   0  0  2  0  0  0  0  0  0  0  0  0
    0.7474   25.4041   34.5973 C   0  0  2  0  0  0  0  0  0  0  0  0
    2.1557   17.7954   40.6178 C   0  0  0  0  0  0  0  0  0  0  0  0
    0.9853   23.9028   36.1571 C   0  0  0  0  0  0  0  0  0  0  0  0
    1.7292   25.3289   33.0938 S   0  0  0  0  0  0  0  0  0  0  0  0
    2.3176   24.0105   35.1302 C   0  0  0  0  0  0  0  0  0  0  0  0
    2.1404   23.0483   35.7754 C   0  0  1  0  0  0  0  0  0  0  0  0
    1.9657   17.9598   38.0996 S   0  0  0  0  0  0  0  0  0  0  0  0
    1.3166   15.4236   39.5350 C   0  0  1  0  0  0  0  0  0  0  0  0
    2.6389   19.1488   40.3373 C   0  0  0  0  0  0  0  0  0  0  0  0
   -0.7633   28.7024   35.9639 C   0  0  0  0  0  0  0  0  0  0  0  0
   -0.3073   14.6918   38.2831 H   0  0  0  0  0  0  0  0  0  0  0  0
    0.4670   16.1989   37.6864 H   0  0  0  0  0  0  0  0  0  0  0  0
    1.3128   14.6240   37.5100 H   0  0  0  0  0  0  0  0  0  0  0  0
    4.0849   22.3762   36.8880 H   0  0  0  0  0  0  0  0  0  0  0  0
   -0.3779   25.8509   35.2443 H   0  0  0  0  0  0  0  0  0  0  0  0
   -0.9127   13.6885   41.0228 H   0  0  0  0  0  0  0  0  0  0  0  0
    0.3324   12.9903   42.1271 H   0  0  0  0  0  0  0  0  0  0  0  0
    2.3218   27.6989   32.8801 H   0  0  0  0  0  0  0  0  0  0  0  0
    1.1542   27.1745   31.5994 H   0  0  0  0  0  0  0  0  0  0  0  0
   -0.1854   10.9693   41.1165 H   0  0  0  0  0  0  0  0  0  0  0  0
   -0.9812   11.7670   39.7175 H   0  0  0  0  0  0  0  0  0  0  0  0
    0.8046   11.5760   39.7460 H   0  0  0  0  0  0  0  0  0  0  0  0
    4.0612   20.0513   38.0136 H   0  0  0  0  0  0  0  0  0  0  0  0
    2.1946   20.4260   37.3951 H   0  0  0  0  0  0  0  0  0  0  0  0
    1.0221   28.8177   35.6450 H   0  0  0  0  0  0  0  0  0  0  0  0
    1.8846   20.6809   35.4647 H   0  0  0  0  0  0  0  0  0  0  0  0
    0.8535   20.9922   36.5817 H   0  0  0  0  0  0  0  0  0  0  0  0
   -0.3628   28.2493   32.7356 H   0  0  0  0  0  0  0  0  0  0  0  0
    1.0533   13.5333   39.4051 H   0  0  0  0  0  0  0  0  0  0  0  0
    3.2033   19.8184   42.2713 H   0  0  0  0  0  0  0  0  0  0  0  0
    4.4168   20.1146   40.9803 H   0  0  0  0  0  0  0  0  0  0  0  0
    2.9316   21.1215   41.0651 H   0  0  0  0  0  0  0  0  0  0  0  0
    4.1022   22.1521   38.7423 H   0  0  0  0  0  0  0  0  0  0  0  0
    2.4263   22.3281   39.0144 H   0  0  0  0  0  0  0  0  0  0  0  0
    1.0963   25.3737   36.2066 H   0  0  0  0  0  0  0  0  0  0  0  0
    0.3128   24.3952   34.6534 H   0  0  0  0  0  0  0  0  0  0  0  0
    2.0963   17.4250   41.6518 H   0  0  0  0  0  0  0  0  0  0  0  0
    1.2419   24.3987   37.1049 H   0  0  0  0  0  0  0  0  0  0  0  0
    0.1302   23.2123   36.2018 H   0  0  0  0  0  0  0  0  0  0  0  0
    2.4682   23.8078   34.0596 H   0  0  0  0  0  0  0  0  0  0  0  0
    3.1973   24.6437   35.3185 H   0  0  0  0  0  0  0  0  0  0  0  0
    2.2899   15.1436   39.1059 H   0  0  0  0  0  0  0  0  0  0  0  0
   -0.5821   28.4357   37.0155 H   0  0  0  0  0  0  0  0  0  0  0  0
   -0.7859   29.7974   35.8619 H   0  0  0  0  0  0  0  0  0  0  0  0
   -1.7278   28.2840   35.6404 H   0  0  0  0  0  0  0  0  0  0  0  0
  1 27  1  0
  2 27  1  0
  2 21  2  0
  3 18  1  0
  4 20  1  0
  4 10  1  0
  6 23  1  0
  6 12  1  0
  7 14  1  0
  8  5  1  0
  9 13  1  0
 10 29  1  0
 11  3  1  0
 12  4  1  0
 12 10  1  0
 13 28  2  0
 15  5  1  0
 15  7  1  0
 16  7  2  0
 18  9  1  0
 19 22  1  0
 20 19  1  0
 23 20  1  0
 24 19  1  0
 25 24  1  6
 25 22  1  0
 25 11  1  0
 25  3  1  0
 26 13  1  0
 26  2  1  0
 27 15  1  0
 28 21  1  0
 28 17  1  0
  1 30  1  0
  1 31  1  0
  1 32  1  0
  3 33  1  6
  4 34  1  1
  5 35  1  0
  5 36  1  0
  6 37  1  0
  6 38  1  0
  8 39  1  0
  8 40  1  0
  8 41  1  0
  9 42  1  0
  9 43  1  0
 10 44  1  6
 11 45  1  0
 11 46  1  0
 12 47  1  6
 15 48  1  6
 17 49  1  0
 17 50  1  0
 17 51  1  0
 18 52  1  0
 18 53  1  0
 19 54  1  6
 20 55  1  6
 21 56  1  0
 22 57  1  0
 22 58  1  0
 24 59  1  0
 24 60  1  0
 27 61  1  6
 29 62  1  0
 29 63  1  0
 29 64  1  0
M  CHG  1  14  -1
M  END
>  <mol_id>  (86) 
2026-09-18-6fnk-s0-n100-0087

>  <rmsd_to_ref>  (86) 


$$$$

     RDKit          3D

 57 58  0  0  0  0  0  0  0  0999 V2000
    2.3486   19.5147   42.7213 O   0  0  0  0  0  0  0  0  0  0  0  0
    1.3651   19.3307   39.6719 N   0  0  0  0  0  0  0  0  0  0  0  0
    4.5227   21.3892   43.4633 C   0  0  0  0  0  0  0  0  0  0  0  0
    2.4212   21.0657   40.9418 O   0  0  0  0  0  0  0  0  0  0  0  0
    2.3331   18.3698   37.1703 O   0  0  0  0  0  0  0  0  0  0  0  0
    1.0003   18.1475   38.8964 C   0  0  0  0  0  0  0  0  0  0  0  0
    0.0015   16.1744   39.3050 C   0  0  0  0  0  0  0  0  0  0  0  0
    1.4889   28.5205   36.2006 O   0  0  0  0  0  0  0  0  0  0  0  0
    0.4021   16.4538   37.9274 N   0  0  0  0  0  0  0  0  0  0  0  0
   -0.8850   29.5289   35.7034 C   0  0  0  0  0  0  0  0  0  0  0  0
    0.8712   26.4841   32.3819 C   0  0  0  0  0  0  0  0  0  0  0  0
    2.3094   20.3919   39.7463 C   0  0  2  0  0  0  0  0  0  0  0  0
   -1.0777   15.1144   39.2865 C   0  0  0  0  0  0  0  0  0  0  0  0
    2.4558   21.1244   37.5967 O   0  0  0  0  0  0  0  0  0  0  0  0
    1.0154   29.4956   34.1359 C   0  0  0  0  0  0  0  0  0  0  0  0
    0.3582   28.1271   34.0619 C   0  0  2  0  0  0  0  0  0  0  0  0
   -0.9029   16.6899   37.1414 C   0  0  0  0  0  0  0  0  0  0  0  0
    1.1309   24.3603   34.0656 C   0  0  0  0  0  0  0  0  0  0  0  0
    4.2607   21.6531   38.9402 O   0  0  0  0  0  0  0  0  0  0  0  0
    1.3289   17.7062   37.9170 C   0  0  0  0  0  0  0  0  0  0  0  0
    3.1110   21.5037   43.0270 O   0  0  0  0  0  0  0  0  0  0  0  0
    3.0384   21.1078   38.7618 C   0  0  0  0  0  0  0  0  0  0  0  0
    2.5847   20.5541   42.1976 C   0  0  0  0  0  0  0  0  0  0  0  0
   -2.3951   15.5935   38.7375 C   0  0  0  0  0  0  0  0  0  0  0  0
    0.5223   28.9244   35.3425 C   0  0  1  0  0  0  0  0  0  0  0  0
    1.4300   25.5032   33.2031 C   0  0  2  0  0  0  0  0  0  0  0  0
   -2.3070   16.5380   37.5365 C   0  0  0  0  0  0  0  0  0  0  0  0
    1.0420   26.8992   33.8703 C   0  0  1  0  0  0  0  0  0  0  0  0
    4.5650   21.3509   44.5618 H   0  0  0  0  0  0  0  0  0  0  0  0
    4.9617   20.4703   43.0472 H   0  0  0  0  0  0  0  0  0  0  0  0
    5.0893   22.2612   43.1046 H   0  0  0  0  0  0  0  0  0  0  0  0
    0.2201   17.5473   39.3873 H   0  0  0  0  0  0  0  0  0  0  0  0
   -0.3874   17.0915   39.7714 H   0  0  0  0  0  0  0  0  0  0  0  0
    0.8670   15.8204   39.8844 H   0  0  0  0  0  0  0  0  0  0  0  0
    1.1527   28.5832   37.1297 H   0  0  0  0  0  0  0  0  0  0  0  0
   -1.0227   29.5113   36.7947 H   0  0  0  0  0  0  0  0  0  0  0  0
   -0.9415   30.5668   35.3434 H   0  0  0  0  0  0  0  0  0  0  0  0
   -1.6745   28.9313   35.2245 H   0  0  0  0  0  0  0  0  0  0  0  0
    1.5001   26.9635   31.6172 H   0  0  0  0  0  0  0  0  0  0  0  0
    0.0065   26.4839   31.7021 H   0  0  0  0  0  0  0  0  0  0  0  0
    2.5752   19.4345   39.2744 H   0  0  0  0  0  0  0  0  0  0  0  0
   -0.7287   14.2757   38.6662 H   0  0  0  0  0  0  0  0  0  0  0  0
   -1.2554   14.8217   40.3319 H   0  0  0  0  0  0  0  0  0  0  0  0
    0.5074   30.3680   33.6990 H   0  0  0  0  0  0  0  0  0  0  0  0
    1.9904   29.8953   33.8201 H   0  0  0  0  0  0  0  0  0  0  0  0
   -0.4508   27.6839   33.4626 H   0  0  0  0  0  0  0  0  0  0  0  0
   -0.8040   16.0333   36.2644 H   0  0  0  0  0  0  0  0  0  0  0  0
   -0.8758   17.7893   37.1645 H   0  0  0  0  0  0  0  0  0  0  0  0
    1.0839   24.6937   35.1127 H   0  0  0  0  0  0  0  0  0  0  0  0
    0.1631   23.9253   33.7754 H   0  0  0  0  0  0  0  0  0  0  0  0
    1.9208   23.6026   33.9572 H   0  0  0  0  0  0  0  0  0  0  0  0
   -2.9755   14.7106   38.4317 H   0  0  0  0  0  0  0  0  0  0  0  0
   -2.8633   16.1760   39.5446 H   0  0  0  0  0  0  0  0  0  0  0  0
    2.1842   24.7947   32.8297 H   0  0  0  0  0  0  0  0  0  0  0  0
   -2.7200   17.5201   37.8104 H   0  0  0  0  0  0  0  0  0  0  0  0
   -2.8830   16.1215   36.6971 H   0  0  0  0  0  0  0  0  0  0  0  0
    1.3331   27.1299   34.9057 H   0  0  0  0  0  0  0  0  0  0  0  0
  4 23  1  0
  5 20  2  0
  6  2  2  3
  7 13  1  0
  9  7  1  0
 11 26  1  0
 12 22  1  0
 12  2  1  0
 12  4  1  0
 14 22  2  0
 15 25  1  0
 16 15  1  0
 16 25  1  0
 17 27  1  0
 17  9  1  0
 20  9  1  0
 20  6  1  0
 21  3  1  0
 22 19  1  0
 23  1  2  0
 23 21  1  0
 24 13  1  0
 25 10  1  0
 25  8  1  1
 26 28  1  0
 26 18  1  0
 27 24  1  0
 28 11  1  0
 28 16  1  0
  3 29  1  0
  3 30  1  0
  3 31  1  0
  6 32  1  0
  7 33  1  0
  7 34  1  0
  8 35  1  0
 10 36  1  0
 10 37  1  0
 10 38  1  0
 11 39  1  0
 11 40  1  0
 12 41  1  1
 13 42  1  0
 13 43  1  0
 15 44  1  0
 15 45  1  0
 16 46  1  6
 17 47  1  0
 17 48  1  0
 18 49  1  0
 18 50  1  0
 18 51  1  0
 24 52  1  0
 24 53  1  0
 26 54  1  6
 27 55  1  0
 27 56  1  0
 28 57  1  6
M  CHG  1  19  -1
M  END
>  <mol_id>  (87) 
2026-09-18-6fnk-s0-n100-0088

>  <rmsd_to_ref>  (87) 


$$$$

     RDKit          3D

 68 67  0  0  0  0  0  0  0  0999 V2000
    1.0611   25.8722   31.4983 S   0  0  0  0  0  0  0  0  0  0  0  0
    1.2724   26.9902   34.1718 O   0  0  0  0  0  0  0  0  0  0  0  0
    2.9818   18.8459   38.6933 C   0  0  0  0  0  0  0  0  0  0  0  0
    0.0318   26.8805   32.2411 C   0  0  0  0  0  0  0  0  0  0  0  0
    3.0000   23.5157   35.5891 C   0  0  0  0  0  0  0  0  0  0  0  0
    3.9941   22.4729   36.3453 C   0  0  2  0  0  0  0  0  0  0  0  0
    3.1966   21.5257   37.2107 C   0  0  0  0  0  0  0  0  0  0  0  0
    3.6376   19.9441   39.1951 C   0  0  0  0  0  0  0  0  0  0  0  0
   -0.5063   14.9710   39.3782 N   0  0  0  0  0  0  0  0  0  0  0  0
   -2.1015   15.2286   41.0593 N   0  0  0  0  0  0  0  0  0  0  0  0
    5.0468   19.1864   41.0241 C   0  0  0  0  0  0  0  0  0  0  0  0
    2.2299   18.5638   37.3749 C   0  0  0  0  0  0  0  0  0  0  0  0
    7.1198   23.0709   35.0047 C   0  0  0  0  0  0  0  0  0  0  0  0
    3.8274   21.2124   38.6168 C   0  0  0  0  0  0  0  0  0  0  0  0
    0.2318   15.4826   38.2009 C   0  0  0  0  0  0  0  0  0  0  0  0
    1.3095   16.4238   38.5062 C   0  0  0  0  0  0  0  0  0  0  0  0
   -1.9835   16.9178   39.5818 C   0  0  0  0  0  0  0  0  0  0  0  0
    2.8355   24.6286   33.4492 C   0  0  0  0  0  0  0  0  0  0  0  0
    4.3429   19.8931   40.5324 C   0  0  0  0  0  0  0  0  0  0  0  0
    5.0380   23.4241   36.8311 C   0  0  0  0  0  0  0  0  0  0  0  0
    1.7974   17.1162   37.2821 C   0  0  0  0  0  0  0  0  0  0  0  0
    0.5677   26.4815   33.6590 C   0  0  0  0  0  0  0  0  0  0  0  0
    1.9704   25.7913   33.9754 C   0  0  0  0  0  0  0  0  0  0  0  0
    6.1839   23.9390   36.0961 C   0  0  0  0  0  0  0  0  0  0  0  0
    3.4183   23.6549   34.0883 C   0  0  0  0  0  0  0  0  0  0  0  0
   -1.4638   15.6768   40.0438 C   0  0  0  0  0  0  0  0  0  0  0  0
    1.9801   25.4097   32.4030 H   0  0  0  0  0  0  0  0  0  0  0  0
    2.9955   17.9840   39.3766 H   0  0  0  0  0  0  0  0  0  0  0  0
    0.1950   27.9391   31.9908 H   0  0  0  0  0  0  0  0  0  0  0  0
   -1.0449   26.7983   32.0318 H   0  0  0  0  0  0  0  0  0  0  0  0
    1.9669   23.1423   35.6469 H   0  0  0  0  0  0  0  0  0  0  0  0
    3.0670   24.4994   36.0769 H   0  0  0  0  0  0  0  0  0  0  0  0
    4.5335   21.6749   35.8141 H   0  0  0  0  0  0  0  0  0  0  0  0
    2.2032   21.9688   37.3744 H   0  0  0  0  0  0  0  0  0  0  0  0
    3.1668   20.5688   36.6692 H   0  0  0  0  0  0  0  0  0  0  0  0
   -0.2824   14.0237   39.7148 H   0  0  0  0  0  0  0  0  0  0  0  0
   -2.8147   15.8129   41.5185 H   0  0  0  0  0  0  0  0  0  0  0  0
    5.4199   19.3973   42.0371 H   0  0  0  0  0  0  0  0  0  0  0  0
    5.3699   18.2763   40.4974 H   0  0  0  0  0  0  0  0  0  0  0  0
    1.3388   19.2070   37.3268 H   0  0  0  0  0  0  0  0  0  0  0  0
    2.9107   18.7751   36.5371 H   0  0  0  0  0  0  0  0  0  0  0  0
    7.9807   22.6305   35.5289 H   0  0  0  0  0  0  0  0  0  0  0  0
    6.5132   22.2694   34.5579 H   0  0  0  0  0  0  0  0  0  0  0  0
    7.4784   23.7443   34.2123 H   0  0  0  0  0  0  0  0  0  0  0  0
    4.9131   21.3605   38.5203 H   0  0  0  0  0  0  0  0  0  0  0  0
    3.2897   21.8891   39.2971 H   0  0  0  0  0  0  0  0  0  0  0  0
   -0.4877   15.9903   37.5417 H   0  0  0  0  0  0  0  0  0  0  0  0
    0.7105   14.6085   37.7353 H   0  0  0  0  0  0  0  0  0  0  0  0
    0.9356   17.1760   39.2164 H   0  0  0  0  0  0  0  0  0  0  0  0
    2.1480   15.8575   38.9376 H   0  0  0  0  0  0  0  0  0  0  0  0
   -1.9063   17.6683   40.3822 H   0  0  0  0  0  0  0  0  0  0  0  0
   -1.4072   17.2538   38.7072 H   0  0  0  0  0  0  0  0  0  0  0  0
   -3.0389   16.7907   39.2988 H   0  0  0  0  0  0  0  0  0  0  0  0
    2.1846   24.1193   32.7233 H   0  0  0  0  0  0  0  0  0  0  0  0
    3.7402   25.2142   33.2285 H   0  0  0  0  0  0  0  0  0  0  0  0
    4.1033   20.7585   41.1678 H   0  0  0  0  0  0  0  0  0  0  0  0
    4.4788   24.3193   37.1408 H   0  0  0  0  0  0  0  0  0  0  0  0
    5.5684   22.7541   37.5239 H   0  0  0  0  0  0  0  0  0  0  0  0
    0.9852   17.0704   36.5417 H   0  0  0  0  0  0  0  0  0  0  0  0
    2.7257   16.5817   37.0319 H   0  0  0  0  0  0  0  0  0  0  0  0
   -0.3164   26.4625   34.3133 H   0  0  0  0  0  0  0  0  0  0  0  0
    1.1215   25.5633   33.4134 H   0  0  0  0  0  0  0  0  0  0  0  0
    2.5200   25.8690   34.9252 H   0  0  0  0  0  0  0  0  0  0  0  0
    1.2718   25.5776   33.1531 H   0  0  0  0  0  0  0  0  0  0  0  0
    6.8873   24.2905   36.8653 H   0  0  0  0  0  0  0  0  0  0  0  0
    5.6737   24.6261   35.4050 H   0  0  0  0  0  0  0  0  0  0  0  0
    3.1731   22.7132   33.5754 H   0  0  0  0  0  0  0  0  0  0  0  0
    4.4947   23.8816   34.0853 H   0  0  0  0  0  0  0  0  0  0  0  0
  1  4  1  0
  2 23  1  0
  3  8  2  3
  4 22  1  0
  6  5  1  0
  6  7  1  0
  6 20  1  0
  7 14  1  0
  8 19  1  0
  9 26  1  0
 12  3  1  0
 13 24  1  0
 14  8  1  0
 15 16  1  0
 15  9  1  0
 17 26  1  0
 18 23  1  0
 18 25  1  0
 19 11  2  3
 21 12  1  0
 21 16  1  0
 22  2  1  0
 24 20  1  0
 25  5  1  0
 26 10  2  3
  1 27  1  0
  3 28  1  0
  4 29  1  0
  4 30  1  0
  5 31  1  0
  5 32  1  0
  6 33  1  6
  7 34  1  0
  7 35  1  0
  9 36  1  0
 10 37  1  0
 11 38  1  0
 11 39  1  0
 12 40  1  0
 12 41  1  0
 13 42  1  0
 13 43  1  0
 13 44  1  0
 14 45  1  0
 14 46  1  0
 15 47  1  0
 15 48  1  0
 16 49  1  0
 16 50  1  0
 17 51  1  0
 17 52  1  0
 17 53  1  0
 18 54  1  0
 18 55  1  0
 19 56  1  0
 20 57  1  0
 20 58  1  0
 21 59  1  0
 21 60  1  0
 22 61  1  0
 22 62  1  0
 23 63  1  0
 23 64  1  0
 24 65  1  0
 24 66  1  0
 25 67  1  0
 25 68  1  0
M  END
>  <mol_id>  (88) 
2026-09-18-6fnk-s0-n100-0089

>  <rmsd_to_ref>  (88) 


$$$$

     RDKit          3D

 91 93  0  0  0  0  0  0  0  0999 V2000
    3.2918   20.4856   40.7297 N   0  0  0  0  0  0  0  0  0  0  0  0
    0.7940   18.2791   43.8983 C   0  0  0  0  0  0  0  0  0  0  0  0
    1.1193   17.4629   39.3736 C   0  0  0  0  0  0  0  0  0  0  0  0
    1.3333   20.2054   42.3545 C   0  0  0  0  0  0  0  0  0  0  0  0
    0.2435   15.6705   41.4890 C   0  0  2  0  0  0  0  0  0  0  0  0
    2.9620   22.4341   37.8295 C   0  0  0  0  0  0  0  0  0  0  0  0
   -0.9836   14.9346   41.7774 C   0  0  0  0  0  0  0  0  0  0  0  0
    0.1083   15.0274   37.8277 C   0  0  0  0  0  0  0  0  0  0  0  0
    2.7435   19.6752   38.5234 O   0  0  0  0  0  0  0  0  0  0  0  0
    0.2088   19.4366   43.1778 C   0  0  2  0  0  0  0  0  0  0  0  0
    2.3892   26.7952   32.4264 C   0  0  1  0  0  0  0  0  0  0  0  0
    3.5263   20.3544   41.8493 C   0  0  1  0  0  0  0  0  0  0  0  0
    0.5363   16.8592   41.6180 C   0  0  0  0  0  0  0  0  0  0  0  0
    2.4272   27.0986   34.8408 C   0  0  0  0  0  0  0  0  0  0  0  0
    0.5329   16.3099   40.1794 C   0  0  1  0  0  0  0  0  0  0  0  0
    5.1866   23.9903   31.9706 C   0  0  0  0  0  0  0  0  0  0  0  0
    5.3084   21.9416   38.5731 C   0  0  0  0  0  0  0  0  0  0  0  0
    2.6974   25.1755   32.6132 C   0  0  2  0  0  0  0  0  0  0  0  0
    4.5087   20.9405   42.8922 C   0  0  0  0  0  0  0  0  0  0  0  0
   -0.3210   16.4423   37.6297 C   0  0  0  0  0  0  0  0  0  0  0  0
    2.6045   23.0124   33.9773 C   0  0  0  0  0  0  0  0  0  0  0  0
   -0.7051   14.5000   39.0778 N   0  0  0  0  0  0  0  0  0  0  0  0
    4.2996   24.8881   32.5915 C   0  0  0  0  0  0  0  0  0  0  0  0
    2.5898   25.6456   30.9448 C   0  0  0  0  0  0  0  0  0  0  0  0
    2.0994   23.7847   32.8952 C   0  0  0  0  0  0  0  0  0  0  0  0
    0.9643   17.2280   37.8236 C   0  0  0  0  0  0  0  0  0  0  0  0
    3.4602   22.5454   33.0096 C   0  0  0  0  0  0  0  0  0  0  0  0
    1.3204   27.6961   35.4124 C   0  0  0  0  0  0  0  0  0  0  0  0
    1.7233   28.4415   34.3394 C   0  0  0  0  0  0  0  0  0  0  0  0
    3.2266   20.6876   39.4839 C   0  0  0  0  0  0  0  0  0  0  0  0
    3.8184   21.9554   39.1396 C   0  0  0  0  0  0  0  0  0  0  0  0
    2.3281   26.1170   33.8024 C   0  0  2  0  0  0  0  0  0  0  0  0
   -0.4750   20.1366   43.8495 O   0  0  0  0  0  0  0  0  0  0  0  0
   -1.3181   14.2066   40.4320 C   0  0  0  0  0  0  0  0  0  0  0  0
    0.4346   17.0987   43.9777 O   0  0  0  0  0  0  0  0  0  0  0  0
    2.5494   19.6939   42.7083 O   0  0  0  0  0  0  0  0  0  0  0  0
    2.3092   20.1893   40.8164 H   0  0  0  0  0  0  0  0  0  0  0  0
    1.7096   18.5123   44.4615 H   0  0  0  0  0  0  0  0  0  0  0  0
    0.5969   18.3913   39.6475 H   0  0  0  0  0  0  0  0  0  0  0  0
    2.1926   17.5318   39.6045 H   0  0  0  0  0  0  0  0  0  0  0  0
    1.2984   21.2792   42.5907 H   0  0  0  0  0  0  0  0  0  0  0  0
    1.1674   20.0762   41.2747 H   0  0  0  0  0  0  0  0  0  0  0  0
    0.6375   14.8091   42.0482 H   0  0  0  0  0  0  0  0  0  0  0  0
    1.9979   22.8521   38.1545 H   0  0  0  0  0  0  0  0  0  0  0  0
    3.5284   23.2016   37.2817 H   0  0  0  0  0  0  0  0  0  0  0  0
    2.7844   21.5704   37.1719 H   0  0  0  0  0  0  0  0  0  0  0  0
   -0.8213   14.2063   42.5856 H   0  0  0  0  0  0  0  0  0  0  0  0
   -1.7992   15.5904   42.1163 H   0  0  0  0  0  0  0  0  0  0  0  0
    1.1892   14.9795   38.0263 H   0  0  0  0  0  0  0  0  0  0  0  0
   -0.0845   14.4172   36.9329 H   0  0  0  0  0  0  0  0  0  0  0  0
   -0.5091   19.0362   42.4468 H   0  0  0  0  0  0  0  0  0  0  0  0
    2.2542   27.8803   32.3069 H   0  0  0  0  0  0  0  0  0  0  0  0
    4.2211   20.2384   41.0044 H   0  0  0  0  0  0  0  0  0  0  0  0
   -0.2401   17.5759   41.9236 H   0  0  0  0  0  0  0  0  0  0  0  0
    1.2865   17.3911   42.2217 H   0  0  0  0  0  0  0  0  0  0  0  0
    3.3475   26.6858   35.2797 H   0  0  0  0  0  0  0  0  0  0  0  0
    0.3890   15.7987   39.2161 H   0  0  0  0  0  0  0  0  0  0  0  0
    5.6710   23.3656   32.7354 H   0  0  0  0  0  0  0  0  0  0  0  0
    4.6295   23.3488   31.2719 H   0  0  0  0  0  0  0  0  0  0  0  0
    5.9529   24.5546   31.4188 H   0  0  0  0  0  0  0  0  0  0  0  0
    6.0191   21.9015   39.4116 H   0  0  0  0  0  0  0  0  0  0  0  0
    5.4484   21.0594   37.9311 H   0  0  0  0  0  0  0  0  0  0  0  0
    5.4856   22.8545   37.9854 H   0  0  0  0  0  0  0  0  0  0  0  0
    4.1288   20.7427   43.9054 H   0  0  0  0  0  0  0  0  0  0  0  0
    5.4953   20.4692   42.7720 H   0  0  0  0  0  0  0  0  0  0  0  0
    4.6000   22.0261   42.7404 H   0  0  0  0  0  0  0  0  0  0  0  0
   -1.0765   16.7327   38.3746 H   0  0  0  0  0  0  0  0  0  0  0  0
   -0.7886   16.6171   36.6495 H   0  0  0  0  0  0  0  0  0  0  0  0
    3.0723   23.5826   34.7934 H   0  0  0  0  0  0  0  0  0  0  0  0
    1.9870   22.3696   34.6220 H   0  0  0  0  0  0  0  0  0  0  0  0
   -1.6183   14.6710   38.6331 H   0  0  0  0  0  0  0  0  0  0  0  0
    0.1870   14.1490   39.4547 H   0  0  0  0  0  0  0  0  0  0  0  0
    4.5180   24.7259   33.6573 H   0  0  0  0  0  0  0  0  0  0  0  0
    4.5054   25.6963   31.8741 H   0  0  0  0  0  0  0  0  0  0  0  0
    2.6250   24.6025   31.2921 H   0  0  0  0  0  0  0  0  0  0  0  0
    1.7376   25.7760   30.2615 H   0  0  0  0  0  0  0  0  0  0  0  0
    3.5238   25.8879   30.4165 H   0  0  0  0  0  0  0  0  0  0  0  0
    1.1079   23.9934   32.4670 H   0  0  0  0  0  0  0  0  0  0  0  0
    1.8209   16.6551   37.4391 H   0  0  0  0  0  0  0  0  0  0  0  0
    0.9309   18.1832   37.2791 H   0  0  0  0  0  0  0  0  0  0  0  0
    3.3558   21.5349   32.5876 H   0  0  0  0  0  0  0  0  0  0  0  0
    4.5410   22.4760   32.8174 H   0  0  0  0  0  0  0  0  0  0  0  0
    0.3563   27.1707   35.3442 H   0  0  0  0  0  0  0  0  0  0  0  0
    1.1389   27.9977   36.4546 H   0  0  0  0  0  0  0  0  0  0  0  0
    2.2076   29.4188   34.4821 H   0  0  0  0  0  0  0  0  0  0  0  0
    1.2783   28.8192   33.4071 H   0  0  0  0  0  0  0  0  0  0  0  0
    3.8177   22.5548   40.0619 H   0  0  0  0  0  0  0  0  0  0  0  0
    1.9899   25.6046   34.7151 H   0  0  0  0  0  0  0  0  0  0  0  0
   -0.3647   19.8900   44.8019 H   0  0  0  0  0  0  0  0  0  0  0  0
   -2.4006   14.3436   40.2929 H   0  0  0  0  0  0  0  0  0  0  0  0
   -0.8603   13.2268   40.6335 H   0  0  0  0  0  0  0  0  0  0  0  0
  1 12  1  0
  2 35  2  0
  4 36  1  0
  4 10  1  0
  5 13  1  0
  5  7  1  0
  6 31  1  0
  8 22  1  0
  9 30  2  0
 10  2  1  0
 10 33  1  0
 11 24  1  0
 11 18  1  0
 11 32  1  0
 12 19  1  0
 12 36  1  0
 14 28  1  0
 15  3  1  0
 15  5  1  0
 15 13  1  0
 16 23  1  0
 17 31  1  0
 18 23  1  6
 18 25  1  0
 18 32  1  0
 20 26  1  0
 20  8  1  0
 22 34  1  0
 25 27  1  0
 25 21  1  0
 26  3  1  0
 27 21  1  0
 29 14  1  0
 29 28  1  0
 30  1  1  0
 31 30  1  0
 32 14  1  0
 34  7  1  0
  1 37  1  0
  2 38  1  0
  3 39  1  0
  3 40  1  0
  4 41  1  0
  4 42  1  0
  5 43  1  1
  6 44  1  0
  6 45  1  0
  6 46  1  0
  7 47  1  0
  7 48  1  0
  8 49  1  0
  8 50  1  0
 10 51  1  6
 11 52  1  6
 12 53  1  6
 13 54  1  0
 13 55  1  0
 14 56  1  0
 15 57  1  6
 16 58  1  0
 16 59  1  0
 16 60  1  0
 17 61  1  0
 17 62  1  0
 17 63  1  0
 19 64  1  0
 19 65  1  0
 19 66  1  0
 20 67  1  0
 20 68  1  0
 21 69  1  0
 21 70  1  0
 22 71  1  0
 22 72  1  0
 23 73  1  0
 23 74  1  0
 24 75  1  0
 24 76  1  0
 24 77  1  0
 25 78  1  0
 26 79  1  0
 26 80  1  0
 27 81  1  0
 27 82  1  0
 28 83  1  0
 28 84  1  0
 29 85  1  0
 29 86  1  0
 31 87  1  0
 32 88  1  1
 33 89  1  0
 34 90  1  0
 34 91  1  0
M  CHG  1  22   1
M  END
>  <mol_id>  (89) 
2026-09-18-6fnk-s0-n100-0090

>  <rmsd_to_ref>  (89) 


$$$$

     RDKit          3D

 90 91  0  0  0  0  0  0  0  0999 V2000
    2.3400   26.3591   30.0836 C   0  0  1  0  0  0  0  0  0  0  0  0
    1.7482   14.2105   35.6130 C   0  0  1  0  0  0  0  0  0  0  0  0
    4.1136   21.2263   39.9685 O   0  0  0  0  0  0  0  0  0  0  0  0
    0.6307   13.9620   38.0031 C   0  0  0  0  0  0  0  0  0  0  0  0
    1.0028   24.7204   35.2913 C   0  0  0  0  0  0  0  0  0  0  0  0
    1.9857   16.0714   37.7700 C   0  0  0  0  0  0  0  0  0  0  0  0
    1.8974   27.4771   30.4448 C   0  0  0  0  0  0  0  0  0  0  0  0
    2.6330   13.3107   34.6498 C   0  0  0  0  0  0  0  0  0  0  0  0
    0.6550   16.0353   45.1934 C   0  0  0  0  0  0  0  0  0  0  0  0
    0.7207   15.4239   39.8513 O   0  0  0  0  0  0  0  0  0  0  0  0
    2.6039   20.1877   38.1371 C   0  0  0  0  0  0  0  0  0  0  0  0
    2.3380   21.5813   37.8155 C   0  0  0  0  0  0  0  0  0  0  0  0
    4.4328   20.5058   42.5552 C   0  0  0  0  0  0  0  0  0  0  0  0
    1.1577   25.9170   30.8885 C   0  0  1  0  0  0  0  0  0  0  0  0
    1.2586   17.7074   40.2878 C   0  0  0  0  0  0  0  0  0  0  0  0
    1.2548   18.4293   42.3931 C   0  0  0  0  0  0  0  0  0  0  0  0
    0.6050   17.3667   44.5071 C   0  0  0  0  0  0  0  0  0  0  0  0
    1.5283   18.6391   41.1435 C   0  0  0  0  0  0  0  0  0  0  0  0
    1.2483   13.4322   36.8758 C   0  0  0  0  0  0  0  0  0  0  0  0
    0.7434   26.1499   35.1837 C   0  0  0  0  0  0  0  0  0  0  0  0
    0.7109   17.4066   43.0235 C   0  0  1  0  0  0  0  0  0  0  0  0
    1.0438   15.5056   38.5942 C   0  0  2  0  0  0  0  0  0  0  0  0
    1.3403   17.9665   38.8428 O   0  0  0  0  0  0  0  0  0  0  0  0
    2.0408   22.0267   36.3614 C   0  0  0  0  0  0  0  0  0  0  0  0
   -0.2252   28.1470   34.9203 F   0  0  0  0  0  0  0  0  0  0  0  0
    0.1512   16.1075   42.2457 S   0  0  0  0  0  0  0  0  0  0  0  0
    2.5048   19.6813   39.5705 C   0  0  0  0  0  0  0  0  0  0  0  0
    3.1805   20.5699   41.8297 O   0  0  0  0  0  0  0  0  0  0  0  0
    3.3522   20.4990   40.4159 C   0  0  0  0  0  0  0  0  0  0  0  0
    0.4330   27.1054   34.3604 C   0  0  0  0  0  0  0  0  0  0  0  0
    2.1672   15.2063   36.2758 C   0  0  0  0  0  0  0  0  0  0  0  0
    1.8955   24.6757   30.3696 C   0  0  0  0  0  0  0  0  0  0  0  0
    0.7886   16.4216   40.7965 C   0  0  0  0  0  0  0  0  0  0  0  0
    1.5218   11.3470   33.4209 C   0  0  0  0  0  0  0  0  0  0  0  0
    0.6057   27.1019   33.0105 C   0  0  0  0  0  0  0  0  0  0  0  0
   -0.4681   18.2823   45.1059 C   0  0  0  0  0  0  0  0  0  0  0  0
    2.0264   23.8223   36.4448 S   0  0  0  0  0  4  0  0  0  0  0  0
    1.5944   12.8450   33.6716 N   0  0  0  0  0  0  0  0  0  0  0  0
    1.3517   25.9860   32.4359 C   0  0  0  0  0  0  0  0  0  0  0  0
    2.9982   26.3349   30.9646 H   0  0  0  0  0  0  0  0  0  0  0  0
    1.0975   14.5293   34.7854 H   0  0  0  0  0  0  0  0  0  0  0  0
    0.8190   13.2537   38.8233 H   0  0  0  0  0  0  0  0  0  0  0  0
   -0.4054   14.1057   37.6628 H   0  0  0  0  0  0  0  0  0  0  0  0
    0.4874   24.0976   34.5454 H   0  0  0  0  0  0  0  0  0  0  0  0
    1.6824   17.1045   37.5448 H   0  0  0  0  0  0  0  0  0  0  0  0
    2.9520   16.0387   38.2946 H   0  0  0  0  0  0  0  0  0  0  0  0
    1.8840   27.5286   31.5435 H   0  0  0  0  0  0  0  0  0  0  0  0
    2.5447   28.2732   30.0482 H   0  0  0  0  0  0  0  0  0  0  0  0
    0.8758   27.6091   30.0591 H   0  0  0  0  0  0  0  0  0  0  0  0
    3.4204   13.8988   34.1557 H   0  0  0  0  0  0  0  0  0  0  0  0
    3.1791   12.5008   35.1558 H   0  0  0  0  0  0  0  0  0  0  0  0
    0.6691   16.1848   46.2831 H   0  0  0  0  0  0  0  0  0  0  0  0
   -0.2313   15.4460   44.9155 H   0  0  0  0  0  0  0  0  0  0  0  0
    1.5640   15.4979   44.8854 H   0  0  0  0  0  0  0  0  0  0  0  0
    2.8805   19.4893   37.3335 H   0  0  0  0  0  0  0  0  0  0  0  0
    2.3482   22.3324   38.6191 H   0  0  0  0  0  0  0  0  0  0  0  0
    4.2296   20.4835   43.6361 H   0  0  0  0  0  0  0  0  0  0  0  0
    4.9781   19.5954   42.2657 H   0  0  0  0  0  0  0  0  0  0  0  0
    5.0415   21.3900   42.3147 H   0  0  0  0  0  0  0  0  0  0  0  0
    0.1183   26.2668   30.8026 H   0  0  0  0  0  0  0  0  0  0  0  0
    1.5290   19.2644   43.0545 H   0  0  0  0  0  0  0  0  0  0  0  0
    1.5855   17.8013   44.7514 H   0  0  0  0  0  0  0  0  0  0  0  0
    1.9796   19.5880   40.8182 H   0  0  0  0  0  0  0  0  0  0  0  0
    0.5350   12.6911   36.4859 H   0  0  0  0  0  0  0  0  0  0  0  0
    2.2224   13.1744   37.3171 H   0  0  0  0  0  0  0  0  0  0  0  0
   -0.0655   26.2576   35.9214 H   0  0  0  0  0  0  0  0  0  0  0  0
    1.8150   26.3488   35.0348 H   0  0  0  0  0  0  0  0  0  0  0  0
    1.6950   16.9185   43.0807 H   0  0  0  0  0  0  0  0  0  0  0  0
    0.6810   16.5433   38.5577 H   0  0  0  0  0  0  0  0  0  0  0  0
    1.6611   18.8438   38.5145 H   0  0  0  0  0  0  0  0  0  0  0  0
    1.0651   21.6438   36.0277 H   0  0  0  0  0  0  0  0  0  0  0  0
    2.7815   21.6441   35.6437 H   0  0  0  0  0  0  0  0  0  0  0  0
    1.4625   19.7500   39.9154 H   0  0  0  0  0  0  0  0  0  0  0  0
    2.8308   18.6319   39.6189 H   0  0  0  0  0  0  0  0  0  0  0  0
    3.2441   14.9843   36.3060 H   0  0  0  0  0  0  0  0  0  0  0  0
    1.4354   15.8645   35.7846 H   0  0  0  0  0  0  0  0  0  0  0  0
    1.4694   24.0571   29.5660 H   0  0  0  0  0  0  0  0  0  0  0  0
    2.3602   23.7706   30.7876 H   0  0  0  0  0  0  0  0  0  0  0  0
    1.5159   10.8140   34.3832 H   0  0  0  0  0  0  0  0  0  0  0  0
    0.6015   11.1121   32.8661 H   0  0  0  0  0  0  0  0  0  0  0  0
    2.3957   11.0310   32.8322 H   0  0  0  0  0  0  0  0  0  0  0  0
    0.2003   27.9059   32.3787 H   0  0  0  0  0  0  0  0  0  0  0  0
   -0.4237   18.2301   46.2037 H   0  0  0  0  0  0  0  0  0  0  0  0
   -0.2897   19.3179   44.7805 H   0  0  0  0  0  0  0  0  0  0  0  0
   -1.4612   17.9563   44.7632 H   0  0  0  0  0  0  0  0  0  0  0  0
    3.3155   24.2462   36.2565 H   0  0  0  0  0  0  0  0  0  0  0  0
    1.7857   13.3043   32.7697 H   0  0  0  0  0  0  0  0  0  0  0  0
    0.6894   13.0947   34.0953 H   0  0  0  0  0  0  0  0  0  0  0  0
    0.9958   25.0470   32.8847 H   0  0  0  0  0  0  0  0  0  0  0  0
    2.4208   26.1349   32.6474 H   0  0  0  0  0  0  0  0  0  0  0  0
  1  7  1  0
  1 32  1  0
  1 14  1  0
  2  8  1  0
  2 31  1  0
  2 19  1  0
  3 29  2  0
  4 22  1  0
  5 37  2  3
  6 22  1  0
 10 33  1  0
 11 27  1  0
 12 11  2  3
 14 39  1  0
 15 33  2  0
 15 18  1  0
 16 21  1  0
 17 36  1  0
 17  9  1  0
 18 16  2  0
 19  4  1  0
 20  5  1  0
 21 17  1  0
 22 10  1  0
 23 15  1  0
 24 37  1  0
 24 12  1  0
 26 21  1  0
 27 29  1  0
 28 13  1  0
 29 28  1  0
 30 25  1  0
 30 20  1  0
 31  6  1  0
 32 14  1  0
 33 26  1  0
 34 38  1  0
 35 30  2  3
 38  8  1  0
 39 35  1  0
  1 40  1  6
  2 41  1  6
  4 42  1  0
  4 43  1  0
  5 44  1  0
  6 45  1  0
  6 46  1  0
  7 47  1  0
  7 48  1  0
  7 49  1  0
  8 50  1  0
  8 51  1  0
  9 52  1  0
  9 53  1  0
  9 54  1  0
 11 55  1  0
 12 56  1  0
 13 57  1  0
 13 58  1  0
 13 59  1  0
 14 60  1  1
 16 61  1  0
 17 62  1  0
 18 63  1  0
 19 64  1  0
 19 65  1  0
 20 66  1  0
 20 67  1  0
 21 68  1  1
 22 69  1  6
 23 70  1  0
 24 71  1  0
 24 72  1  0
 27 73  1  0
 27 74  1  0
 31 75  1  0
 31 76  1  0
 32 77  1  0
 32 78  1  0
 34 79  1  0
 34 80  1  0
 34 81  1  0
 35 82  1  0
 36 83  1  0
 36 84  1  0
 36 85  1  0
 37 86  1  6
 38 87  1  0
 38 88  1  0
 39 89  1  0
 39 90  1  0
M  CHG  1  38   1
M  END
>  <mol_id>  (90) 
2026-09-18-6fnk-s0-n100-0091

>  <rmsd_to_ref>  (90) 


$$$$

     RDKit          3D

 54 55  0  0  0  0  0  0  0  0999 V2000
    2.3016   20.5747   38.4347 C   0  0  0  0  0  0  0  0  0  0  0  0
    0.7319   26.5275   32.7335 C   0  0  0  0  0  0  0  0  0  0  0  0
   -0.3624   16.1965   37.2860 C   0  0  0  0  0  0  0  0  0  0  0  0
    2.1538   26.7313   32.8490 C   0  0  2  0  0  0  0  0  0  0  0  0
    1.0888   15.8647   39.0228 C   0  0  0  0  0  0  0  0  0  0  0  0
    0.5870   14.7490   39.7092 C   0  0  0  0  0  0  0  0  0  0  0  0
    3.2596   20.8388   40.6013 C   0  0  0  0  0  0  0  0  0  0  0  0
    3.1153   24.3540   35.4495 C   0  0  0  0  0  0  0  0  0  0  0  0
    1.0159   16.8623   38.1980 C   0  0  2  0  0  0  0  0  0  0  0  0
    1.5876   18.2194   38.4611 C   0  0  1  0  0  0  0  0  0  0  0  0
    1.4849   26.5164   35.2593 O   0  0  0  0  0  0  0  0  0  0  0  0
    2.9476   26.1895   32.1105 O   0  0  0  0  0  0  0  0  0  0  0  0
   -0.5576   13.9349   39.6343 C   0  0  2  0  0  0  0  0  0  0  0  0
   -1.5579   14.2783   38.6134 C   0  0  0  0  0  0  0  0  0  0  0  0
    3.1947   25.2973   34.5278 N   0  0  0  0  0  0  0  0  0  0  0  0
    2.0721   19.2513   37.7022 N   0  0  0  0  0  0  0  0  0  0  0  0
    2.2068   23.5419   35.8096 C   0  0  0  0  0  0  0  0  0  0  0  0
    2.3452   20.1823   39.7628 C   0  0  0  0  0  0  0  0  0  0  0  0
    3.2252   20.6440   42.1460 C   0  0  0  0  0  0  0  0  0  0  0  0
    2.5042   26.3192   34.4293 C   0  0  0  0  0  0  0  0  0  0  0  0
   -1.0788   15.4216   37.7599 C   0  0  0  0  0  0  0  0  0  0  0  0
    2.5686   22.0308   36.2922 C   0  0  0  0  0  0  0  0  0  0  0  0
   -0.8056   12.4288   40.5590 Cl  0  0  0  0  0  0  0  0  0  0  0  0
    2.2071   21.7780   37.6638 N   0  0  0  0  0  0  0  0  0  0  0  0
    1.1775   19.0001   39.9809 S   0  0  0  0  0  0  0  0  0  0  0  0
    4.0282   24.6279   36.2121 C   0  0  0  0  0  0  0  0  0  0  0  0
    2.8044   27.9612   32.8724 F   0  0  0  0  0  0  0  0  0  0  0  0
    0.2876   26.4653   33.7378 H   0  0  0  0  0  0  0  0  0  0  0  0
    0.2841   27.3699   32.1860 H   0  0  0  0  0  0  0  0  0  0  0  0
    0.5386   25.5918   32.1885 H   0  0  0  0  0  0  0  0  0  0  0  0
    0.0589   15.7222   36.3874 H   0  0  0  0  0  0  0  0  0  0  0  0
   -1.0117   17.0755   37.1597 H   0  0  0  0  0  0  0  0  0  0  0  0
    2.1238   15.9293   39.3898 H   0  0  0  0  0  0  0  0  0  0  0  0
    1.2638   14.4276   40.5146 H   0  0  0  0  0  0  0  0  0  0  0  0
    4.0154   21.5042   40.1585 H   0  0  0  0  0  0  0  0  0  0  0  0
    1.7415   17.3733   37.5480 H   0  0  0  0  0  0  0  0  0  0  0  0
    2.2837   17.4468   38.1025 H   0  0  0  0  0  0  0  0  0  0  0  0
    3.5801   25.6480   32.6460 H   0  0  0  0  0  0  0  0  0  0  0  0
   -0.0943   13.3586   38.8198 H   0  0  0  0  0  0  0  0  0  0  0  0
   -1.7369   13.4012   37.9741 H   0  0  0  0  0  0  0  0  0  0  0  0
   -2.4876   14.5801   39.1179 H   0  0  0  0  0  0  0  0  0  0  0  0
    3.9171   25.1663   33.8055 H   0  0  0  0  0  0  0  0  0  0  0  0
    1.6774   24.0183   36.6478 H   0  0  0  0  0  0  0  0  0  0  0  0
    1.6562   23.3685   34.8733 H   0  0  0  0  0  0  0  0  0  0  0  0
    2.5814   21.4128   42.5982 H   0  0  0  0  0  0  0  0  0  0  0  0
    2.8256   19.6465   42.3809 H   0  0  0  0  0  0  0  0  0  0  0  0
    4.2443   20.7351   42.5498 H   0  0  0  0  0  0  0  0  0  0  0  0
   -1.8013   16.1573   38.1432 H   0  0  0  0  0  0  0  0  0  0  0  0
   -0.6168   14.6698   37.1031 H   0  0  0  0  0  0  0  0  0  0  0  0
    2.0292   21.3189   35.6502 H   0  0  0  0  0  0  0  0  0  0  0  0
    3.6590   21.9108   36.2110 H   0  0  0  0  0  0  0  0  0  0  0  0
    1.8207   22.5886   38.1683 H   0  0  0  0  0  0  0  0  0  0  0  0
    4.8140   25.3310   35.8991 H   0  0  0  0  0  0  0  0  0  0  0  0
    4.0650   24.1716   37.2123 H   0  0  0  0  0  0  0  0  0  0  0  0
  1 18  1  0
  3 21  1  0
  4  2  1  0
  4 20  1  0
  5  6  2  0
  6 13  1  0
  7 19  1  0
  8 17  1  0
  8 26  2  3
  9  3  1  0
  9 10  1  0
  9  5  1  0
 10 16  1  0
 10 25  1  0
 12  4  1  0
 13 23  1  0
 14 13  1  0
 15  8  1  0
 16  1  2  0
 17 22  1  0
 18 25  1  0
 18  7  2  3
 20 15  1  0
 20 11  2  0
 21 14  1  0
 22 24  1  0
 24  1  1  0
  4 27  1  1
  2 28  1  0
  2 29  1  0
  2 30  1  0
  3 31  1  0
  3 32  1  0
  5 33  1  0
  6 34  1  0
  7 35  1  0
  9 36  1  6
 10 37  1  1
 12 38  1  0
 13 39  1  1
 14 40  1  0
 14 41  1  0
 15 42  1  0
 17 43  1  0
 17 44  1  0
 19 45  1  0
 19 46  1  0
 19 47  1  0
 21 48  1  0
 21 49  1  0
 22 50  1  0
 22 51  1  0
 24 52  1  0
 26 53  1  0
 26 54  1  0
M  END
>  <mol_id>  (91) 
2026-09-18-6fnk-s0-n100-0092

>  <rmsd_to_ref>  (91) 


$$$$

     RDKit          3D

 52 52  0  0  0  0  0  0  0  0999 V2000
    2.5242   20.9038   40.9816 C   0  0  0  0  0  0  0  0  0  0  0  0
    2.4051   19.6245   42.0281 C   0  0  0  0  0  0  0  0  0  0  0  0
    6.6071   25.5700   33.7409 C   0  0  2  0  0  0  0  0  0  0  0  0
   -0.8980   15.7639   38.9466 O   0  0  0  0  0  0  0  0  0  0  0  0
    5.7814   24.7311   34.6910 C   0  0  2  0  0  0  0  0  0  0  0  0
    6.1126   25.0835   32.4068 C   0  0  0  0  0  0  0  0  0  0  0  0
    2.0340   18.8807   38.9918 O   0  0  0  0  0  0  0  0  0  0  0  0
    1.5655   18.2399   39.8919 C   0  0  0  0  0  0  0  0  0  0  0  0
    0.7705   17.2547   39.4446 N   0  0  0  0  0  0  0  0  0  0  0  0
    4.6727   23.6767   36.7273 C   0  0  0  0  0  0  0  0  0  0  0  0
   -0.0978   16.5880   38.4468 C   0  0  0  0  0  0  0  0  0  0  0  0
    0.5120   17.2969   36.4602 O   0  0  0  0  0  0  0  0  0  0  0  0
   -1.5844   16.8454   36.5387 O   0  0  0  0  0  0  0  0  0  0  0  0
    7.3790   24.6856   36.5187 C   0  0  0  0  0  0  0  0  0  0  0  0
    3.3911   24.0012   35.5877 C   0  0  0  0  0  0  0  0  0  0  0  0
   -0.4920   17.0285   37.0510 C   0  0  0  0  0  0  0  0  0  0  0  0
    4.2838   24.7227   34.2159 C   0  0  0  0  0  0  0  0  0  0  0  0
    2.5517   21.3344   39.4495 C   0  0  0  0  0  0  0  0  0  0  0  0
    7.0881   25.2025   35.2457 C   0  0  1  0  0  0  0  0  0  0  0  0
    1.8906   18.3690   41.4142 C   0  0  0  0  0  0  0  0  0  0  0  0
    2.4642   23.2100   36.3273 C   0  0  0  0  0  0  0  0  0  0  0  0
    5.9302   23.8316   36.9975 C   0  0  0  0  0  0  0  0  0  0  0  0
    2.5198   24.5180   35.3821 C   0  0  0  0  0  0  0  0  0  0  0  0
    3.5686   22.3581   37.5375 S   0  0  0  0  0  0  0  0  0  0  0  0
    1.6881   21.5227   41.3395 H   0  0  0  0  0  0  0  0  0  0  0  0
    3.6211   20.8216   40.9893 H   0  0  0  0  0  0  0  0  0  0  0  0
    3.4056   19.4216   42.4377 H   0  0  0  0  0  0  0  0  0  0  0  0
    1.6759   19.9175   42.7979 H   0  0  0  0  0  0  0  0  0  0  0  0
    7.0566   26.4288   33.2210 H   0  0  0  0  0  0  0  0  0  0  0  0
    5.3276   23.8899   35.2356 H   0  0  0  0  0  0  0  0  0  0  0  0
    5.4033   24.2564   32.5581 H   0  0  0  0  0  0  0  0  0  0  0  0
    5.6086   25.9071   31.8800 H   0  0  0  0  0  0  0  0  0  0  0  0
    6.9642   24.7309   31.8065 H   0  0  0  0  0  0  0  0  0  0  0  0
    0.7568   16.5955   40.2358 H   0  0  0  0  0  0  0  0  0  0  0  0
    7.6006   25.4989   37.2254 H   0  0  0  0  0  0  0  0  0  0  0  0
    8.2623   24.0302   36.5082 H   0  0  0  0  0  0  0  0  0  0  0  0
    3.9322   25.7458   34.0166 H   0  0  0  0  0  0  0  0  0  0  0  0
    4.1421   24.1622   33.2801 H   0  0  0  0  0  0  0  0  0  0  0  0
    2.7056   22.4211   39.3767 H   0  0  0  0  0  0  0  0  0  0  0  0
    3.3732   20.8126   38.9367 H   0  0  0  0  0  0  0  0  0  0  0  0
    1.5954   21.0669   38.9762 H   0  0  0  0  0  0  0  0  0  0  0  0
    6.5993   26.1124   35.6242 H   0  0  0  0  0  0  0  0  0  0  0  0
    0.9568   18.1320   41.9451 H   0  0  0  0  0  0  0  0  0  0  0  0
    2.7606   17.7028   41.5115 H   0  0  0  0  0  0  0  0  0  0  0  0
    2.6693   23.3144   37.4029 H   0  0  0  0  0  0  0  0  0  0  0  0
    1.4400   23.5503   36.1146 H   0  0  0  0  0  0  0  0  0  0  0  0
    2.5680   22.1546   36.0350 H   0  0  0  0  0  0  0  0  0  0  0  0
    6.1809   23.1810   37.8483 H   0  0  0  0  0  0  0  0  0  0  0  0
    2.0172   24.7791   36.3251 H   0  0  0  0  0  0  0  0  0  0  0  0
    2.7608   25.4374   34.8283 H   0  0  0  0  0  0  0  0  0  0  0  0
    1.8543   23.8875   34.7742 H   0  0  0  0  0  0  0  0  0  0  0  0
    3.7013   22.4254   38.8993 H   0  0  0  0  0  0  0  0  0  0  0  0
  1  2  1  0
  3  6  1  0
  3  5  1  0
  3 19  1  0
  5 17  1  0
  5 19  1  0
  7  8  2  0
  8 20  1  0
  9  8  1  0
 10 22  2  0
 10 24  1  0
 11  4  2  0
 11  9  1  0
 12 16  2  0
 13 16  1  0
 14 22  1  0
 15 21  1  0
 15 10  1  0
 16 11  1  0
 17 15  1  0
 18  1  1  0
 19 14  1  0
 20  2  1  0
 23 15  1  0
  1 25  1  0
  1 26  1  0
  2 27  1  0
  2 28  1  0
  3 29  1  1
  5 30  1  6
  6 31  1  0
  6 32  1  0
  6 33  1  0
  9 34  1  0
 14 35  1  0
 14 36  1  0
 17 37  1  0
 17 38  1  0
 18 39  1  0
 18 40  1  0
 18 41  1  0
 19 42  1  1
 20 43  1  0
 20 44  1  0
 21 45  1  0
 21 46  1  0
 21 47  1  0
 22 48  1  0
 23 49  1  0
 23 50  1  0
 23 51  1  0
 24 52  1  0
M  CHG  1  13  -1
M  END
>  <mol_id>  (92) 
2026-09-18-6fnk-s0-n100-0093

>  <rmsd_to_ref>  (92) 


$$$$

     RDKit          3D

 70 70  0  0  0  0  0  0  0  0999 V2000
    0.7754   16.6180   38.5487 C   0  0  2  0  0  0  0  0  0  0  0  0
    3.9499   20.6820   40.2270 C   0  0  0  0  0  0  0  0  0  0  0  0
    0.6001   15.3722   37.2719 N   0  0  0  0  0  0  0  0  0  0  0  0
    3.6655   23.7307   35.4563 C   0  0  1  0  0  0  0  0  0  0  0  0
    3.2435   16.1566   38.9123 O   0  0  0  0  0  0  0  0  0  0  0  0
    0.8446   15.8413   39.8994 C   0  0  0  0  0  0  0  0  0  0  0  0
    3.3037   19.7403   39.4397 C   0  0  0  0  0  0  0  0  0  0  0  0
    7.1853   23.7787   35.0697 C   0  0  0  0  0  0  0  0  0  0  0  0
    4.9064   22.8760   35.5003 C   0  0  2  0  0  0  0  0  0  0  0  0
   -1.2621   14.7974   39.8503 O   0  0  0  0  0  0  0  0  0  0  0  0
    8.2487   22.8718   35.6399 C   0  0  0  0  0  0  0  0  0  0  0  0
    2.8404   22.7321   37.7008 C   0  0  0  0  0  0  0  0  0  0  0  0
    4.5135   21.6252   39.3591 N   0  0  0  0  0  0  0  0  0  0  0  0
    3.1977   24.1655   33.9047 C   0  0  0  0  0  0  0  0  0  0  0  0
    5.2952   22.4682   36.9261 C   0  0  0  0  0  0  0  0  0  0  0  0
    1.3365   14.1338   37.3151 C   0  0  0  0  0  0  0  0  0  0  0  0
    4.1956   22.0268   38.0160 C   0  0  2  0  0  0  0  0  0  0  0  0
   -0.0441   14.5197   40.0998 C   0  0  0  0  0  0  0  0  0  0  0  0
    2.6293   18.5855   40.1745 C   0  0  0  0  0  0  0  0  0  0  0  0
   -0.2907   15.8337   37.9275 N   0  0  0  0  0  0  0  0  0  0  0  0
    1.3952   16.5889   37.0909 C   0  0  0  0  0  0  0  0  0  0  0  0
    5.7453   23.1023   33.1071 C   0  0  0  0  0  0  0  0  0  0  0  0
    5.9438   23.2146   34.5044 C   0  0  1  0  0  0  0  0  0  0  0  0
    2.6367   22.8259   36.2432 C   0  0  0  0  0  0  0  0  0  0  0  0
    3.2629   15.2905   36.8744 F   0  0  0  0  0  0  0  0  0  0  0  0
    2.6899   14.7846   38.1158 C   0  0  1  0  0  0  0  0  0  0  0  0
    4.3186   20.5481   41.7413 C   0  0  0  0  0  0  0  0  0  0  0  0
    1.0461   17.5884   38.9902 H   0  0  0  0  0  0  0  0  0  0  0  0
    3.7863   24.7272   35.9061 H   0  0  0  0  0  0  0  0  0  0  0  0
    3.2259   16.0004   39.8897 H   0  0  0  0  0  0  0  0  0  0  0  0
    1.8941   15.5457   40.0447 H   0  0  0  0  0  0  0  0  0  0  0  0
    0.4198   16.5497   40.6259 H   0  0  0  0  0  0  0  0  0  0  0  0
    3.2788   19.8217   38.3430 H   0  0  0  0  0  0  0  0  0  0  0  0
    6.8824   24.4576   35.8804 H   0  0  0  0  0  0  0  0  0  0  0  0
    7.6800   24.2178   34.1909 H   0  0  0  0  0  0  0  0  0  0  0  0
    4.6600   21.8902   35.0787 H   0  0  0  0  0  0  0  0  0  0  0  0
   -1.7498   14.9358   40.7007 H   0  0  0  0  0  0  0  0  0  0  0  0
    8.2422   22.9440   36.7375 H   0  0  0  0  0  0  0  0  0  0  0  0
    8.0448   21.8335   35.3396 H   0  0  0  0  0  0  0  0  0  0  0  0
    9.2342   23.1771   35.2583 H   0  0  0  0  0  0  0  0  0  0  0  0
    2.0179   22.1523   38.1452 H   0  0  0  0  0  0  0  0  0  0  0  0
    2.8592   23.7470   38.1247 H   0  0  0  0  0  0  0  0  0  0  0  0
    4.4537   22.5048   39.8915 H   0  0  0  0  0  0  0  0  0  0  0  0
    5.3427   21.0658   39.1130 H   0  0  0  0  0  0  0  0  0  0  0  0
    2.4885   25.0046   33.9572 H   0  0  0  0  0  0  0  0  0  0  0  0
    4.0827   24.4691   33.3264 H   0  0  0  0  0  0  0  0  0  0  0  0
    2.7151   23.3077   33.4133 H   0  0  0  0  0  0  0  0  0  0  0  0
    5.9876   21.6193   36.8258 H   0  0  0  0  0  0  0  0  0  0  0  0
    5.6681   23.4149   37.3440 H   0  0  0  0  0  0  0  0  0  0  0  0
    0.8275   13.3534   37.9000 H   0  0  0  0  0  0  0  0  0  0  0  0
    1.5112   13.6123   36.3625 H   0  0  0  0  0  0  0  0  0  0  0  0
    4.1094   20.9385   37.8811 H   0  0  0  0  0  0  0  0  0  0  0  0
    0.3033   13.7339   39.4128 H   0  0  0  0  0  0  0  0  0  0  0  0
    0.0509   14.1612   41.1355 H   0  0  0  0  0  0  0  0  0  0  0  0
    2.7526   18.7193   41.2593 H   0  0  0  0  0  0  0  0  0  0  0  0
    1.5578   18.5690   39.9264 H   0  0  0  0  0  0  0  0  0  0  0  0
    3.0914   17.6357   39.8673 H   0  0  0  0  0  0  0  0  0  0  0  0
   -0.9900   16.3774   37.4019 H   0  0  0  0  0  0  0  0  0  0  0  0
    2.4859   16.4813   36.9980 H   0  0  0  0  0  0  0  0  0  0  0  0
    1.3473   17.3454   36.2937 H   0  0  0  0  0  0  0  0  0  0  0  0
    4.8483   22.4961   32.9117 H   0  0  0  0  0  0  0  0  0  0  0  0
    5.6120   24.1046   32.6740 H   0  0  0  0  0  0  0  0  0  0  0  0
    6.6212   22.6189   32.6500 H   0  0  0  0  0  0  0  0  0  0  0  0
    6.3118   22.1785   34.5353 H   0  0  0  0  0  0  0  0  0  0  0  0
    1.6296   23.2328   36.0697 H   0  0  0  0  0  0  0  0  0  0  0  0
    2.7834   21.8063   35.8574 H   0  0  0  0  0  0  0  0  0  0  0  0
    2.7592   14.0409   38.9232 H   0  0  0  0  0  0  0  0  0  0  0  0
    3.5268   21.0046   42.3532 H   0  0  0  0  0  0  0  0  0  0  0  0
    4.4162   19.4840   42.0022 H   0  0  0  0  0  0  0  0  0  0  0  0
    5.2723   21.0617   41.9332 H   0  0  0  0  0  0  0  0  0  0  0  0
  1  6  1  0
  2 27  1  0
  3 16  1  0
  3 20  1  0
  4 14  1  0
  4  9  1  0
  4 24  1  0
  6 18  1  0
  7 19  1  0
  7  2  2  3
  8 11  1  0
  9 23  1  0
  9 15  1  0
 10 18  1  0
 12 17  1  0
 13  2  1  0
 15 17  1  0
 16 26  1  0
 17 13  1  0
 20  1  1  0
 21  3  1  0
 21  1  1  0
 23 22  1  0
 23  8  1  0
 24 12  1  0
 26 25  1  0
 26  5  1  0
  1 28  1  1
  4 29  1  1
  5 30  1  0
  6 31  1  0
  6 32  1  0
  7 33  1  0
  8 34  1  0
  8 35  1  0
  9 36  1  6
 10 37  1  0
 11 38  1  0
 11 39  1  0
 11 40  1  0
 12 41  1  0
 12 42  1  0
 13 43  1  0
 13 44  1  0
 14 45  1  0
 14 46  1  0
 14 47  1  0
 15 48  1  0
 15 49  1  0
 16 50  1  0
 16 51  1  0
 17 52  1  6
 18 53  1  0
 18 54  1  0
 19 55  1  0
 19 56  1  0
 19 57  1  0
 20 58  1  0
 21 59  1  0
 21 60  1  0
 22 61  1  0
 22 62  1  0
 22 63  1  0
 23 64  1  1
 24 65  1  0
 24 66  1  0
 26 67  1  1
 27 68  1  0
 27 69  1  0
 27 70  1  0
M  CHG  1  13   1
M  END
>  <mol_id>  (93) 
2026-09-18-6fnk-s0-n100-0094

>  <rmsd_to_ref>  (93) 


$$$$

     RDKit          3D

 57 58  0  0  0  0  0  0  0  0999 V2000
    2.8086   22.1017   43.1248 F   0  0  0  0  0  0  0  0  0  0  0  0
    0.7454   17.2877   39.8245 C   0  0  0  0  0  0  0  0  0  0  0  0
    1.3289   24.9083   34.9776 C   0  0  0  0  0  0  0  0  0  0  0  0
   -1.6034   17.6540   37.4200 C   0  0  0  0  0  0  0  0  0  0  0  0
    0.9096   27.3333   34.5913 C   0  0  0  0  0  0  0  0  0  0  0  0
    2.0937   23.7880   34.6743 C   0  0  0  0  0  0  0  0  0  0  0  0
    1.7485   16.9805   36.3078 C   0  0  0  0  0  0  0  0  0  0  0  0
    3.0565   23.8784   33.6180 C   0  0  0  0  0  0  0  0  0  0  0  0
    3.3078   20.0756   42.5054 C   0  0  2  0  0  0  0  0  0  0  0  0
    1.3696   22.7159   36.5577 O   0  0  0  0  0  0  0  0  0  0  0  0
    4.3469   22.0444   41.5396 F   0  0  0  0  0  0  0  0  0  0  0  0
    1.0617   19.4220   41.2041 C   0  0  2  0  0  0  0  0  0  0  0  0
    2.4762   19.1811   41.9477 C   0  0  0  0  0  0  0  0  0  0  0  0
    1.4503   26.1357   34.2245 C   0  0  0  0  0  0  0  0  0  0  0  0
    2.2244   26.0645   33.0094 C   0  0  0  0  0  0  0  0  0  0  0  0
    3.0539   24.9502   32.7497 C   0  0  0  0  0  0  0  0  0  0  0  0
    1.8844   22.6242   35.3565 N   0  0  0  0  0  0  0  0  0  0  0  0
    2.5426   21.5992   35.1196 O   0  0  0  0  0  0  0  0  0  0  0  0
    4.3449   19.8746   43.4781 C   0  0  0  0  0  0  0  0  0  0  0  0
    2.0474   21.8563   41.1565 C   0  0  0  0  0  0  0  0  0  0  0  0
    0.0525   18.7024   42.1057 C   0  0  0  0  0  0  0  0  0  0  0  0
    0.4505   17.1442   36.0866 N   0  0  0  0  0  0  0  0  0  0  0  0
    0.8566   17.2220   38.2550 C   0  0  0  0  0  0  0  0  0  0  0  0
    3.0665   21.4872   42.0453 C   0  0  0  0  0  0  0  0  0  0  0  0
    1.9702   17.0624   37.5532 N   0  0  0  0  0  0  0  0  0  0  0  0
    1.1359   18.6544   39.9450 N   0  0  0  0  0  0  0  0  0  0  0  0
    0.9584   20.8846   41.0124 C   0  0  0  0  0  0  0  0  0  0  0  0
   -0.0726   17.2752   37.2692 C   0  0  0  0  0  0  0  0  0  0  0  0
    1.4411   16.6009   40.3289 H   0  0  0  0  0  0  0  0  0  0  0  0
   -0.2175   16.9998   40.2717 H   0  0  0  0  0  0  0  0  0  0  0  0
    0.6134   24.8593   35.8117 H   0  0  0  0  0  0  0  0  0  0  0  0
   -1.8630   17.7134   38.4873 H   0  0  0  0  0  0  0  0  0  0  0  0
   -1.7890   18.6275   36.9428 H   0  0  0  0  0  0  0  0  0  0  0  0
   -2.2211   16.8840   36.9347 H   0  0  0  0  0  0  0  0  0  0  0  0
    0.8455   27.3861   35.6882 H   0  0  0  0  0  0  0  0  0  0  0  0
    1.5452   28.1512   34.2213 H   0  0  0  0  0  0  0  0  0  0  0  0
   -0.0979   27.4281   34.1601 H   0  0  0  0  0  0  0  0  0  0  0  0
    2.5101   16.8024   35.5345 H   0  0  0  0  0  0  0  0  0  0  0  0
    3.8073   23.0835   33.4976 H   0  0  0  0  0  0  0  0  0  0  0  0
    4.0335   19.9053   41.6965 H   0  0  0  0  0  0  0  0  0  0  0  0
    2.2382   18.4848   42.7654 H   0  0  0  0  0  0  0  0  0  0  0  0
    3.0784   18.9487   41.0570 H   0  0  0  0  0  0  0  0  0  0  0  0
    2.1687   26.8847   32.2786 H   0  0  0  0  0  0  0  0  0  0  0  0
    3.6961   24.9375   31.8568 H   0  0  0  0  0  0  0  0  0  0  0  0
    3.9193   19.9536   44.4894 H   0  0  0  0  0  0  0  0  0  0  0  0
    4.7858   18.8759   43.3430 H   0  0  0  0  0  0  0  0  0  0  0  0
    5.1238   20.6402   43.3472 H   0  0  0  0  0  0  0  0  0  0  0  0
    1.6134   22.8028   41.5113 H   0  0  0  0  0  0  0  0  0  0  0  0
    2.5203   21.9318   40.1663 H   0  0  0  0  0  0  0  0  0  0  0  0
    0.2869   18.9131   43.1596 H   0  0  0  0  0  0  0  0  0  0  0  0
   -0.9627   19.0592   41.8774 H   0  0  0  0  0  0  0  0  0  0  0  0
    0.1090   17.6185   41.9271 H   0  0  0  0  0  0  0  0  0  0  0  0
    2.9095   17.0108   37.9726 H   0  0  0  0  0  0  0  0  0  0  0  0
    2.1229   18.6905   39.6527 H   0  0  0  0  0  0  0  0  0  0  0  0
    0.4054   19.1188   39.3868 H   0  0  0  0  0  0  0  0  0  0  0  0
    0.1844   21.2134   41.7214 H   0  0  0  0  0  0  0  0  0  0  0  0
    0.8225   20.9193   39.9214 H   0  0  0  0  0  0  0  0  0  0  0  0
  2 26  1  0
  6  3  2  0
  6 17  1  0
  7 25  1  0
  8  6  1  0
  9 19  1  0
 11 24  1  0
 12 13  1  0
 12 21  1  1
 13  9  1  0
 14  5  1  0
 14  3  1  0
 15 14  2  0
 16 15  1  0
 16  8  2  0
 17 10  1  0
 18 17  2  0
 20 24  1  0
 22  7  2  0
 22 28  1  0
 23  2  1  0
 24  9  1  0
 24  1  1  0
 25 23  1  0
 26 12  1  0
 27 20  1  0
 27 12  1  0
 28  4  1  0
 28 23  2  0
  2 29  1  0
  2 30  1  0
  3 31  1  0
  4 32  1  0
  4 33  1  0
  4 34  1  0
  5 35  1  0
  5 36  1  0
  5 37  1  0
  7 38  1  0
  8 39  1  0
  9 40  1  6
 13 41  1  0
 13 42  1  0
 15 43  1  0
 16 44  1  0
 19 45  1  0
 19 46  1  0
 19 47  1  0
 20 48  1  0
 20 49  1  0
 21 50  1  0
 21 51  1  0
 21 52  1  0
 25 53  1  0
 26 54  1  0
 26 55  1  0
 27 56  1  0
 27 57  1  0
M  CHG  3  10  -1  17   1  26   1
M  END
>  <mol_id>  (94) 
2026-09-18-6fnk-s0-n100-0095

>  <rmsd_to_ref>  (94) 


$$$$

     RDKit          3D

 48 49  0  0  0  0  0  0  0  0999 V2000
    6.8101   23.0587   36.1452 Cl  0  0  0  0  0  0  0  0  0  0  0  0
   -1.0177   15.2307   38.6441 C   0  0  0  0  0  0  0  0  0  0  0  0
   -2.1453   15.2106   37.9883 N   0  0  0  0  0  0  0  0  0  0  0  0
    4.8360   23.6794   34.2940 C   0  0  0  0  0  0  0  0  0  0  0  0
    1.7255   17.5328   39.2686 C   0  0  0  0  0  0  0  0  0  0  0  0
    2.1701   16.9705   40.6604 C   0  0  0  0  0  0  0  0  0  0  0  0
    2.2962   19.8328   40.0866 C   0  0  0  0  0  0  0  0  0  0  0  0
    2.8549   22.2454   35.7297 C   0  0  0  0  0  0  0  0  0  0  0  0
    1.8147   21.1452   36.5621 Cl  0  0  0  0  0  0  0  0  0  0  0  0
    0.0045   16.2357   38.5633 O   0  0  0  0  0  0  0  0  0  0  0  0
    2.8148   24.7735   32.8627 C   0  0  0  0  0  0  0  0  0  0  0  0
    5.1286   22.9554   35.4880 C   0  0  1  0  0  0  0  0  0  0  0  0
    1.9564   18.9376   38.7849 C   0  0  0  0  0  0  0  0  0  0  0  0
    1.2180   16.6272   38.1200 C   0  0  0  0  0  0  0  0  0  0  0  0
    2.8092   19.2625   41.3617 C   0  0  0  0  0  0  0  0  0  0  0  0
    0.7427   26.4333   33.4873 C   0  0  0  0  0  0  0  0  0  0  0  0
    2.6816   17.8437   41.5563 C   0  0  0  0  0  0  0  0  0  0  0  0
    0.8660   24.1914   34.8155 S   0  0  0  0  0  0  0  0  0  0  0  0
    2.4721   23.2432   34.8563 C   0  0  1  0  0  0  0  0  0  0  0  0
   -0.5871   14.1673   39.5070 N   0  0  0  0  0  0  0  0  0  0  0  0
   -0.2975   27.0397   34.4493 C   0  0  0  0  0  0  0  0  0  0  0  0
    2.2214   21.3703   39.8816 Cl  0  0  0  0  0  0  0  0  0  0  0  0
    3.4560   23.8851   34.0511 C   0  0  2  0  0  0  0  0  0  0  0  0
    1.4190   25.2558   33.5691 C   0  0  2  0  0  0  0  0  0  0  0  0
    4.2138   22.1137   36.1070 C   0  0  0  0  0  0  0  0  0  0  0  0
   -2.4030   16.0029   37.3827 H   0  0  0  0  0  0  0  0  0  0  0  0
    5.3227   24.6636   34.3618 H   0  0  0  0  0  0  0  0  0  0  0  0
    5.2111   23.0685   33.4597 H   0  0  0  0  0  0  0  0  0  0  0  0
    2.0697   15.9018   40.9009 H   0  0  0  0  0  0  0  0  0  0  0  0
    2.6268   24.1712   31.9617 H   0  0  0  0  0  0  0  0  0  0  0  0
    3.4556   25.5940   32.5073 H   0  0  0  0  0  0  0  0  0  0  0  0
    4.7597   23.7990   36.0899 H   0  0  0  0  0  0  0  0  0  0  0  0
    1.9041   19.2888   37.7438 H   0  0  0  0  0  0  0  0  0  0  0  0
    1.8835   15.7639   37.9722 H   0  0  0  0  0  0  0  0  0  0  0  0
    1.1827   17.1370   37.1459 H   0  0  0  0  0  0  0  0  0  0  0  0
    3.2696   19.9035   42.1280 H   0  0  0  0  0  0  0  0  0  0  0  0
    0.2174   26.3766   32.5225 H   0  0  0  0  0  0  0  0  0  0  0  0
    1.5802   27.1026   33.7337 H   0  0  0  0  0  0  0  0  0  0  0  0
    3.0300   17.4341   42.5159 H   0  0  0  0  0  0  0  0  0  0  0  0
    2.0236   22.2570   34.6658 H   0  0  0  0  0  0  0  0  0  0  0  0
    0.3144   14.2374   40.0004 H   0  0  0  0  0  0  0  0  0  0  0  0
   -1.1795   13.3341   39.6327 H   0  0  0  0  0  0  0  0  0  0  0  0
    0.0065   26.8448   35.4883 H   0  0  0  0  0  0  0  0  0  0  0  0
   -0.3614   28.1253   34.2834 H   0  0  0  0  0  0  0  0  0  0  0  0
   -1.2801   26.5818   34.2628 H   0  0  0  0  0  0  0  0  0  0  0  0
    3.4390   22.9998   33.3985 H   0  0  0  0  0  0  0  0  0  0  0  0
    1.2520   25.4621   32.5017 H   0  0  0  0  0  0  0  0  0  0  0  0
    4.5311   21.3759   36.8586 H   0  0  0  0  0  0  0  0  0  0  0  0
  2 20  1  0
  3  2  2  3
  4 12  1  0
  5  6  2  0
  6 17  1  0
  7 15  1  0
  8 25  2  0
  8  9  1  0
 10  2  1  0
 11 24  1  0
 12 25  1  0
 12  1  1  0
 13  5  1  0
 13  7  2  0
 14 10  1  0
 14  5  1  0
 15 17  2  0
 16 21  1  0
 19 18  1  0
 19  8  1  0
 22  7  1  0
 23 11  1  0
 23  4  1  0
 23 19  1  0
 24 16  1  0
 24 18  1  0
  3 26  1  0
  4 27  1  0
  4 28  1  0
  6 29  1  0
 11 30  1  0
 11 31  1  0
 12 32  1  1
 13 33  1  0
 14 34  1  0
 14 35  1  0
 15 36  1  0
 16 37  1  0
 16 38  1  0
 17 39  1  0
 19 40  1  6
 20 41  1  0
 20 42  1  0
 21 43  1  0
 21 44  1  0
 21 45  1  0
 23 46  1  1
 24 47  1  6
 25 48  1  0
M  END
>  <mol_id>  (95) 
2026-09-18-6fnk-s0-n100-0096

>  <rmsd_to_ref>  (95) 


$$$$

     RDKit          3D

 84 85  0  0  0  0  0  0  0  0999 V2000
    1.3416   17.0679   41.5312 C   0  0  0  0  0  0  0  0  0  0  0  0
   -2.8749   20.7491   37.1846 C   0  0  0  0  0  0  0  0  0  0  0  0
    2.5565   21.6050   37.9851 C   0  0  0  0  0  0  0  0  0  0  0  0
   -4.2579   20.4634   36.6137 C   0  0  0  0  0  0  0  0  0  0  0  0
    1.1456   25.1159   34.3843 C   0  0  2  0  0  0  0  0  0  0  0  0
    2.6337   23.0831   35.4693 C   0  0  0  0  0  0  0  0  0  0  0  0
   -0.4488   15.8656   39.3784 C   0  0  1  0  0  0  0  0  0  0  0  0
   -0.1077   24.2884   35.3956 C   0  0  0  0  0  0  0  0  0  0  0  0
   -0.2058   15.5144   40.7608 O   0  0  0  0  0  0  0  0  0  0  0  0
    0.1454   17.1822   38.8588 C   0  0  2  0  0  0  0  0  0  0  0  0
    0.9380   14.8119   38.0949 O   0  0  0  0  0  0  0  0  0  0  0  0
    1.7258   18.1052   37.4609 O   0  0  0  0  0  0  0  0  0  0  0  0
    2.9499   23.9090   33.1188 C   0  0  1  0  0  0  0  0  0  0  0  0
    0.4474   28.1256   35.1775 C   0  0  0  0  0  0  0  0  0  0  0  0
    2.0180   19.3291   41.4049 C   0  0  2  0  0  0  0  0  0  0  0  0
    0.7153   27.7798   33.8211 C   0  0  0  0  0  0  0  0  0  0  0  0
    1.1849   26.1986   33.2338 C   0  0  1  0  0  0  0  0  0  0  0  0
    2.8265   20.1335   41.2846 C   0  0  1  0  0  0  0  0  0  0  0  0
    2.2417   22.5380   36.6579 C   0  0  0  0  0  0  0  0  0  0  0  0
    2.0651   24.8057   33.3155 C   0  0  2  0  0  0  0  0  0  0  0  0
   -0.3291   14.8022   38.4984 C   0  0  0  0  0  0  0  0  0  0  0  0
    2.0969   21.2102   39.1601 C   0  0  0  0  0  0  0  0  0  0  0  0
    3.8841   20.5591   42.2515 C   0  0  0  0  0  0  0  0  0  0  0  0
    2.9275   22.9238   34.3466 C   0  0  0  0  0  0  0  0  0  0  0  0
    0.8357   16.8583   37.5818 C   0  0  0  0  0  0  0  0  0  0  0  0
    1.8068   18.2580   42.8022 S   0  0  0  0  0  0  0  0  0  0  0  0
    1.5781   28.9805   35.4025 C   0  0  0  0  0  0  0  0  0  0  0  0
    1.1326   18.1500   40.7260 C   0  0  1  0  0  0  0  0  0  0  0  0
    0.2564   16.6609   36.3145 O   0  0  0  0  0  0  0  0  0  0  0  0
    2.9063   20.8249   40.1098 O   0  0  0  0  0  0  0  0  0  0  0  0
    5.3304   23.0144   30.7517 C   0  0  0  0  0  0  0  0  0  0  0  0
    2.9210   24.2650   31.8183 O   0  0  0  0  0  0  0  0  0  0  0  0
    4.3313   23.7657   31.9503 C   0  0  1  0  0  0  0  0  0  0  0  0
    1.0048   18.0793   39.5674 N   0  0  0  0  0  0  0  0  0  0  0  0
    2.1501   16.3966   41.2058 H   0  0  0  0  0  0  0  0  0  0  0  0
    0.5741   16.2974   41.6961 H   0  0  0  0  0  0  0  0  0  0  0  0
   -2.9306   20.7795   38.2828 H   0  0  0  0  0  0  0  0  0  0  0  0
   -2.1792   19.9554   36.8746 H   0  0  0  0  0  0  0  0  0  0  0  0
   -2.5161   21.7186   36.8086 H   0  0  0  0  0  0  0  0  0  0  0  0
    3.5328   21.1226   37.8296 H   0  0  0  0  0  0  0  0  0  0  0  0
   -4.9795   20.3564   37.4369 H   0  0  0  0  0  0  0  0  0  0  0  0
   -4.5649   21.2954   35.9629 H   0  0  0  0  0  0  0  0  0  0  0  0
   -4.2280   19.5322   36.0289 H   0  0  0  0  0  0  0  0  0  0  0  0
    1.1824   25.0999   35.4836 H   0  0  0  0  0  0  0  0  0  0  0  0
    1.8160   23.8060   35.3329 H   0  0  0  0  0  0  0  0  0  0  0  0
    3.6834   22.9190   35.7545 H   0  0  0  0  0  0  0  0  0  0  0  0
   -1.5186   16.1201   39.4087 H   0  0  0  0  0  0  0  0  0  0  0  0
    0.0933   24.4819   36.4596 H   0  0  0  0  0  0  0  0  0  0  0  0
   -1.1037   24.6754   35.1344 H   0  0  0  0  0  0  0  0  0  0  0  0
   -0.0743   23.2052   35.2072 H   0  0  0  0  0  0  0  0  0  0  0  0
   -0.6598   16.1663   41.3516 H   0  0  0  0  0  0  0  0  0  0  0  0
   -0.7718   17.7886   38.8923 H   0  0  0  0  0  0  0  0  0  0  0  0
    1.5353   14.8492   38.8836 H   0  0  0  0  0  0  0  0  0  0  0  0
    1.9304   18.4535   38.3648 H   0  0  0  0  0  0  0  0  0  0  0  0
    0.4533   27.2468   35.8390 H   0  0  0  0  0  0  0  0  0  0  0  0
   -0.5383   28.5737   35.3721 H   0  0  0  0  0  0  0  0  0  0  0  0
    1.9529   20.3411   40.9787 H   0  0  0  0  0  0  0  0  0  0  0  0
   -0.2055   28.0287   33.2733 H   0  0  0  0  0  0  0  0  0  0  0  0
    1.6608   28.3222   33.6736 H   0  0  0  0  0  0  0  0  0  0  0  0
    0.9814   26.7287   32.2916 H   0  0  0  0  0  0  0  0  0  0  0  0
    2.1412   20.8851   41.7034 H   0  0  0  0  0  0  0  0  0  0  0  0
    1.2113   22.8945   36.8036 H   0  0  0  0  0  0  0  0  0  0  0  0
    1.4431   24.3661   32.5217 H   0  0  0  0  0  0  0  0  0  0  0  0
   -1.0059   14.9351   37.6415 H   0  0  0  0  0  0  0  0  0  0  0  0
   -0.5968   13.8477   38.9751 H   0  0  0  0  0  0  0  0  0  0  0  0
    1.5179   22.0523   39.5671 H   0  0  0  0  0  0  0  0  0  0  0  0
    1.5643   20.2812   38.9085 H   0  0  0  0  0  0  0  0  0  0  0  0
    3.5021   20.4625   43.2785 H   0  0  0  0  0  0  0  0  0  0  0  0
    4.7714   19.9207   42.1287 H   0  0  0  0  0  0  0  0  0  0  0  0
    4.1568   21.6071   42.0587 H   0  0  0  0  0  0  0  0  0  0  0  0
    2.2616   22.1129   34.0166 H   0  0  0  0  0  0  0  0  0  0  0  0
    4.0159   22.8919   34.5035 H   0  0  0  0  0  0  0  0  0  0  0  0
    1.1809   15.8233   37.7222 H   0  0  0  0  0  0  0  0  0  0  0  0
    1.7118   29.1349   36.4834 H   0  0  0  0  0  0  0  0  0  0  0  0
    2.4812   28.5116   34.9847 H   0  0  0  0  0  0  0  0  0  0  0  0
    1.4080   29.9503   34.9119 H   0  0  0  0  0  0  0  0  0  0  0  0
    0.0577   18.3819   40.6970 H   0  0  0  0  0  0  0  0  0  0  0  0
   -0.6981   16.4211   36.4217 H   0  0  0  0  0  0  0  0  0  0  0  0
    6.1263   22.4383   31.2465 H   0  0  0  0  0  0  0  0  0  0  0  0
    4.7186   22.3396   30.1349 H   0  0  0  0  0  0  0  0  0  0  0  0
    5.7809   23.7880   30.1125 H   0  0  0  0  0  0  0  0  0  0  0  0
    5.4230   23.7874   32.0826 H   0  0  0  0  0  0  0  0  0  0  0  0
    1.9497   17.8866   39.2053 H   0  0  0  0  0  0  0  0  0  0  0  0
    0.5052   18.9637   39.3970 H   0  0  0  0  0  0  0  0  0  0  0  0
  1 26  1  0
  3 22  1  0
  4  2  1  0
  5  8  1  0
  6 19  1  0
  7  9  1  0
 10 25  1  0
 10  7  1  0
 10 34  1  0
 11 21  1  0
 12 25  1  0
 13 24  1  6
 14 27  1  0
 15 18  1  0
 15 26  1  0
 16 14  1  0
 17 20  1  0
 17 16  1  0
 17  5  1  0
 18 23  1  0
 19  3  2  3
 20 13  1  0
 20  5  1  0
 21  7  1  0
 22 30  1  0
 24  6  1  0
 28 34  1  0
 28 15  1  0
 28  1  1  0
 29 25  1  0
 30 18  1  0
 32 33  1  0
 32 13  1  0
 33 31  1  0
 33 13  1  0
  1 35  1  0
  1 36  1  0
  2 37  1  0
  2 38  1  0
  2 39  1  0
  3 40  1  0
  4 41  1  0
  4 42  1  0
  4 43  1  0
  5 44  1  1
  6 45  1  0
  6 46  1  0
  7 47  1  1
  8 48  1  0
  8 49  1  0
  8 50  1  0
  9 51  1  0
 10 52  1  6
 11 53  1  0
 12 54  1  0
 14 55  1  0
 14 56  1  0
 15 57  1  1
 16 58  1  0
 16 59  1  0
 17 60  1  6
 18 61  1  1
 19 62  1  0
 20 63  1  6
 21 64  1  0
 21 65  1  0
 22 66  1  0
 22 67  1  0
 23 68  1  0
 23 69  1  0
 23 70  1  0
 24 71  1  0
 24 72  1  0
 25 73  1  0
 27 74  1  0
 27 75  1  0
 27 76  1  0
 28 77  1  1
 29 78  1  0
 31 79  1  0
 31 80  1  0
 31 81  1  0
 33 82  1  1
 34 83  1  0
 34 84  1  0
M  CHG  1  34   1
M  END
>  <mol_id>  (96) 
2026-09-18-6fnk-s0-n100-0097

>  <rmsd_to_ref>  (96) 


$$$$

     RDKit          3D

 59 58  0  0  0  0  0  0  0  0999 V2000
    3.8832   22.9237   36.2470 C   0  0  0  0  0  0  0  0  0  0  0  0
   -0.7470   16.7603   36.4666 C   0  0  0  0  0  0  0  0  0  0  0  0
    3.3651   20.0815   39.8026 C   0  0  2  0  0  0  0  0  0  0  0  0
   -0.1183   15.8553   37.4667 C   0  0  0  0  0  0  0  0  0  0  0  0
    7.0625   23.1082   35.2492 C   0  0  0  0  0  0  0  0  0  0  0  0
    3.3267   19.7803   41.2672 C   0  0  0  0  0  0  0  0  0  0  0  0
    4.2547   23.4724   34.8688 C   0  0  0  0  0  0  0  0  0  0  0  0
    4.8591   22.2319   37.1180 C   0  0  0  0  0  0  0  0  0  0  0  0
    3.9712   20.9866   39.0909 C   0  0  0  0  0  0  0  0  0  0  0  0
   -0.6808   16.2141   38.8393 C   0  0  2  0  0  0  0  0  0  0  0  0
    2.8689   20.9751   42.0538 C   0  0  0  0  0  0  0  0  0  0  0  0
   -1.8221   15.1506   40.7279 O   0  0  0  0  0  0  0  0  0  0  0  0
    2.5840   18.1129   38.7714 C   0  0  0  0  0  0  0  0  0  0  0  0
    2.4288   21.9228   41.4859 O   0  0  0  0  0  0  0  0  0  0  0  0
    2.7291   25.2383   33.7632 C   0  0  0  0  0  0  0  0  0  0  0  0
    1.3470   27.3031   33.7287 C   0  0  0  0  0  0  0  0  0  0  0  0
    4.2134   21.2252   37.6442 C   0  0  0  0  0  0  0  0  0  0  0  0
    2.2313   26.2599   34.5760 C   0  0  0  0  0  0  0  0  0  0  0  0
    5.8245   23.3896   34.3911 C   0  0  0  0  0  0  0  0  0  0  0  0
    2.5418   19.3994   38.9974 O   0  0  0  0  0  0  0  0  0  0  0  0
    2.9530   20.8615   43.3443 O   0  0  0  0  0  0  0  0  0  0  0  0
   -2.1479   13.8546   41.4517 N   0  0  0  0  0  0  0  0  0  0  0  0
    1.6295   27.8073   32.2117 S   0  0  0  0  0  0  0  0  0  0  0  0
   -1.5711   17.7595   37.2457 C   0  0  0  0  0  0  0  0  0  0  0  0
   -0.9744   14.8520   39.5566 C   0  0  0  0  0  0  0  0  0  0  0  0
    3.4042   24.2267   34.1454 C   0  0  0  0  0  0  0  0  0  0  0  0
   -1.8044   17.0396   38.5173 O   0  0  0  0  0  0  0  0  0  0  0  0
    3.0631   22.2098   36.0804 H   0  0  0  0  0  0  0  0  0  0  0  0
    3.6920   23.8474   36.8128 H   0  0  0  0  0  0  0  0  0  0  0  0
   -1.3920   16.1846   35.7865 H   0  0  0  0  0  0  0  0  0  0  0  0
    0.0149   17.2658   35.8550 H   0  0  0  0  0  0  0  0  0  0  0  0
    4.2302   19.4119   39.6876 H   0  0  0  0  0  0  0  0  0  0  0  0
   -0.3569   14.8088   37.2264 H   0  0  0  0  0  0  0  0  0  0  0  0
    0.9754   15.9727   37.4570 H   0  0  0  0  0  0  0  0  0  0  0  0
    6.7711   23.0609   36.3089 H   0  0  0  0  0  0  0  0  0  0  0  0
    7.5069   22.1481   34.9479 H   0  0  0  0  0  0  0  0  0  0  0  0
    7.7981   23.9135   35.1068 H   0  0  0  0  0  0  0  0  0  0  0  0
    2.6319   18.9461   41.4442 H   0  0  0  0  0  0  0  0  0  0  0  0
    4.3422   19.5144   41.5956 H   0  0  0  0  0  0  0  0  0  0  0  0
    5.7136   21.8720   36.5261 H   0  0  0  0  0  0  0  0  0  0  0  0
    5.2612   22.9041   37.8903 H   0  0  0  0  0  0  0  0  0  0  0  0
    4.4163   21.7733   39.7178 H   0  0  0  0  0  0  0  0  0  0  0  0
   -0.0437   16.7703   39.5425 H   0  0  0  0  0  0  0  0  0  0  0  0
    2.9454   17.5942   39.6716 H   0  0  0  0  0  0  0  0  0  0  0  0
    1.5760   17.7516   38.5197 H   0  0  0  0  0  0  0  0  0  0  0  0
    3.2662   17.9102   37.9326 H   0  0  0  0  0  0  0  0  0  0  0  0
    2.5175   25.3143   32.6865 H   0  0  0  0  0  0  0  0  0  0  0  0
    0.4594   27.7177   34.2289 H   0  0  0  0  0  0  0  0  0  0  0  0
    3.8079   20.4786   36.9456 H   0  0  0  0  0  0  0  0  0  0  0  0
    1.6051   25.8173   35.3646 H   0  0  0  0  0  0  0  0  0  0  0  0
    3.0829   26.8017   35.0131 H   0  0  0  0  0  0  0  0  0  0  0  0
    5.8385   22.6066   33.6186 H   0  0  0  0  0  0  0  0  0  0  0  0
    5.9952   24.4599   34.2030 H   0  0  0  0  0  0  0  0  0  0  0  0
   -1.7294   13.8723   42.3927 H   0  0  0  0  0  0  0  0  0  0  0  0
   -3.1697   13.7538   41.5322 H   0  0  0  0  0  0  0  0  0  0  0  0
   -1.0148   18.6939   37.4115 H   0  0  0  0  0  0  0  0  0  0  0  0
   -2.4949   18.0679   36.7342 H   0  0  0  0  0  0  0  0  0  0  0  0
   -1.5027   14.1717   38.8724 H   0  0  0  0  0  0  0  0  0  0  0  0
   -0.0386   14.3632   39.8656 H   0  0  0  0  0  0  0  0  0  0  0  0
  1  8  1  0
  2 24  1  0
  2  4  1  0
  3  9  1  0
  3  6  1  0
  4 10  1  0
  6 11  1  0
  7 19  1  0
  7  1  1  0
  8 17  1  0
 10 25  1  0
 11 21  1  0
 12 22  1  0
 13 20  1  0
 14 11  2  0
 15 18  1  0
 15 26  2  0
 16 18  1  0
 17  9  2  3
 19  5  1  0
 20  3  1  0
 23 16  2  0
 24 27  1  0
 25 12  1  0
 26  7  2  0
 27 10  1  0
  1 28  1  0
  1 29  1  0
  2 30  1  0
  2 31  1  0
  3 32  1  6
  4 33  1  0
  4 34  1  0
  5 35  1  0
  5 36  1  0
  5 37  1  0
  6 38  1  0
  6 39  1  0
  8 40  1  0
  8 41  1  0
  9 42  1  0
 10 43  1  1
 13 44  1  0
 13 45  1  0
 13 46  1  0
 15 47  1  0
 16 48  1  0
 17 49  1  0
 18 50  1  0
 18 51  1  0
 19 52  1  0
 19 53  1  0
 22 54  1  0
 22 55  1  0
 24 56  1  0
 24 57  1  0
 25 58  1  0
 25 59  1  0
M  CHG  1  21  -1
M  END
>  <mol_id>  (97) 
2026-09-18-6fnk-s0-n100-0098

>  <rmsd_to_ref>  (97) 


$$$$

     RDKit          3D

 43 43  0  0  0  0  0  0  0  0999 V2000
    6.0439   22.0656   37.4208 C   0  0  0  0  0  0  0  0  0  0  0  0
    3.0830   18.7814   38.9584 C   0  0  0  0  0  0  0  0  0  0  0  0
    3.8232   20.8553   37.5374 C   0  0  0  0  0  0  0  0  0  0  0  0
    0.6791   16.8407   36.2833 C   0  0  0  0  0  0  0  0  0  0  0  0
    5.8915   22.3126   35.7704 C   0  0  0  0  0  0  0  0  0  0  0  0
    1.4455   17.1117   40.5511 C   0  0  0  0  0  0  0  0  0  0  0  0
    2.0348   17.8434   38.2419 C   0  0  0  0  0  0  0  0  0  0  0  0
    2.2928   17.9834   41.1604 C   0  0  0  0  0  0  0  0  0  0  0  0
    0.4142   17.1959   34.9600 O   0  0  0  0  0  0  0  0  0  0  0  0
    2.7914   17.4260   36.0134 O   0  0  0  0  0  0  0  0  0  0  0  0
    1.2930   17.3730   39.2278 C   0  0  0  0  0  0  0  0  0  0  0  0
    1.7667   17.7581   36.8667 C   0  0  1  0  0  0  0  0  0  0  0  0
    4.0386   19.4574   38.1075 C   0  0  0  0  0  0  0  0  0  0  0  0
    3.1311   18.8002   40.3504 C   0  0  0  0  0  0  0  0  0  0  0  0
    5.7918   23.2499   33.3375 C   0  0  0  0  0  0  0  0  0  0  0  0
    5.3584   22.8988   34.7521 C   0  0  0  0  0  0  0  0  0  0  0  0
    4.6272   21.8491   38.0744 C   0  0  0  0  0  0  0  0  0  0  0  0
    6.5234   22.9445   37.8765 H   0  0  0  0  0  0  0  0  0  0  0  0
    6.6582   21.1695   37.5931 H   0  0  0  0  0  0  0  0  0  0  0  0
    2.7743   21.1355   37.7141 H   0  0  0  0  0  0  0  0  0  0  0  0
    4.0917   20.7920   36.4726 H   0  0  0  0  0  0  0  0  0  0  0  0
    1.0255   15.7972   36.3179 H   0  0  0  0  0  0  0  0  0  0  0  0
   -0.2407   16.9483   36.8770 H   0  0  0  0  0  0  0  0  0  0  0  0
    6.9432   22.5500   35.5521 H   0  0  0  0  0  0  0  0  0  0  0  0
    5.0429   21.6128   35.7742 H   0  0  0  0  0  0  0  0  0  0  0  0
    1.8450   16.0933   40.6657 H   0  0  0  0  0  0  0  0  0  0  0  0
    0.4597   17.2159   41.0279 H   0  0  0  0  0  0  0  0  0  0  0  0
    2.3298   18.0558   42.2574 H   0  0  0  0  0  0  0  0  0  0  0  0
   -0.4778   17.6219   34.9049 H   0  0  0  0  0  0  0  0  0  0  0  0
    3.5199   16.9933   36.5253 H   0  0  0  0  0  0  0  0  0  0  0  0
    0.4378   18.0649   39.2251 H   0  0  0  0  0  0  0  0  0  0  0  0
    1.4297   16.3233   38.9289 H   0  0  0  0  0  0  0  0  0  0  0  0
    1.4555   18.8128   36.8946 H   0  0  0  0  0  0  0  0  0  0  0  0
    4.1848   18.7987   37.2388 H   0  0  0  0  0  0  0  0  0  0  0  0
    4.8606   19.6409   38.8151 H   0  0  0  0  0  0  0  0  0  0  0  0
    3.8465   19.4743   40.8441 H   0  0  0  0  0  0  0  0  0  0  0  0
    6.4305   24.1451   33.3613 H   0  0  0  0  0  0  0  0  0  0  0  0
    6.3552   22.4087   32.9072 H   0  0  0  0  0  0  0  0  0  0  0  0
    4.9031   23.4497   32.7207 H   0  0  0  0  0  0  0  0  0  0  0  0
    5.0763   23.8791   35.1637 H   0  0  0  0  0  0  0  0  0  0  0  0
    4.7758   22.0179   34.4444 H   0  0  0  0  0  0  0  0  0  0  0  0
    4.7866   21.6074   39.1356 H   0  0  0  0  0  0  0  0  0  0  0  0
    4.0828   22.7857   37.8840 H   0  0  0  0  0  0  0  0  0  0  0  0
  1 17  1  0
  2 14  1  0
  3 17  1  0
  3 13  1  0
  4 12  1  0
  5  1  1  0
  6  8  1  0
  7  2  2  0
  7 11  1  0
  9  4  1  0
 11  6  1  0
 12 10  1  0
 12  7  1  0
 13  2  1  0
 14  8  2  0
 15 16  1  0
 16  5  1  0
  1 18  1  0
  1 19  1  0
  3 20  1  0
  3 21  1  0
  4 22  1  0
  4 23  1  0
  5 24  1  0
  5 25  1  0
  6 26  1  0
  6 27  1  0
  8 28  1  0
  9 29  1  0
 10 30  1  0
 11 31  1  0
 11 32  1  0
 12 33  1  6
 13 34  1  0
 13 35  1  0
 14 36  1  0
 15 37  1  0
 15 38  1  0
 15 39  1  0
 16 40  1  0
 16 41  1  0
 17 42  1  0
 17 43  1  0
M  END
>  <mol_id>  (98) 
2026-09-18-6fnk-s0-n100-0099

>  <rmsd_to_ref>  (98) 


$$$$

     RDKit          3D

 64 65  0  0  0  0  0  0  0  0999 V2000
    2.5123   24.5298   33.2982 C   0  0  0  0  0  0  0  0  0  0  0  0
    7.1180   23.5054   36.2553 C   0  0  0  0  0  0  0  0  0  0  0  0
    1.4206   18.7671   42.3556 N   0  0  0  0  0  0  0  0  0  0  0  0
    1.3928   17.8117   38.8740 C   0  0  0  0  0  0  0  0  0  0  0  0
    0.2260   21.3727   42.7732 O   0  0  0  0  0  0  0  0  0  0  0  0
    1.5674   21.1333   42.5915 C   0  0  0  0  0  0  0  0  0  0  0  0
    0.6283   16.1136   37.5397 O   0  0  0  0  0  0  0  0  0  0  0  0
    5.6618   24.0539   35.0129 C   0  0  0  0  0  0  0  0  0  0  0  0
    0.7336   16.0696   40.3247 C   0  0  0  0  0  0  0  0  0  0  0  0
    0.9986   18.2617   41.2066 C   0  0  0  0  0  0  0  0  0  0  0  0
    3.5167   25.2946   31.3166 C   0  0  0  0  0  0  0  0  0  0  0  0
    0.4602   17.0167   41.3097 C   0  0  0  0  0  0  0  0  0  0  0  0
    1.9640   25.9546   33.0162 C   0  0  0  0  0  0  0  0  0  0  0  0
    0.2316   16.7809   36.4876 C   0  0  0  0  0  0  0  0  0  0  0  0
    0.7780   16.5860   38.9175 C   0  0  0  0  0  0  0  0  0  0  0  0
   -0.2162   17.1433   43.0394 S   0  0  0  0  0  0  0  0  0  0  0  0
    4.2207   22.8373   36.6162 C   0  0  0  0  0  0  0  0  0  0  0  0
    3.5952   24.4335   32.5603 C   0  0  0  0  0  0  0  0  0  0  0  0
    4.6029   23.3099   32.5850 C   0  0  0  0  0  0  0  0  0  0  0  0
    4.7172   22.9864   35.1351 C   0  0  1  0  0  0  0  0  0  0  0  0
    6.1652   23.4400   37.2702 C   0  0  0  0  0  0  0  0  0  0  0  0
    2.3982   26.2834   31.6743 C   0  0  0  0  0  0  0  0  0  0  0  0
    1.4752   18.6360   40.0217 C   0  0  0  0  0  0  0  0  0  0  0  0
    0.8750   18.3254   43.6248 C   0  0  0  0  0  0  0  0  0  0  0  0
    6.9152   24.2362   35.0006 C   0  0  0  0  0  0  0  0  0  0  0  0
    2.3366   19.8674   42.3917 C   0  0  0  0  0  0  0  0  0  0  0  0
    4.3164   22.1782   33.9765 S   0  0  0  0  0  0  0  0  0  0  0  0
    2.7583   24.4134   34.3640 H   0  0  0  0  0  0  0  0  0  0  0  0
    1.7767   23.7475   33.0593 H   0  0  0  0  0  0  0  0  0  0  0  0
    8.0173   23.9412   36.7149 H   0  0  0  0  0  0  0  0  0  0  0  0
    7.1235   22.4647   35.8989 H   0  0  0  0  0  0  0  0  0  0  0  0
    1.8307   18.1612   37.9274 H   0  0  0  0  0  0  0  0  0  0  0  0
    0.0261   21.4124   43.7419 H   0  0  0  0  0  0  0  0  0  0  0  0
    1.8196   21.7324   41.7040 H   0  0  0  0  0  0  0  0  0  0  0  0
    1.8675   21.2992   43.6367 H   0  0  0  0  0  0  0  0  0  0  0  0
    5.3659   24.4996   34.0518 H   0  0  0  0  0  0  0  0  0  0  0  0
    5.5813   24.3168   36.0780 H   0  0  0  0  0  0  0  0  0  0  0  0
    0.9060   15.0100   40.5643 H   0  0  0  0  0  0  0  0  0  0  0  0
    3.2514   24.6953   30.4331 H   0  0  0  0  0  0  0  0  0  0  0  0
    4.4684   25.7810   31.0565 H   0  0  0  0  0  0  0  0  0  0  0  0
    0.8657   25.9618   33.0763 H   0  0  0  0  0  0  0  0  0  0  0  0
    2.3324   26.6844   33.7522 H   0  0  0  0  0  0  0  0  0  0  0  0
   -0.3626   17.6498   36.8070 H   0  0  0  0  0  0  0  0  0  0  0  0
    1.1085   17.1251   35.9196 H   0  0  0  0  0  0  0  0  0  0  0  0
   -0.3849   16.1291   35.8510 H   0  0  0  0  0  0  0  0  0  0  0  0
    5.0063   23.1853   37.3030 H   0  0  0  0  0  0  0  0  0  0  0  0
    3.3130   23.4415   36.7611 H   0  0  0  0  0  0  0  0  0  0  0  0
    3.9947   21.7807   36.8225 H   0  0  0  0  0  0  0  0  0  0  0  0
    4.2770   24.7694   33.3555 H   0  0  0  0  0  0  0  0  0  0  0  0
    4.5286   22.7441   31.6446 H   0  0  0  0  0  0  0  0  0  0  0  0
    5.6039   23.7506   32.7030 H   0  0  0  0  0  0  0  0  0  0  0  0
    5.5381   22.2833   35.3395 H   0  0  0  0  0  0  0  0  0  0  0  0
    6.6657   23.5034   38.2476 H   0  0  0  0  0  0  0  0  0  0  0  0
    5.4592   24.2770   37.1648 H   0  0  0  0  0  0  0  0  0  0  0  0
    5.6185   22.4881   37.1991 H   0  0  0  0  0  0  0  0  0  0  0  0
    2.7794   27.3147   31.6414 H   0  0  0  0  0  0  0  0  0  0  0  0
    1.5644   26.2120   30.9604 H   0  0  0  0  0  0  0  0  0  0  0  0
    1.9512   19.6234   39.9308 H   0  0  0  0  0  0  0  0  0  0  0  0
    1.6459   17.8900   44.2776 H   0  0  0  0  0  0  0  0  0  0  0  0
    0.4323   19.1127   44.2528 H   0  0  0  0  0  0  0  0  0  0  0  0
    7.4152   23.7702   34.1388 H   0  0  0  0  0  0  0  0  0  0  0  0
    7.2977   25.2645   34.9215 H   0  0  0  0  0  0  0  0  0  0  0  0
    3.0447   19.7309   43.2223 H   0  0  0  0  0  0  0  0  0  0  0  0
    2.8958   19.9171   41.4458 H   0  0  0  0  0  0  0  0  0  0  0  0
  2 21  1  0
  3 26  1  0
  3 24  1  0
  4 15  1  0
  4 23  2  0
  6  5  1  0
  7 15  1  0
  8 20  1  0
  9 12  1  0
 10 12  2  0
 10  3  1  0
 11 22  1  0
 11 18  1  0
 12 16  1  0
 13  1  1  0
 14  7  1  0
 15  9  2  0
 16 24  1  0
 18  1  1  0
 19 18  1  0
 19 27  1  0
 20 17  1  0
 22 13  1  0
 23 10  1  0
 25  8  1  0
 25  2  1  0
 26  6  1  0
 27 20  1  0
  1 28  1  0
  1 29  1  0
  2 30  1  0
  2 31  1  0
  4 32  1  0
  5 33  1  0
  6 34  1  0
  6 35  1  0
  8 36  1  0
  8 37  1  0
  9 38  1  0
 11 39  1  0
 11 40  1  0
 13 41  1  0
 13 42  1  0
 14 43  1  0
 14 44  1  0
 14 45  1  0
 17 46  1  0
 17 47  1  0
 17 48  1  0
 18 49  1  0
 19 50  1  0
 19 51  1  0
 20 52  1  1
 21 53  1  0
 21 54  1  0
 21 55  1  0
 22 56  1  0
 22 57  1  0
 23 58  1  0
 24 59  1  0
 24 60  1  0
 25 61  1  0
 25 62  1  0
 26 63  1  0
 26 64  1  0
M  END
>  <mol_id>  (99) 
2026-09-18-6fnk-s0-n100-0100

>  <rmsd_to_ref>  (99) 


$$$$
