3war.A
     RDKit          3D

 13 13  0  0  0  0  0  0  0  0999 V2000
    2.0001   18.6245   40.6926 N   0  0  0  0  0  0  0  0  0  0  0  0
    2.5782   18.5757   39.4013 C   0  0  0  0  0  0  0  0  0  0  0  0
    2.4967   19.7718   38.6000 C   0  0  0  0  0  0  0  0  0  0  0  0
    1.8538   20.9004   39.0765 C   0  0  0  0  0  0  0  0  0  0  0  0
    1.3289   20.9112   40.3502 C   0  0  0  0  0  0  0  0  0  0  0  0
    1.3818   19.7712   41.1205 C   0  0  0  0  0  0  0  0  0  0  0  0
    3.0116   19.7599   37.1684 C   0  0  0  0  0  0  0  0  0  0  0  0
    3.7306   18.7870   36.7954 O   0  0  0  0  0  0  0  0  0  0  0  0
    2.6655   20.7081   36.4973 O   0  0  0  0  0  0  0  0  0  0  0  0
    3.0681   17.6653   39.0256 H   0  0  0  0  0  0  0  0  0  0  0  0
    1.7616   21.7908   38.4372 H   0  0  0  0  0  0  0  0  0  0  0  0
    0.8693   21.8270   40.7502 H   0  0  0  0  0  0  0  0  0  0  0  0
    0.9112   19.7806   42.1147 H   0  0  0  0  0  0  0  0  0  0  0  0
  1  2  1  0
  1  6  2  0
  2  3  2  0
  3  4  1  0
  3  7  1  0
  4  5  2  0
  5  6  1  0
  7  8  1  0
  7  9  2  0
  2 10  1  0
  4 11  1  0
  5 12  1  0
  6 13  1  0
M  CHG  1   8  -1
M  END
>  <mol_id>  (1) 
2026-09-16-3war-s0-n100-0001

>  <rmsd_to_ref>  (1) 
0.0

>  <pose_kind>  (1) 
native

$$$$
3war.A
     RDKit          3D

 13 13  0  0  0  0  0  0  0  0999 V2000
    2.4277   18.8612   40.9130 N   0  0  0  0  0  0  0  0  0  0  0  0
    2.6427   18.7375   39.6096 C   0  0  0  0  0  0  0  0  0  0  0  0
    2.2952   19.8002   38.7934 C   0  0  0  0  0  0  0  0  0  0  0  0
    1.7458   20.9360   39.3455 C   0  0  0  0  0  0  0  0  0  0  0  0
    1.5425   21.0127   40.7138 C   0  0  0  0  0  0  0  0  0  0  0  0
    1.8958   19.9414   41.5135 C   0  0  0  0  0  0  0  0  0  0  0  0
    2.5015   19.7330   37.3688 C   0  0  0  0  0  0  0  0  0  0  0  0
    3.0383   18.6593   36.7065 O   0  0  0  0  0  0  0  0  0  0  0  0
    2.1629   20.7390   36.6724 O   0  0  0  0  0  0  0  0  0  0  0  0
    3.0798   17.8306   39.1817 H   0  0  0  0  0  0  0  0  0  0  0  0
    1.4708   21.7740   38.7091 H   0  0  0  0  0  0  0  0  0  0  0  0
    1.1186   21.8784   41.1768 H   0  0  0  0  0  0  0  0  0  0  0  0
    1.7665   19.9304   42.5866 H   0  0  0  0  0  0  0  0  0  0  0  0
  1  2  1  0
  1  6  2  0
  2  3  2  0
  3  4  1  0
  3  7  1  0
  4  5  2  0
  5  6  1  0
  7  8  1  0
  7  9  2  0
  2 10  1  0
  4 11  1  0
  5 12  1  0
  6 13  1  0
M  CHG  1   8  -1
M  END
>  <mol_id>  (2) 
2026-09-16-3war-s0-n100-0002

>  <rmsd_to_ref>  (2) 
0.5000000000005038

>  <pose_kind>  (2) 
conformer

$$$$
3war.A
     RDKit          3D

 13 13  0  0  0  0  0  0  0  0999 V2000
    1.8741   19.0276   40.7572 N   0  0  0  0  0  0  0  0  0  0  0  0
    2.5499   18.9388   39.5164 C   0  0  0  0  0  0  0  0  0  0  0  0
    2.3501   20.0182   38.5815 C   0  0  0  0  0  0  0  0  0  0  0  0
    1.5097   21.0737   38.8880 C   0  0  0  0  0  0  0  0  0  0  0  0
    0.8934   21.1317   40.1188 C   0  0  0  0  0  0  0  0  0  0  0  0
    1.0589   20.0996   41.0150 C   0  0  0  0  0  0  0  0  0  0  0  0
    2.9688   19.9413   37.1936 C   0  0  0  0  0  0  0  0  0  0  0  0
    3.8528   19.0616   36.9766 O   0  0  0  0  0  0  0  0  0  0  0  0
    2.5357   20.7489   36.4000 O   0  0  0  0  0  0  0  0  0  0  0  0
    3.1988   18.0838   39.2761 H   0  0  0  0  0  0  0  0  0  0  0  0
    1.3332   21.8678   38.1476 H   0  0  0  0  0  0  0  0  0  0  0  0
    0.2716   21.9993   40.3845 H   0  0  0  0  0  0  0  0  0  0  0  0
    0.5177   20.1363   41.9719 H   0  0  0  0  0  0  0  0  0  0  0  0
  1  2  1  0
  1  6  2  0
  2  3  2  0
  3  4  1  0
  3  7  1  0
  4  5  2  0
  5  6  1  0
  7  8  1  0
  7  9  2  0
  2 10  1  0
  4 11  1  0
  5 12  1  0
  6 13  1  0
M  CHG  1   8  -1
M  END
>  <mol_id>  (3) 
2026-09-16-3war-s0-n100-0003

>  <rmsd_to_ref>  (3) 
0.5459183673475069

>  <pose_kind>  (3) 
rigid

$$$$
3war.A
     RDKit          3D

 13 13  0  0  0  0  0  0  0  0999 V2000
    1.9826   18.7265   41.0199 N   0  0  0  0  0  0  0  0  0  0  0  0
    2.4281   18.3997   39.8136 C   0  0  0  0  0  0  0  0  0  0  0  0
    2.2712   19.3232   38.7944 C   0  0  0  0  0  0  0  0  0  0  0  0
    1.6682   20.5336   39.0547 C   0  0  0  0  0  0  0  0  0  0  0  0
    1.2209   20.8242   40.3334 C   0  0  0  0  0  0  0  0  0  0  0  0
    1.3861   19.8896   41.3389 C   0  0  0  0  0  0  0  0  0  0  0  0
    2.7322   19.0331   37.4603 C   0  0  0  0  0  0  0  0  0  0  0  0
    3.3450   17.8667   37.0814 O   0  0  0  0  0  0  0  0  0  0  0  0
    2.5602   19.9193   36.5676 O   0  0  0  0  0  0  0  0  0  0  0  0
    2.9056   17.4351   39.6181 H   0  0  0  0  0  0  0  0  0  0  0  0
    1.5422   21.2631   38.2577 H   0  0  0  0  0  0  0  0  0  0  0  0
    0.7484   21.7535   40.5716 H   0  0  0  0  0  0  0  0  0  0  0  0
    1.0625   20.0472   42.3580 H   0  0  0  0  0  0  0  0  0  0  0  0
  1  2  1  0
  1  6  2  0
  2  3  2  0
  3  4  1  0
  3  7  1  0
  4  5  2  0
  5  6  1  0
  7  8  1  0
  7  9  2  0
  2 10  1  0
  4 11  1  0
  5 12  1  0
  6 13  1  0
M  CHG  1   8  -1
M  END
>  <mol_id>  (4) 
2026-09-16-3war-s0-n100-0004

>  <rmsd_to_ref>  (4) 
0.5918367346971042

>  <pose_kind>  (4) 
conformer

$$$$
3war.A
     RDKit          3D

 13 13  0  0  0  0  0  0  0  0999 V2000
    2.1256   18.3332   40.6643 N   0  0  0  0  0  0  0  0  0  0  0  0
    2.6959   18.6813   39.4162 C   0  0  0  0  0  0  0  0  0  0  0  0
    2.3137   19.9518   38.8514 C   0  0  0  0  0  0  0  0  0  0  0  0
    1.4067   20.7706   39.5002 C   0  0  0  0  0  0  0  0  0  0  0  0
    0.8974   20.4031   40.7264 C   0  0  0  0  0  0  0  0  0  0  0  0
    1.2378   19.1848   41.2700 C   0  0  0  0  0  0  0  0  0  0  0  0
    2.8134   20.3465   37.4696 C   0  0  0  0  0  0  0  0  0  0  0  0
    3.7547   19.6742   36.9553 O   0  0  0  0  0  0  0  0  0  0  0  0
    2.2380   21.2907   36.9730 O   0  0  0  0  0  0  0  0  0  0  0  0
    3.3998   18.0119   38.9000 H   0  0  0  0  0  0  0  0  0  0  0  0
    1.0916   21.7169   39.0362 H   0  0  0  0  0  0  0  0  0  0  0  0
    0.2215   21.0804   41.2690 H   0  0  0  0  0  0  0  0  0  0  0  0
    0.7811   18.8838   42.2244 H   0  0  0  0  0  0  0  0  0  0  0  0
  1  2  1  0
  1  6  2  0
  2  3  2  0
  3  4  1  0
  3  7  1  0
  4  5  2  0
  5  6  1  0
  7  8  1  0
  7  9  2  0
  2 10  1  0
  4 11  1  0
  5 12  1  0
  6 13  1  0
M  CHG  1   8  -1
M  END
>  <mol_id>  (5) 
2026-09-16-3war-s0-n100-0005

>  <rmsd_to_ref>  (5) 
0.6377551020422293

>  <pose_kind>  (5) 
rigid

$$$$
3war.A
     RDKit          3D

 13 13  0  0  0  0  0  0  0  0999 V2000
    1.5927   18.8171   40.5994 N   0  0  0  0  0  0  0  0  0  0  0  0
    2.3447   18.4678   39.5636 C   0  0  0  0  0  0  0  0  0  0  0  0
    2.5604   19.4114   38.5740 C   0  0  0  0  0  0  0  0  0  0  0  0
    1.9994   20.6638   38.6886 C   0  0  0  0  0  0  0  0  0  0  0  0
    1.2218   20.9764   39.7919 C   0  0  0  0  0  0  0  0  0  0  0  0
    1.0172   20.0212   40.7705 C   0  0  0  0  0  0  0  0  0  0  0  0
    3.3671   19.0988   37.4215 C   0  0  0  0  0  0  0  0  0  0  0  0
    3.9755   17.8907   37.1976 O   0  0  0  0  0  0  0  0  0  0  0  0
    3.5289   20.0051   36.5474 O   0  0  0  0  0  0  0  0  0  0  0  0
    2.7855   17.4699   39.4827 H   0  0  0  0  0  0  0  0  0  0  0  0
    2.1654   21.4092   37.9141 H   0  0  0  0  0  0  0  0  0  0  0  0
    0.7707   21.9382   39.9140 H   0  0  0  0  0  0  0  0  0  0  0  0
    0.4233   20.1939   41.6570 H   0  0  0  0  0  0  0  0  0  0  0  0
  1  2  1  0
  1  6  2  0
  2  3  2  0
  3  4  1  0
  3  7  1  0
  4  5  2  0
  5  6  1  0
  7  8  1  0
  7  9  2  0
  2 10  1  0
  4 11  1  0
  5 12  1  0
  6 13  1  0
M  CHG  1   8  -1
M  END
>  <mol_id>  (6) 
2026-09-16-3war-s0-n100-0006

>  <rmsd_to_ref>  (6) 
0.6836734693904697

>  <pose_kind>  (6) 
conformer

$$$$
3war.A
     RDKit          3D

 13 13  0  0  0  0  0  0  0  0999 V2000
    2.9735   18.5081   40.7141 N   0  0  0  0  0  0  0  0  0  0  0  0
    3.0934   18.3690   39.3104 C   0  0  0  0  0  0  0  0  0  0  0  0
    2.5723   19.4402   38.4977 C   0  0  0  0  0  0  0  0  0  0  0  0
    1.9600   20.5361   39.0792 C   0  0  0  0  0  0  0  0  0  0  0  0
    1.8896   20.6418   40.4510 C   0  0  0  0  0  0  0  0  0  0  0  0
    2.3654   19.6188   41.2402 C   0  0  0  0  0  0  0  0  0  0  0  0
    2.5814   19.3129   36.9817 C   0  0  0  0  0  0  0  0  0  0  0  0
    3.2752   18.3920   36.4591 O   0  0  0  0  0  0  0  0  0  0  0  0
    1.8942   20.1249   36.4006 O   0  0  0  0  0  0  0  0  0  0  0  0
    3.5634   17.4826   38.8594 H   0  0  0  0  0  0  0  0  0  0  0  0
    1.5286   21.3246   38.4450 H   0  0  0  0  0  0  0  0  0  0  0  0
    1.4551   21.5400   40.9140 H   0  0  0  0  0  0  0  0  0  0  0  0
    2.2536   19.6952   42.3319 H   0  0  0  0  0  0  0  0  0  0  0  0
  1  2  1  0
  1  6  2  0
  2  3  2  0
  3  4  1  0
  3  7  1  0
  4  5  2  0
  5  6  1  0
  7  8  1  0
  7  9  2  0
  2 10  1  0
  4 11  1  0
  5 12  1  0
  6 13  1  0
M  CHG  1   8  -1
M  END
>  <mol_id>  (7) 
2026-09-16-3war-s0-n100-0007

>  <rmsd_to_ref>  (7) 
0.7295918367361827

>  <pose_kind>  (7) 
rigid

$$$$
3war.A
     RDKit          3D

 13 13  0  0  0  0  0  0  0  0999 V2000
    3.3672   19.0267   40.4236 N   0  0  0  0  0  0  0  0  0  0  0  0
    3.3388   19.2386   39.1142 C   0  0  0  0  0  0  0  0  0  0  0  0
    2.6452   20.3442   38.6531 C   0  0  0  0  0  0  0  0  0  0  0  0
    2.0148   21.1790   39.5489 C   0  0  0  0  0  0  0  0  0  0  0  0
    2.0760   20.9113   40.9068 C   0  0  0  0  0  0  0  0  0  0  0  0
    2.7736   19.8023   41.3490 C   0  0  0  0  0  0  0  0  0  0  0  0
    2.5739   20.6337   37.2433 C   0  0  0  0  0  0  0  0  0  0  0  0
    3.1588   19.8788   36.2597 O   0  0  0  0  0  0  0  0  0  0  0  0
    1.9231   21.6618   36.8811 O   0  0  0  0  0  0  0  0  0  0  0  0
    3.8432   18.5688   38.4115 H   0  0  0  0  0  0  0  0  0  0  0  0
    1.4683   22.0492   39.1923 H   0  0  0  0  0  0  0  0  0  0  0  0
    1.5990   21.5373   41.6307 H   0  0  0  0  0  0  0  0  0  0  0  0
    2.8638   19.5316   42.3916 H   0  0  0  0  0  0  0  0  0  0  0  0
  1  2  1  0
  1  6  2  0
  2  3  2  0
  3  4  1  0
  3  7  1  0
  4  5  2  0
  5  6  1  0
  7  8  1  0
  7  9  2  0
  2 10  1  0
  4 11  1  0
  5 12  1  0
  6 13  1  0
M  CHG  1   8  -1
M  END
>  <mol_id>  (8) 
2026-09-16-3war-s0-n100-0008

>  <rmsd_to_ref>  (8) 
0.7755102040824801

>  <pose_kind>  (8) 
conformer

$$$$
3war.A
     RDKit          3D

 13 13  0  0  0  0  0  0  0  0999 V2000
    2.7486   18.6959   40.7812 N   0  0  0  0  0  0  0  0  0  0  0  0
    3.3819   19.0620   39.5692 C   0  0  0  0  0  0  0  0  0  0  0  0
    2.8099   20.1647   38.8367 C   0  0  0  0  0  0  0  0  0  0  0  0
    1.6753   20.8080   39.2979 C   0  0  0  0  0  0  0  0  0  0  0  0
    1.1080   20.4350   40.4967 C   0  0  0  0  0  0  0  0  0  0  0  0
    1.6308   19.3719   41.1983 C   0  0  0  0  0  0  0  0  0  0  0  0
    3.3815   20.5494   37.4802 C   0  0  0  0  0  0  0  0  0  0  0  0
    4.5014   20.0669   37.1401 O   0  0  0  0  0  0  0  0  0  0  0  0
    2.6837   21.2973   36.8298 O   0  0  0  0  0  0  0  0  0  0  0  0
    4.2713   18.5288   39.2023 H   0  0  0  0  0  0  0  0  0  0  0  0
    1.2252   21.6189   38.7064 H   0  0  0  0  0  0  0  0  0  0  0  0
    0.2407   20.9843   40.8918 H   0  0  0  0  0  0  0  0  0  0  0  0
    1.1341   19.0535   42.1267 H   0  0  0  0  0  0  0  0  0  0  0  0
  1  2  1  0
  1  6  2  0
  2  3  2  0
  3  4  1  0
  3  7  1  0
  4  5  2  0
  5  6  1  0
  7  8  1  0
  7  9  2  0
  2 10  1  0
  4 11  1  0
  5 12  1  0
  6 13  1  0
M  CHG  1   8  -1
M  END
>  <mol_id>  (9) 
2026-09-16-3war-s0-n100-0009

>  <rmsd_to_ref>  (9) 
0.8214285714303413

>  <pose_kind>  (9) 
rigid

$$$$
3war.A
     RDKit          3D

 13 13  0  0  0  0  0  0  0  0999 V2000
    2.0926   20.1948   41.1110 N   0  0  0  0  0  0  0  0  0  0  0  0
    2.7177   19.7287   40.0377 C   0  0  0  0  0  0  0  0  0  0  0  0
    2.3384   20.2247   38.8022 C   0  0  0  0  0  0  0  0  0  0  0  0
    1.3410   21.1710   38.7217 C   0  0  0  0  0  0  0  0  0  0  0  0
    0.7205   21.6236   39.8749 C   0  0  0  0  0  0  0  0  0  0  0  0
    1.1127   21.1168   41.1001 C   0  0  0  0  0  0  0  0  0  0  0  0
    2.9758   19.7622   37.5954 C   0  0  0  0  0  0  0  0  0  0  0  0
    3.9770   18.8267   37.5494 O   0  0  0  0  0  0  0  0  0  0  0  0
    2.5849   20.2540   36.4922 O   0  0  0  0  0  0  0  0  0  0  0  0
    3.5088   18.9769   40.1132 H   0  0  0  0  0  0  0  0  0  0  0  0
    1.0388   21.5643   37.7538 H   0  0  0  0  0  0  0  0  0  0  0  0
   -0.0572   22.3571   39.8502 H   0  0  0  0  0  0  0  0  0  0  0  0
    0.6742   21.4226   42.0396 H   0  0  0  0  0  0  0  0  0  0  0  0
  1  2  1  0
  1  6  2  0
  2  3  2  0
  3  4  1  0
  3  7  1  0
  4  5  2  0
  5  6  1  0
  7  8  1  0
  7  9  2  0
  2 10  1  0
  4 11  1  0
  5 12  1  0
  6 13  1  0
M  CHG  1   8  -1
M  END
>  <mol_id>  (10) 
2026-09-16-3war-s0-n100-0010

>  <rmsd_to_ref>  (10) 
0.867346938778937

>  <pose_kind>  (10) 
conformer

$$$$
3war.A
     RDKit          3D

 13 13  0  0  0  0  0  0  0  0999 V2000
    1.3354   18.7616   40.8159 N   0  0  0  0  0  0  0  0  0  0  0  0
    2.2858   18.6238   39.7759 C   0  0  0  0  0  0  0  0  0  0  0  0
    2.3459   19.6812   38.7972 C   0  0  0  0  0  0  0  0  0  0  0  0
    1.4862   20.7626   38.8701 C   0  0  0  0  0  0  0  0  0  0  0  0
    0.5950   20.8683   39.9154 C   0  0  0  0  0  0  0  0  0  0  0  0
    0.5123   19.8579   40.8472 C   0  0  0  0  0  0  0  0  0  0  0  0
    3.2764   19.5523   37.6004 C   0  0  0  0  0  0  0  0  0  0  0  0
    4.1619   18.6478   37.6211 O   0  0  0  0  0  0  0  0  0  0  0  0
    3.0687   20.3468   36.7089 O   0  0  0  0  0  0  0  0  0  0  0  0
    2.9494   17.7485   39.7169 H   0  0  0  0  0  0  0  0  0  0  0  0
    1.5143   21.5397   38.0920 H   0  0  0  0  0  0  0  0  0  0  0  0
   -0.0479   21.7562   40.0052 H   0  0  0  0  0  0  0  0  0  0  0  0
   -0.2410   19.9329   41.6453 H   0  0  0  0  0  0  0  0  0  0  0  0
  1  2  1  0
  1  6  2  0
  2  3  2  0
  3  4  1  0
  3  7  1  0
  4  5  2  0
  5  6  1  0
  7  8  1  0
  7  9  2  0
  2 10  1  0
  4 11  1  0
  5 12  1  0
  6 13  1  0
M  CHG  1   8  -1
M  END
>  <mol_id>  (11) 
2026-09-16-3war-s0-n100-0011

>  <rmsd_to_ref>  (11) 
0.9132653061230979

>  <pose_kind>  (11) 
rigid

$$$$
3war.A
     RDKit          3D

 13 13  0  0  0  0  0  0  0  0999 V2000
    2.6737   19.6898   41.0397 N   0  0  0  0  0  0  0  0  0  0  0  0
    2.8527   19.1220   39.8540 C   0  0  0  0  0  0  0  0  0  0  0  0
    2.6985   19.9132   38.7286 C   0  0  0  0  0  0  0  0  0  0  0  0
    2.3696   21.2434   38.8670 C   0  0  0  0  0  0  0  0  0  0  0  0
    2.1941   21.7859   40.1297 C   0  0  0  0  0  0  0  0  0  0  0  0
    2.3522   20.9805   41.2424 C   0  0  0  0  0  0  0  0  0  0  0  0
    2.8783   19.3610   37.4097 C   0  0  0  0  0  0  0  0  0  0  0  0
    3.2054   18.0558   37.1467 O   0  0  0  0  0  0  0  0  0  0  0  0
    2.7235   20.1359   36.4161 O   0  0  0  0  0  0  0  0  0  0  0  0
    3.1138   18.0643   39.7556 H   0  0  0  0  0  0  0  0  0  0  0  0
    2.2472   21.8698   37.9863 H   0  0  0  0  0  0  0  0  0  0  0  0
    1.9386   22.8141   40.2749 H   0  0  0  0  0  0  0  0  0  0  0  0
    2.2312   21.3345   42.2565 H   0  0  0  0  0  0  0  0  0  0  0  0
  1  2  1  0
  1  6  2  0
  2  3  2  0
  3  4  1  0
  3  7  1  0
  4  5  2  0
  5  6  1  0
  7  8  1  0
  7  9  2  0
  2 10  1  0
  4 11  1  0
  5 12  1  0
  6 13  1  0
M  CHG  1   8  -1
M  END
>  <mol_id>  (12) 
2026-09-16-3war-s0-n100-0012

>  <rmsd_to_ref>  (12) 
0.9591836734730502

>  <pose_kind>  (12) 
conformer

$$$$
3war.A
     RDKit          3D

 13 13  0  0  0  0  0  0  0  0999 V2000
    2.3639   19.4840   41.4553 N   0  0  0  0  0  0  0  0  0  0  0  0
    2.9786   18.8972   40.3231 C   0  0  0  0  0  0  0  0  0  0  0  0
    2.7362   19.5226   39.0466 C   0  0  0  0  0  0  0  0  0  0  0  0
    1.9138   20.6306   38.9462 C   0  0  0  0  0  0  0  0  0  0  0  0
    1.3579   21.1840   40.0788 C   0  0  0  0  0  0  0  0  0  0  0  0
    1.5643   20.5875   41.3024 C   0  0  0  0  0  0  0  0  0  0  0  0
    3.2868   18.8897   37.7774 C   0  0  0  0  0  0  0  0  0  0  0  0
    4.1574   17.9774   37.8884 O   0  0  0  0  0  0  0  0  0  0  0  0
    2.8176   19.3263   36.7485 O   0  0  0  0  0  0  0  0  0  0  0  0
    3.6134   18.0034   40.4132 H   0  0  0  0  0  0  0  0  0  0  0  0
    1.7034   21.0706   37.9602 H   0  0  0  0  0  0  0  0  0  0  0  0
    0.7516   22.0988   40.0058 H   0  0  0  0  0  0  0  0  0  0  0  0
    1.0702   21.0113   42.1891 H   0  0  0  0  0  0  0  0  0  0  0  0
  1  2  1  0
  1  6  2  0
  2  3  2  0
  3  4  1  0
  3  7  1  0
  4  5  2  0
  5  6  1  0
  7  8  1  0
  7  9  2  0
  2 10  1  0
  4 11  1  0
  5 12  1  0
  6 13  1  0
M  CHG  1   8  -1
M  END
>  <mol_id>  (13) 
2026-09-16-3war-s0-n100-0013

>  <rmsd_to_ref>  (13) 
1.0051020408203215

>  <pose_kind>  (13) 
rigid

$$$$
3war.A
     RDKit          3D

 13 13  0  0  0  0  0  0  0  0999 V2000
    3.3827   19.3582   40.6585 N   0  0  0  0  0  0  0  0  0  0  0  0
    3.3551   18.8959   39.4152 C   0  0  0  0  0  0  0  0  0  0  0  0
    2.8237   19.7140   38.4330 C   0  0  0  0  0  0  0  0  0  0  0  0
    2.3468   20.9622   38.7662 C   0  0  0  0  0  0  0  0  0  0  0  0
    2.3997   21.3959   40.0810 C   0  0  0  0  0  0  0  0  0  0  0  0
    2.9339   20.5651   41.0486 C   0  0  0  0  0  0  0  0  0  0  0  0
    2.7629   19.2747   37.0619 C   0  0  0  0  0  0  0  0  0  0  0  0
    3.2048   18.0578   36.6106 O   0  0  0  0  0  0  0  0  0  0  0  0
    2.2647   20.0691   36.2061 O   0  0  0  0  0  0  0  0  0  0  0  0
    3.7367   17.9026   39.1616 H   0  0  0  0  0  0  0  0  0  0  0  0
    1.9281   21.6092   37.9987 H   0  0  0  0  0  0  0  0  0  0  0  0
    2.0389   22.3583   40.3759 H   0  0  0  0  0  0  0  0  0  0  0  0
    3.0075   20.8362   42.0924 H   0  0  0  0  0  0  0  0  0  0  0  0
  1  2  1  0
  1  6  2  0
  2  3  2  0
  3  4  1  0
  3  7  1  0
  4  5  2  0
  5  6  1  0
  7  8  1  0
  7  9  2  0
  2 10  1  0
  4 11  1  0
  5 12  1  0
  6 13  1  0
M  CHG  1   8  -1
M  END
>  <mol_id>  (14) 
2026-09-16-3war-s0-n100-0014

>  <rmsd_to_ref>  (14) 
1.0510204081670007

>  <pose_kind>  (14) 
conformer

$$$$
3war.A
     RDKit          3D

 13 13  0  0  0  0  0  0  0  0999 V2000
    1.8183   22.0817   41.2349 N   0  0  0  0  0  0  0  0  0  0  0  0
    1.7258   22.0266   39.8233 C   0  0  0  0  0  0  0  0  0  0  0  0
    2.5707   21.0738   39.1468 C   0  0  0  0  0  0  0  0  0  0  0  0
    3.4482   20.2754   39.8586 C   0  0  0  0  0  0  0  0  0  0  0  0
    3.4853   20.3443   41.2341 C   0  0  0  0  0  0  0  0  0  0  0  0
    2.6987   21.2621   41.8935 C   0  0  0  0  0  0  0  0  0  0  0  0
    2.5924   21.0278   37.6263 C   0  0  0  0  0  0  0  0  0  0  0  0
    1.6852   21.6424   36.9924 O   0  0  0  0  0  0  0  0  0  0  0  0
    3.5108   20.3951   37.1513 O   0  0  0  0  0  0  0  0  0  0  0  0
    1.0393   22.6817   39.2670 H   0  0  0  0  0  0  0  0  0  0  0  0
    4.1175   19.5844   39.3255 H   0  0  0  0  0  0  0  0  0  0  0  0
    4.1406   19.6688   41.8034 H   0  0  0  0  0  0  0  0  0  0  0  0
    2.7791   21.3405   42.9877 H   0  0  0  0  0  0  0  0  0  0  0  0
  1  2  1  0
  1  6  2  0
  2  3  2  0
  3  4  1  0
  3  7  1  0
  4  5  2  0
  5  6  1  0
  7  8  1  0
  7  9  2  0
  2 10  1  0
  4 11  1  0
  5 12  1  0
  6 13  1  0
M  CHG  1   8  -1
M  END
>  <mol_id>  (15) 
2026-09-16-3war-s0-n100-0015

>  <rmsd_to_ref>  (15) 
1.0969387755140037

>  <pose_kind>  (15) 
rigid

$$$$
3war.A
     RDKit          3D

 13 13  0  0  0  0  0  0  0  0999 V2000
    2.7703   19.1913   40.5494 N   0  0  0  0  0  0  0  0  0  0  0  0
    2.9869   18.9369   39.2655 C   0  0  0  0  0  0  0  0  0  0  0  0
    2.5112   19.8468   38.3369 C   0  0  0  0  0  0  0  0  0  0  0  0
    1.8387   20.9707   38.7626 C   0  0  0  0  0  0  0  0  0  0  0  0
    1.6398   21.1879   40.1164 C   0  0  0  0  0  0  0  0  0  0  0  0
    2.1219   20.2682   41.0294 C   0  0  0  0  0  0  0  0  0  0  0  0
    2.7116   19.6324   36.9261 C   0  0  0  0  0  0  0  0  0  0  0  0
    3.3636   18.5551   36.3840 O   0  0  0  0  0  0  0  0  0  0  0  0
    2.2525   20.5019   36.1230 O   0  0  0  0  0  0  0  0  0  0  0  0
    3.5225   18.0409   38.9384 H   0  0  0  0  0  0  0  0  0  0  0  0
    1.4627   21.6890   38.0376 H   0  0  0  0  0  0  0  0  0  0  0  0
    1.1223   22.0490   40.4829 H   0  0  0  0  0  0  0  0  0  0  0  0
    2.0042   20.3719   42.0988 H   0  0  0  0  0  0  0  0  0  0  0  0
  1  2  1  0
  1  6  2  0
  2  3  2  0
  3  4  1  0
  3  7  1  0
  4  5  2  0
  5  6  1  0
  7  8  1  0
  7  9  2  0
  2 10  1  0
  4 11  1  0
  5 12  1  0
  6 13  1  0
M  CHG  1   8  -1
M  END
>  <mol_id>  (16) 
2026-09-16-3war-s0-n100-0016

>  <rmsd_to_ref>  (16) 
1.1428571428578715

>  <pose_kind>  (16) 
conformer

$$$$
3war.A
     RDKit          3D

 13 13  0  0  0  0  0  0  0  0999 V2000
    3.1523   18.4655   39.9775 N   0  0  0  0  0  0  0  0  0  0  0  0
    3.0971   18.5215   38.5639 C   0  0  0  0  0  0  0  0  0  0  0  0
    2.6142   19.7454   37.9739 C   0  0  0  0  0  0  0  0  0  0  0  0
    2.2005   20.7993   38.7691 C   0  0  0  0  0  0  0  0  0  0  0  0
    2.2971   20.7102   40.1405 C   0  0  0  0  0  0  0  0  0  0  0  0
    2.7383   19.5415   40.7196 C   0  0  0  0  0  0  0  0  0  0  0  0
    2.4383   19.8403   36.4657 C   0  0  0  0  0  0  0  0  0  0  0  0
    2.9591   18.9421   35.7413 O   0  0  0  0  0  0  0  0  0  0  0  0
    1.7878   20.7915   36.0900 O   0  0  0  0  0  0  0  0  0  0  0  0
    3.4090   17.6688   37.9429 H   0  0  0  0  0  0  0  0  0  0  0  0
    1.7937   21.7101   38.3055 H   0  0  0  0  0  0  0  0  0  0  0  0
    2.0230   21.5693   40.7704 H   0  0  0  0  0  0  0  0  0  0  0  0
    2.7592   19.4685   41.8171 H   0  0  0  0  0  0  0  0  0  0  0  0
  1  2  1  0
  1  6  2  0
  2  3  2  0
  3  4  1  0
  3  7  1  0
  4  5  2  0
  5  6  1  0
  7  8  1  0
  7  9  2  0
  2 10  1  0
  4 11  1  0
  5 12  1  0
  6 13  1  0
M  CHG  1   8  -1
M  END
>  <mol_id>  (17) 
2026-09-16-3war-s0-n100-0017

>  <rmsd_to_ref>  (17) 
1.1887755102092874

>  <pose_kind>  (17) 
rigid

$$$$
3war.A
     RDKit          3D

 13 13  0  0  0  0  0  0  0  0999 V2000
    2.6643   17.9996   39.6943 N   0  0  0  0  0  0  0  0  0  0  0  0
    3.0420   18.4980   38.5241 C   0  0  0  0  0  0  0  0  0  0  0  0
    2.6608   19.7935   38.2198 C   0  0  0  0  0  0  0  0  0  0  0  0
    1.9137   20.5169   39.1227 C   0  0  0  0  0  0  0  0  0  0  0  0
    1.5460   19.9479   40.3311 C   0  0  0  0  0  0  0  0  0  0  0  0
    1.9359   18.6526   40.6180 C   0  0  0  0  0  0  0  0  0  0  0  0
    3.0368   20.3968   36.9663 C   0  0  0  0  0  0  0  0  0  0  0  0
    3.7765   19.7781   35.9918 O   0  0  0  0  0  0  0  0  0  0  0  0
    2.6577   21.5878   36.7440 O   0  0  0  0  0  0  0  0  0  0  0  0
    3.6355   17.9144   37.8143 H   0  0  0  0  0  0  0  0  0  0  0  0
    1.6113   21.5352   38.8889 H   0  0  0  0  0  0  0  0  0  0  0  0
    0.9665   20.4796   41.0557 H   0  0  0  0  0  0  0  0  0  0  0  0
    1.6860   18.1450   41.5390 H   0  0  0  0  0  0  0  0  0  0  0  0
  1  2  1  0
  1  6  2  0
  2  3  2  0
  3  4  1  0
  3  7  1  0
  4  5  2  0
  5  6  1  0
  7  8  1  0
  7  9  2  0
  2 10  1  0
  4 11  1  0
  5 12  1  0
  6 13  1  0
M  CHG  1   8  -1
M  END
>  <mol_id>  (18) 
2026-09-16-3war-s0-n100-0018

>  <rmsd_to_ref>  (18) 
1.2346938775512135

>  <pose_kind>  (18) 
conformer

$$$$
3war.A
     RDKit          3D

 13 13  0  0  0  0  0  0  0  0999 V2000
    0.7180   20.4108   39.5508 N   0  0  0  0  0  0  0  0  0  0  0  0
    1.5871   20.6353   38.4562 C   0  0  0  0  0  0  0  0  0  0  0  0
    2.6517   19.6832   38.2572 C   0  0  0  0  0  0  0  0  0  0  0  0
    2.8195   18.6179   39.1239 C   0  0  0  0  0  0  0  0  0  0  0  0
    1.9331   18.4237   40.1605 C   0  0  0  0  0  0  0  0  0  0  0  0
    0.9229   19.3342   40.3751 C   0  0  0  0  0  0  0  0  0  0  0  0
    3.6788   19.9154   37.1591 C   0  0  0  0  0  0  0  0  0  0  0  0
    3.4338   20.7945   36.2818 O   0  0  0  0  0  0  0  0  0  0  0  0
    4.6695   19.2212   37.2366 O   0  0  0  0  0  0  0  0  0  0  0  0
    1.4560   21.4981   37.7866 H   0  0  0  0  0  0  0  0  0  0  0  0
    3.6621   17.9246   38.9848 H   0  0  0  0  0  0  0  0  0  0  0  0
    2.0322   17.5446   40.8143 H   0  0  0  0  0  0  0  0  0  0  0  0
    0.2564   19.1931   41.2388 H   0  0  0  0  0  0  0  0  0  0  0  0
  1  2  1  0
  1  6  2  0
  2  3  2  0
  3  4  1  0
  3  7  1  0
  4  5  2  0
  5  6  1  0
  7  8  1  0
  7  9  2  0
  2 10  1  0
  4 11  1  0
  5 12  1  0
  6 13  1  0
M  CHG  1   8  -1
M  END
>  <mol_id>  (19) 
2026-09-16-3war-s0-n100-0019

>  <rmsd_to_ref>  (19) 
1.2806122449011814

>  <pose_kind>  (19) 
rigid

$$$$
3war.A
     RDKit          3D

 13 13  0  0  0  0  0  0  0  0999 V2000
    3.0862   19.2240   40.8786 N   0  0  0  0  0  0  0  0  0  0  0  0
    3.3191   19.2188   39.5724 C   0  0  0  0  0  0  0  0  0  0  0  0
    2.8871   20.3072   38.8344 C   0  0  0  0  0  0  0  0  0  0  0  0
    2.2392   21.3469   39.4635 C   0  0  0  0  0  0  0  0  0  0  0  0
    2.0215   21.3015   40.8310 C   0  0  0  0  0  0  0  0  0  0  0  0
    2.4601   20.2061   41.5521 C   0  0  0  0  0  0  0  0  0  0  0  0
    3.1073   20.3666   37.4114 C   0  0  0  0  0  0  0  0  0  0  0  0
    3.7382   19.3959   36.6770 O   0  0  0  0  0  0  0  0  0  0  0  0
    2.6882   21.3904   36.7887 O   0  0  0  0  0  0  0  0  0  0  0  0
    3.8348   18.3875   39.0828 H   0  0  0  0  0  0  0  0  0  0  0  0
    1.8975   22.2047   38.8887 H   0  0  0  0  0  0  0  0  0  0  0  0
    1.5221   22.0903   41.3526 H   0  0  0  0  0  0  0  0  0  0  0  0
    2.3254   20.1025   42.6195 H   0  0  0  0  0  0  0  0  0  0  0  0
  1  2  1  0
  1  6  2  0
  2  3  2  0
  3  4  1  0
  3  7  1  0
  4  5  2  0
  5  6  1  0
  7  8  1  0
  7  9  2  0
  2 10  1  0
  4 11  1  0
  5 12  1  0
  6 13  1  0
M  CHG  1   8  -1
M  END
>  <mol_id>  (20) 
2026-09-16-3war-s0-n100-0020

>  <rmsd_to_ref>  (20) 
1.326530612247875

>  <pose_kind>  (20) 
conformer

$$$$
3war.A
     RDKit          3D

 13 13  0  0  0  0  0  0  0  0999 V2000
    3.3243   18.6298   39.9237 N   0  0  0  0  0  0  0  0  0  0  0  0
    3.1978   18.8810   38.5363 C   0  0  0  0  0  0  0  0  0  0  0  0
    2.5247   20.0957   38.1478 C   0  0  0  0  0  0  0  0  0  0  0  0
    2.0063   20.9536   39.1014 C   0  0  0  0  0  0  0  0  0  0  0  0
    2.1765   20.6820   40.4413 C   0  0  0  0  0  0  0  0  0  0  0  0
    2.8000   19.5171   40.8283 C   0  0  0  0  0  0  0  0  0  0  0  0
    2.2693   20.3814   36.6754 C   0  0  0  0  0  0  0  0  0  0  0  0
    2.8754   19.6810   35.8124 O   0  0  0  0  0  0  0  0  0  0  0  0
    1.4775   21.2741   36.4621 O   0  0  0  0  0  0  0  0  0  0  0  0
    3.5957   18.1804   37.7873 H   0  0  0  0  0  0  0  0  0  0  0  0
    1.4574   21.8543   38.7892 H   0  0  0  0  0  0  0  0  0  0  0  0
    1.8154   21.3930   41.1990 H   0  0  0  0  0  0  0  0  0  0  0  0
    2.8807   19.2900   41.9016 H   0  0  0  0  0  0  0  0  0  0  0  0
  1  2  1  0
  1  6  2  0
  2  3  2  0
  3  4  1  0
  3  7  1  0
  4  5  2  0
  5  6  1  0
  7  8  1  0
  7  9  2  0
  2 10  1  0
  4 11  1  0
  5 12  1  0
  6 13  1  0
M  CHG  1   8  -1
M  END
>  <mol_id>  (21) 
2026-09-16-3war-s0-n100-0021

>  <rmsd_to_ref>  (21) 
1.3724489795974857

>  <pose_kind>  (21) 
rigid

$$$$
3war.A
     RDKit          3D

 13 13  0  0  0  0  0  0  0  0999 V2000
    1.8190   19.9601   40.9594 N   0  0  0  0  0  0  0  0  0  0  0  0
    2.2275   19.1254   40.0124 C   0  0  0  0  0  0  0  0  0  0  0  0
    2.2202   19.5783   38.7043 C   0  0  0  0  0  0  0  0  0  0  0  0
    1.7973   20.8590   38.4260 C   0  0  0  0  0  0  0  0  0  0  0  0
    1.3809   21.6899   39.4534 C   0  0  0  0  0  0  0  0  0  0  0  0
    1.3949   21.2203   40.7540 C   0  0  0  0  0  0  0  0  0  0  0  0
    2.6510   18.7240   37.6267 C   0  0  0  0  0  0  0  0  0  0  0  0
    3.0917   17.4348   37.7795 O   0  0  0  0  0  0  0  0  0  0  0  0
    2.6219   19.1955   36.4482 O   0  0  0  0  0  0  0  0  0  0  0  0
    2.5614   18.1099   40.2448 H   0  0  0  0  0  0  0  0  0  0  0  0
    1.7895   21.2203   37.4001 H   0  0  0  0  0  0  0  0  0  0  0  0
    1.0462   22.6896   39.2744 H   0  0  0  0  0  0  0  0  0  0  0  0
    1.0847   21.8111   41.6043 H   0  0  0  0  0  0  0  0  0  0  0  0
  1  2  1  0
  1  6  2  0
  2  3  2  0
  3  4  1  0
  3  7  1  0
  4  5  2  0
  5  6  1  0
  7  8  1  0
  7  9  2  0
  2 10  1  0
  4 11  1  0
  5 12  1  0
  6 13  1  0
M  CHG  1   8  -1
M  END
>  <mol_id>  (22) 
2026-09-16-3war-s0-n100-0022

>  <rmsd_to_ref>  (22) 
1.4183673469417586

>  <pose_kind>  (22) 
conformer

$$$$
3war.A
     RDKit          3D

 13 13  0  0  0  0  0  0  0  0999 V2000
    3.8667   19.5254   41.0640 N   0  0  0  0  0  0  0  0  0  0  0  0
    3.7924   19.4178   39.6544 C   0  0  0  0  0  0  0  0  0  0  0  0
    3.0597   20.4444   38.9554 C   0  0  0  0  0  0  0  0  0  0  0  0
    2.4388   21.4677   39.6494 C   0  0  0  0  0  0  0  0  0  0  0  0
    2.5603   21.5472   41.0193 C   0  0  0  0  0  0  0  0  0  0  0  0
    3.2404   20.5645   41.7030 C   0  0  0  0  0  0  0  0  0  0  0  0
    2.8588   20.3394   37.4510 C   0  0  0  0  0  0  0  0  0  0  0  0
    3.5522   19.4974   36.8085 O   0  0  0  0  0  0  0  0  0  0  0  0
    2.0208   21.0888   36.9979 O   0  0  0  0  0  0  0  0  0  0  0  0
    4.2726   18.5876   39.1159 H   0  0  0  0  0  0  0  0  0  0  0  0
    1.8471   22.2192   39.1061 H   0  0  0  0  0  0  0  0  0  0  0  0
    2.1156   22.3926   41.5649 H   0  0  0  0  0  0  0  0  0  0  0  0
    3.2828   20.6147   42.8010 H   0  0  0  0  0  0  0  0  0  0  0  0
  1  2  1  0
  1  6  2  0
  2  3  2  0
  3  4  1  0
  3  7  1  0
  4  5  2  0
  5  6  1  0
  7  8  1  0
  7  9  2  0
  2 10  1  0
  4 11  1  0
  5 12  1  0
  6 13  1  0
M  CHG  1   8  -1
M  END
>  <mol_id>  (23) 
2026-09-16-3war-s0-n100-0023

>  <rmsd_to_ref>  (23) 
1.4642857142883767

>  <pose_kind>  (23) 
rigid

$$$$
3war.A
     RDKit          3D

 13 13  0  0  0  0  0  0  0  0999 V2000
    3.5869   20.2106   41.1311 N   0  0  0  0  0  0  0  0  0  0  0  0
    3.7007   19.4765   40.0318 C   0  0  0  0  0  0  0  0  0  0  0  0
    2.9358   19.8329   38.9345 C   0  0  0  0  0  0  0  0  0  0  0  0
    2.0930   20.9193   39.0116 C   0  0  0  0  0  0  0  0  0  0  0  0
    2.0124   21.6519   40.1847 C   0  0  0  0  0  0  0  0  0  0  0  0
    2.7840   21.2812   41.2707 C   0  0  0  0  0  0  0  0  0  0  0  0
    3.0103   19.0792   37.7086 C   0  0  0  0  0  0  0  0  0  0  0  0
    3.8096   17.9826   37.5125 O   0  0  0  0  0  0  0  0  0  0  0  0
    2.2848   19.4542   36.7367 O   0  0  0  0  0  0  0  0  0  0  0  0
    4.3734   18.6154   39.9816 H   0  0  0  0  0  0  0  0  0  0  0  0
    1.4896   21.2040   38.1526 H   0  0  0  0  0  0  0  0  0  0  0  0
    1.3693   22.5009   40.2805 H   0  0  0  0  0  0  0  0  0  0  0  0
    2.7730   21.8048   42.2161 H   0  0  0  0  0  0  0  0  0  0  0  0
  1  2  1  0
  1  6  2  0
  2  3  2  0
  3  4  1  0
  3  7  1  0
  4  5  2  0
  5  6  1  0
  7  8  1  0
  7  9  2  0
  2 10  1  0
  4 11  1  0
  5 12  1  0
  6 13  1  0
M  CHG  1   8  -1
M  END
>  <mol_id>  (24) 
2026-09-16-3war-s0-n100-0024

>  <rmsd_to_ref>  (24) 
1.5102040816335676

>  <pose_kind>  (24) 
conformer

$$$$
3war.A
     RDKit          3D

 13 13  0  0  0  0  0  0  0  0999 V2000
    0.9420   21.0537   40.6046 N   0  0  0  0  0  0  0  0  0  0  0  0
    1.4201   20.6855   39.3240 C   0  0  0  0  0  0  0  0  0  0  0  0
    2.6961   20.0162   39.2672 C   0  0  0  0  0  0  0  0  0  0  0  0
    3.4216   19.7768   40.4206 C   0  0  0  0  0  0  0  0  0  0  0  0
    2.9048   20.1288   41.6481 C   0  0  0  0  0  0  0  0  0  0  0  0
    1.6966   20.7856   41.7176 C   0  0  0  0  0  0  0  0  0  0  0  0
    3.3137   19.6782   37.9184 C   0  0  0  0  0  0  0  0  0  0  0  0
    2.5850   19.7562   36.8862 O   0  0  0  0  0  0  0  0  0  0  0  0
    4.4842   19.3659   37.9609 O   0  0  0  0  0  0  0  0  0  0  0  0
    0.8434   20.9004   38.4123 H   0  0  0  0  0  0  0  0  0  0  0  0
    4.4130   19.3045   40.3574 H   0  0  0  0  0  0  0  0  0  0  0  0
    3.4551   19.8861   42.5691 H   0  0  0  0  0  0  0  0  0  0  0  0
    1.3233   21.1066   42.7013 H   0  0  0  0  0  0  0  0  0  0  0  0
  1  2  1  0
  1  6  2  0
  2  3  2  0
  3  4  1  0
  3  7  1  0
  4  5  2  0
  5  6  1  0
  7  8  1  0
  7  9  2  0
  2 10  1  0
  4 11  1  0
  5 12  1  0
  6 13  1  0
M  CHG  1   8  -1
M  END
>  <mol_id>  (25) 
2026-09-16-3war-s0-n100-0025

>  <rmsd_to_ref>  (25) 
1.5561224489822343

>  <pose_kind>  (25) 
rigid

$$$$
3war.A
     RDKit          3D

 13 13  0  0  0  0  0  0  0  0999 V2000
    3.9687   20.5198   40.7694 N   0  0  0  0  0  0  0  0  0  0  0  0
    4.0808   19.6843   39.7449 C   0  0  0  0  0  0  0  0  0  0  0  0
    3.4897   20.0474   38.5470 C   0  0  0  0  0  0  0  0  0  0  0  0
    2.8138   21.2435   38.4523 C   0  0  0  0  0  0  0  0  0  0  0  0
    2.7269   22.0794   39.5539 C   0  0  0  0  0  0  0  0  0  0  0  0
    3.3236   21.7002   40.7422 C   0  0  0  0  0  0  0  0  0  0  0  0
    3.5729   19.1869   37.3941 C   0  0  0  0  0  0  0  0  0  0  0  0
    4.2162   17.9766   37.3668 O   0  0  0  0  0  0  0  0  0  0  0  0
    3.0109   19.5739   36.3235 O   0  0  0  0  0  0  0  0  0  0  0  0
    4.6202   18.7365   39.8313 H   0  0  0  0  0  0  0  0  0  0  0  0
    2.3474   21.5340   37.5136 H   0  0  0  0  0  0  0  0  0  0  0  0
    2.2104   23.0150   39.5167 H   0  0  0  0  0  0  0  0  0  0  0  0
    3.2966   22.3004   41.6408 H   0  0  0  0  0  0  0  0  0  0  0  0
  1  2  1  0
  1  6  2  0
  2  3  2  0
  3  4  1  0
  3  7  1  0
  4  5  2  0
  5  6  1  0
  7  8  1  0
  7  9  2  0
  2 10  1  0
  4 11  1  0
  5 12  1  0
  6 13  1  0
M  CHG  1   8  -1
M  END
>  <mol_id>  (26) 
2026-09-16-3war-s0-n100-0026

>  <rmsd_to_ref>  (26) 
1.6020408163309565

>  <pose_kind>  (26) 
conformer

$$$$
3war.A
     RDKit          3D

 13 13  0  0  0  0  0  0  0  0999 V2000
    0.9004   20.5035   39.3045 N   0  0  0  0  0  0  0  0  0  0  0  0
    1.6159   20.6240   38.0889 C   0  0  0  0  0  0  0  0  0  0  0  0
    2.8932   19.9595   38.0102 C   0  0  0  0  0  0  0  0  0  0  0  0
    3.3959   19.2618   39.0941 C   0  0  0  0  0  0  0  0  0  0  0  0
    2.6526   19.1486   40.2486 C   0  0  0  0  0  0  0  0  0  0  0  0
    1.4397   19.7931   40.3461 C   0  0  0  0  0  0  0  0  0  0  0  0
    3.7577   20.1263   36.7696 C   0  0  0  0  0  0  0  0  0  0  0  0
    3.2325   20.6290   35.7331 O   0  0  0  0  0  0  0  0  0  0  0  0
    4.9058   19.7594   36.8985 O   0  0  0  0  0  0  0  0  0  0  0  0
    1.2149   21.1993   37.2414 H   0  0  0  0  0  0  0  0  0  0  0  0
    4.3909   18.7968   39.0340 H   0  0  0  0  0  0  0  0  0  0  0  0
    3.0265   18.5455   41.0891 H   0  0  0  0  0  0  0  0  0  0  0  0
    0.8836   19.7362   41.2934 H   0  0  0  0  0  0  0  0  0  0  0  0
  1  2  1  0
  1  6  2  0
  2  3  2  0
  3  4  1  0
  3  7  1  0
  4  5  2  0
  5  6  1  0
  7  8  1  0
  7  9  2  0
  2 10  1  0
  4 11  1  0
  5 12  1  0
  6 13  1  0
M  CHG  1   8  -1
M  END
>  <mol_id>  (27) 
2026-09-16-3war-s0-n100-0027

>  <rmsd_to_ref>  (27) 
1.6479591836758303

>  <pose_kind>  (27) 
rigid

$$$$
3war.A
     RDKit          3D

 13 13  0  0  0  0  0  0  0  0999 V2000
    3.6273   18.9565   40.5520 N   0  0  0  0  0  0  0  0  0  0  0  0
    3.4207   18.8334   39.2472 C   0  0  0  0  0  0  0  0  0  0  0  0
    2.3638   19.5334   38.6912 C   0  0  0  0  0  0  0  0  0  0  0  0
    1.5698   20.3240   39.4920 C   0  0  0  0  0  0  0  0  0  0  0  0
    1.8299   20.4170   40.8496 C   0  0  0  0  0  0  0  0  0  0  0  0
    2.8900   19.7107   41.3875 C   0  0  0  0  0  0  0  0  0  0  0  0
    2.0827   19.4450   37.2805 C   0  0  0  0  0  0  0  0  0  0  0  0
    2.8002   18.6934   36.3861 O   0  0  0  0  0  0  0  0  0  0  0  0
    1.1000   20.1099   36.8289 O   0  0  0  0  0  0  0  0  0  0  0  0
    4.0577   18.2025   38.6205 H   0  0  0  0  0  0  0  0  0  0  0  0
    0.7380   20.8762   39.0605 H   0  0  0  0  0  0  0  0  0  0  0  0
    1.2347   21.0209   41.5013 H   0  0  0  0  0  0  0  0  0  0  0  0
    3.1518   19.7351   42.4359 H   0  0  0  0  0  0  0  0  0  0  0  0
  1  2  1  0
  1  6  2  0
  2  3  2  0
  3  4  1  0
  3  7  1  0
  4  5  2  0
  5  6  1  0
  7  8  1  0
  7  9  2  0
  2 10  1  0
  4 11  1  0
  5 12  1  0
  6 13  1  0
M  CHG  1   8  -1
M  END
>  <mol_id>  (28) 
2026-09-16-3war-s0-n100-0028

>  <rmsd_to_ref>  (28) 
1.6938775510212667

>  <pose_kind>  (28) 
conformer

$$$$
3war.A
     RDKit          3D

 13 13  0  0  0  0  0  0  0  0999 V2000
    4.1142   18.7477   39.8122 N   0  0  0  0  0  0  0  0  0  0  0  0
    3.9500   19.2836   38.5122 C   0  0  0  0  0  0  0  0  0  0  0  0
    3.0590   20.4089   38.3738 C   0  0  0  0  0  0  0  0  0  0  0  0
    2.3805   20.9133   39.4689 C   0  0  0  0  0  0  0  0  0  0  0  0
    2.5917   20.3771   40.7201 C   0  0  0  0  0  0  0  0  0  0  0  0
    3.4246   19.2904   40.8660 C   0  0  0  0  0  0  0  0  0  0  0  0
    2.7621   20.9733   36.9924 C   0  0  0  0  0  0  0  0  0  0  0  0
    3.4960   20.6148   36.0252 O   0  0  0  0  0  0  0  0  0  0  0  0
    1.8153   21.7287   36.9462 O   0  0  0  0  0  0  0  0  0  0  0  0
    4.4789   18.8601   37.6456 H   0  0  0  0  0  0  0  0  0  0  0  0
    1.6710   21.7441   39.3402 H   0  0  0  0  0  0  0  0  0  0  0  0
    2.0969   20.8154   41.5994 H   0  0  0  0  0  0  0  0  0  0  0  0
    3.5410   18.8414   41.8634 H   0  0  0  0  0  0  0  0  0  0  0  0
  1  2  1  0
  1  6  2  0
  2  3  2  0
  3  4  1  0
  3  7  1  0
  4  5  2  0
  5  6  1  0
  7  8  1  0
  7  9  2  0
  2 10  1  0
  4 11  1  0
  5 12  1  0
  6 13  1  0
M  CHG  1   8  -1
M  END
>  <mol_id>  (29) 
2026-09-16-3war-s0-n100-0029

>  <rmsd_to_ref>  (29) 
1.7397959183709022

>  <pose_kind>  (29) 
rigid

$$$$
3war.A
     RDKit          3D

 13 13  0  0  0  0  0  0  0  0999 V2000
    3.4267   19.0497   40.2608 N   0  0  0  0  0  0  0  0  0  0  0  0
    3.1940   19.0112   38.9552 C   0  0  0  0  0  0  0  0  0  0  0  0
    2.5206   20.0787   38.3868 C   0  0  0  0  0  0  0  0  0  0  0  0
    2.1176   21.1324   39.1765 C   0  0  0  0  0  0  0  0  0  0  0  0
    2.3863   21.1220   40.5357 C   0  0  0  0  0  0  0  0  0  0  0  0
    3.0602   20.0473   41.0860 C   0  0  0  0  0  0  0  0  0  0  0  0
    2.2349   20.1015   36.9745 C   0  0  0  0  0  0  0  0  0  0  0  0
    2.5847   19.1141   36.0901 O   0  0  0  0  0  0  0  0  0  0  0  0
    1.6143   21.1075   36.5112 O   0  0  0  0  0  0  0  0  0  0  0  0
    3.5187   18.1690   38.3371 H   0  0  0  0  0  0  0  0  0  0  0  0
    1.5881   21.9739   38.7354 H   0  0  0  0  0  0  0  0  0  0  0  0
    2.0886   21.9225   41.1791 H   0  0  0  0  0  0  0  0  0  0  0  0
    3.3039   19.9710   42.1363 H   0  0  0  0  0  0  0  0  0  0  0  0
  1  2  1  0
  1  6  2  0
  2  3  2  0
  3  4  1  0
  3  7  1  0
  4  5  2  0
  5  6  1  0
  7  8  1  0
  7  9  2  0
  2 10  1  0
  4 11  1  0
  5 12  1  0
  6 13  1  0
M  CHG  1   8  -1
M  END
>  <mol_id>  (30) 
2026-09-16-3war-s0-n100-0030

>  <rmsd_to_ref>  (30) 
1.785714285715669

>  <pose_kind>  (30) 
conformer

$$$$
3war.A
     RDKit          3D

 13 13  0  0  0  0  0  0  0  0999 V2000
    1.1974   20.3352   37.7846 N   0  0  0  0  0  0  0  0  0  0  0  0
    2.5405   19.9014   37.6752 C   0  0  0  0  0  0  0  0  0  0  0  0
    3.1258   19.2783   38.8364 C   0  0  0  0  0  0  0  0  0  0  0  0
    2.4017   19.1430   40.0075 C   0  0  0  0  0  0  0  0  0  0  0  0
    1.0883   19.5557   40.0598 C   0  0  0  0  0  0  0  0  0  0  0  0
    0.5211   20.1696   38.9658 C   0  0  0  0  0  0  0  0  0  0  0  0
    4.5928   18.8756   38.8203 C   0  0  0  0  0  0  0  0  0  0  0  0
    5.2000   18.8578   37.7096 O   0  0  0  0  0  0  0  0  0  0  0  0
    5.0578   18.6110   39.9080 O   0  0  0  0  0  0  0  0  0  0  0  0
    3.1126   20.0339   36.7450 H   0  0  0  0  0  0  0  0  0  0  0  0
    2.8755   18.7052   40.8984 H   0  0  0  0  0  0  0  0  0  0  0  0
    0.4951   19.3951   40.9723 H   0  0  0  0  0  0  0  0  0  0  0  0
   -0.5117   20.5407   39.0421 H   0  0  0  0  0  0  0  0  0  0  0  0
  1  2  1  0
  1  6  2  0
  2  3  2  0
  3  4  1  0
  3  7  1  0
  4  5  2  0
  5  6  1  0
  7  8  1  0
  7  9  2  0
  2 10  1  0
  4 11  1  0
  5 12  1  0
  6 13  1  0
M  CHG  1   8  -1
M  END
>  <mol_id>  (31) 
2026-09-16-3war-s0-n100-0031

>  <rmsd_to_ref>  (31) 
1.831632653065115

>  <pose_kind>  (31) 
rigid

$$$$
3war.A
     RDKit          3D

 13 13  0  0  0  0  0  0  0  0999 V2000
    0.9698   21.4715   39.9023 N   0  0  0  0  0  0  0  0  0  0  0  0
    1.5495   21.1617   38.7497 C   0  0  0  0  0  0  0  0  0  0  0  0
    2.2549   19.9728   38.6798 C   0  0  0  0  0  0  0  0  0  0  0  0
    2.3348   19.1584   39.7875 C   0  0  0  0  0  0  0  0  0  0  0  0
    1.7102   19.5298   40.9671 C   0  0  0  0  0  0  0  0  0  0  0  0
    1.0101   20.7211   41.0183 C   0  0  0  0  0  0  0  0  0  0  0  0
    2.9089   19.5749   37.4589 C   0  0  0  0  0  0  0  0  0  0  0  0
    2.8998   20.2998   36.2953 O   0  0  0  0  0  0  0  0  0  0  0  0
    3.5407   18.4738   37.4560 O   0  0  0  0  0  0  0  0  0  0  0  0
    1.4796   21.8162   37.8759 H   0  0  0  0  0  0  0  0  0  0  0  0
    2.8876   18.2230   39.7384 H   0  0  0  0  0  0  0  0  0  0  0  0
    1.7512   18.9226   41.8465 H   0  0  0  0  0  0  0  0  0  0  0  0
    0.4990   21.0744   41.9028 H   0  0  0  0  0  0  0  0  0  0  0  0
  1  2  1  0
  1  6  2  0
  2  3  2  0
  3  4  1  0
  3  7  1  0
  4  5  2  0
  5  6  1  0
  7  8  1  0
  7  9  2  0
  2 10  1  0
  4 11  1  0
  5 12  1  0
  6 13  1  0
M  CHG  1   8  -1
M  END
>  <mol_id>  (32) 
2026-09-16-3war-s0-n100-0032

>  <rmsd_to_ref>  (32) 
1.877551020408251

>  <pose_kind>  (32) 
conformer

$$$$
3war.A
     RDKit          3D

 13 13  0  0  0  0  0  0  0  0999 V2000
    2.7740   19.1110   41.3835 N   0  0  0  0  0  0  0  0  0  0  0  0
    3.0315   18.8130   40.0238 C   0  0  0  0  0  0  0  0  0  0  0  0
    2.4251   19.6724   39.0373 C   0  0  0  0  0  0  0  0  0  0  0  0
    1.6076   20.7212   39.4190 C   0  0  0  0  0  0  0  0  0  0  0  0
    1.4065   20.9903   40.7550 C   0  0  0  0  0  0  0  0  0  0  0  0
    1.9629   20.1677   41.7088 C   0  0  0  0  0  0  0  0  0  0  0  0
    2.5813   19.3537   37.5578 C   0  0  0  0  0  0  0  0  0  0  0  0
    3.4477   18.4969   37.2148 O   0  0  0  0  0  0  0  0  0  0  0  0
    1.8308   19.9627   36.8261 O   0  0  0  0  0  0  0  0  0  0  0  0
    3.6663   17.9632   39.7325 H   0  0  0  0  0  0  0  0  0  0  0  0
    1.1171   21.3415   38.6542 H   0  0  0  0  0  0  0  0  0  0  0  0
    0.8038   21.8589   41.0588 H   0  0  0  0  0  0  0  0  0  0  0  0
    1.7492   20.3653   42.7695 H   0  0  0  0  0  0  0  0  0  0  0  0
  1  2  1  0
  1  6  2  0
  2  3  2  0
  3  4  1  0
  3  7  1  0
  4  5  2  0
  5  6  1  0
  7  8  1  0
  7  9  2  0
  2 10  1  0
  4 11  1  0
  5 12  1  0
  6 13  1  0
M  CHG  1   8  -1
M  END
>  <mol_id>  (33) 
2026-09-16-3war-s0-n100-0033

>  <rmsd_to_ref>  (33) 
1.92346938775521

>  <pose_kind>  (33) 
rigid

$$$$
3war.A
     RDKit          3D

 13 13  0  0  0  0  0  0  0  0999 V2000
    2.2597   19.1525   40.8314 N   0  0  0  0  0  0  0  0  0  0  0  0
    3.0244   18.8793   39.7823 C   0  0  0  0  0  0  0  0  0  0  0  0
    2.9368   19.7162   38.6830 C   0  0  0  0  0  0  0  0  0  0  0  0
    2.0746   20.7897   38.7072 C   0  0  0  0  0  0  0  0  0  0  0  0
    1.2982   21.0296   39.8293 C   0  0  0  0  0  0  0  0  0  0  0  0
    1.3989   20.1830   40.9179 C   0  0  0  0  0  0  0  0  0  0  0  0
    3.7391   19.4775   37.5100 C   0  0  0  0  0  0  0  0  0  0  0  0
    4.6300   18.4451   37.3690 O   0  0  0  0  0  0  0  0  0  0  0  0
    3.6150   20.2794   36.5335 O   0  0  0  0  0  0  0  0  0  0  0  0
    3.7060   18.0238   39.7738 H   0  0  0  0  0  0  0  0  0  0  0  0
    2.0016   21.4506   37.8464 H   0  0  0  0  0  0  0  0  0  0  0  0
    0.6181   21.8531   39.8832 H   0  0  0  0  0  0  0  0  0  0  0  0
    0.8252   20.3083   41.8254 H   0  0  0  0  0  0  0  0  0  0  0  0
  1  2  1  0
  1  6  2  0
  2  3  2  0
  3  4  1  0
  3  7  1  0
  4  5  2  0
  5  6  1  0
  7  8  1  0
  7  9  2  0
  2 10  1  0
  4 11  1  0
  5 12  1  0
  6 13  1  0
M  CHG  1   8  -1
M  END
>  <mol_id>  (34) 
2026-09-16-3war-s0-n100-0034

>  <rmsd_to_ref>  (34) 
1.9693877551026358

>  <pose_kind>  (34) 
conformer

$$$$
3war.A
     RDKit          3D

 13 13  0  0  0  0  0  0  0  0999 V2000
    2.6671   20.2445   40.9328 N   0  0  0  0  0  0  0  0  0  0  0  0
    3.4487   19.9491   39.7899 C   0  0  0  0  0  0  0  0  0  0  0  0
    2.9381   20.3868   38.5144 C   0  0  0  0  0  0  0  0  0  0  0  0
    1.7224   21.0414   38.4256 C   0  0  0  0  0  0  0  0  0  0  0  0
    1.0083   21.3313   39.5676 C   0  0  0  0  0  0  0  0  0  0  0  0
    1.4730   20.9034   40.7909 C   0  0  0  0  0  0  0  0  0  0  0  0
    3.6781   20.0197   37.2369 C   0  0  0  0  0  0  0  0  0  0  0  0
    4.8550   19.5632   37.3329 O   0  0  0  0  0  0  0  0  0  0  0  0
    3.0471   20.1957   36.2170 O   0  0  0  0  0  0  0  0  0  0  0  0
    4.4037   19.4093   39.8714 H   0  0  0  0  0  0  0  0  0  0  0  0
    1.3252   21.3305   37.4415 H   0  0  0  0  0  0  0  0  0  0  0  0
    0.0705   21.9026   39.5022 H   0  0  0  0  0  0  0  0  0  0  0  0
    0.8645   21.0971   41.6867 H   0  0  0  0  0  0  0  0  0  0  0  0
  1  2  1  0
  1  6  2  0
  2  3  2  0
  3  4  1  0
  3  7  1  0
  4  5  2  0
  5  6  1  0
  7  8  1  0
  7  9  2  0
  2 10  1  0
  4 11  1  0
  5 12  1  0
  6 13  1  0
M  CHG  1   8  -1
M  END
>  <mol_id>  (35) 
2026-09-16-3war-s0-n100-0035

>  <rmsd_to_ref>  (35) 
2.015306122450609

>  <pose_kind>  (35) 
rigid

$$$$
3war.A
     RDKit          3D

 13 13  0  0  0  0  0  0  0  0999 V2000
    4.4339   17.6189   37.6073 N   0  0  0  0  0  0  0  0  0  0  0  0
    4.0074   18.7657   37.0939 C   0  0  0  0  0  0  0  0  0  0  0  0
    3.1406   19.5316   37.8545 C   0  0  0  0  0  0  0  0  0  0  0  0
    2.7514   19.0913   39.0999 C   0  0  0  0  0  0  0  0  0  0  0  0
    3.2270   17.8852   39.5884 C   0  0  0  0  0  0  0  0  0  0  0  0
    4.0922   17.1335   38.8147 C   0  0  0  0  0  0  0  0  0  0  0  0
    2.6387   20.7878   37.3579 C   0  0  0  0  0  0  0  0  0  0  0  0
    2.9537   21.3280   36.1378 O   0  0  0  0  0  0  0  0  0  0  0  0
    1.8468   21.4455   38.1009 O   0  0  0  0  0  0  0  0  0  0  0  0
    4.3230   19.1058   36.1034 H   0  0  0  0  0  0  0  0  0  0  0  0
    2.0706   19.6890   39.7018 H   0  0  0  0  0  0  0  0  0  0  0  0
    2.9463   17.5123   40.5505 H   0  0  0  0  0  0  0  0  0  0  0  0
    4.5026   16.1847   39.1303 H   0  0  0  0  0  0  0  0  0  0  0  0
  1  2  1  0
  1  6  2  0
  2  3  2  0
  3  4  1  0
  3  7  1  0
  4  5  2  0
  5  6  1  0
  7  8  1  0
  7  9  2  0
  2 10  1  0
  4 11  1  0
  5 12  1  0
  6 13  1  0
M  CHG  1   8  -1
M  END
>  <mol_id>  (36) 
2026-09-16-3war-s0-n100-0036

>  <rmsd_to_ref>  (36) 
2.061224489797364

>  <pose_kind>  (36) 
conformer

$$$$
3war.A
     RDKit          3D

 13 13  0  0  0  0  0  0  0  0999 V2000
    0.2331   19.2795   38.8262 N   0  0  0  0  0  0  0  0  0  0  0  0
    1.1071   19.6722   37.7842 C   0  0  0  0  0  0  0  0  0  0  0  0
    2.2500   20.4710   38.1522 C   0  0  0  0  0  0  0  0  0  0  0  0
    2.4537   20.8518   39.4666 C   0  0  0  0  0  0  0  0  0  0  0  0
    1.5912   20.4238   40.4519 C   0  0  0  0  0  0  0  0  0  0  0  0
    0.4850   19.6767   40.1144 C   0  0  0  0  0  0  0  0  0  0  0  0
    3.1772   21.0078   37.0719 C   0  0  0  0  0  0  0  0  0  0  0  0
    3.0776   20.5329   35.9027 O   0  0  0  0  0  0  0  0  0  0  0  0
    3.9406   21.8731   37.4431 O   0  0  0  0  0  0  0  0  0  0  0  0
    0.9228   19.3808   36.7397 H   0  0  0  0  0  0  0  0  0  0  0  0
    3.3059   21.4974   39.7253 H   0  0  0  0  0  0  0  0  0  0  0  0
    1.7855   20.6781   41.5043 H   0  0  0  0  0  0  0  0  0  0  0  0
   -0.2218   19.3880   40.9062 H   0  0  0  0  0  0  0  0  0  0  0  0
  1  2  1  0
  1  6  2  0
  2  3  2  0
  3  4  1  0
  3  7  1  0
  4  5  2  0
  5  6  1  0
  7  8  1  0
  7  9  2  0
  2 10  1  0
  4 11  1  0
  5 12  1  0
  6 13  1  0
M  CHG  1   8  -1
M  END
>  <mol_id>  (37) 
2026-09-16-3war-s0-n100-0037

>  <rmsd_to_ref>  (37) 
2.107142857146948

>  <pose_kind>  (37) 
rigid

$$$$
3war.A
     RDKit          3D

 13 13  0  0  0  0  0  0  0  0999 V2000
    1.9888   18.5296   40.5849 N   0  0  0  0  0  0  0  0  0  0  0  0
    2.6338   18.3301   39.4428 C   0  0  0  0  0  0  0  0  0  0  0  0
    2.6372   19.3568   38.5144 C   0  0  0  0  0  0  0  0  0  0  0  0
    1.9834   20.5359   38.7956 C   0  0  0  0  0  0  0  0  0  0  0  0
    1.3250   20.6916   40.0045 C   0  0  0  0  0  0  0  0  0  0  0  0
    1.3322   19.6552   40.9198 C   0  0  0  0  0  0  0  0  0  0  0  0
    3.3184   19.2072   37.2533 C   0  0  0  0  0  0  0  0  0  0  0  0
    4.0013   18.0846   36.8621 O   0  0  0  0  0  0  0  0  0  0  0  0
    3.2864   20.1837   36.4426 O   0  0  0  0  0  0  0  0  0  0  0  0
    3.1499   17.3894   39.2298 H   0  0  0  0  0  0  0  0  0  0  0  0
    1.9828   21.3459   38.0699 H   0  0  0  0  0  0  0  0  0  0  0  0
    0.8071   21.5926   40.2566 H   0  0  0  0  0  0  0  0  0  0  0  0
    0.8407   19.7057   41.8812 H   0  0  0  0  0  0  0  0  0  0  0  0
  1  2  1  0
  1  6  2  0
  2  3  2  0
  3  4  1  0
  3  7  1  0
  4  5  2  0
  5  6  1  0
  7  8  1  0
  7  9  2  0
  2 10  1  0
  4 11  1  0
  5 12  1  0
  6 13  1  0
M  CHG  1   8  -1
M  END
>  <mol_id>  (38) 
2026-09-16-3war-s0-n100-0038

>  <rmsd_to_ref>  (38) 
2.1530612244903167

>  <pose_kind>  (38) 
conformer

$$$$
3war.A
     RDKit          3D

 13 13  0  0  0  0  0  0  0  0999 V2000
    1.5988   19.9010   39.5044 N   0  0  0  0  0  0  0  0  0  0  0  0
    1.7713   20.6827   38.3369 C   0  0  0  0  0  0  0  0  0  0  0  0
    2.5449   20.1030   37.2670 C   0  0  0  0  0  0  0  0  0  0  0  0
    3.1105   18.8477   37.4025 C   0  0  0  0  0  0  0  0  0  0  0  0
    2.8939   18.1115   38.5467 C   0  0  0  0  0  0  0  0  0  0  0  0
    2.1735   18.6586   39.5847 C   0  0  0  0  0  0  0  0  0  0  0  0
    2.8503   20.9241   36.0231 C   0  0  0  0  0  0  0  0  0  0  0  0
    2.2078   21.9992   35.8389 O   0  0  0  0  0  0  0  0  0  0  0  0
    3.7135   20.4609   35.3093 O   0  0  0  0  0  0  0  0  0  0  0  0
    1.3341   21.6884   38.2496 H   0  0  0  0  0  0  0  0  0  0  0  0
    3.7343   18.4364   36.5951 H   0  0  0  0  0  0  0  0  0  0  0  0
    3.2948   17.0907   38.6306 H   0  0  0  0  0  0  0  0  0  0  0  0
    2.0547   18.0782   40.5116 H   0  0  0  0  0  0  0  0  0  0  0  0
  1  2  1  0
  1  6  2  0
  2  3  2  0
  3  4  1  0
  3  7  1  0
  4  5  2  0
  5  6  1  0
  7  8  1  0
  7  9  2  0
  2 10  1  0
  4 11  1  0
  5 12  1  0
  6 13  1  0
M  CHG  1   8  -1
M  END
>  <mol_id>  (39) 
2026-09-16-3war-s0-n100-0039

>  <rmsd_to_ref>  (39) 
2.1989795918382398

>  <pose_kind>  (39) 
rigid

$$$$
3war.A
     RDKit          3D

 13 13  0  0  0  0  0  0  0  0999 V2000
    2.0513   19.8695   40.7589 N   0  0  0  0  0  0  0  0  0  0  0  0
    2.8469   19.4983   39.7643 C   0  0  0  0  0  0  0  0  0  0  0  0
    2.6585   20.0939   38.5290 C   0  0  0  0  0  0  0  0  0  0  0  0
    1.6688   21.0380   38.3682 C   0  0  0  0  0  0  0  0  0  0  0  0
    0.8655   21.3891   39.4411 C   0  0  0  0  0  0  0  0  0  0  0  0
    1.0683   20.7837   40.6676 C   0  0  0  0  0  0  0  0  0  0  0  0
    3.4873   19.7375   37.4052 C   0  0  0  0  0  0  0  0  0  0  0  0
    4.5006   18.8147   37.4429 O   0  0  0  0  0  0  0  0  0  0  0  0
    3.2667   20.3178   36.2979 O   0  0  0  0  0  0  0  0  0  0  0  0
    3.6300   18.7472   39.9030 H   0  0  0  0  0  0  0  0  0  0  0  0
    1.5162   21.5093   37.4000 H   0  0  0  0  0  0  0  0  0  0  0  0
    0.0878   22.1179   39.3530 H   0  0  0  0  0  0  0  0  0  0  0  0
    0.4811   21.0075   41.5471 H   0  0  0  0  0  0  0  0  0  0  0  0
  1  2  1  0
  1  6  2  0
  2  3  2  0
  3  4  1  0
  3  7  1  0
  4  5  2  0
  5  6  1  0
  7  8  1  0
  7  9  2  0
  2 10  1  0
  4 11  1  0
  5 12  1  0
  6 13  1  0
M  CHG  1   8  -1
M  END
>  <mol_id>  (40) 
2026-09-16-3war-s0-n100-0040

>  <rmsd_to_ref>  (40) 
2.24489795918765

>  <pose_kind>  (40) 
conformer

$$$$
3war.A
     RDKit          3D

 13 13  0  0  0  0  0  0  0  0999 V2000
    0.4358   20.5009   38.6952 N   0  0  0  0  0  0  0  0  0  0  0  0
    1.4506   20.4366   37.7103 C   0  0  0  0  0  0  0  0  0  0  0  0
    2.7133   19.8630   38.1053 C   0  0  0  0  0  0  0  0  0  0  0  0
    2.9169   19.4249   39.4018 C   0  0  0  0  0  0  0  0  0  0  0  0
    1.8915   19.4825   40.3201 C   0  0  0  0  0  0  0  0  0  0  0  0
    0.6862   20.0448   39.9639 C   0  0  0  0  0  0  0  0  0  0  0  0
    3.8776   19.8499   37.1262 C   0  0  0  0  0  0  0  0  0  0  0  0
    3.6431   20.1048   35.9085 O   0  0  0  0  0  0  0  0  0  0  0  0
    4.9546   19.5983   37.6225 O   0  0  0  0  0  0  0  0  0  0  0  0
    1.2833   20.8078   36.6885 H   0  0  0  0  0  0  0  0  0  0  0  0
    3.8992   19.0298   39.6998 H   0  0  0  0  0  0  0  0  0  0  0  0
    2.0352   19.0809   41.3340 H   0  0  0  0  0  0  0  0  0  0  0  0
   -0.1040   20.1312   40.7242 H   0  0  0  0  0  0  0  0  0  0  0  0
  1  2  1  0
  1  6  2  0
  2  3  2  0
  3  4  1  0
  3  7  1  0
  4  5  2  0
  5  6  1  0
  7  8  1  0
  7  9  2  0
  2 10  1  0
  4 11  1  0
  5 12  1  0
  6 13  1  0
M  CHG  1   8  -1
M  END
>  <mol_id>  (41) 
2026-09-16-3war-s0-n100-0041

>  <rmsd_to_ref>  (41) 
2.290816326533832

>  <pose_kind>  (41) 
rigid

$$$$
3war.A
     RDKit          3D

 13 13  0  0  0  0  0  0  0  0999 V2000
    3.4648   21.1133   40.5113 N   0  0  0  0  0  0  0  0  0  0  0  0
    2.7417   21.3152   39.4173 C   0  0  0  0  0  0  0  0  0  0  0  0
    3.2684   20.8960   38.2077 C   0  0  0  0  0  0  0  0  0  0  0  0
    4.5055   20.2919   38.1726 C   0  0  0  0  0  0  0  0  0  0  0  0
    5.2190   20.1054   39.3456 C   0  0  0  0  0  0  0  0  0  0  0  0
    4.6770   20.5305   40.5445 C   0  0  0  0  0  0  0  0  0  0  0  0
    2.5364   21.0842   36.9808 C   0  0  0  0  0  0  0  0  0  0  0  0
    1.3004   21.6706   36.8900 O   0  0  0  0  0  0  0  0  0  0  0  0
    3.0711   20.6790   35.9030 O   0  0  0  0  0  0  0  0  0  0  0  0
    1.7600   21.7961   39.4567 H   0  0  0  0  0  0  0  0  0  0  0  0
    4.9243   19.9604   37.2251 H   0  0  0  0  0  0  0  0  0  0  0  0
    6.1818   19.6403   39.3560 H   0  0  0  0  0  0  0  0  0  0  0  0
    5.1755   20.4182   41.4970 H   0  0  0  0  0  0  0  0  0  0  0  0
  1  2  1  0
  1  6  2  0
  2  3  2  0
  3  4  1  0
  3  7  1  0
  4  5  2  0
  5  6  1  0
  7  8  1  0
  7  9  2  0
  2 10  1  0
  4 11  1  0
  5 12  1  0
  6 13  1  0
M  CHG  1   8  -1
M  END
>  <mol_id>  (42) 
2026-09-16-3war-s0-n100-0042

>  <rmsd_to_ref>  (42) 
2.3367346938793627

>  <pose_kind>  (42) 
conformer

$$$$
3war.A
     RDKit          3D

 13 13  0  0  0  0  0  0  0  0999 V2000
    2.2941   20.2516   39.3528 N   0  0  0  0  0  0  0  0  0  0  0  0
    1.9341   20.5593   38.0187 C   0  0  0  0  0  0  0  0  0  0  0  0
    2.3706   19.6442   36.9934 C   0  0  0  0  0  0  0  0  0  0  0  0
    3.1310   18.5334   37.3132 C   0  0  0  0  0  0  0  0  0  0  0  0
    3.4351   18.2590   38.6285 C   0  0  0  0  0  0  0  0  0  0  0  0
    3.0419   19.1331   39.6172 C   0  0  0  0  0  0  0  0  0  0  0  0
    2.1016   19.9630   35.5302 C   0  0  0  0  0  0  0  0  0  0  0  0
    1.2805   20.8869   35.2567 O   0  0  0  0  0  0  0  0  0  0  0  0
    2.7261   19.2875   34.7410 O   0  0  0  0  0  0  0  0  0  0  0  0
    1.3471   21.4571   37.7749 H   0  0  0  0  0  0  0  0  0  0  0  0
    3.4935   17.8682   36.5156 H   0  0  0  0  0  0  0  0  0  0  0  0
    3.9898   17.3453   38.8879 H   0  0  0  0  0  0  0  0  0  0  0  0
    3.3384   18.9267   40.6561 H   0  0  0  0  0  0  0  0  0  0  0  0
  1  2  1  0
  1  6  2  0
  2  3  2  0
  3  4  1  0
  3  7  1  0
  4  5  2  0
  5  6  1  0
  7  8  1  0
  7  9  2  0
  2 10  1  0
  4 11  1  0
  5 12  1  0
  6 13  1  0
M  CHG  1   8  -1
M  END
>  <mol_id>  (43) 
2026-09-16-3war-s0-n100-0043

>  <rmsd_to_ref>  (43) 
2.382653061225204

>  <pose_kind>  (43) 
rigid

$$$$
3war.A
     RDKit          3D

 13 13  0  0  0  0  0  0  0  0999 V2000
    3.6056   18.9388   38.9510 N   0  0  0  0  0  0  0  0  0  0  0  0
    3.3582   18.9557   37.6476 C   0  0  0  0  0  0  0  0  0  0  0  0
    2.2723   19.6915   37.2052 C   0  0  0  0  0  0  0  0  0  0  0  0
    1.4924   20.3735   38.1125 C   0  0  0  0  0  0  0  0  0  0  0  0
    1.7955   20.3219   39.4635 C   0  0  0  0  0  0  0  0  0  0  0  0
    2.8839   19.5819   39.8870 C   0  0  0  0  0  0  0  0  0  0  0  0
    1.9465   19.7531   35.8028 C   0  0  0  0  0  0  0  0  0  0  0  0
    2.6462   19.1188   34.8091 O   0  0  0  0  0  0  0  0  0  0  0  0
    0.9388   20.4441   35.4580 O   0  0  0  0  0  0  0  0  0  0  0  0
    3.9845   18.4103   36.9356 H   0  0  0  0  0  0  0  0  0  0  0  0
    0.6379   20.9531   37.7707 H   0  0  0  0  0  0  0  0  0  0  0  0
    1.2123   20.8386   40.1959 H   0  0  0  0  0  0  0  0  0  0  0  0
    3.1797   19.4963   40.9231 H   0  0  0  0  0  0  0  0  0  0  0  0
  1  2  1  0
  1  6  2  0
  2  3  2  0
  3  4  1  0
  3  7  1  0
  4  5  2  0
  5  6  1  0
  7  8  1  0
  7  9  2  0
  2 10  1  0
  4 11  1  0
  5 12  1  0
  6 13  1  0
M  CHG  1   8  -1
M  END
>  <mol_id>  (44) 
2026-09-16-3war-s0-n100-0044

>  <rmsd_to_ref>  (44) 
2.4285714285716637

>  <pose_kind>  (44) 
conformer

$$$$
3war.A
     RDKit          3D

 13 13  0  0  0  0  0  0  0  0999 V2000
    3.6498   18.5294   40.4077 N   0  0  0  0  0  0  0  0  0  0  0  0
    3.3317   18.4758   39.0293 C   0  0  0  0  0  0  0  0  0  0  0  0
    2.5490   19.5620   38.4935 C   0  0  0  0  0  0  0  0  0  0  0  0
    2.1125   20.5899   39.3103 C   0  0  0  0  0  0  0  0  0  0  0  0
    2.4689   20.6146   40.6408 C   0  0  0  0  0  0  0  0  0  0  0  0
    3.1996   19.5753   41.1717 C   0  0  0  0  0  0  0  0  0  0  0  0
    2.0903   19.5207   37.0435 C   0  0  0  0  0  0  0  0  0  0  0  0
    2.6169   18.6683   36.2697 O   0  0  0  0  0  0  0  0  0  0  0  0
    1.2303   20.3267   36.7606 O   0  0  0  0  0  0  0  0  0  0  0  0
    3.6667   17.6421   38.3947 H   0  0  0  0  0  0  0  0  0  0  0  0
    1.4797   21.3889   38.8965 H   0  0  0  0  0  0  0  0  0  0  0  0
    2.1708   21.4612   41.2766 H   0  0  0  0  0  0  0  0  0  0  0  0
    3.4304   19.5843   42.2472 H   0  0  0  0  0  0  0  0  0  0  0  0
  1  2  1  0
  1  6  2  0
  2  3  2  0
  3  4  1  0
  3  7  1  0
  4  5  2  0
  5  6  1  0
  7  8  1  0
  7  9  2  0
  2 10  1  0
  4 11  1  0
  5 12  1  0
  6 13  1  0
M  CHG  1   8  -1
M  END
>  <mol_id>  (45) 
2026-09-16-3war-s0-n100-0045

>  <rmsd_to_ref>  (45) 
2.4744897959189753

>  <pose_kind>  (45) 
rigid

$$$$
3war.A
     RDKit          3D

 13 13  0  0  0  0  0  0  0  0999 V2000
    2.8449   21.7963   40.1307 N   0  0  0  0  0  0  0  0  0  0  0  0
    2.8555   21.2178   38.9369 C   0  0  0  0  0  0  0  0  0  0  0  0
    3.2784   19.9018   38.8598 C   0  0  0  0  0  0  0  0  0  0  0  0
    3.6694   19.2408   40.0030 C   0  0  0  0  0  0  0  0  0  0  0  0
    3.6388   19.8926   41.2251 C   0  0  0  0  0  0  0  0  0  0  0  0
    3.2134   21.2070   41.2828 C   0  0  0  0  0  0  0  0  0  0  0  0
    3.3149   19.2127   37.5948 C   0  0  0  0  0  0  0  0  0  0  0  0
    2.9513   19.7642   36.3934 O   0  0  0  0  0  0  0  0  0  0  0  0
    3.7120   18.0069   37.5875 O   0  0  0  0  0  0  0  0  0  0  0  0
    2.5428   21.7523   38.0351 H   0  0  0  0  0  0  0  0  0  0  0  0
    4.0026   18.2069   39.9486 H   0  0  0  0  0  0  0  0  0  0  0  0
    3.9350   19.4108   42.1327 H   0  0  0  0  0  0  0  0  0  0  0  0
    3.1635   21.7777   42.1995 H   0  0  0  0  0  0  0  0  0  0  0  0
  1  2  1  0
  1  6  2  0
  2  3  2  0
  3  4  1  0
  3  7  1  0
  4  5  2  0
  5  6  1  0
  7  8  1  0
  7  9  2  0
  2 10  1  0
  4 11  1  0
  5 12  1  0
  6 13  1  0
M  CHG  1   8  -1
M  END
>  <mol_id>  (46) 
2026-09-16-3war-s0-n100-0046

>  <rmsd_to_ref>  (46) 
2.520408163267438

>  <pose_kind>  (46) 
conformer

$$$$
3war.A
     RDKit          3D

 13 13  0  0  0  0  0  0  0  0999 V2000
    1.8663   20.6397   40.2430 N   0  0  0  0  0  0  0  0  0  0  0  0
    1.8420   20.6750   38.8280 C   0  0  0  0  0  0  0  0  0  0  0  0
    3.0428   20.2688   38.1407 C   0  0  0  0  0  0  0  0  0  0  0  0
    4.1698   19.8906   38.8483 C   0  0  0  0  0  0  0  0  0  0  0  0
    4.1391   19.8456   40.2248 C   0  0  0  0  0  0  0  0  0  0  0  0
    3.0066   20.2484   40.8964 C   0  0  0  0  0  0  0  0  0  0  0  0
    3.1188   20.3734   36.6247 C   0  0  0  0  0  0  0  0  0  0  0  0
    2.0467   20.5680   35.9802 O   0  0  0  0  0  0  0  0  0  0  0  0
    4.2351   20.2666   36.1646 O   0  0  0  0  0  0  0  0  0  0  0  0
    0.9464   20.9981   38.2771 H   0  0  0  0  0  0  0  0  0  0  0  0
    5.0921   19.6251   38.3108 H   0  0  0  0  0  0  0  0  0  0  0  0
    5.0160   19.4894   40.7854 H   0  0  0  0  0  0  0  0  0  0  0  0
    3.0170   20.2568   41.9963 H   0  0  0  0  0  0  0  0  0  0  0  0
  1  2  1  0
  1  6  2  0
  2  3  2  0
  3  4  1  0
  3  7  1  0
  4  5  2  0
  5  6  1  0
  7  8  1  0
  7  9  2  0
  2 10  1  0
  4 11  1  0
  5 12  1  0
  6 13  1  0
M  CHG  1   8  -1
M  END
>  <mol_id>  (47) 
2026-09-16-3war-s0-n100-0047

>  <rmsd_to_ref>  (47) 
2.566326530612927

>  <pose_kind>  (47) 
rigid

$$$$
3war.A
     RDKit          3D

 13 13  0  0  0  0  0  0  0  0999 V2000
    1.8115   19.9598   40.9307 N   0  0  0  0  0  0  0  0  0  0  0  0
    2.2852   19.2768   39.8965 C   0  0  0  0  0  0  0  0  0  0  0  0
    2.3130   19.9063   38.6640 C   0  0  0  0  0  0  0  0  0  0  0  0
    1.8569   21.2004   38.5461 C   0  0  0  0  0  0  0  0  0  0  0  0
    1.3720   21.8683   39.6591 C   0  0  0  0  0  0  0  0  0  0  0  0
    1.3520   21.2236   40.8821 C   0  0  0  0  0  0  0  0  0  0  0  0
    2.8147   19.2228   37.4989 C   0  0  0  0  0  0  0  0  0  0  0  0
    3.2938   17.9382   37.4921 O   0  0  0  0  0  0  0  0  0  0  0  0
    2.8150   19.8520   36.3963 O   0  0  0  0  0  0  0  0  0  0  0  0
    2.6451   18.2491   40.0014 H   0  0  0  0  0  0  0  0  0  0  0  0
    1.8762   21.7001   37.5803 H   0  0  0  0  0  0  0  0  0  0  0  0
    1.0100   22.8730   39.6048 H   0  0  0  0  0  0  0  0  0  0  0  0
    0.9886   21.6813   41.7913 H   0  0  0  0  0  0  0  0  0  0  0  0
  1  2  1  0
  1  6  2  0
  2  3  2  0
  3  4  1  0
  3  7  1  0
  4  5  2  0
  5  6  1  0
  7  8  1  0
  7  9  2  0
  2 10  1  0
  4 11  1  0
  5 12  1  0
  6 13  1  0
M  CHG  1   8  -1
M  END
>  <mol_id>  (48) 
2026-09-16-3war-s0-n100-0048

>  <rmsd_to_ref>  (48) 
2.6122448979607773

>  <pose_kind>  (48) 
conformer

$$$$
3war.A
     RDKit          3D

 13 13  0  0  0  0  0  0  0  0999 V2000
    3.3608   19.8444   41.0289 N   0  0  0  0  0  0  0  0  0  0  0  0
    3.4533   19.0454   39.8641 C   0  0  0  0  0  0  0  0  0  0  0  0
    2.7989   19.5372   38.6770 C   0  0  0  0  0  0  0  0  0  0  0  0
    2.0923   20.7265   38.6997 C   0  0  0  0  0  0  0  0  0  0  0  0
    2.0517   21.4848   39.8492 C   0  0  0  0  0  0  0  0  0  0  0  0
    2.6552   21.0197   40.9960 C   0  0  0  0  0  0  0  0  0  0  0  0
    2.7766   18.6849   37.4169 C   0  0  0  0  0  0  0  0  0  0  0  0
    3.5476   17.6827   37.3546 O   0  0  0  0  0  0  0  0  0  0  0  0
    1.9911   19.0524   36.5701 O   0  0  0  0  0  0  0  0  0  0  0  0
    4.0003   18.0909   39.8644 H   0  0  0  0  0  0  0  0  0  0  0  0
    1.5620   21.0673   37.7982 H   0  0  0  0  0  0  0  0  0  0  0  0
    1.5390   22.4580   39.8507 H   0  0  0  0  0  0  0  0  0  0  0  0
    2.5683   21.6121   41.9187 H   0  0  0  0  0  0  0  0  0  0  0  0
  1  2  1  0
  1  6  2  0
  2  3  2  0
  3  4  1  0
  3  7  1  0
  4  5  2  0
  5  6  1  0
  7  8  1  0
  7  9  2  0
  2 10  1  0
  4 11  1  0
  5 12  1  0
  6 13  1  0
M  CHG  1   8  -1
M  END
>  <mol_id>  (49) 
2026-09-16-3war-s0-n100-0049

>  <rmsd_to_ref>  (49) 
2.658163265309956

>  <pose_kind>  (49) 
rigid

$$$$
3war.A
     RDKit          3D

 13 13  0  0  0  0  0  0  0  0999 V2000
    2.9901   20.8749   40.0188 N   0  0  0  0  0  0  0  0  0  0  0  0
    2.7410   21.0779   38.7316 C   0  0  0  0  0  0  0  0  0  0  0  0
    3.6137   20.5265   37.8093 C   0  0  0  0  0  0  0  0  0  0  0  0
    4.6968   19.7955   38.2443 C   0  0  0  0  0  0  0  0  0  0  0  0
    4.9105   19.6140   39.6011 C   0  0  0  0  0  0  0  0  0  0  0  0
    4.0282   20.1722   40.5077 C   0  0  0  0  0  0  0  0  0  0  0  0
    3.4027   20.7080   36.3954 C   0  0  0  0  0  0  0  0  0  0  0  0
    2.3640   21.4129   35.8443 O   0  0  0  0  0  0  0  0  0  0  0  0
    4.2370   20.1785   35.5984 O   0  0  0  0  0  0  0  0  0  0  0  0
    1.8774   21.6603   38.3971 H   0  0  0  0  0  0  0  0  0  0  0  0
    5.3859   19.3599   37.5242 H   0  0  0  0  0  0  0  0  0  0  0  0
    5.7405   19.0527   39.9746 H   0  0  0  0  0  0  0  0  0  0  0  0
    4.1316   20.0721   41.5790 H   0  0  0  0  0  0  0  0  0  0  0  0
  1  2  1  0
  1  6  2  0
  2  3  2  0
  3  4  1  0
  3  7  1  0
  4  5  2  0
  5  6  1  0
  7  8  1  0
  7  9  2  0
  2 10  1  0
  4 11  1  0
  5 12  1  0
  6 13  1  0
M  CHG  1   8  -1
M  END
>  <mol_id>  (50) 
2026-09-16-3war-s0-n100-0050

>  <rmsd_to_ref>  (50) 
2.7040816326550288

>  <pose_kind>  (50) 
conformer

$$$$
3war.A
     RDKit          3D

 13 13  0  0  0  0  0  0  0  0999 V2000
    2.6820   19.0171   41.7755 N   0  0  0  0  0  0  0  0  0  0  0  0
    3.2939   19.0038   40.4990 C   0  0  0  0  0  0  0  0  0  0  0  0
    2.5582   19.6013   39.4122 C   0  0  0  0  0  0  0  0  0  0  0  0
    1.2987   20.1351   39.6193 C   0  0  0  0  0  0  0  0  0  0  0  0
    0.7536   20.1501   40.8845 C   0  0  0  0  0  0  0  0  0  0  0  0
    1.4351   19.5665   41.9289 C   0  0  0  0  0  0  0  0  0  0  0  0
    3.1133   19.5369   37.9972 C   0  0  0  0  0  0  0  0  0  0  0  0
    4.3211   19.1919   37.8395 O   0  0  0  0  0  0  0  0  0  0  0  0
    2.3186   19.8217   37.1274 O   0  0  0  0  0  0  0  0  0  0  0  0
    4.2870   18.5573   40.3430 H   0  0  0  0  0  0  0  0  0  0  0  0
    0.7315   20.5483   38.7723 H   0  0  0  0  0  0  0  0  0  0  0  0
   -0.2224   20.6264   41.0596 H   0  0  0  0  0  0  0  0  0  0  0  0
    0.9624   19.5402   42.9218 H   0  0  0  0  0  0  0  0  0  0  0  0
  1  2  1  0
  1  6  2  0
  2  3  2  0
  3  4  1  0
  3  7  1  0
  4  5  2  0
  5  6  1  0
  7  8  1  0
  7  9  2  0
  2 10  1  0
  4 11  1  0
  5 12  1  0
  6 13  1  0
M  CHG  1   8  -1
M  END
>  <mol_id>  (51) 
2026-09-16-3war-s0-n100-0051

>  <rmsd_to_ref>  (51) 
2.750000000002198

>  <pose_kind>  (51) 
rigid

$$$$
3war.A
     RDKit          3D

 13 13  0  0  0  0  0  0  0  0999 V2000
    2.7651   18.8288   40.6478 N   0  0  0  0  0  0  0  0  0  0  0  0
    3.1761   18.6263   39.4027 C   0  0  0  0  0  0  0  0  0  0  0  0
    2.8124   19.5552   38.4427 C   0  0  0  0  0  0  0  0  0  0  0  0
    2.0481   20.6440   38.7991 C   0  0  0  0  0  0  0  0  0  0  0  0
    1.6456   20.8073   40.1147 C   0  0  0  0  0  0  0  0  0  0  0  0
    2.0183   19.8694   41.0599 C   0  0  0  0  0  0  0  0  0  0  0  0
    3.2247   19.3967   37.0711 C   0  0  0  0  0  0  0  0  0  0  0  0
    3.9841   18.3580   36.5981 O   0  0  0  0  0  0  0  0  0  0  0  0
    2.8602   20.2812   36.2365 O   0  0  0  0  0  0  0  0  0  0  0  0
    3.7829   17.7578   39.1306 H   0  0  0  0  0  0  0  0  0  0  0  0
    1.7595   21.3770   38.0492 H   0  0  0  0  0  0  0  0  0  0  0  0
    1.0520   21.6401   40.4272 H   0  0  0  0  0  0  0  0  0  0  0  0
    1.7415   19.9317   42.1028 H   0  0  0  0  0  0  0  0  0  0  0  0
  1  2  1  0
  1  6  2  0
  2  3  2  0
  3  4  1  0
  3  7  1  0
  4  5  2  0
  5  6  1  0
  7  8  1  0
  7  9  2  0
  2 10  1  0
  4 11  1  0
  5 12  1  0
  6 13  1  0
M  CHG  1   8  -1
M  END
>  <mol_id>  (52) 
2026-09-16-3war-s0-n100-0052

>  <rmsd_to_ref>  (52) 
2.7959183673490173

>  <pose_kind>  (52) 
conformer

$$$$
3war.A
     RDKit          3D

 13 13  0  0  0  0  0  0  0  0999 V2000
    1.9127   18.6073   40.8197 N   0  0  0  0  0  0  0  0  0  0  0  0
    2.7212   18.9657   39.7143 C   0  0  0  0  0  0  0  0  0  0  0  0
    2.2421   20.0310   38.8686 C   0  0  0  0  0  0  0  0  0  0  0  0
    1.0299   20.6468   39.1243 C   0  0  0  0  0  0  0  0  0  0  0  0
    0.2889   20.2834   40.2274 C   0  0  0  0  0  0  0  0  0  0  0  0
    0.7233   19.2553   41.0337 C   0  0  0  0  0  0  0  0  0  0  0  0
    3.0122   20.4024   37.6102 C   0  0  0  0  0  0  0  0  0  0  0  0
    4.1858   19.9496   37.4670 O   0  0  0  0  0  0  0  0  0  0  0  0
    2.4063   21.1110   36.8356 O   0  0  0  0  0  0  0  0  0  0  0  0
    3.6731   18.4539   39.5093 H   0  0  0  0  0  0  0  0  0  0  0  0
    0.6570   21.4280   38.4455 H   0  0  0  0  0  0  0  0  0  0  0  0
   -0.6461   20.8127   40.4632 H   0  0  0  0  0  0  0  0  0  0  0  0
    0.0936   18.9425   41.8797 H   0  0  0  0  0  0  0  0  0  0  0  0
  1  2  1  0
  1  6  2  0
  2  3  2  0
  3  4  1  0
  3  7  1  0
  4  5  2  0
  5  6  1  0
  7  8  1  0
  7  9  2  0
  2 10  1  0
  4 11  1  0
  5 12  1  0
  6 13  1  0
M  CHG  1   8  -1
M  END
>  <mol_id>  (53) 
2026-09-16-3war-s0-n100-0053

>  <rmsd_to_ref>  (53) 
2.841836734694491

>  <pose_kind>  (53) 
rigid

$$$$
3war.A
     RDKit          3D

 13 13  0  0  0  0  0  0  0  0999 V2000
    1.0178   20.4253   37.2316 N   0  0  0  0  0  0  0  0  0  0  0  0
    2.0456   19.5865   37.2538 C   0  0  0  0  0  0  0  0  0  0  0  0
    2.7012   19.3992   38.4586 C   0  0  0  0  0  0  0  0  0  0  0  0
    2.2771   20.0756   39.5808 C   0  0  0  0  0  0  0  0  0  0  0  0
    1.1976   20.9405   39.5019 C   0  0  0  0  0  0  0  0  0  0  0  0
    0.5550   21.1150   38.2901 C   0  0  0  0  0  0  0  0  0  0  0  0
    3.8251   18.5026   38.5538 C   0  0  0  0  0  0  0  0  0  0  0  0
    4.3368   17.7767   37.5093 O   0  0  0  0  0  0  0  0  0  0  0  0
    4.3856   18.3722   39.6855 O   0  0  0  0  0  0  0  0  0  0  0  0
    2.3739   19.0543   36.3563 H   0  0  0  0  0  0  0  0  0  0  0  0
    2.7884   19.9323   40.5300 H   0  0  0  0  0  0  0  0  0  0  0  0
    0.8411   21.4820   40.3523 H   0  0  0  0  0  0  0  0  0  0  0  0
   -0.2923   21.7722   38.1540 H   0  0  0  0  0  0  0  0  0  0  0  0
  1  2  1  0
  1  6  2  0
  2  3  2  0
  3  4  1  0
  3  7  1  0
  4  5  2  0
  5  6  1  0
  7  8  1  0
  7  9  2  0
  2 10  1  0
  4 11  1  0
  5 12  1  0
  6 13  1  0
M  CHG  1   8  -1
M  END
>  <mol_id>  (54) 
2026-09-16-3war-s0-n100-0054

>  <rmsd_to_ref>  (54) 
2.887755102042912

>  <pose_kind>  (54) 
conformer

$$$$
3war.A
     RDKit          3D

 13 13  0  0  0  0  0  0  0  0999 V2000
    3.1300   18.4903   39.3525 N   0  0  0  0  0  0  0  0  0  0  0  0
    3.5617   19.0753   38.1378 C   0  0  0  0  0  0  0  0  0  0  0  0
    2.9173   20.3004   37.7338 C   0  0  0  0  0  0  0  0  0  0  0  0
    1.9038   20.8520   38.4972 C   0  0  0  0  0  0  0  0  0  0  0  0
    1.5347   20.2624   39.6863 C   0  0  0  0  0  0  0  0  0  0  0  0
    2.1271   19.0823   40.0764 C   0  0  0  0  0  0  0  0  0  0  0  0
    3.2642   20.9314   36.3936 C   0  0  0  0  0  0  0  0  0  0  0  0
    4.2900   20.5148   35.7797 O   0  0  0  0  0  0  0  0  0  0  0  0
    2.4959   21.7934   36.0250 O   0  0  0  0  0  0  0  0  0  0  0  0
    4.3540   18.6155   37.5289 H   0  0  0  0  0  0  0  0  0  0  0  0
    1.3920   21.7633   38.1541 H   0  0  0  0  0  0  0  0  0  0  0  0
    0.7697   20.7325   40.3216 H   0  0  0  0  0  0  0  0  0  0  0  0
    1.7835   18.5970   41.0019 H   0  0  0  0  0  0  0  0  0  0  0  0
  1  2  1  0
  1  6  2  0
  2  3  2  0
  3  4  1  0
  3  7  1  0
  4  5  2  0
  5  6  1  0
  7  8  1  0
  7  9  2  0
  2 10  1  0
  4 11  1  0
  5 12  1  0
  6 13  1  0
M  CHG  1   8  -1
M  END
>  <mol_id>  (55) 
2026-09-16-3war-s0-n100-0055

>  <rmsd_to_ref>  (55) 
2.9336734693906013

>  <pose_kind>  (55) 
rigid

$$$$
3war.A
     RDKit          3D

 13 13  0  0  0  0  0  0  0  0999 V2000
    0.9856   20.4546   37.1820 N   0  0  0  0  0  0  0  0  0  0  0  0
    2.1781   19.8799   37.2710 C   0  0  0  0  0  0  0  0  0  0  0  0
    2.7606   19.7900   38.5236 C   0  0  0  0  0  0  0  0  0  0  0  0
    2.0994   20.2901   39.6232 C   0  0  0  0  0  0  0  0  0  0  0  0
    0.8551   20.8808   39.4741 C   0  0  0  0  0  0  0  0  0  0  0  0
    0.2887   20.9618   38.2152 C   0  0  0  0  0  0  0  0  0  0  0  0
    4.0543   19.1779   38.6921 C   0  0  0  0  0  0  0  0  0  0  0  0
    4.8059   18.6465   37.6761 O   0  0  0  0  0  0  0  0  0  0  0  0
    4.5370   19.1248   39.8651 O   0  0  0  0  0  0  0  0  0  0  0  0
    2.6945   19.4860   36.3908 H   0  0  0  0  0  0  0  0  0  0  0  0
    2.5521   20.2222   40.6098 H   0  0  0  0  0  0  0  0  0  0  0  0
    0.3130   21.2796   40.3051 H   0  0  0  0  0  0  0  0  0  0  0  0
   -0.6768   21.4083   38.0237 H   0  0  0  0  0  0  0  0  0  0  0  0
  1  2  1  0
  1  6  2  0
  2  3  2  0
  3  4  1  0
  3  7  1  0
  4  5  2  0
  5  6  1  0
  7  8  1  0
  7  9  2  0
  2 10  1  0
  4 11  1  0
  5 12  1  0
  6 13  1  0
M  CHG  1   8  -1
M  END
>  <mol_id>  (56) 
2026-09-16-3war-s0-n100-0056

>  <rmsd_to_ref>  (56) 
2.9795918367375522

>  <pose_kind>  (56) 
conformer

$$$$
3war.A
     RDKit          3D

 13 13  0  0  0  0  0  0  0  0999 V2000
    1.3436   19.2638   40.1434 N   0  0  0  0  0  0  0  0  0  0  0  0
    2.5554   19.1057   39.4288 C   0  0  0  0  0  0  0  0  0  0  0  0
    2.6993   19.8570   38.2063 C   0  0  0  0  0  0  0  0  0  0  0  0
    1.6771   20.6709   37.7514 C   0  0  0  0  0  0  0  0  0  0  0  0
    0.5256   20.8150   38.4938 C   0  0  0  0  0  0  0  0  0  0  0  0
    0.3652   20.0899   39.6533 C   0  0  0  0  0  0  0  0  0  0  0  0
    3.9344   19.6623   37.3395 C   0  0  0  0  0  0  0  0  0  0  0  0
    4.9236   19.0441   37.8315 O   0  0  0  0  0  0  0  0  0  0  0  0
    3.8472   20.1235   36.2221 O   0  0  0  0  0  0  0  0  0  0  0  0
    3.3523   18.4391   39.7901 H   0  0  0  0  0  0  0  0  0  0  0  0
    1.7841   21.2039   36.7952 H   0  0  0  0  0  0  0  0  0  0  0  0
   -0.2627   21.5066   38.1616 H   0  0  0  0  0  0  0  0  0  0  0  0
   -0.5819   20.1764   40.2061 H   0  0  0  0  0  0  0  0  0  0  0  0
  1  2  1  0
  1  6  2  0
  2  3  2  0
  3  4  1  0
  3  7  1  0
  4  5  2  0
  5  6  1  0
  7  8  1  0
  7  9  2  0
  2 10  1  0
  4 11  1  0
  5 12  1  0
  6 13  1  0
M  CHG  1   8  -1
M  END
>  <mol_id>  (57) 
2026-09-16-3war-s0-n100-0057

>  <rmsd_to_ref>  (57) 
3.0255102040818085

>  <pose_kind>  (57) 
rigid

$$$$
3war.A
     RDKit          3D

 13 13  0  0  0  0  0  0  0  0999 V2000
    2.9113   19.0697   36.8035 N   0  0  0  0  0  0  0  0  0  0  0  0
    4.0473   19.7491   36.8930 C   0  0  0  0  0  0  0  0  0  0  0  0
    4.5923   19.9344   38.1520 C   0  0  0  0  0  0  0  0  0  0  0  0
    3.9528   19.4182   39.2571 C   0  0  0  0  0  0  0  0  0  0  0  0
    2.7680   18.7161   39.1070 C   0  0  0  0  0  0  0  0  0  0  0  0
    2.2384   18.5409   37.8418 C   0  0  0  0  0  0  0  0  0  0  0  0
    5.8240   20.6628   38.3214 C   0  0  0  0  0  0  0  0  0  0  0  0
    6.5489   21.2211   37.3004 O   0  0  0  0  0  0  0  0  0  0  0  0
    6.2745   20.8000   39.5004 O   0  0  0  0  0  0  0  0  0  0  0  0
    4.5468   20.1549   36.0083 H   0  0  0  0  0  0  0  0  0  0  0  0
    4.3764   19.5608   40.2487 H   0  0  0  0  0  0  0  0  0  0  0  0
    2.2444   18.3015   39.9423 H   0  0  0  0  0  0  0  0  0  0  0  0
    1.3196   18.0053   37.6492 H   0  0  0  0  0  0  0  0  0  0  0  0
  1  2  1  0
  1  6  2  0
  2  3  2  0
  3  4  1  0
  3  7  1  0
  4  5  2  0
  5  6  1  0
  7  8  1  0
  7  9  2  0
  2 10  1  0
  4 11  1  0
  5 12  1  0
  6 13  1  0
M  CHG  1   8  -1
M  END
>  <mol_id>  (58) 
2026-09-16-3war-s0-n100-0058

>  <rmsd_to_ref>  (58) 
3.0714285714297676

>  <pose_kind>  (58) 
conformer

$$$$
3war.A
     RDKit          3D

 13 13  0  0  0  0  0  0  0  0999 V2000
    4.0698   20.1473   40.8183 N   0  0  0  0  0  0  0  0  0  0  0  0
    3.7798   19.8327   39.4688 C   0  0  0  0  0  0  0  0  0  0  0  0
    2.5412   20.3362   38.9290 C   0  0  0  0  0  0  0  0  0  0  0  0
    1.6722   21.0699   39.7169 C   0  0  0  0  0  0  0  0  0  0  0  0
    2.0082   21.3748   41.0177 C   0  0  0  0  0  0  0  0  0  0  0  0
    3.1782   20.8854   41.5536 C   0  0  0  0  0  0  0  0  0  0  0  0
    2.1215   19.9564   37.5168 C   0  0  0  0  0  0  0  0  0  0  0  0
    2.9813   19.4225   36.7564 O   0  0  0  0  0  0  0  0  0  0  0  0
    0.9646   20.1997   37.2490 O   0  0  0  0  0  0  0  0  0  0  0  0
    4.4693   19.2305   38.8589 H   0  0  0  0  0  0  0  0  0  0  0  0
    0.7111   21.4102   39.3039 H   0  0  0  0  0  0  0  0  0  0  0  0
    1.3443   22.0069   41.6257 H   0  0  0  0  0  0  0  0  0  0  0  0
    3.4059   21.0939   42.6093 H   0  0  0  0  0  0  0  0  0  0  0  0
  1  2  1  0
  1  6  2  0
  2  3  2  0
  3  4  1  0
  3  7  1  0
  4  5  2  0
  5  6  1  0
  7  8  1  0
  7  9  2  0
  2 10  1  0
  4 11  1  0
  5 12  1  0
  6 13  1  0
M  CHG  1   8  -1
M  END
>  <mol_id>  (59) 
2026-09-16-3war-s0-n100-0059

>  <rmsd_to_ref>  (59) 
3.117346938778757

>  <pose_kind>  (59) 
rigid

$$$$
3war.A
     RDKit          3D

 13 13  0  0  0  0  0  0  0  0999 V2000
    2.5651   20.7076   37.1596 N   0  0  0  0  0  0  0  0  0  0  0  0
    3.0884   19.4889   37.1254 C   0  0  0  0  0  0  0  0  0  0  0  0
    3.0500   18.7360   38.2863 C   0  0  0  0  0  0  0  0  0  0  0  0
    2.4804   19.2620   39.4246 C   0  0  0  0  0  0  0  0  0  0  0  0
    1.9481   20.5410   39.4055 C   0  0  0  0  0  0  0  0  0  0  0  0
    1.9955   21.2783   38.2366 C   0  0  0  0  0  0  0  0  0  0  0  0
    3.6002   17.4045   38.3193 C   0  0  0  0  0  0  0  0  0  0  0  0
    4.1906   16.7761   37.2535 O   0  0  0  0  0  0  0  0  0  0  0  0
    3.5355   16.7629   39.4129 O   0  0  0  0  0  0  0  0  0  0  0  0
    3.5384   19.0809   36.2155 H   0  0  0  0  0  0  0  0  0  0  0  0
    2.4475   18.6750   40.3397 H   0  0  0  0  0  0  0  0  0  0  0  0
    1.4983   20.9814   40.2699 H   0  0  0  0  0  0  0  0  0  0  0  0
    1.6008   22.2808   38.1479 H   0  0  0  0  0  0  0  0  0  0  0  0
  1  2  1  0
  1  6  2  0
  2  3  2  0
  3  4  1  0
  3  7  1  0
  4  5  2  0
  5  6  1  0
  7  8  1  0
  7  9  2  0
  2 10  1  0
  4 11  1  0
  5 12  1  0
  6 13  1  0
M  CHG  1   8  -1
M  END
>  <mol_id>  (60) 
2026-09-16-3war-s0-n100-0060

>  <rmsd_to_ref>  (60) 
3.1632653061257487

>  <pose_kind>  (60) 
conformer

$$$$
3war.A
     RDKit          3D

 13 13  0  0  0  0  0  0  0  0999 V2000
    4.7150   18.5549   37.6694 N   0  0  0  0  0  0  0  0  0  0  0  0
    4.0349   19.4087   36.7679 C   0  0  0  0  0  0  0  0  0  0  0  0
    3.5789   20.6766   37.2818 C   0  0  0  0  0  0  0  0  0  0  0  0
    3.7808   21.0167   38.6076 C   0  0  0  0  0  0  0  0  0  0  0  0
    4.4715   20.1657   39.4422 C   0  0  0  0  0  0  0  0  0  0  0  0
    4.8966   18.9435   38.9718 C   0  0  0  0  0  0  0  0  0  0  0  0
    2.7582   21.6012   36.3951 C   0  0  0  0  0  0  0  0  0  0  0  0
    2.7114   21.3593   35.1534 O   0  0  0  0  0  0  0  0  0  0  0  0
    2.2020   22.5043   36.9820 O   0  0  0  0  0  0  0  0  0  0  0  0
    3.8618   19.1177   35.7212 H   0  0  0  0  0  0  0  0  0  0  0  0
    3.3891   21.9684   38.9959 H   0  0  0  0  0  0  0  0  0  0  0  0
    4.6826   20.4615   40.4805 H   0  0  0  0  0  0  0  0  0  0  0  0
    5.4000   18.2541   39.6656 H   0  0  0  0  0  0  0  0  0  0  0  0
  1  2  1  0
  1  6  2  0
  2  3  2  0
  3  4  1  0
  3  7  1  0
  4  5  2  0
  5  6  1  0
  7  8  1  0
  7  9  2  0
  2 10  1  0
  4 11  1  0
  5 12  1  0
  6 13  1  0
M  CHG  1   8  -1
M  END
>  <mol_id>  (61) 
2026-09-16-3war-s0-n100-0061

>  <rmsd_to_ref>  (61) 
3.209183673471126

>  <pose_kind>  (61) 
rigid

$$$$
3war.A
     RDKit          3D

 13 13  0  0  0  0  0  0  0  0999 V2000
    3.6787   17.4428   38.4714 N   0  0  0  0  0  0  0  0  0  0  0  0
    3.6090   18.5280   37.7113 C   0  0  0  0  0  0  0  0  0  0  0  0
    2.8306   19.5817   38.1589 C   0  0  0  0  0  0  0  0  0  0  0  0
    2.1621   19.4774   39.3584 C   0  0  0  0  0  0  0  0  0  0  0  0
    2.2696   18.3206   40.1133 C   0  0  0  0  0  0  0  0  0  0  0  0
    3.0515   17.2784   39.6504 C   0  0  0  0  0  0  0  0  0  0  0  0
    2.7106   20.7901   37.3831 C   0  0  0  0  0  0  0  0  0  0  0  0
    3.3266   21.0100   36.1782 O   0  0  0  0  0  0  0  0  0  0  0  0
    1.9825   21.7218   37.8454 O   0  0  0  0  0  0  0  0  0  0  0  0
    4.1443   18.6001   36.7601 H   0  0  0  0  0  0  0  0  0  0  0  0
    1.5491   20.3021   39.7150 H   0  0  0  0  0  0  0  0  0  0  0  0
    1.7648   18.2048   41.0488 H   0  0  0  0  0  0  0  0  0  0  0  0
    3.1817   16.3479   40.1849 H   0  0  0  0  0  0  0  0  0  0  0  0
  1  2  1  0
  1  6  2  0
  2  3  2  0
  3  4  1  0
  3  7  1  0
  4  5  2  0
  5  6  1  0
  7  8  1  0
  7  9  2  0
  2 10  1  0
  4 11  1  0
  5 12  1  0
  6 13  1  0
M  CHG  1   8  -1
M  END
>  <mol_id>  (62) 
2026-09-16-3war-s0-n100-0062

>  <rmsd_to_ref>  (62) 
3.255102040818503

>  <pose_kind>  (62) 
conformer

$$$$
3war.A
     RDKit          3D

 13 13  0  0  0  0  0  0  0  0999 V2000
    1.7326   19.2613   40.5530 N   0  0  0  0  0  0  0  0  0  0  0  0
    2.2612   18.6651   39.3829 C   0  0  0  0  0  0  0  0  0  0  0  0
    2.2070   19.4412   38.1688 C   0  0  0  0  0  0  0  0  0  0  0  0
    1.6350   20.7009   38.1590 C   0  0  0  0  0  0  0  0  0  0  0  0
    1.1571   21.2523   39.3277 C   0  0  0  0  0  0  0  0  0  0  0  0
    1.1842   20.5166   40.4912 C   0  0  0  0  0  0  0  0  0  0  0  0
    2.6693   18.8261   36.8563 C   0  0  0  0  0  0  0  0  0  0  0  0
    3.3282   17.7460   36.8969 O   0  0  0  0  0  0  0  0  0  0  0  0
    2.3441   19.4431   35.8649 O   0  0  0  0  0  0  0  0  0  0  0  0
    2.6942   17.6540   39.3991 H   0  0  0  0  0  0  0  0  0  0  0  0
    1.5617   21.2633   37.2166 H   0  0  0  0  0  0  0  0  0  0  0  0
    0.7554   22.2763   39.3311 H   0  0  0  0  0  0  0  0  0  0  0  0
    0.7504   20.9513   41.4038 H   0  0  0  0  0  0  0  0  0  0  0  0
  1  2  1  0
  1  6  2  0
  2  3  2  0
  3  4  1  0
  3  7  1  0
  4  5  2  0
  5  6  1  0
  7  8  1  0
  7  9  2  0
  2 10  1  0
  4 11  1  0
  5 12  1  0
  6 13  1  0
M  CHG  1   8  -1
M  END
>  <mol_id>  (63) 
2026-09-16-3war-s0-n100-0063

>  <rmsd_to_ref>  (63) 
3.301020408165824

>  <pose_kind>  (63) 
rigid

$$$$
3war.A
     RDKit          3D

 13 13  0  0  0  0  0  0  0  0999 V2000
    1.3905   20.3313   37.3110 N   0  0  0  0  0  0  0  0  0  0  0  0
    2.1927   19.2821   37.1870 C   0  0  0  0  0  0  0  0  0  0  0  0
    2.7623   18.7642   38.3374 C   0  0  0  0  0  0  0  0  0  0  0  0
    2.4863   19.3410   39.5572 C   0  0  0  0  0  0  0  0  0  0  0  0
    1.6407   20.4362   39.6301 C   0  0  0  0  0  0  0  0  0  0  0  0
    1.0809   20.9398   38.4705 C   0  0  0  0  0  0  0  0  0  0  0  0
    3.6434   17.6255   38.2750 C   0  0  0  0  0  0  0  0  0  0  0  0
    3.9916   16.9688   37.1230 O   0  0  0  0  0  0  0  0  0  0  0  0
    4.1352   17.1958   39.3637 O   0  0  0  0  0  0  0  0  0  0  0  0
    2.4052   18.8316   36.2130 H   0  0  0  0  0  0  0  0  0  0  0  0
    2.9309   18.9385   40.4644 H   0  0  0  0  0  0  0  0  0  0  0  0
    1.4041   20.9094   40.5594 H   0  0  0  0  0  0  0  0  0  0  0  0
    0.4137   21.7900   38.4511 H   0  0  0  0  0  0  0  0  0  0  0  0
  1  2  1  0
  1  6  2  0
  2  3  2  0
  3  4  1  0
  3  7  1  0
  4  5  2  0
  5  6  1  0
  7  8  1  0
  7  9  2  0
  2 10  1  0
  4 11  1  0
  5 12  1  0
  6 13  1  0
M  CHG  1   8  -1
M  END
>  <mol_id>  (64) 
2026-09-16-3war-s0-n100-0064

>  <rmsd_to_ref>  (64) 
3.3469387755107096

>  <pose_kind>  (64) 
conformer

$$$$
3war.A
     RDKit          3D

 13 13  0  0  0  0  0  0  0  0999 V2000
    3.7375   19.1089   37.7673 N   0  0  0  0  0  0  0  0  0  0  0  0
    2.7641   19.8988   37.1097 C   0  0  0  0  0  0  0  0  0  0  0  0
    1.7220   20.4707   37.9259 C   0  0  0  0  0  0  0  0  0  0  0  0
    1.6742   20.2257   39.2868 C   0  0  0  0  0  0  0  0  0  0  0  0
    2.6583   19.4726   39.8887 C   0  0  0  0  0  0  0  0  0  0  0  0
    3.6492   18.9039   39.1204 C   0  0  0  0  0  0  0  0  0  0  0  0
    0.5908   21.2502   37.2721 C   0  0  0  0  0  0  0  0  0  0  0  0
    0.7214   21.6002   36.0626 O   0  0  0  0  0  0  0  0  0  0  0  0
   -0.3620   21.4601   37.9915 O   0  0  0  0  0  0  0  0  0  0  0  0
    2.8010   20.0689   36.0235 H   0  0  0  0  0  0  0  0  0  0  0  0
    0.8489   20.6329   39.8893 H   0  0  0  0  0  0  0  0  0  0  0  0
    2.6525   19.3262   40.9788 H   0  0  0  0  0  0  0  0  0  0  0  0
    4.3970   18.2621   39.6093 H   0  0  0  0  0  0  0  0  0  0  0  0
  1  2  1  0
  1  6  2  0
  2  3  2  0
  3  4  1  0
  3  7  1  0
  4  5  2  0
  5  6  1  0
  7  8  1  0
  7  9  2  0
  2 10  1  0
  4 11  1  0
  5 12  1  0
  6 13  1  0
M  CHG  1   8  -1
M  END
>  <mol_id>  (65) 
2026-09-16-3war-s0-n100-0065

>  <rmsd_to_ref>  (65) 
3.3928571428598473

>  <pose_kind>  (65) 
rigid

$$$$
3war.A
     RDKit          3D

 13 13  0  0  0  0  0  0  0  0999 V2000
    3.8037   19.1429   37.6735 N   0  0  0  0  0  0  0  0  0  0  0  0
    3.0033   19.8828   36.9170 C   0  0  0  0  0  0  0  0  0  0  0  0
    2.2829   20.8919   37.5327 C   0  0  0  0  0  0  0  0  0  0  0  0
    2.4135   21.0970   38.8882 C   0  0  0  0  0  0  0  0  0  0  0  0
    3.2640   20.2947   39.6315 C   0  0  0  0  0  0  0  0  0  0  0  0
    3.9756   19.2916   38.9996 C   0  0  0  0  0  0  0  0  0  0  0  0
    1.3949   21.7331   36.7708 C   0  0  0  0  0  0  0  0  0  0  0  0
    1.1827   21.6254   35.4206 O   0  0  0  0  0  0  0  0  0  0  0  0
    0.7610   22.6416   37.3909 O   0  0  0  0  0  0  0  0  0  0  0  0
    2.9071   19.7111   35.8410 H   0  0  0  0  0  0  0  0  0  0  0  0
    1.8499   21.8882   39.3772 H   0  0  0  0  0  0  0  0  0  0  0  0
    3.3903   20.4252   40.6853 H   0  0  0  0  0  0  0  0  0  0  0  0
    4.6562   18.6285   39.5146 H   0  0  0  0  0  0  0  0  0  0  0  0
  1  2  1  0
  1  6  2  0
  2  3  2  0
  3  4  1  0
  3  7  1  0
  4  5  2  0
  5  6  1  0
  7  8  1  0
  7  9  2  0
  2 10  1  0
  4 11  1  0
  5 12  1  0
  6 13  1  0
M  CHG  1   8  -1
M  END
>  <mol_id>  (66) 
2026-09-16-3war-s0-n100-0066

>  <rmsd_to_ref>  (66) 
3.4387755102043025

>  <pose_kind>  (66) 
conformer

$$$$
3war.A
     RDKit          3D

 13 13  0  0  0  0  0  0  0  0999 V2000
    4.0147   18.9814   37.2335 N   0  0  0  0  0  0  0  0  0  0  0  0
    3.3102   20.1209   36.7758 C   0  0  0  0  0  0  0  0  0  0  0  0
    2.6084   20.9001   37.7655 C   0  0  0  0  0  0  0  0  0  0  0  0
    2.6105   20.5215   39.0962 C   0  0  0  0  0  0  0  0  0  0  0  0
    3.3322   19.4198   39.5004 C   0  0  0  0  0  0  0  0  0  0  0  0
    3.9918   18.6545   38.5651 C   0  0  0  0  0  0  0  0  0  0  0  0
    1.7532   22.0812   37.3314 C   0  0  0  0  0  0  0  0  0  0  0  0
    1.8788   22.5126   36.1479 O   0  0  0  0  0  0  0  0  0  0  0  0
    1.0024   22.5039   38.1840 O   0  0  0  0  0  0  0  0  0  0  0  0
    3.2987   20.3996   35.7117 H   0  0  0  0  0  0  0  0  0  0  0  0
    2.0350   21.1012   39.8329 H   0  0  0  0  0  0  0  0  0  0  0  0
    3.3813   19.1526   40.5663 H   0  0  0  0  0  0  0  0  0  0  0  0
    4.5194   17.7484   38.8977 H   0  0  0  0  0  0  0  0  0  0  0  0
  1  2  1  0
  1  6  2  0
  2  3  2  0
  3  4  1  0
  3  7  1  0
  4  5  2  0
  5  6  1  0
  7  8  1  0
  7  9  2  0
  2 10  1  0
  4 11  1  0
  5 12  1  0
  6 13  1  0
M  CHG  1   8  -1
M  END
>  <mol_id>  (67) 
2026-09-16-3war-s0-n100-0067

>  <rmsd_to_ref>  (67) 
3.4846938775528997

>  <pose_kind>  (67) 
rigid

$$$$
3war.A
     RDKit          3D

 13 13  0  0  0  0  0  0  0  0999 V2000
    1.7462   20.1855   41.2827 N   0  0  0  0  0  0  0  0  0  0  0  0
    2.5066   19.5815   40.3787 C   0  0  0  0  0  0  0  0  0  0  0  0
    2.3662   19.9644   39.0559 C   0  0  0  0  0  0  0  0  0  0  0  0
    1.4580   20.9435   38.7196 C   0  0  0  0  0  0  0  0  0  0  0  0
    0.6884   21.5421   39.7039 C   0  0  0  0  0  0  0  0  0  0  0  0
    0.8423   21.1469   41.0200 C   0  0  0  0  0  0  0  0  0  0  0  0
    3.1607   19.3494   38.0229 C   0  0  0  0  0  0  0  0  0  0  0  0
    4.0939   18.3676   38.2345 O   0  0  0  0  0  0  0  0  0  0  0  0
    2.9871   19.7423   36.8282 O   0  0  0  0  0  0  0  0  0  0  0  0
    3.2250   18.8047   40.6570 H   0  0  0  0  0  0  0  0  0  0  0  0
    1.3434   21.2483   37.6819 H   0  0  0  0  0  0  0  0  0  0  0  0
   -0.0263   22.3054   39.4795 H   0  0  0  0  0  0  0  0  0  0  0  0
    0.2772   21.5690   41.8390 H   0  0  0  0  0  0  0  0  0  0  0  0
  1  2  1  0
  1  6  2  0
  2  3  2  0
  3  4  1  0
  3  7  1  0
  4  5  2  0
  5  6  1  0
  7  8  1  0
  7  9  2  0
  2 10  1  0
  4 11  1  0
  5 12  1  0
  6 13  1  0
M  CHG  1   8  -1
M  END
>  <mol_id>  (68) 
2026-09-16-3war-s0-n100-0068

>  <rmsd_to_ref>  (68) 
3.5306122449000803

>  <pose_kind>  (68) 
conformer

$$$$
3war.A
     RDKit          3D

 13 13  0  0  0  0  0  0  0  0999 V2000
    3.1539   18.6454   41.1330 N   0  0  0  0  0  0  0  0  0  0  0  0
    3.2591   19.6203   40.1120 C   0  0  0  0  0  0  0  0  0  0  0  0
    2.8398   19.2321   38.7880 C   0  0  0  0  0  0  0  0  0  0  0  0
    2.3832   17.9504   38.5376 C   0  0  0  0  0  0  0  0  0  0  0  0
    2.2725   17.0424   39.5677 C   0  0  0  0  0  0  0  0  0  0  0  0
    2.6865   17.3915   40.8336 C   0  0  0  0  0  0  0  0  0  0  0  0
    3.0151   20.1978   37.6255 C   0  0  0  0  0  0  0  0  0  0  0  0
    3.2833   21.4079   37.8832 O   0  0  0  0  0  0  0  0  0  0  0  0
    2.8869   19.6988   36.5283 O   0  0  0  0  0  0  0  0  0  0  0  0
    3.6439   20.6297   40.3195 H   0  0  0  0  0  0  0  0  0  0  0  0
    2.1080   17.6558   37.5141 H   0  0  0  0  0  0  0  0  0  0  0  0
    1.8549   16.0422   39.3795 H   0  0  0  0  0  0  0  0  0  0  0  0
    2.6408   16.6377   41.6333 H   0  0  0  0  0  0  0  0  0  0  0  0
  1  2  1  0
  1  6  2  0
  2  3  2  0
  3  4  1  0
  3  7  1  0
  4  5  2  0
  5  6  1  0
  7  8  1  0
  7  9  2  0
  2 10  1  0
  4 11  1  0
  5 12  1  0
  6 13  1  0
M  CHG  1   8  -1
M  END
>  <mol_id>  (69) 
2026-09-16-3war-s0-n100-0069

>  <rmsd_to_ref>  (69) 
3.57653061224502

>  <pose_kind>  (69) 
rigid

$$$$
3war.A
     RDKit          3D

 13 13  0  0  0  0  0  0  0  0999 V2000
    1.6377   21.6760   39.8198 N   0  0  0  0  0  0  0  0  0  0  0  0
    2.0653   21.7250   38.5648 C   0  0  0  0  0  0  0  0  0  0  0  0
    2.6440   20.5850   38.0340 C   0  0  0  0  0  0  0  0  0  0  0  0
    2.7586   19.4518   38.8082 C   0  0  0  0  0  0  0  0  0  0  0  0
    2.2954   19.4549   40.1138 C   0  0  0  0  0  0  0  0  0  0  0  0
    1.7201   20.6028   40.6271 C   0  0  0  0  0  0  0  0  0  0  0  0
    3.1298   20.5689   36.6773 C   0  0  0  0  0  0  0  0  0  0  0  0
    3.0711   21.6317   35.8134 O   0  0  0  0  0  0  0  0  0  0  0  0
    3.6507   19.4942   36.2468 O   0  0  0  0  0  0  0  0  0  0  0  0
    1.9691   22.6306   37.9587 H   0  0  0  0  0  0  0  0  0  0  0  0
    3.2125   18.5532   38.3964 H   0  0  0  0  0  0  0  0  0  0  0  0
    2.3678   18.5937   40.7436 H   0  0  0  0  0  0  0  0  0  0  0  0
    1.3374   20.6782   41.6352 H   0  0  0  0  0  0  0  0  0  0  0  0
  1  2  1  0
  1  6  2  0
  2  3  2  0
  3  4  1  0
  3  7  1  0
  4  5  2  0
  5  6  1  0
  7  8  1  0
  7  9  2  0
  2 10  1  0
  4 11  1  0
  5 12  1  0
  6 13  1  0
M  CHG  1   8  -1
M  END
>  <mol_id>  (70) 
2026-09-16-3war-s0-n100-0070

>  <rmsd_to_ref>  (70) 
3.6224489795925994

>  <pose_kind>  (70) 
conformer

$$$$
3war.A
     RDKit          3D

 13 13  0  0  0  0  0  0  0  0999 V2000
    4.3903   17.4757   37.2289 N   0  0  0  0  0  0  0  0  0  0  0  0
    3.8539   18.6853   36.7253 C   0  0  0  0  0  0  0  0  0  0  0  0
    3.2204   19.5676   37.6738 C   0  0  0  0  0  0  0  0  0  0  0  0
    3.1247   19.2197   39.0094 C   0  0  0  0  0  0  0  0  0  0  0  0
    3.6848   18.0443   39.4596 C   0  0  0  0  0  0  0  0  0  0  0  0
    4.2763   17.1823   38.5635 C   0  0  0  0  0  0  0  0  0  0  0  0
    2.5390   20.8378   37.1872 C   0  0  0  0  0  0  0  0  0  0  0  0
    2.7627   21.2250   36.0028 O   0  0  0  0  0  0  0  0  0  0  0  0
    1.8166   21.3698   38.0024 O   0  0  0  0  0  0  0  0  0  0  0  0
    3.9177   18.9409   35.6574 H   0  0  0  0  0  0  0  0  0  0  0  0
    2.6003   19.8827   39.7132 H   0  0  0  0  0  0  0  0  0  0  0  0
    3.6597   17.7954   40.5308 H   0  0  0  0  0  0  0  0  0  0  0  0
    4.6716   16.2240   38.9315 H   0  0  0  0  0  0  0  0  0  0  0  0
  1  2  1  0
  1  6  2  0
  2  3  2  0
  3  4  1  0
  3  7  1  0
  4  5  2  0
  5  6  1  0
  7  8  1  0
  7  9  2  0
  2 10  1  0
  4 11  1  0
  5 12  1  0
  6 13  1  0
M  CHG  1   8  -1
M  END
>  <mol_id>  (71) 
2026-09-16-3war-s0-n100-0071

>  <rmsd_to_ref>  (71) 
3.668367346940574

>  <pose_kind>  (71) 
rigid

$$$$
3war.A
     RDKit          3D

 13 13  0  0  0  0  0  0  0  0999 V2000
    3.9198   19.0754   40.8194 N   0  0  0  0  0  0  0  0  0  0  0  0
    4.1306   19.9383   39.8339 C   0  0  0  0  0  0  0  0  0  0  0  0
    3.4600   19.7331   38.6404 C   0  0  0  0  0  0  0  0  0  0  0  0
    2.6077   18.6592   38.5102 C   0  0  0  0  0  0  0  0  0  0  0  0
    2.4238   17.7880   39.5717 C   0  0  0  0  0  0  0  0  0  0  0  0
    3.1021   18.0087   40.7562 C   0  0  0  0  0  0  0  0  0  0  0  0
    3.6426   20.6319   37.5289 C   0  0  0  0  0  0  0  0  0  0  0  0
    4.4615   21.7314   37.5391 O   0  0  0  0  0  0  0  0  0  0  0  0
    3.0004   20.3920   36.4605 O   0  0  0  0  0  0  0  0  0  0  0  0
    4.8099   20.7882   39.9482 H   0  0  0  0  0  0  0  0  0  0  0  0
    2.0781   18.4930   37.5749 H   0  0  0  0  0  0  0  0  0  0  0  0
    1.7702   16.9441   39.5065 H   0  0  0  0  0  0  0  0  0  0  0  0
    3.0079   17.3720   41.6246 H   0  0  0  0  0  0  0  0  0  0  0  0
  1  2  1  0
  1  6  2  0
  2  3  2  0
  3  4  1  0
  3  7  1  0
  4  5  2  0
  5  6  1  0
  7  8  1  0
  7  9  2  0
  2 10  1  0
  4 11  1  0
  5 12  1  0
  6 13  1  0
M  CHG  1   8  -1
M  END
>  <mol_id>  (72) 
2026-09-16-3war-s0-n100-0072

>  <rmsd_to_ref>  (72) 
3.714285714287407

>  <pose_kind>  (72) 
conformer

$$$$
3war.A
     RDKit          3D

 13 13  0  0  0  0  0  0  0  0999 V2000
    2.4939   21.0829   40.5611 N   0  0  0  0  0  0  0  0  0  0  0  0
    2.1920   21.3099   39.1968 C   0  0  0  0  0  0  0  0  0  0  0  0
    3.1578   20.8566   38.2267 C   0  0  0  0  0  0  0  0  0  0  0  0
    4.3357   20.2529   38.6293 C   0  0  0  0  0  0  0  0  0  0  0  0
    4.5752   20.0283   39.9673 C   0  0  0  0  0  0  0  0  0  0  0  0
    3.6720   20.4722   40.9069 C   0  0  0  0  0  0  0  0  0  0  0  0
    2.9430   21.1529   36.7499 C   0  0  0  0  0  0  0  0  0  0  0  0
    1.8040   21.5609   36.3773 O   0  0  0  0  0  0  0  0  0  0  0  0
    3.9164   20.9739   36.0502 O   0  0  0  0  0  0  0  0  0  0  0  0
    1.2616   21.8102   38.8902 H   0  0  0  0  0  0  0  0  0  0  0  0
    5.0823   19.9517   37.8798 H   0  0  0  0  0  0  0  0  0  0  0  0
    5.4846   19.4964   40.2838 H   0  0  0  0  0  0  0  0  0  0  0  0
    3.9036   20.3320   41.9731 H   0  0  0  0  0  0  0  0  0  0  0  0
  1  2  1  0
  1  6  2  0
  2  3  2  0
  3  4  1  0
  3  7  1  0
  4  5  2  0
  5  6  1  0
  7  8  1  0
  7  9  2  0
  2 10  1  0
  4 11  1  0
  5 12  1  0
  6 13  1  0
M  CHG  1   8  -1
M  END
>  <mol_id>  (73) 
2026-09-16-3war-s0-n100-0073

>  <rmsd_to_ref>  (73) 
3.76020408163456

>  <pose_kind>  (73) 
rigid

$$$$
3war.A
     RDKit          3D

 13 13  0  0  0  0  0  0  0  0999 V2000
    3.8301   17.8874   37.1029 N   0  0  0  0  0  0  0  0  0  0  0  0
    2.8279   18.7554   37.1524 C   0  0  0  0  0  0  0  0  0  0  0  0
    2.6011   19.4136   38.3490 C   0  0  0  0  0  0  0  0  0  0  0  0
    3.4068   19.1549   39.4356 C   0  0  0  0  0  0  0  0  0  0  0  0
    4.4403   18.2383   39.3294 C   0  0  0  0  0  0  0  0  0  0  0  0
    4.6517   17.5904   38.1263 C   0  0  0  0  0  0  0  0  0  0  0  0
    1.5297   20.3691   38.4724 C   0  0  0  0  0  0  0  0  0  0  0  0
    0.6649   20.7085   37.4641 O   0  0  0  0  0  0  0  0  0  0  0  0
    1.3711   20.9408   39.5948 O   0  0  0  0  0  0  0  0  0  0  0  0
    2.1941   18.9532   36.2830 H   0  0  0  0  0  0  0  0  0  0  0  0
    3.2333   19.6691   40.3782 H   0  0  0  0  0  0  0  0  0  0  0  0
    5.0852   18.0126   40.1519 H   0  0  0  0  0  0  0  0  0  0  0  0
    5.4372   16.8644   37.9703 H   0  0  0  0  0  0  0  0  0  0  0  0
  1  2  1  0
  1  6  2  0
  2  3  2  0
  3  4  1  0
  3  7  1  0
  4  5  2  0
  5  6  1  0
  7  8  1  0
  7  9  2  0
  2 10  1  0
  4 11  1  0
  5 12  1  0
  6 13  1  0
M  CHG  1   8  -1
M  END
>  <mol_id>  (74) 
2026-09-16-3war-s0-n100-0074

>  <rmsd_to_ref>  (74) 
3.806122448982704

>  <pose_kind>  (74) 
conformer

$$$$
3war.A
     RDKit          3D

 13 13  0  0  0  0  0  0  0  0999 V2000
    4.1693   18.8211   37.5583 N   0  0  0  0  0  0  0  0  0  0  0  0
    2.9385   19.4696   37.2960 C   0  0  0  0  0  0  0  0  0  0  0  0
    1.9675   19.4909   38.3619 C   0  0  0  0  0  0  0  0  0  0  0  0
    2.2321   18.8755   39.5725 C   0  0  0  0  0  0  0  0  0  0  0  0
    3.4544   18.2793   39.7926 C   0  0  0  0  0  0  0  0  0  0  0  0
    4.3848   18.2339   38.7786 C   0  0  0  0  0  0  0  0  0  0  0  0
    0.5889   20.0861   38.1177 C   0  0  0  0  0  0  0  0  0  0  0  0
    0.4087   20.7787   37.0734 O   0  0  0  0  0  0  0  0  0  0  0  0
   -0.2342   19.8244   38.9681 O   0  0  0  0  0  0  0  0  0  0  0  0
    2.7319   19.9368   36.3218 H   0  0  0  0  0  0  0  0  0  0  0  0
    1.4650   18.8624   40.3608 H   0  0  0  0  0  0  0  0  0  0  0  0
    3.6862   17.8412   40.7746 H   0  0  0  0  0  0  0  0  0  0  0  0
    5.3348   17.7079   38.9537 H   0  0  0  0  0  0  0  0  0  0  0  0
  1  2  1  0
  1  6  2  0
  2  3  2  0
  3  4  1  0
  3  7  1  0
  4  5  2  0
  5  6  1  0
  7  8  1  0
  7  9  2  0
  2 10  1  0
  4 11  1  0
  5 12  1  0
  6 13  1  0
M  CHG  1   8  -1
M  END
>  <mol_id>  (75) 
2026-09-16-3war-s0-n100-0075

>  <rmsd_to_ref>  (75) 
3.852040816327705

>  <pose_kind>  (75) 
rigid

$$$$
3war.A
     RDKit          3D

 13 13  0  0  0  0  0  0  0  0999 V2000
    3.3334   19.5343   36.9811 N   0  0  0  0  0  0  0  0  0  0  0  0
    2.3992   20.4210   37.2998 C   0  0  0  0  0  0  0  0  0  0  0  0
    1.8637   20.3656   38.5750 C   0  0  0  0  0  0  0  0  0  0  0  0
    2.3062   19.4099   39.4623 C   0  0  0  0  0  0  0  0  0  0  0  0
    3.2846   18.5074   39.0777 C   0  0  0  0  0  0  0  0  0  0  0  0
    3.8080   18.5778   37.7997 C   0  0  0  0  0  0  0  0  0  0  0  0
    0.8456   21.2985   38.9875 C   0  0  0  0  0  0  0  0  0  0  0  0
    0.3272   22.2904   38.1956 O   0  0  0  0  0  0  0  0  0  0  0  0
    0.3929   21.1981   40.1693 O   0  0  0  0  0  0  0  0  0  0  0  0
    2.0550   21.1760   36.5870 H   0  0  0  0  0  0  0  0  0  0  0  0
    1.8890   19.3617   40.4657 H   0  0  0  0  0  0  0  0  0  0  0  0
    3.6519   17.7524   39.7398 H   0  0  0  0  0  0  0  0  0  0  0  0
    4.5721   17.9081   37.4310 H   0  0  0  0  0  0  0  0  0  0  0  0
  1  2  1  0
  1  6  2  0
  2  3  2  0
  3  4  1  0
  3  7  1  0
  4  5  2  0
  5  6  1  0
  7  8  1  0
  7  9  2  0
  2 10  1  0
  4 11  1  0
  5 12  1  0
  6 13  1  0
M  CHG  1   8  -1
M  END
>  <mol_id>  (76) 
2026-09-16-3war-s0-n100-0076

>  <rmsd_to_ref>  (76) 
3.897959183676141

>  <pose_kind>  (76) 
conformer

$$$$
3war.A
     RDKit          3D

 13 13  0  0  0  0  0  0  0  0999 V2000
    1.5549   22.6127   39.5893 N   0  0  0  0  0  0  0  0  0  0  0  0
    2.3178   21.4601   39.8952 C   0  0  0  0  0  0  0  0  0  0  0  0
    2.9563   20.7841   38.7930 C   0  0  0  0  0  0  0  0  0  0  0  0
    2.7976   21.2390   37.4961 C   0  0  0  0  0  0  0  0  0  0  0  0
    2.0678   22.3808   37.2483 C   0  0  0  0  0  0  0  0  0  0  0  0
    1.4362   23.0267   38.2874 C   0  0  0  0  0  0  0  0  0  0  0  0
    3.7116   19.4861   39.0370 C   0  0  0  0  0  0  0  0  0  0  0  0
    3.9832   19.1628   40.2305 O   0  0  0  0  0  0  0  0  0  0  0  0
    3.9814   18.8605   38.0344 O   0  0  0  0  0  0  0  0  0  0  0  0
    2.4190   21.0961   40.9282 H   0  0  0  0  0  0  0  0  0  0  0  0
    3.2550   20.6878   36.6613 H   0  0  0  0  0  0  0  0  0  0  0  0
    1.9900   22.7751   36.2244 H   0  0  0  0  0  0  0  0  0  0  0  0
    0.8142   23.9064   38.0653 H   0  0  0  0  0  0  0  0  0  0  0  0
  1  2  1  0
  1  6  2  0
  2  3  2  0
  3  4  1  0
  3  7  1  0
  4  5  2  0
  5  6  1  0
  7  8  1  0
  7  9  2  0
  2 10  1  0
  4 11  1  0
  5 12  1  0
  6 13  1  0
M  CHG  1   8  -1
M  END
>  <mol_id>  (77) 
2026-09-16-3war-s0-n100-0077

>  <rmsd_to_ref>  (77) 
3.9438775510205026

>  <pose_kind>  (77) 
rigid

$$$$
3war.A
     RDKit          3D

 13 13  0  0  0  0  0  0  0  0999 V2000
    3.3944   18.8000   39.4812 N   0  0  0  0  0  0  0  0  0  0  0  0
    2.5209   19.7985   39.5002 C   0  0  0  0  0  0  0  0  0  0  0  0
    1.5592   19.8351   38.5051 C   0  0  0  0  0  0  0  0  0  0  0  0
    1.5351   18.8528   37.5402 C   0  0  0  0  0  0  0  0  0  0  0  0
    2.4715   17.8320   37.5672 C   0  0  0  0  0  0  0  0  0  0  0  0
    3.4246   17.8116   38.5686 C   0  0  0  0  0  0  0  0  0  0  0  0
    0.5797   20.8914   38.4660 C   0  0  0  0  0  0  0  0  0  0  0  0
    0.5036   21.9206   39.3685 O   0  0  0  0  0  0  0  0  0  0  0  0
   -0.2769   20.8714   37.5293 O   0  0  0  0  0  0  0  0  0  0  0  0
    2.5491   20.5736   40.2716 H   0  0  0  0  0  0  0  0  0  0  0  0
    0.7818   18.8764   36.7560 H   0  0  0  0  0  0  0  0  0  0  0  0
    2.4829   17.0530   36.8346 H   0  0  0  0  0  0  0  0  0  0  0  0
    4.1848   17.0478   38.6525 H   0  0  0  0  0  0  0  0  0  0  0  0
  1  2  1  0
  1  6  2  0
  2  3  2  0
  3  4  1  0
  3  7  1  0
  4  5  2  0
  5  6  1  0
  7  8  1  0
  7  9  2  0
  2 10  1  0
  4 11  1  0
  5 12  1  0
  6 13  1  0
M  CHG  1   8  -1
M  END
>  <mol_id>  (78) 
2026-09-16-3war-s0-n100-0078

>  <rmsd_to_ref>  (78) 
3.989795918369861

>  <pose_kind>  (78) 
conformer

$$$$
3war.A
     RDKit          3D

 13 13  0  0  0  0  0  0  0  0999 V2000
    2.8690   19.7363   36.4765 N   0  0  0  0  0  0  0  0  0  0  0  0
    4.0178   19.1576   37.0676 C   0  0  0  0  0  0  0  0  0  0  0  0
    4.0943   19.1744   38.5075 C   0  0  0  0  0  0  0  0  0  0  0  0
    3.0934   19.7592   39.2626 C   0  0  0  0  0  0  0  0  0  0  0  0
    1.9804   20.2867   38.6454 C   0  0  0  0  0  0  0  0  0  0  0  0
    1.9013   20.2955   37.2708 C   0  0  0  0  0  0  0  0  0  0  0  0
    5.3434   18.6564   39.2048 C   0  0  0  0  0  0  0  0  0  0  0  0
    6.1778   17.9878   38.5270 O   0  0  0  0  0  0  0  0  0  0  0  0
    5.4282   18.9508   40.3776 O   0  0  0  0  0  0  0  0  0  0  0  0
    4.8171   18.7145   36.4554 H   0  0  0  0  0  0  0  0  0  0  0  0
    3.1865   19.8030   40.3578 H   0  0  0  0  0  0  0  0  0  0  0  0
    1.1581   20.6992   39.2485 H   0  0  0  0  0  0  0  0  0  0  0  0
    1.0304   20.7679   36.7928 H   0  0  0  0  0  0  0  0  0  0  0  0
  1  2  1  0
  1  6  2  0
  2  3  2  0
  3  4  1  0
  3  7  1  0
  4  5  2  0
  5  6  1  0
  7  8  1  0
  7  9  2  0
  2 10  1  0
  4 11  1  0
  5 12  1  0
  6 13  1  0
M  CHG  1   8  -1
M  END
>  <mol_id>  (79) 
2026-09-16-3war-s0-n100-0079

>  <rmsd_to_ref>  (79) 
4.035714285714853

>  <pose_kind>  (79) 
rigid

$$$$
3war.A
     RDKit          3D

 13 13  0  0  0  0  0  0  0  0999 V2000
    1.6185   20.3300   39.7646 N   0  0  0  0  0  0  0  0  0  0  0  0
    2.5774   19.5813   39.2353 C   0  0  0  0  0  0  0  0  0  0  0  0
    2.2101   18.3878   38.6378 C   0  0  0  0  0  0  0  0  0  0  0  0
    0.8843   18.0163   38.6093 C   0  0  0  0  0  0  0  0  0  0  0  0
   -0.0773   18.8361   39.1774 C   0  0  0  0  0  0  0  0  0  0  0  0
    0.3081   20.0246   39.7698 C   0  0  0  0  0  0  0  0  0  0  0  0
    3.2006   17.5262   38.0434 C   0  0  0  0  0  0  0  0  0  0  0  0
    4.5460   17.7883   38.0102 O   0  0  0  0  0  0  0  0  0  0  0  0
    2.8031   16.4448   37.5105 O   0  0  0  0  0  0  0  0  0  0  0  0
    3.6277   19.8861   39.2636 H   0  0  0  0  0  0  0  0  0  0  0  0
    0.5899   17.0797   38.1412 H   0  0  0  0  0  0  0  0  0  0  0  0
   -1.1154   18.5798   39.1737 H   0  0  0  0  0  0  0  0  0  0  0  0
   -0.3857   20.7127   40.2318 H   0  0  0  0  0  0  0  0  0  0  0  0
  1  2  1  0
  1  6  2  0
  2  3  2  0
  3  4  1  0
  3  7  1  0
  4  5  2  0
  5  6  1  0
  7  8  1  0
  7  9  2  0
  2 10  1  0
  4 11  1  0
  5 12  1  0
  6 13  1  0
M  CHG  1   8  -1
M  END
>  <mol_id>  (80) 
2026-09-16-3war-s0-n100-0080

>  <rmsd_to_ref>  (80) 
4.081632653063207

>  <pose_kind>  (80) 
conformer

$$$$
3war.A
     RDKit          3D

 13 13  0  0  0  0  0  0  0  0999 V2000
    2.9465   18.4261   41.7126 N   0  0  0  0  0  0  0  0  0  0  0  0
    1.8425   19.0086   41.0447 C   0  0  0  0  0  0  0  0  0  0  0  0
    2.0395   19.4031   39.6718 C   0  0  0  0  0  0  0  0  0  0  0  0
    3.2682   19.2382   39.0574 C   0  0  0  0  0  0  0  0  0  0  0  0
    4.3070   18.6420   39.7380 C   0  0  0  0  0  0  0  0  0  0  0  0
    4.1406   18.2771   41.0552 C   0  0  0  0  0  0  0  0  0  0  0  0
    0.9264   20.1218   38.9240 C   0  0  0  0  0  0  0  0  0  0  0  0
   -0.2329   20.1295   39.4324 O   0  0  0  0  0  0  0  0  0  0  0  0
    1.2686   20.6433   37.8846 O   0  0  0  0  0  0  0  0  0  0  0  0
    0.8767   19.1538   41.5509 H   0  0  0  0  0  0  0  0  0  0  0  0
    3.4157   19.5837   38.0236 H   0  0  0  0  0  0  0  0  0  0  0  0
    5.2657   18.4581   39.2311 H   0  0  0  0  0  0  0  0  0  0  0  0
    4.9962   17.8510   41.5996 H   0  0  0  0  0  0  0  0  0  0  0  0
  1  2  1  0
  1  6  2  0
  2  3  2  0
  3  4  1  0
  3  7  1  0
  4  5  2  0
  5  6  1  0
  7  8  1  0
  7  9  2  0
  2 10  1  0
  4 11  1  0
  5 12  1  0
  6 13  1  0
M  CHG  1   8  -1
M  END
>  <mol_id>  (81) 
2026-09-16-3war-s0-n100-0081

>  <rmsd_to_ref>  (81) 
4.127551020408788

>  <pose_kind>  (81) 
rigid

$$$$
3war.A
     RDKit          3D

 13 13  0  0  0  0  0  0  0  0999 V2000
    5.0193   18.0858   37.2746 N   0  0  0  0  0  0  0  0  0  0  0  0
    4.2880   18.9122   36.5381 C   0  0  0  0  0  0  0  0  0  0  0  0
    3.6723   19.9747   37.1773 C   0  0  0  0  0  0  0  0  0  0  0  0
    3.8324   20.1426   38.5348 C   0  0  0  0  0  0  0  0  0  0  0  0
    4.6077   19.2496   39.2566 C   0  0  0  0  0  0  0  0  0  0  0  0
    5.2150   18.1941   38.6014 C   0  0  0  0  0  0  0  0  0  0  0  0
    2.8635   20.9105   36.4379 C   0  0  0  0  0  0  0  0  0  0  0  0
    2.6315   20.8473   35.0881 O   0  0  0  0  0  0  0  0  0  0  0  0
    2.3245   21.8645   37.0790 O   0  0  0  0  0  0  0  0  0  0  0  0
    4.1674   18.7695   35.4603 H   0  0  0  0  0  0  0  0  0  0  0  0
    3.3512   20.9755   39.0422 H   0  0  0  0  0  0  0  0  0  0  0  0
    4.7539   19.3487   40.3112 H   0  0  0  0  0  0  0  0  0  0  0  0
    5.8328   17.4599   39.0989 H   0  0  0  0  0  0  0  0  0  0  0  0
  1  2  1  0
  1  6  2  0
  2  3  2  0
  3  4  1  0
  3  7  1  0
  4  5  2  0
  5  6  1  0
  7  8  1  0
  7  9  2  0
  2 10  1  0
  4 11  1  0
  5 12  1  0
  6 13  1  0
M  CHG  1   8  -1
M  END
>  <mol_id>  (82) 
2026-09-16-3war-s0-n100-0082

>  <rmsd_to_ref>  (82) 
4.173469387755337

>  <pose_kind>  (82) 
conformer

$$$$
3war.A
     RDKit          3D

 13 13  0  0  0  0  0  0  0  0999 V2000
    2.8286   19.0657   36.7261 N   0  0  0  0  0  0  0  0  0  0  0  0
    2.1976   20.0298   37.5486 C   0  0  0  0  0  0  0  0  0  0  0  0
    2.7047   20.1812   38.8900 C   0  0  0  0  0  0  0  0  0  0  0  0
    3.7448   19.3916   39.3466 C   0  0  0  0  0  0  0  0  0  0  0  0
    4.3465   18.4845   38.5022 C   0  0  0  0  0  0  0  0  0  0  0  0
    3.8617   18.3146   37.2248 C   0  0  0  0  0  0  0  0  0  0  0  0
    2.0129   21.1299   39.8577 C   0  0  0  0  0  0  0  0  0  0  0  0
    1.1715   21.9544   39.3943 O   0  0  0  0  0  0  0  0  0  0  0  0
    2.3364   20.9950   41.0180 O   0  0  0  0  0  0  0  0  0  0  0  0
    1.3573   20.6369   37.1805 H   0  0  0  0  0  0  0  0  0  0  0  0
    4.0922   19.4883   40.3859 H   0  0  0  0  0  0  0  0  0  0  0  0
    5.2109   17.8981   38.8472 H   0  0  0  0  0  0  0  0  0  0  0  0
    4.3195   17.5489   36.5812 H   0  0  0  0  0  0  0  0  0  0  0  0
  1  2  1  0
  1  6  2  0
  2  3  2  0
  3  4  1  0
  3  7  1  0
  4  5  2  0
  5  6  1  0
  7  8  1  0
  7  9  2  0
  2 10  1  0
  4 11  1  0
  5 12  1  0
  6 13  1  0
M  CHG  1   8  -1
M  END
>  <mol_id>  (83) 
2026-09-16-3war-s0-n100-0083

>  <rmsd_to_ref>  (83) 
4.21938775510281

>  <pose_kind>  (83) 
rigid

$$$$
3war.A
     RDKit          3D

 13 13  0  0  0  0  0  0  0  0999 V2000
    3.4106   19.7152   36.9398 N   0  0  0  0  0  0  0  0  0  0  0  0
    2.5593   20.7292   37.0243 C   0  0  0  0  0  0  0  0  0  0  0  0
    2.3613   21.3052   38.2674 C   0  0  0  0  0  0  0  0  0  0  0  0
    3.0404   20.8194   39.3626 C   0  0  0  0  0  0  0  0  0  0  0  0
    3.9186   19.7576   39.2184 C   0  0  0  0  0  0  0  0  0  0  0  0
    4.1036   19.1948   37.9689 C   0  0  0  0  0  0  0  0  0  0  0  0
    1.4507   22.4101   38.4307 C   0  0  0  0  0  0  0  0  0  0  0  0
    0.7210   22.9778   37.4184 O   0  0  0  0  0  0  0  0  0  0  0  0
    1.3110   22.8963   39.5951 O   0  0  0  0  0  0  0  0  0  0  0  0
    2.0251   21.1071   36.1477 H   0  0  0  0  0  0  0  0  0  0  0  0
    2.8888   21.2679   40.3418 H   0  0  0  0  0  0  0  0  0  0  0  0
    4.4625   19.3547   40.0462 H   0  0  0  0  0  0  0  0  0  0  0  0
    4.7714   18.3657   37.7816 H   0  0  0  0  0  0  0  0  0  0  0  0
  1  2  1  0
  1  6  2  0
  2  3  2  0
  3  4  1  0
  3  7  1  0
  4  5  2  0
  5  6  1  0
  7  8  1  0
  7  9  2  0
  2 10  1  0
  4 11  1  0
  5 12  1  0
  6 13  1  0
M  CHG  1   8  -1
M  END
>  <mol_id>  (84) 
2026-09-16-3war-s0-n100-0084

>  <rmsd_to_ref>  (84) 
4.2653061224507

>  <pose_kind>  (84) 
conformer

$$$$
3war.A
     RDKit          3D

 13 13  0  0  0  0  0  0  0  0999 V2000
    0.3477   22.1855   36.3292 N   0  0  0  0  0  0  0  0  0  0  0  0
    1.2571   21.8828   37.3712 C   0  0  0  0  0  0  0  0  0  0  0  0
    2.4103   21.0888   37.0259 C   0  0  0  0  0  0  0  0  0  0  0  0
    2.5908   20.6275   35.7341 C   0  0  0  0  0  0  0  0  0  0  0  0
    1.6936   20.9694   34.7461 C   0  0  0  0  0  0  0  0  0  0  0  0
    0.5777   21.7107   35.0635 C   0  0  0  0  0  0  0  0  0  0  0  0
    3.3772   20.6462   38.1139 C   0  0  0  0  0  0  0  0  0  0  0  0
    3.2946   21.1943   39.2520 O   0  0  0  0  0  0  0  0  0  0  0  0
    4.1528   19.7766   37.7797 O   0  0  0  0  0  0  0  0  0  0  0  0
    1.0913   22.2378   38.3990 H   0  0  0  0  0  0  0  0  0  0  0  0
    3.4524   19.9866   35.4954 H   0  0  0  0  0  0  0  0  0  0  0  0
    1.8681   20.6512   33.7077 H   0  0  0  0  0  0  0  0  0  0  0  0
   -0.1557   21.9300   34.2734 H   0  0  0  0  0  0  0  0  0  0  0  0
  1  2  1  0
  1  6  2  0
  2  3  2  0
  3  4  1  0
  3  7  1  0
  4  5  2  0
  5  6  1  0
  7  8  1  0
  7  9  2  0
  2 10  1  0
  4 11  1  0
  5 12  1  0
  6 13  1  0
M  CHG  1   8  -1
M  END
>  <mol_id>  (85) 
2026-09-16-3war-s0-n100-0085

>  <rmsd_to_ref>  (85) 
4.311224489796712

>  <pose_kind>  (85) 
rigid

$$$$
3war.A
     RDKit          3D

 13 13  0  0  0  0  0  0  0  0999 V2000
    4.4622   18.8206   35.0577 N   0  0  0  0  0  0  0  0  0  0  0  0
    3.6288   19.8219   35.3091 C   0  0  0  0  0  0  0  0  0  0  0  0
    2.9967   19.8431   36.5404 C   0  0  0  0  0  0  0  0  0  0  0  0
    3.2452   18.8434   37.4545 C   0  0  0  0  0  0  0  0  0  0  0  0
    4.1252   17.8205   37.1405 C   0  0  0  0  0  0  0  0  0  0  0  0
    4.7474   17.8157   35.9056 C   0  0  0  0  0  0  0  0  0  0  0  0
    2.0792   20.9014   36.8792 C   0  0  0  0  0  0  0  0  0  0  0  0
    1.7534   21.9473   36.0548 O   0  0  0  0  0  0  0  0  0  0  0  0
    1.5304   20.8668   38.0235 O   0  0  0  0  0  0  0  0  0  0  0  0
    3.4388   20.6109   34.5755 H   0  0  0  0  0  0  0  0  0  0  0  0
    2.7514   18.8550   38.4235 H   0  0  0  0  0  0  0  0  0  0  0  0
    4.3419   17.0282   37.8252 H   0  0  0  0  0  0  0  0  0  0  0  0
    5.4444   17.0512   35.5924 H   0  0  0  0  0  0  0  0  0  0  0  0
  1  2  1  0
  1  6  2  0
  2  3  2  0
  3  4  1  0
  3  7  1  0
  4  5  2  0
  5  6  1  0
  7  8  1  0
  7  9  2  0
  2 10  1  0
  4 11  1  0
  5 12  1  0
  6 13  1  0
M  CHG  1   8  -1
M  END
>  <mol_id>  (86) 
2026-09-16-3war-s0-n100-0086

>  <rmsd_to_ref>  (86) 
4.357142857144494

>  <pose_kind>  (86) 
conformer

$$$$
3war.A
     RDKit          3D

 13 13  0  0  0  0  0  0  0  0999 V2000
    3.5499   18.9519   39.8232 N   0  0  0  0  0  0  0  0  0  0  0  0
    2.5684   19.7665   40.4372 C   0  0  0  0  0  0  0  0  0  0  0  0
    1.2098   19.6167   39.9778 C   0  0  0  0  0  0  0  0  0  0  0  0
    0.9001   18.7309   38.9611 C   0  0  0  0  0  0  0  0  0  0  0  0
    1.8837   17.9388   38.4107 C   0  0  0  0  0  0  0  0  0  0  0  0
    3.1888   18.0835   38.8252 C   0  0  0  0  0  0  0  0  0  0  0  0
    0.1210   20.5272   40.5260 C   0  0  0  0  0  0  0  0  0  0  0  0
    0.3765   21.2188   41.5550 O   0  0  0  0  0  0  0  0  0  0  0  0
   -0.9167   20.5104   39.8998 O   0  0  0  0  0  0  0  0  0  0  0  0
    2.8307   20.4824   41.2302 H   0  0  0  0  0  0  0  0  0  0  0  0
   -0.1334   18.6592   38.5914 H   0  0  0  0  0  0  0  0  0  0  0  0
    1.6276   17.1936   37.6433 H   0  0  0  0  0  0  0  0  0  0  0  0
    3.9697   17.4808   38.3384 H   0  0  0  0  0  0  0  0  0  0  0  0
  1  2  1  0
  1  6  2  0
  2  3  2  0
  3  4  1  0
  3  7  1  0
  4  5  2  0
  5  6  1  0
  7  8  1  0
  7  9  2  0
  2 10  1  0
  4 11  1  0
  5 12  1  0
  6 13  1  0
M  CHG  1   8  -1
M  END
>  <mol_id>  (87) 
2026-09-16-3war-s0-n100-0087

>  <rmsd_to_ref>  (87) 
4.4030612244918625

>  <pose_kind>  (87) 
rigid

$$$$
3war.A
     RDKit          3D

 13 13  0  0  0  0  0  0  0  0999 V2000
    3.2299   19.9536   37.0500 N   0  0  0  0  0  0  0  0  0  0  0  0
    2.6834   19.6950   38.2309 C   0  0  0  0  0  0  0  0  0  0  0  0
    3.2258   18.6674   38.9832 C   0  0  0  0  0  0  0  0  0  0  0  0
    4.2980   17.9542   38.4952 C   0  0  0  0  0  0  0  0  0  0  0  0
    4.8306   18.2660   37.2548 C   0  0  0  0  0  0  0  0  0  0  0  0
    4.2758   19.2957   36.5174 C   0  0  0  0  0  0  0  0  0  0  0  0
    2.6809   18.3332   40.2749 C   0  0  0  0  0  0  0  0  0  0  0  0
    1.6188   18.9695   40.8636 O   0  0  0  0  0  0  0  0  0  0  0  0
    3.2208   17.3810   40.9179 O   0  0  0  0  0  0  0  0  0  0  0  0
    1.8316   20.2679   38.6090 H   0  0  0  0  0  0  0  0  0  0  0  0
    4.7283   17.1458   39.0819 H   0  0  0  0  0  0  0  0  0  0  0  0
    5.6625   17.7337   36.8445 H   0  0  0  0  0  0  0  0  0  0  0  0
    4.6383   19.5941   35.5438 H   0  0  0  0  0  0  0  0  0  0  0  0
  1  2  1  0
  1  6  2  0
  2  3  2  0
  3  4  1  0
  3  7  1  0
  4  5  2  0
  5  6  1  0
  7  8  1  0
  7  9  2  0
  2 10  1  0
  4 11  1  0
  5 12  1  0
  6 13  1  0
M  CHG  1   8  -1
M  END
>  <mol_id>  (88) 
2026-09-16-3war-s0-n100-0088

>  <rmsd_to_ref>  (88) 
4.448979591838045

>  <pose_kind>  (88) 
conformer

$$$$
3war.A
     RDKit          3D

 13 13  0  0  0  0  0  0  0  0999 V2000
    3.2451   19.9854   36.9040 N   0  0  0  0  0  0  0  0  0  0  0  0
    2.6948   20.8841   37.8495 C   0  0  0  0  0  0  0  0  0  0  0  0
    3.2811   20.8912   39.1669 C   0  0  0  0  0  0  0  0  0  0  0  0
    4.3173   20.0314   39.4850 C   0  0  0  0  0  0  0  0  0  0  0  0
    4.8390   19.1924   38.5249 C   0  0  0  0  0  0  0  0  0  0  0  0
    4.2779   19.1601   37.2680 C   0  0  0  0  0  0  0  0  0  0  0  0
    2.6777   21.7622   40.2587 C   0  0  0  0  0  0  0  0  0  0  0  0
    1.8406   22.6515   39.9255 O   0  0  0  0  0  0  0  0  0  0  0  0
    3.0608   21.5072   41.3801 O   0  0  0  0  0  0  0  0  0  0  0  0
    1.8567   21.5478   37.5904 H   0  0  0  0  0  0  0  0  0  0  0  0
    4.7252   20.0177   40.5065 H   0  0  0  0  0  0  0  0  0  0  0  0
    5.7006   18.5508   38.7616 H   0  0  0  0  0  0  0  0  0  0  0  0
    4.6722   18.4468   36.5293 H   0  0  0  0  0  0  0  0  0  0  0  0
  1  2  1  0
  1  6  2  0
  2  3  2  0
  3  4  1  0
  3  7  1  0
  4  5  2  0
  5  6  1  0
  7  8  1  0
  7  9  2  0
  2 10  1  0
  4 11  1  0
  5 12  1  0
  6 13  1  0
M  CHG  1   8  -1
M  END
>  <mol_id>  (89) 
2026-09-16-3war-s0-n100-0089

>  <rmsd_to_ref>  (89) 
4.4948979591838265

>  <pose_kind>  (89) 
rigid

$$$$
3war.A
     RDKit          3D

 13 13  0  0  0  0  0  0  0  0999 V2000
    3.4968   19.6031   36.8037 N   0  0  0  0  0  0  0  0  0  0  0  0
    3.8772   19.3145   38.0415 C   0  0  0  0  0  0  0  0  0  0  0  0
    3.1873   19.9079   39.0847 C   0  0  0  0  0  0  0  0  0  0  0  0
    2.1442   20.7656   38.8150 C   0  0  0  0  0  0  0  0  0  0  0  0
    1.7881   21.0326   37.5030 C   0  0  0  0  0  0  0  0  0  0  0  0
    2.4886   20.4308   36.4738 C   0  0  0  0  0  0  0  0  0  0  0  0
    3.5477   19.6385   40.4537 C   0  0  0  0  0  0  0  0  0  0  0  0
    4.5639   18.8055   40.8450 O   0  0  0  0  0  0  0  0  0  0  0  0
    2.8783   20.2122   41.3671 O   0  0  0  0  0  0  0  0  0  0  0  0
    4.7073   18.6315   38.2444 H   0  0  0  0  0  0  0  0  0  0  0  0
    1.5985   21.2347   39.6307 H   0  0  0  0  0  0  0  0  0  0  0  0
    0.9841   21.6930   37.2563 H   0  0  0  0  0  0  0  0  0  0  0  0
    2.2672   20.5918   35.4282 H   0  0  0  0  0  0  0  0  0  0  0  0
  1  2  1  0
  1  6  2  0
  2  3  2  0
  3  4  1  0
  3  7  1  0
  4  5  2  0
  5  6  1  0
  7  8  1  0
  7  9  2  0
  2 10  1  0
  4 11  1  0
  5 12  1  0
  6 13  1  0
M  CHG  1   8  -1
M  END
>  <mol_id>  (90) 
2026-09-16-3war-s0-n100-0090

>  <rmsd_to_ref>  (90) 
4.5408163265313

>  <pose_kind>  (90) 
conformer

$$$$
3war.A
     RDKit          3D

 13 13  0  0  0  0  0  0  0  0999 V2000
    3.6718   20.0518   36.1288 N   0  0  0  0  0  0  0  0  0  0  0  0
    4.2846   19.5158   37.2870 C   0  0  0  0  0  0  0  0  0  0  0  0
    4.2524   20.3244   38.4805 C   0  0  0  0  0  0  0  0  0  0  0  0
    3.6685   21.5785   38.4702 C   0  0  0  0  0  0  0  0  0  0  0  0
    3.0602   22.0486   37.3269 C   0  0  0  0  0  0  0  0  0  0  0  0
    3.0991   21.2969   36.1741 C   0  0  0  0  0  0  0  0  0  0  0  0
    4.9743   19.8523   39.7338 C   0  0  0  0  0  0  0  0  0  0  0  0
    5.3676   18.6501   39.7852 O   0  0  0  0  0  0  0  0  0  0  0  0
    5.1173   20.7015   40.5868 O   0  0  0  0  0  0  0  0  0  0  0  0
    4.7644   18.5260   37.2768 H   0  0  0  0  0  0  0  0  0  0  0  0
    3.6899   22.2016   39.3764 H   0  0  0  0  0  0  0  0  0  0  0  0
    2.5454   23.0207   37.3351 H   0  0  0  0  0  0  0  0  0  0  0  0
    2.6549   21.7100   35.2564 H   0  0  0  0  0  0  0  0  0  0  0  0
  1  2  1  0
  1  6  2  0
  2  3  2  0
  3  4  1  0
  3  7  1  0
  4  5  2  0
  5  6  1  0
  7  8  1  0
  7  9  2  0
  2 10  1  0
  4 11  1  0
  5 12  1  0
  6 13  1  0
M  CHG  1   8  -1
M  END
>  <mol_id>  (91) 
2026-09-16-3war-s0-n100-0091

>  <rmsd_to_ref>  (91) 
4.5867346938792055

>  <pose_kind>  (91) 
rigid

$$$$
3war.A
     RDKit          3D

 13 13  0  0  0  0  0  0  0  0999 V2000
    2.5216   21.0080   36.9248 N   0  0  0  0  0  0  0  0  0  0  0  0
    1.8780   21.1712   38.0736 C   0  0  0  0  0  0  0  0  0  0  0  0
    1.7873   20.0826   38.9240 C   0  0  0  0  0  0  0  0  0  0  0  0
    2.3568   18.8821   38.5620 C   0  0  0  0  0  0  0  0  0  0  0  0
    3.0177   18.7663   37.3499 C   0  0  0  0  0  0  0  0  0  0  0  0
    3.0984   19.8642   36.5132 C   0  0  0  0  0  0  0  0  0  0  0  0
    1.1024   20.1900   40.1873 C   0  0  0  0  0  0  0  0  0  0  0  0
    0.4984   21.3287   40.6547 O   0  0  0  0  0  0  0  0  0  0  0  0
    1.0522   19.1576   40.9243 O   0  0  0  0  0  0  0  0  0  0  0  0
    1.4294   22.1294   38.3511 H   0  0  0  0  0  0  0  0  0  0  0  0
    2.2886   18.0234   39.2262 H   0  0  0  0  0  0  0  0  0  0  0  0
    3.4715   17.8502   37.0364 H   0  0  0  0  0  0  0  0  0  0  0  0
    3.5974   19.8477   35.5546 H   0  0  0  0  0  0  0  0  0  0  0  0
  1  2  1  0
  1  6  2  0
  2  3  2  0
  3  4  1  0
  3  7  1  0
  4  5  2  0
  5  6  1  0
  7  8  1  0
  7  9  2  0
  2 10  1  0
  4 11  1  0
  5 12  1  0
  6 13  1  0
M  CHG  1   8  -1
M  END
>  <mol_id>  (92) 
2026-09-16-3war-s0-n100-0092

>  <rmsd_to_ref>  (92) 
4.6326530612245085

>  <pose_kind>  (92) 
conformer

$$$$
3war.A
     RDKit          3D

 13 13  0  0  0  0  0  0  0  0999 V2000
    1.8578   20.4950   37.4806 N   0  0  0  0  0  0  0  0  0  0  0  0
    1.9051   20.9841   38.8083 C   0  0  0  0  0  0  0  0  0  0  0  0
    2.5513   20.1512   39.7921 C   0  0  0  0  0  0  0  0  0  0  0  0
    3.0725   18.9181   39.4429 C   0  0  0  0  0  0  0  0  0  0  0  0
    3.0276   18.4943   38.1329 C   0  0  0  0  0  0  0  0  0  0  0  0
    2.3973   19.2694   37.1854 C   0  0  0  0  0  0  0  0  0  0  0  0
    2.5538   20.5707   41.2545 C   0  0  0  0  0  0  0  0  0  0  0  0
    2.2186   21.7574   41.5409 O   0  0  0  0  0  0  0  0  0  0  0  0
    2.8772   19.6984   42.0316 O   0  0  0  0  0  0  0  0  0  0  0  0
    1.4681   21.9570   39.0775 H   0  0  0  0  0  0  0  0  0  0  0  0
    3.5237   18.2748   40.2129 H   0  0  0  0  0  0  0  0  0  0  0  0
    3.4934   17.5403   37.8449 H   0  0  0  0  0  0  0  0  0  0  0  0
    2.3239   18.8920   36.1548 H   0  0  0  0  0  0  0  0  0  0  0  0
  1  2  1  0
  1  6  2  0
  2  3  2  0
  3  4  1  0
  3  7  1  0
  4  5  2  0
  5  6  1  0
  7  8  1  0
  7  9  2  0
  2 10  1  0
  4 11  1  0
  5 12  1  0
  6 13  1  0
M  CHG  1   8  -1
M  END
>  <mol_id>  (93) 
2026-09-16-3war-s0-n100-0093

>  <rmsd_to_ref>  (93) 
4.678571428573114

>  <pose_kind>  (93) 
rigid

$$$$
3war.A
     RDKit          3D

 13 13  0  0  0  0  0  0  0  0999 V2000
    3.4846   18.6413   37.0329 N   0  0  0  0  0  0  0  0  0  0  0  0
    3.4831   18.2178   38.2902 C   0  0  0  0  0  0  0  0  0  0  0  0
    2.9745   19.0671   39.2579 C   0  0  0  0  0  0  0  0  0  0  0  0
    2.4927   20.3056   38.8967 C   0  0  0  0  0  0  0  0  0  0  0  0
    2.5179   20.6983   37.5683 C   0  0  0  0  0  0  0  0  0  0  0  0
    3.0297   19.8368   36.6154 C   0  0  0  0  0  0  0  0  0  0  0  0
    2.9426   18.6705   40.6429 C   0  0  0  0  0  0  0  0  0  0  0  0
    3.3920   17.4670   41.1220 O   0  0  0  0  0  0  0  0  0  0  0  0
    2.4645   19.4921   41.4843 O   0  0  0  0  0  0  0  0  0  0  0  0
    3.8684   17.2319   38.5662 H   0  0  0  0  0  0  0  0  0  0  0  0
    2.0920   20.9771   39.6527 H   0  0  0  0  0  0  0  0  0  0  0  0
    2.1526   21.6522   37.2516 H   0  0  0  0  0  0  0  0  0  0  0  0
    3.0811   20.0754   35.5625 H   0  0  0  0  0  0  0  0  0  0  0  0
  1  2  1  0
  1  6  2  0
  2  3  2  0
  3  4  1  0
  3  7  1  0
  4  5  2  0
  5  6  1  0
  7  8  1  0
  7  9  2  0
  2 10  1  0
  4 11  1  0
  5 12  1  0
  6 13  1  0
M  CHG  1   8  -1
M  END
>  <mol_id>  (94) 
2026-09-16-3war-s0-n100-0094

>  <rmsd_to_ref>  (94) 
4.724489795918522

>  <pose_kind>  (94) 
conformer

$$$$
3war.A
     RDKit          3D

 13 13  0  0  0  0  0  0  0  0999 V2000
    4.5402   18.3922   38.2236 N   0  0  0  0  0  0  0  0  0  0  0  0
    3.6684   18.9959   39.1614 C   0  0  0  0  0  0  0  0  0  0  0  0
    3.1222   20.2846   38.8149 C   0  0  0  0  0  0  0  0  0  0  0  0
    3.4671   20.9030   37.6263 C   0  0  0  0  0  0  0  0  0  0  0  0
    4.2985   20.2660   36.7313 C   0  0  0  0  0  0  0  0  0  0  0  0
    4.8433   19.0439   37.0557 C   0  0  0  0  0  0  0  0  0  0  0  0
    2.2554   21.0330   39.8164 C   0  0  0  0  0  0  0  0  0  0  0  0
    1.8203   20.4033   40.8248 O   0  0  0  0  0  0  0  0  0  0  0  0
    2.0659   22.2002   39.5503 O   0  0  0  0  0  0  0  0  0  0  0  0
    3.4185   18.5033   40.1127 H   0  0  0  0  0  0  0  0  0  0  0  0
    3.0768   21.9053   37.3955 H   0  0  0  0  0  0  0  0  0  0  0  0
    4.5262   20.7321   35.7613 H   0  0  0  0  0  0  0  0  0  0  0  0
    5.5467   18.5734   36.3530 H   0  0  0  0  0  0  0  0  0  0  0  0
  1  2  1  0
  1  6  2  0
  2  3  2  0
  3  4  1  0
  3  7  1  0
  4  5  2  0
  5  6  1  0
  7  8  1  0
  7  9  2  0
  2 10  1  0
  4 11  1  0
  5 12  1  0
  6 13  1  0
M  CHG  1   8  -1
M  END
>  <mol_id>  (95) 
2026-09-16-3war-s0-n100-0095

>  <rmsd_to_ref>  (95) 
4.770408163266444

>  <pose_kind>  (95) 
rigid

$$$$
