
     RDKit          3D

 25 25  0  0  0  0  0  0  0  0999 V2000
    3.5970   21.5362   33.8037 F   0  0  0  0  0  0  0  0  0  0  0  0
    2.3706   17.8514   41.6968 F   0  0  0  0  0  0  0  0  0  0  0  0
    1.0787   23.1275   35.0342 C   0  0  0  0  0  0  0  0  0  0  0  0
    3.4533   16.9404   40.2246 F   0  0  0  0  0  0  0  0  0  0  0  0
    2.3312   17.5204   40.4412 C   0  0  0  0  0  0  0  0  0  0  0  0
    3.3924   20.0058   35.8529 C   0  0  0  0  0  0  0  0  0  0  0  0
    1.9572   21.9951   35.7030 C   0  0  0  0  0  0  0  0  0  0  0  0
    1.4820   16.5616   40.3119 F   0  0  0  0  0  0  0  0  0  0  0  0
    0.9199   20.2930   41.4127 N   0  0  0  0  0  0  0  0  0  0  0  0
    1.4498   20.1349   40.0385 C   0  0  0  0  0  0  0  0  0  0  0  0
    2.7319   19.8946   37.1833 C   0  0  0  0  0  0  0  0  0  0  0  0
    2.1694   18.8234   39.5265 C   0  0  0  0  0  0  0  0  0  0  0  0
    2.7639   18.8705   38.2430 C   0  0  0  0  0  0  0  0  0  0  0  0
    2.9931   21.1394   35.0456 C   0  0  0  0  0  0  0  0  0  0  0  0
    1.6230   21.3391   37.1905 S   0  0  0  0  0  0  0  0  0  0  0  0
    0.6547   23.7732   35.8173 H   0  0  0  0  0  0  0  0  0  0  0  0
    1.7071   23.7304   34.3623 H   0  0  0  0  0  0  0  0  0  0  0  0
    0.2630   22.6664   34.4579 H   0  0  0  0  0  0  0  0  0  0  0  0
    4.1362   19.2733   35.5059 H   0  0  0  0  0  0  0  0  0  0  0  0
    1.6839   20.5697   42.0456 H   0  0  0  0  0  0  0  0  0  0  0  0
    0.1899   21.0196   41.4176 H   0  0  0  0  0  0  0  0  0  0  0  0
    0.5174   19.3997   41.7303 H   0  0  0  0  0  0  0  0  0  0  0  0
    0.5930   20.2897   39.3662 H   0  0  0  0  0  0  0  0  0  0  0  0
    2.2863   20.8493   40.0474 H   0  0  0  0  0  0  0  0  0  0  0  0
    3.3583   17.9802   37.9899 H   0  0  0  0  0  0  0  0  0  0  0  0
  1 14  1  0
  3  7  1  0
  4  5  1  0
  5  2  1  0
  6 11  2  0
  7 15  1  0
  8  5  1  0
 10  9  1  0
 11 15  1  0
 11 13  1  0
 12  5  1  0
 12 10  1  0
 13 12  2  3
 14  6  1  0
 14  7  2  0
  3 16  1  0
  3 17  1  0
  3 18  1  0
  6 19  1  0
  9 20  1  0
  9 21  1  0
  9 22  1  0
 10 23  1  0
 10 24  1  0
 13 25  1  0
M  CHG  1   9   1
M  END
>  <mol_id>  (1) 
2026-09-16-6tgu-s0-n100-0001

>  <rmsd_to_ref>  (1) 


$$$$

     RDKit          3D

 49 49  0  0  0  0  0  0  0  0999 V2000
    3.9621   20.6981   35.5910 O   0  0  0  0  0  0  0  0  0  0  0  0
    2.4307   17.7385   40.4244 C   0  0  0  0  0  0  0  0  0  0  0  0
    0.8439   18.7701   44.9102 C   0  0  0  0  0  0  0  0  0  0  0  0
    2.2593   22.4963   33.9500 C   0  0  0  0  0  0  0  0  0  0  0  0
    2.0269   15.9649   41.6595 C   0  0  0  0  0  0  0  0  0  0  0  0
    3.3545   21.9093   37.2938 O   0  0  0  0  0  0  0  0  0  0  0  0
    1.8750   20.4493   43.5370 C   0  0  0  0  0  0  0  0  0  0  0  0
    2.0502   17.2621   41.7736 C   0  0  1  0  0  0  0  0  0  0  0  0
    1.2449   20.0881   44.7098 C   0  0  0  0  0  0  0  0  0  0  0  0
    1.2905   25.5528   32.4191 C   0  0  0  0  0  0  0  0  0  0  0  0
    1.4425   13.2425   40.6203 O   0  0  0  0  0  0  0  0  0  0  0  0
    2.2745   23.6910   31.5946 C   0  0  0  0  0  0  0  0  0  0  0  0
    2.2235   15.5538   40.3839 C   0  0  0  0  0  0  0  0  0  0  0  0
    2.0886   14.1568   39.7717 C   0  0  0  0  0  0  0  0  0  0  0  0
    2.5080   19.1932   40.0501 C   0  0  0  0  0  0  0  0  0  0  0  0
    2.8321   22.6633   35.0836 C   0  0  2  0  0  0  0  0  0  0  0  0
    2.3833   24.6903   32.9588 C   0  0  0  0  0  0  0  0  0  0  0  0
    2.5903   16.6722   39.7193 N   0  0  0  0  0  0  0  0  0  0  0  0
    2.1989   19.4562   42.6639 C   0  0  0  0  0  0  0  0  0  0  0  0
    1.1769   17.8060   44.0456 C   0  0  0  0  0  0  0  0  0  0  0  0
    3.6255   23.7866   33.8509 C   0  0  0  0  0  0  0  0  0  0  0  0
    3.4547   21.7501   35.8994 C   0  0  0  0  0  0  0  0  0  0  0  0
    1.8194   18.1528   42.8607 C   0  0  0  0  0  0  0  0  0  0  0  0
    0.2423   18.5172   45.7957 H   0  0  0  0  0  0  0  0  0  0  0  0
    1.5043   21.7008   34.0343 H   0  0  0  0  0  0  0  0  0  0  0  0
    1.7716   23.4336   33.6440 H   0  0  0  0  0  0  0  0  0  0  0  0
    3.0101   22.2112   33.1983 H   0  0  0  0  0  0  0  0  0  0  0  0
    1.8655   15.2796   42.5047 H   0  0  0  0  0  0  0  0  0  0  0  0
    2.1074   21.5014   43.3154 H   0  0  0  0  0  0  0  0  0  0  0  0
    0.9884   17.3062   41.4898 H   0  0  0  0  0  0  0  0  0  0  0  0
    1.0589   20.8427   45.4882 H   0  0  0  0  0  0  0  0  0  0  0  0
    0.7409   26.0132   33.2534 H   0  0  0  0  0  0  0  0  0  0  0  0
    1.7241   26.3412   31.7864 H   0  0  0  0  0  0  0  0  0  0  0  0
    0.6013   24.9396   31.8200 H   0  0  0  0  0  0  0  0  0  0  0  0
    1.8361   13.2988   41.5270 H   0  0  0  0  0  0  0  0  0  0  0  0
    2.4887   22.6515   31.8835 H   0  0  0  0  0  0  0  0  0  0  0  0
    1.2598   23.7532   31.1745 H   0  0  0  0  0  0  0  0  0  0  0  0
    3.0044   24.0197   30.8402 H   0  0  0  0  0  0  0  0  0  0  0  0
    1.5103   14.2377   38.8394 H   0  0  0  0  0  0  0  0  0  0  0  0
    3.1056   13.7770   39.5944 H   0  0  0  0  0  0  0  0  0  0  0  0
    2.7793   19.7860   40.9362 H   0  0  0  0  0  0  0  0  0  0  0  0
    3.2707   19.3309   39.2694 H   0  0  0  0  0  0  0  0  0  0  0  0
    1.5308   19.5268   39.6710 H   0  0  0  0  0  0  0  0  0  0  0  0
    2.3838   22.8556   36.0697 H   0  0  0  0  0  0  0  0  0  0  0  0
    1.6373   24.0676   33.4743 H   0  0  0  0  0  0  0  0  0  0  0  0
    2.7860   19.7081   41.7685 H   0  0  0  0  0  0  0  0  0  0  0  0
    0.9463   16.7536   44.2676 H   0  0  0  0  0  0  0  0  0  0  0  0
    4.2189   23.1889   33.1433 H   0  0  0  0  0  0  0  0  0  0  0  0
    4.2774   24.4977   34.3796 H   0  0  0  0  0  0  0  0  0  0  0  0
  1 22  2  0
  2  8  1  0
  7  9  1  0
  8  5  1  0
  8 23  1  0
  9  3  2  0
 10 17  1  0
 12 17  1  0
 13  5  2  0
 14 13  1  0
 14 11  1  0
 15  2  1  0
 16  4  1  0
 16 22  1  0
 17 21  1  0
 18  2  2  0
 18 13  1  0
 19 23  1  0
 19  7  2  0
 20  3  1  0
 21 16  1  0
 22  6  1  0
 23 20  2  0
  3 24  1  0
  4 25  1  0
  4 26  1  0
  4 27  1  0
  5 28  1  0
  7 29  1  0
  8 30  1  6
  9 31  1  0
 10 32  1  0
 10 33  1  0
 10 34  1  0
 11 35  1  0
 12 36  1  0
 12 37  1  0
 12 38  1  0
 14 39  1  0
 14 40  1  0
 15 41  1  0
 15 42  1  0
 15 43  1  0
 16 44  1  1
 17 45  1  0
 19 46  1  0
 20 47  1  0
 21 48  1  0
 21 49  1  0
M  CHG  1   6  -1
M  END
>  <mol_id>  (2) 
2026-09-16-6tgu-s0-n100-0002

>  <rmsd_to_ref>  (2) 


$$$$

     RDKit          3D

 63 65  0  0  0  0  0  0  0  0999 V2000
    1.5130   21.5306   36.9201 C   0  0  0  0  0  0  0  0  0  0  0  0
    3.5386   17.1372   38.7866 C   0  0  0  0  0  0  0  0  0  0  0  0
    1.1236   25.6157   32.5359 C   0  0  0  0  0  0  0  0  0  0  0  0
    1.4531   21.4572   39.8444 C   0  0  0  0  0  0  0  0  0  0  0  0
    0.6523   26.6730   33.2807 C   0  0  0  0  0  0  0  0  0  0  0  0
    2.3797   20.8782   37.4989 N   0  0  0  0  0  0  0  0  0  0  0  0
    2.5959   23.7747   32.1790 C   0  0  0  0  0  0  0  0  0  0  0  0
    2.1962   20.6782   38.8661 C   0  0  0  0  0  0  0  0  0  0  0  0
    2.5308   19.5523   41.1038 S   0  0  0  0  0  0  0  0  0  0  0  0
    4.0803   12.1423   40.1985 C   0  0  0  0  0  0  0  0  0  0  0  0
    0.0720   27.1862   31.1678 C   0  0  0  0  0  0  0  0  0  0  0  0
    2.9245   12.4688   38.0123 C   0  0  0  0  0  0  0  0  0  0  0  0
    5.0727   16.7227   38.7551 C   0  0  0  0  0  0  0  0  0  0  0  0
    3.5306   13.6978   37.9211 C   0  0  0  0  0  0  0  0  0  0  0  0
    3.5862   18.7428   38.6673 C   0  0  0  0  0  0  0  0  0  0  0  0
    0.9629   26.7865   34.6280 C   0  0  0  0  0  0  0  0  0  0  0  0
    1.6377   21.0302   41.1619 C   0  0  0  0  0  0  0  0  0  0  0  0
   -1.5253   28.6767   33.9647 C   0  0  0  0  0  0  0  0  0  0  0  0
    0.0751   27.5061   32.6060 N   0  0  0  0  0  0  0  0  0  0  0  0
    2.7580   19.6515   39.3961 C   0  0  0  0  0  0  0  0  0  0  0  0
    1.7124   24.5167   33.1027 C   0  0  1  0  0  0  0  0  0  0  0  0
    2.1021   12.0311   37.0228 O   0  0  0  0  0  0  0  0  0  0  0  0
    4.1463   14.3349   39.0736 C   0  0  0  0  0  0  0  0  0  0  0  0
    4.4777   13.4572   40.1298 C   0  0  0  0  0  0  0  0  0  0  0  0
    1.9523   22.8412   36.4624 C   0  0  0  0  0  0  0  0  0  0  0  0
    0.8205   25.9654   31.0929 C   0  0  0  0  0  0  0  0  0  0  0  0
   -0.6300   28.4607   33.1707 C   0  0  0  0  0  0  0  0  0  0  0  0
    2.2624   23.0418   35.1396 C   0  0  0  0  0  0  0  0  0  0  0  0
    1.5746   23.9741   34.3899 C   0  0  0  0  0  0  0  0  0  0  0  0
    3.2698   11.6405   39.0061 C   0  0  0  0  0  0  0  0  0  0  0  0
    5.1284   15.2841   38.8271 O   0  0  0  0  0  0  0  0  0  0  0  0
    1.1763   20.9555   36.0449 H   0  0  0  0  0  0  0  0  0  0  0  0
    0.7108   21.7062   37.6520 H   0  0  0  0  0  0  0  0  0  0  0  0
    3.0655   16.8259   39.7297 H   0  0  0  0  0  0  0  0  0  0  0  0
    2.9481   16.6634   37.9885 H   0  0  0  0  0  0  0  0  0  0  0  0
    0.8058   22.3039   39.5722 H   0  0  0  0  0  0  0  0  0  0  0  0
    3.1975   20.4997   37.0001 H   0  0  0  0  0  0  0  0  0  0  0  0
    3.3691   23.2464   32.7561 H   0  0  0  0  0  0  0  0  0  0  0  0
    2.0012   23.0454   31.6093 H   0  0  0  0  0  0  0  0  0  0  0  0
    3.0750   24.4800   31.4839 H   0  0  0  0  0  0  0  0  0  0  0  0
    4.3292   11.4967   41.0537 H   0  0  0  0  0  0  0  0  0  0  0  0
   -0.3940   27.7500   30.3463 H   0  0  0  0  0  0  0  0  0  0  0  0
    5.5379   17.0714   37.8213 H   0  0  0  0  0  0  0  0  0  0  0  0
    5.6166   17.1766   39.5966 H   0  0  0  0  0  0  0  0  0  0  0  0
    3.5507   14.2140   36.9500 H   0  0  0  0  0  0  0  0  0  0  0  0
    4.6194   19.0233   38.9201 H   0  0  0  0  0  0  0  0  0  0  0  0
    3.1756   18.8746   37.6553 H   0  0  0  0  0  0  0  0  0  0  0  0
    0.0497   27.0157   35.1968 H   0  0  0  0  0  0  0  0  0  0  0  0
    1.3901   25.8386   34.9870 H   0  0  0  0  0  0  0  0  0  0  0  0
    1.6951   27.5952   34.7687 H   0  0  0  0  0  0  0  0  0  0  0  0
    1.2805   21.5407   42.0685 H   0  0  0  0  0  0  0  0  0  0  0  0
   -1.8406   29.7103   34.1703 H   0  0  0  0  0  0  0  0  0  0  0  0
   -2.0198   27.8385   34.4775 H   0  0  0  0  0  0  0  0  0  0  0  0
    0.8606   23.8970   32.7859 H   0  0  0  0  0  0  0  0  0  0  0  0
    1.6687   11.1440   37.0955 H   0  0  0  0  0  0  0  0  0  0  0  0
    5.0941   13.8512   40.9512 H   0  0  0  0  0  0  0  0  0  0  0  0
    1.1480   23.5493   36.7102 H   0  0  0  0  0  0  0  0  0  0  0  0
    2.9193   22.9732   36.9698 H   0  0  0  0  0  0  0  0  0  0  0  0
    1.1100   25.4077   30.1901 H   0  0  0  0  0  0  0  0  0  0  0  0
   -0.2786   29.4262   32.7777 H   0  0  0  0  0  0  0  0  0  0  0  0
    3.0667   22.4538   34.6734 H   0  0  0  0  0  0  0  0  0  0  0  0
    0.7122   24.3918   34.9301 H   0  0  0  0  0  0  0  0  0  0  0  0
    2.9655   10.5843   38.9627 H   0  0  0  0  0  0  0  0  0  0  0  0
  1  6  1  0
  2 15  1  0
  3 21  1  0
  3  5  2  0
  4 17  2  0
  5 16  1  0
  6  8  1  0
  8 20  2  0
  8  4  1  0
  9 17  1  0
 10 24  1  0
 11 19  1  0
 12 14  2  0
 12 30  1  0
 13  2  1  0
 14 23  1  0
 15 20  1  0
 19  5  1  0
 19 27  1  0
 20  9  1  0
 21  7  1  0
 21 29  1  0
 22 12  1  0
 23 24  2  0
 25  1  1  0
 26 11  2  0
 26  3  1  0
 27 18  2  3
 28 25  1  0
 29 28  2  3
 30 10  2  0
 31 13  1  0
 31 23  1  0
  1 32  1  0
  1 33  1  0
  2 34  1  0
  2 35  1  0
  4 36  1  0
  6 37  1  0
  7 38  1  0
  7 39  1  0
  7 40  1  0
 10 41  1  0
 11 42  1  0
 13 43  1  0
 13 44  1  0
 14 45  1  0
 15 46  1  0
 15 47  1  0
 16 48  1  0
 16 49  1  0
 16 50  1  0
 17 51  1  0
 18 52  1  0
 18 53  1  0
 21 54  1  6
 22 55  1  0
 24 56  1  0
 25 57  1  0
 25 58  1  0
 26 59  1  0
 27 60  1  0
 28 61  1  0
 29 62  1  0
 30 63  1  0
M  END
>  <mol_id>  (3) 
2026-09-16-6tgu-s0-n100-0003

>  <rmsd_to_ref>  (3) 


$$$$

     RDKit          3D

 37 35  0  0  0  0  0  0  0  0999 V2000
    3.9302   20.9653   35.1877 O   0  0  0  0  0  0  0  0  0  0  0  0
    2.8001   15.7146   37.5859 C   0  0  0  0  0  0  0  0  0  0  0  0
    3.1176   24.7128   31.4113 O   0  0  0  0  0  0  0  0  0  0  0  0
    2.1547   20.6846   40.1874 C   0  0  0  0  0  0  0  0  0  0  0  0
    2.8665   16.4889   39.8592 O   0  0  0  0  0  0  0  0  0  0  0  0
    3.6150   17.8592   38.2011 N   0  0  0  0  0  0  0  0  0  0  0  0
    4.3733   23.4544   33.6572 O   0  0  0  0  0  0  0  0  0  0  0  0
    2.5411   19.9860   38.8959 C   0  0  0  0  0  0  0  0  0  0  0  0
    1.2741   25.3933   32.7783 C   0  0  0  0  0  0  0  0  0  0  0  0
    2.9021   21.4938   34.3965 C   0  0  0  0  0  0  0  0  0  0  0  0
    3.6807   19.0772   38.8700 C   0  0  0  0  0  0  0  0  0  0  0  0
    4.5791   19.2856   39.7234 O   0  0  0  0  0  0  0  0  0  0  0  0
    3.0849   16.6584   38.6759 C   0  0  0  0  0  0  0  0  0  0  0  0
    2.6067   24.7385   32.6460 C   0  0  1  0  0  0  0  0  0  0  0  0
    0.5516   25.6487   31.6548 O   0  0  0  0  0  0  0  0  0  0  0  0
    2.6956   23.1109   34.7927 C   0  0  0  0  0  0  0  0  0  0  0  0
    2.4922   14.4708   37.9299 O   0  0  0  0  0  0  0  0  0  0  0  0
    3.0005   23.8582   33.6743 C   0  0  2  0  0  0  0  0  0  0  0  0
    0.7347   25.5828   33.8541 O   0  0  0  0  0  0  0  0  0  0  0  0
    3.7389   21.1468   36.1419 H   0  0  0  0  0  0  0  0  0  0  0  0
    3.6924   15.6701   36.9442 H   0  0  0  0  0  0  0  0  0  0  0  0
    1.8961   16.1075   37.0975 H   0  0  0  0  0  0  0  0  0  0  0  0
    4.1060   24.6886   31.4635 H   0  0  0  0  0  0  0  0  0  0  0  0
    2.6495   20.1880   41.0351 H   0  0  0  0  0  0  0  0  0  0  0  0
    2.4709   21.7372   40.1436 H   0  0  0  0  0  0  0  0  0  0  0  0
    1.0638   20.6346   40.3191 H   0  0  0  0  0  0  0  0  0  0  0  0
    4.0016   17.8415   37.2465 H   0  0  0  0  0  0  0  0  0  0  0  0
    4.7112   23.3945   34.5858 H   0  0  0  0  0  0  0  0  0  0  0  0
    2.7477   20.7750   38.1579 H   0  0  0  0  0  0  0  0  0  0  0  0
    1.6852   19.3228   38.7021 H   0  0  0  0  0  0  0  0  0  0  0  0
    1.9686   20.9440   34.5869 H   0  0  0  0  0  0  0  0  0  0  0  0
    3.1620   21.3990   33.3319 H   0  0  0  0  0  0  0  0  0  0  0  0
    3.3884   25.4260   33.0015 H   0  0  0  0  0  0  0  0  0  0  0  0
    1.6530   23.2931   35.0924 H   0  0  0  0  0  0  0  0  0  0  0  0
    3.3498   23.3888   35.6322 H   0  0  0  0  0  0  0  0  0  0  0  0
    2.5782   14.3689   38.9109 H   0  0  0  0  0  0  0  0  0  0  0  0
    2.7398   22.9991   33.0387 H   0  0  0  0  0  0  0  0  0  0  0  0
  2 17  1  0
  2 13  1  0
  6 13  1  0
  6 11  1  0
  8 11  1  0
  8  4  1  0
  9 14  1  0
  9 19  1  0
 10 16  1  0
 10  1  1  0
 11 12  2  0
 13  5  2  0
 14  3  1  0
 14 18  1  0
 15  9  2  0
 18  7  1  0
 18 16  1  0
  1 20  1  0
  2 21  1  0
  2 22  1  0
  3 23  1  0
  4 24  1  0
  4 25  1  0
  4 26  1  0
  6 27  1  0
  7 28  1  0
  8 29  1  0
  8 30  1  0
 10 31  1  0
 10 32  1  0
 14 33  1  1
 16 34  1  0
 16 35  1  0
 17 36  1  0
 18 37  1  6
M  CHG  1  19  -1
M  END
>  <mol_id>  (4) 
2026-09-16-6tgu-s0-n100-0004

>  <rmsd_to_ref>  (4) 


$$$$

     RDKit          3D

 62 62  0  0  0  0  0  0  0  0999 V2000
    1.7862   21.3230   41.7796 C   0  0  0  0  0  0  0  0  0  0  0  0
    2.6152   22.0712   34.9008 C   0  0  0  0  0  0  0  0  0  0  0  0
    2.6959   17.5708   39.5119 N   0  0  0  0  0  0  0  0  0  0  0  0
    2.8193   18.7381   38.9120 C   0  0  0  0  0  0  0  0  0  0  0  0
    2.7645   21.0834   37.3265 C   0  0  0  0  0  0  0  0  0  0  0  0
    2.9882   15.2603   38.4865 C   0  0  0  0  0  0  0  0  0  0  0  0
    3.2792   14.1736   37.5429 C   0  0  0  0  0  0  0  0  0  0  0  0
    3.3606   28.2144   29.9686 C   0  0  0  0  0  0  0  0  0  0  0  0
    4.2013   14.6475   36.4749 O   0  0  0  0  0  0  0  0  0  0  0  0
    2.3559   20.0563   39.6952 C   0  0  0  0  0  0  0  0  0  0  0  0
    3.1266   16.8412   38.3298 N   0  0  0  0  0  0  0  0  0  0  0  0
    1.9991   25.5574   31.1018 C   0  0  0  0  0  0  0  0  0  0  0  0
    3.1245   18.8625   37.4908 C   0  0  0  0  0  0  0  0  0  0  0  0
    1.9929   19.9368   41.1827 C   0  0  0  0  0  0  0  0  0  0  0  0
    4.2556   27.0213   29.3374 C   0  0  0  0  0  0  0  0  0  0  0  0
    2.6026   22.3206   36.4371 C   0  0  0  0  0  0  0  0  0  0  0  0
    3.2535   19.8968   36.7693 N   0  0  0  0  0  0  0  0  0  0  0  0
    3.3079   24.8501   30.5763 C   0  0  0  0  0  0  0  0  0  0  0  0
    2.4116   21.2489   38.8332 C   0  0  0  0  0  0  0  0  0  0  0  0
    2.1185   15.8804   41.3014 C   0  0  0  0  0  0  0  0  0  0  0  0
    4.1735   23.6326   30.5568 C   0  0  0  0  0  0  0  0  0  0  0  0
    2.2048   17.0061   40.5986 C   0  0  0  0  0  0  0  0  0  0  0  0
    2.4729   28.0962   31.4926 C   0  0  0  0  0  0  0  0  0  0  0  0
    1.9758   26.7373   32.2097 C   0  0  0  0  0  0  0  0  0  0  0  0
    3.9200   25.5063   29.3040 C   0  0  0  0  0  0  0  0  0  0  0  0
    2.0414   21.3034   42.8494 H   0  0  0  0  0  0  0  0  0  0  0  0
    2.4337   22.0456   41.2615 H   0  0  0  0  0  0  0  0  0  0  0  0
    0.7343   21.6211   41.6590 H   0  0  0  0  0  0  0  0  0  0  0  0
    3.6522   21.9353   34.5599 H   0  0  0  0  0  0  0  0  0  0  0  0
    2.0322   21.1670   34.6713 H   0  0  0  0  0  0  0  0  0  0  0  0
    2.1700   22.9351   34.3855 H   0  0  0  0  0  0  0  0  0  0  0  0
    3.6130   15.0256   39.3608 H   0  0  0  0  0  0  0  0  0  0  0  0
    1.8915   15.2116   38.4170 H   0  0  0  0  0  0  0  0  0  0  0  0
    3.7495   13.3396   38.0842 H   0  0  0  0  0  0  0  0  0  0  0  0
    2.3383   13.8409   37.0803 H   0  0  0  0  0  0  0  0  0  0  0  0
    2.6070   28.4557   29.2045 H   0  0  0  0  0  0  0  0  0  0  0  0
    4.1444   28.9357   30.2432 H   0  0  0  0  0  0  0  0  0  0  0  0
    4.9813   15.0963   36.8877 H   0  0  0  0  0  0  0  0  0  0  0  0
    4.1146   17.0673   38.1467 H   0  0  0  0  0  0  0  0  0  0  0  0
    1.3733   24.7522   31.5143 H   0  0  0  0  0  0  0  0  0  0  0  0
    1.6949   26.1153   30.2039 H   0  0  0  0  0  0  0  0  0  0  0  0
    3.2648   17.9083   36.9619 H   0  0  0  0  0  0  0  0  0  0  0  0
    1.0660   19.3533   41.2861 H   0  0  0  0  0  0  0  0  0  0  0  0
    2.8119   19.4317   41.7157 H   0  0  0  0  0  0  0  0  0  0  0  0
    4.3946   27.3018   28.2828 H   0  0  0  0  0  0  0  0  0  0  0  0
    5.0654   27.0017   30.0815 H   0  0  0  0  0  0  0  0  0  0  0  0
    3.4256   23.0118   36.6713 H   0  0  0  0  0  0  0  0  0  0  0  0
    1.6007   22.7149   36.6623 H   0  0  0  0  0  0  0  0  0  0  0  0
    3.0055   24.7343   31.6276 H   0  0  0  0  0  0  0  0  0  0  0  0
    2.2059   22.2461   39.2497 H   0  0  0  0  0  0  0  0  0  0  0  0
    1.5498   15.8619   42.2428 H   0  0  0  0  0  0  0  0  0  0  0  0
    2.6158   14.9676   40.9412 H   0  0  0  0  0  0  0  0  0  0  0  0
    4.5951   23.4664   31.5591 H   0  0  0  0  0  0  0  0  0  0  0  0
    3.5720   22.7597   30.2628 H   0  0  0  0  0  0  0  0  0  0  0  0
    4.9905   23.7751   29.8343 H   0  0  0  0  0  0  0  0  0  0  0  0
    1.6388   17.7769   41.1422 H   0  0  0  0  0  0  0  0  0  0  0  0
    3.1124   28.5947   32.2359 H   0  0  0  0  0  0  0  0  0  0  0  0
    1.5013   28.4988   31.1701 H   0  0  0  0  0  0  0  0  0  0  0  0
    0.9539   26.8693   32.5945 H   0  0  0  0  0  0  0  0  0  0  0  0
    2.6341   26.4850   33.0541 H   0  0  0  0  0  0  0  0  0  0  0  0
    3.2047   25.3508   28.4829 H   0  0  0  0  0  0  0  0  0  0  0  0
    4.8992   25.0172   29.1947 H   0  0  0  0  0  0  0  0  0  0  0  0
  2 16  1  0
  3 22  1  0
  4  3  1  0
  4 10  2  0
  5 19  2  0
  6 11  1  0
  7  6  1  0
  8 23  1  0
  9  7  1  0
 10 14  1  0
 11  3  1  0
 12 24  1  0
 13  4  1  0
 14  1  1  0
 15  8  1  0
 16  5  1  0
 17 13  2  0
 17  5  1  0
 18 12  1  0
 19 10  1  0
 21 18  1  0
 22 20  2  3
 23 24  1  0
 25 15  1  0
 25 18  1  0
  1 26  1  0
  1 27  1  0
  1 28  1  0
  2 29  1  0
  2 30  1  0
  2 31  1  0
  6 32  1  0
  6 33  1  0
  7 34  1  0
  7 35  1  0
  8 36  1  0
  8 37  1  0
  9 38  1  0
 11 39  1  0
 12 40  1  0
 12 41  1  0
 13 42  1  0
 14 43  1  0
 14 44  1  0
 15 45  1  0
 15 46  1  0
 16 47  1  0
 16 48  1  0
 18 49  1  0
 19 50  1  0
 20 51  1  0
 20 52  1  0
 21 53  1  0
 21 54  1  0
 21 55  1  0
 22 56  1  0
 23 57  1  0
 23 58  1  0
 24 59  1  0
 24 60  1  0
 25 61  1  0
 25 62  1  0
M  END
>  <mol_id>  (5) 
2026-09-16-6tgu-s0-n100-0005

>  <rmsd_to_ref>  (5) 


$$$$

     RDKit          3D

 39 39  0  0  0  0  0  0  0  0999 V2000
    1.6380   19.9483   38.5521 C   0  0  0  0  0  0  0  0  0  0  0  0
    2.0399   24.0640   33.3224 C   0  0  0  0  0  0  0  0  0  0  0  0
    3.6519   21.2957   37.1421 C   0  0  0  0  0  0  0  0  0  0  0  0
    1.1147   17.5831   40.8120 C   0  0  0  0  0  0  0  0  0  0  0  0
   -0.0098   17.2710   41.3837 C   0  0  0  0  0  0  0  0  0  0  0  0
    2.1972   20.9791   37.5296 C   0  0  0  0  0  0  0  0  0  0  0  0
    0.0183   15.9147   42.0493 C   0  0  0  0  0  0  0  0  0  0  0  0
    0.7684   18.9977   40.4617 C   0  0  0  0  0  0  0  0  0  0  0  0
    3.3517   22.3310   34.6385 C   0  0  2  0  0  0  0  0  0  0  0  0
    2.0812   22.3021   35.1400 O   0  0  0  0  0  0  0  0  0  0  0  0
    4.4159   22.1304   35.9964 C   0  0  0  0  0  0  0  0  0  0  0  0
    2.2899   16.8008   40.8005 C   0  0  0  0  0  0  0  0  0  0  0  0
    2.1166   19.1358   39.6074 C   0  0  2  0  0  0  0  0  0  0  0  0
    3.3999   18.8062   40.1273 O   0  0  0  0  0  0  0  0  0  0  0  0
    3.3227   23.6024   33.8632 C   0  0  0  0  0  0  0  0  0  0  0  0
    2.1668   15.5367   41.4512 C   0  0  0  0  0  0  0  0  0  0  0  0
    1.0581   15.0652   42.0787 C   0  0  0  0  0  0  0  0  0  0  0  0
    3.8723   16.8017   40.2830 F   0  0  0  0  0  0  0  0  0  0  0  0
    0.5553   19.8111   38.4148 H   0  0  0  0  0  0  0  0  0  0  0  0
    1.2578   23.9522   34.0878 H   0  0  0  0  0  0  0  0  0  0  0  0
    2.1228   25.1224   33.0347 H   0  0  0  0  0  0  0  0  0  0  0  0
    1.7769   23.4634   32.4391 H   0  0  0  0  0  0  0  0  0  0  0  0
    4.0415   21.7557   38.0622 H   0  0  0  0  0  0  0  0  0  0  0  0
    3.8068   20.3278   36.6430 H   0  0  0  0  0  0  0  0  0  0  0  0
   -0.8924   17.9275   41.3832 H   0  0  0  0  0  0  0  0  0  0  0  0
    1.4354   21.5725   37.0028 H   0  0  0  0  0  0  0  0  0  0  0  0
   -0.9016   15.5920   42.5588 H   0  0  0  0  0  0  0  0  0  0  0  0
   -0.1504   19.0978   39.8652 H   0  0  0  0  0  0  0  0  0  0  0  0
    0.5438   19.7231   41.2575 H   0  0  0  0  0  0  0  0  0  0  0  0
    3.7181   21.5509   33.9548 H   0  0  0  0  0  0  0  0  0  0  0  0
    2.1092   22.0432   36.0952 H   0  0  0  0  0  0  0  0  0  0  0  0
    5.3172   21.5843   35.6812 H   0  0  0  0  0  0  0  0  0  0  0  0
    4.7092   23.1158   36.3874 H   0  0  0  0  0  0  0  0  0  0  0  0
    2.8665   18.4444   39.1953 H   0  0  0  0  0  0  0  0  0  0  0  0
    3.3114   18.5296   41.0737 H   0  0  0  0  0  0  0  0  0  0  0  0
    4.0083   23.4791   33.0119 H   0  0  0  0  0  0  0  0  0  0  0  0
    3.5970   24.3725   34.5992 H   0  0  0  0  0  0  0  0  0  0  0  0
    3.0518   14.8835   41.4440 H   0  0  0  0  0  0  0  0  0  0  0  0
    1.0159   14.0796   42.5654 H   0  0  0  0  0  0  0  0  0  0  0  0
  1 13  1  0
  3  6  1  0
  4  5  2  0
  5  7  1  0
  6  1  2  3
  8  4  1  0
  9 11  1  0
  9 10  1  0
 11  3  1  0
 12  4  1  0
 12 16  2  0
 13 14  1  0
 13  8  1  0
 15  2  1  0
 15  9  1  0
 16 17  1  0
 17  7  2  0
 18 12  1  0
  1 19  1  0
  2 20  1  0
  2 21  1  0
  2 22  1  0
  3 23  1  0
  3 24  1  0
  5 25  1  0
  6 26  1  0
  7 27  1  0
  8 28  1  0
  8 29  1  0
  9 30  1  6
 10 31  1  0
 11 32  1  0
 11 33  1  0
 13 34  1  6
 14 35  1  0
 15 36  1  0
 15 37  1  0
 16 38  1  0
 17 39  1  0
M  END
>  <mol_id>  (6) 
2026-09-16-6tgu-s0-n100-0006

>  <rmsd_to_ref>  (6) 


$$$$

     RDKit          3D

 62 62  0  0  0  0  0  0  0  0999 V2000
    2.3569   26.2022   34.7150 C   0  0  0  0  0  0  0  0  0  0  0  0
   -0.3173   15.6014   44.8048 C   0  0  0  0  0  0  0  0  0  0  0  0
    1.4800   27.5299   34.4804 C   0  0  0  0  0  0  0  0  0  0  0  0
    1.0728   17.4764   42.8983 C   0  0  0  0  0  0  0  0  0  0  0  0
    2.8441   24.0372   34.0989 O   0  0  0  0  0  0  0  0  0  0  0  0
    3.1548   17.9106   38.4743 C   0  0  0  0  0  0  0  0  0  0  0  0
    0.0516   19.2341   44.1268 O   0  0  0  0  0  0  0  0  0  0  0  0
   -0.3066   16.9409   44.8074 C   0  0  0  0  0  0  0  0  0  0  0  0
    1.0793   23.7577   35.6674 C   0  0  0  0  0  0  0  0  0  0  0  0
    3.0565   21.0196   35.5948 C   0  0  0  0  0  0  0  0  0  0  0  0
    1.5126   16.2958   42.3860 C   0  0  0  0  0  0  0  0  0  0  0  0
    1.1287   15.0427   42.8824 C   0  0  0  0  0  0  0  0  0  0  0  0
   -0.8182   19.7480   43.1308 C   0  0  0  0  0  0  0  0  0  0  0  0
    2.9086   17.6444   40.9515 C   0  0  0  0  0  0  0  0  0  0  0  0
    1.6248   13.9127   42.2593 F   0  0  0  0  0  0  0  0  0  0  0  0
    2.6675   19.3253   38.7779 C   0  0  0  0  0  0  0  0  0  0  0  0
    2.3323   16.3672   41.3275 O   0  0  0  0  0  0  0  0  0  0  0  0
    0.2610   17.8476   43.9205 C   0  0  0  0  0  0  0  0  0  0  0  0
    2.8000   22.0821   35.3089 C   0  0  0  0  0  0  0  0  0  0  0  0
    2.1745   25.3304   32.1845 C   0  0  0  0  0  0  0  0  0  0  0  0
    1.9616   25.0438   33.6036 C   0  0  0  0  0  0  0  0  0  0  0  0
    2.4315   23.3846   35.1032 C   0  0  1  0  0  0  0  0  0  0  0  0
    1.2307   24.6415   31.2945 C   0  0  0  0  0  0  0  0  0  0  0  0
    3.7024   17.3148   39.6815 C   0  0  0  0  0  0  0  0  0  0  0  0
    2.5313   20.1562   37.6234 C   0  0  0  0  0  0  0  0  0  0  0  0
    0.2806   14.6882   43.9154 C   0  0  0  0  0  0  0  0  0  0  0  0
    3.2100   19.9224   36.4782 C   0  0  0  0  0  0  0  0  0  0  0  0
    3.4238   26.4505   34.6152 H   0  0  0  0  0  0  0  0  0  0  0  0
    2.1510   25.8131   35.7231 H   0  0  0  0  0  0  0  0  0  0  0  0
   -0.8832   15.1418   45.6285 H   0  0  0  0  0  0  0  0  0  0  0  0
    1.2399   27.9872   35.4515 H   0  0  0  0  0  0  0  0  0  0  0  0
    2.0523   28.2443   33.8703 H   0  0  0  0  0  0  0  0  0  0  0  0
    0.5481   27.2665   33.9588 H   0  0  0  0  0  0  0  0  0  0  0  0
    1.4730   18.3421   42.3502 H   0  0  0  0  0  0  0  0  0  0  0  0
    2.3117   17.3019   38.1155 H   0  0  0  0  0  0  0  0  0  0  0  0
    3.9351   17.9509   37.7000 H   0  0  0  0  0  0  0  0  0  0  0  0
   -1.3723   17.2134   44.8173 H   0  0  0  0  0  0  0  0  0  0  0  0
    0.4244   17.0693   45.6192 H   0  0  0  0  0  0  0  0  0  0  0  0
    1.0925   23.6381   36.7608 H   0  0  0  0  0  0  0  0  0  0  0  0
    0.8531   24.8044   35.4157 H   0  0  0  0  0  0  0  0  0  0  0  0
    0.3084   23.1022   35.2361 H   0  0  0  0  0  0  0  0  0  0  0  0
   -1.7171   20.1648   43.6086 H   0  0  0  0  0  0  0  0  0  0  0  0
   -0.3026   20.5391   42.5665 H   0  0  0  0  0  0  0  0  0  0  0  0
   -1.1092   18.9387   42.4450 H   0  0  0  0  0  0  0  0  0  0  0  0
    2.1224   18.3851   40.7434 H   0  0  0  0  0  0  0  0  0  0  0  0
    3.5302   18.0856   41.7445 H   0  0  0  0  0  0  0  0  0  0  0  0
    1.6863   19.2544   39.2700 H   0  0  0  0  0  0  0  0  0  0  0  0
    3.4309   19.7931   39.4169 H   0  0  0  0  0  0  0  0  0  0  0  0
    2.0697   26.4144   32.0296 H   0  0  0  0  0  0  0  0  0  0  0  0
    3.1806   24.9653   31.9305 H   0  0  0  0  0  0  0  0  0  0  0  0
    0.8824   24.8381   33.5503 H   0  0  0  0  0  0  0  0  0  0  0  0
    3.1716   23.8525   35.7690 H   0  0  0  0  0  0  0  0  0  0  0  0
    0.6757   23.8825   31.8654 H   0  0  0  0  0  0  0  0  0  0  0  0
    0.5245   25.3719   30.8728 H   0  0  0  0  0  0  0  0  0  0  0  0
    1.7849   24.1542   30.4788 H   0  0  0  0  0  0  0  0  0  0  0  0
    3.7142   16.2223   39.5541 H   0  0  0  0  0  0  0  0  0  0  0  0
    4.7100   17.7348   39.8164 H   0  0  0  0  0  0  0  0  0  0  0  0
    1.4645   20.1360   37.3562 H   0  0  0  0  0  0  0  0  0  0  0  0
    2.9849   21.0975   37.9672 H   0  0  0  0  0  0  0  0  0  0  0  0
    0.0578   13.6197   44.0516 H   0  0  0  0  0  0  0  0  0  0  0  0
    2.8179   19.0121   36.0010 H   0  0  0  0  0  0  0  0  0  0  0  0
    4.2771   19.7901   36.7098 H   0  0  0  0  0  0  0  0  0  0  0  0
  3  1  1  0
  4 18  2  0
  5 22  1  0
  6 16  1  0
  6 24  1  0
  7 18  1  0
  8  2  1  0
 10 27  1  0
 11  4  1  0
 11 12  2  0
 12 26  1  0
 13  7  1  0
 14 17  1  0
 15 12  1  0
 17 11  1  0
 18  8  1  0
 19 10  3  0
 20 21  1  0
 21  5  1  0
 21  1  1  0
 22  9  1  0
 22 19  1  0
 23 20  1  0
 24 14  1  0
 25 16  1  0
 26  2  2  0
 27 25  1  0
  1 28  1  0
  1 29  1  0
  2 30  1  0
  3 31  1  0
  3 32  1  0
  3 33  1  0
  4 34  1  0
  6 35  1  0
  6 36  1  0
  8 37  1  0
  8 38  1  0
  9 39  1  0
  9 40  1  0
  9 41  1  0
 13 42  1  0
 13 43  1  0
 13 44  1  0
 14 45  1  0
 14 46  1  0
 16 47  1  0
 16 48  1  0
 20 49  1  0
 20 50  1  0
 21 51  1  0
 22 52  1  1
 23 53  1  0
 23 54  1  0
 23 55  1  0
 24 56  1  0
 24 57  1  0
 25 58  1  0
 25 59  1  0
 26 60  1  0
 27 61  1  0
 27 62  1  0
M  END
>  <mol_id>  (7) 
2026-09-16-6tgu-s0-n100-0007

>  <rmsd_to_ref>  (7) 


$$$$

     RDKit          3D

 72 74  0  0  0  0  0  0  0  0999 V2000
    2.0252   19.3406   41.4136 C   0  0  0  0  0  0  0  0  0  0  0  0
    2.9074   18.5637   40.5795 C   0  0  1  0  0  0  0  0  0  0  0  0
    4.9506   23.9104   33.7743 O   0  0  0  0  0  0  0  0  0  0  0  0
    1.5542   24.8822   34.5788 C   0  0  0  0  0  0  0  0  0  0  0  0
    2.9709   17.0586   40.5985 S   0  0  0  0  0  0  0  0  0  0  0  0
    2.7152   20.2677   38.6079 C   0  0  0  0  0  0  0  0  0  0  0  0
    3.9382   12.9483   36.4970 O   0  0  0  0  0  0  0  0  0  0  0  0
   -1.2739   18.6492   45.2204 C   0  0  0  0  0  0  0  0  0  0  0  0
   -0.2479   17.6352   43.2955 C   0  0  0  0  0  0  0  0  0  0  0  0
   -0.5411   17.5525   44.6927 C   0  0  0  0  0  0  0  0  0  0  0  0
    2.1776   25.6182   32.3737 C   0  0  0  0  0  0  0  0  0  0  0  0
    4.0619   15.2782   39.1609 C   0  0  2  0  0  0  0  0  0  0  0  0
    5.5351   13.7707   38.1638 C   0  0  2  0  0  0  0  0  0  0  0  0
    6.1537   16.0957   38.2689 O   0  0  0  0  0  0  0  0  0  0  0  0
    2.7637   24.1340   34.6810 C   0  0  0  0  0  0  0  0  0  0  0  0
   -0.7090   20.0625   43.4405 C   0  0  0  0  0  0  0  0  0  0  0  0
    4.3933   18.2889   37.6923 O   0  0  0  0  0  0  0  0  0  0  0  0
   -1.3134   19.8157   44.5887 N   0  0  0  0  0  0  0  0  0  0  0  0
    3.7666   16.7347   39.3597 N   0  0  0  0  0  0  0  0  0  0  0  0
    5.5056   15.0331   38.9639 C   0  0  1  0  0  0  0  0  0  0  0  0
    3.7083   24.3475   33.6716 C   0  0  0  0  0  0  0  0  0  0  0  0
    0.3131   27.6073   34.2333 C   0  0  0  0  0  0  0  0  0  0  0  0
    4.3862   25.1911   31.3572 C   0  0  0  0  0  0  0  0  0  0  0  0
    0.7155   18.9630   41.5769 C   0  0  0  0  0  0  0  0  0  0  0  0
    2.9443   23.2500   35.8275 C   0  0  0  0  0  0  0  0  0  0  0  0
    0.0190   19.0346   42.7627 C   0  0  0  0  0  0  0  0  0  0  0  0
    1.3023   25.6462   33.4611 C   0  0  0  0  0  0  0  0  0  0  0  0
    3.4438   19.2613   39.4367 C   0  0  2  0  0  0  0  0  0  0  0  0
    4.1745   13.6523   37.5668 C   0  0  1  0  0  0  0  0  0  0  0  0
    0.1246   26.4496   33.3816 N   0  0  0  0  0  0  0  0  0  0  0  0
    3.8030   22.0546   35.8801 C   0  0  0  0  0  0  0  0  0  0  0  0
    3.3879   25.0346   32.4677 C   0  0  0  0  0  0  0  0  0  0  0  0
    3.3112   14.7561   37.9634 C   0  0  0  0  0  0  0  0  0  0  0  0
    5.9435   12.6309   38.7788 O   0  0  0  0  0  0  0  0  0  0  0  0
    3.8521   18.1148   38.6386 C   0  0  0  0  0  0  0  0  0  0  0  0
    2.0110   20.3585   40.9969 H   0  0  0  0  0  0  0  0  0  0  0  0
    2.4506   19.2073   42.4192 H   0  0  0  0  0  0  0  0  0  0  0  0
    3.6764   18.4720   41.3607 H   0  0  0  0  0  0  0  0  0  0  0  0
    5.5962   24.0774   33.0425 H   0  0  0  0  0  0  0  0  0  0  0  0
    0.8191   24.8490   35.3965 H   0  0  0  0  0  0  0  0  0  0  0  0
    2.1191   20.9198   39.2630 H   0  0  0  0  0  0  0  0  0  0  0  0
    3.4408   20.8755   38.0474 H   0  0  0  0  0  0  0  0  0  0  0  0
    2.0492   19.7490   37.9027 H   0  0  0  0  0  0  0  0  0  0  0  0
    3.4434   12.1275   36.7448 H   0  0  0  0  0  0  0  0  0  0  0  0
   -1.8180   18.5294   46.1688 H   0  0  0  0  0  0  0  0  0  0  0  0
   -0.2174   16.7458   42.6491 H   0  0  0  0  0  0  0  0  0  0  0  0
   -0.2225   16.7021   45.3134 H   0  0  0  0  0  0  0  0  0  0  0  0
    1.8734   26.0810   31.4233 H   0  0  0  0  0  0  0  0  0  0  0  0
    3.7392   14.7527   40.0718 H   0  0  0  0  0  0  0  0  0  0  0  0
    6.3377   13.8649   37.4174 H   0  0  0  0  0  0  0  0  0  0  0  0
    6.4211   16.7973   38.9142 H   0  0  0  0  0  0  0  0  0  0  0  0
   -0.7662   21.0691   43.0008 H   0  0  0  0  0  0  0  0  0  0  0  0
    6.0456   14.9614   39.9194 H   0  0  0  0  0  0  0  0  0  0  0  0
    0.0973   27.3339   35.2767 H   0  0  0  0  0  0  0  0  0  0  0  0
    1.3533   27.9559   34.1532 H   0  0  0  0  0  0  0  0  0  0  0  0
   -0.3684   28.4105   33.9164 H   0  0  0  0  0  0  0  0  0  0  0  0
    5.3710   25.4368   31.7813 H   0  0  0  0  0  0  0  0  0  0  0  0
    4.4552   24.2505   30.7910 H   0  0  0  0  0  0  0  0  0  0  0  0
    4.0639   26.0004   30.6857 H   0  0  0  0  0  0  0  0  0  0  0  0
    0.1423   19.5716   40.8619 H   0  0  0  0  0  0  0  0  0  0  0  0
    0.8053   17.8727   41.4627 H   0  0  0  0  0  0  0  0  0  0  0  0
    3.3082   23.9004   36.6366 H   0  0  0  0  0  0  0  0  0  0  0  0
    1.9558   22.7677   35.8458 H   0  0  0  0  0  0  0  0  0  0  0  0
    4.1610   20.0011   39.8217 H   0  0  0  0  0  0  0  0  0  0  0  0
    3.7503   12.7449   38.0214 H   0  0  0  0  0  0  0  0  0  0  0  0
   -0.7122   26.2428   32.8178 H   0  0  0  0  0  0  0  0  0  0  0  0
    3.9226   21.7348   36.9258 H   0  0  0  0  0  0  0  0  0  0  0  0
    3.3386   21.2439   35.2995 H   0  0  0  0  0  0  0  0  0  0  0  0
    4.7890   22.2925   35.4543 H   0  0  0  0  0  0  0  0  0  0  0  0
    2.3047   14.4061   38.2364 H   0  0  0  0  0  0  0  0  0  0  0  0
    3.1311   15.5022   37.1753 H   0  0  0  0  0  0  0  0  0  0  0  0
    5.7963   12.7115   39.7545 H   0  0  0  0  0  0  0  0  0  0  0  0
  1 24  1  0
  2  1  1  0
  3 21  1  0
  5  2  1  0
  9 10  2  0
 10  8  1  0
 11 27  2  0
 12 33  1  0
 12 19  1  0
 13 34  1  0
 13 20  1  0
 15  4  2  0
 15 25  1  0
 16 18  1  0
 17 35  2  0
 18  8  2  0
 19  5  1  0
 20 14  1  0
 20 12  1  0
 21 15  1  0
 23 32  1  0
 24 26  1  0
 26  9  1  0
 26 16  2  0
 27 30  1  0
 27  4  1  0
 28  6  1  0
 28  2  1  0
 29  7  1  0
 29 13  1  0
 29 33  1  0
 30 22  1  0
 31 25  1  0
 32 11  1  0
 32 21  2  0
 35 19  1  0
 35 28  1  0
  1 36  1  0
  1 37  1  0
  2 38  1  1
  3 39  1  0
  4 40  1  0
  6 41  1  0
  6 42  1  0
  6 43  1  0
  7 44  1  0
  8 45  1  0
  9 46  1  0
 10 47  1  0
 11 48  1  0
 12 49  1  1
 13 50  1  6
 14 51  1  0
 16 52  1  0
 20 53  1  1
 22 54  1  0
 22 55  1  0
 22 56  1  0
 23 57  1  0
 23 58  1  0
 23 59  1  0
 24 60  1  0
 24 61  1  0
 25 62  1  0
 25 63  1  0
 28 64  1  1
 29 65  1  1
 30 66  1  0
 31 67  1  0
 31 68  1  0
 31 69  1  0
 33 70  1  0
 33 71  1  0
 34 72  1  0
M  END
>  <mol_id>  (8) 
2026-09-16-6tgu-s0-n100-0008

>  <rmsd_to_ref>  (8) 


$$$$

     RDKit          3D

 68 70  0  0  0  0  0  0  0  0999 V2000
    3.5430   15.5819   39.3805 N   0  0  0  0  0  0  0  0  0  0  0  0
   -0.0121   20.0012   41.5788 C   0  0  0  0  0  0  0  0  0  0  0  0
    2.2360   13.5480   36.1681 N   0  0  0  0  0  0  0  0  0  0  0  0
    2.1892   25.0369   34.9795 C   0  0  2  0  0  0  0  0  0  0  0  0
    0.9883   27.1367   35.2674 C   0  0  0  0  0  0  0  0  0  0  0  0
    4.8821   16.2648   39.3700 C   0  0  0  0  0  0  0  0  0  0  0  0
    2.2653   19.9161   39.3330 C   0  0  0  0  0  0  0  0  0  0  0  0
    0.8197   22.3272   36.7101 O   0  0  0  0  0  0  0  0  0  0  0  0
    1.0430   19.1497   41.4554 C   0  0  1  0  0  0  0  0  0  0  0  0
    2.2692   24.5993   36.3388 C   0  0  1  0  0  0  0  0  0  0  0  0
   -1.5073   20.6015   43.1658 C   0  0  0  0  0  0  0  0  0  0  0  0
    3.1490   23.2160   36.0675 C   0  0  0  0  0  0  0  0  0  0  0  0
    0.5413   25.6481   33.2162 C   0  0  0  0  0  0  0  0  0  0  0  0
    3.0507   25.5452   36.0123 O   0  0  0  0  0  0  0  0  0  0  0  0
    4.7751   13.4816   37.0464 C   0  0  0  0  0  0  0  0  0  0  0  0
   -0.5412   26.4769   32.9366 C   0  0  0  0  0  0  0  0  0  0  0  0
   -0.5896   20.0078   42.6311 C   0  0  1  0  0  0  0  0  0  0  0  0
    1.7616   15.6550   40.9360 O   0  0  0  0  0  0  0  0  0  0  0  0
    2.3970   16.2736   40.1323 C   0  0  0  0  0  0  0  0  0  0  0  0
    2.8808   20.8571   36.9037 S   0  0  0  0  0  0  0  0  0  0  0  0
    3.5167   12.8997   36.3821 C   0  0  0  0  0  0  0  0  0  0  0  0
    4.7695   13.4011   38.5925 C   0  0  0  0  0  0  0  0  0  0  0  0
   -0.1389   27.8661   34.8927 C   0  0  0  0  0  0  0  0  0  0  0  0
    3.5212   14.0630   39.1730 C   0  0  0  0  0  0  0  0  0  0  0  0
   -3.7753   19.9099   43.3302 O   0  0  0  0  0  0  0  0  0  0  0  0
    3.5304   11.6810   36.4643 O   0  0  0  0  0  0  0  0  0  0  0  0
   -0.9087   27.5095   33.7517 C   0  0  0  0  0  0  0  0  0  0  0  0
   -2.5566   19.6948   43.6129 C   0  0  0  0  0  0  0  0  0  0  0  0
    2.4789   17.6006   39.8867 N   0  0  0  0  0  0  0  0  0  0  0  0
    2.1505   22.2556   36.2842 C   0  0  0  0  0  0  0  0  0  0  0  0
    2.2208   20.0014   38.3499 C   0  0  0  0  0  0  0  0  0  0  0  0
   -2.3183   18.4610   44.4090 C   0  0  0  0  0  0  0  0  0  0  0  0
    0.2610   18.5880   42.7931 S   0  0  0  0  0  0  0  0  0  0  0  0
    1.2357   25.9581   34.5379 C   0  0  0  0  0  0  0  0  0  0  0  0
    1.6699   18.6190   40.3569 C   0  0  2  0  0  0  0  0  0  0  0  0
   -0.7437   19.7370   40.8010 H   0  0  0  0  0  0  0  0  0  0  0  0
    0.4223   21.0076   41.4865 H   0  0  0  0  0  0  0  0  0  0  0  0
    1.4709   13.0367   35.7055 H   0  0  0  0  0  0  0  0  0  0  0  0
    2.0922   14.5194   36.4789 H   0  0  0  0  0  0  0  0  0  0  0  0
    2.2088   24.5276   34.0048 H   0  0  0  0  0  0  0  0  0  0  0  0
    1.6467   27.4631   36.0860 H   0  0  0  0  0  0  0  0  0  0  0  0
    5.1361   16.5895   40.3898 H   0  0  0  0  0  0  0  0  0  0  0  0
    5.6482   15.5640   39.0068 H   0  0  0  0  0  0  0  0  0  0  0  0
    4.8419   17.1405   38.7056 H   0  0  0  0  0  0  0  0  0  0  0  0
    2.7553   20.7485   39.8594 H   0  0  0  0  0  0  0  0  0  0  0  0
    2.1253   19.2895   41.3169 H   0  0  0  0  0  0  0  0  0  0  0  0
    1.5902   24.4631   37.1935 H   0  0  0  0  0  0  0  0  0  0  0  0
   -1.9366   21.3142   42.4461 H   0  0  0  0  0  0  0  0  0  0  0  0
   -1.1074   21.1207   44.0493 H   0  0  0  0  0  0  0  0  0  0  0  0
    3.5411   23.1748   35.0406 H   0  0  0  0  0  0  0  0  0  0  0  0
    4.0473   23.1044   36.6925 H   0  0  0  0  0  0  0  0  0  0  0  0
    0.8671   24.8411   32.5435 H   0  0  0  0  0  0  0  0  0  0  0  0
    4.8612   14.5392   36.7561 H   0  0  0  0  0  0  0  0  0  0  0  0
    5.6251   12.8751   36.7006 H   0  0  0  0  0  0  0  0  0  0  0  0
   -1.1245   26.2929   32.0223 H   0  0  0  0  0  0  0  0  0  0  0  0
   -1.0604   20.7412   43.3023 H   0  0  0  0  0  0  0  0  0  0  0  0
    4.7905   12.3443   38.8973 H   0  0  0  0  0  0  0  0  0  0  0  0
    5.6551   13.9309   38.9733 H   0  0  0  0  0  0  0  0  0  0  0  0
   -0.4397   28.7373   35.4933 H   0  0  0  0  0  0  0  0  0  0  0  0
    2.6856   13.8375   38.4941 H   0  0  0  0  0  0  0  0  0  0  0  0
    3.4367   13.6480   40.1881 H   0  0  0  0  0  0  0  0  0  0  0  0
   -1.8212   28.0784   33.5200 H   0  0  0  0  0  0  0  0  0  0  0  0
    3.2472   17.8925   39.2659 H   0  0  0  0  0  0  0  0  0  0  0  0
    1.4645   19.2872   37.9922 H   0  0  0  0  0  0  0  0  0  0  0  0
   -2.5250   18.6638   45.4702 H   0  0  0  0  0  0  0  0  0  0  0  0
   -2.9831   17.6604   44.0524 H   0  0  0  0  0  0  0  0  0  0  0  0
   -1.2707   18.1464   44.2930 H   0  0  0  0  0  0  0  0  0  0  0  0
    0.8413   17.9286   40.5733 H   0  0  0  0  0  0  0  0  0  0  0  0
  1 19  1  0
  2 17  1  0
  4 34  1  0
  4 14  1  0
  4 10  1  0
  6  1  1  0
  9 35  1  0
  9  2  1  0
  9 33  1  0
 10 12  1  0
 11 28  1  0
 12 30  1  0
 13 34  2  0
 14 10  1  0
 15 22  1  0
 16 13  1  0
 16 27  2  0
 17 11  1  0
 19 18  2  0
 20 31  1  0
 21  3  1  0
 21 15  1  0
 22 24  1  0
 23  5  2  0
 24  1  1  0
 25 28  2  0
 26 21  2  0
 27 23  1  0
 28 32  1  0
 29 19  1  0
 29 35  1  0
 30 20  1  0
 30  8  2  0
 31  7  2  3
 33 17  1  0
 34  5  1  0
 35  7  1  0
  2 36  1  0
  2 37  1  0
  3 38  1  0
  3 39  1  0
  4 40  1  6
  5 41  1  0
  6 42  1  0
  6 43  1  0
  6 44  1  0
  7 45  1  0
  9 46  1  1
 10 47  1  1
 11 48  1  0
 11 49  1  0
 12 50  1  0
 12 51  1  0
 13 52  1  0
 15 53  1  0
 15 54  1  0
 16 55  1  0
 17 56  1  1
 22 57  1  0
 22 58  1  0
 23 59  1  0
 24 60  1  0
 24 61  1  0
 27 62  1  0
 29 63  1  0
 31 64  1  0
 32 65  1  0
 32 66  1  0
 32 67  1  0
 35 68  1  6
M  END
>  <mol_id>  (9) 
2026-09-16-6tgu-s0-n100-0009

>  <rmsd_to_ref>  (9) 


$$$$

     RDKit          3D

 49 50  0  0  0  0  0  0  0  0999 V2000
    1.5918   25.8690   32.1023 C   0  0  0  0  0  0  0  0  0  0  0  0
    2.6595   23.7067   33.8478 C   0  0  0  0  0  0  0  0  0  0  0  0
    4.1601   18.3910   36.2848 O   0  0  0  0  0  0  0  0  0  0  0  0
    1.2667   24.2729   34.0397 C   0  0  0  0  0  0  0  0  0  0  0  0
    3.0076   20.5362   36.8605 N   0  0  0  0  0  0  0  0  0  0  0  0
    1.0107   25.5681   33.3701 C   0  0  1  0  0  0  0  0  0  0  0  0
    0.3978   26.6611   34.0668 C   0  0  0  0  0  0  0  0  0  0  0  0
    1.2629   27.1162   31.4128 C   0  0  0  0  0  0  0  0  0  0  0  0
    2.7475   18.6019   38.6430 C   0  0  0  0  0  0  0  0  0  0  0  0
    1.3569   19.0033   40.4813 C   0  0  0  0  0  0  0  0  0  0  0  0
    1.7969   21.8544   35.1823 C   0  0  0  0  0  0  0  0  0  0  0  0
    4.9660   19.5388   38.2801 O   0  0  0  0  0  0  0  0  0  0  0  0
    2.1906   20.4423   35.6346 C   0  0  0  0  0  0  0  0  0  0  0  0
   -0.4451   27.5395   33.2015 C   0  0  0  0  0  0  0  0  0  0  0  0
    0.3284   28.0948   32.0602 C   0  0  0  0  0  0  0  0  0  0  0  0
    3.8617   19.3188   37.4365 S   0  0  0  0  0  6  0  0  0  0  0  0
    2.5538   17.2311   38.3934 C   0  0  0  0  0  0  0  0  0  0  0  0
    1.0017   16.6148   40.1289 C   0  0  0  0  0  0  0  0  0  0  0  0
    2.6559   22.2239   34.0566 C   0  0  0  0  0  0  0  0  0  0  0  0
    0.7702   17.8028   40.6759 C   0  0  0  0  0  0  0  0  0  0  0  0
    2.3058   19.4402   39.5048 C   0  0  0  0  0  0  0  0  0  0  0  0
    1.7570   16.3515   39.0753 C   0  0  0  0  0  0  0  0  0  0  0  0
    2.2923   25.1578   31.6401 H   0  0  0  0  0  0  0  0  0  0  0  0
    3.3428   24.1728   34.5730 H   0  0  0  0  0  0  0  0  0  0  0  0
    2.9925   23.9208   32.8215 H   0  0  0  0  0  0  0  0  0  0  0  0
    0.5455   23.5402   33.6485 H   0  0  0  0  0  0  0  0  0  0  0  0
    1.1625   24.4631   35.1181 H   0  0  0  0  0  0  0  0  0  0  0  0
    2.3584   20.8072   37.6128 H   0  0  0  0  0  0  0  0  0  0  0  0
    0.1181   24.9942   33.0801 H   0  0  0  0  0  0  0  0  0  0  0  0
   -0.2380   26.2492   34.8645 H   0  0  0  0  0  0  0  0  0  0  0  0
    1.2142   27.2875   34.4553 H   0  0  0  0  0  0  0  0  0  0  0  0
    1.6978   27.3351   30.4264 H   0  0  0  0  0  0  0  0  0  0  0  0
    1.0520   19.7799   41.1983 H   0  0  0  0  0  0  0  0  0  0  0  0
    0.7431   21.8653   34.8672 H   0  0  0  0  0  0  0  0  0  0  0  0
    1.9213   22.5693   36.0089 H   0  0  0  0  0  0  0  0  0  0  0  0
    1.2833   19.8557   35.8410 H   0  0  0  0  0  0  0  0  0  0  0  0
    2.7701   19.9479   34.8410 H   0  0  0  0  0  0  0  0  0  0  0  0
   -1.2867   26.9503   32.8083 H   0  0  0  0  0  0  0  0  0  0  0  0
   -0.8034   28.3804   33.8134 H   0  0  0  0  0  0  0  0  0  0  0  0
    0.9209   28.9457   32.4273 H   0  0  0  0  0  0  0  0  0  0  0  0
   -0.4056   28.3836   31.2934 H   0  0  0  0  0  0  0  0  0  0  0  0
    3.1130   16.8135   37.5432 H   0  0  0  0  0  0  0  0  0  0  0  0
    0.5104   15.7536   40.6054 H   0  0  0  0  0  0  0  0  0  0  0  0
    2.2847   21.7333   33.1448 H   0  0  0  0  0  0  0  0  0  0  0  0
    3.6831   21.8989   34.2784 H   0  0  0  0  0  0  0  0  0  0  0  0
   -0.0421   17.8099   41.4177 H   0  0  0  0  0  0  0  0  0  0  0  0
    3.1775   19.8257   40.0540 H   0  0  0  0  0  0  0  0  0  0  0  0
    1.7424   20.1652   38.8991 H   0  0  0  0  0  0  0  0  0  0  0  0
    1.7433   15.3148   38.7079 H   0  0  0  0  0  0  0  0  0  0  0  0
  1  6  1  0
  2 19  1  0
  3 16  2  0
  4  2  1  0
  5 16  1  0
  6  4  1  0
  7  6  1  0
  8  1  2  0
  9 17  2  0
  9 21  1  0
 10 20  2  0
 11 13  1  0
 13  5  1  0
 14  7  1  0
 15  8  1  0
 15 14  1  0
 16  9  1  0
 16 12  2  0
 17 22  1  0
 19 11  1  0
 20 18  1  0
 21 10  1  0
 22 18  2  0
  1 23  1  0
  2 24  1  0
  2 25  1  0
  4 26  1  0
  4 27  1  0
  5 28  1  0
  6 29  1  6
  7 30  1  0
  7 31  1  0
  8 32  1  0
 10 33  1  0
 11 34  1  0
 11 35  1  0
 13 36  1  0
 13 37  1  0
 14 38  1  0
 14 39  1  0
 15 40  1  0
 15 41  1  0
 17 42  1  0
 18 43  1  0
 19 44  1  0
 19 45  1  0
 20 46  1  0
 21 47  1  0
 21 48  1  0
 22 49  1  0
M  END
>  <mol_id>  (10) 
2026-09-16-6tgu-s0-n100-0010

>  <rmsd_to_ref>  (10) 


$$$$

     RDKit          3D

 63 64  0  0  0  0  0  0  0  0999 V2000
    2.0235   20.5371   37.8138 O   0  0  0  0  0  0  0  0  0  0  0  0
    1.6947   13.7670   42.3911 C   0  0  0  0  0  0  0  0  0  0  0  0
    3.0810   14.2694   40.5406 C   0  0  0  0  0  0  0  0  0  0  0  0
    3.9573   25.3970   30.1976 S   0  0  0  0  0  0  0  0  0  0  0  0
    3.6633   22.8932   32.0133 C   0  0  0  0  0  0  0  0  0  0  0  0
    1.2801   15.3402   42.0384 S   0  0  0  0  0  0  0  0  0  0  0  0
    2.0529   19.9372   39.3022 C   0  0  0  0  0  0  0  0  0  0  0  0
    4.1497   20.6440   34.6197 C   0  0  0  0  0  0  0  0  0  0  0  0
    3.1989   18.1803   38.0270 C   0  0  0  0  0  0  0  0  0  0  0  0
    4.0836   18.7517   37.3200 C   0  0  0  0  0  0  0  0  0  0  0  0
    2.8402   21.2502   35.2273 C   0  0  0  0  0  0  0  0  0  0  0  0
   -0.4320   23.0727   25.3610 C   0  0  0  0  0  0  0  0  0  0  0  0
    2.7991   13.2654   41.5026 C   0  0  0  0  0  0  0  0  0  0  0  0
    3.4654   21.8822   34.1186 C   0  0  0  0  0  0  0  0  0  0  0  0
    4.0622   14.1293   39.2961 C   0  0  0  0  0  0  0  0  0  0  0  0
    2.1530   23.8369   26.0716 C   0  0  0  0  0  0  0  0  0  0  0  0
    1.1220   20.3720   40.1910 N   0  0  0  0  0  0  0  0  0  0  0  0
    2.3713   18.6951   39.0990 C   0  0  2  0  0  0  0  0  0  0  0  0
    3.3103   14.1221   38.0737 O   0  0  0  0  0  0  0  0  0  0  0  0
    1.9104   17.7454   40.0072 C   0  0  0  0  0  0  0  0  0  0  0  0
    5.1086   23.2536   29.0189 O   0  0  0  0  0  0  0  0  0  0  0  0
    1.0709   24.4750   26.6191 C   0  0  2  0  0  0  0  0  0  0  0  0
    2.5617   16.4901   39.9404 N   0  0  0  0  0  0  0  0  0  0  0  0
    4.0712   24.1740   29.0508 C   0  0  0  0  0  0  0  0  0  0  0  0
    3.3112   24.1409   28.0343 N   0  0  0  0  0  0  0  0  0  0  0  0
    2.0591   24.1119   27.5342 C   0  0  2  0  0  0  0  0  0  0  0  0
    0.6586   19.4842   41.0615 C   0  0  0  0  0  0  0  0  0  0  0  0
    2.4390   15.4046   40.7039 C   0  0  0  0  0  0  0  0  0  0  0  0
    1.0229   18.1741   40.9469 N   0  0  0  0  0  0  0  0  0  0  0  0
    3.2111   22.4225   33.3582 C   0  0  0  0  0  0  0  0  0  0  0  0
   -0.3544   24.2242   26.1249 C   0  0  0  0  0  0  0  0  0  0  0  0
    1.2178   13.1664   43.1796 H   0  0  0  0  0  0  0  0  0  0  0  0
    3.7174   24.8472   31.4293 H   0  0  0  0  0  0  0  0  0  0  0  0
    4.1147   23.8918   32.1070 H   0  0  0  0  0  0  0  0  0  0  0  0
    4.4076   22.1907   31.6102 H   0  0  0  0  0  0  0  0  0  0  0  0
    2.8003   22.9432   31.3331 H   0  0  0  0  0  0  0  0  0  0  0  0
    5.1044   20.7089   35.1621 H   0  0  0  0  0  0  0  0  0  0  0  0
    4.4722   19.6781   34.2037 H   0  0  0  0  0  0  0  0  0  0  0  0
    3.0327   17.1199   37.7867 H   0  0  0  0  0  0  0  0  0  0  0  0
    4.6144   18.1858   36.5402 H   0  0  0  0  0  0  0  0  0  0  0  0
    4.3200   19.8130   37.4867 H   0  0  0  0  0  0  0  0  0  0  0  0
    1.8802   20.7300   35.0939 H   0  0  0  0  0  0  0  0  0  0  0  0
    2.5261   21.5734   36.2307 H   0  0  0  0  0  0  0  0  0  0  0  0
   -0.6931   22.2213   26.0066 H   0  0  0  0  0  0  0  0  0  0  0  0
   -1.2045   23.1970   24.5878 H   0  0  0  0  0  0  0  0  0  0  0  0
    0.5399   22.8847   24.8814 H   0  0  0  0  0  0  0  0  0  0  0  0
    3.3010   12.2900   41.5843 H   0  0  0  0  0  0  0  0  0  0  0  0
    3.7964   22.8351   33.6799 H   0  0  0  0  0  0  0  0  0  0  0  0
    4.7625   14.9776   39.2875 H   0  0  0  0  0  0  0  0  0  0  0  0
    4.6196   13.1848   39.3816 H   0  0  0  0  0  0  0  0  0  0  0  0
    2.0579   22.8086   25.6929 H   0  0  0  0  0  0  0  0  0  0  0  0
    2.8769   24.0565   25.2729 H   0  0  0  0  0  0  0  0  0  0  0  0
    3.2648   18.8212   39.7282 H   0  0  0  0  0  0  0  0  0  0  0  0
    2.3424   14.1350   38.2816 H   0  0  0  0  0  0  0  0  0  0  0  0
    0.4817   25.4014   26.6886 H   0  0  0  0  0  0  0  0  0  0  0  0
    3.2440   16.4008   39.1740 H   0  0  0  0  0  0  0  0  0  0  0  0
    3.9384   24.1324   27.2173 H   0  0  0  0  0  0  0  0  0  0  0  0
    1.8197   24.0295   28.6046 H   0  0  0  0  0  0  0  0  0  0  0  0
   -0.0152   19.8024   41.8706 H   0  0  0  0  0  0  0  0  0  0  0  0
    3.0227   23.3865   33.8533 H   0  0  0  0  0  0  0  0  0  0  0  0
    2.6809   21.5718   32.9050 H   0  0  0  0  0  0  0  0  0  0  0  0
   -0.6766   25.0805   25.5143 H   0  0  0  0  0  0  0  0  0  0  0  0
   -1.0066   24.1006   27.0020 H   0  0  0  0  0  0  0  0  0  0  0  0
  1  7  2  0
  3 28  2  0
  3 13  1  0
  5 30  1  0
  6  2  1  0
  7 17  1  0
  8 11  1  0
 10  9  2  3
 12 31  1  0
 13  2  2  0
 14  8  1  0
 14 11  1  0
 15  3  1  0
 16 22  1  0
 16 26  1  0
 17 27  2  0
 18  9  1  0
 18  7  1  0
 18 20  1  0
 19 15  1  0
 20 29  2  0
 21 24  2  0
 22 31  1  0
 22 26  1  0
 23 20  1  0
 23 28  1  0
 24  4  1  0
 25 24  1  0
 26 25  1  0
 28  6  1  0
 29 27  1  0
 30 14  1  0
  2 32  1  0
  4 33  1  0
  5 34  1  0
  5 35  1  0
  5 36  1  0
  8 37  1  0
  8 38  1  0
  9 39  1  0
 10 40  1  0
 10 41  1  0
 11 42  1  0
 11 43  1  0
 12 44  1  0
 12 45  1  0
 12 46  1  0
 13 47  1  0
 14 48  1  0
 15 49  1  0
 15 50  1  0
 16 51  1  0
 16 52  1  0
 18 53  1  1
 19 54  1  0
 22 55  1  6
 23 56  1  0
 25 57  1  0
 26 58  1  1
 27 59  1  0
 30 60  1  0
 30 61  1  0
 31 62  1  0
 31 63  1  0
M  END
>  <mol_id>  (11) 
2026-09-16-6tgu-s0-n100-0011

>  <rmsd_to_ref>  (11) 


$$$$

     RDKit          3D

 39 40  0  0  0  0  0  0  0  0999 V2000
    3.3718   20.6262   38.1745 N   0  0  0  0  0  0  0  0  0  0  0  0
    3.7082   23.1574   35.3318 C   0  0  0  0  0  0  0  0  0  0  0  0
    4.0327   22.1037   36.0484 C   0  0  2  0  0  0  0  0  0  0  0  0
    3.8079   16.6908   40.9490 N   0  0  0  0  0  0  0  0  0  0  0  0
    2.8840   24.2027   33.4874 C   0  0  0  0  0  0  0  0  0  0  0  0
    2.6344   20.4888   40.5220 C   0  0  0  0  0  0  0  0  0  0  0  0
    4.0558   20.8205   35.5937 O   0  0  0  0  0  0  0  0  0  0  0  0
    2.4146   19.9176   41.7582 C   0  0  0  0  0  0  0  0  0  0  0  0
    3.4485   17.9278   40.7629 C   0  0  0  0  0  0  0  0  0  0  0  0
    2.4692   26.3599   32.0533 C   0  0  0  0  0  0  0  0  0  0  0  0
    3.6271   18.5926   39.6398 C   0  0  0  0  0  0  0  0  0  0  0  0
    3.6927   23.3186   34.0100 C   0  0  0  0  0  0  0  0  0  0  0  0
    3.1767   19.8967   39.4695 C   0  0  0  0  0  0  0  0  0  0  0  0
    3.3647   25.0645   32.3002 C   0  0  0  0  0  0  0  0  0  0  0  0
    2.7596   18.6166   41.8776 C   0  0  0  0  0  0  0  0  0  0  0  0
    2.5259   21.2382   37.9505 C   0  0  0  0  0  0  0  0  0  0  0  0
    3.6264   21.2714   36.5931 C   0  0  1  0  0  0  0  0  0  0  0  0
    2.6787   23.3880   35.6431 H   0  0  0  0  0  0  0  0  0  0  0  0
    4.6046   23.7593   35.5422 H   0  0  0  0  0  0  0  0  0  0  0  0
    4.6090   22.9717   36.4011 H   0  0  0  0  0  0  0  0  0  0  0  0
    4.2897   16.1759   40.1982 H   0  0  0  0  0  0  0  0  0  0  0  0
    3.6105   16.2267   41.8472 H   0  0  0  0  0  0  0  0  0  0  0  0
    1.9913   23.6578   33.1466 H   0  0  0  0  0  0  0  0  0  0  0  0
    2.7427   24.9340   34.2969 H   0  0  0  0  0  0  0  0  0  0  0  0
    2.3294   21.5385   40.3988 H   0  0  0  0  0  0  0  0  0  0  0  0
    1.9845   20.4865   42.5958 H   0  0  0  0  0  0  0  0  0  0  0  0
    2.1922   26.8040   33.0208 H   0  0  0  0  0  0  0  0  0  0  0  0
    3.0393   27.0926   31.4633 H   0  0  0  0  0  0  0  0  0  0  0  0
    1.5584   26.0771   31.5054 H   0  0  0  0  0  0  0  0  0  0  0  0
    4.1507   18.0988   38.8080 H   0  0  0  0  0  0  0  0  0  0  0  0
    3.4328   22.3445   33.5700 H   0  0  0  0  0  0  0  0  0  0  0  0
    4.6946   23.7108   33.7811 H   0  0  0  0  0  0  0  0  0  0  0  0
    3.3428   24.4470   31.3901 H   0  0  0  0  0  0  0  0  0  0  0  0
    4.3794   25.4131   32.5426 H   0  0  0  0  0  0  0  0  0  0  0  0
    2.5286   18.0692   42.8034 H   0  0  0  0  0  0  0  0  0  0  0  0
    2.0306   21.5359   38.8865 H   0  0  0  0  0  0  0  0  0  0  0  0
    2.8564   22.1365   37.4086 H   0  0  0  0  0  0  0  0  0  0  0  0
    1.8191   20.6724   37.3257 H   0  0  0  0  0  0  0  0  0  0  0  0
    2.7419   21.2445   37.2465 H   0  0  0  0  0  0  0  0  0  0  0  0
  1 13  1  0
  3  2  1  0
  3 17  1  0
  5 12  1  0
  6  8  1  0
  7  3  1  0
  7 17  1  0
  8 15  2  0
  9  4  1  0
  9 15  1  0
 10 14  1  0
 11  9  2  0
 12  2  1  0
 13 11  1  0
 13  6  2  0
 14  5  1  0
 16  1  1  0
 17  1  1  0
  2 18  1  0
  2 19  1  0
  3 20  1  1
  4 21  1  0
  4 22  1  0
  5 23  1  0
  5 24  1  0
  6 25  1  0
  8 26  1  0
 10 27  1  0
 10 28  1  0
 10 29  1  0
 11 30  1  0
 12 31  1  0
 12 32  1  0
 14 33  1  0
 14 34  1  0
 15 35  1  0
 16 36  1  0
 16 37  1  0
 16 38  1  0
 17 39  1  6
M  END
>  <mol_id>  (12) 
2026-09-16-6tgu-s0-n100-0012

>  <rmsd_to_ref>  (12) 


$$$$

     RDKit          3D

 56 58  0  0  0  0  0  0  0  0999 V2000
    3.5749   22.4805   36.3058 N   0  0  0  0  0  0  0  0  0  0  0  0
    3.1507   23.3068   33.7588 C   0  0  0  0  0  0  0  0  0  0  0  0
    4.0164   21.1996   42.1259 C   0  0  0  0  0  0  0  0  0  0  0  0
    3.9610   21.7528   39.5132 C   0  0  0  0  0  0  0  0  0  0  0  0
    2.7270   26.9449   33.5976 C   0  0  0  0  0  0  0  0  0  0  0  0
    3.8521   21.2012   36.8498 C   0  0  0  0  0  0  0  0  0  0  0  0
    3.0216   17.9414   37.4590 C   0  0  0  0  0  0  0  0  0  0  0  0
    3.2360   22.7164   35.0850 C   0  0  0  0  0  0  0  0  0  0  0  0
    0.4936   28.8268   31.5121 C   0  0  0  0  0  0  0  0  0  0  0  0
    1.5449   14.7568   37.7496 O   0  0  0  0  0  0  0  0  0  0  0  0
    0.8803   29.7217   32.5169 C   0  0  0  0  0  0  0  0  0  0  0  0
    2.7437   24.5571   33.8560 N   0  0  0  0  0  0  0  0  0  0  0  0
    1.8832   29.2594   33.3514 N   0  0  0  0  0  0  0  0  0  0  0  0
    2.1067   27.9796   32.9521 C   0  0  0  0  0  0  0  0  0  0  0  0
    3.6399   22.7007   32.4575 C   0  0  0  0  0  0  0  0  0  0  0  0
    3.9771   20.2159   35.8929 O   0  0  0  0  0  0  0  0  0  0  0  0
    1.5140   26.5657   31.0050 C   0  0  0  0  0  0  0  0  0  0  0  0
    2.5962   25.6482   33.0279 C   0  0  1  0  0  0  0  0  0  0  0  0
    2.1022   25.4724   31.7555 C   0  0  0  0  0  0  0  0  0  0  0  0
    2.4646   16.8279   38.3513 C   0  0  0  0  0  0  0  0  0  0  0  0
    4.4428   17.8111   37.2974 O   0  0  0  0  0  0  0  0  0  0  0  0
    4.7803   19.6418   38.8374 C   0  0  0  0  0  0  0  0  0  0  0  0
    4.8474   22.0233   42.9853 C   0  0  0  0  0  0  0  0  0  0  0  0
    4.7710   19.7449   40.2359 O   0  0  0  0  0  0  0  0  0  0  0  0
    1.2751   16.0000   37.9430 C   0  0  0  0  0  0  0  0  0  0  0  0
    4.2421   20.9458   38.3303 C   0  0  0  0  0  0  0  0  0  0  0  0
    3.8098   19.8073   42.6330 C   0  0  0  0  0  0  0  0  0  0  0  0
    5.3785   18.5815   38.1151 C   0  0  0  0  0  0  0  0  0  0  0  0
    1.3915   27.7414   31.7629 C   0  0  0  0  0  0  0  0  0  0  0  0
    3.0704   16.3903   39.3261 O   0  0  0  0  0  0  0  0  0  0  0  0
    0.1523   16.4619   37.7893 O   0  0  0  0  0  0  0  0  0  0  0  0
    4.2573   20.9971   40.6480 C   0  0  0  0  0  0  0  0  0  0  0  0
    3.6505   23.2892   36.9392 H   0  0  0  0  0  0  0  0  0  0  0  0
    3.1747   21.9045   42.1928 H   0  0  0  0  0  0  0  0  0  0  0  0
    3.5793   22.7844   39.5106 H   0  0  0  0  0  0  0  0  0  0  0  0
    3.3037   27.1092   34.5199 H   0  0  0  0  0  0  0  0  0  0  0  0
    2.5409   17.8847   36.4712 H   0  0  0  0  0  0  0  0  0  0  0  0
    2.8111   18.9100   37.9359 H   0  0  0  0  0  0  0  0  0  0  0  0
    2.1601   22.8012   35.2979 H   0  0  0  0  0  0  0  0  0  0  0  0
    4.2248   22.3331   34.7925 H   0  0  0  0  0  0  0  0  0  0  0  0
   -0.2854   28.9296   30.7424 H   0  0  0  0  0  0  0  0  0  0  0  0
    0.4226   30.7150   32.6341 H   0  0  0  0  0  0  0  0  0  0  0  0
    4.6048   22.2001   32.6260 H   0  0  0  0  0  0  0  0  0  0  0  0
    2.9046   21.9671   32.0953 H   0  0  0  0  0  0  0  0  0  0  0  0
    3.7650   23.4953   31.7071 H   0  0  0  0  0  0  0  0  0  0  0  0
    1.1977   26.4825   29.9547 H   0  0  0  0  0  0  0  0  0  0  0  0
    3.5860   25.6979   32.5507 H   0  0  0  0  0  0  0  0  0  0  0  0
    2.1550   24.4750   31.2946 H   0  0  0  0  0  0  0  0  0  0  0  0
    5.3007   21.3964   43.7673 H   0  0  0  0  0  0  0  0  0  0  0  0
    5.6411   22.4937   42.3864 H   0  0  0  0  0  0  0  0  0  0  0  0
    4.2298   22.8041   43.4534 H   0  0  0  0  0  0  0  0  0  0  0  0
    4.4386   19.6432   43.5206 H   0  0  0  0  0  0  0  0  0  0  0  0
    2.7524   19.6682   42.9021 H   0  0  0  0  0  0  0  0  0  0  0  0
    4.0866   19.0867   41.8494 H   0  0  0  0  0  0  0  0  0  0  0  0
    5.8517   17.8975   38.8350 H   0  0  0  0  0  0  0  0  0  0  0  0
    6.1013   19.0384   37.4232 H   0  0  0  0  0  0  0  0  0  0  0  0
  1  6  1  0
  2  8  1  0
  3 27  1  0
  3 23  1  0
  4 32  2  0
  6 26  1  0
  7 20  1  0
  7 21  1  0
  8  1  1  0
  9 29  2  0
  9 11  1  0
 11 13  2  0
 12  2  2  3
 14 13  1  0
 14  5  2  0
 15  2  1  0
 16  6  2  0
 17 29  1  0
 17 19  2  0
 18  5  1  0
 18 12  1  0
 19 18  1  0
 20 30  2  0
 21 28  1  0
 22 24  1  0
 25 10  1  0
 25 20  1  0
 26  4  1  0
 26 22  2  0
 28 22  1  0
 29 14  1  0
 31 25  2  0
 32 24  1  0
 32  3  1  0
  1 33  1  0
  3 34  1  0
  4 35  1  0
  5 36  1  0
  7 37  1  0
  7 38  1  0
  8 39  1  0
  8 40  1  0
  9 41  1  0
 11 42  1  0
 15 43  1  0
 15 44  1  0
 15 45  1  0
 17 46  1  0
 18 47  1  6
 19 48  1  0
 23 49  1  0
 23 50  1  0
 23 51  1  0
 27 52  1  0
 27 53  1  0
 27 54  1  0
 28 55  1  0
 28 56  1  0
M  CHG  1  10  -1
M  END
>  <mol_id>  (13) 
2026-09-16-6tgu-s0-n100-0013

>  <rmsd_to_ref>  (13) 


$$$$

     RDKit          3D

 39 38  0  0  0  0  0  0  0  0999 V2000
    0.6143   16.6364   39.8415 C   0  0  0  0  0  0  0  0  0  0  0  0
    5.2132   24.8664   32.1029 C   0  0  0  0  0  0  0  0  0  0  0  0
    4.7422   17.1280   37.2658 C   0  0  0  0  0  0  0  0  0  0  0  0
    3.3489   17.9379   38.7650 N   0  0  0  0  0  0  0  0  0  0  0  0
    3.7241   21.6267   35.0067 N   0  0  0  0  0  0  0  0  0  0  0  0
    1.8613   19.4889   38.8655 O   0  0  0  0  0  0  0  0  0  0  0  0
    2.8958   24.9106   31.0186 C   0  0  0  0  0  0  0  0  0  0  0  0
    3.7233   18.1448   37.4153 C   0  0  0  0  0  0  0  0  0  0  0  0
    4.5429   15.9877   37.9170 O   0  0  0  0  0  0  0  0  0  0  0  0
    2.6262   24.3381   33.3651 N   0  0  0  0  0  0  0  0  0  0  0  0
    2.2828   17.1344   41.2347 O   0  0  0  0  0  0  0  0  0  0  0  0
    1.1902   25.6647   32.3652 F   0  0  0  0  0  0  0  0  0  0  0  0
    1.4056   17.6567   40.3740 C   0  0  0  0  0  0  0  0  0  0  0  0
    4.3772   24.8537   30.8858 C   0  0  0  0  0  0  0  0  0  0  0  0
    2.1641   25.4998   29.8934 C   0  0  0  0  0  0  0  0  0  0  0  0
    5.7454   17.4170   36.6777 O   0  0  0  0  0  0  0  0  0  0  0  0
    4.7383   24.1565   33.1457 C   0  0  0  0  0  0  0  0  0  0  0  0
    3.6681   23.6605   33.6399 C   0  0  0  0  0  0  0  0  0  0  0  0
    2.2419   18.3733   39.2770 C   0  0  0  0  0  0  0  0  0  0  0  0
    0.6779   18.7236   41.1642 C   0  0  0  0  0  0  0  0  0  0  0  0
    2.3702   24.9930   32.2488 C   0  0  0  0  0  0  0  0  0  0  0  0
    3.7205   22.6181   34.3538 C   0  0  0  0  0  0  0  0  0  0  0  0
    0.1566   16.0622   40.6605 H   0  0  0  0  0  0  0  0  0  0  0  0
   -0.1762   17.0748   39.2147 H   0  0  0  0  0  0  0  0  0  0  0  0
    1.2393   15.9688   39.2302 H   0  0  0  0  0  0  0  0  0  0  0  0
    6.1626   25.4195   32.1551 H   0  0  0  0  0  0  0  0  0  0  0  0
    3.9925   17.4120   39.3734 H   0  0  0  0  0  0  0  0  0  0  0  0
    4.1306   19.1543   37.2570 H   0  0  0  0  0  0  0  0  0  0  0  0
    2.8959   18.0743   36.6939 H   0  0  0  0  0  0  0  0  0  0  0  0
    1.8574   17.0414   42.1238 H   0  0  0  0  0  0  0  0  0  0  0  0
    4.8444   24.8029   29.8913 H   0  0  0  0  0  0  0  0  0  0  0  0
    1.1580   25.7959   30.2252 H   0  0  0  0  0  0  0  0  0  0  0  0
    2.7050   26.3851   29.5276 H   0  0  0  0  0  0  0  0  0  0  0  0
    2.0803   24.7606   29.0831 H   0  0  0  0  0  0  0  0  0  0  0  0
    5.3664   23.2558   33.0794 H   0  0  0  0  0  0  0  0  0  0  0  0
    4.6221   25.0703   33.7469 H   0  0  0  0  0  0  0  0  0  0  0  0
    0.5550   18.3892   42.2050 H   0  0  0  0  0  0  0  0  0  0  0  0
    1.2611   19.6560   41.1451 H   0  0  0  0  0  0  0  0  0  0  0  0
   -0.3113   18.9007   40.7168 H   0  0  0  0  0  0  0  0  0  0  0  0
  1 13  1  0
  2 17  1  0
  3  8  1  0
  3  9  1  0
  4 19  1  0
  6 19  2  0
  7 21  2  0
  8  4  1  0
 10 18  2  0
 13 20  1  0
 13 11  1  0
 14  7  1  0
 14  2  2  0
 15  7  1  0
 16  3  2  0
 17 18  1  0
 18 22  1  0
 19 13  1  0
 21 12  1  0
 21 10  1  0
 22  5  3  0
  1 23  1  0
  1 24  1  0
  1 25  1  0
  2 26  1  0
  4 27  1  0
  8 28  1  0
  8 29  1  0
 11 30  1  0
 14 31  1  0
 15 32  1  0
 15 33  1  0
 15 34  1  0
 17 35  1  0
 17 36  1  0
 20 37  1  0
 20 38  1  0
 20 39  1  0
M  CHG  1   9  -1
M  END
>  <mol_id>  (14) 
2026-09-16-6tgu-s0-n100-0014

>  <rmsd_to_ref>  (14) 


$$$$

     RDKit          3D

 72 74  0  0  0  0  0  0  0  0999 V2000
    2.3632   22.1540   35.7860 C   0  0  0  0  0  0  0  0  0  0  0  0
    3.1226   24.1225   28.9283 C   0  0  0  0  0  0  0  0  0  0  0  0
    4.3029   23.5809   29.7108 C   0  0  0  0  0  0  0  0  0  0  0  0
    1.3399   18.0053   40.7779 N   0  0  0  0  0  0  0  0  0  0  0  0
    2.2751   16.5491   37.5011 C   0  0  0  0  0  0  0  0  0  0  0  0
    4.5881   18.5764   40.9000 C   0  0  0  0  0  0  0  0  0  0  0  0
    2.8076   18.6561   39.2576 C   0  0  0  0  0  0  0  0  0  0  0  0
    2.2784   20.3782   37.6670 C   0  0  0  0  0  0  0  0  0  0  0  0
    3.6506   18.5610   40.3339 C   0  0  0  0  0  0  0  0  0  0  0  0
    2.6860   20.4436   34.4687 C   0  0  0  0  0  0  0  0  0  0  0  0
    5.3274   22.8312   28.8120 C   0  0  0  0  0  0  0  0  0  0  0  0
   -1.5878   19.9440   42.1335 S   0  0  0  0  0  0  0  0  0  0  0  0
    2.2373   24.9891   29.6137 C   0  0  0  0  0  0  0  0  0  0  0  0
    4.5817   21.5360   34.8522 F   0  0  0  0  0  0  0  0  0  0  0  0
    3.0708   23.6160   27.4990 C   0  0  0  0  0  0  0  0  0  0  0  0
    3.2800   23.0039   33.9193 C   0  0  0  0  0  0  0  0  0  0  0  0
    1.9544   17.5613   39.6828 C   0  0  2  0  0  0  0  0  0  0  0  0
    0.7404   19.0933   41.4006 C   0  0  0  0  0  0  0  0  0  0  0  0
   -0.4894   18.6407   42.1884 C   0  0  1  0  0  0  0  0  0  0  0  0
   -2.5229   18.9980   43.4416 C   0  0  0  0  0  0  0  0  0  0  0  0
    3.1099   23.5182   32.9374 C   0  0  0  0  0  0  0  0  0  0  0  0
    3.2900   24.1832   31.6836 C   0  0  0  0  0  0  0  0  0  0  0  0
    1.7939   20.9645   36.5043 C   0  0  0  0  0  0  0  0  0  0  0  0
    1.1413   20.2974   41.4109 O   0  0  0  0  0  0  0  0  0  0  0  0
    4.6273   24.0998   31.0842 C   0  0  0  0  0  0  0  0  0  0  0  0
    3.1960   21.8119   34.6248 C   0  0  2  0  0  0  0  0  0  0  0  0
   -0.2298   17.2122   42.6259 C   0  0  0  0  0  0  0  0  0  0  0  0
    2.4328   19.0128   37.9232 C   0  0  0  0  0  0  0  0  0  0  0  0
    5.4853   19.6314   41.6579 C   0  0  0  0  0  0  0  0  0  0  0  0
   -0.9270   17.0808   43.9790 C   0  0  0  0  0  0  0  0  0  0  0  0
    2.1041   16.3586   38.8811 C   0  0  0  0  0  0  0  0  0  0  0  0
   -2.1502   17.6826   43.8581 C   0  0  0  0  0  0  0  0  0  0  0  0
    2.3609   25.0084   31.0767 C   0  0  0  0  0  0  0  0  0  0  0  0
    0.8238   25.7940   28.8040 Cl  0  0  0  0  0  0  0  0  0  0  0  0
    2.2888   17.9548   37.0112 C   0  0  0  0  0  0  0  0  0  0  0  0
    1.5280   22.7804   35.4394 H   0  0  0  0  0  0  0  0  0  0  0  0
    3.0161   22.6743   36.5022 H   0  0  0  0  0  0  0  0  0  0  0  0
    1.2874   17.2146   41.4359 H   0  0  0  0  0  0  0  0  0  0  0  0
    2.3935   15.6989   36.8133 H   0  0  0  0  0  0  0  0  0  0  0  0
    5.0303   17.5708   40.9565 H   0  0  0  0  0  0  0  0  0  0  0  0
    2.5730   21.0641   38.4750 H   0  0  0  0  0  0  0  0  0  0  0  0
    2.5734   19.9791   35.4594 H   0  0  0  0  0  0  0  0  0  0  0  0
    1.7091   20.4718   33.9638 H   0  0  0  0  0  0  0  0  0  0  0  0
    3.3933   19.8551   33.8660 H   0  0  0  0  0  0  0  0  0  0  0  0
    5.9815   22.2099   29.4413 H   0  0  0  0  0  0  0  0  0  0  0  0
    4.7889   22.1904   28.0982 H   0  0  0  0  0  0  0  0  0  0  0  0
    5.9361   23.5631   28.2608 H   0  0  0  0  0  0  0  0  0  0  0  0
    3.0139   22.5174   27.5012 H   0  0  0  0  0  0  0  0  0  0  0  0
    2.1837   24.0280   26.9959 H   0  0  0  0  0  0  0  0  0  0  0  0
    3.9773   23.9352   26.9638 H   0  0  0  0  0  0  0  0  0  0  0  0
    3.6804   23.7589   34.6118 H   0  0  0  0  0  0  0  0  0  0  0  0
    2.7721   17.1647   40.3025 H   0  0  0  0  0  0  0  0  0  0  0  0
   -0.9289   18.2313   41.2669 H   0  0  0  0  0  0  0  0  0  0  0  0
   -2.4966   19.6228   44.3465 H   0  0  0  0  0  0  0  0  0  0  0  0
   -3.4823   18.8092   42.9377 H   0  0  0  0  0  0  0  0  0  0  0  0
    0.7569   21.2457   36.7399 H   0  0  0  0  0  0  0  0  0  0  0  0
    2.0642   20.1780   35.7844 H   0  0  0  0  0  0  0  0  0  0  0  0
    5.2732   23.4014   31.6364 H   0  0  0  0  0  0  0  0  0  0  0  0
    5.1823   25.0495   31.0873 H   0  0  0  0  0  0  0  0  0  0  0  0
   -0.6552   16.5025   41.9012 H   0  0  0  0  0  0  0  0  0  0  0  0
    0.8452   16.9888   42.6914 H   0  0  0  0  0  0  0  0  0  0  0  0
    5.4507   19.4325   42.7393 H   0  0  0  0  0  0  0  0  0  0  0  0
    6.5236   19.5517   41.3034 H   0  0  0  0  0  0  0  0  0  0  0  0
    5.1067   20.6449   41.4592 H   0  0  0  0  0  0  0  0  0  0  0  0
   -1.0522   16.0190   44.2381 H   0  0  0  0  0  0  0  0  0  0  0  0
   -0.3331   17.5542   44.7747 H   0  0  0  0  0  0  0  0  0  0  0  0
    2.0846   15.3549   39.3307 H   0  0  0  0  0  0  0  0  0  0  0  0
   -2.5841   17.5955   44.8651 H   0  0  0  0  0  0  0  0  0  0  0  0
   -2.4582   17.1643   42.9380 H   0  0  0  0  0  0  0  0  0  0  0  0
    1.7235   25.6701   31.6815 H   0  0  0  0  0  0  0  0  0  0  0  0
    3.1219   18.0346   36.2974 H   0  0  0  0  0  0  0  0  0  0  0  0
    1.2716   18.0961   36.6171 H   0  0  0  0  0  0  0  0  0  0  0  0
  1 23  1  0
  2 13  1  0
  2  3  2  0
  3 25  1  0
  4 18  1  0
  5 31  2  0
  6 29  1  0
  7 17  1  0
  7  9  2  0
  8 28  2  3
  9  6  2  0
 11  3  1  0
 12 19  1  0
 12 20  1  0
 13 33  2  0
 15  2  1  0
 16 26  1  0
 17  4  1  0
 19 18  1  0
 19 27  1  0
 20 32  1  0
 21 16  2  0
 22 21  2  0
 23  8  1  0
 24 18  2  0
 25 22  1  0
 26 10  1  0
 26 14  1  1
 26  1  1  0
 27 30  1  0
 28  7  1  0
 31 17  1  0
 32 30  1  0
 33 22  1  0
 34 13  1  0
 35  5  1  0
 35 28  1  0
  1 36  1  0
  1 37  1  0
  4 38  1  0
  5 39  1  0
  6 40  1  0
  8 41  1  0
 10 42  1  0
 10 43  1  0
 10 44  1  0
 11 45  1  0
 11 46  1  0
 11 47  1  0
 15 48  1  0
 15 49  1  0
 15 50  1  0
 16 51  1  0
 17 52  1  6
 19 53  1  1
 20 54  1  0
 20 55  1  0
 23 56  1  0
 23 57  1  0
 25 58  1  0
 25 59  1  0
 27 60  1  0
 27 61  1  0
 29 62  1  0
 29 63  1  0
 29 64  1  0
 30 65  1  0
 30 66  1  0
 31 67  1  0
 32 68  1  0
 32 69  1  0
 33 70  1  0
 35 71  1  0
 35 72  1  0
M  END
>  <mol_id>  (15) 
2026-09-16-6tgu-s0-n100-0015

>  <rmsd_to_ref>  (15) 


$$$$

     RDKit          3D

 49 51  0  0  0  0  0  0  0  0999 V2000
    3.3542   19.5633   39.2695 C   0  0  1  0  0  0  0  0  0  0  0  0
    0.3806   25.6582   33.7638 C   0  0  0  0  0  0  0  0  0  0  0  0
    2.7750   13.3856   39.6747 N   0  0  0  0  0  0  0  0  0  0  0  0
    3.2693   21.9554   34.9012 C   0  0  0  0  0  0  0  0  0  0  0  0
    2.2593   24.2626   35.3502 C   0  0  1  0  0  0  0  0  0  0  0  0
    3.0863   17.8329   41.0867 C   0  0  0  0  0  0  0  0  0  0  0  0
    1.8663   23.4114   36.1397 C   0  0  0  0  0  0  0  0  0  0  0  0
    2.4504   21.2676   37.6173 C   0  0  0  0  0  0  0  0  0  0  0  0
    2.2414   16.9596   39.0270 C   0  0  0  0  0  0  0  0  0  0  0  0
    3.1979   20.7724   40.3022 C   0  0  0  0  0  0  0  0  0  0  0  0
    2.2870   21.8021   36.2865 N   0  0  0  0  0  0  0  0  0  0  0  0
    3.8429   23.5307   34.5865 S   0  0  0  0  0  0  0  0  0  0  0  0
    2.7472   18.0592   39.5960 C   0  0  0  0  0  0  0  0  0  0  0  0
    1.2041   25.3110   34.9448 C   0  0  1  0  0  0  0  0  0  0  0  0
    2.6475   16.4345   41.3119 N   0  0  0  0  0  0  0  0  0  0  0  0
    4.2169   20.2940   41.5516 S   0  0  0  0  0  0  0  0  0  0  0  0
    2.3958   14.4605   39.8337 C   0  0  0  0  0  0  0  0  0  0  0  0
    3.4398   26.5943   36.4814 O   0  0  0  0  0  0  0  0  0  0  0  0
    2.5952   19.8042   37.9519 C   0  0  0  0  0  0  0  0  0  0  0  0
    1.9323   27.6415   33.7460 C   0  0  0  0  0  0  0  0  0  0  0  0
    1.1103   25.3432   32.3010 C   0  0  0  0  0  0  0  0  0  0  0  0
    3.5860   18.6945   42.1257 C   0  0  0  0  0  0  0  0  0  0  0  0
    2.0119   27.1902   35.4491 S   0  0  0  0  0  4  0  0  0  0  0  0
    2.2130   15.9178   40.0576 C   0  0  0  0  0  0  0  0  0  0  0  0
    4.4541   19.5585   39.2835 H   0  0  0  0  0  0  0  0  0  0  0  0
   -0.5540   25.0801   33.8139 H   0  0  0  0  0  0  0  0  0  0  0  0
    0.2149   26.7449   33.8048 H   0  0  0  0  0  0  0  0  0  0  0  0
    2.6829   21.6268   34.0304 H   0  0  0  0  0  0  0  0  0  0  0  0
    4.1603   21.3386   35.0898 H   0  0  0  0  0  0  0  0  0  0  0  0
    2.6975   25.2703   35.4002 H   0  0  0  0  0  0  0  0  0  0  0  0
    2.0927   23.8382   37.1279 H   0  0  0  0  0  0  0  0  0  0  0  0
    0.8690   23.2591   35.7013 H   0  0  0  0  0  0  0  0  0  0  0  0
    1.5706   21.6113   38.1809 H   0  0  0  0  0  0  0  0  0  0  0  0
    3.4645   21.6246   37.8501 H   0  0  0  0  0  0  0  0  0  0  0  0
    1.9095   16.8566   37.9832 H   0  0  0  0  0  0  0  0  0  0  0  0
    3.5281   21.7231   39.8583 H   0  0  0  0  0  0  0  0  0  0  0  0
    2.1606   20.9551   40.6194 H   0  0  0  0  0  0  0  0  0  0  0  0
    0.4439   24.6478   35.3831 H   0  0  0  0  0  0  0  0  0  0  0  0
    2.6555   15.9298   42.2097 H   0  0  0  0  0  0  0  0  0  0  0  0
    3.1431   19.3101   37.1359 H   0  0  0  0  0  0  0  0  0  0  0  0
    1.5828   19.3918   38.0739 H   0  0  0  0  0  0  0  0  0  0  0  0
    2.8852   28.1000   33.4432 H   0  0  0  0  0  0  0  0  0  0  0  0
    1.7472   26.7443   33.1372 H   0  0  0  0  0  0  0  0  0  0  0  0
    1.1147   28.3618   33.5954 H   0  0  0  0  0  0  0  0  0  0  0  0
    2.1856   25.1716   32.4569 H   0  0  0  0  0  0  0  0  0  0  0  0
    0.6576   24.4474   31.8508 H   0  0  0  0  0  0  0  0  0  0  0  0
    0.9699   26.2023   31.6286 H   0  0  0  0  0  0  0  0  0  0  0  0
    2.7673   18.8845   42.8353 H   0  0  0  0  0  0  0  0  0  0  0  0
    4.4405   18.1696   42.5778 H   0  0  0  0  0  0  0  0  0  0  0  0
  1 19  1  0
  1 10  1  0
  4 12  1  0
  4 11  1  0
  5 14  1  0
  5 12  1  0
  5  7  1  0
  6 22  1  0
  7 11  1  0
  8 19  1  0
  9 13  1  0
  9 24  2  0
 10 16  1  0
 11  8  1  0
 13  1  1  0
 13  6  2  0
 14  2  1  0
 14 23  1  0
 15  6  1  0
 16 22  1  0
 17 24  1  0
 17  3  3  0
 21  2  1  0
 23 20  1  6
 23 18  2  0
 24 15  1  0
  1 25  1  6
  2 26  1  0
  2 27  1  0
  4 28  1  0
  4 29  1  0
  5 30  1  1
  7 31  1  0
  7 32  1  0
  8 33  1  0
  8 34  1  0
  9 35  1  0
 10 36  1  0
 10 37  1  0
 14 38  1  1
 15 39  1  0
 19 40  1  0
 19 41  1  0
 20 42  1  0
 20 43  1  0
 20 44  1  0
 21 45  1  0
 21 46  1  0
 21 47  1  0
 22 48  1  0
 22 49  1  0
M  END
>  <mol_id>  (16) 
2026-09-16-6tgu-s0-n100-0016

>  <rmsd_to_ref>  (16) 


$$$$

     RDKit          3D

 64 64  0  0  0  0  0  0  0  0999 V2000
   -0.0215   20.3777   41.5711 C   0  0  0  0  0  0  0  0  0  0  0  0
    2.2779   14.9381   40.5234 S   0  0  0  0  0  0  0  0  0  0  0  0
    3.3599   19.4381   40.7999 C   0  0  0  0  0  0  0  0  0  0  0  0
    1.8099   24.4931   34.8980 C   0  0  0  0  0  0  0  0  0  0  0  0
    3.6038   18.1980   38.0158 C   0  0  0  0  0  0  0  0  0  0  0  0
    2.6095   20.5358   37.2531 N   0  0  0  0  0  0  0  0  0  0  0  0
    1.8952   19.4023   40.2613 C   0  0  2  0  0  0  0  0  0  0  0  0
    1.4000   25.7094   32.5655 O   0  0  0  0  0  0  0  0  0  0  0  0
    5.7760   16.6003   38.8638 O   0  0  0  0  0  0  0  0  0  0  0  0
    2.6855   19.4510   38.0446 C   0  0  0  0  0  0  0  0  0  0  0  0
    3.7505   24.5333   29.6125 C   0  0  0  0  0  0  0  0  0  0  0  0
    2.1531   16.2996   39.2899 C   0  0  0  0  0  0  0  0  0  0  0  0
    3.3712   16.9036   38.5690 C   0  0  0  0  0  0  0  0  0  0  0  0
    1.7577   19.6470   38.9344 O   0  0  0  0  0  0  0  0  0  0  0  0
    2.3744   22.0395   35.2184 C   0  0  0  0  0  0  0  0  0  0  0  0
    0.7965   27.6196   33.8779 O   0  0  0  0  0  0  0  0  0  0  0  0
    1.1102   26.5683   33.5633 C   0  0  0  0  0  0  0  0  0  0  0  0
    3.9939   20.6136   35.9434 O   0  0  0  0  0  0  0  0  0  0  0  0
    4.4981   14.7655   38.6535 N   0  0  0  0  0  0  0  0  0  0  0  0
    1.5593   25.4574   33.8579 C   0  0  1  0  0  0  0  0  0  0  0  0
    2.8510   23.3682   34.6438 C   0  0  1  0  0  0  0  0  0  0  0  0
    5.0511   23.6986   29.2782 C   0  0  0  0  0  0  0  0  0  0  0  0
    5.9280   23.7335   30.4774 C   0  0  0  0  0  0  0  0  0  0  0  0
    5.6609   13.9161   38.3108 C   0  0  0  0  0  0  0  0  0  0  0  0
    4.6627   16.0549   38.7289 C   0  0  0  0  0  0  0  0  0  0  0  0
    3.1716   20.9952   36.0838 C   0  0  0  0  0  0  0  0  0  0  0  0
    3.7983   24.9930   31.0907 C   0  0  0  0  0  0  0  0  0  0  0  0
    3.5657   23.8173   32.0119 C   0  0  0  0  0  0  0  0  0  0  0  0
    2.9412   23.4025   33.1170 C   0  0  0  0  0  0  0  0  0  0  0  0
    0.7567   20.2950   40.6559 C   0  0  0  0  0  0  0  0  0  0  0  0
   -0.7771   21.1771   41.5800 H   0  0  0  0  0  0  0  0  0  0  0  0
    0.0231   19.6538   42.3982 H   0  0  0  0  0  0  0  0  0  0  0  0
    1.8134   15.3761   41.7356 H   0  0  0  0  0  0  0  0  0  0  0  0
    3.3461   19.4470   41.8997 H   0  0  0  0  0  0  0  0  0  0  0  0
    3.9021   18.5484   40.4471 H   0  0  0  0  0  0  0  0  0  0  0  0
    3.8637   20.3442   40.4322 H   0  0  0  0  0  0  0  0  0  0  0  0
    2.1488   25.0527   35.7823 H   0  0  0  0  0  0  0  0  0  0  0  0
    0.8559   23.9541   34.9952 H   0  0  0  0  0  0  0  0  0  0  0  0
    4.5655   18.3265   37.4975 H   0  0  0  0  0  0  0  0  0  0  0  0
    1.7983   18.4082   40.7221 H   0  0  0  0  0  0  0  0  0  0  0  0
    2.8610   23.9063   29.4520 H   0  0  0  0  0  0  0  0  0  0  0  0
    3.7012   25.4143   28.9558 H   0  0  0  0  0  0  0  0  0  0  0  0
    1.4879   15.9274   38.4969 H   0  0  0  0  0  0  0  0  0  0  0  0
    1.8409   17.1401   39.9272 H   0  0  0  0  0  0  0  0  0  0  0  0
    2.0358   21.4676   34.3419 H   0  0  0  0  0  0  0  0  0  0  0  0
    1.7236   22.4362   36.0116 H   0  0  0  0  0  0  0  0  0  0  0  0
    3.5749   14.3440   38.8294 H   0  0  0  0  0  0  0  0  0  0  0  0
    2.0348   24.8119   34.6110 H   0  0  0  0  0  0  0  0  0  0  0  0
    3.8296   23.5010   35.1282 H   0  0  0  0  0  0  0  0  0  0  0  0
    4.7792   22.6592   29.0424 H   0  0  0  0  0  0  0  0  0  0  0  0
    5.5704   24.1249   28.4073 H   0  0  0  0  0  0  0  0  0  0  0  0
    5.3076   23.7257   31.3857 H   0  0  0  0  0  0  0  0  0  0  0  0
    6.5866   22.8525   30.4758 H   0  0  0  0  0  0  0  0  0  0  0  0
    6.5390   24.6480   30.4584 H   0  0  0  0  0  0  0  0  0  0  0  0
    6.0396   13.4282   39.2210 H   0  0  0  0  0  0  0  0  0  0  0  0
    5.3535   13.1493   37.5845 H   0  0  0  0  0  0  0  0  0  0  0  0
    6.4539   14.5396   37.8721 H   0  0  0  0  0  0  0  0  0  0  0  0
    4.7847   25.4311   31.3030 H   0  0  0  0  0  0  0  0  0  0  0  0
    3.0102   25.7416   31.2590 H   0  0  0  0  0  0  0  0  0  0  0  0
    3.1867   23.0796   31.2893 H   0  0  0  0  0  0  0  0  0  0  0  0
    4.4522   24.0911   32.6028 H   0  0  0  0  0  0  0  0  0  0  0  0
    2.9634   22.3195   32.9259 H   0  0  0  0  0  0  0  0  0  0  0  0
    2.3644   24.3391   33.1215 H   0  0  0  0  0  0  0  0  0  0  0  0
    0.5873   21.0856   39.9102 H   0  0  0  0  0  0  0  0  0  0  0  0
  5 10  1  0
  5 13  2  3
  6 10  2  3
  7  3  1  0
  7 30  1  0
  8 17  1  0
  8 20  1  0
  9 25  2  0
 10 14  1  0
 11 27  1  0
 12  2  1  0
 13 12  1  0
 14  7  1  0
 15 26  1  0
 17 20  1  0
 17 16  2  0
 18 26  2  0
 19 25  1  0
 20  4  1  0
 21 29  1  0
 21  4  1  0
 21 15  1  0
 22 11  1  0
 22 23  1  0
 24 19  1  0
 25 13  1  0
 26  6  1  0
 27 28  1  0
 28 29  1  0
 30  1  2  3
  1 31  1  0
  1 32  1  0
  2 33  1  0
  3 34  1  0
  3 35  1  0
  3 36  1  0
  4 37  1  0
  4 38  1  0
  5 39  1  0
  7 40  1  6
 11 41  1  0
 11 42  1  0
 12 43  1  0
 12 44  1  0
 15 45  1  0
 15 46  1  0
 19 47  1  0
 20 48  1  6
 21 49  1  1
 22 50  1  0
 22 51  1  0
 23 52  1  0
 23 53  1  0
 23 54  1  0
 24 55  1  0
 24 56  1  0
 24 57  1  0
 27 58  1  0
 27 59  1  0
 28 60  1  0
 28 61  1  0
 29 62  1  0
 29 63  1  0
 30 64  1  0
M  END
>  <mol_id>  (17) 
2026-09-16-6tgu-s0-n100-0017

>  <rmsd_to_ref>  (17) 


$$$$

     RDKit          3D

 61 61  0  0  0  0  0  0  0  0999 V2000
    1.3015   21.7493   40.0734 N   0  0  0  0  0  0  0  0  0  0  0  0
    0.8709   16.6746   40.8633 O   0  0  0  0  0  0  0  0  0  0  0  0
    3.4624   20.9170   35.7478 C   0  0  0  0  0  0  0  0  0  0  0  0
    2.7739   15.9129   37.9654 C   0  0  0  0  0  0  0  0  0  0  0  0
    3.6791   24.5660   32.5278 C   0  0  0  0  0  0  0  0  0  0  0  0
    4.7797   22.2616   31.5857 C   0  0  0  0  0  0  0  0  0  0  0  0
    2.2603   20.6129   38.0971 C   0  0  0  0  0  0  0  0  0  0  0  0
    2.3842   28.2522   30.6837 N   0  0  0  0  0  0  0  0  0  0  0  0
    4.4860   21.1709   35.4478 O   0  0  0  0  0  0  0  0  0  0  0  0
    2.0102   15.8079   39.0858 N   0  0  0  0  0  0  0  0  0  0  0  0
    5.3101   22.4866   29.8624 C   0  0  2  0  0  0  0  0  0  0  0  0
    4.6329   23.8422   29.8893 C   0  0  2  0  0  0  0  0  0  0  0  0
    1.6897   20.6082   39.4078 C   0  0  0  0  0  0  0  0  0  0  0  0
    1.5927   16.8418   39.7959 C   0  0  0  0  0  0  0  0  0  0  0  0
    3.8384   24.6890   30.9738 C   0  0  2  0  0  0  0  0  0  0  0  0
    2.9295   19.5208   37.5392 C   0  0  0  0  0  0  0  0  0  0  0  0
    4.7398   23.1057   27.6223 C   0  0  0  0  0  0  0  0  0  0  0  0
    0.7525   21.6937   41.2132 O   0  0  0  0  0  0  0  0  0  0  0  0
    2.3600   26.8251   30.6060 C   0  0  2  0  0  0  0  0  0  0  0  0
    2.7743   18.3106   38.1261 C   0  0  0  0  0  0  0  0  0  0  0  0
    2.2040   28.7829   32.0975 C   0  0  0  0  0  0  0  0  0  0  0  0
    2.0185   18.2725   39.3344 C   0  0  0  0  0  0  0  0  0  0  0  0
    1.0990   25.8497   30.4818 C   0  0  0  0  0  0  0  0  0  0  0  0
    1.5838   19.3852   40.0211 C   0  0  0  0  0  0  0  0  0  0  0  0
    3.8085   26.2803   30.6617 C   0  0  0  0  0  0  0  0  0  0  0  0
    3.2632   17.0739   37.5083 C   0  0  0  0  0  0  0  0  0  0  0  0
    5.6179   22.3248   28.3770 C   0  0  0  0  0  0  0  0  0  0  0  0
    2.3918   21.1815   35.4652 O   0  0  0  0  0  0  0  0  0  0  0  0
    4.1506   24.3389   28.4877 S   0  0  0  0  0  0  0  0  0  0  0  0
    1.4940   22.7940   39.4607 O   0  0  0  0  0  0  0  0  0  0  0  0
    3.4732   20.1862   36.5698 H   0  0  0  0  0  0  0  0  0  0  0  0
    3.0025   14.9951   37.4038 H   0  0  0  0  0  0  0  0  0  0  0  0
    3.6304   25.5710   32.9722 H   0  0  0  0  0  0  0  0  0  0  0  0
    2.7542   24.0175   32.7593 H   0  0  0  0  0  0  0  0  0  0  0  0
    4.5411   24.0230   32.9429 H   0  0  0  0  0  0  0  0  0  0  0  0
    5.2102   23.0592   32.2089 H   0  0  0  0  0  0  0  0  0  0  0  0
    3.6819   22.3058   31.6401 H   0  0  0  0  0  0  0  0  0  0  0  0
    5.1258   21.2835   31.9510 H   0  0  0  0  0  0  0  0  0  0  0  0
    2.1672   21.5281   37.4938 H   0  0  0  0  0  0  0  0  0  0  0  0
    1.6244   28.6242   30.0961 H   0  0  0  0  0  0  0  0  0  0  0  0
    3.3125   28.5589   30.3597 H   0  0  0  0  0  0  0  0  0  0  0  0
    1.7406   14.8649   39.4004 H   0  0  0  0  0  0  0  0  0  0  0  0
    6.0015   21.6312   29.8723 H   0  0  0  0  0  0  0  0  0  0  0  0
    5.5544   23.9535   30.4795 H   0  0  0  0  0  0  0  0  0  0  0  0
    3.0683   23.9400   30.7372 H   0  0  0  0  0  0  0  0  0  0  0  0
    3.5642   19.6407   36.6488 H   0  0  0  0  0  0  0  0  0  0  0  0
    5.2769   23.5057   26.7496 H   0  0  0  0  0  0  0  0  0  0  0  0
    3.8980   22.4718   27.3069 H   0  0  0  0  0  0  0  0  0  0  0  0
    2.4226   26.8837   29.5094 H   0  0  0  0  0  0  0  0  0  0  0  0
    2.2364   27.9457   32.8102 H   0  0  0  0  0  0  0  0  0  0  0  0
    3.0121   29.4927   32.3285 H   0  0  0  0  0  0  0  0  0  0  0  0
    1.2332   29.2942   32.1763 H   0  0  0  0  0  0  0  0  0  0  0  0
    0.6292   25.7301   31.4693 H   0  0  0  0  0  0  0  0  0  0  0  0
    0.3704   26.2800   29.7788 H   0  0  0  0  0  0  0  0  0  0  0  0
    1.4298   24.8680   30.1118 H   0  0  0  0  0  0  0  0  0  0  0  0
    1.1632   19.2955   41.0335 H   0  0  0  0  0  0  0  0  0  0  0  0
    4.3584   26.8095   31.4538 H   0  0  0  0  0  0  0  0  0  0  0  0
    4.2756   26.4463   29.6797 H   0  0  0  0  0  0  0  0  0  0  0  0
    4.0062   17.0983   36.6976 H   0  0  0  0  0  0  0  0  0  0  0  0
    5.5023   21.2682   28.0935 H   0  0  0  0  0  0  0  0  0  0  0  0
    6.6505   22.6507   28.1833 H   0  0  0  0  0  0  0  0  0  0  0  0
  1 18  1  0
  4 10  1  0
  7 13  2  0
  8 21  1  0
  9  3  2  0
 10 14  1  0
 11 12  1  0
 11  6  1  0
 12 15  1  0
 13 24  1  0
 13  1  1  0
 14  2  2  0
 15  5  1  0
 16 20  2  0
 16  7  1  0
 17 27  1  0
 17 29  1  0
 19 23  1  0
 19  8  1  0
 20 22  1  0
 22 14  1  0
 22 24  2  0
 25 15  1  0
 25 19  1  0
 26  4  2  0
 26 20  1  0
 27 11  1  0
 28  3  1  0
 29 12  1  0
 30  1  2  0
  3 31  1  0
  4 32  1  0
  5 33  1  0
  5 34  1  0
  5 35  1  0
  6 36  1  0
  6 37  1  0
  6 38  1  0
  7 39  1  0
  8 40  1  0
  8 41  1  0
 10 42  1  0
 11 43  1  1
 12 44  1  6
 15 45  1  6
 16 46  1  0
 17 47  1  0
 17 48  1  0
 19 49  1  6
 21 50  1  0
 21 51  1  0
 21 52  1  0
 23 53  1  0
 23 54  1  0
 23 55  1  0
 24 56  1  0
 25 57  1  0
 25 58  1  0
 26 59  1  0
 27 60  1  0
 27 61  1  0
M  CHG  4   1   1   8   1  18  -1  28  -1
M  END
>  <mol_id>  (18) 
2026-09-16-6tgu-s0-n100-0018

>  <rmsd_to_ref>  (18) 


$$$$

     RDKit          3D

 73 76  0  0  0  0  0  0  0  0999 V2000
    3.1025   22.4724   34.1332 C   0  0  0  0  0  0  0  0  0  0  0  0
    2.9105   18.9219   40.3933 C   0  0  0  0  0  0  0  0  0  0  0  0
    0.6694   26.1497   27.8467 C   0  0  0  0  0  0  0  0  0  0  0  0
    2.1279   23.4412   34.5191 C   0  0  0  0  0  0  0  0  0  0  0  0
    2.3734   27.0080   31.5344 C   0  0  0  0  0  0  0  0  0  0  0  0
    0.6941   21.6544   39.1315 C   0  0  0  0  0  0  0  0  0  0  0  0
    1.6750   24.4260   33.6296 C   0  0  0  0  0  0  0  0  0  0  0  0
    2.7116   15.1301   38.1282 C   0  0  0  0  0  0  0  0  0  0  0  0
    4.1261   11.9320   36.7880 C   0  0  0  0  0  0  0  0  0  0  0  0
    2.9047   14.0146   37.1115 C   0  0  0  0  0  0  0  0  0  0  0  0
    3.9590   22.8614   33.0290 C   0  0  0  0  0  0  0  0  0  0  0  0
    2.1373   24.4852   32.4284 C   0  0  0  0  0  0  0  0  0  0  0  0
    1.4548   20.5354   39.1177 C   0  0  0  0  0  0  0  0  0  0  0  0
    1.3447   26.2523   31.6649 C   0  0  2  0  0  0  0  0  0  0  0  0
    0.0568   26.2849   31.0754 C   0  0  0  0  0  0  0  0  0  0  0  0
    3.1698   20.2327   34.8107 C   0  0  0  0  0  0  0  0  0  0  0  0
    5.4615   13.6718   38.1857 S   0  0  0  0  0  0  0  0  0  0  0  0
    1.7433   15.1478   38.8388 O   0  0  0  0  0  0  0  0  0  0  0  0
    3.2791   18.3296   39.0451 C   0  0  0  0  0  0  0  0  0  0  0  0
    1.7952   19.8630   40.3892 C   0  0  0  0  0  0  0  0  0  0  0  0
   -0.0843   21.9516   40.2503 C   0  0  0  0  0  0  0  0  0  0  0  0
    1.5932   27.6329   32.3607 C   0  0  0  0  0  0  0  0  0  0  0  0
    4.1499   19.6454   40.9747 C   0  0  0  0  0  0  0  0  0  0  0  0
    4.0447   17.1168   39.0815 N   0  0  0  0  0  0  0  0  0  0  0  0
    1.4103   26.1935   30.4250 C   0  0  1  0  0  0  0  0  0  0  0  0
    0.0689   21.1615   41.4218 C   0  0  0  0  0  0  0  0  0  0  0  0
    2.8243   18.8976   37.8312 C   0  0  0  0  0  0  0  0  0  0  0  0
    3.7589   13.0009   37.8116 C   0  0  2  0  0  0  0  0  0  0  0  0
    0.9783   20.1743   41.4682 C   0  0  0  0  0  0  0  0  0  0  0  0
    3.9592   16.0728   38.0554 C   0  0  0  0  0  0  0  0  0  0  0  0
    3.4266   23.7624   32.1859 C   0  0  0  0  0  0  0  0  0  0  0  0
    2.0701   20.0159   37.8935 C   0  0  0  0  0  0  0  0  0  0  0  0
    1.6173   24.9869   31.2619 C   0  0  1  0  0  0  0  0  0  0  0  0
    3.1571   21.2992   34.6101 C   0  0  0  0  0  0  0  0  0  0  0  0
    1.4670   25.5501   29.0608 C   0  0  0  0  0  0  0  0  0  0  0  0
    4.1619   12.5003   35.4592 O   0  0  0  0  0  0  0  0  0  0  0  0
   -0.1551   26.7737   28.2219 H   0  0  0  0  0  0  0  0  0  0  0  0
    1.3440   26.7641   27.2324 H   0  0  0  0  0  0  0  0  0  0  0  0
    0.2610   25.3309   27.2360 H   0  0  0  0  0  0  0  0  0  0  0  0
    1.7216   23.4146   35.5409 H   0  0  0  0  0  0  0  0  0  0  0  0
    2.5392   27.4693   30.5497 H   0  0  0  0  0  0  0  0  0  0  0  0
    3.4330   26.7437   31.6667 H   0  0  0  0  0  0  0  0  0  0  0  0
    0.6895   22.3284   38.2623 H   0  0  0  0  0  0  0  0  0  0  0  0
    0.9190   25.1536   33.9599 H   0  0  0  0  0  0  0  0  0  0  0  0
    5.1160   11.5198   37.0330 H   0  0  0  0  0  0  0  0  0  0  0  0
    3.3683   11.1352   36.8157 H   0  0  0  0  0  0  0  0  0  0  0  0
    3.4119   14.3939   36.2120 H   0  0  0  0  0  0  0  0  0  0  0  0
    1.9475   13.5895   36.7752 H   0  0  0  0  0  0  0  0  0  0  0  0
    4.9696   22.4493   32.8918 H   0  0  0  0  0  0  0  0  0  0  0  0
   -0.6187   25.4180   31.1215 H   0  0  0  0  0  0  0  0  0  0  0  0
   -0.8316   26.9333   31.0564 H   0  0  0  0  0  0  0  0  0  0  0  0
    3.1827   19.1518   35.0140 H   0  0  0  0  0  0  0  0  0  0  0  0
    5.6097   13.8117   39.5405 H   0  0  0  0  0  0  0  0  0  0  0  0
   -0.8042   22.7830   40.2263 H   0  0  0  0  0  0  0  0  0  0  0  0
    1.8884   27.3967   33.3937 H   0  0  0  0  0  0  0  0  0  0  0  0
    1.6760   28.7171   32.1945 H   0  0  0  0  0  0  0  0  0  0  0  0
    0.5533   27.3149   32.1948 H   0  0  0  0  0  0  0  0  0  0  0  0
    4.0731   19.6804   42.0714 H   0  0  0  0  0  0  0  0  0  0  0  0
    5.0610   19.0997   40.6881 H   0  0  0  0  0  0  0  0  0  0  0  0
    4.1961   20.6701   40.5775 H   0  0  0  0  0  0  0  0  0  0  0  0
    4.6894   16.9716   39.8714 H   0  0  0  0  0  0  0  0  0  0  0  0
   -0.5638   21.3606   42.2993 H   0  0  0  0  0  0  0  0  0  0  0  0
    3.0782   18.4405   36.8633 H   0  0  0  0  0  0  0  0  0  0  0  0
    3.2035   12.6822   38.7060 H   0  0  0  0  0  0  0  0  0  0  0  0
    1.0797   19.5907   42.3951 H   0  0  0  0  0  0  0  0  0  0  0  0
    4.8588   15.4454   38.1397 H   0  0  0  0  0  0  0  0  0  0  0  0
    3.8673   16.6082   37.0988 H   0  0  0  0  0  0  0  0  0  0  0  0
    3.9732   23.9834   31.2573 H   0  0  0  0  0  0  0  0  0  0  0  0
    1.9062   20.5756   36.9608 H   0  0  0  0  0  0  0  0  0  0  0  0
    1.5893   23.9738   30.8344 H   0  0  0  0  0  0  0  0  0  0  0  0
    1.1119   24.5168   29.1878 H   0  0  0  0  0  0  0  0  0  0  0  0
    2.5140   25.7088   28.7630 H   0  0  0  0  0  0  0  0  0  0  0  0
    4.1064   13.4868   35.5206 H   0  0  0  0  0  0  0  0  0  0  0  0
  1 34  1  0
  1  4  1  0
  2 20  1  0
  2 23  1  0
  3 35  1  0
  5 22  1  0
  6 21  1  0
  7  4  2  0
  8 18  2  0
  9 28  1  0
 10 28  1  0
 10  8  1  0
 11  1  2  0
 12  7  1  0
 13  6  2  0
 13 20  1  0
 14  5  1  1
 15 14  1  0
 19  2  2  0
 20 29  2  0
 21 26  2  0
 24 19  1  0
 25 35  1  6
 25 15  1  0
 25 33  1  0
 25 14  1  0
 27 32  2  0
 27 19  1  0
 28 17  1  0
 29 26  1  0
 30  8  1  0
 30 24  1  0
 31 12  2  0
 31 11  1  0
 32 13  1  0
 33 14  1  0
 33 12  1  0
 34 16  3  0
 36  9  1  0
  3 37  1  0
  3 38  1  0
  3 39  1  0
  4 40  1  0
  5 41  1  0
  5 42  1  0
  6 43  1  0
  7 44  1  0
  9 45  1  0
  9 46  1  0
 10 47  1  0
 10 48  1  0
 11 49  1  0
 15 50  1  0
 15 51  1  0
 16 52  1  0
 17 53  1  0
 21 54  1  0
 22 55  1  0
 22 56  1  0
 22 57  1  0
 23 58  1  0
 23 59  1  0
 23 60  1  0
 24 61  1  0
 26 62  1  0
 27 63  1  0
 28 64  1  1
 29 65  1  0
 30 66  1  0
 30 67  1  0
 31 68  1  0
 32 69  1  0
 33 70  1  6
 35 71  1  0
 35 72  1  0
 36 73  1  0
M  END
>  <mol_id>  (19) 
2026-09-16-6tgu-s0-n100-0019

>  <rmsd_to_ref>  (19) 


$$$$

     RDKit          3D

 43 42  0  0  0  0  0  0  0  0999 V2000
    2.0656   22.9453   35.4441 O   0  0  0  0  0  0  0  0  0  0  0  0
    3.8824   20.4069   36.7417 C   0  0  0  0  0  0  0  0  0  0  0  0
    0.2923   17.5050   43.2135 C   0  0  0  0  0  0  0  0  0  0  0  0
    0.6762   20.7051   39.8412 C   0  0  0  0  0  0  0  0  0  0  0  0
    1.1085   18.5837   42.4726 C   0  0  0  0  0  0  0  0  0  0  0  0
    0.9148   15.7759   40.0564 C   0  0  0  0  0  0  0  0  0  0  0  0
   -0.0511   19.6991   42.6121 C   0  0  0  0  0  0  0  0  0  0  0  0
    1.9253   17.2339   40.6669 C   0  0  0  0  0  0  0  0  0  0  0  0
    3.2946   22.4123   35.8443 C   0  0  0  0  0  0  0  0  0  0  0  0
    1.4612   19.4951   39.9217 C   0  0  0  0  0  0  0  0  0  0  0  0
    1.0354   18.4773   40.8729 C   0  0  2  0  0  0  0  0  0  0  0  0
    4.2151   22.0514   34.9401 O   0  0  0  0  0  0  0  0  0  0  0  0
    2.8637   21.3523   36.6346 C   0  0  2  0  0  0  0  0  0  0  0  0
    0.8345   20.7141   38.1309 C   0  0  0  0  0  0  0  0  0  0  0  0
    1.8660   21.6472   37.4903 C   0  0  0  0  0  0  0  0  0  0  0  0
    1.4744   23.0397   36.2325 H   0  0  0  0  0  0  0  0  0  0  0  0
    3.9659   20.0746   37.7869 H   0  0  0  0  0  0  0  0  0  0  0  0
    3.6508   19.5441   36.1000 H   0  0  0  0  0  0  0  0  0  0  0  0
    4.8345   20.8561   36.4227 H   0  0  0  0  0  0  0  0  0  0  0  0
    0.3362   17.6915   44.2967 H   0  0  0  0  0  0  0  0  0  0  0  0
   -0.7544   17.5418   42.8772 H   0  0  0  0  0  0  0  0  0  0  0  0
    0.7129   16.5124   42.9950 H   0  0  0  0  0  0  0  0  0  0  0  0
   -0.3595   20.5901   40.1936 H   0  0  0  0  0  0  0  0  0  0  0  0
    0.9653   21.5903   40.4267 H   0  0  0  0  0  0  0  0  0  0  0  0
    2.1507   18.6441   42.8193 H   0  0  0  0  0  0  0  0  0  0  0  0
    0.4689   15.2534   40.9156 H   0  0  0  0  0  0  0  0  0  0  0  0
    0.1160   16.1361   39.3915 H   0  0  0  0  0  0  0  0  0  0  0  0
    1.5670   15.0832   39.5042 H   0  0  0  0  0  0  0  0  0  0  0  0
   -0.3818   19.7552   43.6597 H   0  0  0  0  0  0  0  0  0  0  0  0
    0.3418   20.6776   42.2988 H   0  0  0  0  0  0  0  0  0  0  0  0
   -0.9030   19.4243   41.9729 H   0  0  0  0  0  0  0  0  0  0  0  0
    2.3985   16.9679   41.6237 H   0  0  0  0  0  0  0  0  0  0  0  0
    2.6889   17.4713   39.9115 H   0  0  0  0  0  0  0  0  0  0  0  0
    3.9008   23.1980   36.3187 H   0  0  0  0  0  0  0  0  0  0  0  0
    1.4585   19.0340   38.9231 H   0  0  0  0  0  0  0  0  0  0  0  0
    2.4454   19.8242   40.2864 H   0  0  0  0  0  0  0  0  0  0  0  0
   -0.0356   18.5253   40.6268 H   0  0  0  0  0  0  0  0  0  0  0  0
    4.9356   21.5414   35.3883 H   0  0  0  0  0  0  0  0  0  0  0  0
    2.1302   20.6117   36.2832 H   0  0  0  0  0  0  0  0  0  0  0  0
    1.0915   19.6893   37.8246 H   0  0  0  0  0  0  0  0  0  0  0  0
   -0.1317   21.1022   37.7764 H   0  0  0  0  0  0  0  0  0  0  0  0
    2.3706   22.1231   38.3440 H   0  0  0  0  0  0  0  0  0  0  0  0
    1.1962   22.1512   36.7780 H   0  0  0  0  0  0  0  0  0  0  0  0
  1  9  1  0
  4 10  1  0
  5  7  1  0
  5  3  1  0
  6  8  1  0
  8 11  1  0
  9 13  1  0
 11 10  1  0
 11  5  1  0
 12  9  1  0
 13  2  1  0
 13 15  1  0
 14  4  1  0
 15 14  1  0
  1 16  1  0
  2 17  1  0
  2 18  1  0
  2 19  1  0
  3 20  1  0
  3 21  1  0
  3 22  1  0
  4 23  1  0
  4 24  1  0
  5 25  1  0
  6 26  1  0
  6 27  1  0
  6 28  1  0
  7 29  1  0
  7 30  1  0
  7 31  1  0
  8 32  1  0
  8 33  1  0
  9 34  1  0
 10 35  1  0
 10 36  1  0
 11 37  1  1
 12 38  1  0
 13 39  1  6
 14 40  1  0
 14 41  1  0
 15 42  1  0
 15 43  1  0
M  END
>  <mol_id>  (20) 
2026-09-16-6tgu-s0-n100-0020

>  <rmsd_to_ref>  (20) 


$$$$

     RDKit          3D

 41 41  0  0  0  0  0  0  0  0999 V2000
    2.4011   19.0326   41.9646 C   0  0  0  0  0  0  0  0  0  0  0  0
    4.0993   20.8755   35.6913 C   0  0  0  0  0  0  0  0  0  0  0  0
    4.8099   22.9554   32.0021 C   0  0  0  0  0  0  0  0  0  0  0  0
    4.2298   24.2950   31.4416 C   0  0  0  0  0  0  0  0  0  0  0  0
    3.6613   20.3249   36.9922 C   0  0  0  0  0  0  0  0  0  0  0  0
    3.7548   19.0208   37.1896 C   0  0  0  0  0  0  0  0  0  0  0  0
    2.1135   16.9734   40.6671 C   0  0  0  0  0  0  0  0  0  0  0  0
    3.9319   25.2239   32.5992 C   0  0  0  0  0  0  0  0  0  0  0  0
    2.9744   19.0333   39.5679 C   0  0  0  0  0  0  0  0  0  0  0  0
    4.0428   22.6380   33.2323 C   0  0  0  0  0  0  0  0  0  0  0  0
    3.0941   18.2766   38.2822 C   0  0  0  0  0  0  0  0  0  0  0  0
    2.3152   19.5584   43.0437 N   0  0  0  0  0  0  0  0  0  0  0  0
    1.5859   15.0264   39.2379 C   0  0  0  0  0  0  0  0  0  0  0  0
    4.0139   23.1037   34.3932 C   0  0  0  0  0  0  0  0  0  0  0  0
    2.1001   16.2559   39.3602 C   0  0  0  0  0  0  0  0  0  0  0  0
    2.6876   16.9356   38.2426 C   0  0  0  0  0  0  0  0  0  0  0  0
    3.6340   22.3229   35.6927 C   0  0  0  0  0  0  0  0  0  0  0  0
    2.4745   18.3890   40.7387 C   0  0  0  0  0  0  0  0  0  0  0  0
    5.1941   20.8226   35.5992 H   0  0  0  0  0  0  0  0  0  0  0  0
    3.6816   20.3107   34.8447 H   0  0  0  0  0  0  0  0  0  0  0  0
    5.8768   23.0754   32.2415 H   0  0  0  0  0  0  0  0  0  0  0  0
    4.7215   22.1466   31.2620 H   0  0  0  0  0  0  0  0  0  0  0  0
    4.9656   24.7641   30.7718 H   0  0  0  0  0  0  0  0  0  0  0  0
    3.3066   24.0941   30.8784 H   0  0  0  0  0  0  0  0  0  0  0  0
    3.2664   20.9857   37.7780 H   0  0  0  0  0  0  0  0  0  0  0  0
    4.3730   18.4447   36.4854 H   0  0  0  0  0  0  0  0  0  0  0  0
    1.8490   16.4322   41.5875 H   0  0  0  0  0  0  0  0  0  0  0  0
    4.1513   24.7107   33.5470 H   0  0  0  0  0  0  0  0  0  0  0  0
    4.5577   26.1248   32.5168 H   0  0  0  0  0  0  0  0  0  0  0  0
    2.8705   25.5114   32.5749 H   0  0  0  0  0  0  0  0  0  0  0  0
    3.2731   20.0912   39.6103 H   0  0  0  0  0  0  0  0  0  0  0  0
    2.9981   22.7365   32.9023 H   0  0  0  0  0  0  0  0  0  0  0  0
    4.6403   21.7527   33.4957 H   0  0  0  0  0  0  0  0  0  0  0  0
    1.5800   14.5320   40.2205 H   0  0  0  0  0  0  0  0  0  0  0  0
    0.5565   15.0959   38.8562 H   0  0  0  0  0  0  0  0  0  0  0  0
    2.1983   14.4410   38.5364 H   0  0  0  0  0  0  0  0  0  0  0  0
    5.0292   23.4862   34.5745 H   0  0  0  0  0  0  0  0  0  0  0  0
    3.1347   23.7592   34.3077 H   0  0  0  0  0  0  0  0  0  0  0  0
    2.8264   16.3759   37.3059 H   0  0  0  0  0  0  0  0  0  0  0  0
    4.0919   22.8345   36.5522 H   0  0  0  0  0  0  0  0  0  0  0  0
    2.5356   22.3085   35.7507 H   0  0  0  0  0  0  0  0  0  0  0  0
  1 12  3  0
  2  5  1  0
  3 10  1  0
  4  3  1  0
  4  8  1  0
  5  6  2  3
  6 11  1  0
  9 18  2  0
 10 14  1  0
 11 16  2  0
 11  9  1  0
 14 17  1  0
 15 13  1  0
 15  7  2  0
 16 15  1  0
 17  2  1  0
 18  7  1  0
 18  1  1  0
  2 19  1  0
  2 20  1  0
  3 21  1  0
  3 22  1  0
  4 23  1  0
  4 24  1  0
  5 25  1  0
  6 26  1  0
  7 27  1  0
  8 28  1  0
  8 29  1  0
  8 30  1  0
  9 31  1  0
 10 32  1  0
 10 33  1  0
 13 34  1  0
 13 35  1  0
 13 36  1  0
 14 37  1  0
 14 38  1  0
 16 39  1  0
 17 40  1  0
 17 41  1  0
M  END
>  <mol_id>  (21) 
2026-09-16-6tgu-s0-n100-0021

>  <rmsd_to_ref>  (21) 


$$$$

     RDKit          3D

 52 51  0  0  0  0  0  0  0  0999 V2000
    2.0568   17.2864   40.7725 C   0  0  0  0  0  0  0  0  0  0  0  0
    1.2107   23.7532   30.4043 F   0  0  0  0  0  0  0  0  0  0  0  0
    1.9309   24.7811   30.2281 C   0  0  0  0  0  0  0  0  0  0  0  0
    0.1071   17.1863   42.8589 C   0  0  0  0  0  0  0  0  0  0  0  0
    1.2945   16.0836   41.0585 C   0  0  0  0  0  0  0  0  0  0  0  0
    0.7312   18.4255   42.5059 C   0  0  0  0  0  0  0  0  0  0  0  0
    2.5714   15.7057   39.2844 N   0  0  0  0  0  0  0  0  0  0  0  0
    2.6625   25.1122   31.3156 F   0  0  0  0  0  0  0  0  0  0  0  0
   -0.9113   26.9417   30.4713 C   0  0  0  0  0  0  0  0  0  0  0  0
    3.2860   19.1979   36.2338 N   0  0  0  0  0  0  0  0  0  0  0  0
   -0.5459   26.2288   31.6861 O   0  0  0  0  0  0  0  0  0  0  0  0
   -0.8770   17.1161   43.9997 C   0  0  0  0  0  0  0  0  0  0  0  0
    1.9983   22.1444   35.3731 O   0  0  0  0  0  0  0  0  0  0  0  0
   -1.5750   26.0636   29.4617 C   0  0  0  0  0  0  0  0  0  0  0  0
   -0.3551   25.2698   29.0796 C   0  0  0  0  0  0  0  0  0  0  0  0
    2.8504   18.2614   37.2004 C   0  0  0  0  0  0  0  0  0  0  0  0
    0.7595   26.6718   32.2373 C   0  0  0  0  0  0  0  0  0  0  0  0
    3.7908   21.1868   34.3327 O   0  0  0  0  0  0  0  0  0  0  0  0
    2.6370   20.3613   36.2908 C   0  0  0  0  0  0  0  0  0  0  0  0
    1.6492   15.0988   40.0087 C   0  0  0  0  0  0  0  0  0  0  0  0
    1.1483   14.0074   39.9600 O   0  0  0  0  0  0  0  0  0  0  0  0
    1.6614   18.4482   41.4623 C   0  0  0  0  0  0  0  0  0  0  0  0
    1.0364   26.0697   29.4691 S   0  0  0  0  0  0  0  0  0  0  0  0
    2.8464   21.3384   35.2064 C   0  0  0  0  0  0  0  0  0  0  0  0
    2.1632   18.7546   38.1103 O   0  0  0  0  0  0  0  0  0  0  0  0
    4.3132   17.4651   39.5678 C   0  0  0  0  0  0  0  0  0  0  0  0
    0.3612   16.0442   42.0999 C   0  0  0  0  0  0  0  0  0  0  0  0
    3.1435   16.9682   36.9430 O   0  0  0  0  0  0  0  0  0  0  0  0
    2.9607   16.8721   39.8564 N   0  0  0  0  0  0  0  0  0  0  0  0
    2.7114   24.5307   29.4944 H   0  0  0  0  0  0  0  0  0  0  0  0
    0.4818   19.3488   43.0494 H   0  0  0  0  0  0  0  0  0  0  0  0
    2.9473   15.3398   38.3979 H   0  0  0  0  0  0  0  0  0  0  0  0
   -1.6013   27.7563   30.7361 H   0  0  0  0  0  0  0  0  0  0  0  0
    0.0164   27.3229   30.0195 H   0  0  0  0  0  0  0  0  0  0  0  0
    4.0322   19.0002   35.5519 H   0  0  0  0  0  0  0  0  0  0  0  0
   -0.3365   16.9284   44.9392 H   0  0  0  0  0  0  0  0  0  0  0  0
   -1.4211   18.0692   44.0737 H   0  0  0  0  0  0  0  0  0  0  0  0
   -1.5912   16.2994   43.8181 H   0  0  0  0  0  0  0  0  0  0  0  0
   -2.3639   25.4367   29.9029 H   0  0  0  0  0  0  0  0  0  0  0  0
   -2.1092   26.5697   28.6441 H   0  0  0  0  0  0  0  0  0  0  0  0
   -0.3744   24.3070   29.6114 H   0  0  0  0  0  0  0  0  0  0  0  0
   -0.3710   25.1168   27.9903 H   0  0  0  0  0  0  0  0  0  0  0  0
    0.7895   26.4677   33.3178 H   0  0  0  0  0  0  0  0  0  0  0  0
    1.5729   26.1250   31.7380 H   0  0  0  0  0  0  0  0  0  0  0  0
    0.8831   27.7511   32.0644 H   0  0  0  0  0  0  0  0  0  0  0  0
    1.5615   20.1321   36.3180 H   0  0  0  0  0  0  0  0  0  0  0  0
    3.0500   20.8562   37.1822 H   0  0  0  0  0  0  0  0  0  0  0  0
    2.1018   19.4124   41.1685 H   0  0  0  0  0  0  0  0  0  0  0  0
    4.8985   17.5131   40.4979 H   0  0  0  0  0  0  0  0  0  0  0  0
    4.8404   16.8367   38.8349 H   0  0  0  0  0  0  0  0  0  0  0  0
    4.1894   18.4791   39.1597 H   0  0  0  0  0  0  0  0  0  0  0  0
   -0.1742   15.1090   42.3208 H   0  0  0  0  0  0  0  0  0  0  0  0
  1  5  1  0
  1 22  2  0
  3  2  1  0
  3  8  1  0
  4 12  1  0
  5 27  2  0
  6  4  2  0
  7 29  1  0
  7 20  1  0
  9 11  1  0
 10 16  1  0
 11 17  1  0
 13 24  1  0
 14  9  1  0
 15 14  1  0
 15 23  1  0
 16 25  1  0
 18 24  2  0
 19 10  1  0
 20 21  2  0
 20  5  1  0
 22  6  1  0
 23  3  1  0
 24 19  1  0
 26 29  1  0
 27  4  1  0
 28 16  2  0
 29  1  1  0
  3 30  1  0
  6 31  1  0
  7 32  1  0
  9 33  1  0
  9 34  1  0
 10 35  1  0
 12 36  1  0
 12 37  1  0
 12 38  1  0
 14 39  1  0
 14 40  1  0
 15 41  1  0
 15 42  1  0
 17 43  1  0
 17 44  1  0
 17 45  1  0
 19 46  1  0
 19 47  1  0
 22 48  1  0
 26 49  1  0
 26 50  1  0
 26 51  1  0
 27 52  1  0
M  CHG  2  13  -1  25  -1
M  END
>  <mol_id>  (22) 
2026-09-16-6tgu-s0-n100-0022

>  <rmsd_to_ref>  (22) 


$$$$

     RDKit          3D

 61 60  0  0  0  0  0  0  0  0999 V2000
    1.3188   24.7968   34.5496 C   0  0  2  0  0  0  0  0  0  0  0  0
    1.8776   23.7170   35.3822 C   0  0  0  0  0  0  0  0  0  0  0  0
    2.3694   20.5692   39.3670 C   0  0  0  0  0  0  0  0  0  0  0  0
    1.4838   24.7298   32.9903 C   0  0  0  0  0  0  0  0  0  0  0  0
    2.2134   15.5738   40.0824 C   0  0  0  0  0  0  0  0  0  0  0  0
    1.6514   20.0175   42.0831 C   0  0  0  0  0  0  0  0  0  0  0  0
    3.1607   20.2051   37.0808 C   0  0  0  0  0  0  0  0  0  0  0  0
    1.1084   26.2475   35.1935 C   0  0  0  0  0  0  0  0  0  0  0  0
    1.5633   26.9556   32.1527 O   0  0  0  0  0  0  0  0  0  0  0  0
    1.6502   22.0497   37.4353 C   0  0  0  0  0  0  0  0  0  0  0  0
    3.3317   20.2939   35.7585 O   0  0  0  0  0  0  0  0  0  0  0  0
    0.6883   19.5029   43.1830 C   0  0  0  0  0  0  0  0  0  0  0  0
    1.3074   22.4937   35.9953 C   0  0  0  0  0  0  0  0  0  0  0  0
    2.7468   19.3511   39.9189 C   0  0  0  0  0  0  0  0  0  0  0  0
    3.3960   15.3189   39.4470 C   0  0  1  0  0  0  0  0  0  0  0  0
    3.6430   16.9765   39.5363 C   0  0  0  0  0  0  0  0  0  0  0  0
    1.8967   14.6179   41.2894 O   0  0  0  0  0  0  0  0  0  0  0  0
    3.7325   13.8217   39.4483 C   0  0  0  0  0  0  0  0  0  0  0  0
    3.3746   18.3472   39.1561 C   0  0  0  0  0  0  0  0  0  0  0  0
    2.3083   21.3450   42.3929 C   0  0  0  0  0  0  0  0  0  0  0  0
    2.3345   18.8262   41.5035 C   0  0  0  0  0  0  0  0  0  0  0  0
    0.7715   25.9115   32.3443 C   0  0  0  0  0  0  0  0  0  0  0  0
    2.4186   20.9200   37.9837 C   0  0  0  0  0  0  0  0  0  0  0  0
    0.2898   24.4159   34.6266 H   0  0  0  0  0  0  0  0  0  0  0  0
    2.6995   23.3260   34.7644 H   0  0  0  0  0  0  0  0  0  0  0  0
    1.8994   24.3019   36.3136 H   0  0  0  0  0  0  0  0  0  0  0  0
    1.9971   21.3363   40.0619 H   0  0  0  0  0  0  0  0  0  0  0  0
    2.5531   24.7638   32.7344 H   0  0  0  0  0  0  0  0  0  0  0  0
    1.0432   23.7929   32.6186 H   0  0  0  0  0  0  0  0  0  0  0  0
    1.4014   15.4771   39.3467 H   0  0  0  0  0  0  0  0  0  0  0  0
    2.2987   16.5868   40.5026 H   0  0  0  0  0  0  0  0  0  0  0  0
    1.1882   20.4517   41.1848 H   0  0  0  0  0  0  0  0  0  0  0  0
    3.7357   19.3875   37.5402 H   0  0  0  0  0  0  0  0  0  0  0  0
    1.3477   26.2107   36.2665 H   0  0  0  0  0  0  0  0  0  0  0  0
    1.7714   26.9697   34.6946 H   0  0  0  0  0  0  0  0  0  0  0  0
    0.0617   26.5588   35.0617 H   0  0  0  0  0  0  0  0  0  0  0  0
    1.8590   27.3104   33.0284 H   0  0  0  0  0  0  0  0  0  0  0  0
    0.6628   21.9361   37.9067 H   0  0  0  0  0  0  0  0  0  0  0  0
    2.4279   22.8088   37.6057 H   0  0  0  0  0  0  0  0  0  0  0  0
    3.9303   19.6574   35.2930 H   0  0  0  0  0  0  0  0  0  0  0  0
    1.0600   19.8138   44.1705 H   0  0  0  0  0  0  0  0  0  0  0  0
   -0.3144   19.9247   43.0191 H   0  0  0  0  0  0  0  0  0  0  0  0
    0.6357   18.4050   43.1399 H   0  0  0  0  0  0  0  0  0  0  0  0
    0.2149   22.6180   35.9658 H   0  0  0  0  0  0  0  0  0  0  0  0
    1.7787   21.7005   35.3964 H   0  0  0  0  0  0  0  0  0  0  0  0
    4.1309   15.0265   38.6825 H   0  0  0  0  0  0  0  0  0  0  0  0
    3.4808   17.0905   40.6183 H   0  0  0  0  0  0  0  0  0  0  0  0
    4.2832   16.8928   38.6457 H   0  0  0  0  0  0  0  0  0  0  0  0
    2.1647   15.0555   42.1360 H   0  0  0  0  0  0  0  0  0  0  0  0
    4.0176   13.5108   40.4643 H   0  0  0  0  0  0  0  0  0  0  0  0
    2.8525   13.2478   39.1226 H   0  0  0  0  0  0  0  0  0  0  0  0
    4.5688   13.6333   38.7590 H   0  0  0  0  0  0  0  0  0  0  0  0
    4.3607   18.7645   38.9042 H   0  0  0  0  0  0  0  0  0  0  0  0
    2.5702   18.1634   38.4287 H   0  0  0  0  0  0  0  0  0  0  0  0
    2.4434   21.4423   43.4803 H   0  0  0  0  0  0  0  0  0  0  0  0
    3.2883   21.3940   41.8958 H   0  0  0  0  0  0  0  0  0  0  0  0
    1.6707   22.1637   42.0280 H   0  0  0  0  0  0  0  0  0  0  0  0
    1.6577   17.9598   41.4695 H   0  0  0  0  0  0  0  0  0  0  0  0
    3.2037   18.4959   42.0910 H   0  0  0  0  0  0  0  0  0  0  0  0
   -0.0598   26.2179   32.9963 H   0  0  0  0  0  0  0  0  0  0  0  0
    0.4203   25.5813   31.3555 H   0  0  0  0  0  0  0  0  0  0  0  0
  1  2  1  0
  1  8  1  0
  2 13  1  0
  3 14  2  3
  4  1  1  0
  5 17  1  0
  6 20  1  0
  6 12  1  0
  7 23  2  3
 10 23  1  0
 11  7  1  0
 13 10  1  0
 14 21  1  0
 15 18  1  0
 15 16  1  0
 15  5  1  0
 19 16  1  0
 19 14  1  0
 21  6  1  0
 22  9  1  0
 22  4  1  0
 23  3  1  0
  1 24  1  6
  2 25  1  0
  2 26  1  0
  3 27  1  0
  4 28  1  0
  4 29  1  0
  5 30  1  0
  5 31  1  0
  6 32  1  0
  7 33  1  0
  8 34  1  0
  8 35  1  0
  8 36  1  0
  9 37  1  0
 10 38  1  0
 10 39  1  0
 11 40  1  0
 12 41  1  0
 12 42  1  0
 12 43  1  0
 13 44  1  0
 13 45  1  0
 15 46  1  6
 16 47  1  0
 16 48  1  0
 17 49  1  0
 18 50  1  0
 18 51  1  0
 18 52  1  0
 19 53  1  0
 19 54  1  0
 20 55  1  0
 20 56  1  0
 20 57  1  0
 21 58  1  0
 21 59  1  0
 22 60  1  0
 22 61  1  0
M  END
>  <mol_id>  (23) 
2026-09-16-6tgu-s0-n100-0023

>  <rmsd_to_ref>  (23) 


$$$$

     RDKit          3D

 65 68  0  0  0  0  0  0  0  0999 V2000
    3.3560   24.3756   32.2673 C   0  0  0  0  0  0  0  0  0  0  0  0
    5.1355   15.4562   39.5079 C   0  0  1  0  0  0  0  0  0  0  0  0
    4.3021   24.4814   31.2343 C   0  0  0  0  0  0  0  0  0  0  0  0
    5.9118   22.4264   34.6572 C   0  0  0  0  0  0  0  0  0  0  0  0
    5.9820   23.2539   32.3520 C   0  0  0  0  0  0  0  0  0  0  0  0
    5.5830   23.8881   31.2383 C   0  0  0  0  0  0  0  0  0  0  0  0
    4.6466   17.3393   38.5551 C   0  0  0  0  0  0  0  0  0  0  0  0
    1.7996   25.4453   30.8208 C   0  0  0  0  0  0  0  0  0  0  0  0
    7.2528   14.3132   38.1752 O   0  0  0  0  0  0  0  0  0  0  0  0
    2.7422   25.7189   29.8780 C   0  0  0  0  0  0  0  0  0  0  0  0
    2.0726   24.9016   32.0087 C   0  0  0  0  0  0  0  0  0  0  0  0
    3.8786   23.6873   33.4217 C   0  0  0  0  0  0  0  0  0  0  0  0
    5.0770   25.4467   29.5688 O   0  0  0  0  0  0  0  0  0  0  0  0
    2.1710   18.9703   39.2012 C   0  0  0  0  0  0  0  0  0  0  0  0
    5.3985   21.1068   35.0366 C   0  0  0  0  0  0  0  0  0  0  0  0
    2.6585   19.5833   38.3319 C   0  0  0  0  0  0  0  0  0  0  0  0
    3.1400   15.5460   40.7293 N   0  0  0  0  0  0  0  0  0  0  0  0
    6.4168   13.4694   35.6249 C   0  0  0  0  0  0  0  0  0  0  0  0
    4.4915   14.8630   40.2618 C   0  0  0  0  0  0  0  0  0  0  0  0
    1.7278   15.5875   41.4505 C   0  0  0  0  0  0  0  0  0  0  0  0
    6.2427   14.7228   36.3147 N   0  0  0  0  0  0  0  0  0  0  0  0
    2.3940   20.5503   37.2626 C   0  0  0  0  0  0  0  0  0  0  0  0
    3.3019   16.9267   40.3075 C   0  0  1  0  0  0  0  0  0  0  0  0
    5.4592   16.0822   38.3913 C   0  0  2  0  0  0  0  0  0  0  0  0
    1.6580   18.0746   41.1186 O   0  0  0  0  0  0  0  0  0  0  0  0
    3.9687   25.1834   30.1239 C   0  0  0  0  0  0  0  0  0  0  0  0
    3.9340   21.2495   35.4175 C   0  0  0  0  0  0  0  0  0  0  0  0
    3.6968   20.7692   36.7372 C   0  0  0  0  0  0  0  0  0  0  0  0
    4.2460   17.1873   39.4596 C   0  0  1  0  0  0  0  0  0  0  0  0
    2.4717   17.8766   40.1499 C   0  0  0  0  0  0  0  0  0  0  0  0
    6.3664   14.9322   37.5452 C   0  0  0  0  0  0  0  0  0  0  0  0
    5.1340   23.1334   33.4552 C   0  0  0  0  0  0  0  0  0  0  0  0
    4.6668   20.4655   37.5204 O   0  0  0  0  0  0  0  0  0  0  0  0
    5.8606   14.6549   39.7133 H   0  0  0  0  0  0  0  0  0  0  0  0
    5.8486   23.0831   35.5374 H   0  0  0  0  0  0  0  0  0  0  0  0
    6.9413   22.2659   34.3047 H   0  0  0  0  0  0  0  0  0  0  0  0
    6.9928   22.8223   32.3966 H   0  0  0  0  0  0  0  0  0  0  0  0
    6.2353   23.9440   30.3542 H   0  0  0  0  0  0  0  0  0  0  0  0
    5.2821   18.2370   38.5395 H   0  0  0  0  0  0  0  0  0  0  0  0
    3.9119   17.5140   37.7553 H   0  0  0  0  0  0  0  0  0  0  0  0
    0.7514   25.6863   30.5902 H   0  0  0  0  0  0  0  0  0  0  0  0
    2.3852   25.3277   28.9139 H   0  0  0  0  0  0  0  0  0  0  0  0
    2.8752   26.8108   29.8815 H   0  0  0  0  0  0  0  0  0  0  0  0
    1.2961   24.8635   32.7870 H   0  0  0  0  0  0  0  0  0  0  0  0
    3.2428   23.6024   34.3153 H   0  0  0  0  0  0  0  0  0  0  0  0
    1.1444   19.3277   39.3692 H   0  0  0  0  0  0  0  0  0  0  0  0
    5.4954   20.4132   34.1883 H   0  0  0  0  0  0  0  0  0  0  0  0
    5.9720   20.7100   35.8873 H   0  0  0  0  0  0  0  0  0  0  0  0
    3.7308   19.3394   38.3077 H   0  0  0  0  0  0  0  0  0  0  0  0
    6.1007   12.6437   36.2793 H   0  0  0  0  0  0  0  0  0  0  0  0
    5.8061   13.4665   34.7100 H   0  0  0  0  0  0  0  0  0  0  0  0
    7.4764   13.3414   35.3589 H   0  0  0  0  0  0  0  0  0  0  0  0
    4.2355   13.8994   39.7970 H   0  0  0  0  0  0  0  0  0  0  0  0
    5.1065   14.7833   41.1703 H   0  0  0  0  0  0  0  0  0  0  0  0
    1.8708   15.5359   42.5399 H   0  0  0  0  0  0  0  0  0  0  0  0
    1.2118   16.5240   41.1924 H   0  0  0  0  0  0  0  0  0  0  0  0
    1.1216   14.7315   41.1192 H   0  0  0  0  0  0  0  0  0  0  0  0
    5.9891   15.5348   35.7342 H   0  0  0  0  0  0  0  0  0  0  0  0
    1.7206   20.1303   36.5008 H   0  0  0  0  0  0  0  0  0  0  0  0
    1.8931   21.4673   37.6061 H   0  0  0  0  0  0  0  0  0  0  0  0
    3.3822   16.9317   41.4046 H   0  0  0  0  0  0  0  0  0  0  0  0
    5.9088   16.6594   37.5699 H   0  0  0  0  0  0  0  0  0  0  0  0
    3.6515   22.3113   35.3656 H   0  0  0  0  0  0  0  0  0  0  0  0
    3.3316   20.6536   34.7160 H   0  0  0  0  0  0  0  0  0  0  0  0
    4.1009   18.2478   39.7131 H   0  0  0  0  0  0  0  0  0  0  0  0
  1 11  1  0
  1 12  1  0
  2 29  1  0
  2 19  1  0
  3  1  2  0
  4 15  1  0
  5 32  1  0
  6  3  1  0
  6  5  2  0
  8 11  2  0
 10  8  1  0
 13 26  2  0
 14 30  1  0
 15 27  1  0
 16 14  2  3
 17 20  1  0
 18 21  1  0
 19 17  1  0
 21 31  1  0
 22 16  1  0
 23 30  1  0
 23 17  1  0
 24 31  1  0
 24  7  1  0
 24  2  1  0
 26 10  1  0
 26  3  1  0
 27 28  1  0
 28 33  2  0
 28 22  1  0
 29  7  1  0
 29 23  1  0
 30 25  2  0
 31  9  2  0
 32 12  2  0
 32  4  1  0
  2 34  1  1
  4 35  1  0
  4 36  1  0
  5 37  1  0
  6 38  1  0
  7 39  1  0
  7 40  1  0
  8 41  1  0
 10 42  1  0
 10 43  1  0
 11 44  1  0
 12 45  1  0
 14 46  1  0
 15 47  1  0
 15 48  1  0
 16 49  1  0
 18 50  1  0
 18 51  1  0
 18 52  1  0
 19 53  1  0
 19 54  1  0
 20 55  1  0
 20 56  1  0
 20 57  1  0
 21 58  1  0
 22 59  1  0
 22 60  1  0
 23 61  1  1
 24 62  1  1
 27 63  1  0
 27 64  1  0
 29 65  1  1
M  END
>  <mol_id>  (24) 
2026-09-16-6tgu-s0-n100-0024

>  <rmsd_to_ref>  (24) 


$$$$

     RDKit          3D

 45 47  0  0  0  0  0  0  0  0999 V2000
    2.9700   18.3942   38.3787 C   0  0  0  0  0  0  0  0  0  0  0  0
    5.3601   22.8076   32.5214 C   0  0  0  0  0  0  0  0  0  0  0  0
    3.9351   22.4177   34.8100 C   0  0  0  0  0  0  0  0  0  0  0  0
    3.3258   20.6041   36.5277 C   0  0  0  0  0  0  0  0  0  0  0  0
    2.0222   17.6203   40.5574 C   0  0  0  0  0  0  0  0  0  0  0  0
    4.2976   20.9719   35.3391 C   0  0  0  0  0  0  0  0  0  0  0  0
    3.0286   25.2444   31.1713 C   0  0  0  0  0  0  0  0  0  0  0  0
    5.0111   24.1499   32.8059 C   0  0  1  0  0  0  0  0  0  0  0  0
    4.7752   25.1498   31.5763 S   0  0  1  0  0  4  0  0  0  0  0  0
    2.6143   15.8295   38.8500 C   0  0  0  0  0  0  0  0  0  0  0  0
    1.4729   15.3483   41.0370 N   0  0  0  0  0  0  0  0  0  0  0  0
    2.5311   18.7194   39.7449 C   0  0  0  0  0  0  0  0  0  0  0  0
    5.2870   23.8730   30.4703 C   0  0  0  0  0  0  0  0  0  0  0  0
    3.8933   18.0505   36.2768 N   0  0  0  0  0  0  0  0  0  0  0  0
    3.1489   16.9287   37.9727 C   0  0  1  0  0  0  0  0  0  0  0  0
    4.7802   24.0058   29.0527 C   0  0  0  0  0  0  0  0  0  0  0  0
    2.0365   16.1955   40.1527 C   0  0  0  0  0  0  0  0  0  0  0  0
    2.0097   14.5553   41.8478 O   0  0  0  0  0  0  0  0  0  0  0  0
    3.7202   16.8648   36.7828 N   0  0  0  0  0  0  0  0  0  0  0  0
    4.3555   22.9413   33.3932 C   0  0  1  0  0  0  0  0  0  0  0  0
    0.0496   15.3830   41.1281 O   0  0  0  0  0  0  0  0  0  0  0  0
    3.4410   19.0857   37.0088 C   0  0  0  0  0  0  0  0  0  0  0  0
    6.3267   22.4210   32.8764 H   0  0  0  0  0  0  0  0  0  0  0  0
    5.4556   22.2491   31.5785 H   0  0  0  0  0  0  0  0  0  0  0  0
    2.8378   22.4862   34.8445 H   0  0  0  0  0  0  0  0  0  0  0  0
    4.5474   23.0516   35.4683 H   0  0  0  0  0  0  0  0  0  0  0  0
    2.2920   20.7862   36.1992 H   0  0  0  0  0  0  0  0  0  0  0  0
    3.6133   21.2335   37.3827 H   0  0  0  0  0  0  0  0  0  0  0  0
    1.5971   17.8671   41.5415 H   0  0  0  0  0  0  0  0  0  0  0  0
    4.1797   20.2407   34.5259 H   0  0  0  0  0  0  0  0  0  0  0  0
    5.3398   20.9540   35.6906 H   0  0  0  0  0  0  0  0  0  0  0  0
    2.4364   24.8405   32.0056 H   0  0  0  0  0  0  0  0  0  0  0  0
    2.7489   26.2940   30.9975 H   0  0  0  0  0  0  0  0  0  0  0  0
    2.8305   24.6568   30.2628 H   0  0  0  0  0  0  0  0  0  0  0  0
    5.2949   25.0974   33.2875 H   0  0  0  0  0  0  0  0  0  0  0  0
    5.2979   26.4135   31.6590 H   0  0  0  0  0  0  0  0  0  0  0  0
    2.6543   14.7791   38.5258 H   0  0  0  0  0  0  0  0  0  0  0  0
    2.5845   19.7461   40.1363 H   0  0  0  0  0  0  0  0  0  0  0  0
    6.3866   23.8708   30.4393 H   0  0  0  0  0  0  0  0  0  0  0  0
    4.8555   22.9401   30.8618 H   0  0  0  0  0  0  0  0  0  0  0  0
    4.1058   16.8955   38.5142 H   0  0  0  0  0  0  0  0  0  0  0  0
    4.0715   23.1921   28.8390 H   0  0  0  0  0  0  0  0  0  0  0  0
    4.2728   24.9745   28.9340 H   0  0  0  0  0  0  0  0  0  0  0  0
    5.6273   23.9473   28.3535 H   0  0  0  0  0  0  0  0  0  0  0  0
    3.3465   22.5315   33.5480 H   0  0  0  0  0  0  0  0  0  0  0  0
  1 15  1  0
  1 12  1  0
  2 20  1  0
  3  6  1  0
  4 22  1  0
  5 17  1  0
  6  4  1  0
  8  9  1  0
  8  2  1  0
  8 20  1  0
  9  7  1  0
 10 17  2  0
 11 18  1  0
 12  5  2  0
 13  9  1  0
 14 22  1  0
 14 19  2  0
 15 10  1  0
 16 13  1  0
 17 11  1  0
 19 15  1  0
 20  3  1  0
 21 11  2  0
 22  1  2  0
  2 23  1  0
  2 24  1  0
  3 25  1  0
  3 26  1  0
  4 27  1  0
  4 28  1  0
  5 29  1  0
  6 30  1  0
  6 31  1  0
  7 32  1  0
  7 33  1  0
  7 34  1  0
  8 35  1  1
  9 36  1  1
 10 37  1  0
 12 38  1  0
 13 39  1  0
 13 40  1  0
 15 41  1  1
 16 42  1  0
 16 43  1  0
 16 44  1  0
 20 45  1  6
M  CHG  2  11   1  18  -1
M  END
>  <mol_id>  (25) 
2026-09-16-6tgu-s0-n100-0025

>  <rmsd_to_ref>  (25) 


$$$$

     RDKit          3D

 43 45  0  0  0  0  0  0  0  0999 V2000
    4.0648   17.4207   39.7765 C   0  0  0  0  0  0  0  0  0  0  0  0
    4.1953   23.3651   31.8255 O   0  0  0  0  0  0  0  0  0  0  0  0
    2.5666   21.5229   34.4684 C   0  0  0  0  0  0  0  0  0  0  0  0
    2.7502   23.9241   31.9736 C   0  0  0  0  0  0  0  0  0  0  0  0
    3.9849   21.8734   35.3006 C   0  0  1  0  0  0  0  0  0  0  0  0
    4.3599   15.0863   39.5970 C   0  0  0  0  0  0  0  0  0  0  0  0
    4.6107   19.0056   37.7424 N   0  0  0  0  0  0  0  0  0  0  0  0
    6.1048   21.0078   36.0884 C   0  0  0  0  0  0  0  0  0  0  0  0
    3.5745   17.2556   41.0247 C   0  0  0  0  0  0  0  0  0  0  0  0
    4.5768   16.3128   39.1105 N   0  0  0  0  0  0  0  0  0  0  0  0
    4.0339   18.7334   39.0645 C   0  0  0  0  0  0  0  0  0  0  0  0
    3.0068   18.4240   41.6933 C   0  0  0  0  0  0  0  0  0  0  0  0
    4.7121   13.9999   38.6588 C   0  0  0  0  0  0  0  0  0  0  0  0
    2.4047   23.6732   33.4555 C   0  0  0  0  0  0  0  0  0  0  0  0
    4.8062   20.5854   35.6220 C   0  0  1  0  0  0  0  0  0  0  0  0
    4.0439   14.8832   40.8234 O   0  0  0  0  0  0  0  0  0  0  0  0
    3.4214   19.7271   39.7692 C   0  0  0  0  0  0  0  0  0  0  0  0
    2.9558   19.6390   41.0740 C   0  0  0  0  0  0  0  0  0  0  0  0
    4.7016   22.8335   33.1144 C   0  0  0  0  0  0  0  0  0  0  0  0
    3.4622   22.6843   34.0378 C   0  0  2  0  0  0  0  0  0  0  0  0
    4.0613   19.9931   36.8670 C   0  0  0  0  0  0  0  0  0  0  0  0
    2.4997   20.6173   33.8476 H   0  0  0  0  0  0  0  0  0  0  0  0
    1.5066   21.4106   34.7404 H   0  0  0  0  0  0  0  0  0  0  0  0
    2.7208   24.9989   31.7417 H   0  0  0  0  0  0  0  0  0  0  0  0
    2.0380   23.4456   31.2853 H   0  0  0  0  0  0  0  0  0  0  0  0
    4.5055   22.2948   36.1732 H   0  0  0  0  0  0  0  0  0  0  0  0
    6.1636   20.8758   37.1789 H   0  0  0  0  0  0  0  0  0  0  0  0
    6.8838   20.4014   35.6031 H   0  0  0  0  0  0  0  0  0  0  0  0
    6.2570   22.0682   35.8388 H   0  0  0  0  0  0  0  0  0  0  0  0
    3.6019   16.2742   41.5208 H   0  0  0  0  0  0  0  0  0  0  0  0
    5.1214   16.4365   38.2451 H   0  0  0  0  0  0  0  0  0  0  0  0
    2.6131   18.3223   42.7153 H   0  0  0  0  0  0  0  0  0  0  0  0
    5.1082   13.1425   39.2227 H   0  0  0  0  0  0  0  0  0  0  0  0
    3.8149   13.6902   38.1029 H   0  0  0  0  0  0  0  0  0  0  0  0
    5.4755   14.3584   37.9526 H   0  0  0  0  0  0  0  0  0  0  0  0
    2.4351   24.6218   34.0114 H   0  0  0  0  0  0  0  0  0  0  0  0
    1.3943   23.2475   33.5449 H   0  0  0  0  0  0  0  0  0  0  0  0
    4.9009   19.8949   34.7711 H   0  0  0  0  0  0  0  0  0  0  0  0
    3.2832   20.6897   39.2551 H   0  0  0  0  0  0  0  0  0  0  0  0
    2.5573   20.5228   41.5936 H   0  0  0  0  0  0  0  0  0  0  0  0
    5.1829   21.8563   32.9612 H   0  0  0  0  0  0  0  0  0  0  0  0
    5.4533   23.5036   33.5571 H   0  0  0  0  0  0  0  0  0  0  0  0
    3.0475   20.3621   37.0818 H   0  0  0  0  0  0  0  0  0  0  0  0
  1  9  2  0
  2 19  1  0
  3  5  1  0
  4  2  1  0
  4 14  1  0
  5 15  1  0
  6 16  2  0
  7 11  1  0
  9 12  1  0
 10  1  1  0
 10  6  1  0
 11 17  2  0
 11  1  1  0
 13  6  1  0
 15  8  1  0
 15 21  1  0
 17 18  1  0
 18 12  2  0
 20 19  1  6
 20 14  1  0
 20  3  1  0
 20  5  1  0
 21  7  2  3
  3 22  1  0
  3 23  1  0
  4 24  1  0
  4 25  1  0
  5 26  1  1
  8 27  1  0
  8 28  1  0
  8 29  1  0
  9 30  1  0
 10 31  1  0
 12 32  1  0
 13 33  1  0
 13 34  1  0
 13 35  1  0
 14 36  1  0
 14 37  1  0
 15 38  1  6
 17 39  1  0
 18 40  1  0
 19 41  1  0
 19 42  1  0
 21 43  1  0
M  END
>  <mol_id>  (26) 
2026-09-16-6tgu-s0-n100-0026

>  <rmsd_to_ref>  (26) 


$$$$

     RDKit          3D

 29 29  0  0  0  0  0  0  0  0999 V2000
    1.5779   17.4430   41.5871 C   0  0  0  0  0  0  0  0  0  0  0  0
    2.3239   19.2645   38.4010 C   0  0  0  0  0  0  0  0  0  0  0  0
    1.6477   22.3313   35.1563 N   0  0  0  0  0  0  0  0  0  0  0  0
    3.1020   20.8035   36.5074 C   0  0  0  0  0  0  0  0  0  0  0  0
    3.4845   19.7307   37.6707 C   0  0  0  0  0  0  0  0  0  0  0  0
    2.1382   18.6822   39.6238 C   0  0  0  0  0  0  0  0  0  0  0  0
    3.0638   22.5464   34.7960 C   0  0  0  0  0  0  0  0  0  0  0  0
    2.6850   18.0540   40.7045 C   0  0  0  0  0  0  0  0  0  0  0  0
    4.8158   19.1347   38.1997 C   0  0  0  0  0  0  0  0  0  0  0  0
    3.9209   21.3753   35.3521 C   0  0  0  0  0  0  0  0  0  0  0  0
    1.6341   21.3364   36.2941 C   0  0  0  0  0  0  0  0  0  0  0  0
    1.9769   17.2486   42.5936 H   0  0  0  0  0  0  0  0  0  0  0  0
    0.7345   18.1458   41.6565 H   0  0  0  0  0  0  0  0  0  0  0  0
    1.2326   16.4987   41.1409 H   0  0  0  0  0  0  0  0  0  0  0  0
    1.3835   19.4116   37.8495 H   0  0  0  0  0  0  0  0  0  0  0  0
    1.1297   21.9548   34.3496 H   0  0  0  0  0  0  0  0  0  0  0  0
    1.1977   23.2156   35.4326 H   0  0  0  0  0  0  0  0  0  0  0  0
    1.0598   18.7513   39.8296 H   0  0  0  0  0  0  0  0  0  0  0  0
    3.1622   22.5856   33.7011 H   0  0  0  0  0  0  0  0  0  0  0  0
    3.4132   23.4955   35.2286 H   0  0  0  0  0  0  0  0  0  0  0  0
    3.3554   17.2537   40.3579 H   0  0  0  0  0  0  0  0  0  0  0  0
    3.2493   18.7890   41.2971 H   0  0  0  0  0  0  0  0  0  0  0  0
    4.6899   18.8306   39.2493 H   0  0  0  0  0  0  0  0  0  0  0  0
    5.0914   18.2584   37.5945 H   0  0  0  0  0  0  0  0  0  0  0  0
    5.6100   19.8927   38.1304 H   0  0  0  0  0  0  0  0  0  0  0  0
    4.0823   20.6117   34.5769 H   0  0  0  0  0  0  0  0  0  0  0  0
    4.9176   21.7090   35.6763 H   0  0  0  0  0  0  0  0  0  0  0  0
    1.2802   21.8275   37.2126 H   0  0  0  0  0  0  0  0  0  0  0  0
    0.9595   20.5006   36.0570 H   0  0  0  0  0  0  0  0  0  0  0  0
  2  6  2  3
  3 11  1  0
  4  5  2  3
  5  9  1  0
  5  2  1  0
  6  8  1  0
  7  3  1  0
  7 10  1  0
  8  1  1  0
 10  4  1  0
 11  4  1  0
  1 12  1  0
  1 13  1  0
  1 14  1  0
  2 15  1  0
  3 16  1  0
  3 17  1  0
  6 18  1  0
  7 19  1  0
  7 20  1  0
  8 21  1  0
  8 22  1  0
  9 23  1  0
  9 24  1  0
  9 25  1  0
 10 26  1  0
 10 27  1  0
 11 28  1  0
 11 29  1  0
M  CHG  1   3   1
M  END
>  <mol_id>  (27) 
2026-09-16-6tgu-s0-n100-0027

>  <rmsd_to_ref>  (27) 


$$$$

     RDKit          3D

 55 58  0  0  0  0  0  0  0  0999 V2000
    3.0274   24.6496   29.4501 C   0  0  0  0  0  0  0  0  0  0  0  0
    1.8695   16.7765   39.8932 C   0  0  1  0  0  0  0  0  0  0  0  0
    4.2364   25.2080   31.6862 S   0  0  1  0  0  4  0  0  0  0  0  0
    1.6105   18.6475   42.6386 C   0  0  0  0  0  0  0  0  0  0  0  0
    4.4662   21.9761   34.2048 C   0  0  0  0  0  0  0  0  0  0  0  0
    4.0706   24.1190   33.1200 C   0  0  0  0  0  0  0  0  0  0  0  0
    2.5256   21.2847   35.8790 C   0  0  0  0  0  0  0  0  0  0  0  0
    4.6906   22.9275   33.2257 C   0  0  0  0  0  0  0  0  0  0  0  0
    1.5541   15.3758   39.5514 C   0  0  0  0  0  0  0  0  0  0  0  0
    2.0224   18.5626   41.3345 N   0  0  0  0  0  0  0  0  0  0  0  0
    2.5807   17.3329   36.7408 C   0  0  0  0  0  0  0  0  0  0  0  0
    3.1828   24.4233   34.1259 C   0  0  0  0  0  0  0  0  0  0  0  0
    5.0572   24.1981   30.6491 C   0  0  0  0  0  0  0  0  0  0  0  0
    2.0259   25.6550   29.7878 O   0  0  0  0  0  0  0  0  0  0  0  0
    1.4949   17.3060   41.1367 N   0  0  0  0  0  0  0  0  0  0  0  0
    3.3670   20.0806   36.1928 C   0  0  0  0  0  0  0  0  0  0  0  0
    3.2724   22.1924   34.9981 C   0  0  0  0  0  0  0  0  0  0  0  0
    2.5821   17.8957   39.2585 C   0  0  2  0  0  0  0  0  0  0  0  0
    2.9882   19.7597   37.5736 C   0  0  0  0  0  0  0  0  0  0  0  0
    2.6921   25.3894   30.7191 C   0  0  1  0  0  0  0  0  0  0  0  0
    0.8220   17.4717   42.4190 C   0  0  0  0  0  0  0  0  0  0  0  0
    2.6415   18.9320   40.1940 N   0  0  0  0  0  0  0  0  0  0  0  0
    2.8124   23.4491   34.9052 C   0  0  0  0  0  0  0  0  0  0  0  0
    2.2207   18.3628   37.8212 C   0  0  1  0  0  0  0  0  0  0  0  0
    3.9182   24.8918   28.8519 H   0  0  0  0  0  0  0  0  0  0  0  0
    3.1001   23.6231   29.0617 H   0  0  0  0  0  0  0  0  0  0  0  0
    0.9075   17.0971   39.4669 H   0  0  0  0  0  0  0  0  0  0  0  0
    4.7215   26.4273   32.0799 H   0  0  0  0  0  0  0  0  0  0  0  0
    2.4143   18.5258   43.3795 H   0  0  0  0  0  0  0  0  0  0  0  0
    1.1640   19.5697   43.0390 H   0  0  0  0  0  0  0  0  0  0  0  0
    5.1406   21.1225   34.3683 H   0  0  0  0  0  0  0  0  0  0  0  0
    1.6015   20.9642   35.3757 H   0  0  0  0  0  0  0  0  0  0  0  0
    2.2739   21.8077   36.8134 H   0  0  0  0  0  0  0  0  0  0  0  0
    5.4458   22.6889   32.4623 H   0  0  0  0  0  0  0  0  0  0  0  0
    1.7397   14.7343   40.4255 H   0  0  0  0  0  0  0  0  0  0  0  0
    0.4966   15.2990   39.2583 H   0  0  0  0  0  0  0  0  0  0  0  0
    2.1907   15.0500   38.7156 H   0  0  0  0  0  0  0  0  0  0  0  0
    3.1280   16.4964   37.1996 H   0  0  0  0  0  0  0  0  0  0  0  0
    1.6596   16.9556   36.2724 H   0  0  0  0  0  0  0  0  0  0  0  0
    3.2123   17.8090   35.9763 H   0  0  0  0  0  0  0  0  0  0  0  0
    2.8024   25.4460   34.2653 H   0  0  0  0  0  0  0  0  0  0  0  0
    5.7323   23.5495   31.2267 H   0  0  0  0  0  0  0  0  0  0  0  0
    4.3373   23.5775   30.0954 H   0  0  0  0  0  0  0  0  0  0  0  0
    5.6445   24.7996   29.9398 H   0  0  0  0  0  0  0  0  0  0  0  0
    3.1315   19.2469   35.5150 H   0  0  0  0  0  0  0  0  0  0  0  0
    4.4449   20.2634   36.0718 H   0  0  0  0  0  0  0  0  0  0  0  0
    3.5692   17.4841   39.0010 H   0  0  0  0  0  0  0  0  0  0  0  0
    3.9097   19.7420   38.1740 H   0  0  0  0  0  0  0  0  0  0  0  0
    2.2624   20.5363   37.8565 H   0  0  0  0  0  0  0  0  0  0  0  0
    2.2589   25.7056   31.6795 H   0  0  0  0  0  0  0  0  0  0  0  0
   -0.2598   17.6568   42.3445 H   0  0  0  0  0  0  0  0  0  0  0  0
    0.7953   16.6573   43.1580 H   0  0  0  0  0  0  0  0  0  0  0  0
    3.6271   19.1517   40.3971 H   0  0  0  0  0  0  0  0  0  0  0  0
    1.9930   23.6949   35.5968 H   0  0  0  0  0  0  0  0  0  0  0  0
    1.1303   18.4847   37.7429 H   0  0  0  0  0  0  0  0  0  0  0  0
  1 20  1  0
  2  9  1  0
  2 15  1  0
  3 13  1  0
  3  6  1  0
  5 17  1  0
  6  8  1  0
  6 12  2  0
  7 16  1  0
  8  5  2  0
 10  4  1  0
 12 23  1  0
 14  1  1  0
 14 20  1  0
 15 10  1  0
 15 21  1  0
 16 19  1  0
 17  7  1  0
 18 24  1  0
 18  2  1  0
 18 22  1  0
 19 24  1  0
 20  3  1  0
 21  4  1  0
 22 10  1  0
 23 17  2  0
 24 11  1  0
  1 25  1  0
  1 26  1  0
  2 27  1  6
  3 28  1  1
  4 29  1  0
  4 30  1  0
  5 31  1  0
  7 32  1  0
  7 33  1  0
  8 34  1  0
  9 35  1  0
  9 36  1  0
  9 37  1  0
 11 38  1  0
 11 39  1  0
 11 40  1  0
 12 41  1  0
 13 42  1  0
 13 43  1  0
 13 44  1  0
 16 45  1  0
 16 46  1  0
 18 47  1  6
 19 48  1  0
 19 49  1  0
 20 50  1  1
 21 51  1  0
 21 52  1  0
 22 53  1  0
 23 54  1  0
 24 55  1  1
M  END
>  <mol_id>  (28) 
2026-09-16-6tgu-s0-n100-0028

>  <rmsd_to_ref>  (28) 


$$$$

     RDKit          3D

 45 45  0  0  0  0  0  0  0  0999 V2000
    3.0093   18.3428   39.4045 C   0  0  0  0  0  0  0  0  0  0  0  0
    2.8062   17.6246   38.2376 C   0  0  0  0  0  0  0  0  0  0  0  0
    3.1497   18.0742   35.9792 O   0  0  0  0  0  0  0  0  0  0  0  0
    2.4959   16.3375   38.0403 C   0  0  0  0  0  0  0  0  0  0  0  0
    3.1930   24.6117   33.5588 C   0  0  0  0  0  0  0  0  0  0  0  0
    2.6321   21.9387   36.0865 C   0  0  0  0  0  0  0  0  0  0  0  0
    2.9221   22.6529   34.8504 C   0  0  1  0  0  0  0  0  0  0  0  0
    2.4344   17.5692   42.2537 C   0  0  0  0  0  0  0  0  0  0  0  0
    2.7839   24.7628   32.3394 C   0  0  0  0  0  0  0  0  0  0  0  0
    3.4174   26.0847   30.6120 O   0  0  0  0  0  0  0  0  0  0  0  0
    2.9110   19.8795   37.1858 N   0  0  0  0  0  0  0  0  0  0  0  0
    2.9891   18.6016   37.1273 C   0  0  0  0  0  0  0  0  0  0  0  0
    2.6738   24.0540   34.7630 C   0  0  0  0  0  0  0  0  0  0  0  0
    3.6101   21.9535   33.6940 C   0  0  0  0  0  0  0  0  0  0  0  0
    3.3228   20.5603   35.9903 C   0  0  0  0  0  0  0  0  0  0  0  0
    2.8232   27.2325   32.6747 C   0  0  0  0  0  0  0  0  0  0  0  0
    3.0332   26.1346   31.8054 C   0  0  0  0  0  0  0  0  0  0  0  0
    2.7817   17.5680   40.6000 C   0  0  0  0  0  0  0  0  0  0  0  0
    2.2668   15.6357   39.0560 C   0  0  0  0  0  0  0  0  0  0  0  0
    2.2821   16.2262   40.4125 C   0  0  0  0  0  0  0  0  0  0  0  0
    3.3140   19.3996   39.4183 H   0  0  0  0  0  0  0  0  0  0  0  0
    2.4437   15.9112   37.0276 H   0  0  0  0  0  0  0  0  0  0  0  0
    3.4241   25.6445   33.8587 H   0  0  0  0  0  0  0  0  0  0  0  0
    3.8142   23.7342   33.3260 H   0  0  0  0  0  0  0  0  0  0  0  0
    1.5458   21.8088   36.2008 H   0  0  0  0  0  0  0  0  0  0  0  0
    3.0007   22.5003   36.9575 H   0  0  0  0  0  0  0  0  0  0  0  0
    1.9427   22.3544   34.4482 H   0  0  0  0  0  0  0  0  0  0  0  0
    3.0195   16.7821   42.7518 H   0  0  0  0  0  0  0  0  0  0  0  0
    2.6961   18.5478   42.6825 H   0  0  0  0  0  0  0  0  0  0  0  0
    1.3614   17.3786   42.4031 H   0  0  0  0  0  0  0  0  0  0  0  0
    3.3096   24.0374   31.7010 H   0  0  0  0  0  0  0  0  0  0  0  0
    1.6958   24.6011   32.3352 H   0  0  0  0  0  0  0  0  0  0  0  0
    2.5792   20.3785   38.0236 H   0  0  0  0  0  0  0  0  0  0  0  0
    3.1490   24.5534   35.6202 H   0  0  0  0  0  0  0  0  0  0  0  0
    1.5846   24.2080   34.7682 H   0  0  0  0  0  0  0  0  0  0  0  0
    4.2046   21.1108   34.0766 H   0  0  0  0  0  0  0  0  0  0  0  0
    2.8531   21.5782   32.9897 H   0  0  0  0  0  0  0  0  0  0  0  0
    4.2717   22.6641   33.1769 H   0  0  0  0  0  0  0  0  0  0  0  0
    2.9864   20.0164   35.0953 H   0  0  0  0  0  0  0  0  0  0  0  0
    4.4165   20.6406   35.9050 H   0  0  0  0  0  0  0  0  0  0  0  0
    3.0961   26.9451   33.7009 H   0  0  0  0  0  0  0  0  0  0  0  0
    3.4470   28.0795   32.3530 H   0  0  0  0  0  0  0  0  0  0  0  0
    1.7634   27.5258   32.6456 H   0  0  0  0  0  0  0  0  0  0  0  0
    2.0510   14.5639   38.9352 H   0  0  0  0  0  0  0  0  0  0  0  0
    1.9154   15.6468   41.2726 H   0  0  0  0  0  0  0  0  0  0  0  0
  1 18  1  0
  2  4  1  0
  2  1  2  0
  3 12  2  0
  4 19  2  0
  5 13  1  0
  6 15  1  0
  7 14  1  0
  7  6  1  0
  9  5  1  0
 10 17  2  0
 11 12  1  0
 12  2  1  0
 13  7  1  0
 15 11  1  0
 17 16  1  0
 17  9  1  0
 18 20  2  0
 18  8  1  0
 19 20  1  0
  1 21  1  0
  4 22  1  0
  5 23  1  0
  5 24  1  0
  6 25  1  0
  6 26  1  0
  7 27  1  6
  8 28  1  0
  8 29  1  0
  8 30  1  0
  9 31  1  0
  9 32  1  0
 11 33  1  0
 13 34  1  0
 13 35  1  0
 14 36  1  0
 14 37  1  0
 14 38  1  0
 15 39  1  0
 15 40  1  0
 16 41  1  0
 16 42  1  0
 16 43  1  0
 19 44  1  0
 20 45  1  0
M  END
>  <mol_id>  (29) 
2026-09-16-6tgu-s0-n100-0029

>  <rmsd_to_ref>  (29) 


$$$$

     RDKit          3D

 56 59  0  0  0  0  0  0  0  0999 V2000
    3.8946   23.5508   31.1078 C   0  0  2  0  0  0  0  0  0  0  0  0
    1.6328   20.4401   34.8784 C   0  0  0  0  0  0  0  0  0  0  0  0
    2.9676   20.0291   35.3845 C   0  0  2  0  0  0  0  0  0  0  0  0
    0.6904   13.2653   42.3627 F   0  0  0  0  0  0  0  0  0  0  0  0
    3.2476   16.2620   39.4881 C   0  0  0  0  0  0  0  0  0  0  0  0
    5.0500   16.6332   37.3565 C   0  0  0  0  0  0  0  0  0  0  0  0
    0.7872   14.3946   41.7413 C   0  0  0  0  0  0  0  0  0  0  0  0
    4.1978   22.6843   32.4784 S   0  0  0  0  0  4  0  0  0  0  0  0
    4.0426   21.8207   34.0941 C   0  0  0  0  0  0  0  0  0  0  0  0
    1.9864   14.7936   41.0864 C   0  0  0  0  0  0  0  0  0  0  0  0
   -0.3368   15.3638   41.8420 C   0  0  0  0  0  0  0  0  0  0  0  0
    2.7046   18.9812   36.4827 C   0  0  0  0  0  0  0  0  0  0  0  0
    4.2717   15.2081   39.2637 C   0  0  0  0  0  0  0  0  0  0  0  0
    2.2829   24.0835   31.0814 C   0  0  0  0  0  0  0  0  0  0  0  0
    6.5953   13.2540   37.9389 C   0  0  0  0  0  0  0  0  0  0  0  0
    4.1457   20.7896   35.2036 C   0  0  0  0  0  0  0  0  0  0  0  0
    2.8511   25.3397   28.7281 O   0  0  0  0  0  0  0  0  0  0  0  0
    1.1014   18.5493   40.6271 C   0  0  0  0  0  0  0  0  0  0  0  0
    4.0449   17.5618   37.6537 C   0  0  0  0  0  0  0  0  0  0  0  0
    2.0409   24.3487   29.5039 C   0  0  1  0  0  0  0  0  0  0  0  0
    1.0538   17.0753   40.8290 C   0  0  0  0  0  0  0  0  0  0  0  0
    6.0975   14.4706   37.7483 O   0  0  0  0  0  0  0  0  0  0  0  0
    5.6059   23.2950   29.3676 C   0  0  0  0  0  0  0  0  0  0  0  0
    4.0815   18.7545   36.9076 O   0  0  0  0  0  0  0  0  0  0  0  0
    3.2645   23.8573   28.6446 C   0  0  2  0  0  0  0  0  0  0  0  0
   -0.1403   16.6203   41.4610 C   0  0  0  0  0  0  0  0  0  0  0  0
   -1.5151   14.9274   42.2491 F   0  0  0  0  0  0  0  0  0  0  0  0
    3.1657   17.3957   38.6653 N   0  0  0  0  0  0  0  0  0  0  0  0
    4.3666   23.5608   29.7551 C   0  0  0  0  0  0  0  0  0  0  0  0
    5.1645   15.4638   38.1184 C   0  0  0  0  0  0  0  0  0  0  0  0
    2.0730   16.0892   40.4808 C   0  0  0  0  0  0  0  0  0  0  0  0
    4.8568   24.0019   31.3921 H   0  0  0  0  0  0  0  0  0  0  0  0
    0.9150   20.4601   35.7116 H   0  0  0  0  0  0  0  0  0  0  0  0
    1.7031   21.4425   34.4308 H   0  0  0  0  0  0  0  0  0  0  0  0
    1.2920   19.7222   34.1178 H   0  0  0  0  0  0  0  0  0  0  0  0
    3.6784   19.6242   34.6490 H   0  0  0  0  0  0  0  0  0  0  0  0
    5.7475   16.8217   36.5270 H   0  0  0  0  0  0  0  0  0  0  0  0
    2.8457   14.1080   41.0454 H   0  0  0  0  0  0  0  0  0  0  0  0
    2.0816   19.3820   37.2959 H   0  0  0  0  0  0  0  0  0  0  0  0
    2.1522   18.0855   36.1626 H   0  0  0  0  0  0  0  0  0  0  0  0
    4.3562   14.3135   39.8982 H   0  0  0  0  0  0  0  0  0  0  0  0
    1.6005   23.3112   31.4660 H   0  0  0  0  0  0  0  0  0  0  0  0
    2.0972   24.9651   31.7125 H   0  0  0  0  0  0  0  0  0  0  0  0
    6.4483   12.9580   38.9881 H   0  0  0  0  0  0  0  0  0  0  0  0
    6.0796   12.5394   37.2806 H   0  0  0  0  0  0  0  0  0  0  0  0
    7.6704   13.2572   37.7060 H   0  0  0  0  0  0  0  0  0  0  0  0
    4.9695   20.1016   34.9628 H   0  0  0  0  0  0  0  0  0  0  0  0
    4.3190   21.3410   36.1395 H   0  0  0  0  0  0  0  0  0  0  0  0
    0.9053   19.0569   41.5831 H   0  0  0  0  0  0  0  0  0  0  0  0
    2.0965   18.8368   40.2567 H   0  0  0  0  0  0  0  0  0  0  0  0
    0.3377   18.8437   39.8922 H   0  0  0  0  0  0  0  0  0  0  0  0
    0.9516   24.2107   29.5701 H   0  0  0  0  0  0  0  0  0  0  0  0
    6.3838   23.0871   30.1171 H   0  0  0  0  0  0  0  0  0  0  0  0
    5.8566   23.2821   28.2967 H   0  0  0  0  0  0  0  0  0  0  0  0
    3.4894   23.1655   27.8195 H   0  0  0  0  0  0  0  0  0  0  0  0
   -0.9428   17.3503   41.6430 H   0  0  0  0  0  0  0  0  0  0  0  0
  1 14  1  0
  1  8  1  0
  3  2  1  0
  3 12  1  0
  5 31  1  0
  6 19  1  0
  6 30  2  0
  7 11  1  0
  7  4  1  0
  8  9  3  0
  9 16  1  0
 10  7  2  0
 11 27  1  0
 12 24  1  0
 13  5  2  0
 16  3  1  0
 17 20  1  0
 18 21  1  0
 19 28  2  0
 20 14  1  0
 21 26  1  0
 22 15  1  0
 22 30  1  0
 23 29  2  3
 24 19  1  0
 25 17  1  0
 25 29  1  0
 25 20  1  0
 26 11  2  0
 28  5  1  0
 29  1  1  0
 30 13  1  0
 31 21  2  0
 31 10  1  0
  1 32  1  1
  2 33  1  0
  2 34  1  0
  2 35  1  0
  3 36  1  6
  6 37  1  0
 10 38  1  0
 12 39  1  0
 12 40  1  0
 13 41  1  0
 14 42  1  0
 14 43  1  0
 15 44  1  0
 15 45  1  0
 15 46  1  0
 16 47  1  0
 16 48  1  0
 18 49  1  0
 18 50  1  0
 18 51  1  0
 20 52  1  6
 23 53  1  0
 23 54  1  0
 25 55  1  6
 26 56  1  0
M  END
>  <mol_id>  (30) 
2026-09-16-6tgu-s0-n100-0030

>  <rmsd_to_ref>  (30) 


$$$$

     RDKit          3D

 56 57  0  0  0  0  0  0  0  0999 V2000
    2.7253   20.5518   37.0206 C   0  0  0  0  0  0  0  0  0  0  0  0
    2.9381   13.6907   36.4970 O   0  0  0  0  0  0  0  0  0  0  0  0
    0.9266   19.9124   43.0184 Cl  0  0  0  0  0  0  0  0  0  0  0  0
    2.5415   19.7951   39.4312 C   0  0  0  0  0  0  0  0  0  0  0  0
    3.5177   16.3567   40.4156 N   0  0  0  0  0  0  0  0  0  0  0  0
    3.7178   15.3324   39.5109 C   0  0  0  0  0  0  0  0  0  0  0  0
   -1.7750   25.2505   30.0561 C   0  0  0  0  0  0  0  0  0  0  0  0
    1.8582   20.2446   40.5594 C   0  0  0  0  0  0  0  0  0  0  0  0
    2.2475   18.0960   41.5916 C   0  0  0  0  0  0  0  0  0  0  0  0
    3.0603   17.6283   40.4493 C   0  0  0  0  0  0  0  0  0  0  0  0
    1.2240   24.0172   33.3199 C   0  0  0  0  0  0  0  0  0  0  0  0
    1.4288   23.3563   34.6612 N   0  0  0  0  0  0  0  0  0  0  0  0
    1.7525   19.3590   41.6449 C   0  0  0  0  0  0  0  0  0  0  0  0
    3.5913   13.7819   37.5918 C   0  0  0  0  0  0  0  0  0  0  0  0
   -1.8729   25.9276   31.4147 C   0  0  0  0  0  0  0  0  0  0  0  0
    2.4573   20.5502   38.3089 N   0  0  0  0  0  0  0  0  0  0  0  0
   -0.6488   28.0772   30.8702 O   0  0  0  0  0  0  0  0  0  0  0  0
   -0.0057   27.6261   34.2456 C   0  0  0  0  0  0  0  0  0  0  0  0
    0.7147   25.4847   33.0951 C   0  0  0  0  0  0  0  0  0  0  0  0
    3.8919   15.1655   38.1472 C   0  0  0  0  0  0  0  0  0  0  0  0
    1.9946   21.6832   36.3422 C   0  0  0  0  0  0  0  0  0  0  0  0
    2.9654   21.5538   34.2396 O   0  0  0  0  0  0  0  0  0  0  0  0
    2.1186   22.1549   34.9671 C   0  0  0  0  0  0  0  0  0  0  0  0
   -0.8055   26.9591   31.8111 C   0  0  2  0  0  0  0  0  0  0  0  0
    3.6588   19.9535   36.4966 O   0  0  0  0  0  0  0  0  0  0  0  0
    0.4653   26.1773   31.8023 C   0  0  0  0  0  0  0  0  0  0  0  0
    3.3014   18.6200   39.3937 C   0  0  0  0  0  0  0  0  0  0  0  0
    4.2681   16.1030   37.3182 C   0  0  0  0  0  0  0  0  0  0  0  0
   -1.0788   27.6994   33.1716 C   0  0  0  0  0  0  0  0  0  0  0  0
    3.9501   12.8351   38.2260 O   0  0  0  0  0  0  0  0  0  0  0  0
    0.5736   26.2481   34.3289 C   0  0  0  0  0  0  0  0  0  0  0  0
    3.8072   16.0589   41.3582 H   0  0  0  0  0  0  0  0  0  0  0  0
    4.6235   14.8540   39.9120 H   0  0  0  0  0  0  0  0  0  0  0  0
    2.6471   15.0844   39.4646 H   0  0  0  0  0  0  0  0  0  0  0  0
   -1.2780   24.2755   30.1673 H   0  0  0  0  0  0  0  0  0  0  0  0
   -2.7851   25.1025   29.6466 H   0  0  0  0  0  0  0  0  0  0  0  0
   -1.1912   25.8838   29.3720 H   0  0  0  0  0  0  0  0  0  0  0  0
    1.4191   21.2525   40.5985 H   0  0  0  0  0  0  0  0  0  0  0  0
    2.0383   17.4030   42.4199 H   0  0  0  0  0  0  0  0  0  0  0  0
    1.4508   23.4201   32.4243 H   0  0  0  0  0  0  0  0  0  0  0  0
   -2.8455   26.4403   31.4502 H   0  0  0  0  0  0  0  0  0  0  0  0
   -1.7243   25.1058   32.1305 H   0  0  0  0  0  0  0  0  0  0  0  0
    2.0257   21.4527   38.5540 H   0  0  0  0  0  0  0  0  0  0  0  0
   -0.3466   28.8820   31.3613 H   0  0  0  0  0  0  0  0  0  0  0  0
   -0.4497   27.8894   35.2170 H   0  0  0  0  0  0  0  0  0  0  0  0
    0.7988   28.3304   33.9872 H   0  0  0  0  0  0  0  0  0  0  0  0
    0.9304   21.4269   36.4499 H   0  0  0  0  0  0  0  0  0  0  0  0
    2.5002   22.5217   36.8436 H   0  0  0  0  0  0  0  0  0  0  0  0
    0.4109   25.4238   31.0027 H   0  0  0  0  0  0  0  0  0  0  0  0
    1.2921   26.8835   31.6356 H   0  0  0  0  0  0  0  0  0  0  0  0
    4.0487   18.4467   38.6054 H   0  0  0  0  0  0  0  0  0  0  0  0
    4.4916   17.1124   37.6941 H   0  0  0  0  0  0  0  0  0  0  0  0
    4.3614   15.8830   36.2445 H   0  0  0  0  0  0  0  0  0  0  0  0
   -1.2395   28.7627   32.9402 H   0  0  0  0  0  0  0  0  0  0  0  0
   -1.9417   27.1729   33.6054 H   0  0  0  0  0  0  0  0  0  0  0  0
    0.8844   25.8233   35.2948 H   0  0  0  0  0  0  0  0  0  0  0  0
  1 16  1  0
  2 14  2  0
  4 27  2  0
  4  8  1  0
  6  5  1  0
  7 15  1  0
  8 13  2  0
 10  5  1  0
 10  9  2  0
 11 12  2  3
 12 23  1  0
 13  9  1  0
 13  3  1  0
 14 20  1  0
 14 30  1  0
 15 24  1  0
 16  4  1  0
 18 31  1  0
 19 11  1  0
 19 31  2  0
 20  6  1  0
 21  1  1  0
 22 23  2  0
 23 21  1  0
 24 17  1  6
 24 26  1  0
 24 29  1  0
 25  1  2  0
 26 19  1  0
 27 10  1  0
 28 20  2  3
 29 18  1  0
  5 32  1  0
  6 33  1  0
  6 34  1  0
  7 35  1  0
  7 36  1  0
  7 37  1  0
  8 38  1  0
  9 39  1  0
 11 40  1  0
 15 41  1  0
 15 42  1  0
 16 43  1  0
 17 44  1  0
 18 45  1  0
 18 46  1  0
 21 47  1  0
 21 48  1  0
 26 49  1  0
 26 50  1  0
 27 51  1  0
 28 52  1  0
 28 53  1  0
 29 54  1  0
 29 55  1  0
 31 56  1  0
M  CHG  1  30  -1
M  END
>  <mol_id>  (31) 
2026-09-16-6tgu-s0-n100-0031

>  <rmsd_to_ref>  (31) 


$$$$

     RDKit          3D

 46 47  0  0  0  0  0  0  0  0999 V2000
    3.1347   21.6821   37.2689 C   0  0  0  0  0  0  0  0  0  0  0  0
    1.9088   25.2946   33.7301 C   0  0  0  0  0  0  0  0  0  0  0  0
    3.7205   20.7641   40.5845 C   0  0  0  0  0  0  0  0  0  0  0  0
    2.8777   24.5908   34.5783 C   0  0  0  0  0  0  0  0  0  0  0  0
    1.3266   17.0297   38.5292 C   0  0  0  0  0  0  0  0  0  0  0  0
    2.0933   18.3687   38.6233 C   0  0  0  0  0  0  0  0  0  0  0  0
    3.0695   22.8771   32.4494 C   0  0  0  0  0  0  0  0  0  0  0  0
    3.3590   24.2964   31.9710 C   0  0  1  0  0  0  0  0  0  0  0  0
    3.1663   20.1849   39.4074 C   0  0  0  0  0  0  0  0  0  0  0  0
    3.5394   24.3537   30.4577 C   0  0  0  0  0  0  0  0  0  0  0  0
    2.8343   20.4185   38.0164 C   0  0  0  0  0  0  0  0  0  0  0  0
    3.9448   22.3717   33.5187 C   0  0  0  0  0  0  0  0  0  0  0  0
    1.9380   15.9126   37.7496 C   0  0  0  0  0  0  0  0  0  0  0  0
    3.2097   23.0837   34.9462 C   0  0  2  0  0  0  0  0  0  0  0  0
    3.1184   21.6265   35.8166 C   0  0  0  0  0  0  0  0  0  0  0  0
    2.5722   18.9047   39.7505 C   0  0  0  0  0  0  0  0  0  0  0  0
    3.6709   22.0272   41.0140 C   0  0  0  0  0  0  0  0  0  0  0  0
    2.1158   25.1241   32.2574 C   0  0  0  0  0  0  0  0  0  0  0  0
    2.2303   19.2532   37.5471 N   0  0  0  0  0  0  0  0  0  0  0  0
    3.3595   22.6185   37.8004 H   0  0  0  0  0  0  0  0  0  0  0  0
    0.9040   24.9224   33.9787 H   0  0  0  0  0  0  0  0  0  0  0  0
    2.0412   26.3668   33.9369 H   0  0  0  0  0  0  0  0  0  0  0  0
    4.2704   20.0685   41.2355 H   0  0  0  0  0  0  0  0  0  0  0  0
    3.8393   24.9536   34.1864 H   0  0  0  0  0  0  0  0  0  0  0  0
    2.3182   24.7767   35.5070 H   0  0  0  0  0  0  0  0  0  0  0  0
    1.1800   16.6663   39.5570 H   0  0  0  0  0  0  0  0  0  0  0  0
    0.4134   17.2807   37.9696 H   0  0  0  0  0  0  0  0  0  0  0  0
    3.1678   22.2029   31.5858 H   0  0  0  0  0  0  0  0  0  0  0  0
    2.0578   22.9071   32.8801 H   0  0  0  0  0  0  0  0  0  0  0  0
    4.2701   24.6537   32.4734 H   0  0  0  0  0  0  0  0  0  0  0  0
    4.6101   24.2909   30.2134 H   0  0  0  0  0  0  0  0  0  0  0  0
    3.0072   23.5107   29.9928 H   0  0  0  0  0  0  0  0  0  0  0  0
    3.1310   25.3008   30.0753 H   0  0  0  0  0  0  0  0  0  0  0  0
    3.9282   21.2729   33.5647 H   0  0  0  0  0  0  0  0  0  0  0  0
    5.0059   22.6299   33.3868 H   0  0  0  0  0  0  0  0  0  0  0  0
    2.6109   15.3360   38.4013 H   0  0  0  0  0  0  0  0  0  0  0  0
    1.1438   15.2540   37.3681 H   0  0  0  0  0  0  0  0  0  0  0  0
    2.5098   16.3248   36.9051 H   0  0  0  0  0  0  0  0  0  0  0  0
    2.9409   23.6236   35.8661 H   0  0  0  0  0  0  0  0  0  0  0  0
    3.0484   20.6622   35.2921 H   0  0  0  0  0  0  0  0  0  0  0  0
    1.7558   19.0512   40.4731 H   0  0  0  0  0  0  0  0  0  0  0  0
    3.3203   18.2406   40.2079 H   0  0  0  0  0  0  0  0  0  0  0  0
    4.1602   22.3065   41.9588 H   0  0  0  0  0  0  0  0  0  0  0  0
    3.1408   22.7886   40.4231 H   0  0  0  0  0  0  0  0  0  0  0  0
    2.2293   26.1151   31.7937 H   0  0  0  0  0  0  0  0  0  0  0  0
    1.2434   24.5996   31.8406 H   0  0  0  0  0  0  0  0  0  0  0  0
  1 11  1  0
  2  4  1  0
  3 17  2  3
  4 14  1  0
  5  6  1  0
  6 16  1  0
  7 12  1  0
  8 10  1  0
  8  7  1  0
  9 16  1  0
  9  3  1  0
 11  9  2  0
 12 14  1  0
 13  5  1  0
 14 15  1  0
 15  1  2  3
 18  8  1  0
 18  2  1  0
 19 11  1  0
 19  6  2  0
  1 20  1  0
  2 21  1  0
  2 22  1  0
  3 23  1  0
  4 24  1  0
  4 25  1  0
  5 26  1  0
  5 27  1  0
  7 28  1  0
  7 29  1  0
  8 30  1  1
 10 31  1  0
 10 32  1  0
 10 33  1  0
 12 34  1  0
 12 35  1  0
 13 36  1  0
 13 37  1  0
 13 38  1  0
 14 39  1  1
 15 40  1  0
 16 41  1  0
 16 42  1  0
 17 43  1  0
 17 44  1  0
 18 45  1  0
 18 46  1  0
M  END
>  <mol_id>  (32) 
2026-09-16-6tgu-s0-n100-0032

>  <rmsd_to_ref>  (32) 


$$$$

     RDKit          3D

 78 81  0  0  0  0  0  0  0  0999 V2000
    3.0243   21.4967   32.4407 N   0  0  0  0  0  0  0  0  0  0  0  0
    2.5226   23.9857   33.9042 C   0  0  1  0  0  0  0  0  0  0  0  0
    3.6713   15.7866   38.1410 C   0  0  0  0  0  0  0  0  0  0  0  0
    2.4892   16.4636   39.7893 C   0  0  0  0  0  0  0  0  0  0  0  0
    2.6881   23.2382   28.5483 C   0  0  0  0  0  0  0  0  0  0  0  0
   -0.5487   17.7821   42.6174 C   0  0  0  0  0  0  0  0  0  0  0  0
    3.0416   22.7356   31.7830 C   0  0  1  0  0  0  0  0  0  0  0  0
    3.1072   18.2786   37.9654 C   0  0  0  0  0  0  0  0  0  0  0  0
    3.1396   25.3339   33.4443 C   0  0  0  0  0  0  0  0  0  0  0  0
    4.8054   20.9312   34.7748 O   0  0  0  0  0  0  0  0  0  0  0  0
    2.3612   24.5155   29.0518 C   0  0  0  0  0  0  0  0  0  0  0  0
    0.6397   12.9304   40.0829 O   0  0  0  0  0  0  0  0  0  0  0  0
    1.8073   12.9974   40.9112 S   0  0  0  0  0  4  0  0  0  0  0  0
    2.7612   15.2104   39.8540 N   0  0  0  0  0  0  0  0  0  0  0  0
    3.4677   23.8409   29.7378 C   0  0  0  0  0  0  0  0  0  0  0  0
    3.3673   22.5987   35.4844 C   0  0  0  0  0  0  0  0  0  0  0  0
    0.0286   18.4565   41.6160 C   0  0  0  0  0  0  0  0  0  0  0  0
    4.1899   18.8437   37.5899 C   0  0  0  0  0  0  0  0  0  0  0  0
    3.0453   21.3896   30.1744 N   0  0  0  0  0  0  0  0  0  0  0  0
    1.2829   18.1734   41.2611 C   0  0  0  0  0  0  0  0  0  0  0  0
    4.3368   25.0221   30.4369 C   0  0  0  0  0  0  0  0  0  0  0  0
    2.9593   12.2054   40.3592 O   0  0  0  0  0  0  0  0  0  0  0  0
    1.4306   15.6681   41.6290 C   0  0  0  0  0  0  0  0  0  0  0  0
    3.1787   23.9541   32.4723 C   0  0  2  0  0  0  0  0  0  0  0  0
    1.7315   16.8419   40.9049 C   0  0  0  0  0  0  0  0  0  0  0  0
    2.5990   22.8807   34.5821 C   0  0  0  0  0  0  0  0  0  0  0  0
    3.1472   16.9228   38.5430 C   0  0  2  0  0  0  0  0  0  0  0  0
    3.3175   22.6188   30.5126 C   0  0  2  0  0  0  0  0  0  0  0  0
   -1.8416   18.3041   43.0687 O   0  0  0  0  0  0  0  0  0  0  0  0
    3.2929   14.7688   38.8786 N   0  0  0  0  0  0  0  0  0  0  0  0
    1.3900   12.2819   42.1455 O   0  0  0  0  0  0  0  0  0  0  0  0
    2.3284   14.6367   41.0312 C   0  0  1  0  0  0  0  0  0  0  0  0
    2.7607   20.8673   31.4159 C   0  0  0  0  0  0  0  0  0  0  0  0
    3.8909   21.2893   35.7621 C   0  0  0  0  0  0  0  0  0  0  0  0
    3.9334   21.2417   32.8522 H   0  0  0  0  0  0  0  0  0  0  0  0
    2.4072   21.3839   33.2578 H   0  0  0  0  0  0  0  0  0  0  0  0
    1.6564   23.9882   34.5821 H   0  0  0  0  0  0  0  0  0  0  0  0
    3.3612   15.6034   37.1016 H   0  0  0  0  0  0  0  0  0  0  0  0
    4.7644   15.8739   38.2279 H   0  0  0  0  0  0  0  0  0  0  0  0
    2.0055   22.3905   28.7083 H   0  0  0  0  0  0  0  0  0  0  0  0
    2.9573   22.8316   27.5623 H   0  0  0  0  0  0  0  0  0  0  0  0
   -0.0836   16.8948   43.0716 H   0  0  0  0  0  0  0  0  0  0  0  0
    2.0074   23.1069   31.8330 H   0  0  0  0  0  0  0  0  0  0  0  0
    2.1463   18.8030   37.8577 H   0  0  0  0  0  0  0  0  0  0  0  0
    2.4895   26.1810   33.1803 H   0  0  0  0  0  0  0  0  0  0  0  0
    3.8830   26.0391   33.8443 H   0  0  0  0  0  0  0  0  0  0  0  0
    5.4972   20.3398   35.1645 H   0  0  0  0  0  0  0  0  0  0  0  0
    2.5730   25.4036   28.4383 H   0  0  0  0  0  0  0  0  0  0  0  0
    1.4206   24.9606   29.4082 H   0  0  0  0  0  0  0  0  0  0  0  0
   -0.1621   12.8134   40.6517 H   0  0  0  0  0  0  0  0  0  0  0  0
    2.8558   22.9080   36.4079 H   0  0  0  0  0  0  0  0  0  0  0  0
    4.2790   23.0952   35.1206 H   0  0  0  0  0  0  0  0  0  0  0  0
   -0.5300   19.2426   41.0868 H   0  0  0  0  0  0  0  0  0  0  0  0
    4.1615   19.8553   37.1588 H   0  0  0  0  0  0  0  0  0  0  0  0
    5.1505   18.3187   37.6979 H   0  0  0  0  0  0  0  0  0  0  0  0
    2.2350   21.3363   29.5407 H   0  0  0  0  0  0  0  0  0  0  0  0
    3.7906   20.9034   29.6558 H   0  0  0  0  0  0  0  0  0  0  0  0
    1.4988   18.8071   40.3882 H   0  0  0  0  0  0  0  0  0  0  0  0
    1.8162   18.3334   42.2098 H   0  0  0  0  0  0  0  0  0  0  0  0
    4.1342   25.0357   31.5180 H   0  0  0  0  0  0  0  0  0  0  0  0
    5.4081   24.8388   30.2669 H   0  0  0  0  0  0  0  0  0  0  0  0
    4.0567   25.9916   29.9992 H   0  0  0  0  0  0  0  0  0  0  0  0
    3.3491   11.6459   41.0769 H   0  0  0  0  0  0  0  0  0  0  0  0
    1.6470   15.8022   42.6992 H   0  0  0  0  0  0  0  0  0  0  0  0
    0.3676   15.3923   41.5667 H   0  0  0  0  0  0  0  0  0  0  0  0
    2.4835   24.4318   31.7663 H   0  0  0  0  0  0  0  0  0  0  0  0
    1.5984   22.7563   35.0219 H   0  0  0  0  0  0  0  0  0  0  0  0
    3.0270   22.2387   33.7982 H   0  0  0  0  0  0  0  0  0  0  0  0
    4.0845   17.1716   39.0620 H   0  0  0  0  0  0  0  0  0  0  0  0
    4.2716   22.6592   29.9666 H   0  0  0  0  0  0  0  0  0  0  0  0
   -2.3265   17.8553   43.8060 H   0  0  0  0  0  0  0  0  0  0  0  0
    2.6308   14.1804   38.3531 H   0  0  0  0  0  0  0  0  0  0  0  0
    1.2792   12.9330   42.8830 H   0  0  0  0  0  0  0  0  0  0  0  0
    3.1361   14.4225   41.7465 H   0  0  0  0  0  0  0  0  0  0  0  0
    1.6775   20.6765   31.4349 H   0  0  0  0  0  0  0  0  0  0  0  0
    3.4395   20.0041   31.4786 H   0  0  0  0  0  0  0  0  0  0  0  0
    3.0662   20.5614   35.7781 H   0  0  0  0  0  0  0  0  0  0  0  0
    4.3946   21.2978   36.7399 H   0  0  0  0  0  0  0  0  0  0  0  0
  2 26  1  0
  3 27  1  0
  3 30  1  0
  4 14  1  0
  4 25  2  0
  5 11  1  0
  5 15  1  0
  6 29  1  0
  7 24  1  0
  7  1  1  0
  9  2  1  0
 10 34  1  0
 11 15  1  0
 12 13  1  0
 13 31  1  0
 14 32  1  0
 15 21  1  0
 16 34  1  0
 17  6  2  3
 18  8  2  3
 19 28  1  0
 19 33  1  0
 20 17  1  0
 22 13  1  0
 24  9  1  0
 24  2  1  0
 25 20  1  0
 25 23  1  0
 26 16  1  0
 27  8  1  0
 27  4  1  0
 28 15  1  0
 28  7  1  0
 30 14  1  0
 32 13  1  0
 32 23  1  0
 33  1  1  0
  1 35  1  0
  1 36  1  0
  2 37  1  6
  3 38  1  0
  3 39  1  0
  5 40  1  0
  5 41  1  0
  6 42  1  0
  7 43  1  6
  8 44  1  0
  9 45  1  0
  9 46  1  0
 10 47  1  0
 11 48  1  0
 11 49  1  0
 12 50  1  0
 16 51  1  0
 16 52  1  0
 17 53  1  0
 18 54  1  0
 18 55  1  0
 19 56  1  0
 19 57  1  0
 20 58  1  0
 20 59  1  0
 21 60  1  0
 21 61  1  0
 21 62  1  0
 22 63  1  0
 23 64  1  0
 23 65  1  0
 24 66  1  1
 26 67  1  0
 26 68  1  0
 27 69  1  1
 28 70  1  1
 29 71  1  0
 30 72  1  0
 31 73  1  0
 32 74  1  1
 33 75  1  0
 33 76  1  0
 34 77  1  0
 34 78  1  0
M  CHG  2   1   1  19   1
M  END
>  <mol_id>  (33) 
2026-09-16-6tgu-s0-n100-0033

>  <rmsd_to_ref>  (33) 


$$$$

     RDKit          3D

 52 56  0  0  0  0  0  0  0  0999 V2000
    2.6563   23.4802   32.9399 C   0  0  0  0  0  0  0  0  0  0  0  0
    0.8087   27.1001   33.6252 O   0  0  0  0  0  0  0  0  0  0  0  0
    3.0764   11.3618   35.7638 C   0  0  0  0  0  0  0  0  0  0  0  0
    2.6497   16.7374   39.4845 C   0  0  0  0  0  0  0  0  0  0  0  0
    1.3449   25.8459   33.4479 C   0  0  0  0  0  0  0  0  0  0  0  0
    2.9751   24.2122   30.6712 O   0  0  0  0  0  0  0  0  0  0  0  0
    2.7113   21.0195   36.5115 C   0  0  1  0  0  0  0  0  0  0  0  0
    2.4585   24.4270   31.9315 C   0  0  0  0  0  0  0  0  0  0  0  0
    2.0942   19.8210   41.1905 C   0  0  0  0  0  0  0  0  0  0  0  0
    2.0878   21.0551   37.9835 S   0  0  0  0  0  0  0  0  0  0  0  0
    2.3165   22.4000   35.4156 S   0  0  0  0  0  0  0  0  0  0  0  0
    2.3414   11.3404   34.5934 C   0  0  0  0  0  0  0  0  0  0  0  0
    3.3942   15.2759   37.5614 C   0  0  0  0  0  0  0  0  0  0  0  0
    3.3527   19.9124   36.4450 N   0  0  0  0  0  0  0  0  0  0  0  0
    1.9423   18.1176   41.8569 S   0  0  0  0  0  0  0  0  0  0  0  0
    2.3436   19.3631   39.8833 N   0  0  0  0  0  0  0  0  0  0  0  0
    2.9326   18.0202   40.2418 C   0  0  2  0  0  0  0  0  0  0  0  0
    3.2731   19.1105   37.5661 C   0  0  0  0  0  0  0  0  0  0  0  0
    2.1466   23.7321   34.2520 C   0  0  0  0  0  0  0  0  0  0  0  0
    3.7013   17.7889   37.5111 N   0  0  0  0  0  0  0  0  0  0  0  0
    1.3853   12.2972   34.3057 C   0  0  0  0  0  0  0  0  0  0  0  0
    1.7845   25.5963   32.1606 C   0  0  0  0  0  0  0  0  0  0  0  0
    2.0614   13.5258   36.2856 C   0  0  0  0  0  0  0  0  0  0  0  0
    1.5240   24.9618   34.4893 C   0  0  0  0  0  0  0  0  0  0  0  0
    1.7259   20.6882   41.9991 N   0  0  0  0  0  0  0  0  0  0  0  0
    2.8217   12.4845   36.5699 C   0  0  0  0  0  0  0  0  0  0  0  0
    2.6082   19.7705   38.5683 C   0  0  2  0  0  0  0  0  0  0  0  0
    1.2564   13.4375   35.1003 C   0  0  0  0  0  0  0  0  0  0  0  0
    3.0864   16.6967   37.9589 C   0  0  2  0  0  0  0  0  0  0  0  0
    2.0074   14.7183   37.1198 C   0  0  0  0  0  0  0  0  0  0  0  0
    3.2000   22.5482   32.7261 H   0  0  0  0  0  0  0  0  0  0  0  0
    0.6970   27.7048   32.8494 H   0  0  0  0  0  0  0  0  0  0  0  0
    3.7934   10.5741   36.0384 H   0  0  0  0  0  0  0  0  0  0  0  0
    3.1749   15.9218   40.0031 H   0  0  0  0  0  0  0  0  0  0  0  0
    1.5535   16.6453   39.4730 H   0  0  0  0  0  0  0  0  0  0  0  0
    3.4677   23.3764   30.4740 H   0  0  0  0  0  0  0  0  0  0  0  0
    1.7915   20.5056   36.1955 H   0  0  0  0  0  0  0  0  0  0  0  0
    2.5231   10.5351   33.8664 H   0  0  0  0  0  0  0  0  0  0  0  0
    4.1136   15.2464   36.7299 H   0  0  0  0  0  0  0  0  0  0  0  0
    3.8541   14.6922   38.3724 H   0  0  0  0  0  0  0  0  0  0  0  0
    4.0227   17.9261   40.1282 H   0  0  0  0  0  0  0  0  0  0  0  0
    4.6165   17.6345   37.0643 H   0  0  0  0  0  0  0  0  0  0  0  0
    0.7192   12.1583   33.4414 H   0  0  0  0  0  0  0  0  0  0  0  0
    1.5986   26.3136   31.3476 H   0  0  0  0  0  0  0  0  0  0  0  0
    1.1793   25.2215   35.5011 H   0  0  0  0  0  0  0  0  0  0  0  0
    1.7643   21.6842   41.7393 H   0  0  0  0  0  0  0  0  0  0  0  0
    3.3137   12.4972   37.5537 H   0  0  0  0  0  0  0  0  0  0  0  0
    1.6749   19.2628   38.2834 H   0  0  0  0  0  0  0  0  0  0  0  0
    0.5596   14.2434   34.8268 H   0  0  0  0  0  0  0  0  0  0  0  0
    2.2911   16.8929   37.2248 H   0  0  0  0  0  0  0  0  0  0  0  0
    1.4866   15.5061   36.5558 H   0  0  0  0  0  0  0  0  0  0  0  0
    1.4858   14.4248   38.0427 H   0  0  0  0  0  0  0  0  0  0  0  0
  1 19  1  0
  3 26  1  0
  5  2  1  0
  5 24  1  0
  6  8  1  0
  7 11  1  0
  7 14  1  0
  7 10  1  0
  8 22  1  0
  8  1  2  0
  9 25  2  3
  9 15  1  0
 10 27  1  0
 12  3  2  0
 14 18  2  0
 16 17  1  0
 16  9  1  0
 17  4  1  0
 17 15  1  0
 18 20  1  0
 19 24  2  0
 19 11  1  0
 20 29  1  0
 21 12  1  0
 21 28  2  0
 22  5  2  0
 23 26  2  0
 23 30  1  0
 27 18  1  0
 27 16  1  0
 28 23  1  0
 29 13  1  0
 29  4  1  0
 30 13  1  0
  1 31  1  0
  2 32  1  0
  3 33  1  0
  4 34  1  0
  4 35  1  0
  6 36  1  0
  7 37  1  1
 12 38  1  0
 13 39  1  0
 13 40  1  0
 17 41  1  1
 20 42  1  0
 21 43  1  0
 22 44  1  0
 24 45  1  0
 25 46  1  0
 26 47  1  0
 27 48  1  1
 28 49  1  0
 29 50  1  6
 30 51  1  0
 30 52  1  0
M  END
>  <mol_id>  (34) 
2026-09-16-6tgu-s0-n100-0034

>  <rmsd_to_ref>  (34) 


$$$$

     RDKit          3D

 40 39  0  0  0  0  0  0  0  0999 V2000
    1.5572   22.8858   36.3653 C   0  0  0  0  0  0  0  0  0  0  0  0
    2.5816   16.8586   38.7927 C   0  0  0  0  0  0  0  0  0  0  0  0
    2.3475   19.1118   40.1716 C   0  0  0  0  0  0  0  0  0  0  0  0
    2.6956   20.8678   37.6766 C   0  0  0  0  0  0  0  0  0  0  0  0
    3.5713   24.0624   33.8533 C   0  0  0  0  0  0  0  0  0  0  0  0
    1.6181   24.0178   36.1748 C   0  0  0  0  0  0  0  0  0  0  0  0
    2.7262   19.1640   42.4657 C   0  0  0  0  0  0  0  0  0  0  0  0
    2.6762   22.1606   36.9057 C   0  0  1  0  0  0  0  0  0  0  0  0
    2.1545   19.8406   41.4363 C   0  0  0  0  0  0  0  0  0  0  0  0
    3.0847   18.3684   38.9930 C   0  0  2  0  0  0  0  0  0  0  0  0
    3.5867   21.8935   35.5868 C   0  0  0  0  0  0  0  0  0  0  0  0
    2.6067   19.1119   37.2800 S   0  0  0  0  0  0  0  0  0  0  0  0
    2.8995   22.6289   34.3021 C   0  0  0  0  0  0  0  0  0  0  0  0
    1.5081   15.7391   38.9625 C   0  0  0  0  0  0  0  0  0  0  0  0
    0.6271   22.3476   36.1303 H   0  0  0  0  0  0  0  0  0  0  0  0
    3.4218   16.3464   39.2844 H   0  0  0  0  0  0  0  0  0  0  0  0
    2.0595   17.1828   37.8804 H   0  0  0  0  0  0  0  0  0  0  0  0
    1.6559   18.2899   40.4083 H   0  0  0  0  0  0  0  0  0  0  0  0
    2.7273   20.0529   39.7470 H   0  0  0  0  0  0  0  0  0  0  0  0
    1.8539   20.9956   38.3732 H   0  0  0  0  0  0  0  0  0  0  0  0
    3.7879   20.8669   37.8072 H   0  0  0  0  0  0  0  0  0  0  0  0
    4.2792   24.3938   34.6274 H   0  0  0  0  0  0  0  0  0  0  0  0
    4.1041   23.9349   32.8995 H   0  0  0  0  0  0  0  0  0  0  0  0
    2.7797   24.8166   33.7332 H   0  0  0  0  0  0  0  0  0  0  0  0
    0.7510   24.5533   35.7609 H   0  0  0  0  0  0  0  0  0  0  0  0
    2.5436   24.5655   36.4063 H   0  0  0  0  0  0  0  0  0  0  0  0
    2.1004   19.2670   43.3646 H   0  0  0  0  0  0  0  0  0  0  0  0
    2.8151   18.1001   42.2007 H   0  0  0  0  0  0  0  0  0  0  0  0
    3.7260   19.5769   42.6656 H   0  0  0  0  0  0  0  0  0  0  0  0
    2.9329   22.8126   37.7536 H   0  0  0  0  0  0  0  0  0  0  0  0
    2.6171   20.8353   41.3555 H   0  0  0  0  0  0  0  0  0  0  0  0
    1.0762   19.9391   41.6299 H   0  0  0  0  0  0  0  0  0  0  0  0
    4.1464   18.4551   39.2673 H   0  0  0  0  0  0  0  0  0  0  0  0
    4.5957   22.3010   35.7478 H   0  0  0  0  0  0  0  0  0  0  0  0
    3.6571   20.8119   35.3994 H   0  0  0  0  0  0  0  0  0  0  0  0
    1.8423   22.8127   34.5441 H   0  0  0  0  0  0  0  0  0  0  0  0
    3.0522   21.9482   33.4515 H   0  0  0  0  0  0  0  0  0  0  0  0
    1.6956   15.1899   39.8970 H   0  0  0  0  0  0  0  0  0  0  0  0
    0.5069   16.1935   38.9989 H   0  0  0  0  0  0  0  0  0  0  0  0
    1.5648   15.0446   38.1114 H   0  0  0  0  0  0  0  0  0  0  0  0
  2 14  1  0
  3  9  1  0
  4 12  1  0
  5 13  1  0
  6  1  2  3
  8  1  1  0
  8  4  1  0
  9  7  1  0
 10  2  1  0
 10  3  1  0
 11  8  1  0
 12 10  1  0
 13 11  1  0
  1 15  1  0
  2 16  1  0
  2 17  1  0
  3 18  1  0
  3 19  1  0
  4 20  1  0
  4 21  1  0
  5 22  1  0
  5 23  1  0
  5 24  1  0
  6 25  1  0
  6 26  1  0
  7 27  1  0
  7 28  1  0
  7 29  1  0
  8 30  1  1
  9 31  1  0
  9 32  1  0
 10 33  1  1
 11 34  1  0
 11 35  1  0
 13 36  1  0
 13 37  1  0
 14 38  1  0
 14 39  1  0
 14 40  1  0
M  END
>  <mol_id>  (35) 
2026-09-16-6tgu-s0-n100-0035

>  <rmsd_to_ref>  (35) 


$$$$

     RDKit          3D

 69 68  0  0  0  0  0  0  0  0999 V2000
    2.1863   19.5296   36.7823 O   0  0  0  0  0  0  0  0  0  0  0  0
    2.9447   20.0543   35.9642 C   0  0  0  0  0  0  0  0  0  0  0  0
    5.0680   13.3273   38.5610 O   0  0  0  0  0  0  0  0  0  0  0  0
    4.3378   15.5908   37.8790 C   0  0  0  0  0  0  0  0  0  0  0  0
    0.3692   25.7109   30.9238 F   0  0  0  0  0  0  0  0  0  0  0  0
    3.5832   17.3260   39.1796 C   0  0  0  0  0  0  0  0  0  0  0  0
    1.3414   25.2637   31.7353 C   0  0  0  0  0  0  0  0  0  0  0  0
    5.5152   14.6286   38.1852 C   0  0  0  0  0  0  0  0  0  0  0  0
    3.9777   19.5431   35.6440 O   0  0  0  0  0  0  0  0  0  0  0  0
    4.8841    9.9965   37.0565 C   0  0  1  0  0  0  0  0  0  0  0  0
    6.3925   12.4039   36.9882 O   0  0  0  0  0  0  0  0  0  0  0  0
    1.1460   25.1369   33.1565 C   0  0  0  0  0  0  0  0  0  0  0  0
    4.5954   11.1725   37.8524 O   0  0  0  0  0  0  0  0  0  0  0  0
    4.3600    8.5826   37.2859 C   0  0  0  0  0  0  0  0  0  0  0  0
    2.7831   23.0810   33.4209 C   0  0  2  0  0  0  0  0  0  0  0  0
    2.2720   24.6410   30.9989 C   0  0  0  0  0  0  0  0  0  0  0  0
    1.1494   14.6434   42.2258 O   0  0  0  0  0  0  0  0  0  0  0  0
    3.7934   16.0728   39.1417 O   0  0  0  0  0  0  0  0  0  0  0  0
    1.6331   23.9308   33.8044 C   0  0  0  0  0  0  0  0  0  0  0  0
    0.2915   16.8986   42.3829 C   0  0  0  0  0  0  0  0  0  0  0  0
    3.9766   18.2686   38.7355 O   0  0  0  0  0  0  0  0  0  0  0  0
    2.0833   17.7582   40.4636 C   0  0  0  0  0  0  0  0  0  0  0  0
    2.6440   21.5029   35.5808 C   0  0  0  0  0  0  0  0  0  0  0  0
    3.8069   11.3725   35.1506 O   0  0  0  0  0  0  0  0  0  0  0  0
    3.2081   23.9844   31.2564 C   0  0  1  0  0  0  0  0  0  0  0  0
    2.9513   21.7837   34.1456 C   0  0  0  0  0  0  0  0  0  0  0  0
    5.4256   12.3133   37.7163 C   0  0  0  0  0  0  0  0  0  0  0  0
    4.4791   24.0987   30.0366 S   0  0  0  0  0  0  0  0  0  0  0  0
    3.8131   23.8653   32.5897 C   0  0  2  0  0  0  0  0  0  0  0  0
    1.1501   16.0195   41.8164 C   0  0  0  0  0  0  0  0  0  0  0  0
    4.6692   10.3125   35.5430 C   0  0  0  0  0  0  0  0  0  0  0  0
    0.3451   18.1841   41.9313 C   0  0  0  0  0  0  0  0  0  0  0  0
    2.0895   16.4294   40.8230 C   0  0  0  0  0  0  0  0  0  0  0  0
    1.2076   18.6922   40.9858 C   0  0  0  0  0  0  0  0  0  0  0  0
    5.1924   23.3604   32.8402 C   0  0  0  0  0  0  0  0  0  0  0  0
    4.6993   16.4412   37.2822 H   0  0  0  0  0  0  0  0  0  0  0  0
    3.5583   15.0632   37.3097 H   0  0  0  0  0  0  0  0  0  0  0  0
    2.7528   17.5493   39.8657 H   0  0  0  0  0  0  0  0  0  0  0  0
    6.1430   14.5408   37.2863 H   0  0  0  0  0  0  0  0  0  0  0  0
    6.0803   15.0472   39.0310 H   0  0  0  0  0  0  0  0  0  0  0  0
    5.8995    9.8667   37.4592 H   0  0  0  0  0  0  0  0  0  0  0  0
    1.6485   25.9911   33.6339 H   0  0  0  0  0  0  0  0  0  0  0  0
    0.0540   25.0962   33.2825 H   0  0  0  0  0  0  0  0  0  0  0  0
    4.1588    8.4355   38.3573 H   0  0  0  0  0  0  0  0  0  0  0  0
    3.4306    8.4389   36.7153 H   0  0  0  0  0  0  0  0  0  0  0  0
    5.1125    7.8537   36.9508 H   0  0  0  0  0  0  0  0  0  0  0  0
    2.7641   22.2796   32.6675 H   0  0  0  0  0  0  0  0  0  0  0  0
    2.1253   24.7754   29.9171 H   0  0  0  0  0  0  0  0  0  0  0  0
    1.7788   14.0027   41.8093 H   0  0  0  0  0  0  0  0  0  0  0  0
    1.8507   24.2405   34.8372 H   0  0  0  0  0  0  0  0  0  0  0  0
    0.8223   23.2492   33.5076 H   0  0  0  0  0  0  0  0  0  0  0  0
   -0.4145   16.5916   43.1686 H   0  0  0  0  0  0  0  0  0  0  0  0
    2.8176   18.0966   39.7177 H   0  0  0  0  0  0  0  0  0  0  0  0
    1.5771   21.7024   35.7600 H   0  0  0  0  0  0  0  0  0  0  0  0
    3.2825   22.1539   36.1959 H   0  0  0  0  0  0  0  0  0  0  0  0
    3.3298   11.7211   35.9449 H   0  0  0  0  0  0  0  0  0  0  0  0
    2.6335   23.0463   31.2617 H   0  0  0  0  0  0  0  0  0  0  0  0
    2.3414   21.0636   33.5803 H   0  0  0  0  0  0  0  0  0  0  0  0
    4.0498   21.7524   34.1935 H   0  0  0  0  0  0  0  0  0  0  0  0
    5.7025   24.1202   30.6526 H   0  0  0  0  0  0  0  0  0  0  0  0
    4.0249   24.9101   32.8609 H   0  0  0  0  0  0  0  0  0  0  0  0
    4.2748    9.3956   35.0807 H   0  0  0  0  0  0  0  0  0  0  0  0
    5.6601   10.6603   35.2157 H   0  0  0  0  0  0  0  0  0  0  0  0
   -0.3768   18.8897   42.3683 H   0  0  0  0  0  0  0  0  0  0  0  0
    2.7883   15.7143   40.3644 H   0  0  0  0  0  0  0  0  0  0  0  0
    1.2006   19.7470   40.6739 H   0  0  0  0  0  0  0  0  0  0  0  0
    5.3311   23.1923   33.9184 H   0  0  0  0  0  0  0  0  0  0  0  0
    5.3402   22.4139   32.2996 H   0  0  0  0  0  0  0  0  0  0  0  0
    5.9241   24.1022   32.4876 H   0  0  0  0  0  0  0  0  0  0  0  0
  2  1  1  0
  4  8  1  0
  4 18  1  0
  5  7  1  0
  7 12  1  0
  8  3  1  0
  9  2  2  0
 10 14  1  0
 10 13  1  0
 11 27  2  0
 12 19  1  0
 15 19  1  0
 15 26  1  0
 16 25  1  0
 16  7  2  0
 18  6  1  0
 21  6  2  0
 22 33  1  0
 22 34  2  0
 23  2  1  0
 24 31  1  0
 25 28  1  0
 25 29  1  0
 26 23  1  0
 27 13  1  0
 27  3  1  0
 29 35  1  0
 29 15  1  0
 30 17  1  0
 30 20  1  0
 31 10  1  0
 32 20  2  0
 33 30  2  0
 34 32  1  0
  4 36  1  0
  4 37  1  0
  6 38  1  0
  8 39  1  0
  8 40  1  0
 10 41  1  6
 12 42  1  0
 12 43  1  0
 14 44  1  0
 14 45  1  0
 14 46  1  0
 15 47  1  6
 16 48  1  0
 17 49  1  0
 19 50  1  0
 19 51  1  0
 20 52  1  0
 22 53  1  0
 23 54  1  0
 23 55  1  0
 24 56  1  0
 25 57  1  6
 26 58  1  0
 26 59  1  0
 28 60  1  0
 29 61  1  1
 31 62  1  0
 31 63  1  0
 32 64  1  0
 33 65  1  0
 34 66  1  0
 35 67  1  0
 35 68  1  0
 35 69  1  0
M  CHG  1   1  -1
M  END
>  <mol_id>  (36) 
2026-09-16-6tgu-s0-n100-0036

>  <rmsd_to_ref>  (36) 


$$$$

     RDKit          3D

 44 45  0  0  0  0  0  0  0  0999 V2000
    3.1943   18.1790   37.8037 C   0  0  1  0  0  0  0  0  0  0  0  0
    2.1390   19.5453   39.5119 C   0  0  0  0  0  0  0  0  0  0  0  0
    2.7357   16.1882   38.3460 C   0  0  0  0  0  0  0  0  0  0  0  0
    0.8372   26.6220   32.6338 C   0  0  0  0  0  0  0  0  0  0  0  0
    3.1902   21.4441   34.5523 C   0  0  0  0  0  0  0  0  0  0  0  0
    1.6866   20.6951   38.8058 C   0  0  0  0  0  0  0  0  0  0  0  0
    3.9244   16.3526   36.1691 C   0  0  0  0  0  0  0  0  0  0  0  0
    3.3624   19.1995   36.8058 N   0  0  0  0  0  0  0  0  0  0  0  0
    0.6995   26.4782   33.9833 C   0  0  0  0  0  0  0  0  0  0  0  0
    2.8962   20.4071   36.6899 C   0  0  0  0  0  0  0  0  0  0  0  0
    3.8259   17.0090   37.5417 C   0  0  1  0  0  0  0  0  0  0  0  0
    1.8942   26.6823   30.2866 C   0  0  0  0  0  0  0  0  0  0  0  0
    0.2175   27.4907   34.8063 C   0  0  0  0  0  0  0  0  0  0  0  0
    2.0149   20.9435   37.5854 C   0  0  0  0  0  0  0  0  0  0  0  0
    1.0382   25.2202   34.8275 C   0  0  0  0  0  0  0  0  0  0  0  0
    0.7082   26.2678   31.2644 C   0  0  0  0  0  0  0  0  0  0  0  0
    2.8023   18.5320   38.9789 C   0  0  1  0  0  0  0  0  0  0  0  0
    3.6811   21.1899   35.8231 N   0  0  0  0  0  0  0  0  0  0  0  0
    2.5843   16.9975   39.6476 S   0  0  0  0  0  0  0  0  0  0  0  0
    1.9295   23.7212   34.9488 C   0  0  0  0  0  0  0  0  0  0  0  0
    2.2010   14.8822   37.5675 O   0  0  0  0  0  0  0  0  0  0  0  0
    3.0281   22.8905   33.7407 S   0  0  0  0  0  0  0  0  0  0  0  0
    2.1881   17.7435   37.7148 H   0  0  0  0  0  0  0  0  0  0  0  0
    2.7888   19.9310   40.3113 H   0  0  0  0  0  0  0  0  0  0  0  0
    1.1768   19.0572   39.7259 H   0  0  0  0  0  0  0  0  0  0  0  0
    3.8239   20.8342   33.8917 H   0  0  0  0  0  0  0  0  0  0  0  0
    2.1249   21.2778   34.7704 H   0  0  0  0  0  0  0  0  0  0  0  0
    1.0260   21.4042   39.3262 H   0  0  0  0  0  0  0  0  0  0  0  0
    4.1707   15.2873   36.2890 H   0  0  0  0  0  0  0  0  0  0  0  0
    2.9615   16.4498   35.6463 H   0  0  0  0  0  0  0  0  0  0  0  0
    4.7122   16.8473   35.5819 H   0  0  0  0  0  0  0  0  0  0  0  0
    4.9048   17.0935   37.7389 H   0  0  0  0  0  0  0  0  0  0  0  0
    2.8193   26.8133   30.8673 H   0  0  0  0  0  0  0  0  0  0  0  0
    2.0420   25.8934   29.5344 H   0  0  0  0  0  0  0  0  0  0  0  0
    1.6408   27.6267   29.7826 H   0  0  0  0  0  0  0  0  0  0  0  0
    0.3588   27.2059   35.8594 H   0  0  0  0  0  0  0  0  0  0  0  0
    0.7661   28.4219   34.6016 H   0  0  0  0  0  0  0  0  0  0  0  0
   -0.8535   27.6452   34.6089 H   0  0  0  0  0  0  0  0  0  0  0  0
    1.4515   21.7890   37.1638 H   0  0  0  0  0  0  0  0  0  0  0  0
    0.4642   25.3129   35.7613 H   0  0  0  0  0  0  0  0  0  0  0  0
   -0.1761   25.7284   30.8941 H   0  0  0  0  0  0  0  0  0  0  0  0
    3.4648   19.3794   39.2092 H   0  0  0  0  0  0  0  0  0  0  0  0
    4.5928   21.5628   36.1240 H   0  0  0  0  0  0  0  0  0  0  0  0
    1.8116   23.1909   35.9053 H   0  0  0  0  0  0  0  0  0  0  0  0
  1  8  1  0
  1 17  1  0
  3 19  1  0
  4  9  2  0
  5 18  1  0
  6  2  1  0
  9 13  1  0
  9 15  1  0
 10  8  2  0
 10 14  1  0
 11  7  1  0
 11  1  1  0
 11  3  1  0
 12 16  1  0
 14  6  2  0
 15 20  2  3
 16  4  2  0
 17  2  1  0
 17 19  1  0
 18 10  1  0
 21  3  2  0
 22  5  1  0
 22 20  1  0
  1 23  1  6
  2 24  1  0
  2 25  1  0
  5 26  1  0
  5 27  1  0
  6 28  1  0
  7 29  1  0
  7 30  1  0
  7 31  1  0
 11 32  1  1
 12 33  1  0
 12 34  1  0
 12 35  1  0
 13 36  1  0
 13 37  1  0
 13 38  1  0
 14 39  1  0
 15 40  1  0
 16 41  1  0
 17 42  1  1
 18 43  1  0
 20 44  1  0
M  END
>  <mol_id>  (37) 
2026-09-16-6tgu-s0-n100-0037

>  <rmsd_to_ref>  (37) 


$$$$

     RDKit          3D

 37 38  0  0  0  0  0  0  0  0999 V2000
    1.9731   24.8874   30.0472 C   0  0  0  0  0  0  0  0  0  0  0  0
    0.4534   18.1778   41.4133 Cl  0  0  0  0  0  0  0  0  0  0  0  0
    2.7327   21.9710   34.0988 C   0  0  0  0  0  0  0  0  0  0  0  0
    1.6777   19.3542   39.2869 C   0  0  0  0  0  0  0  0  0  0  0  0
    2.6263   19.6375   36.8052 C   0  0  1  0  0  0  0  0  0  0  0  0
    1.1015   18.1073   39.8280 C   0  0  0  0  0  0  0  0  0  0  0  0
    2.3451   19.1534   37.9230 C   0  0  0  0  0  0  0  0  0  0  0  0
    2.2974   24.2547   32.9075 C   0  0  0  0  0  0  0  0  0  0  0  0
    1.5543   22.4370   34.8472 O   0  0  0  0  0  0  0  0  0  0  0  0
    1.4311   15.9424   37.0088 O   0  0  0  0  0  0  0  0  0  0  0  0
    2.9074   23.8486   29.3609 C   0  0  0  0  0  0  0  0  0  0  0  0
    2.8877   25.1798   31.4512 S   0  0  1  0  0  4  0  0  0  0  0  0
    3.4929   21.1916   34.3311 O   0  0  0  0  0  0  0  0  0  0  0  0
    4.4072   22.6290   32.8685 O   0  0  0  0  0  0  0  0  0  0  0  0
    4.3107   23.9430   30.6596 S   0  0  0  0  0  0  0  0  0  0  0  0
    2.1724   18.0952   37.2219 C   0  0  0  0  0  0  0  0  0  0  0  0
    1.5446   17.0023   37.7487 C   0  0  0  0  0  0  0  0  0  0  0  0
    0.7813   15.8063   39.5358 O   0  0  0  0  0  0  0  0  0  0  0  0
    0.8079   14.8467   37.3428 N   0  0  0  0  0  0  0  0  0  0  0  0
    3.0296   23.0287   33.0227 C   0  0  1  0  0  0  0  0  0  0  0  0
    1.1937   16.9114   39.0330 C   0  0  0  0  0  0  0  0  0  0  0  0
    2.0148   20.7462   36.5294 O   0  0  0  0  0  0  0  0  0  0  0  0
    0.9849   24.4636   30.2793 H   0  0  0  0  0  0  0  0  0  0  0  0
    1.7313   25.7763   29.4461 H   0  0  0  0  0  0  0  0  0  0  0  0
    1.6326   20.3225   39.8068 H   0  0  0  0  0  0  0  0  0  0  0  0
    3.3768   19.9935   36.0840 H   0  0  0  0  0  0  0  0  0  0  0  0
    1.2263   24.0327   32.7915 H   0  0  0  0  0  0  0  0  0  0  0  0
    2.4503   24.8598   33.8133 H   0  0  0  0  0  0  0  0  0  0  0  0
    2.4548   22.8481   29.2974 H   0  0  0  0  0  0  0  0  0  0  0  0
    3.1823   24.0392   28.3130 H   0  0  0  0  0  0  0  0  0  0  0  0
    3.0545   26.4740   31.8683 H   0  0  0  0  0  0  0  0  0  0  0  0
    4.8034   22.4598   33.7599 H   0  0  0  0  0  0  0  0  0  0  0  0
    0.5262   15.7619   40.4913 H   0  0  0  0  0  0  0  0  0  0  0  0
    0.8174   14.7451   38.3677 H   0  0  0  0  0  0  0  0  0  0  0  0
   -0.1663   14.8912   37.0112 H   0  0  0  0  0  0  0  0  0  0  0  0
    2.5548   23.2352   32.0521 H   0  0  0  0  0  0  0  0  0  0  0  0
    1.7571   21.1991   37.3711 H   0  0  0  0  0  0  0  0  0  0  0  0
  1 12  1  0
  3 13  2  0
  3  9  1  0
  4  6  2  0
  5 22  1  0
  5 16  1  0
  5  7  1  0
  6  2  1  0
  7  4  1  0
  8 20  1  0
 10 19  1  0
 10 17  1  0
 11  1  1  0
 11 15  1  0
 12  8  1  0
 15 12  1  0
 16 17  1  0
 16  7  2  0
 17 21  2  0
 20 14  1  0
 20  3  1  0
 21 18  1  0
 21  6  1  0
  1 23  1  0
  1 24  1  0
  4 25  1  0
  5 26  1  1
  8 27  1  0
  8 28  1  0
 11 29  1  0
 11 30  1  0
 12 31  1  1
 14 32  1  0
 18 33  1  0
 19 34  1  0
 19 35  1  0
 20 36  1  6
 22 37  1  0
M  CHG  1   9  -1
M  END
>  <mol_id>  (38) 
2026-09-16-6tgu-s0-n100-0038

>  <rmsd_to_ref>  (38) 


$$$$

     RDKit          3D

 54 57  0  0  0  0  0  0  0  0999 V2000
    4.3114   24.8593   31.7775 C   0  0  0  0  0  0  0  0  0  0  0  0
    6.0078   15.6800   39.4961 S   0  0  0  0  0  0  0  0  0  0  0  0
    2.3073   17.0601   40.5155 C   0  0  0  0  0  0  0  0  0  0  0  0
    3.4994   16.2325   40.3956 N   0  0  0  0  0  0  0  0  0  0  0  0
    2.3576   26.1453   30.9322 C   0  0  0  0  0  0  0  0  0  0  0  0
   -0.8381   15.7386   42.0108 C   0  0  0  0  0  0  0  0  0  0  0  0
    3.0661   20.5410   37.3799 C   0  0  0  0  0  0  0  0  0  0  0  0
   -1.6296   16.8654   41.8353 C   0  0  0  0  0  0  0  0  0  0  0  0
    2.9926   13.7866   40.1441 C   0  0  0  0  0  0  0  0  0  0  0  0
   -1.1450   17.9540   41.2569 C   0  0  0  0  0  0  0  0  0  0  0  0
    5.8380   24.2618   31.7459 C   0  0  0  0  0  0  0  0  0  0  0  0
    1.0380   16.8713   41.0634 C   0  0  0  0  0  0  0  0  0  0  0  0
    1.2761   26.4208   31.1372 C   0  0  0  0  0  0  0  0  0  0  0  0
    4.8050   22.8570   34.5747 C   0  0  0  0  0  0  0  0  0  0  0  0
    4.6571   17.7300   38.8540 N   0  0  0  0  0  0  0  0  0  0  0  0
    3.3986   21.1582   35.9614 C   0  0  1  0  0  0  0  0  0  0  0  0
    1.0661   19.1054   40.0127 S   0  0  0  0  0  0  0  0  0  0  0  0
    4.6279   16.6017   39.6064 C   0  0  0  0  0  0  0  0  0  0  0  0
    5.0909   23.3747   33.5950 C   0  0  0  0  0  0  0  0  0  0  0  0
    3.6382   14.8469   40.9525 C   0  0  0  0  0  0  0  0  0  0  0  0
    4.0466   22.1813   35.5068 C   0  0  1  0  0  0  0  0  0  0  0  0
    4.3112   21.2998   36.5936 C   0  0  0  0  0  0  0  0  0  0  0  0
    3.7903   25.9088   30.7127 C   0  0  0  0  0  0  0  0  0  0  0  0
    0.5325   15.7126   41.7441 C   0  0  0  0  0  0  0  0  0  0  0  0
    5.1872   24.2768   32.6932 C   0  0  2  0  0  0  0  0  0  0  0  0
    3.8115   19.9350   38.4621 N   0  0  0  0  0  0  0  0  0  0  0  0
    0.1854   17.9527   40.9079 C   0  0  0  0  0  0  0  0  0  0  0  0
    2.4551   18.2596   39.8781 C   0  0  0  0  0  0  0  0  0  0  0  0
    3.6669   18.6171   39.0532 C   0  0  0  0  0  0  0  0  0  0  0  0
    4.1860   23.9689   31.1439 H   0  0  0  0  0  0  0  0  0  0  0  0
    4.0687   25.5996   32.5540 H   0  0  0  0  0  0  0  0  0  0  0  0
   -1.3152   14.8184   42.3791 H   0  0  0  0  0  0  0  0  0  0  0  0
    2.3351   19.7578   37.1302 H   0  0  0  0  0  0  0  0  0  0  0  0
    2.9856   21.5195   37.8760 H   0  0  0  0  0  0  0  0  0  0  0  0
   -2.6737   16.8541   42.1813 H   0  0  0  0  0  0  0  0  0  0  0  0
    2.3000   13.2130   40.7777 H   0  0  0  0  0  0  0  0  0  0  0  0
    2.4353   14.2463   39.3145 H   0  0  0  0  0  0  0  0  0  0  0  0
    3.7628   13.1134   39.7399 H   0  0  0  0  0  0  0  0  0  0  0  0
   -1.7838   18.8282   41.0627 H   0  0  0  0  0  0  0  0  0  0  0  0
    6.7374   23.6554   31.9286 H   0  0  0  0  0  0  0  0  0  0  0  0
    5.2648   23.8261   30.9141 H   0  0  0  0  0  0  0  0  0  0  0  0
    6.1345   25.2893   31.4883 H   0  0  0  0  0  0  0  0  0  0  0  0
    0.2277   26.6879   31.3359 H   0  0  0  0  0  0  0  0  0  0  0  0
    2.6626   20.8073   35.2230 H   0  0  0  0  0  0  0  0  0  0  0  0
    4.7107   14.6142   41.0288 H   0  0  0  0  0  0  0  0  0  0  0  0
    3.1257   14.8507   41.9258 H   0  0  0  0  0  0  0  0  0  0  0  0
    3.7996   23.1489   35.0457 H   0  0  0  0  0  0  0  0  0  0  0  0
    4.2137   21.6576   37.6292 H   0  0  0  0  0  0  0  0  0  0  0  0
    5.1576   20.6647   36.8938 H   0  0  0  0  0  0  0  0  0  0  0  0
    3.9472   25.5132   29.6983 H   0  0  0  0  0  0  0  0  0  0  0  0
    4.3429   26.8536   30.8224 H   0  0  0  0  0  0  0  0  0  0  0  0
    1.1759   14.8687   42.0336 H   0  0  0  0  0  0  0  0  0  0  0  0
    5.3660   24.6690   33.7052 H   0  0  0  0  0  0  0  0  0  0  0  0
    4.5510   20.5233   38.8719 H   0  0  0  0  0  0  0  0  0  0  0  0
  1 25  1  0
  2 18  2  0
  3 12  1  0
  4  3  1  0
  4 20  1  0
  5 13  3  0
  6  8  2  0
  7 26  1  0
  9 20  1  0
 10  8  1  0
 12 27  1  0
 12 24  2  0
 15 29  2  0
 15 18  1  0
 16 22  1  0
 16  7  1  0
 17 27  1  0
 18  4  1  0
 19 14  3  0
 21 14  1  0
 21 16  1  0
 21 22  1  0
 23  5  1  0
 23  1  1  0
 24  6  1  0
 25 11  1  0
 25 19  1  0
 26 29  1  0
 27 10  2  0
 28 17  1  0
 28  3  2  0
 29 28  1  0
  1 30  1  0
  1 31  1  0
  6 32  1  0
  7 33  1  0
  7 34  1  0
  8 35  1  0
  9 36  1  0
  9 37  1  0
  9 38  1  0
 10 39  1  0
 11 40  1  0
 11 41  1  0
 11 42  1  0
 13 43  1  0
 16 44  1  6
 20 45  1  0
 20 46  1  0
 21 47  1  1
 22 48  1  0
 22 49  1  0
 23 50  1  0
 23 51  1  0
 24 52  1  0
 25 53  1  1
 26 54  1  0
M  END
>  <mol_id>  (39) 
2026-09-16-6tgu-s0-n100-0039

>  <rmsd_to_ref>  (39) 


$$$$

     RDKit          3D

 80 83  0  0  0  0  0  0  0  0999 V2000
    0.0600   27.7905   33.9644 C   0  0  0  0  0  0  0  0  0  0  0  0
    3.7916   23.1060   33.5833 C   0  0  2  0  0  0  0  0  0  0  0  0
    5.0796   14.5693   35.5998 C   0  0  0  0  0  0  0  0  0  0  0  0
    2.3649   16.1599   39.8306 C   0  0  0  0  0  0  0  0  0  0  0  0
    3.0227   18.4313   37.7946 C   0  0  0  0  0  0  0  0  0  0  0  0
    3.0026   13.8851   38.9935 C   0  0  0  0  0  0  0  0  0  0  0  0
    3.1262   15.1460   37.1353 C   0  0  0  0  0  0  0  0  0  0  0  0
    2.5853   13.8296   40.7807 S   0  0  0  0  0  0  0  0  0  0  0  0
    3.1611   13.2664   35.4939 C   0  0  0  0  0  0  0  0  0  0  0  0
    3.2838   21.8383   34.2665 C   0  0  0  0  0  0  0  0  0  0  0  0
    4.1400   24.4460   33.1828 C   0  0  0  0  0  0  0  0  0  0  0  0
    1.1885   22.8675   33.8305 C   0  0  0  0  0  0  0  0  0  0  0  0
    0.7482   17.2753   41.9464 C   0  0  0  0  0  0  0  0  0  0  0  0
    3.0664   24.4300   33.9168 C   0  0  1  0  0  0  0  0  0  0  0  0
    2.6405   18.3657   39.0553 N   0  0  0  0  0  0  0  0  0  0  0  0
    2.1546   25.7894   31.6267 C   0  0  2  0  0  0  0  0  0  0  0  0
    3.9747   14.0536   36.5247 C   0  0  0  0  0  0  0  0  0  0  0  0
    1.3406   18.1047   40.9616 C   0  0  0  0  0  0  0  0  0  0  0  0
    0.1605   26.6704   33.4790 C   0  0  0  0  0  0  0  0  0  0  0  0
    2.8895   26.7841   32.1756 O   0  0  0  0  0  0  0  0  0  0  0  0
    3.0622   15.2087   38.7109 C   0  0  1  0  0  0  0  0  0  0  0  0
    0.5743   15.1459   42.7735 N   0  0  0  0  0  0  0  0  0  0  0  0
    1.0714   15.9026   41.9175 C   0  0  0  0  0  0  0  0  0  0  0  0
   -0.2744   25.0093   31.6627 S   0  0  0  0  0  0  0  0  0  0  0  0
    4.0245   12.9886   34.4622 O   0  0  0  0  0  0  0  0  0  0  0  0
    2.0110   22.2810   34.8625 C   0  0  0  0  0  0  0  0  0  0  0  0
    0.0059   26.6412   32.0578 C   0  0  1  0  0  0  0  0  0  0  0  0
    1.7190   24.1736   33.4691 N   0  0  0  0  0  0  0  0  0  0  0  0
    2.1108   17.6329   39.9276 C   0  0  0  0  0  0  0  0  0  0  0  0
    1.3738   24.6322   32.0899 C   0  0  2  0  0  0  0  0  0  0  0  0
    2.0461   19.4049   38.4875 C   0  0  0  0  0  0  0  0  0  0  0  0
    1.9824   15.4286   40.8752 C   0  0  0  0  0  0  0  0  0  0  0  0
   -0.0758   27.8509   31.3266 C   0  0  0  0  0  0  0  0  0  0  0  0
    3.1308   25.3071   30.4377 C   0  0  0  0  0  0  0  0  0  0  0  0
    5.8145   15.7700   36.0433 O   0  0  0  0  0  0  0  0  0  0  0  0
    0.1481   27.7250   35.0590 H   0  0  0  0  0  0  0  0  0  0  0  0
    0.8601   28.4342   33.5701 H   0  0  0  0  0  0  0  0  0  0  0  0
   -0.9184   28.2181   33.7003 H   0  0  0  0  0  0  0  0  0  0  0  0
    4.7381   23.0259   34.1381 H   0  0  0  0  0  0  0  0  0  0  0  0
    4.6184   14.8017   34.6284 H   0  0  0  0  0  0  0  0  0  0  0  0
    5.8307   13.7661   35.5741 H   0  0  0  0  0  0  0  0  0  0  0  0
    2.6620   17.6997   37.0565 H   0  0  0  0  0  0  0  0  0  0  0  0
    3.9698   18.4948   37.2388 H   0  0  0  0  0  0  0  0  0  0  0  0
    3.9718   13.4009   38.8033 H   0  0  0  0  0  0  0  0  0  0  0  0
    2.2687   13.3523   38.3710 H   0  0  0  0  0  0  0  0  0  0  0  0
    3.5208   16.1096   36.7809 H   0  0  0  0  0  0  0  0  0  0  0  0
    2.0979   14.9199   36.8169 H   0  0  0  0  0  0  0  0  0  0  0  0
    2.7826   12.3336   35.9372 H   0  0  0  0  0  0  0  0  0  0  0  0
    2.2890   13.8395   35.1461 H   0  0  0  0  0  0  0  0  0  0  0  0
    3.1209   21.0320   33.5363 H   0  0  0  0  0  0  0  0  0  0  0  0
    3.9901   21.4249   35.0014 H   0  0  0  0  0  0  0  0  0  0  0  0
    5.0532   24.8975   33.5976 H   0  0  0  0  0  0  0  0  0  0  0  0
    4.3328   24.8787   32.1900 H   0  0  0  0  0  0  0  0  0  0  0  0
    1.1894   22.2140   32.9457 H   0  0  0  0  0  0  0  0  0  0  0  0
    0.1596   22.9806   34.2027 H   0  0  0  0  0  0  0  0  0  0  0  0
    0.0636   17.6858   42.7033 H   0  0  0  0  0  0  0  0  0  0  0  0
    2.8083   25.1612   34.6971 H   0  0  0  0  0  0  0  0  0  0  0  0
    1.1982   26.3322   31.6530 H   0  0  0  0  0  0  0  0  0  0  0  0
    4.3471   13.5056   37.4028 H   0  0  0  0  0  0  0  0  0  0  0  0
    1.1735   19.1898   41.0297 H   0  0  0  0  0  0  0  0  0  0  0  0
    1.1554   26.2725   33.7278 H   0  0  0  0  0  0  0  0  0  0  0  0
   -0.6535   26.0636   33.9023 H   0  0  0  0  0  0  0  0  0  0  0  0
    3.0352   26.5952   33.1364 H   0  0  0  0  0  0  0  0  0  0  0  0
    3.8298   15.9758   38.8908 H   0  0  0  0  0  0  0  0  0  0  0  0
    0.8002   14.1411   42.7661 H   0  0  0  0  0  0  0  0  0  0  0  0
   -0.0627   15.5253   43.4885 H   0  0  0  0  0  0  0  0  0  0  0  0
    4.7955   12.4722   34.8072 H   0  0  0  0  0  0  0  0  0  0  0  0
    1.4903   21.4183   35.3035 H   0  0  0  0  0  0  0  0  0  0  0  0
    2.2072   23.0244   35.6492 H   0  0  0  0  0  0  0  0  0  0  0  0
    0.4490   26.9667   31.1051 H   0  0  0  0  0  0  0  0  0  0  0  0
    1.6236   23.6827   31.5941 H   0  0  0  0  0  0  0  0  0  0  0  0
    2.3506   20.4334   38.7311 H   0  0  0  0  0  0  0  0  0  0  0  0
    1.0189   19.7680   38.3353 H   0  0  0  0  0  0  0  0  0  0  0  0
   -0.0063   28.7030   32.0187 H   0  0  0  0  0  0  0  0  0  0  0  0
    0.7508   27.8982   30.6025 H   0  0  0  0  0  0  0  0  0  0  0  0
   -1.0355   27.8912   30.7907 H   0  0  0  0  0  0  0  0  0  0  0  0
    3.9143   24.6536   30.8488 H   0  0  0  0  0  0  0  0  0  0  0  0
    2.5482   24.7534   29.6867 H   0  0  0  0  0  0  0  0  0  0  0  0
    3.5961   26.1853   29.9663 H   0  0  0  0  0  0  0  0  0  0  0  0
    6.0158   15.6954   37.0097 H   0  0  0  0  0  0  0  0  0  0  0  0
  2 11  1  0
  2 10  1  0
  3 35  1  0
  3 17  1  0
  4 32  1  0
  5 31  1  0
  5 15  1  0
  6  8  1  0
  9 17  1  0
 10 26  1  0
 12 26  1  0
 13 23  1  0
 14 11  1  0
 14  2  1  0
 15 29  1  0
 16 34  1  0
 16 20  1  0
 16 30  1  0
 17  7  1  0
 18 13  2  0
 19  1  1  0
 21  7  1  0
 21  6  1  0
 21  4  1  0
 23 22  1  0
 25  9  1  0
 27 33  1  0
 27 24  1  0
 27 19  1  0
 28 14  1  0
 28 12  1  0
 29  4  2  0
 29 18  1  0
 30 24  1  0
 30 28  1  0
 31 15  1  0
 32  8  1  0
 32 23  2  0
  1 36  1  0
  1 37  1  0
  1 38  1  0
  2 39  1  6
  3 40  1  0
  3 41  1  0
  5 42  1  0
  5 43  1  0
  6 44  1  0
  6 45  1  0
  7 46  1  0
  7 47  1  0
  9 48  1  0
  9 49  1  0
 10 50  1  0
 10 51  1  0
 11 52  1  0
 11 53  1  0
 12 54  1  0
 12 55  1  0
 13 56  1  0
 14 57  1  1
 16 58  1  6
 17 59  1  0
 18 60  1  0
 19 61  1  0
 19 62  1  0
 20 63  1  0
 21 64  1  1
 22 65  1  0
 22 66  1  0
 25 67  1  0
 26 68  1  0
 26 69  1  0
 27 70  1  6
 30 71  1  6
 31 72  1  0
 31 73  1  0
 33 74  1  0
 33 75  1  0
 33 76  1  0
 34 77  1  0
 34 78  1  0
 34 79  1  0
 35 80  1  0
M  END
>  <mol_id>  (40) 
2026-09-16-6tgu-s0-n100-0040

>  <rmsd_to_ref>  (40) 


$$$$

     RDKit          3D

 80 84  0  0  0  0  0  0  0  0999 V2000
    2.0894   25.1225   31.3378 C   0  0  2  0  0  0  0  0  0  0  0  0
    1.2867   25.4444   32.4745 C   0  0  0  0  0  0  0  0  0  0  0  0
    1.6039   14.0352   43.0453 C   0  0  0  0  0  0  0  0  0  0  0  0
    4.0726   23.9666   29.5861 C   0  0  0  0  0  0  0  0  0  0  0  0
    3.9233   21.4095   35.3088 C   0  0  0  0  0  0  0  0  0  0  0  0
   -0.0430   19.6805   41.3284 C   0  0  0  0  0  0  0  0  0  0  0  0
    1.3855   15.8749   41.2041 N   0  0  0  0  0  0  0  0  0  0  0  0
    3.0251   13.5565   42.5236 C   0  0  0  0  0  0  0  0  0  0  0  0
    2.7610   17.3363   38.6080 O   0  0  0  0  0  0  0  0  0  0  0  0
    2.7492   23.3211   29.4619 C   0  0  0  0  0  0  0  0  0  0  0  0
    3.6085   23.8084   34.4374 C   0  0  1  0  0  0  0  0  0  0  0  0
    1.6877   24.2371   29.9711 C   0  0  0  0  0  0  0  0  0  0  0  0
   -1.2406   19.1732   41.8870 C   0  0  0  0  0  0  0  0  0  0  0  0
    1.8369   20.8189   36.2015 O   0  0  0  0  0  0  0  0  0  0  0  0
    1.9594   18.7188   40.1861 O   0  0  0  0  0  0  0  0  0  0  0  0
    1.2375   26.8434   31.9445 C   0  0  0  0  0  0  0  0  0  0  0  0
    2.6792   15.8381   40.6611 C   0  0  0  0  0  0  0  0  0  0  0  0
    2.5580   23.2538   35.5007 C   0  0  0  0  0  0  0  0  0  0  0  0
   -1.6652   17.8223   42.1443 C   0  0  0  0  0  0  0  0  0  0  0  0
    4.0484   24.6778   33.2594 C   0  0  1  0  0  0  0  0  0  0  0  0
    0.4800   17.0797   41.2711 C   0  0  0  0  0  0  0  0  0  0  0  0
    2.7385   18.6361   39.3337 C   0  0  0  0  0  0  0  0  0  0  0  0
    3.7115   22.8358   35.3637 N   0  0  0  0  0  0  0  0  0  0  0  0
    0.5661   18.4755   40.7221 C   0  0  1  0  0  0  0  0  0  0  0  0
    4.9620   15.8689   39.3277 C   0  0  0  0  0  0  0  0  0  0  0  0
    3.3656   16.1823   39.3695 C   0  0  2  0  0  0  0  0  0  0  0  0
    0.8905   14.7476   41.9905 O   0  0  0  0  0  0  0  0  0  0  0  0
   -0.7257   16.7384   41.8311 C   0  0  0  0  0  0  0  0  0  0  0  0
    0.3017   26.7633   30.7455 C   0  0  0  0  0  0  0  0  0  0  0  0
    4.4929   24.1162   30.9765 C   0  0  0  0  0  0  0  0  0  0  0  0
    3.1847   20.9226   36.5096 C   0  0  0  0  0  0  0  0  0  0  0  0
    0.8509   12.6935   43.2937 C   0  0  0  0  0  0  0  0  0  0  0  0
    3.1360   23.5056   32.9571 C   0  0  2  0  0  0  0  0  0  0  0  0
    3.4805   24.6438   31.9645 C   0  0  2  0  0  0  0  0  0  0  0  0
    1.9837   26.0533   30.7611 H   0  0  0  0  0  0  0  0  0  0  0  0
    0.3143   24.9315   32.5120 H   0  0  0  0  0  0  0  0  0  0  0  0
    1.6130   25.2210   33.5009 H   0  0  0  0  0  0  0  0  0  0  0  0
    1.6796   14.6968   43.9208 H   0  0  0  0  0  0  0  0  0  0  0  0
    4.8159   23.3523   29.0569 H   0  0  0  0  0  0  0  0  0  0  0  0
    3.9959   24.9735   29.1497 H   0  0  0  0  0  0  0  0  0  0  0  0
    3.5055   20.9816   34.3856 H   0  0  0  0  0  0  0  0  0  0  0  0
    4.9861   21.1255   35.3048 H   0  0  0  0  0  0  0  0  0  0  0  0
   -0.2531   20.4454   40.5664 H   0  0  0  0  0  0  0  0  0  0  0  0
    0.6072   20.1763   42.0642 H   0  0  0  0  0  0  0  0  0  0  0  0
    3.6263   13.1996   43.3728 H   0  0  0  0  0  0  0  0  0  0  0  0
    2.8935   12.7398   41.7986 H   0  0  0  0  0  0  0  0  0  0  0  0
    3.5400   14.3985   42.0379 H   0  0  0  0  0  0  0  0  0  0  0  0
    2.5544   23.0891   28.4045 H   0  0  0  0  0  0  0  0  0  0  0  0
    2.7417   22.3938   30.0536 H   0  0  0  0  0  0  0  0  0  0  0  0
    1.4399   24.9472   29.1684 H   0  0  0  0  0  0  0  0  0  0  0  0
    0.8486   23.5903   30.2673 H   0  0  0  0  0  0  0  0  0  0  0  0
   -1.9720   19.9433   42.1733 H   0  0  0  0  0  0  0  0  0  0  0  0
    1.3093   20.7780   37.0382 H   0  0  0  0  0  0  0  0  0  0  0  0
    0.8392   27.5330   32.7034 H   0  0  0  0  0  0  0  0  0  0  0  0
    2.2335   27.2237   31.6737 H   0  0  0  0  0  0  0  0  0  0  0  0
    3.2452   16.4424   41.3853 H   0  0  0  0  0  0  0  0  0  0  0  0
    2.6133   14.7682   40.4141 H   0  0  0  0  0  0  0  0  0  0  0  0
    2.2769   23.8528   36.3795 H   0  0  0  0  0  0  0  0  0  0  0  0
    1.5418   22.8331   35.4847 H   0  0  0  0  0  0  0  0  0  0  0  0
   -2.6603   17.6090   42.5617 H   0  0  0  0  0  0  0  0  0  0  0  0
    4.7916   25.4641   33.4575 H   0  0  0  0  0  0  0  0  0  0  0  0
    3.7355   18.7980   39.7692 H   0  0  0  0  0  0  0  0  0  0  0  0
    2.4511   19.3924   38.5883 H   0  0  0  0  0  0  0  0  0  0  0  0
   -0.2370   18.3939   39.9749 H   0  0  0  0  0  0  0  0  0  0  0  0
    5.3311   15.7083   40.3514 H   0  0  0  0  0  0  0  0  0  0  0  0
    5.1427   14.9654   38.7268 H   0  0  0  0  0  0  0  0  0  0  0  0
    5.4912   16.7212   38.8765 H   0  0  0  0  0  0  0  0  0  0  0  0
    3.0891   15.4140   38.6324 H   0  0  0  0  0  0  0  0  0  0  0  0
   -0.9797   15.6883   42.0382 H   0  0  0  0  0  0  0  0  0  0  0  0
   -0.7372   26.6772   31.0964 H   0  0  0  0  0  0  0  0  0  0  0  0
    0.4086   27.6724   30.1356 H   0  0  0  0  0  0  0  0  0  0  0  0
    0.5581   25.8824   30.1386 H   0  0  0  0  0  0  0  0  0  0  0  0
    4.8123   23.1252   31.3313 H   0  0  0  0  0  0  0  0  0  0  0  0
    5.2788   24.8854   30.9473 H   0  0  0  0  0  0  0  0  0  0  0  0
    3.5720   19.9365   36.8056 H   0  0  0  0  0  0  0  0  0  0  0  0
    3.3216   21.6297   37.3411 H   0  0  0  0  0  0  0  0  0  0  0  0
    0.5179   12.6484   44.3412 H   0  0  0  0  0  0  0  0  0  0  0  0
   -0.0230   12.6350   42.6282 H   0  0  0  0  0  0  0  0  0  0  0  0
    1.5263   11.8502   43.0870 H   0  0  0  0  0  0  0  0  0  0  0  0
    2.5467   22.6137   32.6981 H   0  0  0  0  0  0  0  0  0  0  0  0
  1 34  1  0
  1  2  1  0
  3 32  1  0
  4 10  1  0
  4 30  1  0
  5 23  1  0
  5 31  1  0
  6 13  1  0
  7 21  1  0
  7 27  1  0
  8  3  1  0
  9 26  1  0
  9 22  1  0
 10 12  1  0
 11 23  1  6
 11 18  1  0
 12  1  1  0
 13 19  2  0
 15 24  1  0
 16  2  1  0
 17  7  1  0
 20 33  1  0
 20 11  1  0
 21 28  2  0
 22 15  1  0
 23 18  1  0
 24 21  1  0
 24  6  1  0
 25 26  1  0
 26 17  1  0
 27  3  1  0
 28 19  1  0
 29 16  1  0
 34 30  1  6
 31 14  1  0
 33 11  1  0
 34 20  1  0
 34 33  1  0
  1 35  1  6
  2 36  1  0
  2 37  1  0
  3 38  1  0
  4 39  1  0
  4 40  1  0
  5 41  1  0
  5 42  1  0
  6 43  1  0
  6 44  1  0
  8 45  1  0
  8 46  1  0
  8 47  1  0
 10 48  1  0
 10 49  1  0
 12 50  1  0
 12 51  1  0
 13 52  1  0
 14 53  1  0
 16 54  1  0
 16 55  1  0
 17 56  1  0
 17 57  1  0
 18 58  1  0
 18 59  1  0
 19 60  1  0
 20 61  1  6
 22 62  1  0
 22 63  1  0
 24 64  1  6
 25 65  1  0
 25 66  1  0
 25 67  1  0
 26 68  1  6
 28 69  1  0
 29 70  1  0
 29 71  1  0
 29 72  1  0
 30 73  1  0
 30 74  1  0
 31 75  1  0
 31 76  1  0
 32 77  1  0
 32 78  1  0
 32 79  1  0
 33 80  1  6
M  END
>  <mol_id>  (41) 
2026-09-16-6tgu-s0-n100-0041

>  <rmsd_to_ref>  (41) 


$$$$

     RDKit          3D

 32 33  0  0  0  0  0  0  0  0999 V2000
    3.8869   20.6001   35.4142 C   0  0  1  0  0  0  0  0  0  0  0  0
    2.5065   19.6254   38.6031 C   0  0  0  0  0  0  0  0  0  0  0  0
    1.8482   20.1216   41.0993 C   0  0  0  0  0  0  0  0  0  0  0  0
    2.2329   20.6193   37.5421 C   0  0  0  0  0  0  0  0  0  0  0  0
    2.0432   20.2613   39.8822 C   0  0  0  0  0  0  0  0  0  0  0  0
    2.1795   15.6693   39.9026 S   0  0  0  0  0  4  0  0  0  0  0  0
    3.7888   21.6145   34.3519 O   0  0  0  0  0  0  0  0  0  0  0  0
    2.7957   22.6150   36.1173 C   0  0  0  0  0  0  0  0  0  0  0  0
    1.4423   15.1181   41.0013 O   0  0  0  0  0  0  0  0  0  0  0  0
    2.5847   14.7961   38.8123 O   0  0  0  0  0  0  0  0  0  0  0  0
    2.4805   17.7670   41.5118 C   0  0  0  0  0  0  0  0  0  0  0  0
    2.3414   19.1393   42.0358 C   0  0  0  0  0  0  0  0  0  0  0  0
    2.5603   18.0026   38.8428 C   0  0  0  0  0  0  0  0  0  0  0  0
    2.4533   17.2859   40.0801 C   0  0  0  0  0  0  0  0  0  0  0  0
    4.9901   21.5792   36.6465 C   0  0  0  0  0  0  0  0  0  0  0  0
    3.3388   21.4255   36.5077 C   0  0  2  0  0  0  0  0  0  0  0  0
    3.8075   19.5731   35.0282 H   0  0  0  0  0  0  0  0  0  0  0  0
    1.1838   20.8780   41.5424 H   0  0  0  0  0  0  0  0  0  0  0  0
    1.5428   20.1051   36.8570 H   0  0  0  0  0  0  0  0  0  0  0  0
    1.9758   21.4709   38.1890 H   0  0  0  0  0  0  0  0  0  0  0  0
    2.7132   21.1334   39.9044 H   0  0  0  0  0  0  0  0  0  0  0  0
    1.0187   19.9153   39.6806 H   0  0  0  0  0  0  0  0  0  0  0  0
    3.9215   22.5148   34.7420 H   0  0  0  0  0  0  0  0  0  0  0  0
    2.6459   23.2565   36.9982 H   0  0  0  0  0  0  0  0  0  0  0  0
    3.4757   23.1144   35.4115 H   0  0  0  0  0  0  0  0  0  0  0  0
    1.8278   22.4330   35.6275 H   0  0  0  0  0  0  0  0  0  0  0  0
    3.0954   14.0297   39.1756 H   0  0  0  0  0  0  0  0  0  0  0  0
    2.6244   16.9838   42.2707 H   0  0  0  0  0  0  0  0  0  0  0  0
    2.5971   19.3977   43.0740 H   0  0  0  0  0  0  0  0  0  0  0  0
    2.6954   17.3876   37.9408 H   0  0  0  0  0  0  0  0  0  0  0  0
    5.5546   21.0765   37.4456 H   0  0  0  0  0  0  0  0  0  0  0  0
    5.7659   22.3590   36.6450 H   0  0  0  0  0  0  0  0  0  0  0  0
  1  7  1  0
  1 16  1  0
  1 15  1  0
  2 13  2  0
  2  5  1  0
  3 12  2  0
  4  2  1  0
  5  3  1  0
  6 10  1  0
  6 14  1  0
  6  9  2  0
 11 12  1  0
 13 14  1  0
 14 11  2  0
 16  8  1  6
 16 15  1  0
 16  4  1  0
  1 17  1  6
  3 18  1  0
  4 19  1  0
  4 20  1  0
  5 21  1  0
  5 22  1  0
  7 23  1  0
  8 24  1  0
  8 25  1  0
  8 26  1  0
 10 27  1  0
 11 28  1  0
 12 29  1  0
 13 30  1  0
 15 31  1  0
 15 32  1  0
M  END
>  <mol_id>  (42) 
2026-09-16-6tgu-s0-n100-0042

>  <rmsd_to_ref>  (42) 


$$$$

     RDKit          3D

 60 60  0  0  0  0  0  0  0  0999 V2000
    0.1561   17.6492   43.6798 N   0  0  0  0  0  0  0  0  0  0  0  0
    2.1651   15.0791   40.4711 C   0  0  0  0  0  0  0  0  0  0  0  0
   -1.0234   20.2633   43.0005 O   0  0  0  0  0  0  0  0  0  0  0  0
    1.7228   25.3675   34.7663 C   0  0  0  0  0  0  0  0  0  0  0  0
    2.6576   16.1907   39.9077 C   0  0  0  0  0  0  0  0  0  0  0  0
    1.9058   19.6292   41.1883 C   0  0  0  0  0  0  0  0  0  0  0  0
    1.7741   12.7828   40.3040 O   0  0  0  0  0  0  0  0  0  0  0  0
    0.3988   22.4544   43.6870 O   0  0  0  0  0  0  0  0  0  0  0  0
    1.8470   26.4050   33.6625 C   0  0  0  0  0  0  0  0  0  0  0  0
    0.8416   17.9231   42.5302 C   0  0  0  0  0  0  0  0  0  0  0  0
    3.2156   13.7143   38.9303 O   0  0  0  0  0  0  0  0  0  0  0  0
    2.4473   13.7590   39.8545 C   0  0  0  0  0  0  0  0  0  0  0  0
    2.3459   24.2071   34.6251 C   0  0  0  0  0  0  0  0  0  0  0  0
    1.4341   15.4969   41.5690 C   0  0  0  0  0  0  0  0  0  0  0  0
    0.9187   21.5660   42.9021 C   0  0  0  0  0  0  0  0  0  0  0  0
    2.2126   26.3431   29.7901 C   0  0  0  0  0  0  0  0  0  0  0  0
    3.2081   24.7249   31.9808 C   0  0  0  0  0  0  0  0  0  0  0  0
    2.2526   17.3529   40.6810 C   0  0  1  0  0  0  0  0  0  0  0  0
    1.4116   16.9372   41.6753 C   0  0  0  0  0  0  0  0  0  0  0  0
    0.9418   19.2954   42.1959 C   0  0  0  0  0  0  0  0  0  0  0  0
    2.5056   23.3998   35.6659 C   0  0  0  0  0  0  0  0  0  0  0  0
    0.1685   20.3372   42.7893 C   0  0  0  0  0  0  0  0  0  0  0  0
    1.7535   26.6598   31.2093 C   0  0  0  0  0  0  0  0  0  0  0  0
    2.5504   18.7092   40.5025 C   0  0  0  0  0  0  0  0  0  0  0  0
   -0.1489   16.3631   44.2452 C   0  0  0  0  0  0  0  0  0  0  0  0
    3.5802   23.5162   36.2968 O   0  0  0  0  0  0  0  0  0  0  0  0
    3.0429   25.2228   29.5194 C   0  0  0  0  0  0  0  0  0  0  0  0
    4.0541   20.6944   35.8222 C   0  0  0  0  0  0  0  0  0  0  0  0
    1.6728   22.4807   35.7524 O   0  0  0  0  0  0  0  0  0  0  0  0
    3.7321   20.9842   37.2314 C   0  0  0  0  0  0  0  0  0  0  0  0
    3.5615   24.4188   30.6381 C   0  0  0  0  0  0  0  0  0  0  0  0
    2.3465   25.9202   32.3380 C   0  0  0  0  0  0  0  0  0  0  0  0
   -0.7605   18.1006   43.5502 H   0  0  0  0  0  0  0  0  0  0  0  0
    0.8676   17.9524   44.3601 H   0  0  0  0  0  0  0  0  0  0  0  0
    1.1261   25.5765   35.6664 H   0  0  0  0  0  0  0  0  0  0  0  0
    3.2750   16.2193   38.9978 H   0  0  0  0  0  0  0  0  0  0  0  0
    2.1136   20.6895   40.9817 H   0  0  0  0  0  0  0  0  0  0  0  0
    0.5280   22.1786   44.6291 H   0  0  0  0  0  0  0  0  0  0  0  0
    0.8507   26.8430   33.5030 H   0  0  0  0  0  0  0  0  0  0  0  0
    2.6093   27.1145   34.0169 H   0  0  0  0  0  0  0  0  0  0  0  0
    2.7333   23.9110   33.6391 H   0  0  0  0  0  0  0  0  0  0  0  0
    0.9325   14.8169   42.2733 H   0  0  0  0  0  0  0  0  0  0  0  0
    1.0049   22.0066   41.8978 H   0  0  0  0  0  0  0  0  0  0  0  0
    1.8885   21.2947   43.3446 H   0  0  0  0  0  0  0  0  0  0  0  0
    1.8954   26.9935   28.9616 H   0  0  0  0  0  0  0  0  0  0  0  0
    3.5722   24.0723   32.7880 H   0  0  0  0  0  0  0  0  0  0  0  0
    1.3910   17.4974   40.0126 H   0  0  0  0  0  0  0  0  0  0  0  0
    0.9894   27.4306   31.3885 H   0  0  0  0  0  0  0  0  0  0  0  0
    3.3283   19.0078   39.7843 H   0  0  0  0  0  0  0  0  0  0  0  0
   -0.2352   16.4541   45.3381 H   0  0  0  0  0  0  0  0  0  0  0  0
   -1.1001   15.9970   43.8315 H   0  0  0  0  0  0  0  0  0  0  0  0
    0.6553   15.6541   43.9987 H   0  0  0  0  0  0  0  0  0  0  0  0
    3.2963   24.9583   28.4822 H   0  0  0  0  0  0  0  0  0  0  0  0
    4.9255   20.0247   35.7755 H   0  0  0  0  0  0  0  0  0  0  0  0
    3.1921   20.2086   35.3416 H   0  0  0  0  0  0  0  0  0  0  0  0
    4.2848   21.6336   35.2982 H   0  0  0  0  0  0  0  0  0  0  0  0
    4.4433   20.4587   37.8855 H   0  0  0  0  0  0  0  0  0  0  0  0
    3.8027   22.0676   37.4083 H   0  0  0  0  0  0  0  0  0  0  0  0
    2.7100   20.6426   37.4517 H   0  0  0  0  0  0  0  0  0  0  0  0
    4.2309   23.5704   30.4326 H   0  0  0  0  0  0  0  0  0  0  0  0
  1 25  1  0
  2 14  1  0
  5  2  2  0
  6 20  1  0
  9  4  1  0
 10  1  1  0
 11 12  2  0
 12  7  1  0
 12  2  1  0
 13  4  2  3
 13 21  1  0
 14 19  2  0
 15  8  1  0
 16 23  1  0
 17 32  1  0
 18  5  1  0
 18 19  1  0
 19 10  1  0
 20 10  2  0
 20 22  1  0
 21 29  2  0
 21 26  1  0
 22 15  1  0
 22  3  2  0
 23 32  2  0
 24 18  1  0
 24  6  2  0
 27 16  2  0
 27 31  1  0
 28 30  1  0
 31 17  2  0
 32  9  1  0
  1 33  1  0
  1 34  1  0
  4 35  1  0
  5 36  1  0
  6 37  1  0
  8 38  1  0
  9 39  1  0
  9 40  1  0
 13 41  1  0
 14 42  1  0
 15 43  1  0
 15 44  1  0
 16 45  1  0
 17 46  1  0
 18 47  1  1
 23 48  1  0
 24 49  1  0
 25 50  1  0
 25 51  1  0
 25 52  1  0
 27 53  1  0
 28 54  1  0
 28 55  1  0
 28 56  1  0
 30 57  1  0
 30 58  1  0
 30 59  1  0
 31 60  1  0
M  CHG  3   1   1   7  -1  26  -1
M  END
>  <mol_id>  (43) 
2026-09-16-6tgu-s0-n100-0043

>  <rmsd_to_ref>  (43) 


$$$$

     RDKit          3D

 52 53  0  0  0  0  0  0  0  0999 V2000
   -1.8331   17.9005   42.8339 O   0  0  0  0  0  0  0  0  0  0  0  0
    4.2367   24.6283   34.2324 C   0  0  0  0  0  0  0  0  0  0  0  0
    2.0238   23.8643   35.4127 C   0  0  0  0  0  0  0  0  0  0  0  0
    2.3774   20.0036   38.7302 C   0  0  0  0  0  0  0  0  0  0  0  0
    0.3808   19.5005   41.7258 C   0  0  1  0  0  0  0  0  0  0  0  0
    3.9806   16.9791   39.9839 C   0  0  0  0  0  0  0  0  0  0  0  0
    2.7059   16.9037   40.5848 C   0  0  0  0  0  0  0  0  0  0  0  0
    0.8120   20.1817   40.6261 O   0  0  0  0  0  0  0  0  0  0  0  0
    1.7587   19.5053   39.9997 C   0  0  2  0  0  0  0  0  0  0  0  0
    5.5367   12.0700   40.5123 C   0  0  0  0  0  0  0  0  0  0  0  0
    1.9419   18.2623   40.7301 N   0  0  0  0  0  0  0  0  0  0  0  0
    2.8516   14.4858   40.6100 C   0  0  0  0  0  0  0  0  0  0  0  0
    4.3495   22.6984   35.7005 C   0  0  0  0  0  0  0  0  0  0  0  0
    1.2031   18.4034   41.8217 O   0  0  0  0  0  0  0  0  0  0  0  0
   -1.9716   18.8755   42.3981 C   0  0  0  0  0  0  0  0  0  0  0  0
    4.8677   13.1482   39.3969 S   0  0  0  0  0  6  0  0  0  0  0  0
    3.6089   23.8482   35.3131 C   0  0  0  0  0  0  0  0  0  0  0  0
    3.9259   12.5219   38.4844 O   0  0  0  0  0  0  0  0  0  0  0  0
    4.6985   15.8410   39.6713 C   0  0  0  0  0  0  0  0  0  0  0  0
    1.7704   20.5962   37.7288 C   0  0  0  0  0  0  0  0  0  0  0  0
   -0.8071   19.8848   42.4805 C   0  0  0  0  0  0  0  0  0  0  0  0
    2.5679   21.2017   36.6438 C   0  0  0  0  0  0  0  0  0  0  0  0
    6.1963   13.6272   38.6400 O   0  0  0  0  0  0  0  0  0  0  0  0
    3.7993   21.4935   36.3858 C   0  0  0  0  0  0  0  0  0  0  0  0
    2.1997   15.6338   41.0014 C   0  0  0  0  0  0  0  0  0  0  0  0
    4.1205   14.5487   40.0255 C   0  0  0  0  0  0  0  0  0  0  0  0
   -3.2037   18.9626   41.8702 O   0  0  0  0  0  0  0  0  0  0  0  0
    5.5215   22.6167   35.3777 O   0  0  0  0  0  0  0  0  0  0  0  0
    4.4385   25.6498   34.5871 H   0  0  0  0  0  0  0  0  0  0  0  0
    5.1817   24.1497   33.9360 H   0  0  0  0  0  0  0  0  0  0  0  0
    3.5586   24.6679   33.3671 H   0  0  0  0  0  0  0  0  0  0  0  0
    1.7232   23.9079   36.4700 H   0  0  0  0  0  0  0  0  0  0  0  0
    1.6321   24.7455   34.8836 H   0  0  0  0  0  0  0  0  0  0  0  0
    1.6182   22.9507   34.9537 H   0  0  0  0  0  0  0  0  0  0  0  0
    3.1495   20.7172   39.0539 H   0  0  0  0  0  0  0  0  0  0  0  0
    2.5964   19.0370   38.2528 H   0  0  0  0  0  0  0  0  0  0  0  0
   -0.2361   18.8546   41.0837 H   0  0  0  0  0  0  0  0  0  0  0  0
    4.4119   17.9657   39.7594 H   0  0  0  0  0  0  0  0  0  0  0  0
    0.9433   19.0456   39.4219 H   0  0  0  0  0  0  0  0  0  0  0  0
    5.0852   12.2383   41.5012 H   0  0  0  0  0  0  0  0  0  0  0  0
    5.3375   11.0376   40.1891 H   0  0  0  0  0  0  0  0  0  0  0  0
    6.6230   12.2322   40.5728 H   0  0  0  0  0  0  0  0  0  0  0  0
    2.3690   13.5085   40.7586 H   0  0  0  0  0  0  0  0  0  0  0  0
    3.7244   24.4607   36.2194 H   0  0  0  0  0  0  0  0  0  0  0  0
    5.6759   15.9069   39.1709 H   0  0  0  0  0  0  0  0  0  0  0  0
    0.6718   20.6417   37.6979 H   0  0  0  0  0  0  0  0  0  0  0  0
   -0.5221   19.9951   43.5372 H   0  0  0  0  0  0  0  0  0  0  0  0
   -1.1725   20.8212   42.0337 H   0  0  0  0  0  0  0  0  0  0  0  0
    1.9192   21.4907   35.8039 H   0  0  0  0  0  0  0  0  0  0  0  0
    4.1622   20.6464   35.7852 H   0  0  0  0  0  0  0  0  0  0  0  0
    4.1228   21.7326   37.4095 H   0  0  0  0  0  0  0  0  0  0  0  0
    1.2980   15.5739   41.6286 H   0  0  0  0  0  0  0  0  0  0  0  0
  2 17  1  0
  5 21  1  0
  6  7  1  0
  7 11  1  0
  7 25  2  0
  8  5  1  0
  9  4  1  0
  9 11  1  0
  9  8  1  0
 11 14  1  0
 12 25  1  0
 13 24  1  0
 14  5  1  0
 15  1  1  0
 16 10  1  0
 16 26  1  0
 17 13  1  0
 17  3  1  0
 18 16  2  0
 19 26  1  0
 19  6  2  0
 20  4  1  0
 21 15  1  0
 22 20  2  3
 23 16  2  0
 24 22  1  0
 26 12  2  0
 27 15  2  0
 28 13  2  0
  2 29  1  0
  2 30  1  0
  2 31  1  0
  3 32  1  0
  3 33  1  0
  3 34  1  0
  4 35  1  0
  4 36  1  0
  5 37  1  1
  6 38  1  0
  9 39  1  1
 10 40  1  0
 10 41  1  0
 10 42  1  0
 12 43  1  0
 17 44  1  0
 19 45  1  0
 20 46  1  0
 21 47  1  0
 21 48  1  0
 22 49  1  0
 24 50  1  0
 24 51  1  0
 25 52  1  0
M  CHG  1   1  -1
M  END
>  <mol_id>  (44) 
2026-09-16-6tgu-s0-n100-0044

>  <rmsd_to_ref>  (44) 


$$$$

     RDKit          3D

 65 67  0  0  0  0  0  0  0  0999 V2000
    4.5803   12.4430   39.2931 C   0  0  0  0  0  0  0  0  0  0  0  0
    4.0198   22.3527   34.3878 C   0  0  0  0  0  0  0  0  0  0  0  0
    1.8806   19.2341   39.3780 C   0  0  2  0  0  0  0  0  0  0  0  0
    1.4930   23.1734   34.9039 C   0  0  0  0  0  0  0  0  0  0  0  0
    3.6788   16.0044   39.1279 C   0  0  0  0  0  0  0  0  0  0  0  0
    3.2738   12.2270   38.5323 C   0  0  2  0  0  0  0  0  0  0  0  0
    3.7644   14.7970   40.0147 C   0  0  1  0  0  0  0  0  0  0  0  0
   -1.7930   17.8160   42.1674 C   0  0  0  0  0  0  0  0  0  0  0  0
    3.8353   21.4859   35.5974 C   0  0  0  0  0  0  0  0  0  0  0  0
    2.7730   23.0984   34.0649 C   0  0  0  0  0  0  0  0  0  0  0  0
    0.1975   19.0894   41.3480 C   0  0  0  0  0  0  0  0  0  0  0  0
    3.3175   17.3020   39.3413 N   0  0  0  0  0  0  0  0  0  0  0  0
    2.8849   23.8187   32.9970 F   0  0  0  0  0  0  0  0  0  0  0  0
    1.3869   22.2266   35.9625 C   0  0  0  0  0  0  0  0  0  0  0  0
    1.2421   18.4403   42.1337 C   0  0  0  0  0  0  0  0  0  0  0  0
    0.3989   24.1920   34.7061 C   0  0  0  0  0  0  0  0  0  0  0  0
    3.6485   11.9556   37.1282 N   0  0  0  0  0  0  0  0  0  0  0  0
    2.4522   14.1977   39.8270 C   0  0  0  0  0  0  0  0  0  0  0  0
    4.9020   13.9277   39.4246 C   0  0  0  0  0  0  0  0  0  0  0  0
   -1.3217   20.0582   42.9792 N   0  0  0  0  0  0  0  0  0  0  0  0
    2.5114   18.1335   40.0782 C   0  0  0  0  0  0  0  0  0  0  0  0
    2.4908   21.3502   36.2576 C   0  0  0  0  0  0  0  0  0  0  0  0
    2.5074   13.4752   38.4915 N   0  0  0  0  0  0  0  0  0  0  0  0
    2.3825   17.9858   41.4922 N   0  0  0  0  0  0  0  0  0  0  0  0
    2.2514   20.4348   37.2218 C   0  0  0  0  0  0  0  0  0  0  0  0
    2.6008   19.8251   38.1666 C   0  0  0  0  0  0  0  0  0  0  0  0
    0.5477   19.6202   39.9098 C   0  0  0  0  0  0  0  0  0  0  0  0
   -1.1961   19.2547   41.8672 C   0  0  2  0  0  0  0  0  0  0  0  0
    4.4869   12.0055   40.2980 H   0  0  0  0  0  0  0  0  0  0  0  0
    5.3938   11.9583   38.7334 H   0  0  0  0  0  0  0  0  0  0  0  0
    4.9552   22.4277   33.8138 H   0  0  0  0  0  0  0  0  0  0  0  0
    1.3627   18.5195   38.7214 H   0  0  0  0  0  0  0  0  0  0  0  0
    2.9940   15.6815   38.3300 H   0  0  0  0  0  0  0  0  0  0  0  0
    4.7616   16.1959   39.0990 H   0  0  0  0  0  0  0  0  0  0  0  0
    2.6924   11.4235   39.0080 H   0  0  0  0  0  0  0  0  0  0  0  0
    3.9816   14.9604   41.0806 H   0  0  0  0  0  0  0  0  0  0  0  0
   -2.1021   17.7599   43.2216 H   0  0  0  0  0  0  0  0  0  0  0  0
   -2.6643   17.6382   41.5199 H   0  0  0  0  0  0  0  0  0  0  0  0
   -1.0267   17.0524   41.9688 H   0  0  0  0  0  0  0  0  0  0  0  0
    4.6974   20.9404   36.0086 H   0  0  0  0  0  0  0  0  0  0  0  0
    3.8646   17.8890   38.6956 H   0  0  0  0  0  0  0  0  0  0  0  0
    0.4619   22.1649   36.5545 H   0  0  0  0  0  0  0  0  0  0  0  0
    1.5680   19.1634   42.8959 H   0  0  0  0  0  0  0  0  0  0  0  0
    0.7625   17.5207   42.5002 H   0  0  0  0  0  0  0  0  0  0  0  0
   -0.1145   24.3690   35.6627 H   0  0  0  0  0  0  0  0  0  0  0  0
    0.8363   25.1345   34.3449 H   0  0  0  0  0  0  0  0  0  0  0  0
   -0.3231   23.8156   33.9665 H   0  0  0  0  0  0  0  0  0  0  0  0
    3.6105   10.9415   36.9526 H   0  0  0  0  0  0  0  0  0  0  0  0
    2.9916   12.4379   36.4982 H   0  0  0  0  0  0  0  0  0  0  0  0
    4.6043   12.2985   36.9555 H   0  0  0  0  0  0  0  0  0  0  0  0
    2.2378   13.4860   40.6378 H   0  0  0  0  0  0  0  0  0  0  0  0
    1.6572   14.9578   39.8406 H   0  0  0  0  0  0  0  0  0  0  0  0
    5.7818   14.0291   40.0772 H   0  0  0  0  0  0  0  0  0  0  0  0
    5.0700   14.2963   38.4019 H   0  0  0  0  0  0  0  0  0  0  0  0
   -1.6705   19.4979   43.7700 H   0  0  0  0  0  0  0  0  0  0  0  0
   -0.4033   20.4574   43.2198 H   0  0  0  0  0  0  0  0  0  0  0  0
   -1.9854   20.8200   42.7791 H   0  0  0  0  0  0  0  0  0  0  0  0
    2.9422   14.1020   37.7995 H   0  0  0  0  0  0  0  0  0  0  0  0
    1.5393   13.2276   38.2413 H   0  0  0  0  0  0  0  0  0  0  0  0
    1.3405   20.8821   37.6463 H   0  0  0  0  0  0  0  0  0  0  0  0
    2.7267   19.6744   36.5847 H   0  0  0  0  0  0  0  0  0  0  0  0
    3.3522   20.4858   38.6236 H   0  0  0  0  0  0  0  0  0  0  0  0
    2.7119   18.8679   37.6359 H   0  0  0  0  0  0  0  0  0  0  0  0
   -0.1527   20.2406   39.3315 H   0  0  0  0  0  0  0  0  0  0  0  0
   -1.7577   19.7804   41.0810 H   0  0  0  0  0  0  0  0  0  0  0  0
  2 10  1  0
  2  9  2  0
  3 26  1  0
  3 21  1  0
  3 27  1  0
  4 16  1  0
  4 14  1  0
  5 12  1  0
  6 17  1  0
  6 23  1  0
  6  1  1  0
  7  5  1  0
  7 18  1  0
  9 22  1  0
 10  4  2  0
 11 15  1  0
 11 28  1  0
 12 21  1  0
 13 10  1  0
 14 22  2  0
 19  1  1  0
 19  7  1  0
 21 24  2  0
 22 25  1  0
 23 18  1  0
 24 15  1  0
 25 26  1  0
 27 11  2  0
 28  8  1  0
 28 20  1  0
  1 29  1  0
  1 30  1  0
  2 31  1  0
  3 32  1  1
  5 33  1  0
  5 34  1  0
  6 35  1  1
  7 36  1  1
  8 37  1  0
  8 38  1  0
  8 39  1  0
  9 40  1  0
 12 41  1  0
 14 42  1  0
 15 43  1  0
 15 44  1  0
 16 45  1  0
 16 46  1  0
 16 47  1  0
 17 48  1  0
 17 49  1  0
 17 50  1  0
 18 51  1  0
 18 52  1  0
 19 53  1  0
 19 54  1  0
 20 55  1  0
 20 56  1  0
 20 57  1  0
 23 58  1  0
 23 59  1  0
 25 60  1  0
 25 61  1  0
 26 62  1  0
 26 63  1  0
 27 64  1  0
 28 65  1  6
M  CHG  3  17   1  20   1  23   1
M  END
>  <mol_id>  (45) 
2026-09-16-6tgu-s0-n100-0045

>  <rmsd_to_ref>  (45) 


$$$$

     RDKit          3D

 52 53  0  0  0  0  0  0  0  0999 V2000
    2.7535   22.8927   33.9687 C   0  0  0  0  0  0  0  0  0  0  0  0
    3.4600   23.7614   33.0785 C   0  0  2  0  0  0  0  0  0  0  0  0
    0.7417   17.6175   40.9879 C   0  0  0  0  0  0  0  0  0  0  0  0
    4.6608   23.0970   35.0695 C   0  0  0  0  0  0  0  0  0  0  0  0
    2.3094   18.3808   42.8984 C   0  0  0  0  0  0  0  0  0  0  0  0
    1.9697   18.3234   41.4394 C   0  0  1  0  0  0  0  0  0  0  0  0
    4.2393   22.8198   31.0434 C   0  0  0  0  0  0  0  0  0  0  0  0
    3.0876   17.5232   40.6707 C   0  0  2  0  0  0  0  0  0  0  0  0
    3.8843   24.1120   32.0472 C   0  0  0  0  0  0  0  0  0  0  0  0
    6.1572   23.6128   33.2114 C   0  0  0  0  0  0  0  0  0  0  0  0
    3.6181   20.7234   36.8394 C   0  0  0  0  0  0  0  0  0  0  0  0
    4.3258   22.9639   29.9426 O   0  0  0  0  0  0  0  0  0  0  0  0
    2.0682   18.7899   38.2892 S   0  0  0  0  0  0  0  0  0  0  0  0
    4.5623   21.3856   31.4820 C   0  0  0  0  0  0  0  0  0  0  0  0
    3.5761   22.1098   34.9105 N   0  0  0  0  0  0  0  0  0  0  0  0
    3.4829   19.2669   37.3902 C   0  0  0  0  0  0  0  0  0  0  0  0
    4.8739   23.4982   33.7874 C   0  0  1  0  0  0  0  0  0  0  0  0
    1.2597   16.1967   40.7668 C   0  0  0  0  0  0  0  0  0  0  0  0
    2.9766   17.5306   39.1837 C   0  0  0  0  0  0  0  0  0  0  0  0
    2.8725   21.2025   35.8322 C   0  0  0  0  0  0  0  0  0  0  0  0
    2.7674   16.1394   40.9355 O   0  0  0  0  0  0  0  0  0  0  0  0
    2.1778   22.1827   33.3568 H   0  0  0  0  0  0  0  0  0  0  0  0
    2.1393   23.5544   34.5971 H   0  0  0  0  0  0  0  0  0  0  0  0
    2.5475   24.3345   32.8570 H   0  0  0  0  0  0  0  0  0  0  0  0
   -0.0413   17.6425   41.7602 H   0  0  0  0  0  0  0  0  0  0  0  0
    0.2735   18.0639   40.0983 H   0  0  0  0  0  0  0  0  0  0  0  0
    4.3446   23.9384   35.7034 H   0  0  0  0  0  0  0  0  0  0  0  0
    5.5581   22.6922   35.5605 H   0  0  0  0  0  0  0  0  0  0  0  0
    1.4598   18.0054   43.4877 H   0  0  0  0  0  0  0  0  0  0  0  0
    3.1948   17.7577   43.0935 H   0  0  0  0  0  0  0  0  0  0  0  0
    2.5229   19.4213   43.1846 H   0  0  0  0  0  0  0  0  0  0  0  0
    1.8444   19.3967   41.2333 H   0  0  0  0  0  0  0  0  0  0  0  0
    4.0522   17.9496   40.9833 H   0  0  0  0  0  0  0  0  0  0  0  0
    3.1364   24.7499   31.5537 H   0  0  0  0  0  0  0  0  0  0  0  0
    4.8173   24.6640   32.2334 H   0  0  0  0  0  0  0  0  0  0  0  0
    6.9166   23.2985   33.9425 H   0  0  0  0  0  0  0  0  0  0  0  0
    6.2179   22.9704   32.3206 H   0  0  0  0  0  0  0  0  0  0  0  0
    6.3373   24.6587   32.9223 H   0  0  0  0  0  0  0  0  0  0  0  0
    3.4312   21.3881   37.6957 H   0  0  0  0  0  0  0  0  0  0  0  0
    4.6139   20.6871   36.3734 H   0  0  0  0  0  0  0  0  0  0  0  0
    3.9776   21.1363   32.3797 H   0  0  0  0  0  0  0  0  0  0  0  0
    4.3054   20.6877   30.6715 H   0  0  0  0  0  0  0  0  0  0  0  0
    5.6355   21.3046   31.7091 H   0  0  0  0  0  0  0  0  0  0  0  0
    3.5464   18.5944   36.5220 H   0  0  0  0  0  0  0  0  0  0  0  0
    4.2843   19.2108   38.1415 H   0  0  0  0  0  0  0  0  0  0  0  0
    4.9170   24.5540   34.0934 H   0  0  0  0  0  0  0  0  0  0  0  0
    0.7893   15.5235   41.4986 H   0  0  0  0  0  0  0  0  0  0  0  0
    1.0078   15.8853   39.7424 H   0  0  0  0  0  0  0  0  0  0  0  0
    4.0073   17.5686   38.8012 H   0  0  0  0  0  0  0  0  0  0  0  0
    2.3612   16.6375   39.0004 H   0  0  0  0  0  0  0  0  0  0  0  0
    2.0235   21.7502   36.2674 H   0  0  0  0  0  0  0  0  0  0  0  0
    2.5708   20.3308   35.2329 H   0  0  0  0  0  0  0  0  0  0  0  0
  1 15  1  0
  2  9  1  0
  2  1  1  0
  4 15  1  0
  6  3  1  0
  6  5  1  0
  7 14  1  0
  7  9  1  0
  8 19  1  0
  8 21  1  0
  8  6  1  0
 11 16  1  0
 12  7  2  0
 13 19  1  0
 15 20  1  0
 16 13  1  0
 17 10  1  0
 17  2  1  0
 17  4  1  0
 18  3  1  0
 20 11  1  0
 21 18  1  0
  1 22  1  0
  1 23  1  0
  2 24  1  1
  3 25  1  0
  3 26  1  0
  4 27  1  0
  4 28  1  0
  5 29  1  0
  5 30  1  0
  5 31  1  0
  6 32  1  6
  8 33  1  6
  9 34  1  0
  9 35  1  0
 10 36  1  0
 10 37  1  0
 10 38  1  0
 11 39  1  0
 11 40  1  0
 14 41  1  0
 14 42  1  0
 14 43  1  0
 16 44  1  0
 16 45  1  0
 17 46  1  1
 18 47  1  0
 18 48  1  0
 19 49  1  0
 19 50  1  0
 20 51  1  0
 20 52  1  0
M  END
>  <mol_id>  (46) 
2026-09-16-6tgu-s0-n100-0046

>  <rmsd_to_ref>  (46) 


$$$$

     RDKit          3D

 39 40  0  0  0  0  0  0  0  0999 V2000
    2.3234   15.6788   38.9547 C   0  0  0  0  0  0  0  0  0  0  0  0
    2.6957   19.3319   41.0692 S   0  0  0  0  0  0  0  0  0  0  0  0
    3.8410   23.2368   33.0733 C   0  0  0  0  0  0  0  0  0  0  0  0
    1.8333   24.7945   32.5467 C   0  0  0  0  0  0  0  0  0  0  0  0
    2.4328   16.8397   39.8937 C   0  0  0  0  0  0  0  0  0  0  0  0
    4.2394   22.0240   33.6493 C   0  0  0  0  0  0  0  0  0  0  0  0
    1.2183   25.2010   30.0870 C   0  0  0  0  0  0  0  0  0  0  0  0
    2.4592   22.1644   35.4835 C   0  0  0  0  0  0  0  0  0  0  0  0
    3.5823   21.4063   34.8176 C   0  0  0  0  0  0  0  0  0  0  0  0
    2.1071   21.5306   36.7956 C   0  0  0  0  0  0  0  0  0  0  0  0
    2.7219   19.9325   37.2656 C   0  0  0  0  0  0  0  0  0  0  0  0
    1.7455   15.3332   42.1159 O   0  0  0  0  0  0  0  0  0  0  0  0
    2.5198   23.8210   33.5032 C   0  0  0  0  0  0  0  0  0  0  0  0
    2.1533   24.4138   30.9875 C   0  0  0  0  0  0  0  0  0  0  0  0
    2.1592   16.6472   41.2832 C   0  0  0  0  0  0  0  0  0  0  0  0
    2.0987   18.0400   43.8514 Cl  0  0  0  0  0  0  0  0  0  0  0  0
    1.8604   23.2703   34.7430 C   0  0  0  0  0  0  0  0  0  0  0  0
    2.6451   18.3879   39.6301 C   0  0  0  0  0  0  0  0  0  0  0  0
    2.7289   19.1481   38.3606 C   0  0  0  0  0  0  0  0  0  0  0  0
    2.2611   17.9230   42.0597 C   0  0  1  0  0  0  0  0  0  0  0  0
    2.6718   14.7653   39.4589 H   0  0  0  0  0  0  0  0  0  0  0  0
    1.2743   15.5517   38.6494 H   0  0  0  0  0  0  0  0  0  0  0  0
    2.9437   15.8664   38.0659 H   0  0  0  0  0  0  0  0  0  0  0  0
    4.4723   23.7468   32.3309 H   0  0  0  0  0  0  0  0  0  0  0  0
    0.7464   24.7528   32.7108 H   0  0  0  0  0  0  0  0  0  0  0  0
    2.2159   25.8066   32.7446 H   0  0  0  0  0  0  0  0  0  0  0  0
    5.0963   21.4985   33.2026 H   0  0  0  0  0  0  0  0  0  0  0  0
    0.7384   26.0025   30.6677 H   0  0  0  0  0  0  0  0  0  0  0  0
    1.7919   25.6416   29.2583 H   0  0  0  0  0  0  0  0  0  0  0  0
    0.4470   24.5291   29.6824 H   0  0  0  0  0  0  0  0  0  0  0  0
    3.9014   20.4226   35.1923 H   0  0  0  0  0  0  0  0  0  0  0  0
    2.4423   22.2305   37.5752 H   0  0  0  0  0  0  0  0  0  0  0  0
    1.0308   21.3373   36.6763 H   0  0  0  0  0  0  0  0  0  0  0  0
    3.2433   19.4468   36.4275 H   0  0  0  0  0  0  0  0  0  0  0  0
    1.5939   15.3934   43.0924 H   0  0  0  0  0  0  0  0  0  0  0  0
    1.9966   23.3364   30.8309 H   0  0  0  0  0  0  0  0  0  0  0  0
    3.1978   24.6639   30.7497 H   0  0  0  0  0  0  0  0  0  0  0  0
    0.9146   23.7086   35.0941 H   0  0  0  0  0  0  0  0  0  0  0  0
    1.1952   18.1212   41.8740 H   0  0  0  0  0  0  0  0  0  0  0  0
  1  5  1  0
  2 20  1  0
  3  6  1  0
  4 13  1  0
  5 15  2  0
  6  9  2  0
  7 14  1  0
  8 10  1  0
  9  8  1  0
 10 11  1  0
 11 19  2  0
 13  3  2  0
 13 17  1  0
 14  4  1  0
 15 20  1  0
 15 12  1  0
 17  8  2  0
 18  5  1  0
 18  2  1  0
 19 18  2  0
 20 16  1  0
  1 21  1  0
  1 22  1  0
  1 23  1  0
  3 24  1  0
  4 25  1  0
  4 26  1  0
  6 27  1  0
  7 28  1  0
  7 29  1  0
  7 30  1  0
  9 31  1  0
 10 32  1  0
 10 33  1  0
 11 34  1  0
 12 35  1  0
 14 36  1  0
 14 37  1  0
 17 38  1  0
 20 39  1  6
M  END
>  <mol_id>  (47) 
2026-09-16-6tgu-s0-n100-0047

>  <rmsd_to_ref>  (47) 


$$$$

     RDKit          3D

 67 69  0  0  0  0  0  0  0  0999 V2000
    1.5149   24.9701   32.0201 C   0  0  2  0  0  0  0  0  0  0  0  0
    1.9784   21.7468   35.2854 N   0  0  0  0  0  0  0  0  0  0  0  0
    3.0725   22.4455   33.5358 O   0  0  0  0  0  0  0  0  0  0  0  0
   -0.0580   16.8594   42.7069 C   0  0  0  0  0  0  0  0  0  0  0  0
    0.3362   20.2558   41.1700 C   0  0  0  0  0  0  0  0  0  0  0  0
    2.4373   18.4944   38.7963 C   0  0  0  0  0  0  0  0  0  0  0  0
    1.5261   23.8041   34.2386 C   0  0  0  0  0  0  0  0  0  0  0  0
    2.0913   20.0206   37.0026 C   0  0  0  0  0  0  0  0  0  0  0  0
    0.4945   15.6206   42.4858 C   0  0  0  0  0  0  0  0  0  0  0  0
    2.4389   24.4027   31.4637 C   0  0  0  0  0  0  0  0  0  0  0  0
   -0.1994   19.2182   41.9664 C   0  0  0  0  0  0  0  0  0  0  0  0
    3.8598   13.4880   37.4762 C   0  0  0  0  0  0  0  0  0  0  0  0
    2.9672   14.0755   40.3994 N   0  0  0  0  0  0  0  0  0  0  0  0
    1.2594   20.0279   40.1763 C   0  0  0  0  0  0  0  0  0  0  0  0
    1.6315   13.0383   41.8193 O   0  0  0  0  0  0  0  0  0  0  0  0
    0.9150   24.8928   33.3236 C   0  0  2  0  0  0  0  0  0  0  0  0
    1.1796   17.6294   40.7517 C   0  0  0  0  0  0  0  0  0  0  0  0
    1.4358   15.3820   41.4649 C   0  0  0  0  0  0  0  0  0  0  0  0
    0.3902   25.6824   32.2174 C   0  0  0  0  0  0  0  0  0  0  0  0
    1.7692   16.3763   40.5937 C   0  0  0  0  0  0  0  0  0  0  0  0
    2.6600   20.7204   35.8219 C   0  0  0  0  0  0  0  0  0  0  0  0
    0.2416   17.8753   41.7879 C   0  0  0  0  0  0  0  0  0  0  0  0
    2.1441   24.9776   30.0620 C   0  0  0  0  0  0  0  0  0  0  0  0
    3.2877   12.9151   39.7649 O   0  0  0  0  0  0  0  0  0  0  0  0
    3.1090   19.2914   37.6734 C   0  0  0  0  0  0  0  0  0  0  0  0
    2.0492   14.1051   41.2438 C   0  0  0  0  0  0  0  0  0  0  0  0
   -0.8740   16.8405   44.0847 C   0  0  0  0  0  0  0  0  0  0  0  0
    3.8234   20.3766   35.4728 N   0  0  0  0  0  0  0  0  0  0  0  0
    1.6335   18.7175   39.8752 C   0  0  0  0  0  0  0  0  0  0  0  0
    4.3339   12.9173   38.7604 C   0  0  0  0  0  0  0  0  0  0  0  0
    2.2756   22.6201   34.2997 C   0  0  0  0  0  0  0  0  0  0  0  0
    3.3423   24.3299   29.2861 C   0  0  0  0  0  0  0  0  0  0  0  0
    2.1082   25.8954   32.0620 H   0  0  0  0  0  0  0  0  0  0  0  0
    1.0508   21.8959   35.7074 H   0  0  0  0  0  0  0  0  0  0  0  0
    0.0010   21.2875   41.3523 H   0  0  0  0  0  0  0  0  0  0  0  0
    3.2994   17.9927   39.2603 H   0  0  0  0  0  0  0  0  0  0  0  0
    1.5949   18.1914   38.1572 H   0  0  0  0  0  0  0  0  0  0  0  0
    0.6188   23.4761   34.7671 H   0  0  0  0  0  0  0  0  0  0  0  0
    2.4492   24.3954   34.3291 H   0  0  0  0  0  0  0  0  0  0  0  0
    1.3049   19.3269   36.6707 H   0  0  0  0  0  0  0  0  0  0  0  0
    1.6665   20.7646   37.6926 H   0  0  0  0  0  0  0  0  0  0  0  0
    0.1900   14.7831   43.1307 H   0  0  0  0  0  0  0  0  0  0  0  0
    3.4222   24.7068   31.8516 H   0  0  0  0  0  0  0  0  0  0  0  0
    2.4931   23.3083   31.5608 H   0  0  0  0  0  0  0  0  0  0  0  0
   -0.9599   19.4486   42.7271 H   0  0  0  0  0  0  0  0  0  0  0  0
    3.0863   14.2445   37.6745 H   0  0  0  0  0  0  0  0  0  0  0  0
    4.7042   13.9564   36.9491 H   0  0  0  0  0  0  0  0  0  0  0  0
    3.4375   12.6864   36.8524 H   0  0  0  0  0  0  0  0  0  0  0  0
    3.4871   14.9373   40.1805 H   0  0  0  0  0  0  0  0  0  0  0  0
    1.6992   20.8712   39.6237 H   0  0  0  0  0  0  0  0  0  0  0  0
    0.4906   24.9939   34.3334 H   0  0  0  0  0  0  0  0  0  0  0  0
    0.4399   26.7804   32.2589 H   0  0  0  0  0  0  0  0  0  0  0  0
   -0.5828   25.7396   31.7075 H   0  0  0  0  0  0  0  0  0  0  0  0
    2.4890   16.1932   39.7824 H   0  0  0  0  0  0  0  0  0  0  0  0
    1.1705   24.6437   29.6739 H   0  0  0  0  0  0  0  0  0  0  0  0
    2.0734   26.0737   30.0013 H   0  0  0  0  0  0  0  0  0  0  0  0
    3.6055   18.6058   36.9709 H   0  0  0  0  0  0  0  0  0  0  0  0
    3.8699   19.9726   38.0821 H   0  0  0  0  0  0  0  0  0  0  0  0
   -0.1685   16.8222   44.9285 H   0  0  0  0  0  0  0  0  0  0  0  0
   -1.5020   17.7411   44.1512 H   0  0  0  0  0  0  0  0  0  0  0  0
   -1.5120   15.9451   44.1206 H   0  0  0  0  0  0  0  0  0  0  0  0
    4.2835   19.5770   35.9310 H   0  0  0  0  0  0  0  0  0  0  0  0
    4.6664   11.8827   38.5896 H   0  0  0  0  0  0  0  0  0  0  0  0
    5.1615   13.5415   39.1284 H   0  0  0  0  0  0  0  0  0  0  0  0
    4.0485   23.8883   30.0046 H   0  0  0  0  0  0  0  0  0  0  0  0
    2.9631   23.5450   28.6150 H   0  0  0  0  0  0  0  0  0  0  0  0
    3.8560   25.1017   28.6942 H   0  0  0  0  0  0  0  0  0  0  0  0
  1 10  1  0
  1 19  1  0
  1 16  1  0
  2 21  1  0
  3 31  2  0
  4 27  1  0
  5 11  1  0
  6 29  1  0
  7 31  1  0
  8 25  1  0
  9  4  2  0
 12 30  1  0
 13 26  1  0
 14  5  2  0
 16  7  1  0
 17 22  1  0
 18  9  1  0
 19 16  1  0
 20 17  1  0
 20 18  2  0
 21  8  1  0
 22 11  2  0
 22  4  1  0
 23 10  1  0
 24 13  1  0
 25  6  1  0
 26 18  1  0
 26 15  2  0
 28 21  2  3
 29 14  1  0
 29 17  2  0
 30 24  1  0
 31  2  1  0
 32 23  1  0
  1 33  1  1
  2 34  1  0
  5 35  1  0
  6 36  1  0
  6 37  1  0
  7 38  1  0
  7 39  1  0
  8 40  1  0
  8 41  1  0
  9 42  1  0
 10 43  1  0
 10 44  1  0
 11 45  1  0
 12 46  1  0
 12 47  1  0
 12 48  1  0
 13 49  1  0
 14 50  1  0
 16 51  1  1
 19 52  1  0
 19 53  1  0
 20 54  1  0
 23 55  1  0
 23 56  1  0
 25 57  1  0
 25 58  1  0
 27 59  1  0
 27 60  1  0
 27 61  1  0
 28 62  1  0
 30 63  1  0
 30 64  1  0
 32 65  1  0
 32 66  1  0
 32 67  1  0
M  END
>  <mol_id>  (48) 
2026-09-16-6tgu-s0-n100-0048

>  <rmsd_to_ref>  (48) 


$$$$

     RDKit          3D

 69 70  0  0  0  0  0  0  0  0999 V2000
    1.3618   17.0570   39.0979 C   0  0  0  0  0  0  0  0  0  0  0  0
    0.2783   17.3167   43.6702 C   0  0  0  0  0  0  0  0  0  0  0  0
    1.9226   17.6209   38.0129 N   0  0  0  0  0  0  0  0  0  0  0  0
    1.6349   14.4800   38.8336 C   0  0  0  0  0  0  0  0  0  0  0  0
    0.5460   18.6400   43.5954 C   0  0  0  0  0  0  0  0  0  0  0  0
    1.1063   20.6013   42.2251 C   0  0  0  0  0  0  0  0  0  0  0  0
    3.4239   20.9802   35.4866 C   0  0  0  0  0  0  0  0  0  0  0  0
    1.4294   18.0227   40.2173 C   0  0  0  0  0  0  0  0  0  0  0  0
    1.0367   13.3549   39.0690 O   0  0  0  0  0  0  0  0  0  0  0  0
    4.4203   24.9725   31.8649 C   0  0  0  0  0  0  0  0  0  0  0  0
    1.1120   17.9787   41.4686 C   0  0  0  0  0  0  0  0  0  0  0  0
    1.6997   27.6861   32.6604 C   0  0  0  0  0  0  0  0  0  0  0  0
    3.8534   22.9497   33.4097 C   0  0  0  0  0  0  0  0  0  0  0  0
    2.6025   28.5965   33.3549 C   0  0  2  0  0  0  0  0  0  0  0  0
    1.0919   19.0914   42.3813 C   0  0  0  0  0  0  0  0  0  0  0  0
    2.8177   14.5880   38.3601 O   0  0  0  0  0  0  0  0  0  0  0  0
    1.9628   19.1368   39.7364 O   0  0  0  0  0  0  0  0  0  0  0  0
    2.1694   18.9357   38.4249 C   0  0  0  0  0  0  0  0  0  0  0  0
    0.6808   16.5606   42.2346 S   0  0  0  0  0  0  0  0  0  0  0  0
    1.8935   23.6489   35.2011 C   0  0  0  0  0  0  0  0  0  0  0  0
    2.5113   21.5032   34.5976 C   0  0  0  0  0  0  0  0  0  0  0  0
    0.7307   15.7145   39.0664 C   0  0  0  0  0  0  0  0  0  0  0  0
    2.6616   26.7060   32.4751 C   0  0  1  0  0  0  0  0  0  0  0  0
    2.3956   19.9564   37.7695 O   0  0  0  0  0  0  0  0  0  0  0  0
    3.9722   28.6509   32.7103 C   0  0  0  0  0  0  0  0  0  0  0  0
    3.2293   25.8173   31.4122 C   0  0  0  0  0  0  0  0  0  0  0  0
   -0.2109   16.5129   44.8131 C   0  0  0  0  0  0  0  0  0  0  0  0
    2.9639   22.9474   34.5294 C   0  0  0  0  0  0  0  0  0  0  0  0
    2.7228   24.1889   35.3032 C   0  0  0  0  0  0  0  0  0  0  0  0
    3.7233   27.4464   33.2706 C   0  0  1  0  0  0  0  0  0  0  0  0
    4.4292   24.0004   32.7469 C   0  0  0  0  0  0  0  0  0  0  0  0
    2.1222   17.1892   37.0993 H   0  0  0  0  0  0  0  0  0  0  0  0
    0.3482   19.3228   44.4349 H   0  0  0  0  0  0  0  0  0  0  0  0
    1.2840   21.0695   43.2045 H   0  0  0  0  0  0  0  0  0  0  0  0
    1.9079   20.8904   41.5296 H   0  0  0  0  0  0  0  0  0  0  0  0
    0.1373   20.9381   41.8280 H   0  0  0  0  0  0  0  0  0  0  0  0
    3.1763   21.3138   36.5051 H   0  0  0  0  0  0  0  0  0  0  0  0
    3.3908   19.8816   35.4423 H   0  0  0  0  0  0  0  0  0  0  0  0
    4.4337   21.3275   35.2224 H   0  0  0  0  0  0  0  0  0  0  0  0
    5.1511   25.7014   32.2455 H   0  0  0  0  0  0  0  0  0  0  0  0
    4.5568   24.3728   30.9530 H   0  0  0  0  0  0  0  0  0  0  0  0
    0.8581   27.3524   33.2853 H   0  0  0  0  0  0  0  0  0  0  0  0
    1.1665   28.0617   31.7747 H   0  0  0  0  0  0  0  0  0  0  0  0
    4.7074   22.3421   33.7436 H   0  0  0  0  0  0  0  0  0  0  0  0
    3.1178   22.6767   32.6387 H   0  0  0  0  0  0  0  0  0  0  0  0
    2.0311   29.3550   33.9101 H   0  0  0  0  0  0  0  0  0  0  0  0
    1.4660   23.1890   36.1043 H   0  0  0  0  0  0  0  0  0  0  0  0
    0.9066   23.9489   34.8190 H   0  0  0  0  0  0  0  0  0  0  0  0
    1.7777   22.1152   35.1427 H   0  0  0  0  0  0  0  0  0  0  0  0
    3.0351   22.1290   33.8600 H   0  0  0  0  0  0  0  0  0  0  0  0
    1.9922   20.6831   34.0800 H   0  0  0  0  0  0  0  0  0  0  0  0
   -0.0175   15.7260   38.2602 H   0  0  0  0  0  0  0  0  0  0  0  0
    0.3413   15.5754   40.0857 H   0  0  0  0  0  0  0  0  0  0  0  0
    2.0711   25.7815   32.5561 H   0  0  0  0  0  0  0  0  0  0  0  0
    4.0361   28.7187   31.6143 H   0  0  0  0  0  0  0  0  0  0  0  0
    4.8089   29.3536   32.8373 H   0  0  0  0  0  0  0  0  0  0  0  0
    2.4347   25.1371   31.0718 H   0  0  0  0  0  0  0  0  0  0  0  0
    3.5987   26.4786   30.6145 H   0  0  0  0  0  0  0  0  0  0  0  0
    0.2334   16.8925   45.7451 H   0  0  0  0  0  0  0  0  0  0  0  0
   -1.3067   16.5884   44.8721 H   0  0  0  0  0  0  0  0  0  0  0  0
    0.0772   15.4608   44.6715 H   0  0  0  0  0  0  0  0  0  0  0  0
    2.4875   21.9658   34.3898 H   0  0  0  0  0  0  0  0  0  0  0  0
    3.7069   23.4936   35.1290 H   0  0  0  0  0  0  0  0  0  0  0  0
    2.9783   24.2704   36.3700 H   0  0  0  0  0  0  0  0  0  0  0  0
    3.5478   23.6993   34.7649 H   0  0  0  0  0  0  0  0  0  0  0  0
    2.5593   25.1942   34.8876 H   0  0  0  0  0  0  0  0  0  0  0  0
    4.4353   26.7889   33.7909 H   0  0  0  0  0  0  0  0  0  0  0  0
    5.3201   23.4720   32.3766 H   0  0  0  0  0  0  0  0  0  0  0  0
    3.9185   24.6775   33.4474 H   0  0  0  0  0  0  0  0  0  0  0  0
  1  8  2  0
  2  5  2  0
  2 27  1  0
  3 18  1  0
  3  1  1  0
  4  9  1  0
  4 22  1  0
  6 15  1  0
  8 11  1  0
 10 31  1  0
 11 19  1  0
 11 15  2  0
 13 28  1  0
 14 12  1  0
 14 30  1  0
 15  5  1  0
 16  4  2  0
 17  8  1  0
 18 17  1  0
 19  2  1  0
 20 29  1  0
 21  7  1  0
 22  1  1  0
 23 26  1  0
 23 12  1  0
 23 30  1  0
 24 18  2  0
 25 14  1  0
 26 10  1  0
 28 20  1  0
 30 25  1  0
 31 13  1  0
  3 32  1  0
  5 33  1  0
  6 34  1  0
  6 35  1  0
  6 36  1  0
  7 37  1  0
  7 38  1  0
  7 39  1  0
 10 40  1  0
 10 41  1  0
 12 42  1  0
 12 43  1  0
 13 44  1  0
 13 45  1  0
 14 46  1  1
 20 47  1  0
 20 48  1  0
 21 49  1  0
 21 50  1  0
 21 51  1  0
 22 52  1  0
 22 53  1  0
 23 54  1  1
 25 55  1  0
 25 56  1  0
 26 57  1  0
 26 58  1  0
 27 59  1  0
 27 60  1  0
 27 61  1  0
 28 62  1  0
 28 63  1  0
 29 64  1  0
 29 65  1  0
 29 66  1  0
 30 67  1  1
 31 68  1  0
 31 69  1  0
M  CHG  1   9  -1
M  END
>  <mol_id>  (49) 
2026-09-16-6tgu-s0-n100-0049

>  <rmsd_to_ref>  (49) 


$$$$

     RDKit          3D

 26 26  0  0  0  0  0  0  0  0999 V2000
    3.8864   17.7068   40.0092 C   0  0  0  0  0  0  0  0  0  0  0  0
    2.3282   21.3625   34.0053 O   0  0  0  0  0  0  0  0  0  0  0  0
    3.2777   22.1699   34.7598 S   0  0  0  0  0  6  0  0  0  0  0  0
    3.1081   18.9527   39.6818 C   0  0  2  0  0  0  0  0  0  0  0  0
    1.6108   18.8148   39.8031 C   0  0  0  0  0  0  0  0  0  0  0  0
    3.4151   21.1083   36.1420 C   0  0  0  0  0  0  0  0  0  0  0  0
    2.2734   21.1039   37.0221 C   0  0  0  0  0  0  0  0  0  0  0  0
    1.3475   21.8768   37.0088 O   0  0  0  0  0  0  0  0  0  0  0  0
    3.3897   19.4249   38.2596 C   0  0  0  0  0  0  0  0  0  0  0  0
    2.7608   23.8897   35.3415 S   0  0  0  0  0  0  0  0  0  0  0  0
    1.1083   19.8301   38.8381 C   0  0  0  0  0  0  0  0  0  0  0  0
    4.3196   22.7029   33.7985 O   0  0  0  0  0  0  0  0  0  0  0  0
    2.2299   20.2049   37.9296 N   0  0  0  0  0  0  0  0  0  0  0  0
    3.6300   17.3705   41.0247 H   0  0  0  0  0  0  0  0  0  0  0  0
    3.6344   16.9165   39.2867 H   0  0  0  0  0  0  0  0  0  0  0  0
    4.9637   17.9227   39.9555 H   0  0  0  0  0  0  0  0  0  0  0  0
    3.4532   19.6761   40.4352 H   0  0  0  0  0  0  0  0  0  0  0  0
    1.2817   17.8035   39.5218 H   0  0  0  0  0  0  0  0  0  0  0  0
    1.2405   18.9663   40.8277 H   0  0  0  0  0  0  0  0  0  0  0  0
    3.5645   20.0833   35.7717 H   0  0  0  0  0  0  0  0  0  0  0  0
    4.2604   21.4852   36.7366 H   0  0  0  0  0  0  0  0  0  0  0  0
    3.4965   18.5702   37.5754 H   0  0  0  0  0  0  0  0  0  0  0  0
    4.3272   19.9941   38.1749 H   0  0  0  0  0  0  0  0  0  0  0  0
    2.1770   23.7974   36.5774 H   0  0  0  0  0  0  0  0  0  0  0  0
    0.2791   19.4080   38.2514 H   0  0  0  0  0  0  0  0  0  0  0  0
    0.7426   20.7172   39.3761 H   0  0  0  0  0  0  0  0  0  0  0  0
  2  3  2  0
  3 10  1  0
  3  6  1  0
  4  1  1  0
  4  5  1  0
  6  7  1  0
  7  8  2  0
  7 13  1  0
  9 13  1  0
  9  4  1  0
 11  5  1  0
 12  3  2  0
 13 11  1  0
  1 14  1  0
  1 15  1  0
  1 16  1  0
  4 17  1  1
  5 18  1  0
  5 19  1  0
  6 20  1  0
  6 21  1  0
  9 22  1  0
  9 23  1  0
 10 24  1  0
 11 25  1  0
 11 26  1  0
M  END
>  <mol_id>  (50) 
2026-09-16-6tgu-s0-n100-0050

>  <rmsd_to_ref>  (50) 


$$$$

     RDKit          3D

 44 46  0  0  0  0  0  0  0  0999 V2000
    4.4903   23.5262   31.6889 C   0  0  1  0  0  0  0  0  0  0  0  0
    2.6624   14.5798   41.7150 C   0  0  0  0  0  0  0  0  0  0  0  0
    2.7449   23.0225   32.0559 S   0  0  0  0  0  0  0  0  0  0  0  0
    2.2616   13.6490   42.4372 O   0  0  0  0  0  0  0  0  0  0  0  0
    5.2379   23.0492   33.1874 C   0  0  1  0  0  0  0  0  0  0  0  0
    3.0409   16.9648   40.8754 O   0  0  0  0  0  0  0  0  0  0  0  0
    2.0221   19.3857   40.2160 S   0  0  0  0  0  6  0  0  0  0  0  0
    4.5784   24.0780   30.2431 C   0  0  0  0  0  0  0  0  0  0  0  0
    4.0434   22.7204   33.5859 C   0  0  0  0  0  0  0  0  0  0  0  0
    2.5882   19.7370   38.9280 N   0  0  0  0  0  0  0  0  0  0  0  0
    0.7580   17.2860   41.0186 O   0  0  0  0  0  0  0  0  0  0  0  0
    2.6924   19.7799   41.3010 O   0  0  0  0  0  0  0  0  0  0  0  0
    0.9491   16.1364   41.5213 C   0  0  0  0  0  0  0  0  0  0  0  0
    3.8348   14.2744   40.9280 O   0  0  0  0  0  0  0  0  0  0  0  0
    2.5176   21.7799   35.9320 C   0  0  0  0  0  0  0  0  0  0  0  0
    1.9771   20.3243   37.9162 C   0  0  0  0  0  0  0  0  0  0  0  0
    4.5841   22.1805   35.3162 C   0  0  0  0  0  0  0  0  0  0  0  0
    6.0875   24.1150   33.8306 C   0  0  0  0  0  0  0  0  0  0  0  0
    5.7166   24.2090   32.4015 C   0  0  2  0  0  0  0  0  0  0  0  0
    2.1710   15.7329   41.4761 C   0  0  2  0  0  0  0  0  0  0  0  0
    2.3630   17.8077   40.8484 C   0  0  1  0  0  0  0  0  0  0  0  0
    0.6726   19.7092   40.2100 O   0  0  0  0  0  0  0  0  0  0  0  0
    2.7776   20.6766   37.0525 C   0  0  0  0  0  0  0  0  0  0  0  0
    3.4291   22.0773   34.7507 C   0  0  0  0  0  0  0  0  0  0  0  0
    2.5113   23.1318   33.4014 H   0  0  0  0  0  0  0  0  0  0  0  0
    3.6838   24.6798   30.0252 H   0  0  0  0  0  0  0  0  0  0  0  0
    5.4758   24.7063   30.1445 H   0  0  0  0  0  0  0  0  0  0  0  0
    4.6379   23.2395   29.5337 H   0  0  0  0  0  0  0  0  0  0  0  0
    3.5165   23.6853   33.5521 H   0  0  0  0  0  0  0  0  0  0  0  0
    4.0172   21.8037   32.9783 H   0  0  0  0  0  0  0  0  0  0  0  0
    3.3832   20.3533   39.1491 H   0  0  0  0  0  0  0  0  0  0  0  0
    0.6350   16.1650   42.5751 H   0  0  0  0  0  0  0  0  0  0  0  0
    0.3620   15.4283   40.9181 H   0  0  0  0  0  0  0  0  0  0  0  0
    1.5991   22.3786   36.0205 H   0  0  0  0  0  0  0  0  0  0  0  0
    1.2596   19.6183   37.4728 H   0  0  0  0  0  0  0  0  0  0  0  0
    1.4609   21.2186   38.2954 H   0  0  0  0  0  0  0  0  0  0  0  0
    4.7292   21.8103   36.3419 H   0  0  0  0  0  0  0  0  0  0  0  0
    5.4236   22.6386   34.7728 H   0  0  0  0  0  0  0  0  0  0  0  0
    5.6445   24.8068   34.5621 H   0  0  0  0  0  0  0  0  0  0  0  0
    7.0317   24.1264   34.3950 H   0  0  0  0  0  0  0  0  0  0  0  0
    6.2205   24.9668   31.7836 H   0  0  0  0  0  0  0  0  0  0  0  0
    1.9179   15.4134   40.4545 H   0  0  0  0  0  0  0  0  0  0  0  0
    3.3162   18.1335   41.2902 H   0  0  0  0  0  0  0  0  0  0  0  0
    3.7623   20.1861   37.0528 H   0  0  0  0  0  0  0  0  0  0  0  0
  1  8  1  0
  1  5  1  0
  1  3  1  1
  2  4  1  0
  5 18  1  0
  5  9  1  6
  6 21  1  0
  6 20  1  0
  7 12  2  0
  7 22  2  0
  9 24  1  0
 10  7  1  0
 11 13  1  0
 14  2  2  0
 15 23  2  3
 16 10  1  0
 17 24  2  3
 19  1  1  0
 19  5  1  0
 19 18  1  0
 20  2  1  0
 20 13  1  0
 21  7  1  0
 21 11  1  0
 23 16  1  0
 24 15  1  0
  3 25  1  0
  8 26  1  0
  8 27  1  0
  8 28  1  0
  9 29  1  0
  9 30  1  0
 10 31  1  0
 13 32  1  0
 13 33  1  0
 15 34  1  0
 16 35  1  0
 16 36  1  0
 17 37  1  0
 17 38  1  0
 18 39  1  0
 18 40  1  0
 19 41  1  6
 20 42  1  1
 21 43  1  1
 23 44  1  0
M  CHG  1   4  -1
M  END
>  <mol_id>  (51) 
2026-09-16-6tgu-s0-n100-0051

>  <rmsd_to_ref>  (51) 


$$$$

     RDKit          3D

 41 41  0  0  0  0  0  0  0  0999 V2000
    2.4431   18.2278   39.8625 C   0  0  0  0  0  0  0  0  0  0  0  0
    2.6637   20.8648   36.8752 C   0  0  0  0  0  0  0  0  0  0  0  0
    0.9690   19.8955   41.0498 C   0  0  0  0  0  0  0  0  0  0  0  0
    1.2421   23.5439   34.7862 C   0  0  0  0  0  0  0  0  0  0  0  0
    2.1616   24.4959   34.0468 C   0  0  1  0  0  0  0  0  0  0  0  0
    2.0751   19.9871   38.0167 C   0  0  1  0  0  0  0  0  0  0  0  0
    0.9979   18.5489   40.3806 C   0  0  2  0  0  0  0  0  0  0  0  0
    3.8758   24.3802   34.0892 S   0  0  0  0  0  0  0  0  0  0  0  0
    1.5282   24.8452   32.4314 S   0  0  0  0  0  0  0  0  0  0  0  0
    1.8436   21.7445   36.2784 N   0  0  0  0  0  0  0  0  0  0  0  0
    0.5937   17.4971   41.2349 O   0  0  0  0  0  0  0  0  0  0  0  0
    4.0879   24.9668   32.5056 C   0  0  0  0  0  0  0  0  0  0  0  0
    2.7459   26.4182   30.6312 C   0  0  0  0  0  0  0  0  0  0  0  0
    3.1277   19.1690   38.9116 C   0  0  0  0  0  0  0  0  0  0  0  0
    2.9696   25.4981   31.8002 C   0  0  1  0  0  0  0  0  0  0  0  0
    3.7619   20.6894   36.4146 O   0  0  0  0  0  0  0  0  0  0  0  0
    1.4610   20.9337   38.9722 O   0  0  0  0  0  0  0  0  0  0  0  0
    2.3210   22.5707   35.2442 C   0  0  0  0  0  0  0  0  0  0  0  0
    3.0882   18.1485   40.7500 H   0  0  0  0  0  0  0  0  0  0  0  0
    2.2989   17.3196   39.2588 H   0  0  0  0  0  0  0  0  0  0  0  0
    1.1161   19.7701   42.1326 H   0  0  0  0  0  0  0  0  0  0  0  0
    1.7729   20.5254   40.6411 H   0  0  0  0  0  0  0  0  0  0  0  0
   -0.0032   20.3760   40.8650 H   0  0  0  0  0  0  0  0  0  0  0  0
    0.5023   23.0718   34.1231 H   0  0  0  0  0  0  0  0  0  0  0  0
    0.6054   23.9805   35.5697 H   0  0  0  0  0  0  0  0  0  0  0  0
    2.1047   25.3520   34.7351 H   0  0  0  0  0  0  0  0  0  0  0  0
    1.4222   19.2537   37.5208 H   0  0  0  0  0  0  0  0  0  0  0  0
    0.2829   18.6106   39.5469 H   0  0  0  0  0  0  0  0  0  0  0  0
    0.8609   21.8149   36.5788 H   0  0  0  0  0  0  0  0  0  0  0  0
    0.9146   17.6768   42.1541 H   0  0  0  0  0  0  0  0  0  0  0  0
    4.8422   25.7657   32.5582 H   0  0  0  0  0  0  0  0  0  0  0  0
    4.3544   24.0682   31.9299 H   0  0  0  0  0  0  0  0  0  0  0  0
    2.7046   27.4586   30.9862 H   0  0  0  0  0  0  0  0  0  0  0  0
    3.5728   26.3079   29.9142 H   0  0  0  0  0  0  0  0  0  0  0  0
    1.7966   26.1611   30.1386 H   0  0  0  0  0  0  0  0  0  0  0  0
    3.7837   18.5879   38.2467 H   0  0  0  0  0  0  0  0  0  0  0  0
    3.7054   19.8927   39.5052 H   0  0  0  0  0  0  0  0  0  0  0  0
    2.8843   26.3518   32.4886 H   0  0  0  0  0  0  0  0  0  0  0  0
    1.6751   20.6541   39.8975 H   0  0  0  0  0  0  0  0  0  0  0  0
    2.6253   21.9435   34.3933 H   0  0  0  0  0  0  0  0  0  0  0  0
    3.1784   23.1473   35.6214 H   0  0  0  0  0  0  0  0  0  0  0  0
  1  7  1  0
  2  6  1  0
  4 18  1  0
  5  8  1  0
  5  4  1  0
  6 17  1  0
  6 14  1  0
  7  3  1  0
  7 11  1  0
  9  5  1  0
 10  2  1  0
 12  8  1  0
 14  1  1  0
 15 13  1  0
 15  9  1  0
 15 12  1  0
 16  2  2  0
 18 10  1  0
  1 19  1  0
  1 20  1  0
  3 21  1  0
  3 22  1  0
  3 23  1  0
  4 24  1  0
  4 25  1  0
  5 26  1  1
  6 27  1  6
  7 28  1  6
 10 29  1  0
 11 30  1  0
 12 31  1  0
 12 32  1  0
 13 33  1  0
 13 34  1  0
 13 35  1  0
 14 36  1  0
 14 37  1  0
 15 38  1  1
 17 39  1  0
 18 40  1  0
 18 41  1  0
M  END
>  <mol_id>  (52) 
2026-09-16-6tgu-s0-n100-0052

>  <rmsd_to_ref>  (52) 


$$$$

     RDKit          3D

 39 40  0  0  0  0  0  0  0  0999 V2000
    5.4238   22.9087   34.4835 C   0  0  0  0  0  0  0  0  0  0  0  0
    3.3197   18.0471   42.0458 C   0  0  0  0  0  0  0  0  0  0  0  0
    4.6846   22.0822   35.0504 C   0  0  2  0  0  0  0  0  0  0  0  0
    0.0969   16.5669   42.5754 C   0  0  0  0  0  0  0  0  0  0  0  0
    5.2092   23.6545   33.7954 O   0  0  0  0  0  0  0  0  0  0  0  0
    3.9016   21.7657   36.1576 C   0  0  2  0  0  0  0  0  0  0  0  0
    1.0503   18.2395   41.1551 C   0  0  1  0  0  0  0  0  0  0  0  0
    2.0105   20.0556   37.9089 C   0  0  0  0  0  0  0  0  0  0  0  0
    4.5624   21.1813   37.3216 C   0  0  0  0  0  0  0  0  0  0  0  0
    0.0664   17.9302   41.9713 C   0  0  0  0  0  0  0  0  0  0  0  0
    2.2533   19.3399   39.2687 C   0  0  0  0  0  0  0  0  0  0  0  0
    2.2969   17.4453   41.2101 C   0  0  0  0  0  0  0  0  0  0  0  0
    5.9561   22.1823   35.1012 O   0  0  0  0  0  0  0  0  0  0  0  0
    3.1432   20.5920   37.0098 C   0  0  2  0  0  0  0  0  0  0  0  0
   -1.2322   16.1770   42.9482 C   0  0  0  0  0  0  0  0  0  0  0  0
    1.1044   19.4086   40.2299 C   0  0  0  0  0  0  0  0  0  0  0  0
   -2.2326   15.7651   43.2862 C   0  0  0  0  0  0  0  0  0  0  0  0
    3.0354   17.9459   43.1035 H   0  0  0  0  0  0  0  0  0  0  0  0
    4.2798   17.5384   41.8738 H   0  0  0  0  0  0  0  0  0  0  0  0
    3.4192   19.1131   41.7932 H   0  0  0  0  0  0  0  0  0  0  0  0
    3.7508   21.6144   34.7052 H   0  0  0  0  0  0  0  0  0  0  0  0
    0.7399   16.5760   43.4678 H   0  0  0  0  0  0  0  0  0  0  0  0
    0.4960   15.8507   41.8420 H   0  0  0  0  0  0  0  0  0  0  0  0
    3.3831   22.6024   35.6664 H   0  0  0  0  0  0  0  0  0  0  0  0
    1.5169   18.8442   41.9466 H   0  0  0  0  0  0  0  0  0  0  0  0
    1.4498   19.3401   37.2896 H   0  0  0  0  0  0  0  0  0  0  0  0
    1.5425   20.9933   38.2430 H   0  0  0  0  0  0  0  0  0  0  0  0
    5.4492   20.5481   37.1711 H   0  0  0  0  0  0  0  0  0  0  0  0
    5.0036   21.6223   38.2276 H   0  0  0  0  0  0  0  0  0  0  0  0
    0.0756   18.6593   42.7949 H   0  0  0  0  0  0  0  0  0  0  0  0
   -0.8404   17.9490   41.3490 H   0  0  0  0  0  0  0  0  0  0  0  0
    2.4655   18.2801   39.0643 H   0  0  0  0  0  0  0  0  0  0  0  0
    3.0913   19.8656   39.7498 H   0  0  0  0  0  0  0  0  0  0  0  0
    2.0595   16.4486   41.6106 H   0  0  0  0  0  0  0  0  0  0  0  0
    2.6980   17.3937   40.1871 H   0  0  0  0  0  0  0  0  0  0  0  0
    2.4545   19.7826   36.7262 H   0  0  0  0  0  0  0  0  0  0  0  0
    0.1674   19.4448   39.6548 H   0  0  0  0  0  0  0  0  0  0  0  0
    1.2424   20.3101   40.8450 H   0  0  0  0  0  0  0  0  0  0  0  0
   -3.2035   15.3654   43.6142 H   0  0  0  0  0  0  0  0  0  0  0  0
  1 13  1  0
  3  1  1  0
  3  6  1  0
  4 15  1  0
  5  1  2  0
  6  9  1  0
  6 14  1  0
  7 16  1  0
  7 10  1  0
  8 11  1  0
  9 14  1  0
 10  4  1  0
 11 16  1  0
 12  7  1  0
 12  2  1  0
 13  3  1  0
 14  8  1  0
 15 17  3  0
  2 18  1  0
  2 19  1  0
  2 20  1  0
  3 21  1  6
  4 22  1  0
  4 23  1  0
  6 24  1  1
  7 25  1  6
  8 26  1  0
  8 27  1  0
  9 28  1  0
  9 29  1  0
 10 30  1  0
 10 31  1  0
 11 32  1  0
 11 33  1  0
 12 34  1  0
 12 35  1  0
 14 36  1  6
 16 37  1  0
 16 38  1  0
 17 39  1  0
M  END
>  <mol_id>  (53) 
2026-09-16-6tgu-s0-n100-0053

>  <rmsd_to_ref>  (53) 


$$$$

     RDKit          3D

 45 45  0  0  0  0  0  0  0  0999 V2000
    5.4586   13.5027   35.5204 N   0  0  0  0  0  0  0  0  0  0  0  0
    1.8912   19.8802   37.4884 O   0  0  0  0  0  0  0  0  0  0  0  0
    2.3813   17.2932   40.7448 C   0  0  0  0  0  0  0  0  0  0  0  0
   -0.5541   16.7213   43.0742 C   0  0  0  0  0  0  0  0  0  0  0  0
    4.3183   21.5261   33.1735 C   0  0  0  0  0  0  0  0  0  0  0  0
    2.8602   13.4583   36.5544 C   0  0  0  0  0  0  0  0  0  0  0  0
    3.1763   23.7447   33.7792 C   0  0  0  0  0  0  0  0  0  0  0  0
    2.7902   19.0924   37.2998 C   0  0  0  0  0  0  0  0  0  0  0  0
    3.4065   15.6274   37.7588 C   0  0  0  0  0  0  0  0  0  0  0  0
    3.3159   16.8757   37.3680 N   0  0  0  0  0  0  0  0  0  0  0  0
    5.4989   11.6999   34.4079 N   0  0  0  0  0  0  0  0  0  0  0  0
    3.9810   20.8731   34.3598 C   0  0  0  0  0  0  0  0  0  0  0  0
    4.6900   12.3434   35.2927 C   0  0  0  0  0  0  0  0  0  0  0  0
    1.4942   17.6344   41.7838 C   0  0  0  0  0  0  0  0  0  0  0  0
    3.3954   20.5809   35.4470 C   0  0  0  0  0  0  0  0  0  0  0  0
    4.8420   14.4743   36.3496 C   0  0  0  0  0  0  0  0  0  0  0  0
    3.3659   12.2867   35.8141 C   0  0  0  0  0  0  0  0  0  0  0  0
    4.5220   23.4781   31.5911 C   0  0  0  0  0  0  0  0  0  0  0  0
    2.4118   17.9175   39.5165 C   0  0  0  0  0  0  0  0  0  0  0  0
    3.6933   14.5073   36.8517 C   0  0  0  0  0  0  0  0  0  0  0  0
    2.8621   17.8661   38.1552 C   0  0  0  0  0  0  0  0  0  0  0  0
    4.0300   22.8955   32.9050 C   0  0  0  0  0  0  0  0  0  0  0  0
    3.6541   19.3906   36.2724 N   0  0  0  0  0  0  0  0  0  0  0  0
    3.2806   15.2808   38.9954 O   0  0  0  0  0  0  0  0  0  0  0  0
    0.4441   17.1199   42.3962 C   0  0  0  0  0  0  0  0  0  0  0  0
    3.0954   16.4762   40.9251 H   0  0  0  0  0  0  0  0  0  0  0  0
   -1.4182   16.3762   43.6610 H   0  0  0  0  0  0  0  0  0  0  0  0
    4.8395   20.9473   32.3968 H   0  0  0  0  0  0  0  0  0  0  0  0
    1.8071   13.4911   36.8706 H   0  0  0  0  0  0  0  0  0  0  0  0
    3.2383   23.3822   34.8159 H   0  0  0  0  0  0  0  0  0  0  0  0
    3.5266   24.7865   33.7335 H   0  0  0  0  0  0  0  0  0  0  0  0
    2.1330   23.6932   33.4346 H   0  0  0  0  0  0  0  0  0  0  0  0
    5.2201   10.7845   34.0267 H   0  0  0  0  0  0  0  0  0  0  0  0
    6.3900   12.1282   34.1192 H   0  0  0  0  0  0  0  0  0  0  0  0
    2.1849   17.8015   42.6236 H   0  0  0  0  0  0  0  0  0  0  0  0
    0.8793   18.2732   41.1328 H   0  0  0  0  0  0  0  0  0  0  0  0
    2.6253   21.2803   35.8045 H   0  0  0  0  0  0  0  0  0  0  0  0
    5.4750   15.3406   36.5919 H   0  0  0  0  0  0  0  0  0  0  0  0
    2.7384   11.3949   35.6690 H   0  0  0  0  0  0  0  0  0  0  0  0
    5.5554   23.8349   31.7123 H   0  0  0  0  0  0  0  0  0  0  0  0
    4.4910   22.7026   30.8116 H   0  0  0  0  0  0  0  0  0  0  0  0
    3.8759   24.3187   31.2979 H   0  0  0  0  0  0  0  0  0  0  0  0
    1.8512   18.8575   39.6272 H   0  0  0  0  0  0  0  0  0  0  0  0
    4.9287   23.2781   33.4111 H   0  0  0  0  0  0  0  0  0  0  0  0
    4.4694   18.7903   36.0834 H   0  0  0  0  0  0  0  0  0  0  0  0
  1 13  1  0
  1 16  2  0
  2  8  2  0
  3 14  1  0
  5 12  2  0
  6 20  2  0
  8 21  1  0
  9 24  2  0
 10 21  2  3
 10  9  1  0
 11 13  1  0
 12 15  2  0
 13 17  2  0
 14 25  1  0
 15 23  1  0
 16 20  1  0
 17  6  1  0
 18 22  1  0
 19  3  2  3
 20  9  1  0
 21 19  1  0
 22  7  1  0
 22  5  1  0
 23  8  1  0
 25  4  3  0
  3 26  1  0
  4 27  1  0
  5 28  1  0
  6 29  1  0
  7 30  1  0
  7 31  1  0
  7 32  1  0
 11 33  1  0
 11 34  1  0
 14 35  1  0
 14 36  1  0
 15 37  1  0
 16 38  1  0
 17 39  1  0
 18 40  1  0
 18 41  1  0
 18 42  1  0
 19 43  1  0
 22 44  1  0
 23 45  1  0
M  END
>  <mol_id>  (54) 
2026-09-16-6tgu-s0-n100-0054

>  <rmsd_to_ref>  (54) 


$$$$

     RDKit          3D

 63 66  0  0  0  0  0  0  0  0999 V2000
    1.6840   28.0940   33.8090 C   0  0  0  0  0  0  0  0  0  0  0  0
    1.2620   19.8320   41.3200 C   0  0  0  0  0  0  0  0  0  0  0  0
    3.1140   24.4160   34.2110 C   0  0  0  0  0  0  0  0  0  0  0  0
    3.5660   21.3390   35.9620 C   0  0  0  0  0  0  0  0  0  0  0  0
    0.6790   17.2060   42.7360 C   0  0  0  0  0  0  0  0  0  0  0  0
    0.1260   27.5000   29.1790 C   0  0  0  0  0  0  0  0  0  0  0  0
    1.3130   17.2510   41.4620 C   0  0  1  0  0  0  0  0  0  0  0  0
    3.3820   16.8320   37.9960 C   0  0  0  0  0  0  0  0  0  0  0  0
    4.0150   21.7370   34.5800 C   0  0  0  0  0  0  0  0  0  0  0  0
    2.9330   19.4430   38.5900 C   0  0  0  0  0  0  0  0  0  0  0  0
    3.4780   23.2180   34.3020 C   0  0  0  0  0  0  0  0  0  0  0  0
    2.5240   18.5040   39.5830 C   0  0  0  0  0  0  0  0  0  0  0  0
    1.7900   16.1000   40.8450 C   0  0  0  0  0  0  0  0  0  0  0  0
    3.7640   13.6650   38.6400 N   0  0  0  0  0  0  0  0  0  0  0  0
    2.1380   26.2210   32.4470 C   0  0  1  0  0  0  0  0  0  0  0  0
    1.5940   21.1350   40.5890 C   0  0  0  0  0  0  0  0  0  0  0  0
    0.8730   28.7100   29.5190 C   0  0  1  0  0  0  0  0  0  0  0  0
    2.8110   17.4660   39.2720 C   0  0  0  0  0  0  0  0  0  0  0  0
    1.1170   27.4270   30.0720 C   0  0  1  0  0  0  0  0  0  0  0  0
    2.2180   29.3410   29.5420 F   0  0  0  0  0  0  0  0  0  0  0  0
    2.4400   16.3120   39.8470 N   0  0  0  0  0  0  0  0  0  0  0  0
    0.7250   19.9690   42.4950 O   0  0  0  0  0  0  0  0  0  0  0  0
    3.8460   20.0130   36.2390 O   0  0  0  0  0  0  0  0  0  0  0  0
    1.6080   18.5010   40.8740 N   0  0  0  0  0  0  0  0  0  0  0  0
    3.4880   19.2100   37.3150 C   0  0  0  0  0  0  0  0  0  0  0  0
    3.9200   17.7810   37.1250 C   0  0  0  0  0  0  0  0  0  0  0  0
    1.5640   26.5890   30.9220 N   0  0  0  0  0  0  0  0  0  0  0  0
    2.0990   27.5360   32.0890 C   0  0  1  0  0  0  0  0  0  0  0  0
    1.7420   14.9570   41.3620 O   0  0  0  0  0  0  0  0  0  0  0  0
    1.5680   28.5550   32.6650 C   0  0  0  0  0  0  0  0  0  0  0  0
    1.9980   25.8630   33.7350 C   0  0  2  0  0  0  0  0  0  0  0  0
    3.3230   14.0980   38.7860 N   0  0  0  0  0  0  0  0  0  0  0  0
    1.7810   27.0200   34.5650 C   0  0  0  0  0  0  0  0  0  0  0  0
    0.8123   28.5689   34.2830 H   0  0  0  0  0  0  0  0  0  0  0  0
    2.7784   28.1097   33.6992 H   0  0  0  0  0  0  0  0  0  0  0  0
    2.4801   21.4961   36.0410 H   0  0  0  0  0  0  0  0  0  0  0  0
    4.1131   21.9591   36.6873 H   0  0  0  0  0  0  0  0  0  0  0  0
    1.4414   17.2601   43.5271 H   0  0  0  0  0  0  0  0  0  0  0  0
   -0.0107   18.0575   42.8326 H   0  0  0  0  0  0  0  0  0  0  0  0
    0.1165   16.2657   42.8326 H   0  0  0  0  0  0  0  0  0  0  0  0
   -0.9177   27.3896   29.5084 H   0  0  0  0  0  0  0  0  0  0  0  0
   -0.1112   26.9750   28.2419 H   0  0  0  0  0  0  0  0  0  0  0  0
    2.2876   17.3922   41.9520 H   0  0  0  0  0  0  0  0  0  0  0  0
    4.1737   16.1223   38.2780 H   0  0  0  0  0  0  0  0  0  0  0  0
    2.5558   16.3275   37.4735 H   0  0  0  0  0  0  0  0  0  0  0  0
    5.1134   21.7200   34.5235 H   0  0  0  0  0  0  0  0  0  0  0  0
    3.6195   21.0365   33.8297 H   0  0  0  0  0  0  0  0  0  0  0  0
    2.7956   20.5011   38.8575 H   0  0  0  0  0  0  0  0  0  0  0  0
    2.6337   25.2654   32.6730 H   0  0  0  0  0  0  0  0  0  0  0  0
    1.7958   21.9272   41.3250 H   0  0  0  0  0  0  0  0  0  0  0  0
    2.4827   20.9854   39.9583 H   0  0  0  0  0  0  0  0  0  0  0  0
    0.7420   21.4289   39.9583 H   0  0  0  0  0  0  0  0  0  0  0  0
    0.4390   29.7120   29.3865 H   0  0  0  0  0  0  0  0  0  0  0  0
    1.9437   26.9839   30.6467 H   0  0  0  0  0  0  0  0  0  0  0  0
    2.7624   15.4653   39.3570 H   0  0  0  0  0  0  0  0  0  0  0  0
    3.6449   17.4851   36.1019 H   0  0  0  0  0  0  0  0  0  0  0  0
    4.9997   17.7801   37.3355 H   0  0  0  0  0  0  0  0  0  0  0  0
    2.8525   28.3371   32.1108 H   0  0  0  0  0  0  0  0  0  0  0  0
    2.1406   29.4820   32.5141 H   0  0  0  0  0  0  0  0  0  0  0  0
    0.5666   28.8691   32.3354 H   0  0  0  0  0  0  0  0  0  0  0  0
    1.0573   25.3389   33.9595 H   0  0  0  0  0  0  0  0  0  0  0  0
    2.6262   27.1362   35.2594 H   0  0  0  0  0  0  0  0  0  0  0  0
    0.8501   26.8902   35.1365 H   0  0  0  0  0  0  0  0  0  0  0  0
  1 33  1  0
  2 22  2  0
  3 11  3  0
  4 23  1  0
  6 17  1  0
  6 19  1  0
  7  5  1  0
  8 18  1  0
  9  4  1  0
 10 12  1  0
 11  9  1  0
 12 24  1  0
 13 29  2  0
 13  7  1  0
 14 32  3  0
 15 31  1  0
 16  2  1  0
 17 20  1  0
 17 19  1  0
 18 12  2  0
 18 21  1  0
 19 27  1  0
 21 13  1  0
 23 25  1  0
 24  2  1  0
 24  7  1  0
 25 10  2  0
 26 25  1  0
 26  8  1  0
 27 28  1  0
 27 15  1  0
 28 15  1  0
 28 30  1  0
 30  1  1  0
 31  3  1  0
 31 33  1  0
  1 34  1  0
  1 35  1  0
  4 36  1  0
  4 37  1  0
  5 38  1  0
  5 39  1  0
  5 40  1  0
  6 41  1  0
  6 42  1  0
  7 43  1  6
  8 44  1  0
  8 45  1  0
  9 46  1  0
  9 47  1  0
 10 48  1  0
 15 49  1  6
 16 50  1  0
 16 51  1  0
 16 52  1  0
 17 53  1  1
 19 54  1  6
 21 55  1  0
 26 56  1  0
 26 57  1  0
 28 58  1  6
 30 59  1  0
 30 60  1  0
 31 61  1  6
 33 62  1  0
 33 63  1  0
M  END
>  <mol_id>  (55) 
2026-09-16-6tgu-s0-n100-0055

>  <rmsd_to_ref>  (55) 


$$$$

     RDKit          3D

 45 47  0  0  0  0  0  0  0  0999 V2000
    0.8060   15.4565   41.9805 C   0  0  0  0  0  0  0  0  0  0  0  0
    2.6555   18.2820   38.9941 C   0  0  0  0  0  0  0  0  0  0  0  0
    2.7328   15.9560   39.5118 C   0  0  0  0  0  0  0  0  0  0  0  0
   -0.6812   16.4638   43.4874 C   0  0  0  0  0  0  0  0  0  0  0  0
    3.2331   23.6811   32.6222 C   0  0  0  0  0  0  0  0  0  0  0  0
    2.8874   18.9652   38.0147 C   0  0  0  0  0  0  0  0  0  0  0  0
    3.2265   22.7871   34.8682 C   0  0  1  0  0  0  0  0  0  0  0  0
    1.8316   25.5430   33.2483 O   0  0  0  0  0  0  0  0  0  0  0  0
    2.1433   23.7793   34.8371 C   0  0  0  0  0  0  0  0  0  0  0  0
    3.5656   20.4815   36.0271 C   0  0  0  0  0  0  0  0  0  0  0  0
    2.4862   14.7329   40.1395 C   0  0  0  0  0  0  0  0  0  0  0  0
    4.5810   20.3647   35.3594 O   0  0  0  0  0  0  0  0  0  0  0  0
    3.2067   13.6189   39.6975 C   0  0  0  0  0  0  0  0  0  0  0  0
    2.0151   24.1659   33.3831 C   0  0  2  0  0  0  0  0  0  0  0  0
    1.5455   20.8898   34.9161 O   0  0  0  0  0  0  0  0  0  0  0  0
    0.9205   16.8210   41.9005 C   0  0  0  0  0  0  0  0  0  0  0  0
   -0.2079   15.1801   42.9403 C   0  0  0  0  0  0  0  0  0  0  0  0
    2.2917   17.2473   39.9680 C   0  0  0  0  0  0  0  0  0  0  0  0
    0.0484   17.2826   42.8106 C   0  0  0  0  0  0  0  0  0  0  0  0
    3.0428   19.6805   37.0574 N   0  0  0  0  0  0  0  0  0  0  0  0
    3.4275   16.0034   38.4326 O   0  0  0  0  0  0  0  0  0  0  0  0
    1.4922   14.5600   41.1284 C   0  0  0  0  0  0  0  0  0  0  0  0
    2.5843   21.6118   35.6410 C   0  0  2  0  0  0  0  0  0  0  0  0
    1.5862   17.5924   41.1424 N   0  0  0  0  0  0  0  0  0  0  0  0
    3.7506   22.4813   33.4374 C   0  0  0  0  0  0  0  0  0  0  0  0
   -1.4419   16.6659   44.2558 H   0  0  0  0  0  0  0  0  0  0  0  0
    3.9963   24.4713   32.5676 H   0  0  0  0  0  0  0  0  0  0  0  0
    2.9936   23.4071   31.5842 H   0  0  0  0  0  0  0  0  0  0  0  0
    4.1518   23.1068   35.3699 H   0  0  0  0  0  0  0  0  0  0  0  0
    1.6613   25.9419   34.1382 H   0  0  0  0  0  0  0  0  0  0  0  0
    1.2046   23.3396   35.2053 H   0  0  0  0  0  0  0  0  0  0  0  0
    2.3562   24.6463   35.4799 H   0  0  0  0  0  0  0  0  0  0  0  0
    3.4871   12.9975   40.5607 H   0  0  0  0  0  0  0  0  0  0  0  0
    2.5841   13.0295   39.0081 H   0  0  0  0  0  0  0  0  0  0  0  0
    4.1155   13.9535   39.1758 H   0  0  0  0  0  0  0  0  0  0  0  0
    1.1247   23.6829   32.9546 H   0  0  0  0  0  0  0  0  0  0  0  0
    0.8709   20.5509   35.5566 H   0  0  0  0  0  0  0  0  0  0  0  0
   -0.5742   14.1825   43.2240 H   0  0  0  0  0  0  0  0  0  0  0  0
   -0.0439   18.3657   42.9797 H   0  0  0  0  0  0  0  0  0  0  0  0
    2.0488   19.7781   36.8057 H   0  0  0  0  0  0  0  0  0  0  0  0
    3.7801   15.1687   38.0339 H   0  0  0  0  0  0  0  0  0  0  0  0
    1.1894   13.5113   41.2637 H   0  0  0  0  0  0  0  0  0  0  0  0
    2.1905   22.1555   36.5125 H   0  0  0  0  0  0  0  0  0  0  0  0
    3.3367   21.5357   33.0573 H   0  0  0  0  0  0  0  0  0  0  0  0
    4.8429   22.3604   33.3897 H   0  0  0  0  0  0  0  0  0  0  0  0
  1 17  1  0
  2 18  1  0
  3 18  1  0
  3 11  2  0
  5 25  1  0
  5 14  1  0
  6  2  3  0
  7  9  1  0
  7 23  1  0
 10 20  1  0
 11 22  1  0
 12 10  2  0
 13 11  1  0
 14  8  1  0
 14  9  1  0
 16  1  1  0
 16 19  2  0
 17  4  2  0
 18 24  2  0
 19  4  1  0
 20  6  1  0
 21  3  1  0
 22  1  2  0
 23 15  1  0
 23 10  1  0
 24 16  1  0
 25  7  1  0
  4 26  1  0
  5 27  1  0
  5 28  1  0
  7 29  1  1
  8 30  1  0
  9 31  1  0
  9 32  1  0
 13 33  1  0
 13 34  1  0
 13 35  1  0
 14 36  1  6
 15 37  1  0
 17 38  1  0
 19 39  1  0
 20 40  1  0
 21 41  1  0
 22 42  1  0
 23 43  1  1
 25 44  1  0
 25 45  1  0
M  END
>  <mol_id>  (56) 
2026-09-16-6tgu-s0-n100-0056

>  <rmsd_to_ref>  (56) 


$$$$

     RDKit          3D

 26 26  0  0  0  0  0  0  0  0999 V2000
    3.8552   21.5312   35.7918 C   0  0  2  0  0  0  0  0  0  0  0  0
    2.1203   20.8720   38.1696 S   0  0  0  0  0  0  0  0  0  0  0  0
    2.8198   20.7359   34.8840 C   0  0  0  0  0  0  0  0  0  0  0  0
    1.9991   22.9376   35.1431 O   0  0  0  0  0  0  0  0  0  0  0  0
    3.6424   18.2303   38.0441 C   0  0  0  0  0  0  0  0  0  0  0  0
    3.8345   23.1116   33.5209 C   0  0  0  0  0  0  0  0  0  0  0  0
    4.3536   18.3486   39.4436 C   0  0  0  0  0  0  0  0  0  0  0  0
    3.5212   20.6802   37.1113 C   0  0  1  0  0  0  0  0  0  0  0  0
    4.1097   19.4131   37.2849 C   0  0  0  0  0  0  0  0  0  0  0  0
    3.0624   22.2240   34.7069 C   0  0  1  0  0  0  0  0  0  0  0  0
    4.8257   21.9325   36.1191 H   0  0  0  0  0  0  0  0  0  0  0  0
    2.5123   20.7364   39.4754 H   0  0  0  0  0  0  0  0  0  0  0  0
    3.1786   20.0213   34.1286 H   0  0  0  0  0  0  0  0  0  0  0  0
    1.9435   20.0957   35.0632 H   0  0  0  0  0  0  0  0  0  0  0  0
    1.9306   22.8593   36.1276 H   0  0  0  0  0  0  0  0  0  0  0  0
    3.9385   17.3009   37.5357 H   0  0  0  0  0  0  0  0  0  0  0  0
    2.5465   18.1998   38.1349 H   0  0  0  0  0  0  0  0  0  0  0  0
    4.3691   23.9545   33.9832 H   0  0  0  0  0  0  0  0  0  0  0  0
    4.5524   22.4686   32.9906 H   0  0  0  0  0  0  0  0  0  0  0  0
    3.0903   23.4961   32.8078 H   0  0  0  0  0  0  0  0  0  0  0  0
    3.6104   18.2210   40.2445 H   0  0  0  0  0  0  0  0  0  0  0  0
    5.1239   17.5682   39.5306 H   0  0  0  0  0  0  0  0  0  0  0  0
    4.8233   19.3391   39.5336 H   0  0  0  0  0  0  0  0  0  0  0  0
    4.0859   21.5624   37.4472 H   0  0  0  0  0  0  0  0  0  0  0  0
    4.2376   19.0368   36.2593 H   0  0  0  0  0  0  0  0  0  0  0  0
    4.9022   19.7219   37.9824 H   0  0  0  0  0  0  0  0  0  0  0  0
  1  8  1  0
  3  1  1  0
  5  7  1  0
  8  9  1  0
  8  2  1  0
  9  5  1  0
 10  6  1  0
 10  3  1  0
 10  4  1  1
 10  1  1  0
  1 11  1  6
  2 12  1  0
  3 13  1  0
  3 14  1  0
  4 15  1  0
  5 16  1  0
  5 17  1  0
  6 18  1  0
  6 19  1  0
  6 20  1  0
  7 21  1  0
  7 22  1  0
  7 23  1  0
  8 24  1  1
  9 25  1  0
  9 26  1  0
M  END
>  <mol_id>  (57) 
2026-09-16-6tgu-s0-n100-0057

>  <rmsd_to_ref>  (57) 


$$$$

     RDKit          3D

 89 93  0  0  0  0  0  0  0  0999 V2000
   -0.6781   17.9412   43.0723 C   0  0  0  0  0  0  0  0  0  0  0  0
    2.2496   25.6251   26.6320 C   0  0  0  0  0  0  0  0  0  0  0  0
    2.4947   24.4616   27.5468 C   0  0  2  0  0  0  0  0  0  0  0  0
    2.3768   24.4131   29.0902 C   0  0  2  0  0  0  0  0  0  0  0  0
    4.5042   25.2641   28.3163 C   0  0  0  0  0  0  0  0  0  0  0  0
    3.9861   18.8930   37.1874 C   0  0  1  0  0  0  0  0  0  0  0  0
    4.0763   16.1871   36.9983 C   0  0  0  0  0  0  0  0  0  0  0  0
    2.9326   19.5030   37.9902 O   0  0  0  0  0  0  0  0  0  0  0  0
    1.5842   17.0896   42.2696 C   0  0  0  0  0  0  0  0  0  0  0  0
    1.7323   24.8777   33.6052 C   0  0  2  0  0  0  0  0  0  0  0  0
    0.9532   19.8148   41.6766 S   0  0  0  0  0  0  0  0  0  0  0  0
    2.9618   19.1550   39.2588 C   0  0  1  0  0  0  0  0  0  0  0  0
    3.9477   17.5966   37.3038 N   0  0  0  0  0  0  0  0  0  0  0  0
    4.1114   19.8976   35.9993 C   0  0  0  0  0  0  0  0  0  0  0  0
    3.8854   24.1930   27.5927 N   0  0  0  0  0  0  0  0  0  0  0  0
    5.2116   15.7406   36.2582 C   0  0  0  0  0  0  0  0  0  0  0  0
    1.8258   19.6703   40.1834 C   0  0  1  0  0  0  0  0  0  0  0  0
    2.1305   26.4274   31.5006 S   0  0  1  0  0  4  0  0  0  0  0  0
    5.9508   22.7928   27.6632 C   0  0  0  0  0  0  0  0  0  0  0  0
    2.5796   24.8291   32.4209 C   0  0  0  0  0  0  0  0  0  0  0  0
    0.9579   24.4413   29.5176 C   0  0  0  0  0  0  0  0  0  0  0  0
    0.7655   15.8540   42.1511 C   0  0  0  0  0  0  0  0  0  0  0  0
    2.0076   25.6494   29.8617 C   0  0  2  0  0  0  0  0  0  0  0  0
    0.5720   18.1755   42.2154 C   0  0  0  0  0  0  0  0  0  0  0  0
    1.5775   23.5303   34.2325 C   0  0  0  0  0  0  0  0  0  0  0  0
   -0.0440   15.5035   43.3270 C   0  0  0  0  0  0  0  0  0  0  0  0
   -0.2951   16.8900   44.0736 C   0  0  0  0  0  0  0  0  0  0  0  0
    4.9096   23.8345   28.3488 C   0  0  1  0  0  0  0  0  0  0  0  0
    2.9430   22.7951   34.4198 C   0  0  0  0  0  0  0  0  0  0  0  0
    0.5039   25.7332   33.3874 C   0  0  0  0  0  0  0  0  0  0  0  0
    0.4234   25.9839   31.8598 C   0  0  0  0  0  0  0  0  0  0  0  0
    2.2648   18.2272   40.0739 N   0  0  0  0  0  0  0  0  0  0  0  0
    2.8511   21.8560   35.5416 C   0  0  0  0  0  0  0  0  0  0  0  0
    3.9440   21.2960   36.3309 C   0  0  0  0  0  0  0  0  0  0  0  0
   -1.5113   17.5889   42.4464 H   0  0  0  0  0  0  0  0  0  0  0  0
   -1.0119   18.8669   43.5639 H   0  0  0  0  0  0  0  0  0  0  0  0
    2.0690   26.5303   27.2303 H   0  0  0  0  0  0  0  0  0  0  0  0
    3.1299   25.7790   25.9906 H   0  0  0  0  0  0  0  0  0  0  0  0
    1.3702   25.4190   26.0043 H   0  0  0  0  0  0  0  0  0  0  0  0
    1.6921   23.8616   27.0932 H   0  0  0  0  0  0  0  0  0  0  0  0
    3.2384   23.7457   29.2393 H   0  0  0  0  0  0  0  0  0  0  0  0
    4.0023   25.7301   29.1771 H   0  0  0  0  0  0  0  0  0  0  0  0
    4.9688   26.2351   28.0899 H   0  0  0  0  0  0  0  0  0  0  0  0
    5.0635   18.7865   37.3819 H   0  0  0  0  0  0  0  0  0  0  0  0
    4.0847   15.6488   37.9576 H   0  0  0  0  0  0  0  0  0  0  0  0
    3.2279   15.9839   36.3282 H   0  0  0  0  0  0  0  0  0  0  0  0
    2.1327   17.1092   43.2229 H   0  0  0  0  0  0  0  0  0  0  0  0
    2.3508   17.1755   41.4853 H   0  0  0  0  0  0  0  0  0  0  0  0
    2.2339   25.4326   34.4118 H   0  0  0  0  0  0  0  0  0  0  0  0
    4.0460   19.2053   39.0794 H   0  0  0  0  0  0  0  0  0  0  0  0
    4.5126   17.5604   38.1643 H   0  0  0  0  0  0  0  0  0  0  0  0
    3.1444   17.6122   36.6592 H   0  0  0  0  0  0  0  0  0  0  0  0
    5.1113   19.7738   35.5578 H   0  0  0  0  0  0  0  0  0  0  0  0
    3.2845   19.6537   35.3161 H   0  0  0  0  0  0  0  0  0  0  0  0
    5.9551   15.3152   36.9483 H   0  0  0  0  0  0  0  0  0  0  0  0
    4.8994   14.9717   35.5362 H   0  0  0  0  0  0  0  0  0  0  0  0
    5.6556   16.5907   35.7194 H   0  0  0  0  0  0  0  0  0  0  0  0
    1.3945   20.6695   40.0235 H   0  0  0  0  0  0  0  0  0  0  0  0
    2.7518   27.6361   31.6735 H   0  0  0  0  0  0  0  0  0  0  0  0
    6.4431   22.1976   28.4463 H   0  0  0  0  0  0  0  0  0  0  0  0
    5.4048   22.1232   26.9824 H   0  0  0  0  0  0  0  0  0  0  0  0
    6.7097   23.3524   27.0966 H   0  0  0  0  0  0  0  0  0  0  0  0
    2.3515   23.9441   31.8087 H   0  0  0  0  0  0  0  0  0  0  0  0
    3.6509   24.7552   32.6596 H   0  0  0  0  0  0  0  0  0  0  0  0
    0.1566   24.5928   28.7794 H   0  0  0  0  0  0  0  0  0  0  0  0
    0.2899   23.7834   30.0929 H   0  0  0  0  0  0  0  0  0  0  0  0
    0.0826   15.9829   41.2984 H   0  0  0  0  0  0  0  0  0  0  0  0
    1.4853   15.0312   42.0300 H   0  0  0  0  0  0  0  0  0  0  0  0
    2.3103   26.6941   29.6977 H   0  0  0  0  0  0  0  0  0  0  0  0
    0.2764   18.0169   41.1678 H   0  0  0  0  0  0  0  0  0  0  0  0
    1.1051   23.6527   35.2183 H   0  0  0  0  0  0  0  0  0  0  0  0
    0.9589   22.9183   33.5596 H   0  0  0  0  0  0  0  0  0  0  0  0
   -0.9980   15.0499   43.0201 H   0  0  0  0  0  0  0  0  0  0  0  0
    0.4574   14.7678   43.9731 H   0  0  0  0  0  0  0  0  0  0  0  0
    0.6244   17.1975   44.5931 H   0  0  0  0  0  0  0  0  0  0  0  0
   -1.1087   16.7685   44.8039 H   0  0  0  0  0  0  0  0  0  0  0  0
    5.2690   23.3112   29.2472 H   0  0  0  0  0  0  0  0  0  0  0  0
    3.1899   22.2434   33.5007 H   0  0  0  0  0  0  0  0  0  0  0  0
    3.7288   23.5359   34.6295 H   0  0  0  0  0  0  0  0  0  0  0  0
   -0.3961   25.2057   33.7361 H   0  0  0  0  0  0  0  0  0  0  0  0
    0.5660   26.6776   33.9480 H   0  0  0  0  0  0  0  0  0  0  0  0
   -0.2673   26.8058   31.6203 H   0  0  0  0  0  0  0  0  0  0  0  0
    0.0420   25.1319   31.2778 H   0  0  0  0  0  0  0  0  0  0  0  0
    1.6363   17.5407   39.6328 H   0  0  0  0  0  0  0  0  0  0  0  0
    2.5687   17.5271   40.7655 H   0  0  0  0  0  0  0  0  0  0  0  0
    2.2056   22.3600   36.2759 H   0  0  0  0  0  0  0  0  0  0  0  0
    2.5673   20.9525   34.9820 H   0  0  0  0  0  0  0  0  0  0  0  0
    3.7106   21.3936   37.4014 H   0  0  0  0  0  0  0  0  0  0  0  0
    4.8737   21.8396   36.1072 H   0  0  0  0  0  0  0  0  0  0  0  0
  1 27  1  0
  3  2  1  0
  3 15  1  0
  4  3  1  0
  4 21  1  0
  4 23  1  0
  5 28  1  0
  6 14  1  0
  6 13  1  0
  6  8  1  0
  7 13  1  0
  9 22  1  0
 10 25  1  0
 11 24  1  0
 12  8  1  0
 12 17  1  0
 12 32  1  0
 14 34  1  0
 15  5  1  0
 15 28  1  0
 16  7  1  0
 17 32  1  0
 17 11  1  0
 18 31  1  0
 18 20  1  0
 20 10  1  0
 22 26  1  0
 23 21  1  0
 23 18  1  0
 24  9  1  0
 24  1  1  0
 25 29  1  0
 26 27  1  0
 28 19  1  0
 29 33  1  0
 30 10  1  0
 31 30  1  0
 33 34  1  0
  1 35  1  0
  1 36  1  0
  2 37  1  0
  2 38  1  0
  2 39  1  0
  3 40  1  6
  4 41  1  1
  5 42  1  0
  5 43  1  0
  6 44  1  1
  7 45  1  0
  7 46  1  0
  9 47  1  0
  9 48  1  0
 10 49  1  1
 12 50  1  1
 13 51  1  0
 13 52  1  0
 14 53  1  0
 14 54  1  0
 16 55  1  0
 16 56  1  0
 16 57  1  0
 17 58  1  6
 18 59  1  6
 19 60  1  0
 19 61  1  0
 19 62  1  0
 20 63  1  0
 20 64  1  0
 21 65  1  0
 21 66  1  0
 22 67  1  0
 22 68  1  0
 23 69  1  6
 24 70  1  0
 25 71  1  0
 25 72  1  0
 26 73  1  0
 26 74  1  0
 27 75  1  0
 27 76  1  0
 28 77  1  1
 29 78  1  0
 29 79  1  0
 30 80  1  0
 30 81  1  0
 31 82  1  0
 31 83  1  0
 32 84  1  0
 32 85  1  0
 33 86  1  0
 33 87  1  0
 34 88  1  0
 34 89  1  0
M  CHG  2  13   1  32   1
M  END
>  <mol_id>  (58) 
2026-09-16-6tgu-s0-n100-0058

>  <rmsd_to_ref>  (58) 


$$$$

     RDKit          3D

 44 44  0  0  0  0  0  0  0  0999 V2000
    1.7198   16.4744   42.6763 O   0  0  0  0  0  0  0  0  0  0  0  0
    1.2583   17.6646   42.4709 C   0  0  0  0  0  0  0  0  0  0  0  0
    2.0919   18.6385   41.4682 C   0  0  0  0  0  0  0  0  0  0  0  0
    3.4427   26.6486   32.4332 C   0  0  2  0  0  0  0  0  0  0  0  0
    2.0725   27.3064   34.5080 C   0  0  0  0  0  0  0  0  0  0  0  0
    3.6566   20.4747   36.5090 O   0  0  0  0  0  0  0  0  0  0  0  0
    3.1045   21.0332   37.4813 C   0  0  0  0  0  0  0  0  0  0  0  0
    2.7707   18.8204   38.7858 C   0  0  1  0  0  0  0  0  0  0  0  0
    3.4176   23.6866   35.3746 C   0  0  0  0  0  0  0  0  0  0  0  0
    3.7942   25.2673   33.1340 C   0  0  0  0  0  0  0  0  0  0  0  0
    3.3233   25.0290   34.6273 C   0  0  0  0  0  0  0  0  0  0  0  0
    1.2514   18.3640   43.7067 O   0  0  0  0  0  0  0  0  0  0  0  0
    2.2426   16.8612   39.9186 O   0  0  0  0  0  0  0  0  0  0  0  0
    3.3613   18.0734   37.7466 O   0  0  0  0  0  0  0  0  0  0  0  0
    2.4193   18.0029   39.9745 C   0  0  0  0  0  0  0  0  0  0  0  0
    2.6648   26.2025   35.3870 C   0  0  0  0  0  0  0  0  0  0  0  0
    3.2882   23.5232   36.7073 C   0  0  0  0  0  0  0  0  0  0  0  0
    2.8906   20.2782   38.7656 C   0  0  0  0  0  0  0  0  0  0  0  0
    2.5189   22.4443   37.3395 N   0  0  0  0  0  0  0  0  0  0  0  0
    4.0891   16.8108   37.7437 C   0  0  0  0  0  0  0  0  0  0  0  0
    2.1567   27.3682   32.9914 C   0  0  0  0  0  0  0  0  0  0  0  0
    3.8412   26.7767   30.8464 Cl  0  0  0  0  0  0  0  0  0  0  0  0
    1.8909   16.3491   43.6433 H   0  0  0  0  0  0  0  0  0  0  0  0
    0.2811   17.4720   42.0039 H   0  0  0  0  0  0  0  0  0  0  0  0
    1.5074   19.5593   41.3250 H   0  0  0  0  0  0  0  0  0  0  0  0
    3.0675   18.8057   41.9480 H   0  0  0  0  0  0  0  0  0  0  0  0
    4.1941   27.3637   32.7993 H   0  0  0  0  0  0  0  0  0  0  0  0
    1.5410   28.1242   35.0166 H   0  0  0  0  0  0  0  0  0  0  0  0
    1.7386   19.1482   38.5924 H   0  0  0  0  0  0  0  0  0  0  0  0
    4.4112   23.2846   35.1270 H   0  0  0  0  0  0  0  0  0  0  0  0
    2.4898   23.2070   35.0295 H   0  0  0  0  0  0  0  0  0  0  0  0
    4.3542   24.4908   32.5924 H   0  0  0  0  0  0  0  0  0  0  0  0
    1.5279   17.7518   44.4339 H   0  0  0  0  0  0  0  0  0  0  0  0
    2.6246   26.2417   36.4855 H   0  0  0  0  0  0  0  0  0  0  0  0
    4.3129   23.4225   37.0944 H   0  0  0  0  0  0  0  0  0  0  0  0
    2.6663   24.3942   36.9611 H   0  0  0  0  0  0  0  0  0  0  0  0
    3.7405   20.5284   39.4176 H   0  0  0  0  0  0  0  0  0  0  0  0
    1.8826   20.6019   39.0644 H   0  0  0  0  0  0  0  0  0  0  0  0
    1.5712   22.6376   37.6934 H   0  0  0  0  0  0  0  0  0  0  0  0
    4.3381   16.5288   38.7774 H   0  0  0  0  0  0  0  0  0  0  0  0
    3.4632   16.0278   37.2907 H   0  0  0  0  0  0  0  0  0  0  0  0
    5.0152   16.9228   37.1609 H   0  0  0  0  0  0  0  0  0  0  0  0
    2.1791   28.4233   32.6812 H   0  0  0  0  0  0  0  0  0  0  0  0
    1.2770   26.8480   32.5844 H   0  0  0  0  0  0  0  0  0  0  0  0
  2  1  1  0
  2 12  1  0
  3  2  1  0
  4 22  1  0
  4 21  1  0
  4 10  1  0
  5 16  2  0
  6  7  2  0
  7 18  1  0
  8 18  1  0
  8 15  1  0
  9 17  1  0
 10 11  2  0
 11 16  1  0
 11  9  1  0
 14 20  1  0
 14  8  1  0
 15 13  2  0
 15  3  1  0
 17 19  1  0
 19  7  1  0
 21  5  1  0
  1 23  1  0
  2 24  1  0
  3 25  1  0
  3 26  1  0
  4 27  1  1
  5 28  1  0
  8 29  1  6
  9 30  1  0
  9 31  1  0
 10 32  1  0
 12 33  1  0
 16 34  1  0
 17 35  1  0
 17 36  1  0
 18 37  1  0
 18 38  1  0
 19 39  1  0
 20 40  1  0
 20 41  1  0
 20 42  1  0
 21 43  1  0
 21 44  1  0
M  END
>  <mol_id>  (59) 
2026-09-16-6tgu-s0-n100-0059

>  <rmsd_to_ref>  (59) 


$$$$

     RDKit          3D

 47 48  0  0  0  0  0  0  0  0999 V2000
    0.6469   18.5979   41.5477 C   0  0  1  0  0  0  0  0  0  0  0  0
    1.2932   19.4414   39.5597 C   0  0  0  0  0  0  0  0  0  0  0  0
    1.1182   17.5204   40.7467 N   0  0  0  0  0  0  0  0  0  0  0  0
   -0.3204   17.1950   43.7615 C   0  0  0  0  0  0  0  0  0  0  0  0
    1.6920   20.8618   37.6560 N   0  0  0  0  0  0  0  0  0  0  0  0
    3.5214   19.6267   36.8786 O   0  0  0  0  0  0  0  0  0  0  0  0
    2.7706   20.6530   36.8086 C   0  0  0  0  0  0  0  0  0  0  0  0
    2.8437   21.5732   35.8949 N   0  0  0  0  0  0  0  0  0  0  0  0
    1.1705   15.9442   39.7507 C   0  0  0  0  0  0  0  0  0  0  0  0
   -2.3826   18.9321   43.2469 C   0  0  0  0  0  0  0  0  0  0  0  0
    2.5599   17.3800   38.8996 N   0  0  0  0  0  0  0  0  0  0  0  0
   -0.8954   19.3836   43.2908 C   0  0  0  0  0  0  0  0  0  0  0  0
    1.3951   20.1373   38.5156 N   0  0  0  0  0  0  0  0  0  0  0  0
    3.6257   21.5525   34.7060 C   0  0  0  0  0  0  0  0  0  0  0  0
    2.7977   22.3725   33.6553 C   0  0  0  0  0  0  0  0  0  0  0  0
    3.0910   22.1511   32.3855 C   0  0  0  0  0  0  0  0  0  0  0  0
    0.7637   19.7098   40.7968 C   0  0  0  0  0  0  0  0  0  0  0  0
    1.6094   18.0392   39.6133 N   0  0  0  0  0  0  0  0  0  0  0  0
    3.6707   23.3778   31.7565 C   0  0  0  0  0  0  0  0  0  0  0  0
    0.1184   18.3891   42.9120 N   0  0  0  0  0  0  0  0  0  0  0  0
    2.2166   16.0581   38.8498 C   0  0  0  0  0  0  0  0  0  0  0  0
   -0.5656   20.5509   43.5074 O   0  0  0  0  0  0  0  0  0  0  0  0
    1.6576   18.7334   41.9601 H   0  0  0  0  0  0  0  0  0  0  0  0
   -0.2935   17.4725   44.8256 H   0  0  0  0  0  0  0  0  0  0  0  0
   -1.3445   16.9042   43.4842 H   0  0  0  0  0  0  0  0  0  0  0  0
    0.3611   16.3497   43.5856 H   0  0  0  0  0  0  0  0  0  0  0  0
    1.1212   21.7075   37.5155 H   0  0  0  0  0  0  0  0  0  0  0  0
    2.2696   22.4145   36.0483 H   0  0  0  0  0  0  0  0  0  0  0  0
    1.3391   15.0845   40.4159 H   0  0  0  0  0  0  0  0  0  0  0  0
    0.2185   15.7867   39.2226 H   0  0  0  0  0  0  0  0  0  0  0  0
   -2.7703   18.8467   44.2728 H   0  0  0  0  0  0  0  0  0  0  0  0
   -2.9749   19.6745   42.6919 H   0  0  0  0  0  0  0  0  0  0  0  0
   -2.4549   17.9560   42.7451 H   0  0  0  0  0  0  0  0  0  0  0  0
    2.6081   17.7639   37.9451 H   0  0  0  0  0  0  0  0  0  0  0  0
    0.5336   19.7898   38.0705 H   0  0  0  0  0  0  0  0  0  0  0  0
    4.6041   22.0245   34.8795 H   0  0  0  0  0  0  0  0  0  0  0  0
    3.8252   20.5267   34.3627 H   0  0  0  0  0  0  0  0  0  0  0  0
    1.7347   22.1309   33.8021 H   0  0  0  0  0  0  0  0  0  0  0  0
    3.0492   23.4277   33.8379 H   0  0  0  0  0  0  0  0  0  0  0  0
    3.8224   21.3320   32.3211 H   0  0  0  0  0  0  0  0  0  0  0  0
    2.1684   21.8811   31.8508 H   0  0  0  0  0  0  0  0  0  0  0  0
    0.4694   20.7143   41.1352 H   0  0  0  0  0  0  0  0  0  0  0  0
    3.9410   24.0995   32.5414 H   0  0  0  0  0  0  0  0  0  0  0  0
    4.5691   23.1062   31.1829 H   0  0  0  0  0  0  0  0  0  0  0  0
    2.9282   23.8301   31.0826 H   0  0  0  0  0  0  0  0  0  0  0  0
    1.8917   15.7774   37.8371 H   0  0  0  0  0  0  0  0  0  0  0  0
    3.0587   15.3947   39.0961 H   0  0  0  0  0  0  0  0  0  0  0  0
  1 20  1  0
  2 18  1  0
  2 17  2  0
  3  9  1  0
  3  1  1  0
  5 13  1  0
  7  6  2  0
  7  5  1  0
  8  7  1  0
 11 18  1  0
 12 10  1  0
 12 22  2  0
 13  2  1  0
 14  8  1  0
 15 14  1  0
 16 15  1  0
 17  1  1  0
 18  3  1  0
 19 16  1  0
 20 12  1  0
 20  4  1  0
 21 11  1  0
 21  9  1  0
  1 23  1  1
  4 24  1  0
  4 25  1  0
  4 26  1  0
  5 27  1  0
  8 28  1  0
  9 29  1  0
  9 30  1  0
 10 31  1  0
 10 32  1  0
 10 33  1  0
 11 34  1  0
 13 35  1  0
 14 36  1  0
 14 37  1  0
 15 38  1  0
 15 39  1  0
 16 40  1  0
 16 41  1  0
 17 42  1  0
 19 43  1  0
 19 44  1  0
 19 45  1  0
 21 46  1  0
 21 47  1  0
M  END
>  <mol_id>  (60) 
2026-09-16-6tgu-s0-n100-0060

>  <rmsd_to_ref>  (60) 


$$$$

     RDKit          3D

 64 67  0  0  0  0  0  0  0  0999 V2000
    3.9284   16.8363   37.9652 C   0  0  0  0  0  0  0  0  0  0  0  0
    2.4414   21.0476   35.8312 C   0  0  0  0  0  0  0  0  0  0  0  0
    2.4723   24.4691   34.6187 C   0  0  0  0  0  0  0  0  0  0  0  0
    3.4372   19.6190   36.9809 N   0  0  0  0  0  0  0  0  0  0  0  0
    2.5321   25.3805   32.6508 C   0  0  0  0  0  0  0  0  0  0  0  0
    3.1397   17.7914   38.6611 C   0  0  0  0  0  0  0  0  0  0  0  0
    4.6155   14.5394   38.0131 O   0  0  0  0  0  0  0  0  0  0  0  0
    1.3148   27.2649   32.7398 N   0  0  0  0  0  0  0  0  0  0  0  0
    3.8761   15.5012   38.5351 C   0  0  0  0  0  0  0  0  0  0  0  0
    1.1944   27.5680   33.8148 C   0  0  0  0  0  0  0  0  0  0  0  0
    2.1461   16.1664   40.1169 C   0  0  0  0  0  0  0  0  0  0  0  0
    2.9196   13.8848   39.9487 O   0  0  0  0  0  0  0  0  0  0  0  0
    3.7294   22.5113   34.5961 C   0  0  0  0  0  0  0  0  0  0  0  0
    3.3533   20.5105   36.3252 C   0  0  1  0  0  0  0  0  0  0  0  0
    3.3174   24.6756   31.5491 C   0  0  0  0  0  0  0  0  0  0  0  0
   -0.6437   19.9229   42.1350 N   0  0  0  0  0  0  0  0  0  0  0  0
    2.1792   25.5312   33.9592 C   0  0  0  0  0  0  0  0  0  0  0  0
    0.9793   19.8171   40.2722 C   0  0  0  0  0  0  0  0  0  0  0  0
    1.9690   26.2835   30.9772 C   0  0  0  0  0  0  0  0  0  0  0  0
    1.1283   18.3159   40.4606 C   0  0  0  0  0  0  0  0  0  0  0  0
    2.5925   25.1941   30.3151 C   0  0  0  0  0  0  0  0  0  0  0  0
    3.5818   24.0605   34.2356 N   0  0  0  0  0  0  0  0  0  0  0  0
    2.9603   15.2415   39.4536 C   0  0  0  0  0  0  0  0  0  0  0  0
    0.2090   17.8791   41.4475 C   0  0  0  0  0  0  0  0  0  0  0  0
   -0.5994   18.5914   42.3006 C   0  0  0  0  0  0  0  0  0  0  0  0
    3.2105   19.1101   38.2470 C   0  0  0  0  0  0  0  0  0  0  0  0
    2.6021   22.0046   34.9376 C   0  0  0  0  0  0  0  0  0  0  0  0
    2.8085   13.6105   41.2769 C   0  0  0  0  0  0  0  0  0  0  0  0
    1.8031   26.3839   32.1851 C   0  0  0  0  0  0  0  0  0  0  0  0
    3.6306   14.0599   36.3905 O   0  0  0  0  0  0  0  0  0  0  0  0
    2.1197   17.4555   39.7701 C   0  0  0  0  0  0  0  0  0  0  0  0
    1.5980   26.5547   34.5249 N   0  0  0  0  0  0  0  0  0  0  0  0
    0.0720   20.4830   41.3147 C   0  0  0  0  0  0  0  0  0  0  0  0
    4.2837   20.1940   36.1844 O   0  0  0  0  0  0  0  0  0  0  0  0
    4.5248   17.0853   37.0751 H   0  0  0  0  0  0  0  0  0  0  0  0
    1.4228   20.7478   36.1183 H   0  0  0  0  0  0  0  0  0  0  0  0
    2.5125   24.6990   35.6936 H   0  0  0  0  0  0  0  0  0  0  0  0
    1.7073   23.6971   34.4490 H   0  0  0  0  0  0  0  0  0  0  0  0
    4.5843   13.6274   38.3970 H   0  0  0  0  0  0  0  0  0  0  0  0
    0.8121   28.5282   34.1916 H   0  0  0  0  0  0  0  0  0  0  0  0
    1.5107   15.8222   40.9463 H   0  0  0  0  0  0  0  0  0  0  0  0
    4.4386   22.4030   35.4300 H   0  0  0  0  0  0  0  0  0  0  0  0
    4.0941   21.9798   33.7049 H   0  0  0  0  0  0  0  0  0  0  0  0
    2.9897   21.5478   36.2847 H   0  0  0  0  0  0  0  0  0  0  0  0
    4.3767   24.9723   31.5522 H   0  0  0  0  0  0  0  0  0  0  0  0
    3.3462   23.5795   31.6368 H   0  0  0  0  0  0  0  0  0  0  0  0
    1.4759   20.3738   39.4638 H   0  0  0  0  0  0  0  0  0  0  0  0
    0.9620   26.3508   30.5396 H   0  0  0  0  0  0  0  0  0  0  0  0
    2.7314   27.0616   30.8240 H   0  0  0  0  0  0  0  0  0  0  0  0
    1.8704   24.4710   29.9078 H   0  0  0  0  0  0  0  0  0  0  0  0
    3.1997   25.4197   29.4261 H   0  0  0  0  0  0  0  0  0  0  0  0
    4.3261   24.5953   34.7057 H   0  0  0  0  0  0  0  0  0  0  0  0
    3.6618   24.1860   33.2164 H   0  0  0  0  0  0  0  0  0  0  0  0
    0.1295   16.7865   41.5472 H   0  0  0  0  0  0  0  0  0  0  0  0
   -1.1856   18.0916   43.0858 H   0  0  0  0  0  0  0  0  0  0  0  0
    4.0109   19.5460   38.8629 H   0  0  0  0  0  0  0  0  0  0  0  0
    2.1395   19.3504   38.3187 H   0  0  0  0  0  0  0  0  0  0  0  0
    1.6994   22.3984   34.4477 H   0  0  0  0  0  0  0  0  0  0  0  0
    1.9916   14.2080   41.7076 H   0  0  0  0  0  0  0  0  0  0  0  0
    2.5917   12.5408   41.4134 H   0  0  0  0  0  0  0  0  0  0  0  0
    3.7524   13.8609   41.7831 H   0  0  0  0  0  0  0  0  0  0  0  0
    3.2982   14.0911   37.3225 H   0  0  0  0  0  0  0  0  0  0  0  0
    3.6207   14.9721   36.0059 H   0  0  0  0  0  0  0  0  0  0  0  0
    0.0636   21.5829   41.3264 H   0  0  0  0  0  0  0  0  0  0  0  0
  1  9  2  0
  1  6  1  0
  4 26  1  0
  5 17  1  0
  6 31  2  0
  7  9  1  0
  8 10  2  0
  9 23  1  0
 10 32  1  0
 12 28  1  0
 13 27  1  0
 14  2  1  0
 14  4  1  0
 15  5  1  0
 16 25  2  0
 17  3  1  0
 17 32  2  0
 18 20  1  0
 18 33  2  0
 19 29  1  0
 20 24  2  0
 21 19  1  0
 21 15  1  0
 22 13  1  0
 22  3  1  0
 23 12  1  0
 23 11  2  0
 24 25  1  0
 26  6  1  0
 27  2  2  3
 29  5  2  0
 29  8  1  0
 31 11  1  0
 31 20  1  0
 33 16  1  0
 34 14  1  0
 34  4  1  0
  1 35  1  0
  2 36  1  0
  3 37  1  0
  3 38  1  0
  7 39  1  0
 10 40  1  0
 11 41  1  0
 13 42  1  0
 13 43  1  0
 14 44  1  1
 15 45  1  0
 15 46  1  0
 18 47  1  0
 19 48  1  0
 19 49  1  0
 21 50  1  0
 21 51  1  0
 22 52  1  0
 22 53  1  0
 24 54  1  0
 25 55  1  0
 26 56  1  0
 26 57  1  0
 27 58  1  0
 28 59  1  0
 28 60  1  0
 28 61  1  0
 30 62  1  0
 30 63  1  0
 33 64  1  0
M  CHG  1  22   1
M  END
>  <mol_id>  (61) 
2026-09-16-6tgu-s0-n100-0061

>  <rmsd_to_ref>  (61) 


$$$$

     RDKit          3D

 28 28  0  0  0  0  0  0  0  0999 V2000
    1.6240   17.2825   41.1709 C   0  0  0  0  0  0  0  0  0  0  0  0
    3.2419   16.0609   39.1385 C   0  0  0  0  0  0  0  0  0  0  0  0
    2.7262   22.0038   36.3892 O   0  0  0  0  0  0  0  0  0  0  0  0
    2.8506   17.3820   39.0099 C   0  0  0  0  0  0  0  0  0  0  0  0
    3.9762   19.9447   36.0253 C   0  0  0  0  0  0  0  0  0  0  0  0
    3.4995   21.3706   35.6806 C   0  0  0  0  0  0  0  0  0  0  0  0
    3.3021   18.0443   37.6971 C   0  0  0  0  0  0  0  0  0  0  0  0
    2.0744   18.0656   40.0350 C   0  0  0  0  0  0  0  0  0  0  0  0
    4.4062   23.4973   34.7011 C   0  0  0  0  0  0  0  0  0  0  0  0
    3.4176   19.5998   37.4103 C   0  0  0  0  0  0  0  0  0  0  0  0
    2.8104   15.3185   40.2293 C   0  0  0  0  0  0  0  0  0  0  0  0
    4.1890   21.9257   34.5684 N   0  0  0  0  0  0  0  0  0  0  0  0
    2.0056   15.9551   41.2690 C   0  0  0  0  0  0  0  0  0  0  0  0
    0.9875   17.7377   41.9441 H   0  0  0  0  0  0  0  0  0  0  0  0
    3.8919   15.6010   38.3796 H   0  0  0  0  0  0  0  0  0  0  0  0
    5.0755   19.9094   36.0432 H   0  0  0  0  0  0  0  0  0  0  0  0
    3.6240   19.2239   35.2727 H   0  0  0  0  0  0  0  0  0  0  0  0
    4.3092   17.6443   37.5080 H   0  0  0  0  0  0  0  0  0  0  0  0
    2.4301   17.8100   37.0687 H   0  0  0  0  0  0  0  0  0  0  0  0
    1.8381   19.1367   39.9514 H   0  0  0  0  0  0  0  0  0  0  0  0
    4.5758   23.7561   35.7567 H   0  0  0  0  0  0  0  0  0  0  0  0
    5.2801   23.7984   34.1048 H   0  0  0  0  0  0  0  0  0  0  0  0
    3.5127   24.0232   34.3336 H   0  0  0  0  0  0  0  0  0  0  0  0
    4.0800   20.0419   38.1691 H   0  0  0  0  0  0  0  0  0  0  0  0
    2.3955   20.0044   37.4481 H   0  0  0  0  0  0  0  0  0  0  0  0
    3.0739   14.2536   40.3106 H   0  0  0  0  0  0  0  0  0  0  0  0
    4.5133   21.3710   33.7634 H   0  0  0  0  0  0  0  0  0  0  0  0
    1.6968   15.3685   42.1467 H   0  0  0  0  0  0  0  0  0  0  0  0
  1 13  2  0
  2 11  2  0
  4  2  1  0
  4  8  2  0
  5 10  1  0
  6  3  2  0
  6  5  1  0
  7  4  1  0
  8  1  1  0
  9 12  1  0
 10  7  1  0
 11 13  1  0
 12  6  1  0
  1 14  1  0
  2 15  1  0
  5 16  1  0
  5 17  1  0
  7 18  1  0
  7 19  1  0
  8 20  1  0
  9 21  1  0
  9 22  1  0
  9 23  1  0
 10 24  1  0
 10 25  1  0
 11 26  1  0
 12 27  1  0
 13 28  1  0
M  END
>  <mol_id>  (62) 
2026-09-16-6tgu-s0-n100-0062

>  <rmsd_to_ref>  (62) 


$$$$

     RDKit          3D

 51 51  0  0  0  0  0  0  0  0999 V2000
    1.0811   19.4473   42.6574 C   0  0  0  0  0  0  0  0  0  0  0  0
    2.5780   21.0071   36.9571 C   0  0  2  0  0  0  0  0  0  0  0  0
    2.2517   13.3001   39.1788 C   0  0  0  0  0  0  0  0  0  0  0  0
    1.0250   20.3390   41.8204 O   0  0  0  0  0  0  0  0  0  0  0  0
    1.6821   23.0388   35.1970 O   0  0  0  0  0  0  0  0  0  0  0  0
    3.0017   19.8594   37.7329 C   0  0  0  0  0  0  0  0  0  0  0  0
    0.6346   19.7929   43.8884 N   0  0  0  0  0  0  0  0  0  0  0  0
    2.2487   17.2176   41.5918 C   0  0  0  0  0  0  0  0  0  0  0  0
    3.2671   15.1648   41.1476 O   0  0  0  0  0  0  0  0  0  0  0  0
    2.9756   17.4467   40.3677 C   0  0  0  0  0  0  0  0  0  0  0  0
    2.5852   19.6384   39.0507 C   0  0  0  0  0  0  0  0  0  0  0  0
    1.7112   15.1679   42.8871 O   0  0  0  0  0  0  0  0  0  0  0  0
    2.3107   12.2218   38.6781 O   0  0  0  0  0  0  0  0  0  0  0  0
    2.3058   15.7456   42.0482 C   0  0  0  0  0  0  0  0  0  0  0  0
    2.6414   18.2230   39.5532 C   0  0  0  0  0  0  0  0  0  0  0  0
    1.3918   21.7552   37.2626 C   0  0  0  0  0  0  0  0  0  0  0  0
    2.3358   21.9673   34.5743 C   0  0  2  0  0  0  0  0  0  0  0  0
    3.8756   11.9549   40.0415 O   0  0  0  0  0  0  0  0  0  0  0  0
    1.7263   23.1276   36.6134 C   0  0  0  0  0  0  0  0  0  0  0  0
    3.2963   13.1333   39.7390 C   0  0  2  0  0  0  0  0  0  0  0  0
    3.1812   21.1906   35.5621 C   0  0  0  0  0  0  0  0  0  0  0  0
    1.4570   14.2783   39.0120 F   0  0  0  0  0  0  0  0  0  0  0  0
    3.0631   22.3520   33.3378 C   0  0  0  0  0  0  0  0  0  0  0  0
    3.5908   13.8317   41.0624 C   0  0  0  0  0  0  0  0  0  0  0  0
    1.4724   18.0647   42.4309 C   0  0  0  0  0  0  0  0  0  0  0  0
    3.1643   21.6404   37.6392 H   0  0  0  0  0  0  0  0  0  0  0  0
    2.6864   18.9736   37.1620 H   0  0  0  0  0  0  0  0  0  0  0  0
    4.0729   20.0682   37.8710 H   0  0  0  0  0  0  0  0  0  0  0  0
    0.6461   19.1029   44.6530 H   0  0  0  0  0  0  0  0  0  0  0  0
    0.2833   20.7459   44.0600 H   0  0  0  0  0  0  0  0  0  0  0  0
    3.9895   17.7465   40.6712 H   0  0  0  0  0  0  0  0  0  0  0  0
    2.8125   16.4959   39.8390 H   0  0  0  0  0  0  0  0  0  0  0  0
    3.2216   20.2497   39.7074 H   0  0  0  0  0  0  0  0  0  0  0  0
    1.5179   19.9047   39.0627 H   0  0  0  0  0  0  0  0  0  0  0  0
    1.5635   18.0038   39.5493 H   0  0  0  0  0  0  0  0  0  0  0  0
    3.6260   18.1140   39.0748 H   0  0  0  0  0  0  0  0  0  0  0  0
    0.4997   21.3003   36.8074 H   0  0  0  0  0  0  0  0  0  0  0  0
    1.1549   21.8085   38.3355 H   0  0  0  0  0  0  0  0  0  0  0  0
    1.5537   21.2801   34.2190 H   0  0  0  0  0  0  0  0  0  0  0  0
    3.9479   11.8655   41.0248 H   0  0  0  0  0  0  0  0  0  0  0  0
    2.7349   23.4374   36.9241 H   0  0  0  0  0  0  0  0  0  0  0  0
    0.9804   23.8654   36.9440 H   0  0  0  0  0  0  0  0  0  0  0  0
    3.6739   13.5527   38.7948 H   0  0  0  0  0  0  0  0  0  0  0  0
    3.3623   20.1916   35.1388 H   0  0  0  0  0  0  0  0  0  0  0  0
    4.0936   21.7876   35.7077 H   0  0  0  0  0  0  0  0  0  0  0  0
    3.9853   22.8881   33.6067 H   0  0  0  0  0  0  0  0  0  0  0  0
    3.3182   21.4476   32.7660 H   0  0  0  0  0  0  0  0  0  0  0  0
    2.4246   23.0053   32.7250 H   0  0  0  0  0  0  0  0  0  0  0  0
    3.0318   13.3031   41.8486 H   0  0  0  0  0  0  0  0  0  0  0  0
    4.6850   13.7949   41.1687 H   0  0  0  0  0  0  0  0  0  0  0  0
    0.9859   17.4400   43.1945 H   0  0  0  0  0  0  0  0  0  0  0  0
  1  7  1  0
  2 16  1  0
  2  6  1  0
  3 20  1  0
  4  1  2  0
  5 19  1  0
  6 11  1  0
  8 14  1  0
  8 25  2  3
  9 14  1  0
 10  8  1  0
 11 15  1  0
 13  3  2  0
 14 12  2  0
 15 10  1  0
 17 23  1  0
 17  5  1  0
 17 21  1  0
 19 16  1  0
 20 18  1  0
 20 24  1  0
 21  2  1  0
 22  3  1  0
 24  9  1  0
 25  1  1  0
  2 26  1  1
  6 27  1  0
  6 28  1  0
  7 29  1  0
  7 30  1  0
 10 31  1  0
 10 32  1  0
 11 33  1  0
 11 34  1  0
 15 35  1  0
 15 36  1  0
 16 37  1  0
 16 38  1  0
 17 39  1  6
 18 40  1  0
 19 41  1  0
 19 42  1  0
 20 43  1  6
 21 44  1  0
 21 45  1  0
 23 46  1  0
 23 47  1  0
 23 48  1  0
 24 49  1  0
 24 50  1  0
 25 51  1  0
M  END
>  <mol_id>  (63) 
2026-09-16-6tgu-s0-n100-0063

>  <rmsd_to_ref>  (63) 


$$$$

     RDKit          3D

 50 51  0  0  0  0  0  0  0  0999 V2000
    2.4013   15.5942   38.4292 C   0  0  0  0  0  0  0  0  0  0  0  0
    1.3870   14.8492   38.7181 N   0  0  0  0  0  0  0  0  0  0  0  0
    0.2447   14.6401   37.8774 C   0  0  0  0  0  0  0  0  0  0  0  0
    1.9332   23.8397   34.5899 C   0  0  0  0  0  0  0  0  0  0  0  0
    2.8952   20.5398   35.6403 C   0  0  0  0  0  0  0  0  0  0  0  0
    1.5552   22.7242   35.4101 C   0  0  0  0  0  0  0  0  0  0  0  0
    1.9978   28.2320   31.6910 C   0  0  0  0  0  0  0  0  0  0  0  0
    1.4147   27.3220   33.7488 C   0  0  0  0  0  0  0  0  0  0  0  0
    1.5851   25.8568   33.4246 C   0  0  0  0  0  0  0  0  0  0  0  0
    0.8993   26.2519   30.9870 C   0  0  0  0  0  0  0  0  0  0  0  0
    2.4159   19.6144   36.7241 O   0  0  0  0  0  0  0  0  0  0  0  0
    2.1648   24.9382   34.3608 C   0  0  0  0  0  0  0  0  0  0  0  0
    3.8583   16.3496   38.5770 C   0  0  0  0  0  0  0  0  0  0  0  0
    2.7361   18.3256   36.7341 C   0  0  0  0  0  0  0  0  0  0  0  0
    0.9255   25.5268   32.1601 C   0  0  0  0  0  0  0  0  0  0  0  0
    1.5865   28.4620   32.9112 C   0  0  0  0  0  0  0  0  0  0  0  0
    5.4453   19.7395   39.2335 C   0  0  0  0  0  0  0  0  0  0  0  0
    4.5282   17.7316   38.3675 C   0  0  0  0  0  0  0  0  0  0  0  0
    0.2011   13.9445   36.5320 O   0  0  0  0  0  0  0  0  0  0  0  0
    2.7585   22.0178   36.0402 C   0  0  0  0  0  0  0  0  0  0  0  0
    4.1142   18.0705   37.0979 O   0  0  0  0  0  0  0  0  0  0  0  0
    2.1938   17.2875   36.1112 C   0  0  0  0  0  0  0  0  0  0  0  0
    2.0833   15.9810   36.8045 C   0  0  0  0  0  0  0  0  0  0  0  0
    1.5469   27.3863   30.7732 C   0  0  0  0  0  0  0  0  0  0  0  0
    5.2012   18.2681   39.2628 O   0  0  0  0  0  0  0  0  0  0  0  0
   -0.7813   14.8002   38.3197 O   0  0  0  0  0  0  0  0  0  0  0  0
    1.3997   14.3653   39.6273 H   0  0  0  0  0  0  0  0  0  0  0  0
    2.8886   23.4258   34.2352 H   0  0  0  0  0  0  0  0  0  0  0  0
    0.8658   24.0972   34.5252 H   0  0  0  0  0  0  0  0  0  0  0  0
    3.9538   20.3249   35.4327 H   0  0  0  0  0  0  0  0  0  0  0  0
    2.2717   20.3705   34.7500 H   0  0  0  0  0  0  0  0  0  0  0  0
    0.8987   23.0861   36.2151 H   0  0  0  0  0  0  0  0  0  0  0  0
    1.0439   21.9955   34.7638 H   0  0  0  0  0  0  0  0  0  0  0  0
    2.8585   28.8390   31.3737 H   0  0  0  0  0  0  0  0  0  0  0  0
    1.1136   27.5415   34.7837 H   0  0  0  0  0  0  0  0  0  0  0  0
    0.2902   25.8548   30.1616 H   0  0  0  0  0  0  0  0  0  0  0  0
    3.2311   24.9291   34.0907 H   0  0  0  0  0  0  0  0  0  0  0  0
    1.6963   25.3598   35.2623 H   0  0  0  0  0  0  0  0  0  0  0  0
    4.6057   15.6334   38.9490 H   0  0  0  0  0  0  0  0  0  0  0  0
    0.3775   24.5731   32.1432 H   0  0  0  0  0  0  0  0  0  0  0  0
    2.3220   29.1231   33.3930 H   0  0  0  0  0  0  0  0  0  0  0  0
    0.5825   28.8984   32.8031 H   0  0  0  0  0  0  0  0  0  0  0  0
    6.4081   19.9613   39.7171 H   0  0  0  0  0  0  0  0  0  0  0  0
    5.4707   20.0863   38.1898 H   0  0  0  0  0  0  0  0  0  0  0  0
    4.6369   20.2561   39.7717 H   0  0  0  0  0  0  0  0  0  0  0  0
    3.6718   22.5462   35.7291 H   0  0  0  0  0  0  0  0  0  0  0  0
    2.6065   22.0403   37.1294 H   0  0  0  0  0  0  0  0  0  0  0  0
    1.8260   17.3956   35.0802 H   0  0  0  0  0  0  0  0  0  0  0  0
    1.7475   15.1419   36.1775 H   0  0  0  0  0  0  0  0  0  0  0  0
    1.7310   27.6567   29.7229 H   0  0  0  0  0  0  0  0  0  0  0  0
  1 13  1  0
  2  1  1  0
  3  2  1  0
  4  6  1  0
  5 11  1  0
  6 20  1  0
  7 16  1  0
  8  9  2  0
  9 12  1  0
 10 24  1  0
 10 15  2  0
 11 14  1  0
 12  4  1  0
 13 18  2  0
 14 21  1  0
 15  9  1  0
 16  8  1  0
 17 25  1  0
 18 25  1  0
 19  3  1  0
 20  5  1  0
 21 18  1  0
 22 14  2  0
 22 23  1  0
 23  1  2  0
 24  7  2  0
 26  3  2  0
  2 27  1  0
  4 28  1  0
  4 29  1  0
  5 30  1  0
  5 31  1  0
  6 32  1  0
  6 33  1  0
  7 34  1  0
  8 35  1  0
 10 36  1  0
 12 37  1  0
 12 38  1  0
 13 39  1  0
 15 40  1  0
 16 41  1  0
 16 42  1  0
 17 43  1  0
 17 44  1  0
 17 45  1  0
 20 46  1  0
 20 47  1  0
 22 48  1  0
 23 49  1  0
 24 50  1  0
M  CHG  1  19  -1
M  END
>  <mol_id>  (64) 
2026-09-16-6tgu-s0-n100-0064

>  <rmsd_to_ref>  (64) 


$$$$

     RDKit          3D

 74 77  0  0  0  0  0  0  0  0999 V2000
    3.7080   24.5510   32.5580 C   0  0  0  0  0  0  0  0  0  0  0  0
    2.3570   14.7620   40.4320 C   0  0  2  0  0  0  0  0  0  0  0  0
    1.8170   13.6230   42.4650 O   0  0  0  0  0  0  0  0  0  0  0  0
    2.1950   19.3500   40.1400 C   0  0  0  0  0  0  0  0  0  0  0  0
    2.9460   18.4580   39.5980 N   0  0  0  0  0  0  0  0  0  0  0  0
    3.2040   23.4380   33.4820 C   0  0  0  0  0  0  0  0  0  0  0  0
    1.1500   21.1430   41.2320 C   0  0  0  0  0  0  0  0  0  0  0  0
    2.5450   12.5160   40.7390 O   0  0  0  0  0  0  0  0  0  0  0  0
    4.9860   22.9180   31.3090 O   0  0  0  0  0  0  0  0  0  0  0  0
    3.0070   15.9250   38.6260 C   0  0  2  0  0  0  0  0  0  0  0  0
    3.6320   19.6270   36.7410 N   0  0  0  0  0  0  0  0  0  0  0  0
    3.1040   24.5830   29.7970 S   0  0  1  0  0  4  0  0  0  0  0  0
    2.1160   14.9490   36.5910 N   0  0  0  0  0  0  0  0  0  0  0  0
    2.6340   16.1760   37.1720 C   0  0  2  0  0  0  0  0  0  0  0  0
    2.1710   25.7290   30.4520 C   0  0  0  0  0  0  0  0  0  0  0  0
    5.4950   24.0080   28.6550 C   0  0  0  0  0  0  0  0  0  0  0  0
    3.9440   22.2280   33.1340 O   0  0  0  0  0  0  0  0  0  0  0  0
    5.2340   22.6610   32.6320 C   0  0  0  0  0  0  0  0  0  0  0  0
    2.0130   23.3950   29.4940 C   0  0  0  0  0  0  0  0  0  0  0  0
    2.8690   20.7490   37.1180 C   0  0  0  0  0  0  0  0  0  0  0  0
    1.6270   16.0800   40.9750 C   0  0  0  0  0  0  0  0  0  0  0  0
    1.4530   19.7210   41.2990 C   0  0  0  0  0  0  0  0  0  0  0  0
    4.1860   23.3710   28.8570 C   0  0  2  0  0  0  0  0  0  0  0  0
    2.2200   20.4110   39.2460 C   0  0  0  0  0  0  0  0  0  0  0  0
    0.5660   21.7020   42.2430 N   0  0  0  0  0  0  0  0  0  0  0  0
    2.7820   22.8160   28.2770 C   0  0  0  0  0  0  0  0  0  0  0  0
    3.9810   16.5180   37.6440 N   0  0  0  0  0  0  0  0  0  0  0  0
    3.4030   19.0000   38.0970 C   0  0  2  0  0  0  0  0  0  0  0  0
    1.5610   21.6670   39.9260 S   0  0  0  0  0  0  0  0  0  0  0  0
    2.9250   20.2590   38.1580 C   0  0  1  0  0  0  0  0  0  0  0  0
    2.2810   13.5520   41.1960 C   0  0  0  0  0  0  0  0  0  0  0  0
    4.0530   23.9810   31.2020 C   0  0  1  0  0  0  0  0  0  0  0  0
    3.3940   14.6010   39.2820 C   0  0  0  0  0  0  0  0  0  0  0  0
    2.9228   25.3129   32.4437 H   0  0  0  0  0  0  0  0  0  0  0  0
    4.6080   25.0054   32.9980 H   0  0  0  0  0  0  0  0  0  0  0  0
    1.6396   15.3314   39.8228 H   0  0  0  0  0  0  0  0  0  0  0  0
    3.2178   17.5600   40.0229 H   0  0  0  0  0  0  0  0  0  0  0  0
    3.3899   23.7058   34.5326 H   0  0  0  0  0  0  0  0  0  0  0  0
    2.1215   23.2856   33.3596 H   0  0  0  0  0  0  0  0  0  0  0  0
    2.4857   16.1698   39.5632 H   0  0  0  0  0  0  0  0  0  0  0  0
    3.2302   19.0910   35.9586 H   0  0  0  0  0  0  0  0  0  0  0  0
    4.5899   19.7494   36.3827 H   0  0  0  0  0  0  0  0  0  0  0  0
    1.8426   14.3014   37.3438 H   0  0  0  0  0  0  0  0  0  0  0  0
    1.2943   15.1650   36.0087 H   0  0  0  0  0  0  0  0  0  0  0  0
    2.8439   14.5109   36.0087 H   0  0  0  0  0  0  0  0  0  0  0  0
    2.0103   16.7765   36.4935 H   0  0  0  0  0  0  0  0  0  0  0  0
    2.2247   25.6631   31.5487 H   0  0  0  0  0  0  0  0  0  0  0  0
    2.5232   26.7190   30.1265 H   0  0  0  0  0  0  0  0  0  0  0  0
    1.1302   25.5849   30.1265 H   0  0  0  0  0  0  0  0  0  0  0  0
    5.9497   24.2293   29.6319 H   0  0  0  0  0  0  0  0  0  0  0  0
    6.1505   23.3281   28.0910 H   0  0  0  0  0  0  0  0  0  0  0  0
    5.3645   24.9433   28.0910 H   0  0  0  0  0  0  0  0  0  0  0  0
    5.9876   21.8677   32.7450 H   0  0  0  0  0  0  0  0  0  0  0  0
    5.6367   23.5307   33.1719 H   0  0  0  0  0  0  0  0  0  0  0  0
    1.9178   22.6778   30.3226 H   0  0  0  0  0  0  0  0  0  0  0  0
    0.9638   23.6894   29.3439 H   0  0  0  0  0  0  0  0  0  0  0  0
    3.3736   21.7218   37.0223 H   0  0  0  0  0  0  0  0  0  0  0  0
    1.9318   21.0510   36.6277 H   0  0  0  0  0  0  0  0  0  0  0  0
    1.6302   16.0742   42.0750 H   0  0  0  0  0  0  0  0  0  0  0  0
    2.1604   16.9707   40.6115 H   0  0  0  0  0  0  0  0  0  0  0  0
    0.5890   16.1004   40.6115 H   0  0  0  0  0  0  0  0  0  0  0  0
    1.1572   19.0423   42.1126 H   0  0  0  0  0  0  0  0  0  0  0  0
    4.8475   22.4921   28.8514 H   0  0  0  0  0  0  0  0  0  0  0  0
    0.3421   22.7070   42.2174 H   0  0  0  0  0  0  0  0  0  0  0  0
    0.3252   21.1417   43.0731 H   0  0  0  0  0  0  0  0  0  0  0  0
    2.4914   23.2622   27.3145 H   0  0  0  0  0  0  0  0  0  0  0  0
    2.6792   21.7508   28.0226 H   0  0  0  0  0  0  0  0  0  0  0  0
    4.7893   15.9633   37.3278 H   0  0  0  0  0  0  0  0  0  0  0  0
    4.5539   17.3738   37.6264 H   0  0  0  0  0  0  0  0  0  0  0  0
    4.3886   19.3581   38.4290 H   0  0  0  0  0  0  0  0  0  0  0  0
    3.4722   21.1744   38.4274 H   0  0  0  0  0  0  0  0  0  0  0  0
    4.5457   24.1698   30.2368 H   0  0  0  0  0  0  0  0  0  0  0  0
    3.2036   13.7261   38.6430 H   0  0  0  0  0  0  0  0  0  0  0  0
    4.4488   14.4322   39.5443 H   0  0  0  0  0  0  0  0  0  0  0  0
  1  6  1  0
  2 21  1  0
  2 31  1  0
  4 22  1  0
  5  4  1  0
  7 22  2  0
  7 25  1  0
  8 31  2  0
  9 18  1  0
 10 33  1  0
 11 20  1  0
 12 15  1  0
 12 32  1  0
 14 13  1  0
 14 27  1  0
 14 10  1  0
 17  6  1  0
 18 17  1  0
 19 12  1  0
 23 16  1  0
 23 12  1  0
 24 29  1  0
 24  4  2  0
 26 23  1  0
 26 19  1  0
 27 10  1  0
 28 11  1  0
 28 30  1  0
 28  5  1  0
 29  7  1  0
 30 20  1  0
 30 24  1  0
 31  3  1  0
 32  9  1  0
 32  1  1  0
 33  2  1  0
  1 34  1  0
  1 35  1  0
  2 36  1  6
  5 37  1  0
  6 38  1  0
  6 39  1  0
 10 40  1  1
 11 41  1  0
 11 42  1  0
 13 43  1  0
 13 44  1  0
 13 45  1  0
 14 46  1  1
 15 47  1  0
 15 48  1  0
 15 49  1  0
 16 50  1  0
 16 51  1  0
 16 52  1  0
 18 53  1  0
 18 54  1  0
 19 55  1  0
 19 56  1  0
 20 57  1  0
 20 58  1  0
 21 59  1  0
 21 60  1  0
 21 61  1  0
 22 62  1  0
 23 63  1  1
 25 64  1  0
 25 65  1  0
 26 66  1  0
 26 67  1  0
 27 68  1  0
 27 69  1  0
 28 70  1  1
 30 71  1  1
 32 72  1  6
 33 73  1  0
 33 74  1  0
M  CHG  4   3  -1  11   1  13   1  27   1
M  END
>  <mol_id>  (65) 
2026-09-16-6tgu-s0-n100-0065

>  <rmsd_to_ref>  (65) 


$$$$

     RDKit          3D

 60 61  0  0  0  0  0  0  0  0999 V2000
   -0.6003   18.1220   42.9922 C   0  0  2  0  0  0  0  0  0  0  0  0
    0.6580   25.5080   32.5053 C   0  0  0  0  0  0  0  0  0  0  0  0
    2.1316   22.8804   34.9741 C   0  0  0  0  0  0  0  0  0  0  0  0
    2.4964   26.1362   30.9745 C   0  0  0  0  0  0  0  0  0  0  0  0
    1.3477   19.9336   39.4750 C   0  0  0  0  0  0  0  0  0  0  0  0
    2.9131   24.1892   33.1442 C   0  0  0  0  0  0  0  0  0  0  0  0
    2.9826   18.7992   37.8009 C   0  0  0  0  0  0  0  0  0  0  0  0
    0.6636   25.2062   30.2114 F   0  0  0  0  0  0  0  0  0  0  0  0
    2.7725   22.7364   33.8087 N   0  0  0  0  0  0  0  0  0  0  0  0
    2.3135   18.9089   39.2373 N   0  0  0  0  0  0  0  0  0  0  0  0
    1.2981   18.5414   41.3246 C   0  0  1  0  0  0  0  0  0  0  0  0
    2.6654   22.1237   36.0461 C   0  0  0  0  0  0  0  0  0  0  0  0
    2.8041   20.0048   37.2823 C   0  0  0  0  0  0  0  0  0  0  0  0
    2.8118   20.9505   36.5531 C   0  0  0  0  0  0  0  0  0  0  0  0
    0.5085   16.1765   42.0872 C   0  0  0  0  0  0  0  0  0  0  0  0
    2.4984   18.1404   40.4017 C   0  0  0  0  0  0  0  0  0  0  0  0
   -0.8902   15.9921   44.0818 C   0  0  0  0  0  0  0  0  0  0  0  0
   -0.7034   19.5077   43.1390 O   0  0  0  0  0  0  0  0  0  0  0  0
    2.8645   26.6929   29.6289 C   0  0  0  0  0  0  0  0  0  0  0  0
   -0.1877   15.3049   43.1009 C   0  0  0  0  0  0  0  0  0  0  0  0
    1.2106   25.6541   31.2028 C   0  0  1  0  0  0  0  0  0  0  0  0
    3.5174   17.3780   40.6936 O   0  0  0  0  0  0  0  0  0  0  0  0
    1.7221   24.9085   33.6026 C   0  0  0  0  0  0  0  0  0  0  0  0
   -1.3952   17.3704   43.8392 C   0  0  0  0  0  0  0  0  0  0  0  0
    0.6674   19.5977   40.5691 C   0  0  0  0  0  0  0  0  0  0  0  0
    0.3826   17.4993   42.1466 C   0  0  0  0  0  0  0  0  0  0  0  0
   -0.8859   17.9952   41.9376 H   0  0  0  0  0  0  0  0  0  0  0  0
   -0.2019   24.8249   32.4444 H   0  0  0  0  0  0  0  0  0  0  0  0
    0.3685   26.5119   32.8493 H   0  0  0  0  0  0  0  0  0  0  0  0
    1.0849   22.5752   34.8284 H   0  0  0  0  0  0  0  0  0  0  0  0
    2.2417   23.9374   35.2579 H   0  0  0  0  0  0  0  0  0  0  0  0
    2.6690   26.9382   31.7074 H   0  0  0  0  0  0  0  0  0  0  0  0
    3.1210   25.2342   31.0531 H   0  0  0  0  0  0  0  0  0  0  0  0
    0.6640   20.0112   38.6168 H   0  0  0  0  0  0  0  0  0  0  0  0
    1.8417   20.9071   39.6100 H   0  0  0  0  0  0  0  0  0  0  0  0
    2.9273   24.1169   32.0467 H   0  0  0  0  0  0  0  0  0  0  0  0
    3.8475   24.6950   33.4289 H   0  0  0  0  0  0  0  0  0  0  0  0
    4.0535   18.5617   37.8834 H   0  0  0  0  0  0  0  0  0  0  0  0
    2.5453   17.9995   37.1851 H   0  0  0  0  0  0  0  0  0  0  0  0
    2.2335   22.1172   33.1865 H   0  0  0  0  0  0  0  0  0  0  0  0
    3.7015   22.3176   33.9582 H   0  0  0  0  0  0  0  0  0  0  0  0
    1.6893   18.8214   42.3139 H   0  0  0  0  0  0  0  0  0  0  0  0
    3.7192   22.4331   35.9857 H   0  0  0  0  0  0  0  0  0  0  0  0
    1.7291   22.2536   36.6086 H   0  0  0  0  0  0  0  0  0  0  0  0
    1.1215   15.7179   41.2972 H   0  0  0  0  0  0  0  0  0  0  0  0
   -1.7680   15.3762   44.3273 H   0  0  0  0  0  0  0  0  0  0  0  0
   -0.1292   16.1470   44.8608 H   0  0  0  0  0  0  0  0  0  0  0  0
   -0.7774   19.7331   44.1001 H   0  0  0  0  0  0  0  0  0  0  0  0
    3.7797   27.2964   29.7196 H   0  0  0  0  0  0  0  0  0  0  0  0
    3.0391   25.8657   28.9251 H   0  0  0  0  0  0  0  0  0  0  0  0
    2.0443   27.3242   29.2564 H   0  0  0  0  0  0  0  0  0  0  0  0
   -0.8962   14.6568   42.5644 H   0  0  0  0  0  0  0  0  0  0  0  0
    0.6044   14.7482   43.6232 H   0  0  0  0  0  0  0  0  0  0  0  0
    0.6324   26.4901   31.6235 H   0  0  0  0  0  0  0  0  0  0  0  0
    2.0756   25.7605   34.2019 H   0  0  0  0  0  0  0  0  0  0  0  0
    1.1410   24.1335   34.1239 H   0  0  0  0  0  0  0  0  0  0  0  0
   -1.4579   17.8906   44.8064 H   0  0  0  0  0  0  0  0  0  0  0  0
   -2.3741   17.2679   43.3480 H   0  0  0  0  0  0  0  0  0  0  0  0
    0.5798   20.4850   41.2134 H   0  0  0  0  0  0  0  0  0  0  0  0
   -0.3159   19.2270   40.2439 H   0  0  0  0  0  0  0  0  0  0  0  0
  1 18  1  0
  1 24  1  0
  2 23  1  0
  3 12  1  0
  4 21  1  0
  5 25  1  0
  6 23  1  0
  6  9  1  0
  7 10  1  0
  9  3  1  0
 10  5  1  0
 10 16  1  0
 11 26  1  0
 12 14  1  0
 13  7  1  0
 14 13  3  0
 15 20  1  0
 16 22  2  0
 16 11  1  0
 19  4  1  0
 20 17  1  0
 21  8  1  0
 21  2  1  0
 24 17  1  0
 25 11  1  0
 26 15  2  0
 26  1  1  0
  1 27  1  6
  2 28  1  0
  2 29  1  0
  3 30  1  0
  3 31  1  0
  4 32  1  0
  4 33  1  0
  5 34  1  0
  5 35  1  0
  6 36  1  0
  6 37  1  0
  7 38  1  0
  7 39  1  0
  9 40  1  0
  9 41  1  0
 11 42  1  1
 12 43  1  0
 12 44  1  0
 15 45  1  0
 17 46  1  0
 17 47  1  0
 18 48  1  0
 19 49  1  0
 19 50  1  0
 19 51  1  0
 20 52  1  0
 20 53  1  0
 21 54  1  6
 23 55  1  0
 23 56  1  0
 24 57  1  0
 24 58  1  0
 25 59  1  0
 25 60  1  0
M  CHG  1   9   1
M  END
>  <mol_id>  (66) 
2026-09-16-6tgu-s0-n100-0066

>  <rmsd_to_ref>  (66) 


$$$$

     RDKit          3D

 58 60  0  0  0  0  0  0  0  0999 V2000
    6.1938   24.7637   32.1958 N   0  0  0  0  0  0  0  0  0  0  0  0
    2.8114   13.3475   39.4241 O   0  0  0  0  0  0  0  0  0  0  0  0
    5.3166   23.2774   30.7984 C   0  0  0  0  0  0  0  0  0  0  0  0
   -0.8495   16.7012   43.7365 C   0  0  0  0  0  0  0  0  0  0  0  0
    2.3808   13.7561   40.6238 C   0  0  0  0  0  0  0  0  0  0  0  0
    3.5311   17.2975   40.8688 C   0  0  0  0  0  0  0  0  0  0  0  0
    0.9665   15.6726   42.8340 C   0  0  0  0  0  0  0  0  0  0  0  0
    2.0876   19.0891   41.5140 O   0  0  0  0  0  0  0  0  0  0  0  0
   -0.1935   15.5738   43.7309 C   0  0  0  0  0  0  0  0  0  0  0  0
    4.7074   23.3142   33.6306 C   0  0  2  0  0  0  0  0  0  0  0  0
    1.6839   14.4940   42.5044 N   0  0  0  0  0  0  0  0  0  0  0  0
    2.3055   17.9175   41.5426 C   0  0  0  0  0  0  0  0  0  0  0  0
    3.8138   18.6625   38.8350 C   0  0  0  0  0  0  0  0  0  0  0  0
    3.5019   17.5044   39.2683 C   0  0  0  0  0  0  0  0  0  0  0  0
    1.7045   13.6577   41.8712 O   0  0  0  0  0  0  0  0  0  0  0  0
    3.1318   19.7419   38.2849 C   0  0  0  0  0  0  0  0  0  0  0  0
    3.6608   24.9678   31.7378 C   0  0  0  0  0  0  0  0  0  0  0  0
    6.9717   24.4791   32.6706 F   0  0  0  0  0  0  0  0  0  0  0  0
    3.0635   14.5936   40.2118 O   0  0  0  0  0  0  0  0  0  0  0  0
    3.8666   23.3110   34.4853 C   0  0  1  0  0  0  0  0  0  0  0  0
    5.0287   23.8357   32.0935 C   0  0  0  0  0  0  0  0  0  0  0  0
    1.1927   17.0695   42.3400 C   0  0  1  0  0  0  0  0  0  0  0  0
   -2.0878   16.8280   44.1779 O   0  0  0  0  0  0  0  0  0  0  0  0
    3.4371   22.6635   33.5933 C   0  0  0  0  0  0  0  0  0  0  0  0
    3.8782   20.4192   37.2037 C   0  0  2  0  0  0  0  0  0  0  0  0
    3.7208   21.3739   36.0283 C   0  0  0  0  0  0  0  0  0  0  0  0
   -0.0575   18.0683   42.9347 S   0  0  0  0  0  0  0  0  0  0  0  0
    3.7769   22.6997   35.9068 C   0  0  0  0  0  0  0  0  0  0  0  0
    4.6684   19.3641   36.6223 C   0  0  0  0  0  0  0  0  0  0  0  0
    6.4905   24.9828   31.2342 H   0  0  0  0  0  0  0  0  0  0  0  0
    5.5345   22.2042   30.9019 H   0  0  0  0  0  0  0  0  0  0  0  0
    4.4466   23.4129   30.1390 H   0  0  0  0  0  0  0  0  0  0  0  0
    6.1887   23.7885   30.3644 H   0  0  0  0  0  0  0  0  0  0  0  0
    1.4670   14.1556   40.1598 H   0  0  0  0  0  0  0  0  0  0  0  0
    4.4378   17.7715   41.2730 H   0  0  0  0  0  0  0  0  0  0  0  0
    3.5255   16.2170   41.0748 H   0  0  0  0  0  0  0  0  0  0  0  0
   -0.4680   14.6810   44.3117 H   0  0  0  0  0  0  0  0  0  0  0  0
    5.7858   23.4247   33.8176 H   0  0  0  0  0  0  0  0  0  0  0  0
    2.5012   14.4372   43.1287 H   0  0  0  0  0  0  0  0  0  0  0  0
    4.3137   19.1149   39.7041 H   0  0  0  0  0  0  0  0  0  0  0  0
    4.1839   18.2938   37.8669 H   0  0  0  0  0  0  0  0  0  0  0  0
    2.4817   17.2826   38.9220 H   0  0  0  0  0  0  0  0  0  0  0  0
    4.2771   16.8301   38.8752 H   0  0  0  0  0  0  0  0  0  0  0  0
    2.1774   19.3792   37.8754 H   0  0  0  0  0  0  0  0  0  0  0  0
    2.9864   20.4779   39.0893 H   0  0  0  0  0  0  0  0  0  0  0  0
    3.0784   25.1389   32.6552 H   0  0  0  0  0  0  0  0  0  0  0  0
    4.0624   25.9253   31.3746 H   0  0  0  0  0  0  0  0  0  0  0  0
    3.0108   24.5270   30.9677 H   0  0  0  0  0  0  0  0  0  0  0  0
    3.5922   24.2303   35.0235 H   0  0  0  0  0  0  0  0  0  0  0  0
    1.7530   17.2138   43.2755 H   0  0  0  0  0  0  0  0  0  0  0  0
    2.6241   23.0437   32.9572 H   0  0  0  0  0  0  0  0  0  0  0  0
    3.0493   21.6454   33.4408 H   0  0  0  0  0  0  0  0  0  0  0  0
    3.9698   21.2801   37.8824 H   0  0  0  0  0  0  0  0  0  0  0  0
    3.5177   20.8601   35.0771 H   0  0  0  0  0  0  0  0  0  0  0  0
    3.7598   23.3464   36.7964 H   0  0  0  0  0  0  0  0  0  0  0  0
    4.9458   18.6408   37.4032 H   0  0  0  0  0  0  0  0  0  0  0  0
    4.0833   18.8551   35.8421 H   0  0  0  0  0  0  0  0  0  0  0  0
    5.5795   19.7908   36.1774 H   0  0  0  0  0  0  0  0  0  0  0  0
  1 21  1  0
  1 18  1  0
  2 19  1  0
  2  5  1  0
  3 21  1  0
  4  9  1  0
  4 23  2  0
  5 15  1  0
  6 12  1  0
  7  9  2  0
  8 12  2  0
 10 21  1  0
 10 24  1  0
 10 20  1  0
 11  7  1  0
 13 14  1  0
 14  6  1  0
 15 11  1  0
 16 13  1  0
 17 21  1  0
 19  5  1  0
 20 28  1  0
 22 12  1  0
 22 27  1  0
 22  7  1  0
 24 20  1  0
 25 29  1  0
 25 16  1  0
 26 25  1  0
 27  4  1  0
 28 26  2  3
  1 30  1  0
  3 31  1  0
  3 32  1  0
  3 33  1  0
  5 34  1  0
  6 35  1  0
  6 36  1  0
  9 37  1  0
 10 38  1  1
 11 39  1  0
 13 40  1  0
 13 41  1  0
 14 42  1  0
 14 43  1  0
 16 44  1  0
 16 45  1  0
 17 46  1  0
 17 47  1  0
 17 48  1  0
 20 49  1  1
 22 50  1  6
 24 51  1  0
 24 52  1  0
 25 53  1  1
 26 54  1  0
 28 55  1  0
 29 56  1  0
 29 57  1  0
 29 58  1  0
M  END
>  <mol_id>  (67) 
2026-09-16-6tgu-s0-n100-0067

>  <rmsd_to_ref>  (67) 


$$$$

     RDKit          3D

 70 71  0  0  0  0  0  0  0  0999 V2000
    5.0702   24.2551   32.7565 C   0  0  0  0  0  0  0  0  0  0  0  0
    5.7666   15.3395   39.9315 O   0  0  0  0  0  0  0  0  0  0  0  0
    3.5539   16.8719   39.7261 C   0  0  0  0  0  0  0  0  0  0  0  0
    2.4351   25.4787   31.6647 C   0  0  1  0  0  0  0  0  0  0  0  0
    3.3927   15.5458   39.9323 C   0  0  0  0  0  0  0  0  0  0  0  0
    5.0709   22.7756   29.8185 O   0  0  0  0  0  0  0  0  0  0  0  0
    1.5511   19.1518   40.0039 N   0  0  0  0  0  0  0  0  0  0  0  0
    0.6570   17.2292   41.3175 C   0  0  0  0  0  0  0  0  0  0  0  0
   -0.1687   15.5994   42.8962 C   0  0  0  0  0  0  0  0  0  0  0  0
    3.9544   21.8958   36.2019 C   0  0  0  0  0  0  0  0  0  0  0  0
    1.9450   20.4229   36.6230 N   0  0  0  0  0  0  0  0  0  0  0  0
    4.3008   23.8313   30.7087 C   0  0  1  0  0  0  0  0  0  0  0  0
    1.6693   18.0048   40.6524 C   0  0  2  0  0  0  0  0  0  0  0  0
    1.9660   24.5412   30.4261 C   0  0  2  0  0  0  0  0  0  0  0  0
    0.9996   19.3112   38.9158 N   0  0  0  0  0  0  0  0  0  0  0  0
   -2.2316   18.5195   42.4839 N   0  0  0  0  0  0  0  0  0  0  0  0
    0.8327   16.0162   41.9258 C   0  0  0  0  0  0  0  0  0  0  0  0
    3.2676   22.3664   35.0401 O   0  0  0  0  0  0  0  0  0  0  0  0
    2.9874   23.4813   29.9130 C   0  0  1  0  0  0  0  0  0  0  0  0
    2.8951   24.2118   32.3736 O   0  0  0  0  0  0  0  0  0  0  0  0
    3.9999   19.8512   37.8586 C   0  0  0  0  0  0  0  0  0  0  0  0
    3.4395   20.3994   36.5312 C   0  0  2  0  0  0  0  0  0  0  0  0
   -1.2456   16.4825   43.2143 C   0  0  0  0  0  0  0  0  0  0  0  0
    2.9033   17.6445   40.6644 O   0  0  0  0  0  0  0  0  0  0  0  0
    4.5881   14.8374   39.7241 C   0  0  0  0  0  0  0  0  0  0  0  0
    3.4289   24.9763   27.8210 C   0  0  0  0  0  0  0  0  0  0  0  0
    2.8918   25.8956   30.3450 C   0  0  0  0  0  0  0  0  0  0  0  0
   -1.3690   17.6467   42.4766 C   0  0  0  0  0  0  0  0  0  0  0  0
    3.3574   23.5359   28.3459 C   0  0  0  0  0  0  0  0  0  0  0  0
   -0.4435   18.0513   41.5286 N   0  0  0  0  0  0  0  0  0  0  0  0
    4.0594   24.0660   32.0839 C   0  0  0  0  0  0  0  0  0  0  0  0
    4.4366   13.6702   39.2294 O   0  0  0  0  0  0  0  0  0  0  0  0
    1.2366   20.2437   37.8152 C   0  0  0  0  0  0  0  0  0  0  0  0
    4.9846   24.4462   33.8364 H   0  0  0  0  0  0  0  0  0  0  0  0
    6.0609   24.2333   32.2787 H   0  0  0  0  0  0  0  0  0  0  0  0
    4.6283   17.1048   39.7640 H   0  0  0  0  0  0  0  0  0  0  0  0
    3.1176   17.1084   38.7444 H   0  0  0  0  0  0  0  0  0  0  0  0
    2.2212   26.2151   32.4533 H   0  0  0  0  0  0  0  0  0  0  0  0
    3.0585   15.3843   40.9678 H   0  0  0  0  0  0  0  0  0  0  0  0
    2.6460   15.1759   39.2142 H   0  0  0  0  0  0  0  0  0  0  0  0
    5.1243   21.9130   30.3014 H   0  0  0  0  0  0  0  0  0  0  0  0
    1.0558   19.7798   40.6529 H   0  0  0  0  0  0  0  0  0  0  0  0
   -0.0970   14.6141   43.3800 H   0  0  0  0  0  0  0  0  0  0  0  0
    3.7396   22.5579   37.0536 H   0  0  0  0  0  0  0  0  0  0  0  0
    5.0396   21.8897   36.0217 H   0  0  0  0  0  0  0  0  0  0  0  0
    1.6135   19.6841   35.9863 H   0  0  0  0  0  0  0  0  0  0  0  0
    1.7498   21.4143   36.4235 H   0  0  0  0  0  0  0  0  0  0  0  0
    4.9365   24.7211   30.8278 H   0  0  0  0  0  0  0  0  0  0  0  0
    1.5184   17.4569   39.7107 H   0  0  0  0  0  0  0  0  0  0  0  0
    0.9993   24.0781   30.1795 H   0  0  0  0  0  0  0  0  0  0  0  0
    1.0812   18.3870   38.4684 H   0  0  0  0  0  0  0  0  0  0  0  0
   -2.1515   19.3280   41.8509 H   0  0  0  0  0  0  0  0  0  0  0  0
   -3.0357   18.4435   43.1231 H   0  0  0  0  0  0  0  0  0  0  0  0
    1.6985   15.3799   41.6902 H   0  0  0  0  0  0  0  0  0  0  0  0
    2.3624   22.6761   35.2946 H   0  0  0  0  0  0  0  0  0  0  0  0
    2.5516   22.4822   30.0606 H   0  0  0  0  0  0  0  0  0  0  0  0
    3.2707   20.0243   38.6638 H   0  0  0  0  0  0  0  0  0  0  0  0
    4.1873   18.7718   37.7596 H   0  0  0  0  0  0  0  0  0  0  0  0
    4.9414   20.3663   38.0997 H   0  0  0  0  0  0  0  0  0  0  0  0
    3.7943   19.7415   35.7242 H   0  0  0  0  0  0  0  0  0  0  0  0
   -1.9548   16.2444   44.0207 H   0  0  0  0  0  0  0  0  0  0  0  0
    2.9888   25.6590   28.5627 H   0  0  0  0  0  0  0  0  0  0  0  0
    4.4797   25.2515   27.6473 H   0  0  0  0  0  0  0  0  0  0  0  0
    2.8695   25.0506   26.8767 H   0  0  0  0  0  0  0  0  0  0  0  0
    2.4783   26.8085   29.8916 H   0  0  0  0  0  0  0  0  0  0  0  0
    3.8805   26.1170   29.9167 H   0  0  0  0  0  0  0  0  0  0  0  0
    4.3347   23.0542   28.1949 H   0  0  0  0  0  0  0  0  0  0  0  0
    2.5650   23.0116   27.7916 H   0  0  0  0  0  0  0  0  0  0  0  0
    1.5641   21.1320   38.3754 H   0  0  0  0  0  0  0  0  0  0  0  0
    0.3727   19.8433   37.2644 H   0  0  0  0  0  0  0  0  0  0  0  0
  2 25  1  0
  3  5  1  0
  3 24  1  0
  4 27  1  0
  4 20  1  0
  7 13  1  0
  8 17  2  0
  8 30  1  0
  9 23  2  0
 10 22  1  0
 11 33  1  0
 12  6  1  0
 12 31  1  0
 13 24  1  0
 13  8  1  0
 14 27  1  0
 14  4  1  0
 15  7  1  0
 17  9  1  0
 18 10  1  0
 19 29  1  0
 19 12  1  0
 19 14  1  0
 22 11  1  0
 22 21  1  0
 25  5  1  0
 26 29  1  0
 28 16  1  0
 28 23  1  0
 30 28  2  0
 31  1  2  3
 31 20  1  0
 32 25  2  0
 33 15  1  0
  1 34  1  0
  1 35  1  0
  3 36  1  0
  3 37  1  0
  4 38  1  1
  5 39  1  0
  5 40  1  0
  6 41  1  0
  7 42  1  0
  9 43  1  0
 10 44  1  0
 10 45  1  0
 11 46  1  0
 11 47  1  0
 12 48  1  6
 13 49  1  6
 14 50  1  6
 15 51  1  0
 16 52  1  0
 16 53  1  0
 17 54  1  0
 18 55  1  0
 19 56  1  1
 21 57  1  0
 21 58  1  0
 21 59  1  0
 22 60  1  6
 23 61  1  0
 26 62  1  0
 26 63  1  0
 26 64  1  0
 27 65  1  0
 27 66  1  0
 29 67  1  0
 29 68  1  0
 33 69  1  0
 33 70  1  0
M  CHG  2   2  -1  11   1
M  END
>  <mol_id>  (68) 
2026-09-16-6tgu-s0-n100-0068

>  <rmsd_to_ref>  (68) 


$$$$

     RDKit          3D

 31 32  0  0  0  0  0  0  0  0999 V2000
    3.2019   21.6824   35.0644 C   0  0  0  0  0  0  0  0  0  0  0  0
    4.4263   21.4579   34.4075 C   0  0  0  0  0  0  0  0  0  0  0  0
    0.9729   19.6700   39.2973 C   0  0  0  0  0  0  0  0  0  0  0  0
    2.5824   21.3853   36.5064 C   0  0  2  0  0  0  0  0  0  0  0  0
    1.7634   17.4831   39.9166 C   0  0  0  0  0  0  0  0  0  0  0  0
    1.1878   20.8178   41.5432 N   0  0  0  0  0  0  0  0  0  0  0  0
    2.0401   18.9293   38.8918 C   0  0  2  0  0  0  0  0  0  0  0  0
    2.3646   20.3265   39.3084 C   0  0  1  0  0  0  0  0  0  0  0  0
    2.5326   22.9517   35.7477 C   0  0  0  0  0  0  0  0  0  0  0  0
    2.4092   21.5013   37.9878 C   0  0  0  0  0  0  0  0  0  0  0  0
    2.9784   20.8714   33.8916 C   0  0  0  0  0  0  0  0  0  0  0  0
    4.9287   22.2711   33.8632 H   0  0  0  0  0  0  0  0  0  0  0  0
    5.4119   21.0446   34.6680 H   0  0  0  0  0  0  0  0  0  0  0  0
    0.4743   19.4327   40.2486 H   0  0  0  0  0  0  0  0  0  0  0  0
    0.0040   19.9315   38.8469 H   0  0  0  0  0  0  0  0  0  0  0  0
    2.3661   20.3520   36.8157 H   0  0  0  0  0  0  0  0  0  0  0  0
    1.9932   17.7267   40.9644 H   0  0  0  0  0  0  0  0  0  0  0  0
    0.7116   17.1715   39.8348 H   0  0  0  0  0  0  0  0  0  0  0  0
    2.4157   16.6642   39.5790 H   0  0  0  0  0  0  0  0  0  0  0  0
    1.2811   20.6234   42.5504 H   0  0  0  0  0  0  0  0  0  0  0  0
    1.8424   21.5668   41.2761 H   0  0  0  0  0  0  0  0  0  0  0  0
    1.4045   19.9653   41.0075 H   0  0  0  0  0  0  0  0  0  0  0  0
    0.2233   21.1159   41.3390 H   0  0  0  0  0  0  0  0  0  0  0  0
    2.5641   18.4399   38.0576 H   0  0  0  0  0  0  0  0  0  0  0  0
    3.0911   20.7888   39.9929 H   0  0  0  0  0  0  0  0  0  0  0  0
    3.1561   23.7751   36.1264 H   0  0  0  0  0  0  0  0  0  0  0  0
    1.7532   23.6801   35.4794 H   0  0  0  0  0  0  0  0  0  0  0  0
    3.2255   22.1771   38.2824 H   0  0  0  0  0  0  0  0  0  0  0  0
    1.3223   21.6678   37.9559 H   0  0  0  0  0  0  0  0  0  0  0  0
    2.4836   21.2870   33.0013 H   0  0  0  0  0  0  0  0  0  0  0  0
    2.5366   19.8929   33.6523 H   0  0  0  0  0  0  0  0  0  0  0  0
  1  9  1  0
  1  4  1  0
  2  1  1  0
  3  8  1  0
  4 10  1  0
  7  3  1  0
  7  8  1  0
  7  5  1  0
  8 10  1  0
  9  4  1  0
 11  2  1  0
 11  1  1  0
  2 12  1  0
  2 13  1  0
  3 14  1  0
  3 15  1  0
  4 16  1  6
  5 17  1  0
  5 18  1  0
  5 19  1  0
  6 20  1  0
  6 21  1  0
  6 22  1  0
  6 23  1  0
  7 24  1  6
  8 25  1  1
  9 26  1  0
  9 27  1  0
 10 28  1  0
 10 29  1  0
 11 30  1  0
 11 31  1  0
M  CHG  1   6   1
M  END
>  <mol_id>  (69) 
2026-09-16-6tgu-s0-n100-0069

>  <rmsd_to_ref>  (69) 


$$$$

     RDKit          3D

 34 36  0  0  0  0  0  0  0  0999 V2000
    3.7537   23.2881   35.1664 C   0  0  0  0  0  0  0  0  0  0  0  0
    3.1285   24.0803   32.9178 C   0  0  0  0  0  0  0  0  0  0  0  0
    3.8611   23.3410   33.9303 C   0  0  0  0  0  0  0  0  0  0  0  0
    1.6013   18.3890   41.0970 C   0  0  0  0  0  0  0  0  0  0  0  0
    2.4120   21.5410   36.5311 C   0  0  1  0  0  0  0  0  0  0  0  0
    1.8966   19.1420   38.7095 C   0  0  0  0  0  0  0  0  0  0  0  0
    1.8406   24.4706   33.0832 O   0  0  0  0  0  0  0  0  0  0  0  0
    1.5029   17.8571   38.2699 C   0  0  0  0  0  0  0  0  0  0  0  0
    2.5886   22.9227   36.9881 C   0  0  1  0  0  0  0  0  0  0  0  0
    2.0308   19.4462   40.1874 C   0  0  0  0  0  0  0  0  0  0  0  0
    1.5886   18.8605   42.5854 C   0  0  0  0  0  0  0  0  0  0  0  0
    2.6963   23.7486   35.8043 C   0  0  0  0  0  0  0  0  0  0  0  0
    1.0828   17.1716   40.6657 C   0  0  0  0  0  0  0  0  0  0  0  0
    1.0607   16.9272   39.2028 C   0  0  0  0  0  0  0  0  0  0  0  0
    1.9605   20.2865   37.7080 C   0  0  1  0  0  0  0  0  0  0  0  0
    2.1334   21.7023   37.9898 C   0  0  1  0  0  0  0  0  0  0  0  0
    4.5712   22.8404   35.7505 H   0  0  0  0  0  0  0  0  0  0  0  0
    3.7042   24.9999   32.7361 H   0  0  0  0  0  0  0  0  0  0  0  0
    3.0333   23.3300   32.1191 H   0  0  0  0  0  0  0  0  0  0  0  0
    4.6639   22.7073   33.5254 H   0  0  0  0  0  0  0  0  0  0  0  0
    3.4752   21.3669   36.7535 H   0  0  0  0  0  0  0  0  0  0  0  0
    1.5087   24.1506   33.9594 H   0  0  0  0  0  0  0  0  0  0  0  0
    1.5462   17.5967   37.2020 H   0  0  0  0  0  0  0  0  0  0  0  0
    2.8680   23.8869   37.4379 H   0  0  0  0  0  0  0  0  0  0  0  0
    2.4275   20.4051   40.5524 H   0  0  0  0  0  0  0  0  0  0  0  0
    1.7977   18.0040   43.2432 H   0  0  0  0  0  0  0  0  0  0  0  0
    2.3587   19.6321   42.7322 H   0  0  0  0  0  0  0  0  0  0  0  0
    0.6005   19.2776   42.8294 H   0  0  0  0  0  0  0  0  0  0  0  0
    2.8394   24.8038   36.0801 H   0  0  0  0  0  0  0  0  0  0  0  0
    1.7879   23.7070   35.1855 H   0  0  0  0  0  0  0  0  0  0  0  0
    0.7057   16.4235   41.3785 H   0  0  0  0  0  0  0  0  0  0  0  0
    0.6756   15.9632   38.8390 H   0  0  0  0  0  0  0  0  0  0  0  0
    1.5975   19.2692   37.4995 H   0  0  0  0  0  0  0  0  0  0  0  0
    3.1896   21.4930   38.2147 H   0  0  0  0  0  0  0  0  0  0  0  0
  1 12  1  0
  2  3  1  0
  3  1  2  3
  4 13  1  0
  4 11  1  0
  5 16  1  0
  5 15  1  0
  6  8  2  0
  6 10  1  0
  7  2  1  0
  8 14  1  0
  9  5  1  0
  9 16  1  0
 10  4  2  0
 12  9  1  0
 14 13  2  0
 15  6  1  0
 16 15  1  0
  1 17  1  0
  2 18  1  0
  2 19  1  0
  3 20  1  0
  5 21  1  1
  7 22  1  0
  8 23  1  0
  9 24  1  1
 10 25  1  0
 11 26  1  0
 11 27  1  0
 11 28  1  0
 12 29  1  0
 12 30  1  0
 13 31  1  0
 14 32  1  0
 15 33  1  6
 16 34  1  1
M  END
>  <mol_id>  (70) 
2026-09-16-6tgu-s0-n100-0070

>  <rmsd_to_ref>  (70) 


$$$$

     RDKit          3D

 60 61  0  0  0  0  0  0  0  0999 V2000
    4.5754   17.9195   40.4874 O   0  0  0  0  0  0  0  0  0  0  0  0
    4.3727   13.1270   37.5940 O   0  0  0  0  0  0  0  0  0  0  0  0
    3.5786   17.3825   39.9365 C   0  0  0  0  0  0  0  0  0  0  0  0
   -0.6145   16.7249   43.0676 C   0  0  0  0  0  0  0  0  0  0  0  0
    2.9566   26.2829   30.8959 C   0  0  0  0  0  0  0  0  0  0  0  0
    3.6098   19.5450   37.0650 C   0  0  0  0  0  0  0  0  0  0  0  0
    3.3218   20.8340   36.3762 C   0  0  1  0  0  0  0  0  0  0  0  0
    1.6254   16.4440   41.4397 C   0  0  0  0  0  0  0  0  0  0  0  0
    4.1816   14.6738   39.3518 C   0  0  0  0  0  0  0  0  0  0  0  0
    4.4893   25.6536   30.7105 S   0  0  0  0  0  0  0  0  0  0  0  0
   -0.2662   15.4075   42.6501 C   0  0  0  0  0  0  0  0  0  0  0  0
    4.3474   21.1839   35.2734 C   0  0  0  0  0  0  0  0  0  0  0  0
    3.0795   19.1270   38.3928 C   0  0  0  0  0  0  0  0  0  0  0  0
    3.7071   23.2045   31.8449 C   0  0  0  0  0  0  0  0  0  0  0  0
    4.4798   13.3956   38.8976 C   0  0  0  0  0  0  0  0  0  0  0  0
    3.3814   24.0915   33.0072 C   0  0  0  0  0  0  0  0  0  0  0  0
    1.2403   17.7411   41.8135 C   0  0  0  0  0  0  0  0  0  0  0  0
    3.3233   14.9688   40.3269 N   0  0  0  0  0  0  0  0  0  0  0  0
    4.5369   12.4746   39.8081 O   0  0  0  0  0  0  0  0  0  0  0  0
    0.9548   15.2539   41.7682 C   0  0  0  0  0  0  0  0  0  0  0  0
    2.3110   26.3871   32.3042 C   0  0  0  0  0  0  0  0  0  0  0  0
    4.7623   22.7383   34.9164 C   0  0  0  0  0  0  0  0  0  0  0  0
    2.3497   25.1566   33.1002 C   0  0  0  0  0  0  0  0  0  0  0  0
    4.3851   23.7732   30.5606 C   0  0  0  0  0  0  0  0  0  0  0  0
    3.0122   17.8515   38.7432 N   0  0  0  0  0  0  0  0  0  0  0  0
    1.9111   21.4464   36.3450 C   0  0  0  0  0  0  0  0  0  0  0  0
    3.9598   23.9185   34.4254 C   0  0  0  0  0  0  0  0  0  0  0  0
    0.1024   17.8799   42.6770 C   0  0  0  0  0  0  0  0  0  0  0  0
    2.9412   16.2347   40.5851 C   0  0  1  0  0  0  0  0  0  0  0  0
   -1.4856   16.8499   43.7276 H   0  0  0  0  0  0  0  0  0  0  0  0
    2.2848   25.6603   30.2869 H   0  0  0  0  0  0  0  0  0  0  0  0
    3.0854   27.3359   30.6051 H   0  0  0  0  0  0  0  0  0  0  0  0
    4.7045   19.5103   37.1672 H   0  0  0  0  0  0  0  0  0  0  0  0
    3.0534   18.8547   36.4139 H   0  0  0  0  0  0  0  0  0  0  0  0
    3.5027   21.5548   37.1872 H   0  0  0  0  0  0  0  0  0  0  0  0
    4.6982   15.5141   38.8648 H   0  0  0  0  0  0  0  0  0  0  0  0
   -0.8619   14.5353   42.9570 H   0  0  0  0  0  0  0  0  0  0  0  0
    5.2816   20.6737   35.5511 H   0  0  0  0  0  0  0  0  0  0  0  0
    3.8147   20.8758   34.3617 H   0  0  0  0  0  0  0  0  0  0  0  0
    3.7080   19.6227   39.1474 H   0  0  0  0  0  0  0  0  0  0  0  0
    2.0184   19.4076   38.3213 H   0  0  0  0  0  0  0  0  0  0  0  0
    4.3755   22.4198   32.2290 H   0  0  0  0  0  0  0  0  0  0  0  0
    2.7116   22.9108   31.4808 H   0  0  0  0  0  0  0  0  0  0  0  0
    1.7928   18.6226   41.4562 H   0  0  0  0  0  0  0  0  0  0  0  0
    1.2955   14.2723   41.4075 H   0  0  0  0  0  0  0  0  0  0  0  0
    2.8406   27.1717   32.8643 H   0  0  0  0  0  0  0  0  0  0  0  0
    1.2468   26.6095   32.1368 H   0  0  0  0  0  0  0  0  0  0  0  0
    5.2116   23.1049   35.8511 H   0  0  0  0  0  0  0  0  0  0  0  0
    5.2486   22.5153   33.9552 H   0  0  0  0  0  0  0  0  0  0  0  0
    2.3731   25.4908   34.1479 H   0  0  0  0  0  0  0  0  0  0  0  0
    1.4897   24.6245   32.6672 H   0  0  0  0  0  0  0  0  0  0  0  0
    3.7872   23.5051   29.6771 H   0  0  0  0  0  0  0  0  0  0  0  0
    5.3945   23.3499   30.4517 H   0  0  0  0  0  0  0  0  0  0  0  0
    2.5304   17.1861   38.1219 H   0  0  0  0  0  0  0  0  0  0  0  0
    1.4688   21.3996   37.3511 H   0  0  0  0  0  0  0  0  0  0  0  0
    1.9739   22.4955   36.0205 H   0  0  0  0  0  0  0  0  0  0  0  0
    1.2818   20.8819   35.6413 H   0  0  0  0  0  0  0  0  0  0  0  0
    3.7706   24.7287   35.1450 H   0  0  0  0  0  0  0  0  0  0  0  0
   -0.2089   18.8737   43.0311 H   0  0  0  0  0  0  0  0  0  0  0  0
    3.7716   16.4089   41.2851 H   0  0  0  0  0  0  0  0  0  0  0  0
  2 15  2  0
  3  1  2  0
  5 21  1  0
  6 13  1  0
  7 26  1  0
  7  6  1  0
  8 17  1  0
  8 20  2  0
  9 18  2  3
 10  5  1  0
 10 24  1  0
 11  4  2  0
 12  7  1  0
 13 25  1  0
 14 16  1  0
 15  9  1  0
 15 19  1  0
 16 27  2  3
 17 28  2  0
 18 29  1  0
 20 11  1  0
 21 23  1  0
 22 12  1  0
 23 16  1  0
 24 14  1  0
 25  3  1  0
 27 22  1  0
 28  4  1  0
 29  3  1  0
 29  8  1  0
  4 30  1  0
  5 31  1  0
  5 32  1  0
  6 33  1  0
  6 34  1  0
  7 35  1  1
  9 36  1  0
 11 37  1  0
 12 38  1  0
 12 39  1  0
 13 40  1  0
 13 41  1  0
 14 42  1  0
 14 43  1  0
 17 44  1  0
 20 45  1  0
 21 46  1  0
 21 47  1  0
 22 48  1  0
 22 49  1  0
 23 50  1  0
 23 51  1  0
 24 52  1  0
 24 53  1  0
 25 54  1  0
 26 55  1  0
 26 56  1  0
 26 57  1  0
 27 58  1  0
 28 59  1  0
 29 60  1  1
M  CHG  1  19  -1
M  END
>  <mol_id>  (71) 
2026-09-16-6tgu-s0-n100-0071

>  <rmsd_to_ref>  (71) 


$$$$

     RDKit          3D

 49 50  0  0  0  0  0  0  0  0999 V2000
    1.3761   25.8782   30.3021 C   0  0  0  0  0  0  0  0  0  0  0  0
    1.9524   22.7854   34.6277 C   0  0  0  0  0  0  0  0  0  0  0  0
    1.2205   17.6246   41.6617 C   0  0  0  0  0  0  0  0  0  0  0  0
    1.0530   23.7652   34.6532 C   0  0  0  0  0  0  0  0  0  0  0  0
    1.2032   24.8099   33.6167 C   0  0  0  0  0  0  0  0  0  0  0  0
    3.2056   18.2505   36.9892 O   0  0  0  0  0  0  0  0  0  0  0  0
    1.6769   24.0885   32.1172 C   0  0  0  0  0  0  0  0  0  0  0  0
    2.6982   19.0412   37.9478 C   0  0  0  0  0  0  0  0  0  0  0  0
    0.3649   19.9611   42.1068 C   0  0  0  0  0  0  0  0  0  0  0  0
    0.7430   21.7614   40.5746 C   0  0  0  0  0  0  0  0  0  0  0  0
    0.8607   25.8862   28.8503 C   0  0  0  0  0  0  0  0  0  0  0  0
    1.4103   24.6570   30.9003 O   0  0  0  0  0  0  0  0  0  0  0  0
    0.2933   21.4141   41.7276 C   0  0  0  0  0  0  0  0  0  0  0  0
    0.4767   26.7024   31.1315 C   0  0  0  0  0  0  0  0  0  0  0  0
    1.4379   20.9169   39.6087 C   0  0  0  0  0  0  0  0  0  0  0  0
    2.3130   18.6359   39.1985 N   0  0  0  0  0  0  0  0  0  0  0  0
    4.3792   17.5037   37.1451 C   0  0  0  0  0  0  0  0  0  0  0  0
    1.0278   19.0748   41.2613 C   0  0  0  0  0  0  0  0  0  0  0  0
    2.5645   21.6101   35.2965 C   0  0  0  0  0  0  0  0  0  0  0  0
    2.3097   21.7030   36.2140 C   0  0  0  0  0  0  0  0  0  0  0  0
    1.6278   19.4906   40.0319 C   0  0  0  0  0  0  0  0  0  0  0  0
    1.6735   21.2784   38.2270 N   0  0  0  0  0  0  0  0  0  0  0  0
    2.3050   20.5812   37.4228 C   0  0  0  0  0  0  0  0  0  0  0  0
    2.4080   26.2531   30.2351 H   0  0  0  0  0  0  0  0  0  0  0  0
    2.4880   22.8975   33.6735 H   0  0  0  0  0  0  0  0  0  0  0  0
    1.2652   17.5497   42.7582 H   0  0  0  0  0  0  0  0  0  0  0  0
    0.3770   17.0257   41.2875 H   0  0  0  0  0  0  0  0  0  0  0  0
    2.1588   17.2464   41.2297 H   0  0  0  0  0  0  0  0  0  0  0  0
    0.2462   23.7968   35.4001 H   0  0  0  0  0  0  0  0  0  0  0  0
    0.2441   25.3317   33.4833 H   0  0  0  0  0  0  0  0  0  0  0  0
    1.9755   25.5260   33.9338 H   0  0  0  0  0  0  0  0  0  0  0  0
    2.7701   23.9763   32.1666 H   0  0  0  0  0  0  0  0  0  0  0  0
    1.0347   23.1959   32.0891 H   0  0  0  0  0  0  0  0  0  0  0  0
   -0.0993   19.6034   43.0377 H   0  0  0  0  0  0  0  0  0  0  0  0
    0.5867   22.8107   40.2840 H   0  0  0  0  0  0  0  0  0  0  0  0
   -0.2380   25.9380   28.8516 H   0  0  0  0  0  0  0  0  0  0  0  0
    1.2684   26.7602   28.3213 H   0  0  0  0  0  0  0  0  0  0  0  0
    1.1839   24.9660   28.3415 H   0  0  0  0  0  0  0  0  0  0  0  0
   -0.1316   22.1586   42.4169 H   0  0  0  0  0  0  0  0  0  0  0  0
    0.7064   26.5393   32.1948 H   0  0  0  0  0  0  0  0  0  0  0  0
    0.6203   27.7646   30.8840 H   0  0  0  0  0  0  0  0  0  0  0  0
   -0.5674   26.4179   30.9342 H   0  0  0  0  0  0  0  0  0  0  0  0
    4.6033   17.3920   38.2162 H   0  0  0  0  0  0  0  0  0  0  0  0
    4.2441   16.5099   36.6932 H   0  0  0  0  0  0  0  0  0  0  0  0
    5.2124   18.0222   36.6482 H   0  0  0  0  0  0  0  0  0  0  0  0
    2.1714   20.6730   34.8754 H   0  0  0  0  0  0  0  0  0  0  0  0
    3.6558   21.5711   35.1642 H   0  0  0  0  0  0  0  0  0  0  0  0
    1.9694   22.7074   36.5060 H   0  0  0  0  0  0  0  0  0  0  0  0
    1.2909   22.1739   37.8915 H   0  0  0  0  0  0  0  0  0  0  0  0
  1 12  1  0
  1 14  1  0
  2  4  2  3
  2 19  1  0
  5  4  1  0
  6 17  1  0
  6  8  1  0
  7  5  1  0
  8 16  2  0
 10 13  2  0
 11  1  1  0
 12  7  1  0
 13  9  1  0
 15 21  2  0
 15 10  1  0
 16 21  1  0
 18  3  1  0
 18  9  2  0
 19 20  1  0
 20 23  2  3
 21 18  1  0
 22 15  1  0
 23  8  1  0
 23 22  1  0
  1 24  1  0
  2 25  1  0
  3 26  1  0
  3 27  1  0
  3 28  1  0
  4 29  1  0
  5 30  1  0
  5 31  1  0
  7 32  1  0
  7 33  1  0
  9 34  1  0
 10 35  1  0
 11 36  1  0
 11 37  1  0
 11 38  1  0
 13 39  1  0
 14 40  1  0
 14 41  1  0
 14 42  1  0
 17 43  1  0
 17 44  1  0
 17 45  1  0
 19 46  1  0
 19 47  1  0
 20 48  1  0
 22 49  1  0
M  END
>  <mol_id>  (72) 
2026-09-16-6tgu-s0-n100-0072

>  <rmsd_to_ref>  (72) 


$$$$

     RDKit          3D

 28 30  0  0  0  0  0  0  0  0999 V2000
    2.4895   18.7567   39.2513 C   0  0  0  0  0  0  0  0  0  0  0  0
    2.7688   17.7917   38.2525 C   0  0  0  0  0  0  0  0  0  0  0  0
    4.5130   22.2565   34.0802 C   0  0  0  0  0  0  0  0  0  0  0  0
    4.5013   21.4592   35.3766 C   0  0  0  0  0  0  0  0  0  0  0  0
    1.9574   15.6538   41.4065 C   0  0  0  0  0  0  0  0  0  0  0  0
    2.2672   18.0757   40.5559 C   0  0  0  0  0  0  0  0  0  0  0  0
    3.8779   20.2219   35.5109 N   0  0  0  0  0  0  0  0  0  0  0  0
    2.7309   20.5738   37.6864 C   0  0  0  0  0  0  0  0  0  0  0  0
    3.2217   18.3668   37.0217 C   0  0  0  0  0  0  0  0  0  0  0  0
    2.5135   16.2338   38.8502 S   0  0  0  0  0  0  0  0  0  0  0  0
    2.3701   20.1076   38.9522 C   0  0  0  0  0  0  0  0  0  0  0  0
    2.2024   16.7627   40.4867 C   0  0  0  0  0  0  0  0  0  0  0  0
    5.2712   22.1969   35.0161 C   0  0  0  0  0  0  0  0  0  0  0  0
    3.2638   19.7079   36.7416 C   0  0  0  0  0  0  0  0  0  0  0  0
    1.3078   14.6867   40.6998 O   0  0  0  0  0  0  0  0  0  0  0  0
    3.8504   23.1200   33.9216 H   0  0  0  0  0  0  0  0  0  0  0  0
    4.4993   22.1012   32.9913 H   0  0  0  0  0  0  0  0  0  0  0  0
    4.2661   21.1790   36.4140 H   0  0  0  0  0  0  0  0  0  0  0  0
    2.9115   15.2641   41.7913 H   0  0  0  0  0  0  0  0  0  0  0  0
    1.3559   15.9825   42.2669 H   0  0  0  0  0  0  0  0  0  0  0  0
    2.1651   18.6260   41.5029 H   0  0  0  0  0  0  0  0  0  0  0  0
    3.8445   19.6169   34.6781 H   0  0  0  0  0  0  0  0  0  0  0  0
    2.5917   21.6359   37.4361 H   0  0  0  0  0  0  0  0  0  0  0  0
    3.5637   17.6759   36.2371 H   0  0  0  0  0  0  0  0  0  0  0  0
    1.9921   20.8087   39.7108 H   0  0  0  0  0  0  0  0  0  0  0  0
    6.2687   21.7856   34.8021 H   0  0  0  0  0  0  0  0  0  0  0  0
    5.6301   23.0632   35.5912 H   0  0  0  0  0  0  0  0  0  0  0  0
    1.1713   13.8929   41.2753 H   0  0  0  0  0  0  0  0  0  0  0  0
  1  6  1  0
  2  1  1  0
  2 10  1  0
  3 13  1  0
  3  4  1  0
  4  7  1  0
  6 12  2  0
  7 14  1  0
  8 11  1  0
  9  2  2  0
 10 12  1  0
 11  1  2  0
 12  5  1  0
 13  4  1  0
 14  8  2  0
 14  9  1  0
 15  5  1  0
  3 16  1  0
  3 17  1  0
  4 18  1  0
  5 19  1  0
  5 20  1  0
  6 21  1  0
  7 22  1  0
  8 23  1  0
  9 24  1  0
 11 25  1  0
 13 26  1  0
 13 27  1  0
 15 28  1  0
M  END
>  <mol_id>  (73) 
2026-09-16-6tgu-s0-n100-0073

>  <rmsd_to_ref>  (73) 


$$$$

     RDKit          3D

 66 68  0  0  0  0  0  0  0  0999 V2000
    3.1157   19.1627   36.9103 C   0  0  0  0  0  0  0  0  0  0  0  0
    2.6921   26.0667   30.0584 C   0  0  0  0  0  0  0  0  0  0  0  0
    1.6539   17.6716   39.5885 O   0  0  0  0  0  0  0  0  0  0  0  0
    0.0118   14.2431   38.3898 O   0  0  0  0  0  0  0  0  0  0  0  0
    3.0663   28.2254   32.2349 C   0  0  0  0  0  0  0  0  0  0  0  0
    1.9109   15.2239   39.8205 O   0  0  0  0  0  0  0  0  0  0  0  0
    3.6113   25.5543   30.9526 C   0  0  0  0  0  0  0  0  0  0  0  0
    0.4903   15.5737   37.8759 C   0  0  0  0  0  0  0  0  0  0  0  0
    1.5303   20.1677   41.3134 N   0  0  0  0  0  0  0  0  0  0  0  0
    2.6808   18.2751   39.6655 C   0  0  1  0  0  0  0  0  0  0  0  0
    4.1050   25.8771   32.3267 C   0  0  1  0  0  0  0  0  0  0  0  0
    3.7244   27.1198   34.6242 S   0  0  0  0  0  0  0  0  0  0  0  0
    3.1476   20.2936   39.3810 C   0  0  0  0  0  0  0  0  0  0  0  0
    2.8558   22.9057   36.5993 C   0  0  0  0  0  0  0  0  0  0  0  0
    3.1126   21.3486   42.2534 O   0  0  0  0  0  0  0  0  0  0  0  0
    2.8546   28.3269   30.8853 C   0  0  0  0  0  0  0  0  0  0  0  0
    1.9357   27.3724   29.8956 S   0  0  0  0  0  0  0  0  0  0  0  0
    2.9540   26.8144   32.9722 C   0  0  1  0  0  0  0  0  0  0  0  0
    1.2386   20.2475   43.7575 C   0  0  0  0  0  0  0  0  0  0  0  0
    3.2140   18.9947   38.6937 C   0  0  2  0  0  0  0  0  0  0  0  0
    1.8632   20.7426   42.6749 C   0  0  0  0  0  0  0  0  0  0  0  0
    2.6417   19.5825   40.5268 C   0  0  1  0  0  0  0  0  0  0  0  0
    3.4737   20.9016   35.2518 O   0  0  0  0  0  0  0  0  0  0  0  0
    1.4623   16.2448   38.9551 C   0  0  0  0  0  0  0  0  0  0  0  0
    1.1786   21.6439   43.3794 C   0  0  0  0  0  0  0  0  0  0  0  0
    4.4912   24.8912   33.4601 C   0  0  0  0  0  0  0  0  0  0  0  0
    3.6893   28.9379   32.9753 O   0  0  0  0  0  0  0  0  0  0  0  0
    3.4722   20.6127   36.6524 C   0  0  1  0  0  0  0  0  0  0  0  0
    4.6819   25.6254   34.6055 C   0  0  0  0  0  0  0  0  0  0  0  0
    2.7918   21.5638   37.2996 N   0  0  0  0  0  0  0  0  0  0  0  0
    3.8323   18.4909   36.4151 H   0  0  0  0  0  0  0  0  0  0  0  0
    2.1236   18.8966   36.5165 H   0  0  0  0  0  0  0  0  0  0  0  0
    3.2199   25.9766   29.0976 H   0  0  0  0  0  0  0  0  0  0  0  0
    1.8388   25.5295   30.4980 H   0  0  0  0  0  0  0  0  0  0  0  0
    0.2018   14.1761   39.3591 H   0  0  0  0  0  0  0  0  0  0  0  0
    3.2674   24.5158   31.0684 H   0  0  0  0  0  0  0  0  0  0  0  0
    4.4700   26.0272   30.4536 H   0  0  0  0  0  0  0  0  0  0  0  0
    1.0360   15.4274   36.9321 H   0  0  0  0  0  0  0  0  0  0  0  0
   -0.3739   16.2316   37.7021 H   0  0  0  0  0  0  0  0  0  0  0  0
    0.8289   19.4267   41.4546 H   0  0  0  0  0  0  0  0  0  0  0  0
    1.2130   20.9752   40.7583 H   0  0  0  0  0  0  0  0  0  0  0  0
    3.1961   17.3407   39.9326 H   0  0  0  0  0  0  0  0  0  0  0  0
    5.1138   26.2240   32.0585 H   0  0  0  0  0  0  0  0  0  0  0  0
    2.4428   21.0127   38.9382 H   0  0  0  0  0  0  0  0  0  0  0  0
    4.0201   20.9599   39.4496 H   0  0  0  0  0  0  0  0  0  0  0  0
    3.1258   23.6860   37.3261 H   0  0  0  0  0  0  0  0  0  0  0  0
    3.6138   22.8679   35.8031 H   0  0  0  0  0  0  0  0  0  0  0  0
    1.8741   23.1373   36.1604 H   0  0  0  0  0  0  0  0  0  0  0  0
    3.6987   21.4780   43.0407 H   0  0  0  0  0  0  0  0  0  0  0  0
    2.4408   29.3370   30.7501 H   0  0  0  0  0  0  0  0  0  0  0  0
    3.8451   27.9866   30.5492 H   0  0  0  0  0  0  0  0  0  0  0  0
    1.9304   26.4126   32.9439 H   0  0  0  0  0  0  0  0  0  0  0  0
    0.3562   19.6003   43.6458 H   0  0  0  0  0  0  0  0  0  0  0  0
    1.5290   19.6773   44.6522 H   0  0  0  0  0  0  0  0  0  0  0  0
    4.0104   18.3113   38.3640 H   0  0  0  0  0  0  0  0  0  0  0  0
    3.0995   19.5166   41.5249 H   0  0  0  0  0  0  0  0  0  0  0  0
    4.2506   21.4754   35.0340 H   0  0  0  0  0  0  0  0  0  0  0  0
    1.7071   22.4043   43.9731 H   0  0  0  0  0  0  0  0  0  0  0  0
    0.3826   22.3737   43.1700 H   0  0  0  0  0  0  0  0  0  0  0  0
    3.6827   24.1612   33.6132 H   0  0  0  0  0  0  0  0  0  0  0  0
    5.4075   24.3422   33.1974 H   0  0  0  0  0  0  0  0  0  0  0  0
    4.4786   20.6712   37.0926 H   0  0  0  0  0  0  0  0  0  0  0  0
    5.7472   25.8884   34.6824 H   0  0  0  0  0  0  0  0  0  0  0  0
    4.3544   25.0087   35.4555 H   0  0  0  0  0  0  0  0  0  0  0  0
    3.1868   21.6663   38.2453 H   0  0  0  0  0  0  0  0  0  0  0  0
    1.8037   21.2747   37.3294 H   0  0  0  0  0  0  0  0  0  0  0  0
  2  7  1  0
  5 27  2  0
  8  4  1  0
  8 24  1  0
  9 21  1  0
 10  3  1  0
 10 22  1  0
 11  7  1  0
 11 18  1  0
 11 26  1  0
 12 29  1  0
 13 22  1  0
 14 30  1  0
 15 21  1  0
 16  5  1  0
 17  2  1  0
 17 16  1  0
 18  5  1  0
 18 12  1  0
 20  1  1  0
 20 13  1  0
 20 10  1  0
 21 25  1  0
 21 19  1  0
 22  9  1  0
 24  3  1  0
 24  6  2  0
 25 19  1  0
 26 29  1  0
 28 23  1  0
 28  1  1  0
 28 30  1  0
  1 31  1  0
  1 32  1  0
  2 33  1  0
  2 34  1  0
  4 35  1  0
  7 36  1  0
  7 37  1  0
  8 38  1  0
  8 39  1  0
  9 40  1  0
  9 41  1  0
 10 42  1  1
 11 43  1  6
 13 44  1  0
 13 45  1  0
 14 46  1  0
 14 47  1  0
 14 48  1  0
 15 49  1  0
 16 50  1  0
 16 51  1  0
 18 52  1  1
 19 53  1  0
 19 54  1  0
 20 55  1  6
 22 56  1  1
 23 57  1  0
 25 58  1  0
 25 59  1  0
 26 60  1  0
 26 61  1  0
 28 62  1  1
 29 63  1  0
 29 64  1  0
 30 65  1  0
 30 66  1  0
M  CHG  2   9   1  30   1
M  END
>  <mol_id>  (74) 
2026-09-16-6tgu-s0-n100-0074

>  <rmsd_to_ref>  (74) 


$$$$

     RDKit          3D

 42 41  0  0  0  0  0  0  0  0999 V2000
    3.3773   23.9376   32.3195 C   0  0  0  0  0  0  0  0  0  0  0  0
    3.7670   22.8515   33.5249 S   0  0  0  0  0  0  0  0  0  0  0  0
    2.8205   18.2349   39.8601 C   0  0  0  0  0  0  0  0  0  0  0  0
    4.1117   24.0132   30.8535 S   0  0  0  0  0  0  0  0  0  0  0  0
    3.3336   21.1840   35.2446 N   0  0  0  0  0  0  0  0  0  0  0  0
    2.6256   16.9657   39.3901 C   0  0  1  0  0  0  0  0  0  0  0  0
    3.8584   19.1792   37.8272 C   0  0  0  0  0  0  0  0  0  0  0  0
    2.4036   24.9974   32.3249 C   0  0  0  0  0  0  0  0  0  0  0  0
    1.8071   21.1480   36.7978 O   0  0  0  0  0  0  0  0  0  0  0  0
    2.9604   20.7463   36.1964 C   0  0  0  0  0  0  0  0  0  0  0  0
    3.7169   19.6924   36.7183 O   0  0  0  0  0  0  0  0  0  0  0  0
    3.0811   16.5502   38.2316 O   0  0  0  0  0  0  0  0  0  0  0  0
    1.2239   16.3108   41.2150 C   0  0  0  0  0  0  0  0  0  0  0  0
    2.0718   25.5926   31.2364 C   0  0  0  0  0  0  0  0  0  0  0  0
    3.2307   25.3157   30.1842 C   0  0  0  0  0  0  0  0  0  0  0  0
    2.9488   19.4212   38.9940 C   0  0  0  0  0  0  0  0  0  0  0  0
    2.1554   15.9615   40.2910 C   0  0  0  0  0  0  0  0  0  0  0  0
    2.2274   23.0425   34.4846 S   0  0  0  0  0  0  0  0  0  0  0  0
    1.4260   17.1698   42.3513 C   0  0  0  0  0  0  0  0  0  0  0  0
    1.9690   18.4412   40.5252 H   0  0  0  0  0  0  0  0  0  0  0  0
    3.8414   18.1562   40.2619 H   0  0  0  0  0  0  0  0  0  0  0  0
    2.8262   21.9638   34.8025 H   0  0  0  0  0  0  0  0  0  0  0  0
    4.1867   20.8097   34.8052 H   0  0  0  0  0  0  0  0  0  0  0  0
    1.7690   17.4528   38.9014 H   0  0  0  0  0  0  0  0  0  0  0  0
    4.8613   19.4779   38.1663 H   0  0  0  0  0  0  0  0  0  0  0  0
    3.6237   18.1291   37.5985 H   0  0  0  0  0  0  0  0  0  0  0  0
    1.9376   25.3015   33.2737 H   0  0  0  0  0  0  0  0  0  0  0  0
    3.8040   15.8900   38.3788 H   0  0  0  0  0  0  0  0  0  0  0  0
    0.8679   15.3590   41.6359 H   0  0  0  0  0  0  0  0  0  0  0  0
    0.5939   16.9691   40.5988 H   0  0  0  0  0  0  0  0  0  0  0  0
    1.1180   25.1920   30.8624 H   0  0  0  0  0  0  0  0  0  0  0  0
    1.9420   26.6721   31.4029 H   0  0  0  0  0  0  0  0  0  0  0  0
    3.8724   26.2018   30.0701 H   0  0  0  0  0  0  0  0  0  0  0  0
    2.8403   25.0861   29.1817 H   0  0  0  0  0  0  0  0  0  0  0  0
    3.3525   20.2525   39.5906 H   0  0  0  0  0  0  0  0  0  0  0  0
    1.9501   19.6580   38.5982 H   0  0  0  0  0  0  0  0  0  0  0  0
    1.7230   15.1541   39.6818 H   0  0  0  0  0  0  0  0  0  0  0  0
    3.0412   15.6944   40.8860 H   0  0  0  0  0  0  0  0  0  0  0  0
    2.5161   23.0042   35.8233 H   0  0  0  0  0  0  0  0  0  0  0  0
    1.2930   16.5907   43.2770 H   0  0  0  0  0  0  0  0  0  0  0  0
    2.4445   17.5843   42.3211 H   0  0  0  0  0  0  0  0  0  0  0  0
    0.6949   17.9913   42.3245 H   0  0  0  0  0  0  0  0  0  0  0  0
  1  8  2  0
  1  2  1  0
  2 18  1  0
  4  1  1  0
  5 10  1  0
  6 12  1  0
  6  3  1  0
  6 17  1  0
  7 16  1  0
 10 11  1  0
 10  9  2  0
 11  7  1  0
 13 19  1  0
 14  8  1  0
 15  4  1  0
 15 14  1  0
 16  3  1  0
 17 13  1  0
  3 20  1  0
  3 21  1  0
  5 22  1  0
  5 23  1  0
  6 24  1  6
  7 25  1  0
  7 26  1  0
  8 27  1  0
 12 28  1  0
 13 29  1  0
 13 30  1  0
 14 31  1  0
 14 32  1  0
 15 33  1  0
 15 34  1  0
 16 35  1  0
 16 36  1  0
 17 37  1  0
 17 38  1  0
 18 39  1  0
 19 40  1  0
 19 41  1  0
 19 42  1  0
M  END
>  <mol_id>  (75) 
2026-09-16-6tgu-s0-n100-0075

>  <rmsd_to_ref>  (75) 


$$$$

     RDKit          3D

 54 56  0  0  0  0  0  0  0  0999 V2000
    4.2190   17.0590   36.6550 N   0  0  0  0  0  0  0  0  0  0  0  0
    5.9460   27.4270   30.6430 C   0  0  0  0  0  0  0  0  0  0  0  0
    2.3040   19.1850   40.4160 C   0  0  0  0  0  0  0  0  0  0  0  0
    4.0190   24.6530   33.0140 C   0  0  0  0  0  0  0  0  0  0  0  0
    3.3280   14.9410   37.5880 C   0  0  0  0  0  0  0  0  0  0  0  0
    4.4280   15.8970   37.2450 C   0  0  0  0  0  0  0  0  0  0  0  0
    4.3380   13.1770   36.3810 O   0  0  0  0  0  0  0  0  0  0  0  0
    0.0480   19.2460   42.1370 C   0  0  0  0  0  0  0  0  0  0  0  0
    2.4570   27.3380   31.1450 C   0  0  0  0  0  0  0  0  0  0  0  0
    5.0850   26.1330   31.1490 S   0  0  2  0  0  4  0  0  0  0  0  0
    1.6810   20.3740   40.8220 C   0  0  0  0  0  0  0  0  0  0  0  0
    2.9250   24.9870   31.9820 C   0  0  1  0  0  0  0  0  0  0  0  0
    1.7850   17.9980   40.8980 C   0  0  0  0  0  0  0  0  0  0  0  0
    5.3220   25.0450   32.1450 C   0  0  2  0  0  0  0  0  0  0  0  0
    5.2950   24.9500   30.5490 O   0  0  0  0  0  0  0  0  0  0  0  0
    2.2370   13.7470   35.8520 O   0  0  0  0  0  0  0  0  0  0  0  0
    0.6740   18.0320   41.8320 C   0  0  0  0  0  0  0  0  0  0  0  0
    3.7650   18.2770   37.1900 C   0  0  0  0  0  0  0  0  0  0  0  0
    0.6290   20.4640   41.6530 C   0  0  0  0  0  0  0  0  0  0  0  0
    3.2840   13.8310   36.5350 C   0  0  0  0  0  0  0  0  0  0  0  0
    3.4480   18.1520   38.5430 N   0  0  0  0  0  0  0  0  0  0  0  0
    3.6570   19.3250   36.5710 O   0  0  0  0  0  0  0  0  0  0  0  0
    4.2960   20.0210   39.5050 O   0  0  0  0  0  0  0  0  0  0  0  0
    1.6050   25.4890   32.4270 C   0  0  0  0  0  0  0  0  0  0  0  0
    0.8460   26.6760   31.3630 S   0  0  0  0  0  0  0  0  0  0  0  0
    3.3820   26.1900   31.0650 C   0  0  1  0  0  0  0  0  0  0  0  0
   -1.0940   19.2300   42.8960 O   0  0  0  0  0  0  0  0  0  0  0  0
    3.4410   19.2070   39.4790 C   0  0  0  0  0  0  0  0  0  0  0  0
   -1.3450   18.0800   43.6630 C   0  0  0  0  0  0  0  0  0  0  0  0
    4.4199   17.0760   35.6449 H   0  0  0  0  0  0  0  0  0  0  0  0
    6.3170   27.9846   31.5156 H   0  0  0  0  0  0  0  0  0  0  0  0
    6.7980   27.0861   30.0364 H   0  0  0  0  0  0  0  0  0  0  0  0
    5.3025   28.0812   30.0364 H   0  0  0  0  0  0  0  0  0  0  0  0
    3.9297   25.2675   33.9220 H   0  0  0  0  0  0  0  0  0  0  0  0
    4.0031   23.6234   33.4009 H   0  0  0  0  0  0  0  0  0  0  0  0
    3.5170   14.5019   38.5787 H   0  0  0  0  0  0  0  0  0  0  0  0
    2.3657   15.4737   37.6060 H   0  0  0  0  0  0  0  0  0  0  0  0
    5.1146   15.3437   36.5874 H   0  0  0  0  0  0  0  0  0  0  0  0
    4.7574   16.2169   38.2446 H   0  0  0  0  0  0  0  0  0  0  0  0
    2.5023   27.9264   30.2167 H   0  0  0  0  0  0  0  0  0  0  0  0
    2.7260   28.0047   31.9775 H   0  0  0  0  0  0  0  0  0  0  0  0
    2.0893   21.3153   40.4254 H   0  0  0  0  0  0  0  0  0  0  0  0
    2.8029   23.9869   31.5405 H   0  0  0  0  0  0  0  0  0  0  0  0
    2.2102   17.0357   40.5766 H   0  0  0  0  0  0  0  0  0  0  0  0
    6.0174   24.7435   32.9422 H   0  0  0  0  0  0  0  0  0  0  0  0
    0.3233   17.1010   42.3012 H   0  0  0  0  0  0  0  0  0  0  0  0
    0.2258   21.4425   41.9529 H   0  0  0  0  0  0  0  0  0  0  0  0
    3.1989   17.2133   38.8860 H   0  0  0  0  0  0  0  0  0  0  0  0
    0.9262   24.6277   32.5130 H   0  0  0  0  0  0  0  0  0  0  0  0
    1.7847   26.0084   33.3799 H   0  0  0  0  0  0  0  0  0  0  0  0
    3.2502   26.2174   29.9733 H   0  0  0  0  0  0  0  0  0  0  0  0
   -1.2898   18.3330   44.7321 H   0  0  0  0  0  0  0  0  0  0  0  0
   -2.3484   17.6948   43.4287 H   0  0  0  0  0  0  0  0  0  0  0  0
   -0.5934   17.3118   43.4287 H   0  0  0  0  0  0  0  0  0  0  0  0
  1 18  1  0
  1  6  1  0
  3 11  2  0
  3 13  1  0
  6  5  1  0
  7 20  1  0
  8 27  1  0
  9 25  1  0
 10  2  1  6
 10 14  1  0
 11 19  1  0
 12 24  1  0
 12  4  1  0
 13 17  2  0
 14  4  1  0
 15 10  1  0
 15 14  1  0
 16 20  2  0
 17  8  1  0
 18 21  1  0
 19  8  2  0
 20  5  1  0
 21 28  1  0
 22 18  2  0
 25 24  1  0
 26  9  1  0
 26 10  1  0
 26 12  1  0
 27 29  1  0
 28 23  2  0
 28  3  1  0
  1 30  1  0
  2 31  1  0
  2 32  1  0
  2 33  1  0
  4 34  1  0
  4 35  1  0
  5 36  1  0
  5 37  1  0
  6 38  1  0
  6 39  1  0
  9 40  1  0
  9 41  1  0
 11 42  1  0
 12 43  1  6
 13 44  1  0
 14 45  1  1
 17 46  1  0
 19 47  1  0
 21 48  1  0
 24 49  1  0
 24 50  1  0
 26 51  1  6
 29 52  1  0
 29 53  1  0
 29 54  1  0
M  CHG  1   7  -1
M  END
>  <mol_id>  (76) 
2026-09-16-6tgu-s0-n100-0076

>  <rmsd_to_ref>  (76) 


$$$$

     RDKit          3D

 80 84  0  0  0  0  0  0  0  0999 V2000
    1.7389   17.4442   41.6024 C   0  0  0  0  0  0  0  0  0  0  0  0
    0.9855   18.1024   42.6398 C   0  0  0  0  0  0  0  0  0  0  0  0
    2.7596   19.4343   38.3128 C   0  0  0  0  0  0  0  0  0  0  0  0
    3.7446   16.8915   37.6511 C   0  0  0  0  0  0  0  0  0  0  0  0
    3.9773   19.6830   36.2977 O   0  0  0  0  0  0  0  0  0  0  0  0
    0.5421   19.5055   42.5406 C   0  0  0  0  0  0  0  0  0  0  0  0
    3.4909   16.8074   40.1673 C   0  0  0  0  0  0  0  0  0  0  0  0
    2.2742   23.7849   34.2757 N   0  0  0  0  0  0  0  0  0  0  0  0
    3.6683   22.1641   35.0761 C   0  0  0  0  0  0  0  0  0  0  0  0
    0.5293   26.7851   31.4617 C   0  0  0  0  0  0  0  0  0  0  0  0
    1.3712   20.3701   41.7239 C   0  0  0  0  0  0  0  0  0  0  0  0
    2.9360   12.0505   37.1189 C   0  0  0  0  0  0  0  0  0  0  0  0
    2.2088   21.3406   36.7257 C   0  0  0  0  0  0  0  0  0  0  0  0
    4.1466   23.7699   32.9290 C   0  0  0  0  0  0  0  0  0  0  0  0
    1.8225   19.6710   40.5115 C   0  0  0  0  0  0  0  0  0  0  0  0
    3.0214   17.7484   39.8548 C   0  0  0  0  0  0  0  0  0  0  0  0
    1.1415   25.5397   31.3461 C   0  0  0  0  0  0  0  0  0  0  0  0
    3.2658   15.5214   39.7275 C   0  0  0  0  0  0  0  0  0  0  0  0
    1.5584   24.7944   32.3262 C   0  0  0  0  0  0  0  0  0  0  0  0
    2.3787   18.6240   40.5193 C   0  0  0  0  0  0  0  0  0  0  0  0
    3.4701   14.2974   37.6877 N   0  0  0  0  0  0  0  0  0  0  0  0
    4.0478   12.9981   37.6766 C   0  0  1  0  0  0  0  0  0  0  0  0
    1.9881   20.2985   39.1876 C   0  0  0  0  0  0  0  0  0  0  0  0
    3.0449   18.0545   38.5618 C   0  0  0  0  0  0  0  0  0  0  0  0
    1.3057   27.2350   33.9751 C   0  0  0  0  0  0  0  0  0  0  0  0
    1.5471   23.1032   35.1991 C   0  0  0  0  0  0  0  0  0  0  0  0
    2.3663   12.7520   35.9589 N   0  0  0  0  0  0  0  0  0  0  0  0
    1.9307   24.9170   33.6805 C   0  0  0  0  0  0  0  0  0  0  0  0
    4.5184   12.7129   38.9588 C   0  0  0  0  0  0  0  0  0  0  0  0
    3.8841   15.5421   38.4206 C   0  0  1  0  0  0  0  0  0  0  0  0
    3.3076   22.9653   33.8240 C   0  0  2  0  0  0  0  0  0  0  0  0
    2.2185   21.6854   35.4207 C   0  0  1  0  0  0  0  0  0  0  0  0
    0.6414   27.4002   32.7563 C   0  0  0  0  0  0  0  0  0  0  0  0
    3.0476   20.0912   36.9836 C   0  0  0  0  0  0  0  0  0  0  0  0
    1.7986   26.0337   34.3828 C   0  0  0  0  0  0  0  0  0  0  0  0
    2.5648   16.8751   42.0541 H   0  0  0  0  0  0  0  0  0  0  0  0
    1.0799   16.7584   41.0498 H   0  0  0  0  0  0  0  0  0  0  0  0
    0.0724   17.5046   42.7776 H   0  0  0  0  0  0  0  0  0  0  0  0
    1.7285   18.1620   43.4488 H   0  0  0  0  0  0  0  0  0  0  0  0
    4.7462   17.2324   37.3502 H   0  0  0  0  0  0  0  0  0  0  0  0
    3.1009   16.7156   36.7767 H   0  0  0  0  0  0  0  0  0  0  0  0
   -0.4724   19.5102   42.1156 H   0  0  0  0  0  0  0  0  0  0  0  0
    0.5999   19.9112   43.5614 H   0  0  0  0  0  0  0  0  0  0  0  0
    4.5641   16.9694   39.9887 H   0  0  0  0  0  0  0  0  0  0  0  0
    2.9994   16.7159   41.1471 H   0  0  0  0  0  0  0  0  0  0  0  0
    4.1031   22.7927   35.8672 H   0  0  0  0  0  0  0  0  0  0  0  0
    4.4302   21.3798   34.9561 H   0  0  0  0  0  0  0  0  0  0  0  0
   -0.0008   27.2628   30.6246 H   0  0  0  0  0  0  0  0  0  0  0  0
    0.7894   21.2571   41.4329 H   0  0  0  0  0  0  0  0  0  0  0  0
    2.2546   20.6655   42.3090 H   0  0  0  0  0  0  0  0  0  0  0  0
    3.3705   11.0881   36.8106 H   0  0  0  0  0  0  0  0  0  0  0  0
    2.1709   11.8288   37.8774 H   0  0  0  0  0  0  0  0  0  0  0  0
    1.1717   21.1443   37.0352 H   0  0  0  0  0  0  0  0  0  0  0  0
    2.6412   22.1705   37.3039 H   0  0  0  0  0  0  0  0  0  0  0  0
    4.8011   24.4212   33.5270 H   0  0  0  0  0  0  0  0  0  0  0  0
    4.7620   23.1041   32.3062 H   0  0  0  0  0  0  0  0  0  0  0  0
    3.5059   24.3879   32.2829 H   0  0  0  0  0  0  0  0  0  0  0  0
    1.2861   25.1491   30.3280 H   0  0  0  0  0  0  0  0  0  0  0  0
    3.7466   14.7831   40.3861 H   0  0  0  0  0  0  0  0  0  0  0  0
    2.2037   15.2355   39.7128 H   0  0  0  0  0  0  0  0  0  0  0  0
    1.6483   23.7481   31.9987 H   0  0  0  0  0  0  0  0  0  0  0  0
    3.4718   14.5793   36.6970 H   0  0  0  0  0  0  0  0  0  0  0  0
    2.6489   14.0711   38.2666 H   0  0  0  0  0  0  0  0  0  0  0  0
    4.9308   12.8811   37.0312 H   0  0  0  0  0  0  0  0  0  0  0  0
    1.5846   21.2814   38.9032 H   0  0  0  0  0  0  0  0  0  0  0  0
    1.4350   28.1094   34.6298 H   0  0  0  0  0  0  0  0  0  0  0  0
    1.5355   23.6606   36.1474 H   0  0  0  0  0  0  0  0  0  0  0  0
    0.5123   22.9794   34.8473 H   0  0  0  0  0  0  0  0  0  0  0  0
    1.7170   13.4824   36.2843 H   0  0  0  0  0  0  0  0  0  0  0  0
    3.1248   13.1853   35.4132 H   0  0  0  0  0  0  0  0  0  0  0  0
    1.8580   12.0798   35.3668 H   0  0  0  0  0  0  0  0  0  0  0  0
    3.7986   13.0820   39.7042 H   0  0  0  0  0  0  0  0  0  0  0  0
    4.6382   11.6253   39.0720 H   0  0  0  0  0  0  0  0  0  0  0  0
    5.4896   13.2065   39.1112 H   0  0  0  0  0  0  0  0  0  0  0  0
    4.9784   15.5110   38.5272 H   0  0  0  0  0  0  0  0  0  0  0  0
    3.2179   22.1380   33.1046 H   0  0  0  0  0  0  0  0  0  0  0  0
    1.7747   20.8384   34.8770 H   0  0  0  0  0  0  0  0  0  0  0  0
    0.9451   28.4215   32.4831 H   0  0  0  0  0  0  0  0  0  0  0  0
   -0.2592   26.8886   33.1268 H   0  0  0  0  0  0  0  0  0  0  0  0
    2.1304   25.9827   35.4303 H   0  0  0  0  0  0  0  0  0  0  0  0
  1  2  1  0
  3 24  1  0
  3 23  2  0
  4 30  1  0
  4 24  1  0
  5 34  2  0
  6  2  1  0
  8 26  1  0
  9 32  1  0
 10 33  1  0
 11  6  1  0
 12 22  1  0
 13 34  1  0
 15 20  2  0
 15 11  1  0
 16  7  1  0
 16 20  1  0
 17 10  2  0
 17 19  1  0
 18  7  1  0
 19 28  2  0
 20  1  1  0
 22 21  1  0
 22 29  1  0
 23 15  1  0
 24 16  2  0
 25 35  2  0
 26 32  1  0
 27 12  1  0
 28  8  1  0
 28 35  1  0
 30 21  1  0
 30 18  1  0
 31 14  1  0
 31  8  1  0
 31  9  1  0
 32 13  1  0
 33 25  1  0
 34  3  1  0
  1 36  1  0
  1 37  1  0
  2 38  1  0
  2 39  1  0
  4 40  1  0
  4 41  1  0
  6 42  1  0
  6 43  1  0
  7 44  1  0
  7 45  1  0
  9 46  1  0
  9 47  1  0
 10 48  1  0
 11 49  1  0
 11 50  1  0
 12 51  1  0
 12 52  1  0
 13 53  1  0
 13 54  1  0
 14 55  1  0
 14 56  1  0
 14 57  1  0
 17 58  1  0
 18 59  1  0
 18 60  1  0
 19 61  1  0
 21 62  1  0
 21 63  1  0
 22 64  1  6
 23 65  1  0
 25 66  1  0
 26 67  1  0
 26 68  1  0
 27 69  1  0
 27 70  1  0
 27 71  1  0
 29 72  1  0
 29 73  1  0
 29 74  1  0
 30 75  1  1
 31 76  1  6
 32 77  1  6
 33 78  1  0
 33 79  1  0
 35 80  1  0
M  CHG  2  21   1  27   1
M  END
>  <mol_id>  (77) 
2026-09-16-6tgu-s0-n100-0077

>  <rmsd_to_ref>  (77) 


$$$$

     RDKit          3D

 44 45  0  0  0  0  0  0  0  0999 V2000
    4.5652   22.3922   32.3490 C   0  0  0  0  0  0  0  0  0  0  0  0
    1.8912   17.1719   40.1393 O   0  0  0  0  0  0  0  0  0  0  0  0
    2.2590   18.3606   39.4411 C   0  0  0  0  0  0  0  0  0  0  0  0
    2.0692   19.8372   41.3922 C   0  0  0  0  0  0  0  0  0  0  0  0
    3.7061   23.7404   32.8493 C   0  0  2  0  0  0  0  0  0  0  0  0
    2.8144   21.0052   36.7999 N   0  0  0  0  0  0  0  0  0  0  0  0
    3.3008   19.5323   35.3829 O   0  0  0  0  0  0  0  0  0  0  0  0
    2.2643   25.9375   29.6172 O   0  0  0  0  0  0  0  0  0  0  0  0
    1.5265   16.1436   39.3077 C   0  0  0  0  0  0  0  0  0  0  0  0
    3.2497   20.7463   35.4781 C   0  0  0  0  0  0  0  0  0  0  0  0
    3.1112   26.0590   31.5634 C   0  0  0  0  0  0  0  0  0  0  0  0
    2.6216   20.6656   39.0766 C   0  0  0  0  0  0  0  0  0  0  0  0
    4.3161   24.8236   30.0511 F   0  0  0  0  0  0  0  0  0  0  0  0
    3.4731   23.6285   34.6952 S   0  0  0  0  0  0  0  0  0  0  0  0
    3.8232   21.6071   33.3885 C   0  0  0  0  0  0  0  0  0  0  0  0
    3.1807   25.4625   30.3049 C   0  0  0  0  0  0  0  0  0  0  0  0
    2.5961   20.0642   37.9240 C   0  0  0  0  0  0  0  0  0  0  0  0
    2.5337   24.4476   32.1489 C   0  0  0  0  0  0  0  0  0  0  0  0
    2.5859   21.3361   41.7961 C   0  0  0  0  0  0  0  0  0  0  0  0
    2.3779   19.5389   40.0569 C   0  0  2  0  0  0  0  0  0  0  0  0
    2.3899   18.7214   37.9869 C   0  0  0  0  0  0  0  0  0  0  0  0
    3.8966   21.6860   34.9160 C   0  0  2  0  0  0  0  0  0  0  0  0
    4.3668   22.0817   31.3126 H   0  0  0  0  0  0  0  0  0  0  0  0
    5.6642   22.3934   32.3029 H   0  0  0  0  0  0  0  0  0  0  0  0
    2.5576   19.1005   42.0470 H   0  0  0  0  0  0  0  0  0  0  0  0
    0.9767   19.7995   41.5149 H   0  0  0  0  0  0  0  0  0  0  0  0
    4.3926   24.4828   32.4162 H   0  0  0  0  0  0  0  0  0  0  0  0
    2.6205   21.9943   37.0120 H   0  0  0  0  0  0  0  0  0  0  0  0
    1.5903   15.1905   39.8532 H   0  0  0  0  0  0  0  0  0  0  0  0
    0.4938   16.2999   38.9623 H   0  0  0  0  0  0  0  0  0  0  0  0
    2.2028   16.1158   38.4406 H   0  0  0  0  0  0  0  0  0  0  0  0
    2.3794   26.8755   31.6514 H   0  0  0  0  0  0  0  0  0  0  0  0
    3.9637   26.5846   32.0185 H   0  0  0  0  0  0  0  0  0  0  0  0
    2.7813   21.7333   39.2877 H   0  0  0  0  0  0  0  0  0  0  0  0
    2.7632   21.7925   33.1602 H   0  0  0  0  0  0  0  0  0  0  0  0
    4.3613   20.6557   33.2651 H   0  0  0  0  0  0  0  0  0  0  0  0
    2.1903   23.8432   31.2964 H   0  0  0  0  0  0  0  0  0  0  0  0
    1.6955   24.5768   32.8495 H   0  0  0  0  0  0  0  0  0  0  0  0
    2.9238   21.3378   42.8429 H   0  0  0  0  0  0  0  0  0  0  0  0
    3.4207   21.6252   41.1408 H   0  0  0  0  0  0  0  0  0  0  0  0
    1.7603   22.0532   41.6762 H   0  0  0  0  0  0  0  0  0  0  0  0
    3.0911   19.1802   40.8137 H   0  0  0  0  0  0  0  0  0  0  0  0
    2.3300   18.0291   37.1342 H   0  0  0  0  0  0  0  0  0  0  0  0
    4.7151   21.4936   35.6253 H   0  0  0  0  0  0  0  0  0  0  0  0
  1  5  1  0
  1 15  1  0
  3 20  1  0
  3  2  1  0
  4 19  1  0
  5 18  1  0
  5 14  1  0
  6 17  1  0
  8 16  2  0
  9  2  1  0
 10  7  2  0
 10  6  1  0
 11 18  1  0
 12 20  1  0
 14 22  1  0
 15 22  1  0
 16 13  1  0
 16 11  1  0
 17 21  1  0
 17 12  2  0
 20  4  1  0
 21  3  2  0
 22 10  1  0
  1 23  1  0
  1 24  1  0
  4 25  1  0
  4 26  1  0
  5 27  1  1
  6 28  1  0
  9 29  1  0
  9 30  1  0
  9 31  1  0
 11 32  1  0
 11 33  1  0
 12 34  1  0
 15 35  1  0
 15 36  1  0
 18 37  1  0
 18 38  1  0
 19 39  1  0
 19 40  1  0
 19 41  1  0
 20 42  1  1
 21 43  1  0
 22 44  1  6
M  END
>  <mol_id>  (78) 
2026-09-16-6tgu-s0-n100-0078

>  <rmsd_to_ref>  (78) 


$$$$

     RDKit          3D

 50 55  0  0  0  0  0  0  0  0999 V2000
    3.0447   13.2536   39.5402 N   0  0  0  0  0  0  0  0  0  0  0  0
    3.4673   18.4746   38.5034 N   0  0  0  0  0  0  0  0  0  0  0  0
    1.9557   22.2949   38.8051 C   0  0  0  0  0  0  0  0  0  0  0  0
    3.5715   19.0107   28.1552 C   0  0  0  0  0  0  0  0  0  0  0  0
    3.4361   19.7792   34.6194 C   0  0  0  0  0  0  0  0  0  0  0  0
    2.2248   20.1372   39.7678 C   0  0  0  0  0  0  0  0  0  0  0  0
    3.5872   19.0978   35.8331 C   0  0  0  0  0  0  0  0  0  0  0  0
    4.1460   17.2439   38.1411 C   0  0  0  0  0  0  0  0  0  0  0  0
    2.9939   19.6057   30.5842 C   0  0  2  0  0  0  0  0  0  0  0  0
    1.4612   20.4863   40.8342 C   0  0  0  0  0  0  0  0  0  0  0  0
    4.9557   16.3131   38.9454 C   0  0  0  0  0  0  0  0  0  0  0  0
    0.9636   21.8075   41.0349 C   0  0  0  0  0  0  0  0  0  0  0  0
    3.3159   18.6626   29.6016 C   0  0  2  0  0  0  0  0  0  0  0  0
    3.0791   18.1885   40.7004 O   0  0  0  0  0  0  0  0  0  0  0  0
    3.6944   13.3820   40.8977 N   0  0  0  0  0  0  0  0  0  0  0  0
    1.3169   22.7084   40.0333 C   0  0  0  0  0  0  0  0  0  0  0  0
    2.9564   19.6781   31.9581 C   0  0  0  0  0  0  0  0  0  0  0  0
    2.7056   20.4810   37.4956 O   0  0  0  0  0  0  0  0  0  0  0  0
    1.7926   18.7486   29.6806 C   0  0  2  0  0  0  0  0  0  0  0  0
    3.8713   15.4908   39.7916 C   0  0  0  0  0  0  0  0  0  0  0  0
    4.4599   14.6239   40.9410 C   0  0  0  0  0  0  0  0  0  0  0  0
    2.1161   18.6869   28.1492 C   0  0  1  0  0  0  0  0  0  0  0  0
    3.1437   14.5661   38.8164 C   0  0  0  0  0  0  0  0  0  0  0  0
    2.2544   20.9645   38.6917 C   0  0  0  0  0  0  0  0  0  0  0  0
    2.9759   18.8467   39.6948 C   0  0  0  0  0  0  0  0  0  0  0  0
    3.1073   19.8322   33.4074 C   0  0  0  0  0  0  0  0  0  0  0  0
    3.3933   19.2981   37.3476 C   0  0  0  0  0  0  0  0  0  0  0  0
    2.0535   12.9984   39.6558 H   0  0  0  0  0  0  0  0  0  0  0  0
    2.1895   23.0116   38.0040 H   0  0  0  0  0  0  0  0  0  0  0  0
    3.8468   20.0535   27.9390 H   0  0  0  0  0  0  0  0  0  0  0  0
    4.3439   18.5792   27.5016 H   0  0  0  0  0  0  0  0  0  0  0  0
    2.8059   20.6035   34.9846 H   0  0  0  0  0  0  0  0  0  0  0  0
    4.4084   19.3715   34.3054 H   0  0  0  0  0  0  0  0  0  0  0  0
    3.9711   18.0849   35.6416 H   0  0  0  0  0  0  0  0  0  0  0  0
    4.8223   17.5460   37.3280 H   0  0  0  0  0  0  0  0  0  0  0  0
    3.2483   16.6123   38.0684 H   0  0  0  0  0  0  0  0  0  0  0  0
    3.4295   20.5957   30.7845 H   0  0  0  0  0  0  0  0  0  0  0  0
    1.2149   19.7143   41.5781 H   0  0  0  0  0  0  0  0  0  0  0  0
    5.5383   15.6413   38.2979 H   0  0  0  0  0  0  0  0  0  0  0  0
    5.6881   16.8300   39.5829 H   0  0  0  0  0  0  0  0  0  0  0  0
    0.3535   22.0906   41.9054 H   0  0  0  0  0  0  0  0  0  0  0  0
    2.9684   13.3980   41.6282 H   0  0  0  0  0  0  0  0  0  0  0  0
    1.1011   23.7766   40.1832 H   0  0  0  0  0  0  0  0  0  0  0  0
    0.7512   18.5292   29.9589 H   0  0  0  0  0  0  0  0  0  0  0  0
    3.2142   16.2277   40.2764 H   0  0  0  0  0  0  0  0  0  0  0  0
    4.3301   15.1261   41.9111 H   0  0  0  0  0  0  0  0  0  0  0  0
    5.5397   14.4517   40.8213 H   0  0  0  0  0  0  0  0  0  0  0  0
    1.4315   18.5684   27.2963 H   0  0  0  0  0  0  0  0  0  0  0  0
    3.7189   14.4537   37.8855 H   0  0  0  0  0  0  0  0  0  0  0  0
    2.1575   14.9582   38.5272 H   0  0  0  0  0  0  0  0  0  0  0  0
  1 23  1  0
  1 15  1  0
  2 25  1  0
  3 16  1  0
  5  7  1  0
  6 10  2  0
  7 27  2  3
  8 11  1  0
  8  2  1  0
  9 17  1  0
 10 12  1  0
 11 20  1  0
 13  4  1  6
 13  9  1  0
 15 21  1  0
 16 12  2  0
 17 26  3  0
 18 24  1  0
 19 13  1  0
 19  9  1  0
 20 21  1  0
 22  4  1  0
 22 19  1  0
 22 13  1  0
 23 20  1  0
 24  6  1  0
 24  3  2  0
 25 14  2  0
 25  6  1  0
 26  5  1  0
 27  2  1  0
 27 18  1  0
  1 28  1  0
  3 29  1  0
  4 30  1  0
  4 31  1  0
  5 32  1  0
  5 33  1  0
  7 34  1  0
  8 35  1  0
  8 36  1  0
  9 37  1  6
 10 38  1  0
 11 39  1  0
 11 40  1  0
 12 41  1  0
 15 42  1  0
 16 43  1  0
 19 44  1  1
 20 45  1  0
 21 46  1  0
 21 47  1  0
 22 48  1  6
 23 49  1  0
 23 50  1  0
M  END
>  <mol_id>  (79) 
2026-09-16-6tgu-s0-n100-0079

>  <rmsd_to_ref>  (79) 


$$$$

     RDKit          3D

 45 47  0  0  0  0  0  0  0  0999 V2000
    4.2530   24.6647   32.9223 S   0  0  0  0  0  0  0  0  0  0  0  0
    4.7511   21.6499   36.7375 C   0  0  0  0  0  0  0  0  0  0  0  0
    3.9054   22.5740   36.0706 C   0  0  0  0  0  0  0  0  0  0  0  0
    2.6072   16.8718   40.9493 C   0  0  0  0  0  0  0  0  0  0  0  0
    3.8158   24.4407   34.5074 C   0  0  0  0  0  0  0  0  0  0  0  0
   -0.0928   15.6443   43.7741 C   0  0  0  0  0  0  0  0  0  0  0  0
    3.3018   16.1631   40.0196 C   0  0  0  0  0  0  0  0  0  0  0  0
    2.6758   24.8022   35.1576 O   0  0  0  0  0  0  0  0  0  0  0  0
    2.4758   18.1540   40.7612 C   0  0  0  0  0  0  0  0  0  0  0  0
    1.6494   15.0606   42.0437 C   0  0  0  0  0  0  0  0  0  0  0  0
    3.8826   16.8729   38.9674 C   0  0  0  0  0  0  0  0  0  0  0  0
    3.2214   14.7901   40.2340 C   0  0  0  0  0  0  0  0  0  0  0  0
    2.5073   14.1706   41.2207 C   0  0  0  0  0  0  0  0  0  0  0  0
    5.9317   23.0350   34.1969 C   0  0  0  0  0  0  0  0  0  0  0  0
    4.1354   19.0884   37.5103 C   0  0  0  0  0  0  0  0  0  0  0  0
    2.4227   22.6919   36.3605 C   0  0  0  0  0  0  0  0  0  0  0  0
    3.6230   18.3277   38.7457 C   0  0  0  0  0  0  0  0  0  0  0  0
    2.7864   18.9618   39.6569 C   0  0  0  0  0  0  0  0  0  0  0  0
    0.6485   14.7653   42.9028 O   0  0  0  0  0  0  0  0  0  0  0  0
    5.0491   23.6671   35.3092 C   0  0  2  0  0  0  0  0  0  0  0  0
    4.2819   20.5194   37.7853 C   0  0  0  0  0  0  0  0  0  0  0  0
    5.7995   23.7528   32.8274 C   0  0  0  0  0  0  0  0  0  0  0  0
    1.9218   16.4247   41.9318 C   0  0  0  0  0  0  0  0  0  0  0  0
    5.8274   21.7112   36.5188 H   0  0  0  0  0  0  0  0  0  0  0  0
   -0.0827   15.2405   44.7972 H   0  0  0  0  0  0  0  0  0  0  0  0
    0.3706   16.6419   43.7691 H   0  0  0  0  0  0  0  0  0  0  0  0
   -1.1316   15.7208   43.4203 H   0  0  0  0  0  0  0  0  0  0  0  0
    2.0473   18.6975   41.6162 H   0  0  0  0  0  0  0  0  0  0  0  0
    4.5552   16.3428   38.2771 H   0  0  0  0  0  0  0  0  0  0  0  0
    3.7850   14.1437   39.5452 H   0  0  0  0  0  0  0  0  0  0  0  0
    2.5642   13.0858   41.3937 H   0  0  0  0  0  0  0  0  0  0  0  0
    6.9833   23.0828   34.5162 H   0  0  0  0  0  0  0  0  0  0  0  0
    5.5880   21.9995   34.0569 H   0  0  0  0  0  0  0  0  0  0  0  0
    5.1135   18.6783   37.2181 H   0  0  0  0  0  0  0  0  0  0  0  0
    3.4020   18.9654   36.6998 H   0  0  0  0  0  0  0  0  0  0  0  0
    2.2351   22.4477   37.4166 H   0  0  0  0  0  0  0  0  0  0  0  0
    2.0901   23.7205   36.1573 H   0  0  0  0  0  0  0  0  0  0  0  0
    1.8668   21.9931   35.7181 H   0  0  0  0  0  0  0  0  0  0  0  0
    2.4085   19.9866   39.5262 H   0  0  0  0  0  0  0  0  0  0  0  0
    5.7706   24.1600   35.9774 H   0  0  0  0  0  0  0  0  0  0  0  0
    5.0027   20.5797   38.6140 H   0  0  0  0  0  0  0  0  0  0  0  0
    3.2223   20.7955   37.8912 H   0  0  0  0  0  0  0  0  0  0  0  0
    5.7652   23.0189   32.0087 H   0  0  0  0  0  0  0  0  0  0  0  0
    6.6553   24.4135   32.6247 H   0  0  0  0  0  0  0  0  0  0  0  0
    1.5438   17.1208   42.6950 H   0  0  0  0  0  0  0  0  0  0  0  0
  1  5  1  0
  2 21  1  0
  3 16  1  0
  3  2  2  3
  4 23  1  0
  5  8  2  0
  5 20  1  0
  7 12  1  0
  7  4  1  0
  9  4  2  0
 10 19  1  0
 11  7  2  0
 12 13  2  0
 13 10  1  0
 14 20  1  0
 15 17  1  0
 17 11  1  0
 17 18  2  0
 18  9  1  0
 19  6  1  0
 20  3  1  0
 21 15  1  0
 22  1  1  0
 22 14  1  0
 23 10  2  0
  2 24  1  0
  6 25  1  0
  6 26  1  0
  6 27  1  0
  9 28  1  0
 11 29  1  0
 12 30  1  0
 13 31  1  0
 14 32  1  0
 14 33  1  0
 15 34  1  0
 15 35  1  0
 16 36  1  0
 16 37  1  0
 16 38  1  0
 18 39  1  0
 20 40  1  1
 21 41  1  0
 21 42  1  0
 22 43  1  0
 22 44  1  0
 23 45  1  0
M  END
>  <mol_id>  (80) 
2026-09-16-6tgu-s0-n100-0080

>  <rmsd_to_ref>  (80) 


$$$$

     RDKit          3D

 75 79  0  0  0  0  0  0  0  0999 V2000
    0.3113   17.4436   42.2633 C   0  0  0  0  0  0  0  0  0  0  0  0
   -0.3512   16.2458   42.9138 C   0  0  0  0  0  0  0  0  0  0  0  0
    1.2937   19.2697   41.3925 C   0  0  0  0  0  0  0  0  0  0  0  0
    2.3718   23.4371   32.1562 C   0  0  0  0  0  0  0  0  0  0  0  0
    1.4904   17.1303   41.6015 N   0  0  0  0  0  0  0  0  0  0  0  0
    2.4171   21.9778   34.5189 C   0  0  0  0  0  0  0  0  0  0  0  0
    3.2989   24.2596   28.4169 C   0  0  0  0  0  0  0  0  0  0  0  0
   -2.2143   17.9849   42.7614 C   0  0  1  0  0  0  0  0  0  0  0  0
    2.1952   20.2491   38.0961 C   0  0  0  0  0  0  0  0  0  0  0  0
    4.1756   18.8115   40.8551 O   0  0  0  0  0  0  0  0  0  0  0  0
    2.1326   24.1637   28.8008 F   0  0  0  0  0  0  0  0  0  0  0  0
   -0.7466   19.7271   42.3440 C   0  0  0  0  0  0  0  0  0  0  0  0
   -1.8512   16.5613   42.9467 C   0  0  0  0  0  0  0  0  0  0  0  0
    5.0116   25.2992   29.4375 C   0  0  0  0  0  0  0  0  0  0  0  0
    3.1007   17.5459   39.0688 C   0  0  2  0  0  0  0  0  0  0  0  0
   -2.2690   18.2900   44.3362 O   0  0  0  0  0  0  0  0  0  0  0  0
    4.0547   22.1162   34.5957 C   0  0  2  0  0  0  0  0  0  0  0  0
    3.0951   24.0342   31.7628 C   0  0  0  0  0  0  0  0  0  0  0  0
    3.7251   16.2349   39.1678 C   0  0  0  0  0  0  0  0  0  0  0  0
    3.9925   20.5231   36.6300 C   0  0  0  0  0  0  0  0  0  0  0  0
    3.6408   18.4714   37.9657 C   0  0  0  0  0  0  0  0  0  0  0  0
    5.3026   24.4235   30.4442 N   0  0  0  0  0  0  0  0  0  0  0  0
    3.4659   23.1624   32.4112 C   0  0  0  0  0  0  0  0  0  0  0  0
   -2.0332   19.1699   42.3521 C   0  0  0  0  0  0  0  0  0  0  0  0
    4.5876   22.3927   33.1308 C   0  0  0  0  0  0  0  0  0  0  0  0
    5.1815   14.4882   38.7748 C   0  0  0  0  0  0  0  0  0  0  0  0
    0.3478   18.8865   41.9823 C   0  0  0  0  0  0  0  0  0  0  0  0
    3.2731   21.8227   35.9777 C   0  0  2  0  0  0  0  0  0  0  0  0
    2.0263   18.1352   41.1095 N   0  0  0  0  0  0  0  0  0  0  0  0
    4.8649   15.8073   38.5667 N   0  0  0  0  0  0  0  0  0  0  0  0
    4.4733   24.0538   29.2345 C   0  0  1  0  0  0  0  0  0  0  0  0
    3.4932   24.6602   27.2372 F   0  0  0  0  0  0  0  0  0  0  0  0
    3.2044   18.2978   40.3265 C   0  0  0  0  0  0  0  0  0  0  0  0
    3.9992   13.7485   39.3013 C   0  0  0  0  0  0  0  0  0  0  0  0
    3.0369   14.9213   40.1214 S   0  0  0  0  0  0  0  0  0  0  0  0
    3.2824   19.7039   37.5043 C   0  0  0  0  0  0  0  0  0  0  0  0
   -0.1643   15.3373   42.3226 H   0  0  0  0  0  0  0  0  0  0  0  0
    0.0453   16.0640   43.9236 H   0  0  0  0  0  0  0  0  0  0  0  0
    1.5395   20.3080   41.1253 H   0  0  0  0  0  0  0  0  0  0  0  0
    1.7910   22.7815   31.4907 H   0  0  0  0  0  0  0  0  0  0  0  0
    1.4779   23.6323   32.7669 H   0  0  0  0  0  0  0  0  0  0  0  0
    1.9548   21.0972   34.0490 H   0  0  0  0  0  0  0  0  0  0  0  0
    1.5872   22.5990   34.1510 H   0  0  0  0  0  0  0  0  0  0  0  0
    3.2993   25.3265   28.6847 H   0  0  0  0  0  0  0  0  0  0  0  0
   -2.6593   17.7786   41.7768 H   0  0  0  0  0  0  0  0  0  0  0  0
    1.5931   19.6523   38.7969 H   0  0  0  0  0  0  0  0  0  0  0  0
    1.9131   21.2894   37.8765 H   0  0  0  0  0  0  0  0  0  0  0  0
   -0.7598   20.5689   41.6360 H   0  0  0  0  0  0  0  0  0  0  0  0
   -0.5551   19.9882   43.3953 H   0  0  0  0  0  0  0  0  0  0  0  0
   -2.3355   15.9825   42.1464 H   0  0  0  0  0  0  0  0  0  0  0  0
   -2.1904   16.2956   43.9588 H   0  0  0  0  0  0  0  0  0  0  0  0
    4.3347   26.1407   29.6471 H   0  0  0  0  0  0  0  0  0  0  0  0
    5.6534   25.9327   28.8077 H   0  0  0  0  0  0  0  0  0  0  0  0
    2.0621   17.2859   38.8161 H   0  0  0  0  0  0  0  0  0  0  0  0
   -2.9117   17.6741   44.7694 H   0  0  0  0  0  0  0  0  0  0  0  0
    3.9554   23.1988   34.7638 H   0  0  0  0  0  0  0  0  0  0  0  0
    3.2783   24.0138   30.6783 H   0  0  0  0  0  0  0  0  0  0  0  0
    3.2713   25.1196   31.7899 H   0  0  0  0  0  0  0  0  0  0  0  0
    4.8723   20.8887   37.1799 H   0  0  0  0  0  0  0  0  0  0  0  0
    4.1761   19.8715   35.7629 H   0  0  0  0  0  0  0  0  0  0  0  0
    4.6940   18.6097   38.2513 H   0  0  0  0  0  0  0  0  0  0  0  0
    3.1918   17.9127   37.1313 H   0  0  0  0  0  0  0  0  0  0  0  0
    6.2574   24.0542   30.5570 H   0  0  0  0  0  0  0  0  0  0  0  0
    5.1839   24.3962   31.4670 H   0  0  0  0  0  0  0  0  0  0  0  0
    3.5121   22.5192   31.5200 H   0  0  0  0  0  0  0  0  0  0  0  0
   -2.6556   19.8209   42.9836 H   0  0  0  0  0  0  0  0  0  0  0  0
   -2.2837   19.1054   41.2829 H   0  0  0  0  0  0  0  0  0  0  0  0
    5.5053   22.9981   33.1656 H   0  0  0  0  0  0  0  0  0  0  0  0
    4.8344   21.4569   32.6079 H   0  0  0  0  0  0  0  0  0  0  0  0
    6.0038   14.4229   39.5025 H   0  0  0  0  0  0  0  0  0  0  0  0
    5.4875   14.0389   37.8185 H   0  0  0  0  0  0  0  0  0  0  0  0
    2.9577   22.2159   36.9553 H   0  0  0  0  0  0  0  0  0  0  0  0
    4.3692   23.0036   28.9244 H   0  0  0  0  0  0  0  0  0  0  0  0
    3.4309   13.2970   38.4748 H   0  0  0  0  0  0  0  0  0  0  0  0
    4.2999   12.9308   39.9728 H   0  0  0  0  0  0  0  0  0  0  0  0
  1  2  1  0
  2 13  1  0
  3 27  2  0
  4 23  1  0
  5  1  2  0
  6 28  1  0
  7 11  1  0
  8 13  1  0
  8 16  1  0
 12 24  1  0
 14 22  1  0
 15 21  1  0
 15 33  1  0
 17 25  1  0
 17  6  1  0
 17 28  1  0
 18  4  1  0
 18 23  1  0
 19 15  1  0
 19 35  1  0
 20 36  1  0
 23 25  1  0
 24  8  1  0
 26 34  1  0
 27  1  1  0
 27 12  1  0
 28 20  1  0
 29  3  1  0
 29  5  1  0
 30 26  1  0
 30 19  2  0
 31  7  1  0
 31 14  1  0
 31 22  1  0
 32  7  1  0
 33 10  2  0
 33 29  1  0
 34 35  1  0
 36 21  1  0
 36  9  2  3
  2 37  1  0
  2 38  1  0
  3 39  1  0
  4 40  1  0
  4 41  1  0
  6 42  1  0
  6 43  1  0
  7 44  1  0
  8 45  1  6
  9 46  1  0
  9 47  1  0
 12 48  1  0
 12 49  1  0
 13 50  1  0
 13 51  1  0
 14 52  1  0
 14 53  1  0
 15 54  1  6
 16 55  1  0
 17 56  1  1
 18 57  1  0
 18 58  1  0
 20 59  1  0
 20 60  1  0
 21 61  1  0
 21 62  1  0
 22 63  1  0
 22 64  1  0
 23 65  1  0
 24 66  1  0
 24 67  1  0
 25 68  1  0
 25 69  1  0
 26 70  1  0
 26 71  1  0
 28 72  1  1
 31 73  1  6
 34 74  1  0
 34 75  1  0
M  CHG  1  22   1
M  END
>  <mol_id>  (81) 
2026-09-16-6tgu-s0-n100-0081

>  <rmsd_to_ref>  (81) 


$$$$

     RDKit          3D

105107  0  0  0  0  0  0  0  0999 V2000
    2.9425   24.8466   29.9103 C   0  0  0  0  0  0  0  0  0  0  0  0
    2.4838   22.2894   39.9839 Cl  0  0  0  0  0  0  0  0  0  0  0  0
    3.8681   11.6794   37.6313 C   0  0  1  0  0  0  0  0  0  0  0  0
    0.6004    8.9331   36.6114 O   0  0  0  0  0  0  0  0  0  0  0  0
    2.1984   10.8024   36.4488 N   0  0  0  0  0  0  0  0  0  0  0  0
    6.4526   23.6747   33.7430 C   0  0  0  0  0  0  0  0  0  0  0  0
    3.5315   25.2750   31.2300 C   0  0  0  0  0  0  0  0  0  0  0  0
    4.5640   25.4152   33.9674 C   0  0  0  0  0  0  0  0  0  0  0  0
    4.2351   14.0863   38.7411 C   0  0  2  0  0  0  0  0  0  0  0  0
    1.9735   29.3770   33.5986 O   0  0  0  0  0  0  0  0  0  0  0  0
   -1.1070   20.3383   42.0345 C   0  0  0  0  0  0  0  0  0  0  0  0
    5.5631   13.5582   39.1621 N   0  0  0  0  0  0  0  0  0  0  0  0
    5.3421   19.4549   34.8605 N   0  0  0  0  0  0  0  0  0  0  0  0
    3.4956   13.2352   37.7907 C   0  0  0  0  0  0  0  0  0  0  0  0
    0.0682   19.8371   41.6187 C   0  0  0  0  0  0  0  0  0  0  0  0
    3.8801   26.5754   33.2561 C   0  0  0  0  0  0  0  0  0  0  0  0
    3.4533   27.6707   34.1481 C   0  0  0  0  0  0  0  0  0  0  0  0
    3.3002   20.1070   38.3118 C   0  0  0  0  0  0  0  0  0  0  0  0
    2.0407   18.2024   39.8087 C   0  0  0  0  0  0  0  0  0  0  0  0
    1.5251    9.4958   36.9896 C   0  0  0  0  0  0  0  0  0  0  0  0
    2.5326   20.6512   39.3164 C   0  0  0  0  0  0  0  0  0  0  0  0
    4.1625   15.4117   38.3152 O   0  0  0  0  0  0  0  0  0  0  0  0
    3.6239   18.8038   38.0938 C   0  0  0  0  0  0  0  0  0  0  0  0
    6.4604    9.5072   34.5172 C   0  0  0  0  0  0  0  0  0  0  0  0
    2.8267   15.7694   39.9921 O   0  0  0  0  0  0  0  0  0  0  0  0
    6.2895   11.5273   32.9636 C   0  0  0  0  0  0  0  0  0  0  0  0
    6.1157   12.4282   38.8482 C   0  0  0  0  0  0  0  0  0  0  0  0
    0.6641   20.4210   40.6148 O   0  0  0  0  0  0  0  0  0  0  0  0
    7.0717   24.0457   32.8647 C   0  0  0  0  0  0  0  0  0  0  0  0
    1.2916   27.8704   32.0110 O   0  0  0  0  0  0  0  0  0  0  0  0
    8.5134   23.5246   32.3066 F   0  0  0  0  0  0  0  0  0  0  0  0
    6.3225   23.9958   31.4173 O   0  0  0  0  0  0  0  0  0  0  0  0
    4.4693   19.6216   35.9578 C   0  0  0  0  0  0  0  0  0  0  0  0
    3.5629   20.5574   35.9108 O   0  0  0  0  0  0  0  0  0  0  0  0
    3.5582   10.9099   36.2546 C   0  0  1  0  0  0  0  0  0  0  0  0
    3.4110   16.3102   39.0191 C   0  0  0  0  0  0  0  0  0  0  0  0
    2.5897   28.4017   33.5785 N   0  0  0  0  0  0  0  0  0  0  0  0
    5.3060   11.4286   37.8573 C   0  0  0  0  0  0  0  0  0  0  0  0
    5.6362   10.7021   34.0230 C   0  0  0  0  0  0  0  0  0  0  0  0
    2.7047   12.1531   34.2793 N   0  0  0  0  0  0  0  0  0  0  0  0
   -0.0852   18.1225   43.2652 C   0  0  0  0  0  0  0  0  0  0  0  0
    4.1025   24.0694   31.9705 C   0  0  0  0  0  0  0  0  0  0  0  0
    3.0895   17.7805   38.9871 C   0  0  0  0  0  0  0  0  0  0  0  0
    0.5859   18.7710   42.2290 C   0  0  0  0  0  0  0  0  0  0  0  0
    2.0241    9.1175   38.2525 N   0  0  0  0  0  0  0  0  0  0  0  0
    4.2360   10.2594   33.6411 C   0  0  0  0  0  0  0  0  0  0  0  0
    3.1532   26.3246   32.0760 O   0  0  0  0  0  0  0  0  0  0  0  0
    1.8518   26.3541   29.9382 S   0  0  0  0  0  0  0  0  0  0  0  0
   -1.7937   19.7580   43.0809 C   0  0  0  0  0  0  0  0  0  0  0  0
    1.7674   19.6447   39.9153 C   0  0  0  0  0  0  0  0  0  0  0  0
    7.5243   25.1429   33.7971 C   0  0  0  0  0  0  0  0  0  0  0  0
    3.2412   10.9045   34.6516 C   0  0  1  0  0  0  0  0  0  0  0  0
    4.5251   18.5919   36.9569 N   0  0  0  0  0  0  0  0  0  0  0  0
    0.4344   17.0499   43.8156 O   0  0  0  0  0  0  0  0  0  0  0  0
    1.7439   28.4266   32.6498 C   0  0  0  0  0  0  0  0  0  0  0  0
    4.7067   24.1613   33.2334 O   0  0  0  0  0  0  0  0  0  0  0  0
   -1.3173   18.6647   43.7621 C   0  0  0  0  0  0  0  0  0  0  0  0
    2.3964   23.8924   29.9472 H   0  0  0  0  0  0  0  0  0  0  0  0
    3.5894   24.6345   29.0463 H   0  0  0  0  0  0  0  0  0  0  0  0
    3.1792   11.2789   38.3897 H   0  0  0  0  0  0  0  0  0  0  0  0
    1.6015   11.6127   36.2298 H   0  0  0  0  0  0  0  0  0  0  0  0
    6.7684   24.1943   34.6596 H   0  0  0  0  0  0  0  0  0  0  0  0
    5.3885   23.8789   33.5537 H   0  0  0  0  0  0  0  0  0  0  0  0
    6.6021   22.5918   33.8654 H   0  0  0  0  0  0  0  0  0  0  0  0
    4.9369   25.5183   34.9970 H   0  0  0  0  0  0  0  0  0  0  0  0
    3.7385   14.0583   39.7223 H   0  0  0  0  0  0  0  0  0  0  0  0
   -1.5272   21.2232   41.5340 H   0  0  0  0  0  0  0  0  0  0  0  0
    6.0632   18.7198   34.8831 H   0  0  0  0  0  0  0  0  0  0  0  0
    5.2576   20.0683   34.0374 H   0  0  0  0  0  0  0  0  0  0  0  0
    3.6171   13.6921   36.7975 H   0  0  0  0  0  0  0  0  0  0  0  0
    2.4832   13.2054   38.2198 H   0  0  0  0  0  0  0  0  0  0  0  0
    3.0170   27.2423   35.0625 H   0  0  0  0  0  0  0  0  0  0  0  0
    4.3301   28.2870   34.3957 H   0  0  0  0  0  0  0  0  0  0  0  0
    3.7081   20.8248   37.5849 H   0  0  0  0  0  0  0  0  0  0  0  0
    1.4328   17.4726   40.3635 H   0  0  0  0  0  0  0  0  0  0  0  0
    6.4327    9.4721   35.6163 H   0  0  0  0  0  0  0  0  0  0  0  0
    6.0380    8.5768   34.1099 H   0  0  0  0  0  0  0  0  0  0  0  0
    7.5018    9.6155   34.1800 H   0  0  0  0  0  0  0  0  0  0  0  0
    6.6976   12.4447   33.4129 H   0  0  0  0  0  0  0  0  0  0  0  0
    7.1047   10.9516   32.5009 H   0  0  0  0  0  0  0  0  0  0  0  0
    5.5474   11.7936   32.1965 H   0  0  0  0  0  0  0  0  0  0  0  0
    7.1055   12.1542   39.2422 H   0  0  0  0  0  0  0  0  0  0  0  0
    5.3503   24.1336   31.5440 H   0  0  0  0  0  0  0  0  0  0  0  0
    4.5786   10.4994   36.2376 H   0  0  0  0  0  0  0  0  0  0  0  0
    5.3984   10.4139   38.2718 H   0  0  0  0  0  0  0  0  0  0  0  0
    5.7678   11.5905   36.8721 H   0  0  0  0  0  0  0  0  0  0  0  0
    5.5667   11.3938   34.8754 H   0  0  0  0  0  0  0  0  0  0  0  0
    2.4073   12.6642   35.1226 H   0  0  0  0  0  0  0  0  0  0  0  0
    3.4215   12.7000   33.7813 H   0  0  0  0  0  0  0  0  0  0  0  0
    1.8932   12.0077   33.6618 H   0  0  0  0  0  0  0  0  0  0  0  0
    4.0376   23.0813   31.4914 H   0  0  0  0  0  0  0  0  0  0  0  0
    1.5675   18.3931   41.9070 H   0  0  0  0  0  0  0  0  0  0  0  0
    2.8527    9.5897   38.6414 H   0  0  0  0  0  0  0  0  0  0  0  0
    1.5600    8.3690   38.7865 H   0  0  0  0  0  0  0  0  0  0  0  0
    4.0026   10.5954   32.6199 H   0  0  0  0  0  0  0  0  0  0  0  0
    4.1577    9.1626   33.6714 H   0  0  0  0  0  0  0  0  0  0  0  0
    1.5562   26.6800   31.2356 H   0  0  0  0  0  0  0  0  0  0  0  0
   -2.7607   20.1878   43.3814 H   0  0  0  0  0  0  0  0  0  0  0  0
    7.1878   24.9171   34.8197 H   0  0  0  0  0  0  0  0  0  0  0  0
    8.6221   25.2100   33.7788 H   0  0  0  0  0  0  0  0  0  0  0  0
    7.0929   26.1012   33.4724 H   0  0  0  0  0  0  0  0  0  0  0  0
    2.4874   10.1114   34.5381 H   0  0  0  0  0  0  0  0  0  0  0  0
    5.1459   17.7734   36.8813 H   0  0  0  0  0  0  0  0  0  0  0  0
    1.2846   16.6787   43.4701 H   0  0  0  0  0  0  0  0  0  0  0  0
   -1.8431   18.2351   44.6275 H   0  0  0  0  0  0  0  0  0  0  0  0
  1 48  1  0
  1  7  1  0
  3 35  1  0
  3 38  1  0
  3 14  1  0
  4 20  2  0
  5 20  1  0
  7 42  2  0
  7 47  1  0
  9 22  1  0
  9 12  1  0
 11 49  1  0
 13 33  1  0
 14  9  1  0
 15 44  1  0
 15 11  2  0
 16  8  2  0
 16 17  1  0
 18 21  2  0
 19 50  2  0
 20 45  1  0
 21 50  1  0
 21  2  1  0
 22 36  1  0
 23 18  1  0
 23 43  2  0
 26 39  1  0
 27 12  2  0
 28 15  1  0
 29  6  1  0
 29 51  1  0
 30 55  2  0
 31 29  1  0
 32 29  1  0
 33 34  2  0
 33 53  1  0
 35  5  1  0
 36 43  1  0
 36 25  2  0
 37 10  1  0
 37 17  1  0
 38 27  1  0
 39 24  1  0
 41 54  1  0
 41 57  1  0
 42 56  1  0
 43 19  1  0
 44 41  2  0
 46 39  1  0
 46 52  1  0
 47 16  1  0
 49 57  2  0
 50 28  1  0
 52 40  1  0
 52 35  1  0
 53 23  1  0
 55 37  1  0
 55 10  1  0
 56  8  1  0
  1 58  1  0
  1 59  1  0
  3 60  1  1
  5 61  1  0
  6 62  1  0
  6 63  1  0
  6 64  1  0
  8 65  1  0
  9 66  1  1
 11 67  1  0
 13 68  1  0
 13 69  1  0
 14 70  1  0
 14 71  1  0
 17 72  1  0
 17 73  1  0
 18 74  1  0
 19 75  1  0
 24 76  1  0
 24 77  1  0
 24 78  1  0
 26 79  1  0
 26 80  1  0
 26 81  1  0
 27 82  1  0
 32 83  1  0
 35 84  1  6
 38 85  1  0
 38 86  1  0
 39 87  1  0
 40 88  1  0
 40 89  1  0
 40 90  1  0
 42 91  1  0
 44 92  1  0
 45 93  1  0
 45 94  1  0
 46 95  1  0
 46 96  1  0
 48 97  1  0
 49 98  1  0
 51 99  1  0
 51100  1  0
 51101  1  0
 52102  1  1
 53103  1  0
 54104  1  0
 57105  1  0
M  CHG  1  40   1
M  END
>  <mol_id>  (82) 
2026-09-16-6tgu-s0-n100-0082

>  <rmsd_to_ref>  (82) 


$$$$

     RDKit          3D

 37 37  0  0  0  0  0  0  0  0999 V2000
    2.2867   16.7389   40.4342 C   0  0  0  0  0  0  0  0  0  0  0  0
    0.8476   19.3848   42.7802 C   0  0  0  0  0  0  0  0  0  0  0  0
    3.3893   18.3078   35.6074 C   0  0  0  0  0  0  0  0  0  0  0  0
    1.7115   18.4187   42.2588 O   0  0  0  0  0  0  0  0  0  0  0  0
    3.2477   22.8868   34.1034 C   0  0  0  0  0  0  0  0  0  0  0  0
    4.1289   22.6914   32.9514 C   0  0  0  0  0  0  0  0  0  0  0  0
    2.1138   19.0016   38.2000 C   0  0  0  0  0  0  0  0  0  0  0  0
    3.5257   24.0184   33.0544 C   0  0  0  0  0  0  0  0  0  0  0  0
    2.5082   21.5018   36.4867 C   0  0  0  0  0  0  0  0  0  0  0  0
    3.5116   19.3833   36.5407 O   0  0  0  0  0  0  0  0  0  0  0  0
    1.3552   19.3178   39.8789 S   0  0  0  0  0  0  0  0  0  0  0  0
    2.3219   20.1050   37.0290 C   0  0  1  0  0  0  0  0  0  0  0  0
    1.4365   17.8550   40.8915 C   0  0  1  0  0  0  0  0  0  0  0  0
   -0.3695   18.5564   43.1201 C   0  0  0  0  0  0  0  0  0  0  0  0
    2.9402   21.6309   35.0484 C   0  0  0  0  0  0  0  0  0  0  0  0
    2.6130   16.1471   41.3021 H   0  0  0  0  0  0  0  0  0  0  0  0
    1.7132   16.0982   39.7482 H   0  0  0  0  0  0  0  0  0  0  0  0
    3.1678   17.1395   39.9113 H   0  0  0  0  0  0  0  0  0  0  0  0
    0.6113   20.1566   42.0328 H   0  0  0  0  0  0  0  0  0  0  0  0
    1.2623   19.9403   43.6343 H   0  0  0  0  0  0  0  0  0  0  0  0
    3.3766   17.3511   36.1501 H   0  0  0  0  0  0  0  0  0  0  0  0
    2.4539   18.4196   35.0395 H   0  0  0  0  0  0  0  0  0  0  0  0
    4.2433   18.3249   34.9143 H   0  0  0  0  0  0  0  0  0  0  0  0
    4.1179   23.1421   34.7259 H   0  0  0  0  0  0  0  0  0  0  0  0
    5.2107   22.5799   33.1168 H   0  0  0  0  0  0  0  0  0  0  0  0
    4.1541   21.9413   32.1473 H   0  0  0  0  0  0  0  0  0  0  0  0
    3.1192   18.6062   38.4068 H   0  0  0  0  0  0  0  0  0  0  0  0
    1.3199   18.3906   37.7456 H   0  0  0  0  0  0  0  0  0  0  0  0
    4.1404   24.8895   33.3255 H   0  0  0  0  0  0  0  0  0  0  0  0
    2.9151   24.6627   32.4048 H   0  0  0  0  0  0  0  0  0  0  0  0
    2.3359   22.3881   37.1149 H   0  0  0  0  0  0  0  0  0  0  0  0
    1.2705   20.4255   36.9878 H   0  0  0  0  0  0  0  0  0  0  0  0
    0.5008   17.2780   40.8515 H   0  0  0  0  0  0  0  0  0  0  0  0
   -0.3416   18.2839   44.1854 H   0  0  0  0  0  0  0  0  0  0  0  0
   -1.2792   19.1396   42.9145 H   0  0  0  0  0  0  0  0  0  0  0  0
   -0.3737   17.6426   42.5078 H   0  0  0  0  0  0  0  0  0  0  0  0
    3.0714   20.6624   34.5435 H   0  0  0  0  0  0  0  0  0  0  0  0
  2 14  1  0
  3 10  1  0
  4  2  1  0
  5 15  1  0
  6  5  1  0
  7 11  1  0
  8  6  1  0
  8  5  1  0
 10 12  1  0
 11 13  1  0
 12  9  1  0
 12  7  1  0
 13  1  1  0
 13  4  1  0
 15  9  2  3
  1 16  1  0
  1 17  1  0
  1 18  1  0
  2 19  1  0
  2 20  1  0
  3 21  1  0
  3 22  1  0
  3 23  1  0
  5 24  1  0
  6 25  1  0
  6 26  1  0
  7 27  1  0
  7 28  1  0
  8 29  1  0
  8 30  1  0
  9 31  1  0
 12 32  1  6
 13 33  1  1
 14 34  1  0
 14 35  1  0
 14 36  1  0
 15 37  1  0
M  END
>  <mol_id>  (83) 
2026-09-16-6tgu-s0-n100-0083

>  <rmsd_to_ref>  (83) 


$$$$

     RDKit          3D

 58 59  0  0  0  0  0  0  0  0999 V2000
    2.2583   24.3584   33.0728 C   0  0  1  0  0  0  0  0  0  0  0  0
    2.3717   15.4543   41.0635 C   0  0  0  0  0  0  0  0  0  0  0  0
    2.9319   22.9828   33.7970 C   0  0  0  0  0  0  0  0  0  0  0  0
    3.4125   15.5362   39.0003 O   0  0  0  0  0  0  0  0  0  0  0  0
    1.0977   26.2463   32.7995 C   0  0  1  0  0  0  0  0  0  0  0  0
    4.2766   18.6181   37.2085 O   0  0  0  0  0  0  0  0  0  0  0  0
    2.6171   17.6410   39.8135 C   0  0  0  0  0  0  0  0  0  0  0  0
    1.7726   13.9313   42.4438 C   0  0  0  0  0  0  0  0  0  0  0  0
    0.8737   17.4128   42.2874 C   0  0  0  0  0  0  0  0  0  0  0  0
    1.3384   25.3474   33.7399 O   0  0  0  0  0  0  0  0  0  0  0  0
    1.2400   15.0173   42.8856 N   0  0  0  0  0  0  0  0  0  0  0  0
    5.6627   21.0936   36.2827 C   0  0  0  0  0  0  0  0  0  0  0  0
    1.4363   27.4987   33.7282 C   0  0  0  0  0  0  0  0  0  0  0  0
    3.1626   18.6680   39.2784 C   0  0  0  0  0  0  0  0  0  0  0  0
    2.1112   21.6184   35.8241 O   0  0  0  0  0  0  0  0  0  0  0  0
    3.8768   19.7646   37.1578 C   0  0  0  0  0  0  0  0  0  0  0  0
    3.2786   24.9630   32.2000 C   0  0  0  0  0  0  0  0  0  0  0  0
    1.5063   15.9948   42.0206 C   0  0  0  0  0  0  0  0  0  0  0  0
    1.9009   26.6167   31.8090 C   0  0  0  0  0  0  0  0  0  0  0  0
    3.4441   21.6984   35.6191 C   0  0  0  0  0  0  0  0  0  0  0  0
    2.8708   19.6517   38.2355 C   0  0  0  0  0  0  0  0  0  0  0  0
    2.5155   14.1539   41.2922 N   0  0  0  0  0  0  0  0  0  0  0  0
    4.2035   20.9044   36.3200 N   0  0  0  0  0  0  0  0  0  0  0  0
    4.3603   22.9413   34.5338 S   0  0  0  0  0  0  0  0  0  0  0  0
    3.0129   16.3233   39.9703 C   0  0  1  0  0  0  0  0  0  0  0  0
    2.2090   23.0061   33.9707 C   0  0  0  0  0  0  0  0  0  0  0  0
    3.1328   26.1299   31.3025 C   0  0  0  0  0  0  0  0  0  0  0  0
    2.1367   23.8088   32.1277 H   0  0  0  0  0  0  0  0  0  0  0  0
    2.9800   22.0801   33.1703 H   0  0  0  0  0  0  0  0  0  0  0  0
    2.9849   24.0694   33.6344 H   0  0  0  0  0  0  0  0  0  0  0  0
    3.8228   14.7212   39.3845 H   0  0  0  0  0  0  0  0  0  0  0  0
    0.1836   25.8945   32.2989 H   0  0  0  0  0  0  0  0  0  0  0  0
    1.6635   17.5534   39.2722 H   0  0  0  0  0  0  0  0  0  0  0  0
    2.8191   17.9396   40.8528 H   0  0  0  0  0  0  0  0  0  0  0  0
    1.6534   12.9472   42.9206 H   0  0  0  0  0  0  0  0  0  0  0  0
    0.8133   17.5892   43.3714 H   0  0  0  0  0  0  0  0  0  0  0  0
    1.5022   18.1877   41.8243 H   0  0  0  0  0  0  0  0  0  0  0  0
   -0.1361   17.4514   41.8527 H   0  0  0  0  0  0  0  0  0  0  0  0
    6.0979   20.7790   37.2428 H   0  0  0  0  0  0  0  0  0  0  0  0
    6.0903   20.4878   35.4702 H   0  0  0  0  0  0  0  0  0  0  0  0
    5.8904   22.1554   36.1073 H   0  0  0  0  0  0  0  0  0  0  0  0
    1.6234   27.1533   34.7557 H   0  0  0  0  0  0  0  0  0  0  0  0
    2.3321   28.0085   33.3439 H   0  0  0  0  0  0  0  0  0  0  0  0
    0.5869   28.1976   33.7252 H   0  0  0  0  0  0  0  0  0  0  0  0
    3.3305   19.3131   40.1534 H   0  0  0  0  0  0  0  0  0  0  0  0
    3.7922   18.0602   38.6120 H   0  0  0  0  0  0  0  0  0  0  0  0
    4.1004   25.2346   32.8788 H   0  0  0  0  0  0  0  0  0  0  0  0
    3.3347   24.1724   31.4372 H   0  0  0  0  0  0  0  0  0  0  0  0
    1.2410   26.5833   30.9295 H   0  0  0  0  0  0  0  0  0  0  0  0
    2.3403   27.4702   32.3462 H   0  0  0  0  0  0  0  0  0  0  0  0
    2.7797   20.6366   38.7166 H   0  0  0  0  0  0  0  0  0  0  0  0
    1.9480   19.3048   37.7475 H   0  0  0  0  0  0  0  0  0  0  0  0
    3.0537   13.4690   40.7425 H   0  0  0  0  0  0  0  0  0  0  0  0
    3.9377   16.8202   40.2984 H   0  0  0  0  0  0  0  0  0  0  0  0
    1.9779   23.1484   35.0367 H   0  0  0  0  0  0  0  0  0  0  0  0
    1.5039   22.1775   33.8081 H   0  0  0  0  0  0  0  0  0  0  0  0
    3.0612   25.8356   30.2450 H   0  0  0  0  0  0  0  0  0  0  0  0
    3.9695   26.8441   31.3001 H   0  0  0  0  0  0  0  0  0  0  0  0
  1 10  1  0
  1 26  1  0
  2 18  2  0
  2 22  1  0
  3 26  1  0
  3 24  1  0
  5 13  1  0
  5 10  1  0
  7 25  1  0
  9 18  1  0
 11  8  2  0
 14  7  1  0
 15 20  2  0
 16  6  2  0
 16 21  1  0
 17  1  1  0
 18 11  1  0
 19  5  1  0
 20 23  1  0
 21 14  1  0
 22  8  1  0
 23 12  1  0
 23 16  1  0
 24 20  1  0
 25  4  1  0
 25  2  1  0
 27 19  1  0
 27 17  1  0
  1 28  1  6
  3 29  1  0
  3 30  1  0
  4 31  1  0
  5 32  1  6
  7 33  1  0
  7 34  1  0
  8 35  1  0
  9 36  1  0
  9 37  1  0
  9 38  1  0
 12 39  1  0
 12 40  1  0
 12 41  1  0
 13 42  1  0
 13 43  1  0
 13 44  1  0
 14 45  1  0
 14 46  1  0
 17 47  1  0
 17 48  1  0
 19 49  1  0
 19 50  1  0
 21 51  1  0
 21 52  1  0
 22 53  1  0
 25 54  1  1
 26 55  1  0
 26 56  1  0
 27 57  1  0
 27 58  1  0
M  END
>  <mol_id>  (84) 
2026-09-16-6tgu-s0-n100-0084

>  <rmsd_to_ref>  (84) 


$$$$

     RDKit          3D

 55 56  0  0  0  0  0  0  0  0999 V2000
   -0.2802   20.3143   43.2857 O   0  0  0  0  0  0  0  0  0  0  0  0
    3.7027   24.0556   32.8974 O   0  0  0  0  0  0  0  0  0  0  0  0
   -1.4321   18.4979   44.0167 C   0  0  0  0  0  0  0  0  0  0  0  0
    1.2579   25.3349   35.4192 O   0  0  0  0  0  0  0  0  0  0  0  0
    2.3705   24.3354   32.8341 C   0  0  0  0  0  0  0  0  0  0  0  0
    3.3434   19.3257   38.4589 C   0  0  0  0  0  0  0  0  0  0  0  0
    3.0815   22.1196   36.0768 C   0  0  0  0  0  0  0  0  0  0  0  0
    0.4446   26.6451   33.7226 C   0  0  0  0  0  0  0  0  0  0  0  0
    3.4681   16.5521   40.1585 C   0  0  0  0  0  0  0  0  0  0  0  0
    3.4693   16.5493   41.3499 O   0  0  0  0  0  0  0  0  0  0  0  0
    2.9589   18.8554   39.6862 C   0  0  0  0  0  0  0  0  0  0  0  0
    3.0211   12.3657   38.0115 C   0  0  0  0  0  0  0  0  0  0  0  0
   -1.2993   19.9104   44.0722 C   0  0  0  0  0  0  0  0  0  0  0  0
    3.8988   15.5154   39.3857 N   0  0  0  0  0  0  0  0  0  0  0  0
    3.6559   12.8680   39.2276 C   0  0  0  0  0  0  0  0  0  0  0  0
    3.9075   22.9865   33.7966 C   0  0  0  0  0  0  0  0  0  0  0  0
    3.2604   17.6099   39.4521 N   0  0  0  0  0  0  0  0  0  0  0  0
    2.9296   21.3166   36.6592 C   0  0  0  0  0  0  0  0  0  0  0  0
    2.9673   23.5984   34.9982 N   0  0  0  0  0  0  0  0  0  0  0  0
    3.3989   12.0181   40.3652 O   0  0  0  0  0  0  0  0  0  0  0  0
    3.1027   14.2895   39.6261 C   0  0  0  0  0  0  0  0  0  0  0  0
    5.0601   12.9988   39.1014 O   0  0  0  0  0  0  0  0  0  0  0  0
    0.8668   27.0067   35.1005 C   0  0  0  0  0  0  0  0  0  0  0  0
    1.1291   25.7403   32.3154 S   0  0  0  0  0  0  0  0  0  0  0  0
    2.1563   24.7254   34.9171 C   0  0  0  0  0  0  0  0  0  0  0  0
    0.2183   19.2426   42.6436 C   0  0  0  0  0  0  0  0  0  0  0  0
   -0.3301   18.0495   43.1533 C   0  0  0  0  0  0  0  0  0  0  0  0
    3.2021   20.3260   37.7213 C   0  0  0  0  0  0  0  0  0  0  0  0
    1.2186   19.3201   41.6479 C   0  0  0  0  0  0  0  0  0  0  0  0
    2.0891   19.0870   40.7915 C   0  0  0  0  0  0  0  0  0  0  0  0
   -2.1927   17.8758   44.5111 H   0  0  0  0  0  0  0  0  0  0  0  0
    2.0114   23.5006   32.2143 H   0  0  0  0  0  0  0  0  0  0  0  0
    2.3531   24.6598   33.8850 H   0  0  0  0  0  0  0  0  0  0  0  0
    3.9838   18.5834   37.9602 H   0  0  0  0  0  0  0  0  0  0  0  0
   -0.4995   26.1104   33.9036 H   0  0  0  0  0  0  0  0  0  0  0  0
    0.7036   27.6303   33.3073 H   0  0  0  0  0  0  0  0  0  0  0  0
    2.0775   11.8635   38.2710 H   0  0  0  0  0  0  0  0  0  0  0  0
    2.8146   13.2057   37.3319 H   0  0  0  0  0  0  0  0  0  0  0  0
    3.6933   11.6498   37.5158 H   0  0  0  0  0  0  0  0  0  0  0  0
   -1.9356   20.5791   44.6704 H   0  0  0  0  0  0  0  0  0  0  0  0
    4.6804   15.5768   38.7177 H   0  0  0  0  0  0  0  0  0  0  0  0
    3.5333   22.0271   33.4098 H   0  0  0  0  0  0  0  0  0  0  0  0
    4.9475   22.7334   34.0500 H   0  0  0  0  0  0  0  0  0  0  0  0
    3.3579   17.4224   38.4440 H   0  0  0  0  0  0  0  0  0  0  0  0
    3.3941   12.5645   41.1908 H   0  0  0  0  0  0  0  0  0  0  0  0
    2.9020   14.2547   40.7070 H   0  0  0  0  0  0  0  0  0  0  0  0
    2.2514   14.4172   38.9413 H   0  0  0  0  0  0  0  0  0  0  0  0
    5.4637   13.1035   39.9993 H   0  0  0  0  0  0  0  0  0  0  0  0
    1.7312   27.6858   35.1416 H   0  0  0  0  0  0  0  0  0  0  0  0
    0.1843   27.5556   35.7660 H   0  0  0  0  0  0  0  0  0  0  0  0
    2.9272   25.5098   34.8987 H   0  0  0  0  0  0  0  0  0  0  0  0
    1.4384   24.1700   34.2956 H   0  0  0  0  0  0  0  0  0  0  0  0
   -0.0073   17.0175   42.9514 H   0  0  0  0  0  0  0  0  0  0  0  0
    4.2589   20.6180   37.8092 H   0  0  0  0  0  0  0  0  0  0  0  0
    2.1164   20.1599   37.7815 H   0  0  0  0  0  0  0  0  0  0  0  0
  1 13  1  0
  2  5  1  0
  2 16  1  0
  3 13  2  0
  6 11  2  3
  7 18  3  0
  8 23  1  0
  9 10  2  0
 11 30  1  0
 12 15  1  0
 14 21  1  0
 14  9  1  0
 15 21  1  0
 15 20  1  0
 16 19  1  0
 17 11  1  0
 17  9  1  0
 18 28  1  0
 19 25  1  0
 19  7  1  0
 22 15  1  0
 23  4  1  0
 24  5  1  0
 24  8  1  0
 25  4  1  0
 26 27  2  0
 26  1  1  0
 27  3  1  0
 28  6  1  0
 29 26  1  0
 30 29  3  0
  3 31  1  0
  5 32  1  0
  5 33  1  0
  6 34  1  0
  8 35  1  0
  8 36  1  0
 12 37  1  0
 12 38  1  0
 12 39  1  0
 13 40  1  0
 14 41  1  0
 16 42  1  0
 16 43  1  0
 17 44  1  0
 20 45  1  0
 21 46  1  0
 21 47  1  0
 22 48  1  0
 23 49  1  0
 23 50  1  0
 25 51  1  0
 25 52  1  0
 27 53  1  0
 28 54  1  0
 28 55  1  0
M  END
>  <mol_id>  (85) 
2026-09-16-6tgu-s0-n100-0085

>  <rmsd_to_ref>  (85) 


$$$$

     RDKit          3D

 47 46  0  0  0  0  0  0  0  0999 V2000
    3.0100   19.5880   37.8980 C   0  0  1  0  0  0  0  0  0  0  0  0
    3.6370   22.5060   33.1090 C   0  0  0  0  0  0  0  0  0  0  0  0
    3.4170   23.8700   32.3710 C   0  0  0  0  0  0  0  0  0  0  0  0
    3.4210   18.9390   40.0900 O   0  0  0  0  0  0  0  0  0  0  0  0
    1.4440   21.5620   40.0790 O   0  0  0  0  0  0  0  0  0  0  0  0
    2.7530   22.0360   34.2060 C   0  0  2  0  0  0  0  0  0  0  0  0
    4.4500   19.2300   37.8850 C   0  0  0  0  0  0  0  0  0  0  0  0
    1.2930   20.1870   39.7550 C   0  0  2  0  0  0  0  0  0  0  0  0
    4.0860   23.9100   31.1260 C   0  0  0  0  0  0  0  0  0  0  0  0
    0.5710   19.4580   40.8860 C   0  0  0  0  0  0  0  0  0  0  0  0
    3.3140   21.0980   35.3170 C   0  0  0  0  0  0  0  0  0  0  0  0
    2.5740   19.5800   39.3550 C   0  0  2  0  0  0  0  0  0  0  0  0
    3.1700   24.7140   30.2100 C   0  0  0  0  0  0  0  0  0  0  0  0
    3.7910   25.9350   29.6660 C   0  0  0  0  0  0  0  0  0  0  0  0
    2.7280   21.2490   37.0270 S   0  0  0  0  0  0  0  0  0  0  0  0
    2.4270   23.7630   29.2170 C   0  0  0  0  0  0  0  0  0  0  0  0
    1.2700   22.5690   34.3150 C   0  0  0  0  0  0  0  0  0  0  0  0
    2.3972   18.8673   37.3368 H   0  0  0  0  0  0  0  0  0  0  0  0
    4.6513   22.5489   33.5324 H   0  0  0  0  0  0  0  0  0  0  0  0
    3.4095   21.7819   32.3128 H   0  0  0  0  0  0  0  0  0  0  0  0
    2.3397   24.0123   32.2005 H   0  0  0  0  0  0  0  0  0  0  0  0
    3.8275   24.6702   33.0043 H   0  0  0  0  0  0  0  0  0  0  0  0
    3.2139   19.0957   41.0453 H   0  0  0  0  0  0  0  0  0  0  0  0
    1.4558   21.6698   41.0630 H   0  0  0  0  0  0  0  0  0  0  0  0
    3.0980   22.8663   34.8397 H   0  0  0  0  0  0  0  0  0  0  0  0
    4.8146   19.1393   38.9188 H   0  0  0  0  0  0  0  0  0  0  0  0
    4.5847   18.2710   37.3633 H   0  0  0  0  0  0  0  0  0  0  0  0
    5.0181   20.0142   37.3633 H   0  0  0  0  0  0  0  0  0  0  0  0
    0.6519   20.0872   38.8668 H   0  0  0  0  0  0  0  0  0  0  0  0
    5.0626   24.4059   31.2279 H   0  0  0  0  0  0  0  0  0  0  0  0
    4.2835   22.9025   30.7311 H   0  0  0  0  0  0  0  0  0  0  0  0
    0.9382   19.8287   41.8544 H   0  0  0  0  0  0  0  0  0  0  0  0
   -0.5108   19.6421   40.8092 H   0  0  0  0  0  0  0  0  0  0  0  0
    0.7655   18.3781   40.8092 H   0  0  0  0  0  0  0  0  0  0  0  0
    3.0978   20.0674   34.9990 H   0  0  0  0  0  0  0  0  0  0  0  0
    4.3693   21.4001   35.3881 H   0  0  0  0  0  0  0  0  0  0  0  0
    3.0798   20.5442   39.5116 H   0  0  0  0  0  0  0  0  0  0  0  0
    2.3637   25.1674   30.8053 H   0  0  0  0  0  0  0  0  0  0  0  0
    4.1190   26.5799   30.4945 H   0  0  0  0  0  0  0  0  0  0  0  0
    4.6593   25.6610   29.0487 H   0  0  0  0  0  0  0  0  0  0  0  0
    3.0582   26.4753   29.0487 H   0  0  0  0  0  0  0  0  0  0  0  0
    1.8470   23.0206   29.7849 H   0  0  0  0  0  0  0  0  0  0  0  0
    1.7478   24.3525   28.5836 H   0  0  0  0  0  0  0  0  0  0  0  0
    3.1633   23.2466   28.5836 H   0  0  0  0  0  0  0  0  0  0  0  0
    0.9931   22.6685   35.3749 H   0  0  0  0  0  0  0  0  0  0  0  0
    1.1959   23.5500   33.8230 H   0  0  0  0  0  0  0  0  0  0  0  0
    0.5883   21.8596   33.8230 H   0  0  0  0  0  0  0  0  0  0  0  0
  1  7  1  0
  1 12  1  0
  2  6  1  0
  3  2  1  0
  6 17  1  0
  6 11  1  0
  8  5  1  0
  8 10  1  0
  9  3  1  0
 11 15  1  0
 12  8  1  0
 12  4  1  0
 13  9  1  0
 14 13  1  0
 15  1  1  0
 16 13  1  0
  1 18  1  6
  2 19  1  0
  2 20  1  0
  3 21  1  0
  3 22  1  0
  4 23  1  0
  5 24  1  0
  6 25  1  6
  7 26  1  0
  7 27  1  0
  7 28  1  0
  8 29  1  6
  9 30  1  0
  9 31  1  0
 10 32  1  0
 10 33  1  0
 10 34  1  0
 11 35  1  0
 11 36  1  0
 12 37  1  1
 13 38  1  0
 14 39  1  0
 14 40  1  0
 14 41  1  0
 16 42  1  0
 16 43  1  0
 16 44  1  0
 17 45  1  0
 17 46  1  0
 17 47  1  0
M  END
>  <mol_id>  (86) 
2026-09-16-6tgu-s0-n100-0086

>  <rmsd_to_ref>  (86) 


$$$$

     RDKit          3D

 25 25  0  0  0  0  0  0  0  0999 V2000
    2.8974   18.0081   40.7988 C   0  0  0  0  0  0  0  0  0  0  0  0
    3.5952   20.2425   35.4724 C   0  0  0  0  0  0  0  0  0  0  0  0
    3.0421   20.7345   36.6129 C   0  0  0  0  0  0  0  0  0  0  0  0
    4.3458   23.6880   33.4309 S   0  0  0  0  0  0  0  0  0  0  0  0
    2.7728   19.7870   39.1817 C   0  0  0  0  0  0  0  0  0  0  0  0
    3.7571   22.6051   34.6707 C   0  0  0  0  0  0  0  0  0  0  0  0
    2.5474   20.3007   41.5368 C   0  0  0  0  0  0  0  0  0  0  0  0
    2.6346   22.1016   36.8004 C   0  0  0  0  0  0  0  0  0  0  0  0
    2.9826   23.0207   35.7653 C   0  0  0  0  0  0  0  0  0  0  0  0
    4.0090   21.1747   34.5618 C   0  0  0  0  0  0  0  0  0  0  0  0
    2.5850   20.6674   40.2188 C   0  0  0  0  0  0  0  0  0  0  0  0
    2.7180   18.8939   41.8544 C   0  0  0  0  0  0  0  0  0  0  0  0
    2.9109   18.4187   39.4431 C   0  0  0  0  0  0  0  0  0  0  0  0
    3.0350   16.9407   41.0260 H   0  0  0  0  0  0  0  0  0  0  0  0
    3.7030   19.1624   35.2937 H   0  0  0  0  0  0  0  0  0  0  0  0
    2.8958   20.0381   37.4516 H   0  0  0  0  0  0  0  0  0  0  0  0
    5.2499   24.5600   33.9778 H   0  0  0  0  0  0  0  0  0  0  0  0
    2.8147   20.1567   38.1465 H   0  0  0  0  0  0  0  0  0  0  0  0
    2.3929   21.0473   42.3297 H   0  0  0  0  0  0  0  0  0  0  0  0
    2.0827   22.4223   37.6962 H   0  0  0  0  0  0  0  0  0  0  0  0
    2.6407   24.0645   35.8259 H   0  0  0  0  0  0  0  0  0  0  0  0
    4.5715   20.8196   33.6857 H   0  0  0  0  0  0  0  0  0  0  0  0
    2.4569   21.7325   39.9753 H   0  0  0  0  0  0  0  0  0  0  0  0
    2.7058   18.5410   42.8963 H   0  0  0  0  0  0  0  0  0  0  0  0
    3.0256   17.6902   38.6269 H   0  0  0  0  0  0  0  0  0  0  0  0
  1 12  1  0
  2  3  2  0
  4  6  1  0
  5 13  1  0
  5 11  2  0
  6 10  2  0
  6  9  1  0
  7 12  2  0
  8  3  1  0
  9  8  2  0
 10  2  1  0
 11  7  1  0
 13  1  2  0
  1 14  1  0
  2 15  1  0
  3 16  1  0
  4 17  1  0
  5 18  1  0
  7 19  1  0
  8 20  1  0
  9 21  1  0
 10 22  1  0
 11 23  1  0
 12 24  1  0
 13 25  1  0
M  END
>  <mol_id>  (87) 
2026-09-16-6tgu-s0-n100-0087

>  <rmsd_to_ref>  (87) 


$$$$

     RDKit          3D

 55 55  0  0  0  0  0  0  0  0999 V2000
    3.0787   15.5684   39.4708 C   0  0  0  0  0  0  0  0  0  0  0  0
    3.0294   21.9855   35.3843 C   0  0  0  0  0  0  0  0  0  0  0  0
    4.3078   13.7650   34.6612 N   0  0  0  0  0  0  0  0  0  0  0  0
    1.6646   20.7812   37.5619 O   0  0  0  0  0  0  0  0  0  0  0  0
    2.5923   20.0604   37.7163 C   0  0  0  0  0  0  0  0  0  0  0  0
    2.6282   23.8853   33.1488 C   0  0  0  0  0  0  0  0  0  0  0  0
    3.0957   20.4320   35.4267 C   0  0  0  0  0  0  0  0  0  0  0  0
    3.1575   15.6553   37.9945 C   0  0  2  0  0  0  0  0  0  0  0  0
    2.8133   19.3393   38.9763 C   0  0  0  0  0  0  0  0  0  0  0  0
    3.4823   19.8769   36.6900 O   0  0  0  0  0  0  0  0  0  0  0  0
    1.9431   15.4873   41.9554 C   0  0  0  0  0  0  0  0  0  0  0  0
    2.3022   17.4257   36.6250 O   0  0  0  0  0  0  0  0  0  0  0  0
    3.2221   14.6377   36.8549 C   0  0  0  0  0  0  0  0  0  0  0  0
    2.4898   13.5895   36.9988 O   0  0  0  0  0  0  0  0  0  0  0  0
    2.0146   25.3321   31.2600 N   0  0  0  0  0  0  0  0  0  0  0  0
    1.2237   25.9642   32.0644 C   0  0  0  0  0  0  0  0  0  0  0  0
    1.0718   25.7598   33.4542 C   0  0  0  0  0  0  0  0  0  0  0  0
    1.7244   24.5941   33.9544 C   0  0  0  0  0  0  0  0  0  0  0  0
    1.3550   17.8827   41.6165 O   0  0  0  0  0  0  0  0  0  0  0  0
    2.3524   16.8992   41.5320 C   0  0  2  0  0  0  0  0  0  0  0  0
    2.8673   17.8456   38.9727 C   0  0  0  0  0  0  0  0  0  0  0  0
    3.1604   17.0623   37.6359 C   0  0  1  0  0  0  0  0  0  0  0  0
    2.6824   16.7630   40.0345 C   0  0  0  0  0  0  0  0  0  0  0  0
    4.1287   14.5812   35.6856 C   0  0  0  0  0  0  0  0  0  0  0  0
    2.7253   24.3257   31.8161 C   0  0  0  0  0  0  0  0  0  0  0  0
    1.8065   22.7938   35.9459 C   0  0  0  0  0  0  0  0  0  0  0  0
    4.0701   15.3005   39.8650 H   0  0  0  0  0  0  0  0  0  0  0  0
    2.3305   14.8044   39.7285 H   0  0  0  0  0  0  0  0  0  0  0  0
    3.9113   22.3439   35.9355 H   0  0  0  0  0  0  0  0  0  0  0  0
    2.9498   22.1782   34.3043 H   0  0  0  0  0  0  0  0  0  0  0  0
    4.7497   12.8943   34.9891 H   0  0  0  0  0  0  0  0  0  0  0  0
    3.3971   13.5474   34.2323 H   0  0  0  0  0  0  0  0  0  0  0  0
    4.9163   14.2173   33.9641 H   0  0  0  0  0  0  0  0  0  0  0  0
    3.2209   23.0421   33.5331 H   0  0  0  0  0  0  0  0  0  0  0  0
    2.0995   20.0409   35.1724 H   0  0  0  0  0  0  0  0  0  0  0  0
    3.8763   20.1378   34.7096 H   0  0  0  0  0  0  0  0  0  0  0  0
    2.0591   15.6514   37.9356 H   0  0  0  0  0  0  0  0  0  0  0  0
    3.7726   19.6926   39.3825 H   0  0  0  0  0  0  0  0  0  0  0  0
    1.9095   19.5625   39.5623 H   0  0  0  0  0  0  0  0  0  0  0  0
    2.2838   15.2997   42.9843 H   0  0  0  0  0  0  0  0  0  0  0  0
    0.8481   15.3935   41.9089 H   0  0  0  0  0  0  0  0  0  0  0  0
    2.4030   14.7534   41.2773 H   0  0  0  0  0  0  0  0  0  0  0  0
    1.3819   17.4965   36.9829 H   0  0  0  0  0  0  0  0  0  0  0  0
    2.4837   12.8898   36.2985 H   0  0  0  0  0  0  0  0  0  0  0  0
    0.5984   26.7501   31.6158 H   0  0  0  0  0  0  0  0  0  0  0  0
    0.4977   26.4431   34.0973 H   0  0  0  0  0  0  0  0  0  0  0  0
    1.5178   24.2488   34.9782 H   0  0  0  0  0  0  0  0  0  0  0  0
    1.1704   18.0846   42.5680 H   0  0  0  0  0  0  0  0  0  0  0  0
    3.1594   17.2273   42.2036 H   0  0  0  0  0  0  0  0  0  0  0  0
    4.1398   17.3130   37.2024 H   0  0  0  0  0  0  0  0  0  0  0  0
    4.8278   15.4303   35.6639 H   0  0  0  0  0  0  0  0  0  0  0  0
    3.4447   23.8039   31.1680 H   0  0  0  0  0  0  0  0  0  0  0  0
    1.7970   22.7286   37.0440 H   0  0  0  0  0  0  0  0  0  0  0  0
    1.8925   23.8474   35.6418 H   0  0  0  0  0  0  0  0  0  0  0  0
    0.8729   22.3717   35.5455 H   0  0  0  0  0  0  0  0  0  0  0  0
  1 23  1  0
  2  7  1  0
  3 24  1  0
  4  5  2  0
  5  9  1  0
  6 18  1  0
  7 10  1  0
  8 13  1  0
  8  1  1  0
  9 21  1  0
 10  5  1  0
 13 14  1  0
 15 16  2  0
 15 25  1  0
 16 17  1  0
 17 18  2  0
 19 20  1  0
 20 11  1  0
 21 23  2  0
 22 12  1  0
 22  8  1  0
 22 21  1  0
 23 20  1  0
 24 13  2  3
 25  6  2  0
 26  2  1  0
  1 27  1  0
  1 28  1  0
  2 29  1  0
  2 30  1  0
  3 31  1  0
  3 32  1  0
  3 33  1  0
  6 34  1  0
  7 35  1  0
  7 36  1  0
  8 37  1  6
  9 38  1  0
  9 39  1  0
 11 40  1  0
 11 41  1  0
 11 42  1  0
 12 43  1  0
 14 44  1  0
 16 45  1  0
 17 46  1  0
 18 47  1  0
 19 48  1  0
 20 49  1  1
 22 50  1  6
 24 51  1  0
 25 52  1  0
 26 53  1  0
 26 54  1  0
 26 55  1  0
M  CHG  1   3   1
M  END
>  <mol_id>  (88) 
2026-09-16-6tgu-s0-n100-0088

>  <rmsd_to_ref>  (88) 


$$$$

     RDKit          3D

 65 65  0  0  0  0  0  0  0  0999 V2000
    0.3444   20.7499   40.3182 C   0  0  0  0  0  0  0  0  0  0  0  0
    5.9602   17.0123   37.6518 N   0  0  0  0  0  0  0  0  0  0  0  0
    2.1004   19.8932   38.4796 C   0  0  0  0  0  0  0  0  0  0  0  0
    3.1374   18.0721   39.8989 N   0  0  0  0  0  0  0  0  0  0  0  0
    0.3426   22.2114   28.7997 C   0  0  1  0  0  0  0  0  0  0  0  0
    2.7150   21.3482   27.9557 S   0  0  0  0  0  0  0  0  0  0  0  0
    2.5321   20.2513   37.2087 C   0  0  0  0  0  0  0  0  0  0  0  0
   -2.4035   22.9570   26.4600 C   0  0  0  0  0  0  0  0  0  0  0  0
    0.3242   21.0136   29.4288 O   0  0  0  0  0  0  0  0  0  0  0  0
    0.6401   21.5986   42.5859 O   0  0  0  0  0  0  0  0  0  0  0  0
   -1.1052   22.4695   26.5060 C   0  0  0  0  0  0  0  0  0  0  0  0
    0.0718   18.4401   40.9000 O   0  0  0  0  0  0  0  0  0  0  0  0
    0.5190   20.5331   44.6604 O   0  0  0  0  0  0  0  0  0  0  0  0
    0.8185   19.6642   43.5925 C   0  0  0  0  0  0  0  0  0  0  0  0
    1.8288   22.6952   28.8058 C   0  0  0  0  0  0  0  0  0  0  0  0
    1.8172   23.6651   29.5102 O   0  0  0  0  0  0  0  0  0  0  0  0
    2.2071   19.2087   30.1385 S   0  0  0  0  0  0  0  0  0  0  0  0
    1.3855   20.5990   30.3475 C   0  0  0  0  0  0  0  0  0  0  0  0
    3.1197   18.9107   38.7844 C   0  0  1  0  0  0  0  0  0  0  0  0
    0.1171   20.2643   42.4711 C   0  0  2  0  0  0  0  0  0  0  0  0
    3.6629   19.6194   36.6910 N   0  0  0  0  0  0  0  0  0  0  0  0
    0.4384   19.7731   41.2690 C   0  0  2  0  0  0  0  0  0  0  0  0
    0.8855   20.4968   38.9965 C   0  0  0  0  0  0  0  0  0  0  0  0
    1.1167   21.9529   32.6034 C   0  0  1  0  0  0  0  0  0  0  0  0
    2.2834   22.5511   33.2121 C   0  0  0  0  0  0  0  0  0  0  0  0
    2.8957   21.5273   34.0784 N   0  0  0  0  0  0  0  0  0  0  0  0
    4.0441   18.7948   37.7647 C   0  0  0  0  0  0  0  0  0  0  0  0
    5.1353   17.8203   37.6932 C   0  0  0  0  0  0  0  0  0  0  0  0
    0.1699   22.4691   27.3046 C   0  0  0  0  0  0  0  0  0  0  0  0
    1.4721   18.4024   43.1029 O   0  0  0  0  0  0  0  0  0  0  0  0
    1.5621   21.2760   31.3586 N   0  0  0  0  0  0  0  0  0  0  0  0
   -1.4176   23.7854   25.7353 C   0  0  0  0  0  0  0  0  0  0  0  0
    0.5291   20.9341   33.5736 C   0  0  0  0  0  0  0  0  0  0  0  0
   -0.7248   20.9752   40.1916 H   0  0  0  0  0  0  0  0  0  0  0  0
    0.9736   21.5624   40.7105 H   0  0  0  0  0  0  0  0  0  0  0  0
    2.9749   18.6288   40.7501 H   0  0  0  0  0  0  0  0  0  0  0  0
    2.3969   17.3622   39.8062 H   0  0  0  0  0  0  0  0  0  0  0  0
    4.0537   17.6060   39.9632 H   0  0  0  0  0  0  0  0  0  0  0  0
   -0.5197   22.6371   29.3337 H   0  0  0  0  0  0  0  0  0  0  0  0
    3.2338   20.4853   28.8847 H   0  0  0  0  0  0  0  0  0  0  0  0
    1.9957   21.0140   36.6252 H   0  0  0  0  0  0  0  0  0  0  0  0
   -3.1609   22.4040   25.8851 H   0  0  0  0  0  0  0  0  0  0  0  0
   -3.1367   23.1922   27.2456 H   0  0  0  0  0  0  0  0  0  0  0  0
    0.6022   21.8877   43.5320 H   0  0  0  0  0  0  0  0  0  0  0  0
   -0.8471   21.4002   26.5037 H   0  0  0  0  0  0  0  0  0  0  0  0
   -0.2104   17.9402   41.7066 H   0  0  0  0  0  0  0  0  0  0  0  0
    3.6833   19.6697   39.3466 H   0  0  0  0  0  0  0  0  0  0  0  0
   -0.9718   20.1163   42.5180 H   0  0  0  0  0  0  0  0  0  0  0  0
    1.4967   19.4914   41.3722 H   0  0  0  0  0  0  0  0  0  0  0  0
    0.9026   21.5000   38.5456 H   0  0  0  0  0  0  0  0  0  0  0  0
    0.2555   19.6155   38.8055 H   0  0  0  0  0  0  0  0  0  0  0  0
    0.3505   22.7070   32.3705 H   0  0  0  0  0  0  0  0  0  0  0  0
    2.9964   22.8625   32.4345 H   0  0  0  0  0  0  0  0  0  0  0  0
    2.0066   23.4418   33.7953 H   0  0  0  0  0  0  0  0  0  0  0  0
    2.7156   21.7603   35.0654 H   0  0  0  0  0  0  0  0  0  0  0  0
    2.4875   20.6065   33.8630 H   0  0  0  0  0  0  0  0  0  0  0  0
    3.9118   21.4998   33.9120 H   0  0  0  0  0  0  0  0  0  0  0  0
    0.6001   23.4685   27.1427 H   0  0  0  0  0  0  0  0  0  0  0  0
    0.6042   21.5329   26.9235 H   0  0  0  0  0  0  0  0  0  0  0  0
    2.5687   21.4913   31.3228 H   0  0  0  0  0  0  0  0  0  0  0  0
   -1.0996   24.7611   26.1313 H   0  0  0  0  0  0  0  0  0  0  0  0
   -1.2832   24.1782   24.7167 H   0  0  0  0  0  0  0  0  0  0  0  0
    0.5349   21.3512   34.5914 H   0  0  0  0  0  0  0  0  0  0  0  0
   -0.5047   20.7009   33.2788 H   0  0  0  0  0  0  0  0  0  0  0  0
    1.1331   20.0151   33.5504 H   0  0  0  0  0  0  0  0  0  0  0  0
  1 22  1  0
  2 28  3  0
  3 19  1  0
  3 23  1  0
  5 29  1  0
  5  9  1  0
  6 15  1  0
  7  3  2  0
  9 18  1  0
 11  8  1  0
 11 29  1  0
 14 13  1  0
 15  5  1  0
 15 16  2  0
 17 18  2  0
 18 31  1  0
 19  4  1  0
 20 10  1  0
 20 14  1  0
 21  7  1  0
 21 27  2  0
 22 12  1  0
 22 20  1  0
 23  1  1  0
 24 25  1  0
 24 33  1  0
 25 26  1  0
 27 19  1  0
 28 27  1  0
 30 14  2  0
 31 24  1  0
 32 11  1  0
 32  8  1  0
  1 34  1  0
  1 35  1  0
  4 36  1  0
  4 37  1  0
  4 38  1  0
  5 39  1  1
  6 40  1  0
  7 41  1  0
  8 42  1  0
  8 43  1  0
 10 44  1  0
 11 45  1  0
 12 46  1  0
 19 47  1  1
 20 48  1  1
 22 49  1  1
 23 50  1  0
 23 51  1  0
 24 52  1  6
 25 53  1  0
 25 54  1  0
 26 55  1  0
 26 56  1  0
 26 57  1  0
 29 58  1  0
 29 59  1  0
 31 60  1  0
 32 61  1  0
 32 62  1  0
 33 63  1  0
 33 64  1  0
 33 65  1  0
M  CHG  3   4   1  13  -1  26   1
M  END
>  <mol_id>  (89) 
2026-09-16-6tgu-s0-n100-0089

>  <rmsd_to_ref>  (89) 


$$$$

     RDKit          3D

 41 45  0  0  0  0  0  0  0  0999 V2000
    3.7834   19.3827   39.7668 S   0  0  0  0  0  0  0  0  0  0  0  0
    4.0806   23.0349   34.0972 C   0  0  2  0  0  0  0  0  0  0  0  0
    0.7889   18.5129   42.2129 C   0  0  0  0  0  0  0  0  0  0  0  0
    3.0626   17.8984   42.4117 N   0  0  0  0  0  0  0  0  0  0  0  0
   -0.2209   19.2363   41.5036 C   0  0  0  0  0  0  0  0  0  0  0  0
    3.3733   21.8614   34.0782 C   0  0  0  0  0  0  0  0  0  0  0  0
    4.1664   24.1572   34.3652 C   0  0  0  0  0  0  0  0  0  0  0  0
    0.0731   19.9481   40.4134 C   0  0  0  0  0  0  0  0  0  0  0  0
    2.0767   18.5614   41.7097 C   0  0  0  0  0  0  0  0  0  0  0  0
    4.8788   22.7445   30.6079 C   0  0  1  0  0  0  0  0  0  0  0  0
    2.4136   19.2207   40.5708 C   0  0  0  0  0  0  0  0  0  0  0  0
    3.8459   21.5416   36.5817 C   0  0  0  0  0  0  0  0  0  0  0  0
    3.2113   20.3085   38.5903 C   0  0  0  0  0  0  0  0  0  0  0  0
    3.9296   23.1585   29.5231 C   0  0  0  0  0  0  0  0  0  0  0  0
    1.3894   19.9754   39.9566 C   0  0  0  0  0  0  0  0  0  0  0  0
    3.8146   23.8029   32.9936 C   0  0  1  0  0  0  0  0  0  0  0  0
    4.3839   24.1179   30.5033 C   0  0  1  0  0  0  0  0  0  0  0  0
    1.7876   20.6844   38.8869 C   0  0  0  0  0  0  0  0  0  0  0  0
    4.0936   20.7728   37.6197 N   0  0  0  0  0  0  0  0  0  0  0  0
    3.6406   20.9691   35.2707 C   0  0  0  0  0  0  0  0  0  0  0  0
    4.7329   23.5799   31.8183 C   0  0  2  0  0  0  0  0  0  0  0  0
    4.7184   22.3593   34.6861 H   0  0  0  0  0  0  0  0  0  0  0  0
    0.5510   17.9410   43.1219 H   0  0  0  0  0  0  0  0  0  0  0  0
    4.0344   17.9102   42.0705 H   0  0  0  0  0  0  0  0  0  0  0  0
    2.8268   17.3918   43.2769 H   0  0  0  0  0  0  0  0  0  0  0  0
   -1.2598   19.2055   41.8636 H   0  0  0  0  0  0  0  0  0  0  0  0
    2.3004   22.1032   34.0592 H   0  0  0  0  0  0  0  0  0  0  0  0
    3.6953   21.3072   33.1842 H   0  0  0  0  0  0  0  0  0  0  0  0
    3.4123   24.6202   35.0186 H   0  0  0  0  0  0  0  0  0  0  0  0
    4.9523   24.7791   34.8188 H   0  0  0  0  0  0  0  0  0  0  0  0
   -0.7129   20.5055   39.8828 H   0  0  0  0  0  0  0  0  0  0  0  0
    5.4453   21.8017   30.5951 H   0  0  0  0  0  0  0  0  0  0  0  0
    3.7944   22.6325   36.7129 H   0  0  0  0  0  0  0  0  0  0  0  0
    4.2784   23.2269   28.4821 H   0  0  0  0  0  0  0  0  0  0  0  0
    2.9484   22.8091   29.1695 H   0  0  0  0  0  0  0  0  0  0  0  0
    3.0471   24.1450   32.2837 H   0  0  0  0  0  0  0  0  0  0  0  0
    4.2403   25.1967   30.3435 H   0  0  0  0  0  0  0  0  0  0  0  0
    1.1794   21.4108   38.3280 H   0  0  0  0  0  0  0  0  0  0  0  0
    5.0733   20.4740   37.7289 H   0  0  0  0  0  0  0  0  0  0  0  0
    3.6789   19.8777   35.1388 H   0  0  0  0  0  0  0  0  0  0  0  0
    5.4183   23.6255   32.6774 H   0  0  0  0  0  0  0  0  0  0  0  0
  1 11  1  0
  2  6  1  0
  2  7  1  0
  3  5  2  0
  6 20  1  0
  8  5  1  0
  9  4  1  0
  9  3  1  0
 10 14  1  0
 10 17  1  0
 10 21  1  0
 11 15  1  0
 11  9  2  0
 12 19  1  0
 13  1  1  0
 13 18  2  0
 15  8  2  0
 16  2  1  0
 16  7  1  0
 17 14  1  0
 17 21  1  0
 18 15  1  0
 19 13  1  0
 20 12  2  3
 21 16  1  0
  2 22  1  6
  3 23  1  0
  4 24  1  0
  4 25  1  0
  5 26  1  0
  6 27  1  0
  6 28  1  0
  7 29  1  0
  7 30  1  0
  8 31  1  0
 10 32  1  6
 12 33  1  0
 14 34  1  0
 14 35  1  0
 16 36  1  6
 17 37  1  6
 18 38  1  0
 19 39  1  0
 20 40  1  0
 21 41  1  1
M  END
>  <mol_id>  (90) 
2026-09-16-6tgu-s0-n100-0090

>  <rmsd_to_ref>  (90) 


$$$$

     RDKit          3D

 51 52  0  0  0  0  0  0  0  0999 V2000
    1.7316   16.9838   40.2457 C   0  0  0  0  0  0  0  0  0  0  0  0
    2.8065   23.1230   34.4370 C   0  0  0  0  0  0  0  0  0  0  0  0
    0.6634   17.9755   42.0641 C   0  0  0  0  0  0  0  0  0  0  0  0
    2.5478   19.4699   37.6124 N   0  0  0  0  0  0  0  0  0  0  0  0
    4.2979   15.6993   35.9461 C   0  0  0  0  0  0  0  0  0  0  0  0
    1.0526   19.2379   41.5142 C   0  0  0  0  0  0  0  0  0  0  0  0
    1.9116   18.1315   39.5719 C   0  0  0  0  0  0  0  0  0  0  0  0
    2.4353   26.1403   32.0532 C   0  0  0  0  0  0  0  0  0  0  0  0
    1.7054   19.3131   40.3097 C   0  0  0  0  0  0  0  0  0  0  0  0
    1.0016   16.8752   41.4018 C   0  0  0  0  0  0  0  0  0  0  0  0
    2.9256   15.1887   36.2153 C   0  0  0  0  0  0  0  0  0  0  0  0
    3.1114   19.2353   36.4849 N   0  0  0  0  0  0  0  0  0  0  0  0
    1.4363   26.1937   31.6704 C   0  0  0  0  0  0  0  0  0  0  0  0
    2.2781   15.8766   39.8788 O   0  0  0  0  0  0  0  0  0  0  0  0
    3.1923   18.0017   36.1334 N   0  0  0  0  0  0  0  0  0  0  0  0
    2.8599   24.6332   32.5169 C   0  0  0  0  0  0  0  0  0  0  0  0
    2.7371   23.9683   33.1163 C   0  0  0  0  0  0  0  0  0  0  0  0
    2.2976   18.2568   38.1654 C   0  0  1  0  0  0  0  0  0  0  0  0
    2.9850   24.8540   32.8456 C   0  0  0  0  0  0  0  0  0  0  0  0
    2.5782   17.3204   37.0866 C   0  0  0  0  0  0  0  0  0  0  0  0
    2.3670   16.0412   37.2828 N   0  0  0  0  0  0  0  0  0  0  0  0
    2.8749   25.5258   31.2694 C   0  0  0  0  0  0  0  0  0  0  0  0
    3.9097   15.1554   34.9451 C   0  0  0  0  0  0  0  0  0  0  0  0
    2.9099   22.7450   35.4648 H   0  0  0  0  0  0  0  0  0  0  0  0
    2.8444   24.2223   34.4450 H   0  0  0  0  0  0  0  0  0  0  0  0
    3.6277   22.7323   33.8183 H   0  0  0  0  0  0  0  0  0  0  0  0
    1.8439   22.7924   34.0198 H   0  0  0  0  0  0  0  0  0  0  0  0
    0.1006   17.9181   43.0076 H   0  0  0  0  0  0  0  0  0  0  0  0
    1.6684   19.9874   37.4721 H   0  0  0  0  0  0  0  0  0  0  0  0
    4.4418   16.7894   35.9141 H   0  0  0  0  0  0  0  0  0  0  0  0
    5.2262   15.5358   36.5131 H   0  0  0  0  0  0  0  0  0  0  0  0
    0.8248   20.1621   42.0655 H   0  0  0  0  0  0  0  0  0  0  0  0
    2.5770   27.1370   32.4964 H   0  0  0  0  0  0  0  0  0  0  0  0
    2.0619   20.2807   39.9266 H   0  0  0  0  0  0  0  0  0  0  0  0
    0.6993   15.8863   41.7769 H   0  0  0  0  0  0  0  0  0  0  0  0
    2.0699   14.5223   36.3989 H   0  0  0  0  0  0  0  0  0  0  0  0
    3.4792   19.9940   35.8932 H   0  0  0  0  0  0  0  0  0  0  0  0
    0.7305   25.8407   32.4368 H   0  0  0  0  0  0  0  0  0  0  0  0
    1.2000   27.2350   31.4062 H   0  0  0  0  0  0  0  0  0  0  0  0
    1.3524   25.5602   30.7750 H   0  0  0  0  0  0  0  0  0  0  0  0
    2.8277   15.8446   39.0560 H   0  0  0  0  0  0  0  0  0  0  0  0
    2.3620   22.9894   32.7828 H   0  0  0  0  0  0  0  0  0  0  0  0
    2.9627   24.1376   34.1795 H   0  0  0  0  0  0  0  0  0  0  0  0
    3.3568   18.1672   38.4482 H   0  0  0  0  0  0  0  0  0  0  0  0
    4.0706   24.8472   33.0230 H   0  0  0  0  0  0  0  0  0  0  0  0
    2.6709   24.6142   33.8721 H   0  0  0  0  0  0  0  0  0  0  0  0
    1.8620   15.6688   38.0996 H   0  0  0  0  0  0  0  0  0  0  0  0
    2.2233   25.2339   30.4325 H   0  0  0  0  0  0  0  0  0  0  0  0
    3.7264   25.7653   30.6154 H   0  0  0  0  0  0  0  0  0  0  0  0
    3.6714   15.7576   34.0559 H   0  0  0  0  0  0  0  0  0  0  0  0
    4.3078   14.3538   34.3056 H   0  0  0  0  0  0  0  0  0  0  0  0
  1 14  1  0
  1 10  2  0
  4 18  1  0
  5 11  1  0
  6  3  2  0
  7  9  2  0
  7  1  1  0
  8 19  1  0
  9  6  1  0
 10  3  1  0
 11 21  1  0
 12 15  1  0
 12  4  1  0
 13  8  1  0
 15 20  2  0
 16 19  1  0
 16 17  2  3
 18  7  1  0
 20 21  1  0
 20 18  1  0
 22  8  1  0
 22 16  1  0
 23  5  1  0
 23 11  1  0
  2 24  1  0
  2 25  1  0
  2 26  1  0
  2 27  1  0
  3 28  1  0
  4 29  1  0
  5 30  1  0
  5 31  1  0
  6 32  1  0
  8 33  1  0
  9 34  1  0
 10 35  1  0
 11 36  1  0
 12 37  1  0
 13 38  1  0
 13 39  1  0
 13 40  1  0
 14 41  1  0
 17 42  1  0
 17 43  1  0
 18 44  1  6
 19 45  1  0
 19 46  1  0
 21 47  1  0
 22 48  1  0
 22 49  1  0
 23 50  1  0
 23 51  1  0
M  END
>  <mol_id>  (91) 
2026-09-16-6tgu-s0-n100-0091

>  <rmsd_to_ref>  (91) 


$$$$

     RDKit          3D

 65 67  0  0  0  0  0  0  0  0999 V2000
    4.1263   24.0821   32.1609 C   0  0  2  0  0  0  0  0  0  0  0  0
    1.4533   26.2529   30.8461 C   0  0  0  0  0  0  0  0  0  0  0  0
   -1.2013   17.0401   41.8170 C   0  0  0  0  0  0  0  0  0  0  0  0
    2.6242   23.8558   33.8413 C   0  0  0  0  0  0  0  0  0  0  0  0
    2.8485   21.5893   36.3916 C   0  0  1  0  0  0  0  0  0  0  0  0
    2.6773   20.4487   37.2474 C   0  0  0  0  0  0  0  0  0  0  0  0
    2.9786   18.5694   39.5226 C   0  0  0  0  0  0  0  0  0  0  0  0
    0.9318   14.2647   41.7449 C   0  0  0  0  0  0  0  0  0  0  0  0
    3.2221   24.8131   31.1419 C   0  0  0  0  0  0  0  0  0  0  0  0
    4.0570   24.2737   33.5274 C   0  0  0  0  0  0  0  0  0  0  0  0
    2.6918   22.3924   34.0511 C   0  0  2  0  0  0  0  0  0  0  0  0
   -0.1846   16.0928   41.4664 C   0  0  0  0  0  0  0  0  0  0  0  0
    1.9917   21.8184   35.1733 C   0  0  0  0  0  0  0  0  0  0  0  0
    5.5800   23.6006   31.7196 C   0  0  0  0  0  0  0  0  0  0  0  0
    3.7120   22.6117   36.6004 O   0  0  0  0  0  0  0  0  0  0  0  0
    1.8028   18.9595   39.2186 C   0  0  2  0  0  0  0  0  0  0  0  0
    0.9401   16.6346   40.7667 C   0  0  0  0  0  0  0  0  0  0  0  0
    1.7014   20.1660   38.2241 C   0  0  0  0  0  0  0  0  0  0  0  0
    0.8836   17.9844   40.2937 C   0  0  0  0  0  0  0  0  0  0  0  0
    4.0411   22.0487   33.7625 C   0  0  0  0  0  0  0  0  0  0  0  0
    3.7151   19.3470   37.3690 C   0  0  0  0  0  0  0  0  0  0  0  0
    3.8820   18.6222   38.4988 C   0  0  0  0  0  0  0  0  0  0  0  0
   -0.3576   18.8040   40.5797 C   0  0  0  0  0  0  0  0  0  0  0  0
   -1.2071   18.2848   41.3946 C   0  0  0  0  0  0  0  0  0  0  0  0
    1.5564   24.4626   32.9286 C   0  0  0  0  0  0  0  0  0  0  0  0
   -0.3175   14.8164   41.7221 O   0  0  0  0  0  0  0  0  0  0  0  0
    2.1454   25.5002   31.8141 C   0  0  2  0  0  0  0  0  0  0  0  0
    3.3982   23.2695   32.0213 H   0  0  0  0  0  0  0  0  0  0  0  0
    0.5307   26.6579   31.2875 H   0  0  0  0  0  0  0  0  0  0  0  0
    2.0896   27.0815   30.5020 H   0  0  0  0  0  0  0  0  0  0  0  0
    1.1988   25.6072   29.9927 H   0  0  0  0  0  0  0  0  0  0  0  0
   -2.0191   16.7084   42.4738 H   0  0  0  0  0  0  0  0  0  0  0  0
    2.2229   24.3004   34.7640 H   0  0  0  0  0  0  0  0  0  0  0  0
    3.6236   21.0498   35.8276 H   0  0  0  0  0  0  0  0  0  0  0  0
    3.3497   19.2056   40.3397 H   0  0  0  0  0  0  0  0  0  0  0  0
    2.8905   17.5096   39.8038 H   0  0  0  0  0  0  0  0  0  0  0  0
    1.1369   13.8629   42.7482 H   0  0  0  0  0  0  0  0  0  0  0  0
    0.9872   13.4516   41.0060 H   0  0  0  0  0  0  0  0  0  0  0  0
    1.6775   15.0351   41.4990 H   0  0  0  0  0  0  0  0  0  0  0  0
    2.7993   24.0774   30.4419 H   0  0  0  0  0  0  0  0  0  0  0  0
    3.8285   25.5530   30.5990 H   0  0  0  0  0  0  0  0  0  0  0  0
    4.7824   23.6379   34.0562 H   0  0  0  0  0  0  0  0  0  0  0  0
    4.2953   25.3007   33.8411 H   0  0  0  0  0  0  0  0  0  0  0  0
    2.0316   21.8408   33.3657 H   0  0  0  0  0  0  0  0  0  0  0  0
    1.1727   22.4978   35.4517 H   0  0  0  0  0  0  0  0  0  0  0  0
    1.6372   20.8289   34.8488 H   0  0  0  0  0  0  0  0  0  0  0  0
    6.0829   23.1230   32.5734 H   0  0  0  0  0  0  0  0  0  0  0  0
    5.4923   22.8782   30.8948 H   0  0  0  0  0  0  0  0  0  0  0  0
    6.1681   24.4683   31.3863 H   0  0  0  0  0  0  0  0  0  0  0  0
    3.8219   22.7574   37.5735 H   0  0  0  0  0  0  0  0  0  0  0  0
    0.9360   19.2377   38.6011 H   0  0  0  0  0  0  0  0  0  0  0  0
    1.8369   16.0214   40.5946 H   0  0  0  0  0  0  0  0  0  0  0  0
    0.8240   20.8260   38.2917 H   0  0  0  0  0  0  0  0  0  0  0  0
    4.5164   21.6390   34.6660 H   0  0  0  0  0  0  0  0  0  0  0  0
    4.0641   21.2945   32.9620 H   0  0  0  0  0  0  0  0  0  0  0  0
    4.5865   22.9465   33.4362 H   0  0  0  0  0  0  0  0  0  0  0  0
    3.4851   18.6227   36.5737 H   0  0  0  0  0  0  0  0  0  0  0  0
    4.6539   19.9189   37.3297 H   0  0  0  0  0  0  0  0  0  0  0  0
    4.0142   17.5820   38.1665 H   0  0  0  0  0  0  0  0  0  0  0  0
    4.7026   19.1762   38.9780 H   0  0  0  0  0  0  0  0  0  0  0  0
   -0.5234   19.7879   40.1167 H   0  0  0  0  0  0  0  0  0  0  0  0
   -2.0076   18.9391   41.7702 H   0  0  0  0  0  0  0  0  0  0  0  0
    1.0453   23.6432   32.4021 H   0  0  0  0  0  0  0  0  0  0  0  0
    0.8781   25.0405   33.5736 H   0  0  0  0  0  0  0  0  0  0  0  0
    2.3010   26.3441   32.5023 H   0  0  0  0  0  0  0  0  0  0  0  0
  1 14  1  0
  1 10  1  0
  4 11  1  0
  5 15  1  0
  5  6  1  0
  6 21  1  0
  6 18  2  0
  8 26  1  0
  9 27  1  0
  9  1  1  0
 10  4  1  0
 11 20  1  0
 11 13  1  0
 12  3  1  0
 12 26  1  0
 13  5  1  0
 16  7  1  0
 16 19  1  0
 17 12  2  0
 18 16  1  0
 19 23  2  0
 19 17  1  0
 21 22  1  0
 22  7  1  0
 23 24  1  0
 24  3  2  0
 25  4  1  0
 27  2  1  0
 27 25  1  0
  1 28  1  1
  2 29  1  0
  2 30  1  0
  2 31  1  0
  3 32  1  0
  4 33  1  0
  5 34  1  6
  7 35  1  0
  7 36  1  0
  8 37  1  0
  8 38  1  0
  8 39  1  0
  9 40  1  0
  9 41  1  0
 10 42  1  0
 10 43  1  0
 11 44  1  6
 13 45  1  0
 13 46  1  0
 14 47  1  0
 14 48  1  0
 14 49  1  0
 15 50  1  0
 16 51  1  6
 17 52  1  0
 18 53  1  0
 20 54  1  0
 20 55  1  0
 20 56  1  0
 21 57  1  0
 21 58  1  0
 22 59  1  0
 22 60  1  0
 23 61  1  0
 24 62  1  0
 25 63  1  0
 25 64  1  0
 27 65  1  1
M  END
>  <mol_id>  (92) 
2026-09-16-6tgu-s0-n100-0092

>  <rmsd_to_ref>  (92) 


$$$$

     RDKit          3D

 68 72  0  0  0  0  0  0  0  0999 V2000
    2.0436   21.2354   40.2419 C   0  0  0  0  0  0  0  0  0  0  0  0
    3.2442   12.4290   37.4764 N   0  0  0  0  0  0  0  0  0  0  0  0
    3.5188   16.4996   40.0236 O   0  0  0  0  0  0  0  0  0  0  0  0
    2.8890   14.7290   37.7102 C   0  0  0  0  0  0  0  0  0  0  0  0
    2.3906   24.2550   33.0432 C   0  0  2  0  0  0  0  0  0  0  0  0
    1.4546   16.0820   42.4417 C   0  0  0  0  0  0  0  0  0  0  0  0
    3.1837   19.1178   38.6176 C   0  0  0  0  0  0  0  0  0  0  0  0
    2.2287   13.6269   35.5312 N   0  0  0  0  0  0  0  0  0  0  0  0
    2.7670   13.5781   36.8652 C   0  0  0  0  0  0  0  0  0  0  0  0
    2.0732   17.3356   41.9333 C   0  0  2  0  0  0  0  0  0  0  0  0
    3.3023   15.1081   40.2836 C   0  0  0  0  0  0  0  0  0  0  0  0
    3.5760   21.7611   35.8304 C   0  0  0  0  0  0  0  0  0  0  0  0
    1.7761   26.5324   32.8286 C   0  0  1  0  0  0  0  0  0  0  0  0
    1.0955   18.4193   42.2833 C   0  0  0  0  0  0  0  0  0  0  0  0
    2.0643   25.3890   35.3797 C   0  0  0  0  0  0  0  0  0  0  0  0
    0.4183   26.1928   33.3713 C   0  0  0  0  0  0  0  0  0  0  0  0
    2.7623   17.6175   40.4993 C   0  0  1  0  0  0  0  0  0  0  0  0
    3.6846   12.7254   38.9280 S   0  0  0  0  0  0  0  0  0  0  0  0
    3.0836   22.4944   34.5800 C   0  0  0  0  0  0  0  0  0  0  0  0
    2.4404   21.4427   38.8480 C   0  0  0  0  0  0  0  0  0  0  0  0
    2.1856   19.9221   40.7801 C   0  0  0  0  0  0  0  0  0  0  0  0
    3.1160   20.4154   38.1008 C   0  0  0  0  0  0  0  0  0  0  0  0
    3.1521   25.5876   29.5999 C   0  0  0  0  0  0  0  0  0  0  0  0
    3.5930   20.8218   36.6883 C   0  0  0  0  0  0  0  0  0  0  0  0
    2.7687   18.8193   39.9641 C   0  0  0  0  0  0  0  0  0  0  0  0
    1.8847   19.6535   42.0403 O   0  0  0  0  0  0  0  0  0  0  0  0
    1.0271   25.0226   32.9183 C   0  0  2  0  0  0  0  0  0  0  0  0
    4.8043   20.2119   36.8430 O   0  0  0  0  0  0  0  0  0  0  0  0
    1.9775   26.3657   30.1791 O   0  0  0  0  0  0  0  0  0  0  0  0
    3.7219   24.9739   30.9300 C   0  0  0  0  0  0  0  0  0  0  0  0
    2.3174   27.0541   31.6810 C   0  0  0  0  0  0  0  0  0  0  0  0
    2.2904   24.0789   34.5070 C   0  0  2  0  0  0  0  0  0  0  0  0
    3.2240   23.9198   31.9714 C   0  0  0  0  0  0  0  0  0  0  0  0
    3.2863   14.3008   39.0412 C   0  0  0  0  0  0  0  0  0  0  0  0
    1.6505   22.0622   40.8518 H   0  0  0  0  0  0  0  0  0  0  0  0
    2.7107   15.7695   37.4012 H   0  0  0  0  0  0  0  0  0  0  0  0
    1.8665   23.2997   32.8924 H   0  0  0  0  0  0  0  0  0  0  0  0
    1.4658   16.0875   43.5417 H   0  0  0  0  0  0  0  0  0  0  0  0
    0.4159   16.0151   42.0860 H   0  0  0  0  0  0  0  0  0  0  0  0
    2.0248   15.2163   42.0736 H   0  0  0  0  0  0  0  0  0  0  0  0
    3.5631   18.3053   37.9804 H   0  0  0  0  0  0  0  0  0  0  0  0
    1.8925   14.5201   35.1439 H   0  0  0  0  0  0  0  0  0  0  0  0
    2.1797   12.7687   34.9639 H   0  0  0  0  0  0  0  0  0  0  0  0
    3.0591   17.2529   42.4142 H   0  0  0  0  0  0  0  0  0  0  0  0
    4.1089   14.7399   40.9346 H   0  0  0  0  0  0  0  0  0  0  0  0
    2.3189   15.0043   40.7656 H   0  0  0  0  0  0  0  0  0  0  0  0
    2.5963   27.1693   33.1912 H   0  0  0  0  0  0  0  0  0  0  0  0
    0.2087   18.3800   41.6336 H   0  0  0  0  0  0  0  0  0  0  0  0
    0.7044   18.3432   43.3086 H   0  0  0  0  0  0  0  0  0  0  0  0
    2.1217   25.1324   36.4478 H   0  0  0  0  0  0  0  0  0  0  0  0
    2.8414   26.1291   35.1382 H   0  0  0  0  0  0  0  0  0  0  0  0
    1.0735   25.8115   35.1568 H   0  0  0  0  0  0  0  0  0  0  0  0
    0.2522   26.3031   34.4532 H   0  0  0  0  0  0  0  0  0  0  0  0
   -0.5665   26.6169   33.1256 H   0  0  0  0  0  0  0  0  0  0  0  0
    2.1354   17.8641   39.6297 H   0  0  0  0  0  0  0  0  0  0  0  0
    3.2392   21.9812   33.6196 H   0  0  0  0  0  0  0  0  0  0  0  0
    2.2173   22.4039   38.3619 H   0  0  0  0  0  0  0  0  0  0  0  0
    2.8238   24.8100   28.8946 H   0  0  0  0  0  0  0  0  0  0  0  0
    3.8661   26.1801   29.0088 H   0  0  0  0  0  0  0  0  0  0  0  0
    0.4102   24.1461   32.6710 H   0  0  0  0  0  0  0  0  0  0  0  0
    4.9059   19.4702   37.4908 H   0  0  0  0  0  0  0  0  0  0  0  0
    4.6883   24.5578   30.6090 H   0  0  0  0  0  0  0  0  0  0  0  0
    3.4621   25.8444   31.5504 H   0  0  0  0  0  0  0  0  0  0  0  0
    1.9898   28.1028   31.6274 H   0  0  0  0  0  0  0  0  0  0  0  0
    3.3923   26.8556   31.8044 H   0  0  0  0  0  0  0  0  0  0  0  0
    1.5441   23.9798   35.3090 H   0  0  0  0  0  0  0  0  0  0  0  0
    2.6863   23.1524   31.3953 H   0  0  0  0  0  0  0  0  0  0  0  0
    4.1587   23.6561   32.4880 H   0  0  0  0  0  0  0  0  0  0  0  0
  1 21  1  0
  2 18  1  0
  3 11  1  0
  4 34  2  0
  5 32  1  0
  7 25  1  0
  8  9  1  0
  9  2  2  0
  9  4  1  0
 10 14  1  0
 10  6  1  0
 12 24  2  0
 13 31  1  0
 13 27  1  0
 13 16  1  0
 17  3  1  0
 17 10  1  0
 18 34  1  0
 19 12  2  0
 20  1  2  0
 21 26  1  0
 22  7  2  0
 22 20  1  0
 23 29  1  0
 23 30  1  0
 24 28  1  0
 24 22  1  0
 25 17  1  0
 25 21  2  0
 26 14  1  0
 27  5  1  0
 27 16  1  0
 29 31  1  0
 30 33  1  0
 32 19  1  0
 32 15  1  0
 33  5  1  0
 34 11  1  0
  1 35  1  0
  4 36  1  0
  5 37  1  6
  6 38  1  0
  6 39  1  0
  6 40  1  0
  7 41  1  0
  8 42  1  0
  8 43  1  0
 10 44  1  1
 11 45  1  0
 11 46  1  0
 13 47  1  1
 14 48  1  0
 14 49  1  0
 15 50  1  0
 15 51  1  0
 15 52  1  0
 16 53  1  0
 16 54  1  0
 17 55  1  6
 19 56  1  0
 20 57  1  0
 23 58  1  0
 23 59  1  0
 27 60  1  6
 28 61  1  0
 30 62  1  0
 30 63  1  0
 31 64  1  0
 31 65  1  0
 32 66  1  6
 33 67  1  0
 33 68  1  0
M  END
>  <mol_id>  (93) 
2026-09-16-6tgu-s0-n100-0093

>  <rmsd_to_ref>  (93) 


$$$$

     RDKit          3D

 59 59  0  0  0  0  0  0  0  0999 V2000
    3.7047   23.2734   33.8161 C   0  0  1  0  0  0  0  0  0  0  0  0
    4.7583   14.7451   38.6025 C   0  0  0  0  0  0  0  0  0  0  0  0
    2.2695   25.9136   31.8779 C   0  0  0  0  0  0  0  0  0  0  0  0
    1.6863   19.0330   41.0603 C   0  0  0  0  0  0  0  0  0  0  0  0
    3.0555   23.9183   32.7071 N   0  0  0  0  0  0  0  0  0  0  0  0
    2.6341   22.4981   34.6168 C   0  0  0  0  0  0  0  0  0  0  0  0
    3.7215   14.9317   39.6120 C   0  0  0  0  0  0  0  0  0  0  0  0
    3.5230   16.3402   39.2266 C   0  0  0  0  0  0  0  0  0  0  0  0
    3.0539   14.2582   40.6267 C   0  0  0  0  0  0  0  0  0  0  0  0
    2.8232   19.1014   39.0621 C   0  0  0  0  0  0  0  0  0  0  0  0
    2.3513   18.3821   40.1773 N   0  0  0  0  0  0  0  0  0  0  0  0
    3.2493   24.8604   31.8453 C   0  0  2  0  0  0  0  0  0  0  0  0
    4.3429   20.0208   37.3999 C   0  0  0  0  0  0  0  0  0  0  0  0
    4.9151   22.3837   33.6589 C   0  0  0  0  0  0  0  0  0  0  0  0
    1.8362   16.2406   41.2103 C   0  0  0  0  0  0  0  0  0  0  0  0
    0.3535   27.5871   34.9793 C   0  0  0  0  0  0  0  0  0  0  0  0
    1.0429   27.2706   33.8707 N   0  0  0  0  0  0  0  0  0  0  0  0
    3.5246   21.8219   35.6655 C   0  0  0  0  0  0  0  0  0  0  0  0
    3.2020   21.1119   36.5144 C   0  0  0  0  0  0  0  0  0  0  0  0
    3.7766   19.2470   38.3856 C   0  0  0  0  0  0  0  0  0  0  0  0
    1.3868   26.2343   33.0556 C   0  0  0  0  0  0  0  0  0  0  0  0
    4.5256   24.8069   31.0226 C   0  0  0  0  0  0  0  0  0  0  0  0
    2.0337   14.8157   41.3993 C   0  0  0  0  0  0  0  0  0  0  0  0
    2.6100   16.9434   40.3477 C   0  0  0  0  0  0  0  0  0  0  0  0
    0.6459   25.3896   33.5069 O   0  0  0  0  0  0  0  0  0  0  0  0
    4.1699   24.1445   34.3007 H   0  0  0  0  0  0  0  0  0  0  0  0
    5.6555   14.3168   39.0733 H   0  0  0  0  0  0  0  0  0  0  0  0
    4.3917   14.0617   37.8223 H   0  0  0  0  0  0  0  0  0  0  0  0
    5.0094   15.7162   38.1508 H   0  0  0  0  0  0  0  0  0  0  0  0
    2.8259   26.8388   31.6674 H   0  0  0  0  0  0  0  0  0  0  0  0
    1.5246   25.5143   31.1737 H   0  0  0  0  0  0  0  0  0  0  0  0
    1.8474   18.5787   42.0491 H   0  0  0  0  0  0  0  0  0  0  0  0
    2.0259   20.0791   41.0777 H   0  0  0  0  0  0  0  0  0  0  0  0
    0.6153   18.9992   40.8114 H   0  0  0  0  0  0  0  0  0  0  0  0
    2.8731   23.1156   32.0879 H   0  0  0  0  0  0  0  0  0  0  0  0
    2.5236   24.5428   33.3299 H   0  0  0  0  0  0  0  0  0  0  0  0
    1.9005   23.1748   35.0792 H   0  0  0  0  0  0  0  0  0  0  0  0
    2.0167   21.8105   34.0201 H   0  0  0  0  0  0  0  0  0  0  0  0
    3.9281   16.8559   38.3435 H   0  0  0  0  0  0  0  0  0  0  0  0
    3.3480   13.2188   40.8348 H   0  0  0  0  0  0  0  0  0  0  0  0
    2.0202   19.7568   38.6938 H   0  0  0  0  0  0  0  0  0  0  0  0
    2.7002   24.3749   31.0250 H   0  0  0  0  0  0  0  0  0  0  0  0
    5.1190   20.6469   37.8644 H   0  0  0  0  0  0  0  0  0  0  0  0
    4.7318   19.3170   36.6493 H   0  0  0  0  0  0  0  0  0  0  0  0
    5.1888   21.9609   34.6369 H   0  0  0  0  0  0  0  0  0  0  0  0
    4.6821   21.5678   32.9589 H   0  0  0  0  0  0  0  0  0  0  0  0
    5.7560   22.9744   33.2665 H   0  0  0  0  0  0  0  0  0  0  0  0
    1.0468   16.7581   41.7753 H   0  0  0  0  0  0  0  0  0  0  0  0
    0.7779   27.0506   35.8408 H   0  0  0  0  0  0  0  0  0  0  0  0
    0.4182   28.6712   35.1544 H   0  0  0  0  0  0  0  0  0  0  0  0
   -0.7002   27.2988   34.8507 H   0  0  0  0  0  0  0  0  0  0  0  0
    1.4703   28.1307   33.4986 H   0  0  0  0  0  0  0  0  0  0  0  0
    4.6007   22.0405   35.6001 H   0  0  0  0  0  0  0  0  0  0  0  0
    2.1405   21.0966   36.8027 H   0  0  0  0  0  0  0  0  0  0  0  0
    4.4943   18.4542   38.6430 H   0  0  0  0  0  0  0  0  0  0  0  0
    5.3720   24.5466   31.6753 H   0  0  0  0  0  0  0  0  0  0  0  0
    4.4225   24.0461   30.2348 H   0  0  0  0  0  0  0  0  0  0  0  0
    4.7064   25.7894   30.5620 H   0  0  0  0  0  0  0  0  0  0  0  0
    1.4266   14.2208   42.0975 H   0  0  0  0  0  0  0  0  0  0  0  0
  1 14  1  0
  1  6  1  0
  2  7  1  0
  3 12  1  0
  3 21  1  0
  5  1  1  0
  6 18  1  0
  7  9  2  0
  8  7  1  0
  8 24  2  0
  9 23  1  0
 10 11  1  0
 11 24  1  0
 11  4  1  0
 12 22  1  0
 12  5  1  0
 13 20  1  0
 15 23  2  0
 17 16  1  0
 18 19  2  3
 19 13  1  0
 20 10  2  3
 21 25  2  0
 21 17  1  0
 24 15  1  0
  1 26  1  1
  2 27  1  0
  2 28  1  0
  2 29  1  0
  3 30  1  0
  3 31  1  0
  4 32  1  0
  4 33  1  0
  4 34  1  0
  5 35  1  0
  5 36  1  0
  6 37  1  0
  6 38  1  0
  8 39  1  0
  9 40  1  0
 10 41  1  0
 12 42  1  6
 13 43  1  0
 13 44  1  0
 14 45  1  0
 14 46  1  0
 14 47  1  0
 15 48  1  0
 16 49  1  0
 16 50  1  0
 16 51  1  0
 17 52  1  0
 18 53  1  0
 19 54  1  0
 20 55  1  0
 22 56  1  0
 22 57  1  0
 22 58  1  0
 23 59  1  0
M  CHG  1   5   1
M  END
>  <mol_id>  (94) 
2026-09-16-6tgu-s0-n100-0094

>  <rmsd_to_ref>  (94) 


$$$$

     RDKit          3D

 56 56  0  0  0  0  0  0  0  0999 V2000
    3.3737   17.8809   38.1915 C   0  0  0  0  0  0  0  0  0  0  0  0
    3.1593   14.9216   41.1233 C   0  0  0  0  0  0  0  0  0  0  0  0
    2.5534   21.8037   37.8245 C   0  0  0  0  0  0  0  0  0  0  0  0
    2.1812   22.6777   36.6332 C   0  0  0  0  0  0  0  0  0  0  0  0
    2.7258   17.3950   39.4639 N   0  0  0  0  0  0  0  0  0  0  0  0
    2.6902   24.2984   31.5439 C   0  0  0  0  0  0  0  0  0  0  0  0
    2.7296   25.1794   30.2047 C   0  0  0  0  0  0  0  0  0  0  0  0
    2.5704   24.0567   34.2759 C   0  0  0  0  0  0  0  0  0  0  0  0
    2.6059   20.0729   40.2873 C   0  0  0  0  0  0  0  0  0  0  0  0
    1.1694   26.9365   31.9576 C   0  0  0  0  0  0  0  0  0  0  0  0
    1.8681   23.1744   35.3208 C   0  0  0  0  0  0  0  0  0  0  0  0
    3.0716   26.6286   30.7443 C   0  0  0  0  0  0  0  0  0  0  0  0
    2.5891   18.3489   40.6582 C   0  0  0  0  0  0  0  0  0  0  0  0
    2.7466   14.9193   39.5661 C   0  0  0  0  0  0  0  0  0  0  0  0
    1.2421   25.8125   32.9440 C   0  0  0  0  0  0  0  0  0  0  0  0
    2.3684   12.7382   41.6434 O   0  0  0  0  0  0  0  0  0  0  0  0
    1.8886   24.3507   32.8668 C   0  0  0  0  0  0  0  0  0  0  0  0
    2.1350   16.3420   39.5001 C   0  0  0  0  0  0  0  0  0  0  0  0
    2.7776   21.1141   38.9191 C   0  0  0  0  0  0  0  0  0  0  0  0
    2.6977   20.8805   41.5303 O   0  0  0  0  0  0  0  0  0  0  0  0
    3.3534   13.3961   40.8551 C   0  0  0  0  0  0  0  0  0  0  0  0
    1.7585   27.5090   31.0232 C   0  0  0  0  0  0  0  0  0  0  0  0
    4.1771   21.2929   41.6919 C   0  0  0  0  0  0  0  0  0  0  0  0
    4.3082   18.4081   38.4340 H   0  0  0  0  0  0  0  0  0  0  0  0
    3.5956   17.0215   37.5417 H   0  0  0  0  0  0  0  0  0  0  0  0
    2.6900   18.5674   37.6708 H   0  0  0  0  0  0  0  0  0  0  0  0
    4.0710   15.4828   41.3760 H   0  0  0  0  0  0  0  0  0  0  0  0
    2.5397   15.3380   41.9312 H   0  0  0  0  0  0  0  0  0  0  0  0
    1.2490   23.0453   37.0867 H   0  0  0  0  0  0  0  0  0  0  0  0
    3.2142   22.5444   36.2792 H   0  0  0  0  0  0  0  0  0  0  0  0
    3.7334   24.3372   31.8906 H   0  0  0  0  0  0  0  0  0  0  0  0
    2.0927   23.4862   31.1043 H   0  0  0  0  0  0  0  0  0  0  0  0
    1.7554   25.1669   29.6941 H   0  0  0  0  0  0  0  0  0  0  0  0
    3.4532   24.8100   29.4630 H   0  0  0  0  0  0  0  0  0  0  0  0
    3.5554   24.4900   34.5041 H   0  0  0  0  0  0  0  0  0  0  0  0
    0.2147   26.6987   31.4656 H   0  0  0  0  0  0  0  0  0  0  0  0
    1.6352   27.6187   32.6839 H   0  0  0  0  0  0  0  0  0  0  0  0
    0.8779   22.8390   34.9785 H   0  0  0  0  0  0  0  0  0  0  0  0
    3.6363   26.5308   31.6832 H   0  0  0  0  0  0  0  0  0  0  0  0
    3.6591   27.1426   29.9693 H   0  0  0  0  0  0  0  0  0  0  0  0
    2.4864   17.9778   41.6886 H   0  0  0  0  0  0  0  0  0  0  0  0
    3.6187   14.8100   38.9045 H   0  0  0  0  0  0  0  0  0  0  0  0
    2.0908   14.0976   39.2427 H   0  0  0  0  0  0  0  0  0  0  0  0
    1.7381   26.2668   33.8145 H   0  0  0  0  0  0  0  0  0  0  0  0
    0.1967   25.4881   32.8347 H   0  0  0  0  0  0  0  0  0  0  0  0
    2.6142   12.8028   42.6001 H   0  0  0  0  0  0  0  0  0  0  0  0
    1.2148   23.4867   32.7697 H   0  0  0  0  0  0  0  0  0  0  0  0
    1.5118   16.3381   38.5936 H   0  0  0  0  0  0  0  0  0  0  0  0
    1.7353   16.4045   40.5229 H   0  0  0  0  0  0  0  0  0  0  0  0
    3.2035   13.1721   39.7886 H   0  0  0  0  0  0  0  0  0  0  0  0
    4.3694   13.0642   41.1148 H   0  0  0  0  0  0  0  0  0  0  0  0
    2.0363   28.5331   31.3132 H   0  0  0  0  0  0  0  0  0  0  0  0
    1.1237   27.5916   30.1287 H   0  0  0  0  0  0  0  0  0  0  0  0
    4.4283   21.3456   42.7616 H   0  0  0  0  0  0  0  0  0  0  0  0
    4.8210   20.5488   41.2003 H   0  0  0  0  0  0  0  0  0  0  0  0
    4.3359   22.2781   41.2291 H   0  0  0  0  0  0  0  0  0  0  0  0
  1  5  1  0
  3 19  3  0
  4  3  1  0
  5 13  1  0
  6 17  1  0
  7 12  1  0
  7  6  1  0
  8 11  2  3
  9 13  2  3
  9 20  1  0
 10 15  1  0
 11  4  1  0
 12 22  1  0
 14  2  1  0
 17 15  1  0
 17  8  1  0
 18 14  1  0
 18  5  1  0
 19  9  1  0
 20 23  1  0
 21  2  1  0
 21 16  1  0
 22 10  1  0
  1 24  1  0
  1 25  1  0
  1 26  1  0
  2 27  1  0
  2 28  1  0
  4 29  1  0
  4 30  1  0
  6 31  1  0
  6 32  1  0
  7 33  1  0
  7 34  1  0
  8 35  1  0
 10 36  1  0
 10 37  1  0
 11 38  1  0
 12 39  1  0
 12 40  1  0
 13 41  1  0
 14 42  1  0
 14 43  1  0
 15 44  1  0
 15 45  1  0
 16 46  1  0
 17 47  1  0
 18 48  1  0
 18 49  1  0
 21 50  1  0
 21 51  1  0
 22 52  1  0
 22 53  1  0
 23 54  1  0
 23 55  1  0
 23 56  1  0
M  END
>  <mol_id>  (95) 
2026-09-16-6tgu-s0-n100-0095

>  <rmsd_to_ref>  (95) 


$$$$

     RDKit          3D

 46 48  0  0  0  0  0  0  0  0999 V2000
    3.0124   17.6710   39.1156 C   0  0  1  0  0  0  0  0  0  0  0  0
    3.0005   18.8165   38.1829 O   0  0  0  0  0  0  0  0  0  0  0  0
    4.0691   18.2348   39.9195 O   0  0  0  0  0  0  0  0  0  0  0  0
    3.1516   22.0317   34.8886 C   0  0  0  0  0  0  0  0  0  0  0  0
    2.2588   16.5921   40.3779 C   0  0  1  0  0  0  0  0  0  0  0  0
    3.2560   20.9937   35.9948 C   0  0  0  0  0  0  0  0  0  0  0  0
    1.6816   14.2172   40.4724 O   0  0  0  0  0  0  0  0  0  0  0  0
    2.2898   23.0985   35.0514 C   0  0  0  0  0  0  0  0  0  0  0  0
    1.6367   15.2788   41.4341 C   0  0  1  0  0  0  0  0  0  0  0  0
    2.7673   23.9133   32.8329 C   0  0  0  0  0  0  0  0  0  0  0  0
    3.8731   22.0147   33.7953 C   0  0  0  0  0  0  0  0  0  0  0  0
    1.4018   25.9008   31.8392 C   0  0  0  0  0  0  0  0  0  0  0  0
    3.6294   22.8705   32.7096 C   0  0  0  0  0  0  0  0  0  0  0  0
    3.0083   13.4045   37.8597 N   0  0  0  0  0  0  0  0  0  0  0  0
    3.4070   14.9848   39.5436 O   0  0  0  0  0  0  0  0  0  0  0  0
    2.0969   24.0677   34.0779 C   0  0  0  0  0  0  0  0  0  0  0  0
    3.7753   13.4911   38.9525 C   0  0  0  0  0  0  0  0  0  0  0  0
    2.4319   20.7349   36.8149 C   0  0  0  0  0  0  0  0  0  0  0  0
    1.3354   20.1528   40.5560 C   0  0  0  0  0  0  0  0  0  0  0  0
    1.6686   20.4732   39.2021 C   0  0  0  0  0  0  0  0  0  0  0  0
    2.3806   20.0031   38.1085 C   0  0  0  0  0  0  0  0  0  0  0  0
    2.5725   24.9647   31.7448 C   0  0  0  0  0  0  0  0  0  0  0  0
    2.4496   15.1787   39.7266 C   0  0  1  0  0  0  0  0  0  0  0  0
    3.4113   25.0710   30.7893 O   0  0  0  0  0  0  0  0  0  0  0  0
    2.6319   16.9683   38.3597 H   0  0  0  0  0  0  0  0  0  0  0  0
    3.8239   18.1737   40.8767 H   0  0  0  0  0  0  0  0  0  0  0  0
    1.3218   16.5728   39.8019 H   0  0  0  0  0  0  0  0  0  0  0  0
    4.1933   20.4201   36.0428 H   0  0  0  0  0  0  0  0  0  0  0  0
    1.7313   23.1835   35.9952 H   0  0  0  0  0  0  0  0  0  0  0  0
    1.2520   15.3086   42.4642 H   0  0  0  0  0  0  0  0  0  0  0  0
    4.7055   21.2991   33.7249 H   0  0  0  0  0  0  0  0  0  0  0  0
    1.1502   26.0676   32.8969 H   0  0  0  0  0  0  0  0  0  0  0  0
    1.6608   26.8605   31.3681 H   0  0  0  0  0  0  0  0  0  0  0  0
    0.5371   25.4598   31.3218 H   0  0  0  0  0  0  0  0  0  0  0  0
    4.1405   22.6955   31.7515 H   0  0  0  0  0  0  0  0  0  0  0  0
    2.0186   13.3443   38.1388 H   0  0  0  0  0  0  0  0  0  0  0  0
    3.1497   14.2398   37.2740 H   0  0  0  0  0  0  0  0  0  0  0  0
    3.2661   12.5627   37.3251 H   0  0  0  0  0  0  0  0  0  0  0  0
    1.4430   24.9324   34.2638 H   0  0  0  0  0  0  0  0  0  0  0  0
    3.5206   12.7045   39.6781 H   0  0  0  0  0  0  0  0  0  0  0  0
    4.8470   13.3592   38.7426 H   0  0  0  0  0  0  0  0  0  0  0  0
    1.4484   21.1460   36.5435 H   0  0  0  0  0  0  0  0  0  0  0  0
    1.7722   20.9053   41.2290 H   0  0  0  0  0  0  0  0  0  0  0  0
    0.2417   20.1470   40.6730 H   0  0  0  0  0  0  0  0  0  0  0  0
    1.7363   19.1596   40.8071 H   0  0  0  0  0  0  0  0  0  0  0  0
    1.1929   21.4281   38.9342 H   0  0  0  0  0  0  0  0  0  0  0  0
  1  3  1  0
  2 21  1  0
  2  1  1  0
  4  8  2  0
  4  6  1  0
  5  1  1  0
  5  9  1  0
  6 18  2  3
  9  7  1  0
 10 16  2  0
 11  4  1  0
 13 10  1  0
 13 11  2  0
 14 17  1  0
 16  8  1  0
 17 15  1  0
 18 21  1  0
 20 19  1  0
 21 20  2  3
 22 12  1  0
 22 10  1  0
 23 15  1  6
 23  5  1  0
 23  7  1  0
 23  9  1  0
 24 22  2  0
  1 25  1  6
  3 26  1  0
  5 27  1  6
  6 28  1  0
  8 29  1  0
  9 30  1  1
 11 31  1  0
 12 32  1  0
 12 33  1  0
 12 34  1  0
 13 35  1  0
 14 36  1  0
 14 37  1  0
 14 38  1  0
 16 39  1  0
 17 40  1  0
 17 41  1  0
 18 42  1  0
 19 43  1  0
 19 44  1  0
 19 45  1  0
 20 46  1  0
M  CHG  1  14   1
M  END
>  <mol_id>  (96) 
2026-09-16-6tgu-s0-n100-0096

>  <rmsd_to_ref>  (96) 


$$$$

     RDKit          3D

 47 50  0  0  0  0  0  0  0  0999 V2000
    0.7187   21.2677   34.1564 C   0  0  0  0  0  0  0  0  0  0  0  0
    2.1967   17.3186   40.7342 O   0  0  0  0  0  0  0  0  0  0  0  0
    0.3642   20.0236   43.2006 N   0  0  0  0  0  0  0  0  0  0  0  0
    1.7801   19.4245   41.3427 O   0  0  0  0  0  0  0  0  0  0  0  0
    1.8143   22.4676   35.9740 C   0  0  0  0  0  0  0  0  0  0  0  0
   -0.5946   19.3779   44.0320 N   0  0  0  0  0  0  0  0  0  0  0  0
    3.0415   20.4189   36.9467 C   0  0  0  0  0  0  0  0  0  0  0  0
    2.0871   18.7029   40.2583 C   0  0  0  0  0  0  0  0  0  0  0  0
    3.7100   15.5360   37.9925 C   0  0  0  0  0  0  0  0  0  0  0  0
    0.8848   18.9689   42.3754 C   0  0  0  0  0  0  0  0  0  0  0  0
    2.7452   16.3568   40.0207 C   0  0  0  0  0  0  0  0  0  0  0  0
    3.2248   16.5897   38.7252 C   0  0  0  0  0  0  0  0  0  0  0  0
    2.6037   20.3374   38.4718 C   0  0  0  0  0  0  0  0  0  0  0  0
    2.9268   15.0706   40.5868 C   0  0  0  0  0  0  0  0  0  0  0  0
    2.6436   18.8974   38.9563 C   0  0  0  0  0  0  0  0  0  0  0  0
    3.1078   17.9226   38.2015 N   0  0  0  0  0  0  0  0  0  0  0  0
    2.8170   22.8107   33.8032 C   0  0  0  0  0  0  0  0  0  0  0  0
    3.6962   14.2561   38.4563 C   0  0  0  0  0  0  0  0  0  0  0  0
    2.2708   21.4203   34.1341 C   0  0  1  0  0  0  0  0  0  0  0  0
    0.1265   17.7400   42.6997 C   0  0  0  0  0  0  0  0  0  0  0  0
    3.3546   13.9627   39.7531 C   0  0  0  0  0  0  0  0  0  0  0  0
    2.7953   21.4795   35.6313 C   0  0  1  0  0  0  0  0  0  0  0  0
    2.1915   23.4102   34.9673 C   0  0  0  0  0  0  0  0  0  0  0  0
   -0.6820   17.9709   43.7756 C   0  0  0  0  0  0  0  0  0  0  0  0
    0.3729   21.1896   35.1977 H   0  0  0  0  0  0  0  0  0  0  0  0
    0.2571   22.1460   33.6815 H   0  0  0  0  0  0  0  0  0  0  0  0
    0.4317   20.3598   33.6056 H   0  0  0  0  0  0  0  0  0  0  0  0
    0.7837   22.1036   35.8503 H   0  0  0  0  0  0  0  0  0  0  0  0
    1.8035   22.8232   37.0149 H   0  0  0  0  0  0  0  0  0  0  0  0
   -1.1618   19.8675   44.7387 H   0  0  0  0  0  0  0  0  0  0  0  0
    4.1387   20.3870   37.0176 H   0  0  0  0  0  0  0  0  0  0  0  0
    2.2769   19.7032   36.6105 H   0  0  0  0  0  0  0  0  0  0  0  0
    4.7626   15.7721   37.7777 H   0  0  0  0  0  0  0  0  0  0  0  0
    2.9873   15.4843   37.1649 H   0  0  0  0  0  0  0  0  0  0  0  0
    3.2913   20.9439   39.0796 H   0  0  0  0  0  0  0  0  0  0  0  0
    1.5768   20.7194   38.5699 H   0  0  0  0  0  0  0  0  0  0  0  0
    2.7430   14.9117   41.6597 H   0  0  0  0  0  0  0  0  0  0  0  0
    3.9155   22.8651   33.8192 H   0  0  0  0  0  0  0  0  0  0  0  0
    2.6147   23.2394   32.8106 H   0  0  0  0  0  0  0  0  0  0  0  0
    3.9656   13.4361   37.7744 H   0  0  0  0  0  0  0  0  0  0  0  0
    2.5606   20.6213   33.4359 H   0  0  0  0  0  0  0  0  0  0  0  0
    0.2025   16.7863   42.1570 H   0  0  0  0  0  0  0  0  0  0  0  0
    3.4030   12.9351   40.1424 H   0  0  0  0  0  0  0  0  0  0  0  0
    3.8915   21.4410   35.5478 H   0  0  0  0  0  0  0  0  0  0  0  0
    2.8997   24.1254   35.4109 H   0  0  0  0  0  0  0  0  0  0  0  0
    1.2659   23.8919   34.6191 H   0  0  0  0  0  0  0  0  0  0  0  0
   -1.2770   17.2304   44.3304 H   0  0  0  0  0  0  0  0  0  0  0  0
  3  6  1  0
  4 10  1  0
  7 13  1  0
  8  2  1  0
  8  4  1  0
  9 18  1  0
  9 12  1  0
 10 20  1  0
 10  3  2  0
 11 14  2  0
 11  2  1  0
 12 11  1  0
 13 15  1  0
 15  8  2  0
 16 12  2  0
 16 15  1  0
 17 19  1  0
 17 23  1  0
 18 21  2  0
 19  1  1  0
 19 22  1  0
 20 24  2  0
 21 14  1  0
 22  5  1  0
 22  7  1  0
 23  5  1  0
 24  6  1  0
  1 25  1  0
  1 26  1  0
  1 27  1  0
  5 28  1  0
  5 29  1  0
  6 30  1  0
  7 31  1  0
  7 32  1  0
  9 33  1  0
  9 34  1  0
 13 35  1  0
 13 36  1  0
 14 37  1  0
 17 38  1  0
 17 39  1  0
 18 40  1  0
 19 41  1  6
 20 42  1  0
 21 43  1  0
 22 44  1  6
 23 45  1  0
 23 46  1  0
 24 47  1  0
M  END
>  <mol_id>  (97) 
2026-09-16-6tgu-s0-n100-0097

>  <rmsd_to_ref>  (97) 


$$$$

     RDKit          3D

 56 59  0  0  0  0  0  0  0  0999 V2000
    2.7002   14.4394   39.0432 O   0  0  0  0  0  0  0  0  0  0  0  0
    5.0373   23.3098   30.0256 C   0  0  0  0  0  0  0  0  0  0  0  0
    3.1023   20.8959   35.8684 S   0  0  0  0  0  0  0  0  0  0  0  0
    3.2764   13.8723   37.8942 C   0  0  1  0  0  0  0  0  0  0  0  0
    4.3251   13.1966   37.0550 C   0  0  0  0  0  0  0  0  0  0  0  0
    2.7696   15.7513   39.1502 C   0  0  0  0  0  0  0  0  0  0  0  0
    2.1579   16.1471   40.1531 C   0  0  0  0  0  0  0  0  0  0  0  0
    0.8568   18.9946   43.1570 O   0  0  0  0  0  0  0  0  0  0  0  0
    3.8357   21.8473   33.6360 C   0  0  0  0  0  0  0  0  0  0  0  0
    1.8942   13.5509   37.0909 C   0  0  0  0  0  0  0  0  0  0  0  0
    0.3100   18.2726   42.4109 C   0  0  0  0  0  0  0  0  0  0  0  0
    5.0647   22.7052   30.7381 C   0  0  1  0  0  0  0  0  0  0  0  0
   -1.0713   17.8311   42.6181 C   0  0  0  0  0  0  0  0  0  0  0  0
    2.2283   18.2480   39.3683 C   0  0  0  0  0  0  0  0  0  0  0  0
    4.4671   20.8151   34.6446 C   0  0  0  0  0  0  0  0  0  0  0  0
    3.0261   17.8574   38.3994 C   0  0  0  0  0  0  0  0  0  0  0  0
    3.2059   16.5551   38.1629 C   0  0  0  0  0  0  0  0  0  0  0  0
    4.9785   22.1957   32.3122 C   0  0  2  0  0  0  0  0  0  0  0  0
    2.1802   12.1760   36.9601 N   0  0  0  0  0  0  0  0  0  0  0  0
    3.6437   19.5871   36.7437 C   0  0  0  0  0  0  0  0  0  0  0  0
    4.5390   24.1962   30.9258 C   0  0  0  0  0  0  0  0  0  0  0  0
    4.1692   21.8036   32.4007 C   0  0  0  0  0  0  0  0  0  0  0  0
    4.2367   22.9675   31.5459 C   0  0  1  0  0  0  0  0  0  0  0  0
    0.9133   17.6572   41.4389 N   0  0  0  0  0  0  0  0  0  0  0  0
    3.5662   18.7576   37.4965 C   0  0  0  0  0  0  0  0  0  0  0  0
    1.8794   17.4500   40.3779 C   0  0  0  0  0  0  0  0  0  0  0  0
    3.5673   12.0774   36.4516 C   0  0  0  0  0  0  0  0  0  0  0  0
    4.3497   23.0379   29.2113 H   0  0  0  0  0  0  0  0  0  0  0  0
    5.9156   23.5298   29.4010 H   0  0  0  0  0  0  0  0  0  0  0  0
    4.2194   14.2811   38.2861 H   0  0  0  0  0  0  0  0  0  0  0  0
    4.7168   13.8754   36.2830 H   0  0  0  0  0  0  0  0  0  0  0  0
    5.2087   12.8753   37.6259 H   0  0  0  0  0  0  0  0  0  0  0  0
    1.8268   15.4041   40.8936 H   0  0  0  0  0  0  0  0  0  0  0  0
    2.7451   21.7106   33.6784 H   0  0  0  0  0  0  0  0  0  0  0  0
    4.2290   22.8165   33.9766 H   0  0  0  0  0  0  0  0  0  0  0  0
    1.8219   14.0729   36.1254 H   0  0  0  0  0  0  0  0  0  0  0  0
    0.9404   13.8444   37.5538 H   0  0  0  0  0  0  0  0  0  0  0  0
    5.7269   22.2292   29.9999 H   0  0  0  0  0  0  0  0  0  0  0  0
   -1.2257   17.5964   43.6816 H   0  0  0  0  0  0  0  0  0  0  0  0
   -1.7617   18.6322   42.3155 H   0  0  0  0  0  0  0  0  0  0  0  0
   -1.2639   16.9331   42.0127 H   0  0  0  0  0  0  0  0  0  0  0  0
    1.8328   19.2742   39.3454 H   0  0  0  0  0  0  0  0  0  0  0  0
    4.5890   19.8129   34.2079 H   0  0  0  0  0  0  0  0  0  0  0  0
    5.4839   21.0235   35.0087 H   0  0  0  0  0  0  0  0  0  0  0  0
    3.6699   16.1730   37.2417 H   0  0  0  0  0  0  0  0  0  0  0  0
    5.7294   21.9502   33.0776 H   0  0  0  0  0  0  0  0  0  0  0  0
    2.1032   11.7087   37.8747 H   0  0  0  0  0  0  0  0  0  0  0  0
    1.5167   11.7186   36.3187 H   0  0  0  0  0  0  0  0  0  0  0  0
    5.2694   24.8392   31.4386 H   0  0  0  0  0  0  0  0  0  0  0  0
    3.8312   25.0114   30.7147 H   0  0  0  0  0  0  0  0  0  0  0  0
    3.4260   22.3431   31.7951 H   0  0  0  0  0  0  0  0  0  0  0  0
    4.2133   20.7599   32.0561 H   0  0  0  0  0  0  0  0  0  0  0  0
    3.2043   22.9223   31.9230 H   0  0  0  0  0  0  0  0  0  0  0  0
    0.3770   16.7790   41.3950 H   0  0  0  0  0  0  0  0  0  0  0  0
    3.5754   12.1624   35.3549 H   0  0  0  0  0  0  0  0  0  0  0  0
    4.0165   11.1088   36.7162 H   0  0  0  0  0  0  0  0  0  0  0  0
  2 21  1  0
  3 20  1  0
  4  1  1  0
  5  4  1  0
  6  1  1  0
  6  7  2  0
  9 15  1  0
 10 19  1  0
 10  4  1  0
 11 13  1  0
 11  8  2  0
 12  2  1  0
 12 23  1  0
 12 18  1  0
 14 26  2  0
 15  3  1  0
 16 14  1  0
 17 16  2  0
 17  6  1  0
 18 22  1  0
 20 25  3  0
 22  9  1  0
 23 21  1  0
 23 18  1  0
 24 11  1  0
 25 16  1  0
 26  7  1  0
 26 24  1  0
 27  5  1  0
 27 19  1  0
  2 28  1  0
  2 29  1  0
  4 30  1  6
  5 31  1  0
  5 32  1  0
  7 33  1  0
  9 34  1  0
  9 35  1  0
 10 36  1  0
 10 37  1  0
 12 38  1  6
 13 39  1  0
 13 40  1  0
 13 41  1  0
 14 42  1  0
 15 43  1  0
 15 44  1  0
 17 45  1  0
 18 46  1  1
 19 47  1  0
 19 48  1  0
 21 49  1  0
 21 50  1  0
 22 51  1  0
 22 52  1  0
 23 53  1  6
 24 54  1  0
 27 55  1  0
 27 56  1  0
M  CHG  1  19   1
M  END
>  <mol_id>  (98) 
2026-09-16-6tgu-s0-n100-0099

>  <rmsd_to_ref>  (98) 


$$$$

     RDKit          3D

 53 54  0  0  0  0  0  0  0  0999 V2000
    1.5777   15.5535   40.8705 O   0  0  0  0  0  0  0  0  0  0  0  0
    2.5544   25.3046   32.0743 C   0  0  0  0  0  0  0  0  0  0  0  0
    2.6609   22.4754   34.6743 C   0  0  0  0  0  0  0  0  0  0  0  0
    3.6135   20.0320   38.9862 C   0  0  0  0  0  0  0  0  0  0  0  0
    1.4856   25.2185   34.3712 C   0  0  0  0  0  0  0  0  0  0  0  0
    3.2742   23.6175   33.8674 C   0  0  0  0  0  0  0  0  0  0  0  0
    2.3309   17.3397   39.7958 N   0  0  0  0  0  0  0  0  0  0  0  0
    2.7282   21.6521   37.1018 C   0  0  0  0  0  0  0  0  0  0  0  0
    1.0141   26.6601   34.0542 C   0  0  0  0  0  0  0  0  0  0  0  0
    1.7802   20.8202   40.5409 N   0  0  0  0  0  0  0  0  0  0  0  0
    0.5820   26.8809   32.5187 C   0  0  0  0  0  0  0  0  0  0  0  0
    0.8049   20.3664   41.4331 C   0  0  0  0  0  0  0  0  0  0  0  0
    0.6980   18.9859   41.3949 C   0  0  0  0  0  0  0  0  0  0  0  0
    2.4652   19.7220   39.9403 C   0  0  0  0  0  0  0  0  0  0  0  0
    3.0874   15.2380   39.5092 O   0  0  0  0  0  0  0  0  0  0  0  0
    2.2741   16.0179   40.1819 C   0  0  0  0  0  0  0  0  0  0  0  0
    3.2248   19.3280   36.7572 O   0  0  0  0  0  0  0  0  0  0  0  0
    2.2069   24.4306   33.2737 C   0  0  2  0  0  0  0  0  0  0  0  0
    1.2572   26.1069   30.1526 C   0  0  0  0  0  0  0  0  0  0  0  0
   -0.2167   18.1373   42.0565 C   0  0  0  0  0  0  0  0  0  0  0  0
    3.2145   20.3004   37.5645 C   0  0  0  0  0  0  0  0  0  0  0  0
    3.2841   22.1752   35.8882 C   0  0  0  0  0  0  0  0  0  0  0  0
    1.8660   18.5660   40.3313 C   0  0  0  0  0  0  0  0  0  0  0  0
    1.4477   26.1862   31.5592 C   0  0  2  0  0  0  0  0  0  0  0  0
    3.3952   25.9529   32.3622 H   0  0  0  0  0  0  0  0  0  0  0  0
    2.7848   24.6074   31.2552 H   0  0  0  0  0  0  0  0  0  0  0  0
    2.6885   21.5703   34.0497 H   0  0  0  0  0  0  0  0  0  0  0  0
    1.6475   22.8118   34.9383 H   0  0  0  0  0  0  0  0  0  0  0  0
    4.1389   20.9211   39.3649 H   0  0  0  0  0  0  0  0  0  0  0  0
    4.2385   19.1271   38.9599 H   0  0  0  0  0  0  0  0  0  0  0  0
    2.1703   25.2817   35.2298 H   0  0  0  0  0  0  0  0  0  0  0  0
    0.5530   24.6592   34.5374 H   0  0  0  0  0  0  0  0  0  0  0  0
    3.8872   24.2458   34.5303 H   0  0  0  0  0  0  0  0  0  0  0  0
    3.9041   23.2017   33.0672 H   0  0  0  0  0  0  0  0  0  0  0  0
    2.8312   17.4661   38.9045 H   0  0  0  0  0  0  0  0  0  0  0  0
    1.6395   21.5803   36.9615 H   0  0  0  0  0  0  0  0  0  0  0  0
    3.0564   22.3513   37.8849 H   0  0  0  0  0  0  0  0  0  0  0  0
    0.1496   26.8907   34.6941 H   0  0  0  0  0  0  0  0  0  0  0  0
    1.8690   27.3255   34.2448 H   0  0  0  0  0  0  0  0  0  0  0  0
   -0.4462   26.5115   32.3902 H   0  0  0  0  0  0  0  0  0  0  0  0
    0.6687   27.9575   32.3108 H   0  0  0  0  0  0  0  0  0  0  0  0
    1.0777   20.6776   42.4524 H   0  0  0  0  0  0  0  0  0  0  0  0
   -0.1634   20.8001   41.1428 H   0  0  0  0  0  0  0  0  0  0  0  0
    1.5362   23.6918   32.8108 H   0  0  0  0  0  0  0  0  0  0  0  0
    0.2180   25.8164   29.9391 H   0  0  0  0  0  0  0  0  0  0  0  0
    1.4644   27.0873   29.6987 H   0  0  0  0  0  0  0  0  0  0  0  0
    1.9418   25.3558   29.7316 H   0  0  0  0  0  0  0  0  0  0  0  0
   -0.1317   18.2829   43.1435 H   0  0  0  0  0  0  0  0  0  0  0  0
   -1.2402   18.3783   41.7333 H   0  0  0  0  0  0  0  0  0  0  0  0
    0.0091   17.0898   41.8081 H   0  0  0  0  0  0  0  0  0  0  0  0
    4.0670   21.4517   35.6171 H   0  0  0  0  0  0  0  0  0  0  0  0
    3.4401   23.2083   36.2321 H   0  0  0  0  0  0  0  0  0  0  0  0
    1.3762   27.2830   31.5161 H   0  0  0  0  0  0  0  0  0  0  0  0
  2 18  1  0
  3 22  1  0
  4 14  1  0
  6  3  1  0
  7 16  1  0
  7 23  1  0
  8 21  1  0
  9  5  1  0
 10 12  1  0
 11  9  1  0
 13 12  1  0
 13 20  1  0
 14 23  1  0
 14 10  2  0
 15 16  2  0
 16  1  1  0
 17 21  2  0
 18  6  1  0
 18  5  1  0
 21  4  1  0
 22  8  1  0
 23 13  2  0
 24 19  1  0
 24  2  1  0
 24 11  1  0
  2 25  1  0
  2 26  1  0
  3 27  1  0
  3 28  1  0
  4 29  1  0
  4 30  1  0
  5 31  1  0
  5 32  1  0
  6 33  1  0
  6 34  1  0
  7 35  1  0
  8 36  1  0
  8 37  1  0
  9 38  1  0
  9 39  1  0
 11 40  1  0
 11 41  1  0
 12 42  1  0
 12 43  1  0
 18 44  1  6
 19 45  1  0
 19 46  1  0
 19 47  1  0
 20 48  1  0
 20 49  1  0
 20 50  1  0
 22 51  1  0
 22 52  1  0
 24 53  1  6
M  CHG  1   1  -1
M  END
>  <mol_id>  (99) 
2026-09-16-6tgu-s0-n100-0100

>  <rmsd_to_ref>  (99) 


$$$$
