6fnk.A
     RDKit          3D

 27 29  0  0  0  0  0  0  0  0999 V2000
    3.0191   15.8490   40.6580 C   0  0  0  0  0  0  0  0  0  0  0  0
    3.6799   14.6346   40.4722 C   0  0  0  0  0  0  0  0  0  0  0  0
    4.0001   13.8455   41.5673 C   0  0  0  0  0  0  0  0  0  0  0  0
    3.6568   14.2664   42.8551 N   0  0  0  0  0  0  0  0  0  0  0  0
    2.9936   15.4892   43.0390 C   0  0  0  0  0  0  0  0  0  0  0  0
    2.6731   16.2836   41.9398 C   0  0  0  0  0  0  0  0  0  0  0  0
    2.0140   17.5030   42.1264 C   0  0  0  0  0  0  0  0  0  0  0  0
    1.8518   18.3627   41.1112 N   0  0  0  0  0  0  0  0  0  0  0  0
    1.5301   17.8200   43.3316 N   0  0  0  0  0  0  0  0  0  0  0  0
    0.8984   18.9868   43.5518 C   0  0  0  0  0  0  0  0  0  0  0  0
    0.3535   19.5206   44.6555 N   0  0  0  0  0  0  0  0  0  0  0  0
    0.3134   18.8995   45.9828 C   0  0  0  0  0  0  0  0  0  0  0  0
   -0.1317   20.6253   44.4077 N   0  0  0  0  0  0  0  0  0  0  0  0
    0.0476   20.8583   43.0971 C   0  0  0  0  0  0  0  0  0  0  0  0
    0.7223   19.8398   42.5474 C   0  0  0  0  0  0  0  0  0  0  0  0
    1.2029   19.5244   41.3133 C   0  0  0  0  0  0  0  0  0  0  0  0
    1.0443   20.3719   40.2678 N   0  0  0  0  0  0  0  0  0  0  0  0
    2.7678   16.4708   39.7862 H   0  0  0  0  0  0  0  0  0  0  0  0
    3.9468   14.3029   39.4579 H   0  0  0  0  0  0  0  0  0  0  0  0
    4.5237   12.8891   41.4222 H   0  0  0  0  0  0  0  0  0  0  0  0
    2.7261   15.8213   44.0529 H   0  0  0  0  0  0  0  0  0  0  0  0
    0.7084   19.6041   46.7295 H   0  0  0  0  0  0  0  0  0  0  0  0
   -0.7256   18.6415   46.2357 H   0  0  0  0  0  0  0  0  0  0  0  0
    0.9273   17.9868   45.9792 H   0  0  0  0  0  0  0  0  0  0  0  0
   -0.3057   21.7494   42.5574 H   0  0  0  0  0  0  0  0  0  0  0  0
    0.5509   21.2662   40.4001 H   0  0  0  0  0  0  0  0  0  0  0  0
    1.4173   20.1217   39.3409 H   0  0  0  0  0  0  0  0  0  0  0  0
  1  2  2  0
  1  6  1  0
  2  3  1  0
  3  4  2  0
  4  5  1  0
  5  6  2  0
  6  7  1  0
  7  8  2  0
  7  9  1  0
  8 16  1  0
  9 10  2  0
 10 11  1  0
 10 15  1  0
 11 12  1  0
 11 13  1  0
 13 14  2  0
 14 15  1  0
 15 16  2  0
 16 17  1  0
  1 18  1  0
  2 19  1  0
  3 20  1  0
  5 21  1  0
 12 22  1  0
 12 23  1  0
 12 24  1  0
 14 25  1  0
 17 26  1  0
 17 27  1  0
M  END
>  <mol_id>  (1) 
2026-09-17-6fnk-s0-n100-0001

>  <rmsd_to_ref>  (1) 
0.0

>  <pose_kind>  (1) 
native

$$$$
6fnk.A
     RDKit          3D

 27 29  0  0  0  0  0  0  0  0999 V2000
    1.8408   16.1536   40.2797 C   0  0  0  0  0  0  0  0  0  0  0  0
    2.2549   14.9026   39.8671 C   0  0  0  0  0  0  0  0  0  0  0  0
    2.5705   13.9886   40.8782 C   0  0  0  0  0  0  0  0  0  0  0  0
    2.4764   14.3083   42.1605 N   0  0  0  0  0  0  0  0  0  0  0  0
    2.0740   15.5237   42.5305 C   0  0  0  0  0  0  0  0  0  0  0  0
    1.7405   16.4939   41.6176 C   0  0  0  0  0  0  0  0  0  0  0  0
    1.2965   17.8330   41.9860 C   0  0  0  0  0  0  0  0  0  0  0  0
    0.9808   18.7495   41.0475 N   0  0  0  0  0  0  0  0  0  0  0  0
    1.1980   18.1670   43.2884 N   0  0  0  0  0  0  0  0  0  0  0  0
    0.7861   19.4106   43.6715 C   0  0  0  0  0  0  0  0  0  0  0  0
    0.5991   20.0055   44.8647 N   0  0  0  0  0  0  0  0  0  0  0  0
    0.8174   19.3919   46.1788 C   0  0  0  0  0  0  0  0  0  0  0  0
    0.1833   21.2430   44.6482 N   0  0  0  0  0  0  0  0  0  0  0  0
    0.0865   21.4938   43.3423 C   0  0  0  0  0  0  0  0  0  0  0  0
    0.4672   20.3355   42.6981 C   0  0  0  0  0  0  0  0  0  0  0  0
    0.5680   19.9940   41.3614 C   0  0  0  0  0  0  0  0  0  0  0  0
    0.2469   20.9237   40.3231 N   0  0  0  0  0  0  0  0  0  0  0  0
    1.5867   16.8911   39.5217 H   0  0  0  0  0  0  0  0  0  0  0  0
    2.3316   14.6417   38.8168 H   0  0  0  0  0  0  0  0  0  0  0  0
    2.8947   13.0083   40.5263 H   0  0  0  0  0  0  0  0  0  0  0  0
    2.0129   15.7374   43.5807 H   0  0  0  0  0  0  0  0  0  0  0  0
    1.0295   20.2215   46.8819 H   0  0  0  0  0  0  0  0  0  0  0  0
   -0.1304   18.9368   46.5576 H   0  0  0  0  0  0  0  0  0  0  0  0
    1.6090   18.6397   46.1249 H   0  0  0  0  0  0  0  0  0  0  0  0
   -0.2188   22.3914   42.8164 H   0  0  0  0  0  0  0  0  0  0  0  0
    0.9344   21.0535   39.5248 H   0  0  0  0  0  0  0  0  0  0  0  0
   -0.6522   21.4572   40.3651 H   0  0  0  0  0  0  0  0  0  0  0  0
  1  2  2  0
  1  6  1  0
  2  3  1  0
  3  4  2  0
  4  5  1  0
  5  6  2  0
  6  7  1  0
  7  8  2  0
  7  9  1  0
  8 16  1  0
  9 10  2  0
 10 11  1  0
 10 15  1  0
 11 12  1  0
 11 13  1  0
 13 14  2  0
 14 15  1  0
 15 16  2  0
 16 17  1  0
  1 18  1  0
  2 19  1  0
  3 20  1  0
  5 21  1  0
 12 22  1  0
 12 23  1  0
 12 24  1  0
 14 25  1  0
 17 26  1  0
 17 27  1  0
M  END
>  <mol_id>  (2) 
2026-09-17-6fnk-s0-n100-0002

>  <rmsd_to_ref>  (2) 
0.5000000000050919

>  <pose_kind>  (2) 
conformer

$$$$
6fnk.A
     RDKit          3D

 27 29  0  0  0  0  0  0  0  0999 V2000
    1.9845   15.7273   39.7050 C   0  0  0  0  0  0  0  0  0  0  0  0
    2.3665   14.4665   39.2465 C   0  0  0  0  0  0  0  0  0  0  0  0
    2.5322   13.4233   40.1457 C   0  0  0  0  0  0  0  0  0  0  0  0
    2.3125   13.6358   41.5094 N   0  0  0  0  0  0  0  0  0  0  0  0
    1.9299   14.9056   41.9679 C   0  0  0  0  0  0  0  0  0  0  0  0
    1.7650   15.9549   41.0657 C   0  0  0  0  0  0  0  0  0  0  0  0
    1.3858   17.2200   41.5259 C   0  0  0  0  0  0  0  0  0  0  0  0
    1.3912   18.2822   40.7088 N   0  0  0  0  0  0  0  0  0  0  0  0
    1.0049   17.3788   42.7974 N   0  0  0  0  0  0  0  0  0  0  0  0
    0.6418   18.5810   43.2785 C   0  0  0  0  0  0  0  0  0  0  0  0
    0.2455   18.9804   44.4966 N   0  0  0  0  0  0  0  0  0  0  0  0
    0.0999   18.1250   45.6781 C   0  0  0  0  0  0  0  0  0  0  0  0
    0.0031   20.1880   44.4984 N   0  0  0  0  0  0  0  0  0  0  0  0
    0.2020   20.6400   43.2491 C   0  0  0  0  0  0  0  0  0  0  0  0
    0.6324   19.6374   42.4716 C   0  0  0  0  0  0  0  0  0  0  0  0
    1.0097   19.4869   41.1723 C   0  0  0  0  0  0  0  0  0  0  0  0
    1.0155   20.5427   40.3228 N   0  0  0  0  0  0  0  0  0  0  0  0
    1.8549   16.5511   38.9877 H   0  0  0  0  0  0  0  0  0  0  0  0
    2.5363   14.2996   38.1726 H   0  0  0  0  0  0  0  0  0  0  0  0
    2.8363   12.4294   39.7856 H   0  0  0  0  0  0  0  0  0  0  0  0
    1.7597   15.0731   43.0417 H   0  0  0  0  0  0  0  0  0  0  0  0
    0.6511   18.5672   46.5212 H   0  0  0  0  0  0  0  0  0  0  0  0
   -0.9650   18.0404   45.9404 H   0  0  0  0  0  0  0  0  0  0  0  0
    0.5043   17.1257   45.4595 H   0  0  0  0  0  0  0  0  0  0  0  0
    0.0369   21.6751   42.9156 H   0  0  0  0  0  0  0  0  0  0  0  0
    0.7274   21.4737   40.6565 H   0  0  0  0  0  0  0  0  0  0  0  0
    1.3078   20.4143   39.3436 H   0  0  0  0  0  0  0  0  0  0  0  0
  1  2  2  0
  1  6  1  0
  2  3  1  0
  3  4  2  0
  4  5  1  0
  5  6  2  0
  6  7  1  0
  7  8  2  0
  7  9  1  0
  8 16  1  0
  9 10  2  0
 10 11  1  0
 10 15  1  0
 11 12  1  0
 11 13  1  0
 13 14  2  0
 14 15  1  0
 15 16  2  0
 16 17  1  0
  1 18  1  0
  2 19  1  0
  3 20  1  0
  5 21  1  0
 12 22  1  0
 12 23  1  0
 12 24  1  0
 14 25  1  0
 17 26  1  0
 17 27  1  0
M  END
>  <mol_id>  (3) 
2026-09-17-6fnk-s0-n100-0003

>  <rmsd_to_ref>  (3) 
0.5459183673479185

>  <pose_kind>  (3) 
rigid

$$$$
6fnk.A
     RDKit          3D

 27 29  0  0  0  0  0  0  0  0999 V2000
    2.7742   15.0272   41.6672 C   0  0  0  0  0  0  0  0  0  0  0  0
    3.2745   13.7435   41.7586 C   0  0  0  0  0  0  0  0  0  0  0  0
    2.9790   13.0443   42.9337 C   0  0  0  0  0  0  0  0  0  0  0  0
    2.2583   13.5865   43.9044 N   0  0  0  0  0  0  0  0  0  0  0  0
    1.7877   14.8279   43.7896 C   0  0  0  0  0  0  0  0  0  0  0  0
    2.0206   15.5993   42.6775 C   0  0  0  0  0  0  0  0  0  0  0  0
    1.5219   16.9601   42.5180 C   0  0  0  0  0  0  0  0  0  0  0  0
    1.7803   17.6750   41.4032 N   0  0  0  0  0  0  0  0  0  0  0  0
    0.7877   17.5198   43.5005 N   0  0  0  0  0  0  0  0  0  0  0  0
    0.3039   18.7909   43.3868 C   0  0  0  0  0  0  0  0  0  0  0  0
   -0.4363   19.5827   44.1856 N   0  0  0  0  0  0  0  0  0  0  0  0
   -0.9547   19.2289   45.5110 C   0  0  0  0  0  0  0  0  0  0  0  0
   -0.6166   20.7389   43.5675 N   0  0  0  0  0  0  0  0  0  0  0  0
   -0.0175   20.7438   42.3766 C   0  0  0  0  0  0  0  0  0  0  0  0
    0.5779   19.5076   42.2396 C   0  0  0  0  0  0  0  0  0  0  0  0
    1.3311   18.9344   41.2308 C   0  0  0  0  0  0  0  0  0  0  0  0
    1.6368   19.6438   40.0270 N   0  0  0  0  0  0  0  0  0  0  0  0
    2.9835   15.6019   40.7679 H   0  0  0  0  0  0  0  0  0  0  0  0
    3.8647   13.3004   40.9632 H   0  0  0  0  0  0  0  0  0  0  0  0
    3.3855   12.0332   42.9813 H   0  0  0  0  0  0  0  0  0  0  0  0
    1.2087   15.2255   44.6013 H   0  0  0  0  0  0  0  0  0  0  0  0
   -1.0895   20.1815   46.0605 H   0  0  0  0  0  0  0  0  0  0  0  0
   -1.9853   18.8050   45.4249 H   0  0  0  0  0  0  0  0  0  0  0  0
   -0.2882   18.5184   46.0071 H   0  0  0  0  0  0  0  0  0  0  0  0
    0.0376   21.5153   41.6168 H   0  0  0  0  0  0  0  0  0  0  0  0
    2.6418   19.6594   39.6861 H   0  0  0  0  0  0  0  0  0  0  0  0
    0.8726   20.1322   39.5052 H   0  0  0  0  0  0  0  0  0  0  0  0
  1  2  2  0
  1  6  1  0
  2  3  1  0
  3  4  2  0
  4  5  1  0
  5  6  2  0
  6  7  1  0
  7  8  2  0
  7  9  1  0
  8 16  1  0
  9 10  2  0
 10 11  1  0
 10 15  1  0
 11 12  1  0
 11 13  1  0
 13 14  2  0
 14 15  1  0
 15 16  2  0
 16 17  1  0
  1 18  1  0
  2 19  1  0
  3 20  1  0
  5 21  1  0
 12 22  1  0
 12 23  1  0
 12 24  1  0
 14 25  1  0
 17 26  1  0
 17 27  1  0
M  END
>  <mol_id>  (4) 
2026-09-17-6fnk-s0-n100-0004

>  <rmsd_to_ref>  (4) 
0.5918367346950798

>  <pose_kind>  (4) 
conformer

$$$$
6fnk.A
     RDKit          3D

 27 29  0  0  0  0  0  0  0  0999 V2000
    3.0899   16.4403   40.9285 C   0  0  0  0  0  0  0  0  0  0  0  0
    3.9888   15.3781   40.8297 C   0  0  0  0  0  0  0  0  0  0  0  0
    4.1912   14.5386   41.9153 C   0  0  0  0  0  0  0  0  0  0  0  0
    3.4916   14.7559   43.1056 N   0  0  0  0  0  0  0  0  0  0  0  0
    2.5893   15.8260   43.2024 C   0  0  0  0  0  0  0  0  0  0  0  0
    2.3865   16.6712   42.1130 C   0  0  0  0  0  0  0  0  0  0  0  0
    1.4883   17.7386   42.2134 C   0  0  0  0  0  0  0  0  0  0  0  0
    1.4056   18.6645   41.2481 N   0  0  0  0  0  0  0  0  0  0  0  0
    0.6922   17.8398   43.2826 N   0  0  0  0  0  0  0  0  0  0  0  0
   -0.1778   18.8564   43.4186 C   0  0  0  0  0  0  0  0  0  0  0  0
   -1.0492   19.1712   44.3890 N   0  0  0  0  0  0  0  0  0  0  0  0
   -1.2752   18.4122   45.6228 C   0  0  0  0  0  0  0  0  0  0  0  0
   -1.6609   20.2015   44.1038 N   0  0  0  0  0  0  0  0  0  0  0  0
   -1.2339   20.6009   42.8946 C   0  0  0  0  0  0  0  0  0  0  0  0
   -0.2750   19.7723   42.4600 C   0  0  0  0  0  0  0  0  0  0  0  0
    0.5242   19.6753   41.3621 C   0  0  0  0  0  0  0  0  0  0  0  0
    0.4541   20.5931   40.3676 N   0  0  0  0  0  0  0  0  0  0  0  0
    2.9334   17.1030   40.0645 H   0  0  0  0  0  0  0  0  0  0  0  0
    4.5367   15.2062   39.8914 H   0  0  0  0  0  0  0  0  0  0  0  0
    4.9019   13.7025   41.8395 H   0  0  0  0  0  0  0  0  0  0  0  0
    2.0409   15.9984   44.1403 H   0  0  0  0  0  0  0  0  0  0  0  0
   -1.1984   19.0873   46.4878 H   0  0  0  0  0  0  0  0  0  0  0  0
   -2.2783   17.9615   45.5974 H   0  0  0  0  0  0  0  0  0  0  0  0
   -0.5186   17.6185   45.7087 H   0  0  0  0  0  0  0  0  0  0  0  0
   -1.6134   21.4749   42.3450 H   0  0  0  0  0  0  0  0  0  0  0  0
   -0.2133   21.3748   40.4343 H   0  0  0  0  0  0  0  0  0  0  0  0
    1.0683   20.5091   39.5451 H   0  0  0  0  0  0  0  0  0  0  0  0
  1  2  2  0
  1  6  1  0
  2  3  1  0
  3  4  2  0
  4  5  1  0
  5  6  2  0
  6  7  1  0
  7  8  2  0
  7  9  1  0
  8 16  1  0
  9 10  2  0
 10 11  1  0
 10 15  1  0
 11 12  1  0
 11 13  1  0
 13 14  2  0
 14 15  1  0
 15 16  2  0
 16 17  1  0
  1 18  1  0
  2 19  1  0
  3 20  1  0
  5 21  1  0
 12 22  1  0
 12 23  1  0
 12 24  1  0
 14 25  1  0
 17 26  1  0
 17 27  1  0
M  END
>  <mol_id>  (5) 
2026-09-17-6fnk-s0-n100-0005

>  <rmsd_to_ref>  (5) 
0.6377551020451819

>  <pose_kind>  (5) 
rigid

$$$$
6fnk.A
     RDKit          3D

 27 29  0  0  0  0  0  0  0  0999 V2000
    3.2221   15.2457   40.5303 C   0  0  0  0  0  0  0  0  0  0  0  0
    3.8355   14.0203   40.3609 C   0  0  0  0  0  0  0  0  0  0  0  0
    3.6100   13.0697   41.3622 C   0  0  0  0  0  0  0  0  0  0  0  0
    2.8491   13.3332   42.4144 N   0  0  0  0  0  0  0  0  0  0  0  0
    2.2690   14.5249   42.5526 C   0  0  0  0  0  0  0  0  0  0  0  0
    2.4260   15.5273   41.6271 C   0  0  0  0  0  0  0  0  0  0  0  0
    1.8070   16.8421   41.7458 C   0  0  0  0  0  0  0  0  0  0  0  0
    1.9943   17.7922   40.8064 N   0  0  0  0  0  0  0  0  0  0  0  0
    1.0311   17.1190   42.8131 N   0  0  0  0  0  0  0  0  0  0  0  0
    0.4352   18.3382   42.9583 C   0  0  0  0  0  0  0  0  0  0  0  0
   -0.3683   18.8788   43.8936 N   0  0  0  0  0  0  0  0  0  0  0  0
   -0.8458   18.2138   45.1104 C   0  0  0  0  0  0  0  0  0  0  0  0
   -0.6545   20.1174   43.5256 N   0  0  0  0  0  0  0  0  0  0  0  0
   -0.0647   20.4216   42.3694 C   0  0  0  0  0  0  0  0  0  0  0  0
    0.6378   19.2983   41.9877 C   0  0  0  0  0  0  0  0  0  0  0  0
    1.4336   19.0152   40.8922 C   0  0  0  0  0  0  0  0  0  0  0  0
    1.6680   19.9827   39.8651 N   0  0  0  0  0  0  0  0  0  0  0  0
    3.3743   16.0103   39.7720 H   0  0  0  0  0  0  0  0  0  0  0  0
    4.4584   13.8054   39.4990 H   0  0  0  0  0  0  0  0  0  0  0  0
    4.1054   12.1106   41.2050 H   0  0  0  0  0  0  0  0  0  0  0  0
    1.6613   14.6929   43.4214 H   0  0  0  0  0  0  0  0  0  0  0  0
   -1.0620   19.0163   45.8431 H   0  0  0  0  0  0  0  0  0  0  0  0
   -1.8348   17.7275   44.9250 H   0  0  0  0  0  0  0  0  0  0  0  0
   -0.1158   17.4778   45.4577 H   0  0  0  0  0  0  0  0  0  0  0  0
   -0.0830   21.3355   41.7863 H   0  0  0  0  0  0  0  0  0  0  0  0
    2.6658   20.1574   39.5480 H   0  0  0  0  0  0  0  0  0  0  0  0
    0.8605   20.4990   39.4455 H   0  0  0  0  0  0  0  0  0  0  0  0
  1  2  2  0
  1  6  1  0
  2  3  1  0
  3  4  2  0
  4  5  1  0
  5  6  2  0
  6  7  1  0
  7  8  2  0
  7  9  1  0
  8 16  1  0
  9 10  2  0
 10 11  1  0
 10 15  1  0
 11 12  1  0
 11 13  1  0
 13 14  2  0
 14 15  1  0
 15 16  2  0
 16 17  1  0
  1 18  1  0
  2 19  1  0
  3 20  1  0
  5 21  1  0
 12 22  1  0
 12 23  1  0
 12 24  1  0
 14 25  1  0
 17 26  1  0
 17 27  1  0
M  END
>  <mol_id>  (6) 
2026-09-17-6fnk-s0-n100-0006

>  <rmsd_to_ref>  (6) 
0.6836734693949572

>  <pose_kind>  (6) 
conformer

$$$$
6fnk.A
     RDKit          3D

 27 29  0  0  0  0  0  0  0  0999 V2000
    2.2821   15.6458   39.9481 C   0  0  0  0  0  0  0  0  0  0  0  0
    2.6770   14.3675   39.5533 C   0  0  0  0  0  0  0  0  0  0  0  0
    2.9759   13.4083   40.5099 C   0  0  0  0  0  0  0  0  0  0  0  0
    2.8775   13.7228   41.8681 N   0  0  0  0  0  0  0  0  0  0  0  0
    2.4815   15.0099   42.2622 C   0  0  0  0  0  0  0  0  0  0  0  0
    2.1829   15.9749   41.3021 C   0  0  0  0  0  0  0  0  0  0  0  0
    1.7907   17.2578   41.6980 C   0  0  0  0  0  0  0  0  0  0  0  0
    1.6688   18.2491   40.8044 N   0  0  0  0  0  0  0  0  0  0  0  0
    1.5257   17.5049   42.9847 N   0  0  0  0  0  0  0  0  0  0  0  0
    1.1545   18.7275   43.4047 C   0  0  0  0  0  0  0  0  0  0  0  0
    0.8580   19.2094   44.6214 N   0  0  0  0  0  0  0  0  0  0  0  0
    0.8654   18.4483   45.8742 C   0  0  0  0  0  0  0  0  0  0  0  0
    0.5609   20.4028   44.5534 N   0  0  0  0  0  0  0  0  0  0  0  0
    0.6187   20.7585   43.2595 C   0  0  0  0  0  0  0  0  0  0  0  0
    1.0191   19.7133   42.5232 C   0  0  0  0  0  0  0  0  0  0  0  0
    1.2777   19.4719   41.2086 C   0  0  0  0  0  0  0  0  0  0  0  0
    1.1533   20.4542   40.2834 N   0  0  0  0  0  0  0  0  0  0  0  0
    2.0465   16.4025   39.1854 H   0  0  0  0  0  0  0  0  0  0  0  0
    2.7513   14.1201   38.4840 H   0  0  0  0  0  0  0  0  0  0  0  0
    3.2902   12.4009   40.1996 H   0  0  0  0  0  0  0  0  0  0  0  0
    2.4068   15.2579   43.3313 H   0  0  0  0  0  0  0  0  0  0  0  0
    1.4733   18.9788   46.6219 H   0  0  0  0  0  0  0  0  0  0  0  0
   -0.1645   18.3440   46.2461 H   0  0  0  0  0  0  0  0  0  0  0  0
    1.2932   17.4509   45.6948 H   0  0  0  0  0  0  0  0  0  0  0  0
    0.3745   21.7558   42.8646 H   0  0  0  0  0  0  0  0  0  0  0  0
    0.8554   21.3975   40.5708 H   0  0  0  0  0  0  0  0  0  0  0  0
    1.3568   20.2578   39.2930 H   0  0  0  0  0  0  0  0  0  0  0  0
  1  2  2  0
  1  6  1  0
  2  3  1  0
  3  4  2  0
  4  5  1  0
  5  6  2  0
  6  7  1  0
  7  8  2  0
  7  9  1  0
  8 16  1  0
  9 10  2  0
 10 11  1  0
 10 15  1  0
 11 12  1  0
 11 13  1  0
 13 14  2  0
 14 15  1  0
 15 16  2  0
 16 17  1  0
  1 18  1  0
  2 19  1  0
  3 20  1  0
  5 21  1  0
 12 22  1  0
 12 23  1  0
 12 24  1  0
 14 25  1  0
 17 26  1  0
 17 27  1  0
M  END
>  <mol_id>  (7) 
2026-09-17-6fnk-s0-n100-0007

>  <rmsd_to_ref>  (7) 
0.7295918367376566

>  <pose_kind>  (7) 
rigid

$$$$
6fnk.A
     RDKit          3D

 27 29  0  0  0  0  0  0  0  0999 V2000
    2.5153   16.2548   40.4941 C   0  0  0  0  0  0  0  0  0  0  0  0
    2.7415   15.0527   39.8536 C   0  0  0  0  0  0  0  0  0  0  0  0
    2.3728   13.8982   40.5524 C   0  0  0  0  0  0  0  0  0  0  0  0
    1.8361   13.9577   41.7623 N   0  0  0  0  0  0  0  0  0  0  0  0
    1.6289   15.1320   42.3572 C   0  0  0  0  0  0  0  0  0  0  0  0
    1.9550   16.3238   41.7580 C   0  0  0  0  0  0  0  0  0  0  0  0
    1.7427   17.6261   42.3786 C   0  0  0  0  0  0  0  0  0  0  0  0
    2.0817   18.7679   41.7449 N   0  0  0  0  0  0  0  0  0  0  0  0
    1.1972   17.6960   43.6095 N   0  0  0  0  0  0  0  0  0  0  0  0
    0.9833   18.8968   44.2222 C   0  0  0  0  0  0  0  0  0  0  0  0
    0.4701   19.2585   45.4132 N   0  0  0  0  0  0  0  0  0  0  0  0
   -0.0360   18.3497   46.4471 C   0  0  0  0  0  0  0  0  0  0  0  0
    0.5004   20.5792   45.4915 N   0  0  0  0  0  0  0  0  0  0  0  0
    1.0200   21.1125   44.3855 C   0  0  0  0  0  0  0  0  0  0  0  0
    1.3361   20.0547   43.5594 C   0  0  0  0  0  0  0  0  0  0  0  0
    1.8959   19.9841   42.2964 C   0  0  0  0  0  0  0  0  0  0  0  0
    2.2750   21.1607   41.5768 N   0  0  0  0  0  0  0  0  0  0  0  0
    2.7892   17.1742   39.9818 H   0  0  0  0  0  0  0  0  0  0  0  0
    3.1810   15.0049   38.8629 H   0  0  0  0  0  0  0  0  0  0  0  0
    2.5617   12.9620   40.0251 H   0  0  0  0  0  0  0  0  0  0  0  0
    1.1916   15.1312   43.3376 H   0  0  0  0  0  0  0  0  0  0  0  0
    0.0617   18.8856   47.4119 H   0  0  0  0  0  0  0  0  0  0  0  0
   -1.1353   18.1923   46.3220 H   0  0  0  0  0  0  0  0  0  0  0  0
    0.4945   17.3944   46.4119 H   0  0  0  0  0  0  0  0  0  0  0  0
    1.1921   22.1481   44.1144 H   0  0  0  0  0  0  0  0  0  0  0  0
    3.2407   21.2004   41.1379 H   0  0  0  0  0  0  0  0  0  0  0  0
    1.6015   21.9571   41.4943 H   0  0  0  0  0  0  0  0  0  0  0  0
  1  2  2  0
  1  6  1  0
  2  3  1  0
  3  4  2  0
  4  5  1  0
  5  6  2  0
  6  7  1  0
  7  8  2  0
  7  9  1  0
  8 16  1  0
  9 10  2  0
 10 11  1  0
 10 15  1  0
 11 12  1  0
 11 13  1  0
 13 14  2  0
 14 15  1  0
 15 16  2  0
 16 17  1  0
  1 18  1  0
  2 19  1  0
  3 20  1  0
  5 21  1  0
 12 22  1  0
 12 23  1  0
 12 24  1  0
 14 25  1  0
 17 26  1  0
 17 27  1  0
M  END
>  <mol_id>  (8) 
2026-09-17-6fnk-s0-n100-0008

>  <rmsd_to_ref>  (8) 
0.7755102040834724

>  <pose_kind>  (8) 
conformer

$$$$
6fnk.A
     RDKit          3D

 27 29  0  0  0  0  0  0  0  0999 V2000
    2.5657   15.8348   40.5100 C   0  0  0  0  0  0  0  0  0  0  0  0
    3.2755   14.6542   40.2905 C   0  0  0  0  0  0  0  0  0  0  0  0
    3.6617   13.8679   41.3662 C   0  0  0  0  0  0  0  0  0  0  0  0
    3.3361   14.2576   42.6682 N   0  0  0  0  0  0  0  0  0  0  0  0
    2.6235   15.4466   42.8860 C   0  0  0  0  0  0  0  0  0  0  0  0
    2.2365   16.2383   41.8063 C   0  0  0  0  0  0  0  0  0  0  0  0
    1.5283   17.4240   42.0267 C   0  0  0  0  0  0  0  0  0  0  0  0
    1.2988   18.2871   41.0274 N   0  0  0  0  0  0  0  0  0  0  0  0
    1.0644   17.7047   43.2487 N   0  0  0  0  0  0  0  0  0  0  0  0
    0.3869   18.8386   43.5011 C   0  0  0  0  0  0  0  0  0  0  0  0
   -0.1505   19.3341   44.6262 N   0  0  0  0  0  0  0  0  0  0  0  0
   -0.1251   18.6965   45.9460 C   0  0  0  0  0  0  0  0  0  0  0  0
   -0.6921   20.4183   44.4061 N   0  0  0  0  0  0  0  0  0  0  0  0
   -0.5604   20.6744   43.0941 C   0  0  0  0  0  0  0  0  0  0  0  0
    0.1442   19.6942   42.5131 C   0  0  0  0  0  0  0  0  0  0  0  0
    0.6037   19.4156   41.2623 C   0  0  0  0  0  0  0  0  0  0  0  0
    0.3776   20.2669   40.2325 N   0  0  0  0  0  0  0  0  0  0  0  0
    2.2621   16.4546   39.6535 H   0  0  0  0  0  0  0  0  0  0  0  0
    3.5287   14.3468   39.2652 H   0  0  0  0  0  0  0  0  0  0  0  0
    4.2240   12.9382   41.1944 H   0  0  0  0  0  0  0  0  0  0  0  0
    2.3696   15.7545   43.9111 H   0  0  0  0  0  0  0  0  0  0  0  0
    0.2583   19.4098   46.6905 H   0  0  0  0  0  0  0  0  0  0  0  0
   -1.1438   18.3884   46.2241 H   0  0  0  0  0  0  0  0  0  0  0  0
    0.5293   17.8129   45.9138 H   0  0  0  0  0  0  0  0  0  0  0  0
   -0.9688   21.5546   42.5759 H   0  0  0  0  0  0  0  0  0  0  0  0
   -0.1520   21.1363   40.3898 H   0  0  0  0  0  0  0  0  0  0  0  0
    0.7354   20.0448   39.2926 H   0  0  0  0  0  0  0  0  0  0  0  0
  1  2  2  0
  1  6  1  0
  2  3  1  0
  3  4  2  0
  4  5  1  0
  5  6  2  0
  6  7  1  0
  7  8  2  0
  7  9  1  0
  8 16  1  0
  9 10  2  0
 10 11  1  0
 10 15  1  0
 11 12  1  0
 11 13  1  0
 13 14  2  0
 14 15  1  0
 15 16  2  0
 16 17  1  0
  1 18  1  0
  2 19  1  0
  3 20  1  0
  5 21  1  0
 12 22  1  0
 12 23  1  0
 12 24  1  0
 14 25  1  0
 17 26  1  0
 17 27  1  0
M  END
>  <mol_id>  (9) 
2026-09-17-6fnk-s0-n100-0009

>  <rmsd_to_ref>  (9) 
0.8214285714320889

>  <pose_kind>  (9) 
rigid

$$$$
6fnk.A
     RDKit          3D

 27 29  0  0  0  0  0  0  0  0999 V2000
    3.2593   15.8113   41.6040 C   0  0  0  0  0  0  0  0  0  0  0  0
    3.9786   14.6337   41.6543 C   0  0  0  0  0  0  0  0  0  0  0  0
    3.7624   13.8217   42.7728 C   0  0  0  0  0  0  0  0  0  0  0  0
    2.9134   14.1660   43.7301 N   0  0  0  0  0  0  0  0  0  0  0  0
    2.2322   15.3090   43.6558 C   0  0  0  0  0  0  0  0  0  0  0  0
    2.3711   16.1768   42.6006 C   0  0  0  0  0  0  0  0  0  0  0  0
    1.6425   17.4347   42.4864 C   0  0  0  0  0  0  0  0  0  0  0  0
    1.8167   18.2517   41.4269 N   0  0  0  0  0  0  0  0  0  0  0  0
    0.7767   17.7931   43.4558 N   0  0  0  0  0  0  0  0  0  0  0  0
    0.0770   18.9628   43.3834 C   0  0  0  0  0  0  0  0  0  0  0  0
   -0.8285   19.5594   44.1813 N   0  0  0  0  0  0  0  0  0  0  0  0
   -1.3327   19.0378   45.4559 C   0  0  0  0  0  0  0  0  0  0  0  0
   -1.1869   20.7013   43.6167 N   0  0  0  0  0  0  0  0  0  0  0  0
   -0.5464   20.8862   42.4622 C   0  0  0  0  0  0  0  0  0  0  0  0
    0.2677   19.7863   42.2926 C   0  0  0  0  0  0  0  0  0  0  0  0
    1.1558   19.4196   41.2974 C   0  0  0  0  0  0  0  0  0  0  0  0
    1.3814   20.2452   40.1514 N   0  0  0  0  0  0  0  0  0  0  0  0
    3.4011   16.4686   40.7492 H   0  0  0  0  0  0  0  0  0  0  0  0
    4.6735   14.3525   40.8701 H   0  0  0  0  0  0  0  0  0  0  0  0
    4.3422   12.8977   42.7888 H   0  0  0  0  0  0  0  0  0  0  0  0
    1.5555   15.5463   44.4547 H   0  0  0  0  0  0  0  0  0  0  0  0
   -1.6612   19.9154   46.0469 H   0  0  0  0  0  0  0  0  0  0  0  0
   -2.2650   18.4438   45.2913 H   0  0  0  0  0  0  0  0  0  0  0  0
   -0.5715   18.4276   45.9494 H   0  0  0  0  0  0  0  0  0  0  0  0
   -0.5980   21.7009   41.7485 H   0  0  0  0  0  0  0  0  0  0  0  0
    2.3813   20.4601   39.8672 H   0  0  0  0  0  0  0  0  0  0  0  0
    0.5655   20.6215   39.6153 H   0  0  0  0  0  0  0  0  0  0  0  0
  1  2  2  0
  1  6  1  0
  2  3  1  0
  3  4  2  0
  4  5  1  0
  5  6  2  0
  6  7  1  0
  7  8  2  0
  7  9  1  0
  8 16  1  0
  9 10  2  0
 10 11  1  0
 10 15  1  0
 11 12  1  0
 11 13  1  0
 13 14  2  0
 14 15  1  0
 15 16  2  0
 16 17  1  0
  1 18  1  0
  2 19  1  0
  3 20  1  0
  5 21  1  0
 12 22  1  0
 12 23  1  0
 12 24  1  0
 14 25  1  0
 17 26  1  0
 17 27  1  0
M  END
>  <mol_id>  (10) 
2026-09-17-6fnk-s0-n100-0010

>  <rmsd_to_ref>  (10) 
0.8673469387773844

>  <pose_kind>  (10) 
conformer

$$$$
6fnk.A
     RDKit          3D

 27 29  0  0  0  0  0  0  0  0999 V2000
    3.2017   15.8832   41.4903 C   0  0  0  0  0  0  0  0  0  0  0  0
    3.5946   14.6485   40.9736 C   0  0  0  0  0  0  0  0  0  0  0  0
    2.8860   13.5024   41.3033 C   0  0  0  0  0  0  0  0  0  0  0  0
    1.7770   13.5868   42.1497 N   0  0  0  0  0  0  0  0  0  0  0  0
    1.3852   14.8299   42.6692 C   0  0  0  0  0  0  0  0  0  0  0  0
    2.0974   15.9817   42.3402 C   0  0  0  0  0  0  0  0  0  0  0  0
    1.7059   17.2191   42.8614 C   0  0  0  0  0  0  0  0  0  0  0  0
    2.4713   18.3079   42.7043 N   0  0  0  0  0  0  0  0  0  0  0  0
    0.5486   17.3266   43.5219 N   0  0  0  0  0  0  0  0  0  0  0  0
    0.1428   18.4974   44.0447 C   0  0  0  0  0  0  0  0  0  0  0  0
   -0.9482   18.8391   44.7471 N   0  0  0  0  0  0  0  0  0  0  0  0
   -2.0409   17.9408   45.1318 C   0  0  0  0  0  0  0  0  0  0  0  0
   -0.9230   20.0377   45.0296 N   0  0  0  0  0  0  0  0  0  0  0  0
    0.1918   20.5552   44.4877 C   0  0  0  0  0  0  0  0  0  0  0  0
    0.8900   19.5849   43.8829 C   0  0  0  0  0  0  0  0  0  0  0  0
    2.0665   19.4901   43.2044 C   0  0  0  0  0  0  0  0  0  0  0  0
    2.8547   20.5775   43.0238 N   0  0  0  0  0  0  0  0  0  0  0  0
    3.7674   16.7888   41.2258 H   0  0  0  0  0  0  0  0  0  0  0  0
    4.4658   14.5837   40.3051 H   0  0  0  0  0  0  0  0  0  0  0  0
    3.1967   12.5278   40.8988 H   0  0  0  0  0  0  0  0  0  0  0  0
    0.5140   14.8955   43.3375 H   0  0  0  0  0  0  0  0  0  0  0  0
   -2.2210   18.0248   46.2137 H   0  0  0  0  0  0  0  0  0  0  0  0
   -2.9541   18.2192   44.5854 H   0  0  0  0  0  0  0  0  0  0  0  0
   -1.7676   16.9043   44.8849 H   0  0  0  0  0  0  0  0  0  0  0  0
    0.4865   21.6140   44.5336 H   0  0  0  0  0  0  0  0  0  0  0  0
    2.5642   21.4920   43.3981 H   0  0  0  0  0  0  0  0  0  0  0  0
    3.7443   20.4894   42.5122 H   0  0  0  0  0  0  0  0  0  0  0  0
  1  2  2  0
  1  6  1  0
  2  3  1  0
  3  4  2  0
  4  5  1  0
  5  6  2  0
  6  7  1  0
  7  8  2  0
  7  9  1  0
  8 16  1  0
  9 10  2  0
 10 11  1  0
 10 15  1  0
 11 12  1  0
 11 13  1  0
 13 14  2  0
 14 15  1  0
 15 16  2  0
 16 17  1  0
  1 18  1  0
  2 19  1  0
  3 20  1  0
  5 21  1  0
 12 22  1  0
 12 23  1  0
 12 24  1  0
 14 25  1  0
 17 26  1  0
 17 27  1  0
M  END
>  <mol_id>  (11) 
2026-09-17-6fnk-s0-n100-0011

>  <rmsd_to_ref>  (11) 
0.9132653061260174

>  <pose_kind>  (11) 
rigid

$$$$
6fnk.A
     RDKit          3D

 27 29  0  0  0  0  0  0  0  0999 V2000
    2.6875   15.3707   41.8455 C   0  0  0  0  0  0  0  0  0  0  0  0
    3.0819   14.0578   42.0105 C   0  0  0  0  0  0  0  0  0  0  0  0
    3.0197   13.5501   43.3126 C   0  0  0  0  0  0  0  0  0  0  0  0
    2.6047   14.2905   44.3300 N   0  0  0  0  0  0  0  0  0  0  0  0
    2.2299   15.5554   44.1420 C   0  0  0  0  0  0  0  0  0  0  0  0
    2.2530   16.1495   42.9042 C   0  0  0  0  0  0  0  0  0  0  0  0
    1.8504   17.5298   42.6616 C   0  0  0  0  0  0  0  0  0  0  0  0
    1.8927   18.0649   41.4237 N   0  0  0  0  0  0  0  0  0  0  0  0
    1.4269   18.2905   43.6909 N   0  0  0  0  0  0  0  0  0  0  0  0
    1.0421   19.5864   43.5025 C   0  0  0  0  0  0  0  0  0  0  0  0
    0.5883   20.5537   44.3217 N   0  0  0  0  0  0  0  0  0  0  0  0
    0.3769   20.4315   45.7679 C   0  0  0  0  0  0  0  0  0  0  0  0
    0.3650   21.6377   43.5961 N   0  0  0  0  0  0  0  0  0  0  0  0
    0.6566   21.4232   42.3130 C   0  0  0  0  0  0  0  0  0  0  0  0
    1.0917   20.1174   42.2296 C   0  0  0  0  0  0  0  0  0  0  0  0
    1.5261   19.3377   41.1727 C   0  0  0  0  0  0  0  0  0  0  0  0
    1.5921   19.8508   39.8393 N   0  0  0  0  0  0  0  0  0  0  0  0
    2.7222   15.8003   40.8469 H   0  0  0  0  0  0  0  0  0  0  0  0
    3.4215   13.4522   41.1768 H   0  0  0  0  0  0  0  0  0  0  0  0
    3.3364   12.5113   43.4163 H   0  0  0  0  0  0  0  0  0  0  0  0
    1.9009   16.1167   44.9958 H   0  0  0  0  0  0  0  0  0  0  0  0
    0.4622   21.4540   46.1857 H   0  0  0  0  0  0  0  0  0  0  0  0
   -0.6765   20.1262   45.9822 H   0  0  0  0  0  0  0  0  0  0  0  0
    1.0795   19.7135   46.1995 H   0  0  0  0  0  0  0  0  0  0  0  0
    0.5930   22.0824   41.4546 H   0  0  0  0  0  0  0  0  0  0  0  0
    2.4824   19.7040   39.2804 H   0  0  0  0  0  0  0  0  0  0  0  0
    0.7698   20.3585   39.4382 H   0  0  0  0  0  0  0  0  0  0  0  0
  1  2  2  0
  1  6  1  0
  2  3  1  0
  3  4  2  0
  4  5  1  0
  5  6  2  0
  6  7  1  0
  7  8  2  0
  7  9  1  0
  8 16  1  0
  9 10  2  0
 10 11  1  0
 10 15  1  0
 11 12  1  0
 11 13  1  0
 13 14  2  0
 14 15  1  0
 15 16  2  0
 16 17  1  0
  1 18  1  0
  2 19  1  0
  3 20  1  0
  5 21  1  0
 12 22  1  0
 12 23  1  0
 12 24  1  0
 14 25  1  0
 17 26  1  0
 17 27  1  0
M  END
>  <mol_id>  (12) 
2026-09-17-6fnk-s0-n100-0012

>  <rmsd_to_ref>  (12) 
0.9591836734740249

>  <pose_kind>  (12) 
conformer

$$$$
6fnk.A
     RDKit          3D

 27 29  0  0  0  0  0  0  0  0999 V2000
    3.0389   15.6061   41.0579 C   0  0  0  0  0  0  0  0  0  0  0  0
    3.7699   14.4184   41.0850 C   0  0  0  0  0  0  0  0  0  0  0  0
    4.1095   13.8415   42.3000 C   0  0  0  0  0  0  0  0  0  0  0  0
    3.7155   14.4489   43.4955 N   0  0  0  0  0  0  0  0  0  0  0  0
    2.9816   15.6445   43.4651 C   0  0  0  0  0  0  0  0  0  0  0  0
    2.6415   16.2260   42.2451 C   0  0  0  0  0  0  0  0  0  0  0  0
    1.9119   17.4189   42.2180 C   0  0  0  0  0  0  0  0  0  0  0  0
    1.7243   18.0878   41.0719 N   0  0  0  0  0  0  0  0  0  0  0  0
    1.3849   17.9022   43.3475 N   0  0  0  0  0  0  0  0  0  0  0  0
    0.6849   19.0504   43.3627 C   0  0  0  0  0  0  0  0  0  0  0  0
    0.0873   19.7269   44.3554 N   0  0  0  0  0  0  0  0  0  0  0  0
    0.0528   19.3329   45.7669 C   0  0  0  0  0  0  0  0  0  0  0  0
   -0.4530   20.7451   43.9211 N   0  0  0  0  0  0  0  0  0  0  0  0
   -0.2584   20.7680   42.5923 C   0  0  0  0  0  0  0  0  0  0  0  0
    0.4836   19.7137   42.2282 C   0  0  0  0  0  0  0  0  0  0  0  0
    1.0077   19.2270   41.0699 C   0  0  0  0  0  0  0  0  0  0  0  0
    0.8252   19.8790   39.8959 N   0  0  0  0  0  0  0  0  0  0  0  0
    2.7726   16.0593   40.0917 H   0  0  0  0  0  0  0  0  0  0  0  0
    4.0770   13.9396   40.1435 H   0  0  0  0  0  0  0  0  0  0  0  0
    4.6886   12.9065   42.3226 H   0  0  0  0  0  0  0  0  0  0  0  0
    2.6740   16.1238   44.4062 H   0  0  0  0  0  0  0  0  0  0  0  0
    0.3917   20.1732   46.3906 H   0  0  0  0  0  0  0  0  0  0  0  0
   -0.9755   19.0601   46.0465 H   0  0  0  0  0  0  0  0  0  0  0  0
    0.7164   18.4695   45.9229 H   0  0  0  0  0  0  0  0  0  0  0  0
   -0.6488   21.5353   41.9076 H   0  0  0  0  0  0  0  0  0  0  0  0
    0.2800   20.7526   39.8714 H   0  0  0  0  0  0  0  0  0  0  0  0
    1.2315   19.5010   39.0283 H   0  0  0  0  0  0  0  0  0  0  0  0
  1  2  2  0
  1  6  1  0
  2  3  1  0
  3  4  2  0
  4  5  1  0
  5  6  2  0
  6  7  1  0
  7  8  2  0
  7  9  1  0
  8 16  1  0
  9 10  2  0
 10 11  1  0
 10 15  1  0
 11 12  1  0
 11 13  1  0
 13 14  2  0
 14 15  1  0
 15 16  2  0
 16 17  1  0
  1 18  1  0
  2 19  1  0
  3 20  1  0
  5 21  1  0
 12 22  1  0
 12 23  1  0
 12 24  1  0
 14 25  1  0
 17 26  1  0
 17 27  1  0
M  END
>  <mol_id>  (13) 
2026-09-17-6fnk-s0-n100-0013

>  <rmsd_to_ref>  (13) 
1.005102040816571

>  <pose_kind>  (13) 
rigid

$$$$
6fnk.A
     RDKit          3D

 27 29  0  0  0  0  0  0  0  0999 V2000
    2.9064   15.2718   41.2538 C   0  0  0  0  0  0  0  0  0  0  0  0
    3.2034   13.9241   41.2986 C   0  0  0  0  0  0  0  0  0  0  0  0
    2.9829   13.2803   42.5208 C   0  0  0  0  0  0  0  0  0  0  0  0
    2.5146   13.9302   43.5762 N   0  0  0  0  0  0  0  0  0  0  0  0
    2.2363   15.2315   43.5048 C   0  0  0  0  0  0  0  0  0  0  0  0
    2.4169   15.9567   42.3527 C   0  0  0  0  0  0  0  0  0  0  0  0
    2.1233   17.3804   42.2385 C   0  0  0  0  0  0  0  0  0  0  0  0
    2.3193   18.0456   41.0811 N   0  0  0  0  0  0  0  0  0  0  0  0
    1.6465   18.0497   43.3072 N   0  0  0  0  0  0  0  0  0  0  0  0
    1.3601   19.3824   43.2382 C   0  0  0  0  0  0  0  0  0  0  0  0
    0.8864   20.2822   44.1207 N   0  0  0  0  0  0  0  0  0  0  0  0
    0.5266   20.0148   45.5171 C   0  0  0  0  0  0  0  0  0  0  0  0
    0.8009   21.4532   43.5102 N   0  0  0  0  0  0  0  0  0  0  0  0
    1.2042   21.3628   42.2428 C   0  0  0  0  0  0  0  0  0  0  0  0
    1.5667   20.0471   42.0465 C   0  0  0  0  0  0  0  0  0  0  0  0
    2.0560   19.3612   40.9493 C   0  0  0  0  0  0  0  0  0  0  0  0
    2.2835   20.0137   39.6969 N   0  0  0  0  0  0  0  0  0  0  0  0
    3.0650   15.8064   40.3201 H   0  0  0  0  0  0  0  0  0  0  0  0
    3.5869   13.3927   40.4340 H   0  0  0  0  0  0  0  0  0  0  0  0
    3.2252   12.2166   42.5301 H   0  0  0  0  0  0  0  0  0  0  0  0
    1.8588   15.7162   44.3851 H   0  0  0  0  0  0  0  0  0  0  0  0
    0.6311   20.9759   46.0583 H   0  0  0  0  0  0  0  0  0  0  0  0
   -0.5593   19.7628   45.5972 H   0  0  0  0  0  0  0  0  0  0  0  0
    1.1389   19.2055   45.9235 H   0  0  0  0  0  0  0  0  0  0  0  0
    1.2652   22.1164   41.4656 H   0  0  0  0  0  0  0  0  0  0  0  0
    3.2144   19.8674   39.2080 H   0  0  0  0  0  0  0  0  0  0  0  0
    1.5366   20.6196   39.2850 H   0  0  0  0  0  0  0  0  0  0  0  0
  1  2  2  0
  1  6  1  0
  2  3  1  0
  3  4  2  0
  4  5  1  0
  5  6  2  0
  6  7  1  0
  7  8  2  0
  7  9  1  0
  8 16  1  0
  9 10  2  0
 10 11  1  0
 10 15  1  0
 11 12  1  0
 11 13  1  0
 13 14  2  0
 14 15  1  0
 15 16  2  0
 16 17  1  0
  1 18  1  0
  2 19  1  0
  3 20  1  0
  5 21  1  0
 12 22  1  0
 12 23  1  0
 12 24  1  0
 14 25  1  0
 17 26  1  0
 17 27  1  0
M  END
>  <mol_id>  (14) 
2026-09-17-6fnk-s0-n100-0014

>  <rmsd_to_ref>  (14) 
1.051020408166902

>  <pose_kind>  (14) 
conformer

$$$$
6fnk.A
     RDKit          3D

 27 29  0  0  0  0  0  0  0  0999 V2000
    2.9094   15.6352   41.6762 C   0  0  0  0  0  0  0  0  0  0  0  0
    3.0525   14.2587   41.5007 C   0  0  0  0  0  0  0  0  0  0  0  0
    2.3117   13.3805   42.2782 C   0  0  0  0  0  0  0  0  0  0  0  0
    1.4202   13.8760   43.2337 N   0  0  0  0  0  0  0  0  0  0  0  0
    1.2796   15.2610   43.4090 C   0  0  0  0  0  0  0  0  0  0  0  0
    2.0246   16.1442   42.6299 C   0  0  0  0  0  0  0  0  0  0  0  0
    1.8840   17.5242   42.8085 C   0  0  0  0  0  0  0  0  0  0  0  0
    2.7101   18.3869   42.2008 N   0  0  0  0  0  0  0  0  0  0  0  0
    0.9090   17.9978   43.5909 N   0  0  0  0  0  0  0  0  0  0  0  0
    0.7478   19.3176   43.7938 C   0  0  0  0  0  0  0  0  0  0  0  0
   -0.1292   20.0137   44.5330 N   0  0  0  0  0  0  0  0  0  0  0  0
   -1.2056   19.4479   45.3517 C   0  0  0  0  0  0  0  0  0  0  0  0
    0.0812   21.2229   44.4292 N   0  0  0  0  0  0  0  0  0  0  0  0
    1.1058   21.3809   43.5751 C   0  0  0  0  0  0  0  0  0  0  0  0
    1.5552   20.1806   43.1850 C   0  0  0  0  0  0  0  0  0  0  0  0
    2.5464   19.7109   42.3786 C   0  0  0  0  0  0  0  0  0  0  0  0
    3.3896   20.5619   41.7453 N   0  0  0  0  0  0  0  0  0  0  0  0
    3.4994   16.3270   41.0571 H   0  0  0  0  0  0  0  0  0  0  0  0
    3.7522   13.8699   40.7463 H   0  0  0  0  0  0  0  0  0  0  0  0
    2.4259   12.2949   42.1427 H   0  0  0  0  0  0  0  0  0  0  0  0
    0.5798   15.6505   44.1631 H   0  0  0  0  0  0  0  0  0  0  0  0
   -1.1449   19.8572   46.3709 H   0  0  0  0  0  0  0  0  0  0  0  0
   -2.1784   19.7085   44.9093 H   0  0  0  0  0  0  0  0  0  0  0  0
   -1.1012   18.3535   45.3891 H   0  0  0  0  0  0  0  0  0  0  0  0
    1.5137   22.3481   43.2463 H   0  0  0  0  0  0  0  0  0  0  0  0
    3.2824   21.5790   41.8673 H   0  0  0  0  0  0  0  0  0  0  0  0
    4.1378   20.1917   41.1419 H   0  0  0  0  0  0  0  0  0  0  0  0
  1  2  2  0
  1  6  1  0
  2  3  1  0
  3  4  2  0
  4  5  1  0
  5  6  2  0
  6  7  1  0
  7  8  2  0
  7  9  1  0
  8 16  1  0
  9 10  2  0
 10 11  1  0
 10 15  1  0
 11 12  1  0
 11 13  1  0
 13 14  2  0
 14 15  1  0
 15 16  2  0
 16 17  1  0
  1 18  1  0
  2 19  1  0
  3 20  1  0
  5 21  1  0
 12 22  1  0
 12 23  1  0
 12 24  1  0
 14 25  1  0
 17 26  1  0
 17 27  1  0
M  END
>  <mol_id>  (15) 
2026-09-17-6fnk-s0-n100-0015

>  <rmsd_to_ref>  (15) 
1.0969387755146776

>  <pose_kind>  (15) 
rigid

$$$$
6fnk.A
     RDKit          3D

 27 29  0  0  0  0  0  0  0  0999 V2000
    2.6351   15.2567   40.2100 C   0  0  0  0  0  0  0  0  0  0  0  0
    3.2337   14.0615   39.8641 C   0  0  0  0  0  0  0  0  0  0  0  0
    3.7210   13.2832   40.9195 C   0  0  0  0  0  0  0  0  0  0  0  0
    3.6128   13.6737   42.1809 N   0  0  0  0  0  0  0  0  0  0  0  0
    3.0302   14.8326   42.4863 C   0  0  0  0  0  0  0  0  0  0  0  0
    2.5189   15.6704   41.5258 C   0  0  0  0  0  0  0  0  0  0  0  0
    1.8753   16.9446   41.8231 C   0  0  0  0  0  0  0  0  0  0  0  0
    1.3895   17.7306   40.8399 N   0  0  0  0  0  0  0  0  0  0  0  0
    1.7609   17.3500   43.1038 N   0  0  0  0  0  0  0  0  0  0  0  0
    1.1648   18.5362   43.4207 C   0  0  0  0  0  0  0  0  0  0  0  0
    0.9181   19.1766   44.5790 N   0  0  0  0  0  0  0  0  0  0  0  0
    1.2695   18.7000   45.9208 C   0  0  0  0  0  0  0  0  0  0  0  0
    0.3021   20.3138   44.2985 N   0  0  0  0  0  0  0  0  0  0  0  0
    0.1293   20.4531   42.9840 C   0  0  0  0  0  0  0  0  0  0  0  0
    0.6735   19.3275   42.4023 C   0  0  0  0  0  0  0  0  0  0  0  0
    0.7904   18.9126   41.0879 C   0  0  0  0  0  0  0  0  0  0  0  0
    0.2941   19.7036   40.0044 N   0  0  0  0  0  0  0  0  0  0  0  0
    2.2440   15.8889   39.4161 H   0  0  0  0  0  0  0  0  0  0  0  0
    3.3218   13.7425   38.8309 H   0  0  0  0  0  0  0  0  0  0  0  0
    4.1891   12.3444   40.6200 H   0  0  0  0  0  0  0  0  0  0  0  0
    2.9652   15.1077   43.5218 H   0  0  0  0  0  0  0  0  0  0  0  0
    1.3647   19.6005   46.5593 H   0  0  0  0  0  0  0  0  0  0  0  0
    0.4186   18.1279   46.3653 H   0  0  0  0  0  0  0  0  0  0  0  0
    2.1702   18.0815   45.8851 H   0  0  0  0  0  0  0  0  0  0  0  0
   -0.3316   21.2511   42.4129 H   0  0  0  0  0  0  0  0  0  0  0  0
    0.9289   19.8842   39.1730 H   0  0  0  0  0  0  0  0  0  0  0  0
   -0.6777   20.0889   40.0468 H   0  0  0  0  0  0  0  0  0  0  0  0
  1  2  2  0
  1  6  1  0
  2  3  1  0
  3  4  2  0
  4  5  1  0
  5  6  2  0
  6  7  1  0
  7  8  2  0
  7  9  1  0
  8 16  1  0
  9 10  2  0
 10 11  1  0
 10 15  1  0
 11 12  1  0
 11 13  1  0
 13 14  2  0
 14 15  1  0
 15 16  2  0
 16 17  1  0
  1 18  1  0
  2 19  1  0
  3 20  1  0
  5 21  1  0
 12 22  1  0
 12 23  1  0
 12 24  1  0
 14 25  1  0
 17 26  1  0
 17 27  1  0
M  END
>  <mol_id>  (16) 
2026-09-17-6fnk-s0-n100-0016

>  <rmsd_to_ref>  (16) 
1.142857142857452

>  <pose_kind>  (16) 
conformer

$$$$
6fnk.A
     RDKit          3D

 27 29  0  0  0  0  0  0  0  0999 V2000
    2.2847   16.0615   39.1714 C   0  0  0  0  0  0  0  0  0  0  0  0
    2.8174   14.9248   38.5631 C   0  0  0  0  0  0  0  0  0  0  0  0
    3.1391   13.8149   39.3305 C   0  0  0  0  0  0  0  0  0  0  0  0
    2.9257   13.8356   40.7116 N   0  0  0  0  0  0  0  0  0  0  0  0
    2.3912   14.9811   41.3208 C   0  0  0  0  0  0  0  0  0  0  0  0
    2.0693   16.0974   40.5511 C   0  0  0  0  0  0  0  0  0  0  0  0
    1.5388   17.2385   41.1614 C   0  0  0  0  0  0  0  0  0  0  0  0
    1.3860   18.3801   40.4764 N   0  0  0  0  0  0  0  0  0  0  0  0
    1.1704   17.1956   42.4458 N   0  0  0  0  0  0  0  0  0  0  0  0
    0.6646   18.2746   43.0693 C   0  0  0  0  0  0  0  0  0  0  0  0
    0.2484   18.4728   44.3294 N   0  0  0  0  0  0  0  0  0  0  0  0
    0.2437   17.4735   45.4019 C   0  0  0  0  0  0  0  0  0  0  0  0
   -0.1499   19.6291   44.4767 N   0  0  0  0  0  0  0  0  0  0  0  0
   -0.0412   20.2462   43.2885 C   0  0  0  0  0  0  0  0  0  0  0  0
    0.4981   19.4074   42.3938 C   0  0  0  0  0  0  0  0  0  0  0  0
    0.8613   19.4611   41.0829 C   0  0  0  0  0  0  0  0  0  0  0  0
    0.7089   20.6004   40.3650 N   0  0  0  0  0  0  0  0  0  0  0  0
    2.0315   16.9389   38.5581 H   0  0  0  0  0  0  0  0  0  0  0  0
    2.9821   14.9085   37.4757 H   0  0  0  0  0  0  0  0  0  0  0  0
    3.5620   12.9190   38.8524 H   0  0  0  0  0  0  0  0  0  0  0  0
    2.2258   14.9979   42.4081 H   0  0  0  0  0  0  0  0  0  0  0  0
    0.7520   17.8834   46.2872 H   0  0  0  0  0  0  0  0  0  0  0  0
   -0.7945   17.2182   45.6607 H   0  0  0  0  0  0  0  0  0  0  0  0
    0.7700   16.5691   45.0627 H   0  0  0  0  0  0  0  0  0  0  0  0
   -0.3481   21.2821   43.0817 H   0  0  0  0  0  0  0  0  0  0  0  0
    0.3095   21.4393   40.8093 H   0  0  0  0  0  0  0  0  0  0  0  0
    0.9925   20.6272   39.3752 H   0  0  0  0  0  0  0  0  0  0  0  0
  1  2  2  0
  1  6  1  0
  2  3  1  0
  3  4  2  0
  4  5  1  0
  5  6  2  0
  6  7  1  0
  7  8  2  0
  7  9  1  0
  8 16  1  0
  9 10  2  0
 10 11  1  0
 10 15  1  0
 11 12  1  0
 11 13  1  0
 13 14  2  0
 14 15  1  0
 15 16  2  0
 16 17  1  0
  1 18  1  0
  2 19  1  0
  3 20  1  0
  5 21  1  0
 12 22  1  0
 12 23  1  0
 12 24  1  0
 14 25  1  0
 17 26  1  0
 17 27  1  0
M  END
>  <mol_id>  (17) 
2026-09-17-6fnk-s0-n100-0017

>  <rmsd_to_ref>  (17) 
1.1887755102068445

>  <pose_kind>  (17) 
rigid

$$$$
6fnk.A
     RDKit          3D

 27 29  0  0  0  0  0  0  0  0999 V2000
    2.5643   15.4519   40.3603 C   0  0  0  0  0  0  0  0  0  0  0  0
    2.6694   14.2821   39.6342 C   0  0  0  0  0  0  0  0  0  0  0  0
    1.8355   13.2302   40.0281 C   0  0  0  0  0  0  0  0  0  0  0  0
    0.9920   13.3521   41.0426 N   0  0  0  0  0  0  0  0  0  0  0  0
    0.9113   14.4931   41.7263 C   0  0  0  0  0  0  0  0  0  0  0  0
    1.6853   15.5857   41.4211 C   0  0  0  0  0  0  0  0  0  0  0  0
    1.6236   16.8488   42.1469 C   0  0  0  0  0  0  0  0  0  0  0  0
    2.4076   17.8924   41.8050 N   0  0  0  0  0  0  0  0  0  0  0  0
    0.7684   16.9819   43.1804 N   0  0  0  0  0  0  0  0  0  0  0  0
    0.6827   18.1488   43.8832 C   0  0  0  0  0  0  0  0  0  0  0  0
   -0.0591   18.5551   44.9307 N   0  0  0  0  0  0  0  0  0  0  0  0
   -1.0597   17.7534   45.6427 C   0  0  0  0  0  0  0  0  0  0  0  0
    0.2705   19.8062   45.2092 N   0  0  0  0  0  0  0  0  0  0  0  0
    1.2128   20.2494   44.3767 C   0  0  0  0  0  0  0  0  0  0  0  0
    1.4921   19.2060   43.5197 C   0  0  0  0  0  0  0  0  0  0  0  0
    2.3700   19.0706   42.4594 C   0  0  0  0  0  0  0  0  0  0  0  0
    3.2252   20.1422   42.0517 N   0  0  0  0  0  0  0  0  0  0  0  0
    3.1971   16.2919   40.0833 H   0  0  0  0  0  0  0  0  0  0  0  0
    3.3603   14.1831   38.8036 H   0  0  0  0  0  0  0  0  0  0  0  0
    1.9376   12.3176   39.4389 H   0  0  0  0  0  0  0  0  0  0  0  0
    0.2137   14.5457   42.5403 H   0  0  0  0  0  0  0  0  0  0  0  0
   -1.1278   18.1720   46.6663 H   0  0  0  0  0  0  0  0  0  0  0  0
   -2.0739   17.9176   45.2029 H   0  0  0  0  0  0  0  0  0  0  0  0
   -0.7955   16.6930   45.6113 H   0  0  0  0  0  0  0  0  0  0  0  0
    1.7078   21.2124   44.3188 H   0  0  0  0  0  0  0  0  0  0  0  0
    4.2567   19.9419   41.9015 H   0  0  0  0  0  0  0  0  0  0  0  0
    2.8254   21.0984   41.9089 H   0  0  0  0  0  0  0  0  0  0  0  0
  1  2  2  0
  1  6  1  0
  2  3  1  0
  3  4  2  0
  4  5  1  0
  5  6  2  0
  6  7  1  0
  7  8  2  0
  7  9  1  0
  8 16  1  0
  9 10  2  0
 10 11  1  0
 10 15  1  0
 11 12  1  0
 11 13  1  0
 13 14  2  0
 14 15  1  0
 15 16  2  0
 16 17  1  0
  1 18  1  0
  2 19  1  0
  3 20  1  0
  5 21  1  0
 12 22  1  0
 12 23  1  0
 12 24  1  0
 14 25  1  0
 17 26  1  0
 17 27  1  0
M  END
>  <mol_id>  (18) 
2026-09-17-6fnk-s0-n100-0018

>  <rmsd_to_ref>  (18) 
1.2346938775527505

>  <pose_kind>  (18) 
conformer

$$$$
6fnk.A
     RDKit          3D

 27 29  0  0  0  0  0  0  0  0999 V2000
    3.0766   15.8607   40.5215 C   0  0  0  0  0  0  0  0  0  0  0  0
    3.9530   14.7854   40.3743 C   0  0  0  0  0  0  0  0  0  0  0  0
    4.1776   13.9242   41.4383 C   0  0  0  0  0  0  0  0  0  0  0  0
    3.5227   14.1326   42.6553 N   0  0  0  0  0  0  0  0  0  0  0  0
    2.6429   15.2160   42.8008 C   0  0  0  0  0  0  0  0  0  0  0  0
    2.4179   16.0831   41.7332 C   0  0  0  0  0  0  0  0  0  0  0  0
    1.5422   17.1634   41.8819 C   0  0  0  0  0  0  0  0  0  0  0  0
    1.4429   18.1071   40.9355 N   0  0  0  0  0  0  0  0  0  0  0  0
    0.7848   17.2596   42.9792 N   0  0  0  0  0  0  0  0  0  0  0  0
   -0.0623   18.2882   43.1618 C   0  0  0  0  0  0  0  0  0  0  0  0
   -0.8947   18.6007   44.1667 N   0  0  0  0  0  0  0  0  0  0  0  0
   -1.0917   17.8246   45.3945 C   0  0  0  0  0  0  0  0  0  0  0  0
   -1.4977   19.6459   43.9196 N   0  0  0  0  0  0  0  0  0  0  0  0
   -1.1051   20.0589   42.7033 C   0  0  0  0  0  0  0  0  0  0  0  0
   -0.1760   19.2219   42.2224 C   0  0  0  0  0  0  0  0  0  0  0  0
    0.5835   19.1303   41.0964 C   0  0  0  0  0  0  0  0  0  0  0  0
    0.4958   20.0662   40.1203 N   0  0  0  0  0  0  0  0  0  0  0  0
    2.9025   16.5407   39.6745 H   0  0  0  0  0  0  0  0  0  0  0  0
    4.4656   14.6205   39.4152 H   0  0  0  0  0  0  0  0  0  0  0  0
    4.8707   13.0777   41.3243 H   0  0  0  0  0  0  0  0  0  0  0  0
    2.1297   15.3813   43.7596 H   0  0  0  0  0  0  0  0  0  0  0  0
   -0.9739   18.4834   46.2676 H   0  0  0  0  0  0  0  0  0  0  0  0
   -2.1028   17.3913   45.3961 H   0  0  0  0  0  0  0  0  0  0  0  0
   -0.3465   17.0169   45.4414 H   0  0  0  0  0  0  0  0  0  0  0  0
   -1.4879   20.9485   42.1817 H   0  0  0  0  0  0  0  0  0  0  0  0
   -0.1554   20.8577   40.2227 H   0  0  0  0  0  0  0  0  0  0  0  0
    1.0802   19.9860   39.2759 H   0  0  0  0  0  0  0  0  0  0  0  0
  1  2  2  0
  1  6  1  0
  2  3  1  0
  3  4  2  0
  4  5  1  0
  5  6  2  0
  6  7  1  0
  7  8  2  0
  7  9  1  0
  8 16  1  0
  9 10  2  0
 10 11  1  0
 10 15  1  0
 11 12  1  0
 11 13  1  0
 13 14  2  0
 14 15  1  0
 15 16  2  0
 16 17  1  0
  1 18  1  0
  2 19  1  0
  3 20  1  0
  5 21  1  0
 12 22  1  0
 12 23  1  0
 12 24  1  0
 14 25  1  0
 17 26  1  0
 17 27  1  0
M  END
>  <mol_id>  (19) 
2026-09-17-6fnk-s0-n100-0019

>  <rmsd_to_ref>  (19) 
1.2806122448996489

>  <pose_kind>  (19) 
rigid

$$$$
6fnk.A
     RDKit          3D

 27 29  0  0  0  0  0  0  0  0999 V2000
    2.4794   16.1492   40.7169 C   0  0  0  0  0  0  0  0  0  0  0  0
    2.7103   14.9270   40.1175 C   0  0  0  0  0  0  0  0  0  0  0  0
    2.2756   13.7987   40.8210 C   0  0  0  0  0  0  0  0  0  0  0  0
    1.6753   13.9000   41.9979 N   0  0  0  0  0  0  0  0  0  0  0  0
    1.4652   15.0929   42.5535 C   0  0  0  0  0  0  0  0  0  0  0  0
    1.8530   16.2619   41.9461 C   0  0  0  0  0  0  0  0  0  0  0  0
    1.6395   17.5834   42.5242 C   0  0  0  0  0  0  0  0  0  0  0  0
    2.0408   18.7014   41.8843 N   0  0  0  0  0  0  0  0  0  0  0  0
    1.0296   17.6959   43.7212 N   0  0  0  0  0  0  0  0  0  0  0  0
    0.8125   18.9158   44.2936 C   0  0  0  0  0  0  0  0  0  0  0  0
    0.2441   19.3181   45.4459 N   0  0  0  0  0  0  0  0  0  0  0  0
   -0.3400   18.4468   46.4708 C   0  0  0  0  0  0  0  0  0  0  0  0
    0.3029   20.6393   45.4956 N   0  0  0  0  0  0  0  0  0  0  0  0
    0.8952   21.1333   44.4082 C   0  0  0  0  0  0  0  0  0  0  0  0
    1.2295   20.0488   43.6250 C   0  0  0  0  0  0  0  0  0  0  0  0
    1.8555   19.9345   42.3967 C   0  0  0  0  0  0  0  0  0  0  0  0
    2.3023   21.0841   41.6724 N   0  0  0  0  0  0  0  0  0  0  0  0
    2.8036   17.0493   40.1996 H   0  0  0  0  0  0  0  0  0  0  0  0
    3.2019   14.8451   39.1537 H   0  0  0  0  0  0  0  0  0  0  0  0
    2.4696   12.8460   40.3263 H   0  0  0  0  0  0  0  0  0  0  0  0
    0.9751   15.1260   43.5079 H   0  0  0  0  0  0  0  0  0  0  0  0
   -0.2819   19.0033   47.4270 H   0  0  0  0  0  0  0  0  0  0  0  0
   -1.4344   18.3123   46.2890 H   0  0  0  0  0  0  0  0  0  0  0  0
    0.1677   17.4787   46.4868 H   0  0  0  0  0  0  0  0  0  0  0  0
    1.1074   22.1577   44.1234 H   0  0  0  0  0  0  0  0  0  0  0  0
    3.2912   21.0905   41.2866 H   0  0  0  0  0  0  0  0  0  0  0  0
    1.6542   21.8939   41.5348 H   0  0  0  0  0  0  0  0  0  0  0  0
  1  2  2  0
  1  6  1  0
  2  3  1  0
  3  4  2  0
  4  5  1  0
  5  6  2  0
  6  7  1  0
  7  8  2  0
  7  9  1  0
  8 16  1  0
  9 10  2  0
 10 11  1  0
 10 15  1  0
 11 12  1  0
 11 13  1  0
 13 14  2  0
 14 15  1  0
 15 16  2  0
 16 17  1  0
  1 18  1  0
  2 19  1  0
  3 20  1  0
  5 21  1  0
 12 22  1  0
 12 23  1  0
 12 24  1  0
 14 25  1  0
 17 26  1  0
 17 27  1  0
M  END
>  <mol_id>  (20) 
2026-09-17-6fnk-s0-n100-0020

>  <rmsd_to_ref>  (20) 
1.3265306122467984

>  <pose_kind>  (20) 
conformer

$$$$
6fnk.A
     RDKit          3D

 27 29  0  0  0  0  0  0  0  0999 V2000
    2.6711   16.7702   40.0363 C   0  0  0  0  0  0  0  0  0  0  0  0
    3.2819   15.8624   39.1710 C   0  0  0  0  0  0  0  0  0  0  0  0
    3.5132   14.5587   39.5852 C   0  0  0  0  0  0  0  0  0  0  0  0
    3.1305   14.1556   40.8675 N   0  0  0  0  0  0  0  0  0  0  0  0
    2.5178   15.0714   41.7362 C   0  0  0  0  0  0  0  0  0  0  0  0
    2.2866   16.3818   41.3219 C   0  0  0  0  0  0  0  0  0  0  0  0
    1.6778   17.2931   42.1908 C   0  0  0  0  0  0  0  0  0  0  0  0
    1.6037   18.5957   41.8843 N   0  0  0  0  0  0  0  0  0  0  0  0
    1.1536   16.8648   43.3436 N   0  0  0  0  0  0  0  0  0  0  0  0
    0.5680   17.7121   44.2084 C   0  0  0  0  0  0  0  0  0  0  0  0
   -0.0020   17.5219   45.4080 N   0  0  0  0  0  0  0  0  0  0  0  0
   -0.1332   16.2391   46.1053 C   0  0  0  0  0  0  0  0  0  0  0  0
   -0.4225   18.5873   45.8610 N   0  0  0  0  0  0  0  0  0  0  0  0
   -0.1716   19.5396   44.9476 C   0  0  0  0  0  0  0  0  0  0  0  0
    0.4794   19.0037   43.9065 C   0  0  0  0  0  0  0  0  0  0  0  0
    1.0015   19.4508   42.7314 C   0  0  0  0  0  0  0  0  0  0  0  0
    0.9320   20.7612   42.3933 N   0  0  0  0  0  0  0  0  0  0  0  0
    2.4904   17.8027   39.7028 H   0  0  0  0  0  0  0  0  0  0  0  0
    3.5800   16.1799   38.1609 H   0  0  0  0  0  0  0  0  0  0  0  0
    3.9975   13.8428   38.9048 H   0  0  0  0  0  0  0  0  0  0  0  0
    2.2192   14.7545   42.7463 H   0  0  0  0  0  0  0  0  0  0  0  0
    0.2593   16.3361   47.1283 H   0  0  0  0  0  0  0  0  0  0  0  0
   -1.1938   15.9503   46.1454 H   0  0  0  0  0  0  0  0  0  0  0  0
    0.4366   15.4684   45.5655 H   0  0  0  0  0  0  0  0  0  0  0  0
   -0.4569   20.5979   45.0403 H   0  0  0  0  0  0  0  0  0  0  0  0
    0.4756   21.4330   43.0268 H   0  0  0  0  0  0  0  0  0  0  0  0
    1.3356   21.0855   41.5029 H   0  0  0  0  0  0  0  0  0  0  0  0
  1  2  2  0
  1  6  1  0
  2  3  1  0
  3  4  2  0
  4  5  1  0
  5  6  2  0
  6  7  1  0
  7  8  2  0
  7  9  1  0
  8 16  1  0
  9 10  2  0
 10 11  1  0
 10 15  1  0
 11 12  1  0
 11 13  1  0
 13 14  2  0
 14 15  1  0
 15 16  2  0
 16 17  1  0
  1 18  1  0
  2 19  1  0
  3 20  1  0
  5 21  1  0
 12 22  1  0
 12 23  1  0
 12 24  1  0
 14 25  1  0
 17 26  1  0
 17 27  1  0
M  END
>  <mol_id>  (21) 
2026-09-17-6fnk-s0-n100-0021

>  <rmsd_to_ref>  (21) 
1.3724489795919124

>  <pose_kind>  (21) 
rigid

$$$$
6fnk.A
     RDKit          3D

 27 29  0  0  0  0  0  0  0  0999 V2000
    2.4739   14.7737   41.4878 C   0  0  0  0  0  0  0  0  0  0  0  0
    3.0155   13.5105   41.6197 C   0  0  0  0  0  0  0  0  0  0  0  0
    2.8428   12.8876   42.8604 C   0  0  0  0  0  0  0  0  0  0  0  0
    2.1946   13.4795   43.8528 N   0  0  0  0  0  0  0  0  0  0  0  0
    1.6818   14.6997   43.6978 C   0  0  0  0  0  0  0  0  0  0  0  0
    1.7957   15.3975   42.5207 C   0  0  0  0  0  0  0  0  0  0  0  0
    1.2476   16.7331   42.3157 C   0  0  0  0  0  0  0  0  0  0  0  0
    1.3882   17.3749   41.1373 N   0  0  0  0  0  0  0  0  0  0  0  0
    0.5866   17.3429   43.3200 N   0  0  0  0  0  0  0  0  0  0  0  0
    0.0599   18.5926   43.1653 C   0  0  0  0  0  0  0  0  0  0  0  0
   -0.6295   19.4212   43.9720 N   0  0  0  0  0  0  0  0  0  0  0  0
   -1.0208   19.1483   45.3589 C   0  0  0  0  0  0  0  0  0  0  0  0
   -0.8948   20.5281   43.2969 N   0  0  0  0  0  0  0  0  0  0  0  0
   -0.4019   20.4639   42.0598 C   0  0  0  0  0  0  0  0  0  0  0  0
    0.2131   19.2344   41.9532 C   0  0  0  0  0  0  0  0  0  0  0  0
    0.8912   18.6096   40.9220 C   0  0  0  0  0  0  0  0  0  0  0  0
    1.0712   19.2409   39.6512 N   0  0  0  0  0  0  0  0  0  0  0  0
    2.5882   15.2895   40.5372 H   0  0  0  0  0  0  0  0  0  0  0  0
    3.5462   13.0266   40.8065 H   0  0  0  0  0  0  0  0  0  0  0  0
    3.2796   11.8910   42.9388 H   0  0  0  0  0  0  0  0  0  0  0  0
    1.1648   15.1394   44.5296 H   0  0  0  0  0  0  0  0  0  0  0  0
   -1.1332   20.1333   45.8535 H   0  0  0  0  0  0  0  0  0  0  0  0
   -2.0427   18.6973   45.3929 H   0  0  0  0  0  0  0  0  0  0  0  0
   -0.2942   18.4881   45.8402 H   0  0  0  0  0  0  0  0  0  0  0  0
   -0.4346   21.1823   41.2484 H   0  0  0  0  0  0  0  0  0  0  0  0
    2.0420   19.2548   39.2222 H   0  0  0  0  0  0  0  0  0  0  0  0
    0.2513   19.6757   39.1679 H   0  0  0  0  0  0  0  0  0  0  0  0
  1  2  2  0
  1  6  1  0
  2  3  1  0
  3  4  2  0
  4  5  1  0
  5  6  2  0
  6  7  1  0
  7  8  2  0
  7  9  1  0
  8 16  1  0
  9 10  2  0
 10 11  1  0
 10 15  1  0
 11 12  1  0
 11 13  1  0
 13 14  2  0
 14 15  1  0
 15 16  2  0
 16 17  1  0
  1 18  1  0
  2 19  1  0
  3 20  1  0
  5 21  1  0
 12 22  1  0
 12 23  1  0
 12 24  1  0
 14 25  1  0
 17 26  1  0
 17 27  1  0
M  END
>  <mol_id>  (22) 
2026-09-17-6fnk-s0-n100-0022

>  <rmsd_to_ref>  (22) 
1.4183673469388873

>  <pose_kind>  (22) 
conformer

$$$$
6fnk.A
     RDKit          3D

 27 29  0  0  0  0  0  0  0  0999 V2000
    1.9593   16.3379   40.6497 C   0  0  0  0  0  0  0  0  0  0  0  0
    2.2305   15.1090   40.0480 C   0  0  0  0  0  0  0  0  0  0  0  0
    2.4569   13.9881   40.8333 C   0  0  0  0  0  0  0  0  0  0  0  0
    2.4093   14.0906   42.2263 N   0  0  0  0  0  0  0  0  0  0  0  0
    2.1379   15.3285   42.8288 C   0  0  0  0  0  0  0  0  0  0  0  0
    1.9121   16.4556   42.0409 C   0  0  0  0  0  0  0  0  0  0  0  0
    1.6441   17.6885   42.6444 C   0  0  0  0  0  0  0  0  0  0  0  0
    1.5978   18.8158   41.9211 N   0  0  0  0  0  0  0  0  0  0  0  0
    1.4233   17.7506   43.9614 N   0  0  0  0  0  0  0  0  0  0  0  0
    1.1711   18.9188   44.5785 C   0  0  0  0  0  0  0  0  0  0  0  0
    0.9391   19.2255   45.8639 N   0  0  0  0  0  0  0  0  0  0  0  0
    0.8980   18.2776   46.9815 C   0  0  0  0  0  0  0  0  0  0  0  0
    0.7501   20.4358   45.9925 N   0  0  0  0  0  0  0  0  0  0  0  0
    0.8189   20.9858   44.7690 C   0  0  0  0  0  0  0  0  0  0  0  0
    1.1112   20.0398   43.8665 C   0  0  0  0  0  0  0  0  0  0  0  0
    1.3255   19.9883   42.5231 C   0  0  0  0  0  0  0  0  0  0  0  0
    1.2755   21.1120   41.7673 N   0  0  0  0  0  0  0  0  0  0  0  0
    1.7808   17.2236   40.0223 H   0  0  0  0  0  0  0  0  0  0  0  0
    2.2648   15.0288   38.9514 H   0  0  0  0  0  0  0  0  0  0  0  0
    2.6738   13.0191   40.3599 H   0  0  0  0  0  0  0  0  0  0  0  0
    2.1032   15.4092   43.9253 H   0  0  0  0  0  0  0  0  0  0  0  0
    1.5634   18.6282   47.7842 H   0  0  0  0  0  0  0  0  0  0  0  0
   -0.1310   18.2056   47.3635 H   0  0  0  0  0  0  0  0  0  0  0  0
    1.2308   17.2880   46.6353 H   0  0  0  0  0  0  0  0  0  0  0  0
    0.6595   22.0504   44.5426 H   0  0  0  0  0  0  0  0  0  0  0  0
    1.0687   22.0199   42.2075 H   0  0  0  0  0  0  0  0  0  0  0  0
    1.4443   21.0581   40.7527 H   0  0  0  0  0  0  0  0  0  0  0  0
  1  2  2  0
  1  6  1  0
  2  3  1  0
  3  4  2  0
  4  5  1  0
  5  6  2  0
  6  7  1  0
  7  8  2  0
  7  9  1  0
  8 16  1  0
  9 10  2  0
 10 11  1  0
 10 15  1  0
 11 12  1  0
 11 13  1  0
 13 14  2  0
 14 15  1  0
 15 16  2  0
 16 17  1  0
  1 18  1  0
  2 19  1  0
  3 20  1  0
  5 21  1  0
 12 22  1  0
 12 23  1  0
 12 24  1  0
 14 25  1  0
 17 26  1  0
 17 27  1  0
M  END
>  <mol_id>  (23) 
2026-09-17-6fnk-s0-n100-0023

>  <rmsd_to_ref>  (23) 
1.464285714285791

>  <pose_kind>  (23) 
rigid

$$$$
6fnk.A
     RDKit          3D

 27 29  0  0  0  0  0  0  0  0999 V2000
    3.0637   15.1556   41.8881 C   0  0  0  0  0  0  0  0  0  0  0  0
    3.4989   13.8696   42.1403 C   0  0  0  0  0  0  0  0  0  0  0  0
    3.4585   13.4513   43.4746 C   0  0  0  0  0  0  0  0  0  0  0  0
    3.0260   14.2472   44.4415 N   0  0  0  0  0  0  0  0  0  0  0  0
    2.6117   15.4842   44.1696 C   0  0  0  0  0  0  0  0  0  0  0  0
    2.6107   15.9920   42.8937 C   0  0  0  0  0  0  0  0  0  0  0  0
    2.1648   17.3395   42.5595 C   0  0  0  0  0  0  0  0  0  0  0  0
    2.1847   17.7890   41.2876 N   0  0  0  0  0  0  0  0  0  0  0  0
    1.7231   18.1562   43.5370 N   0  0  0  0  0  0  0  0  0  0  0  0
    1.2980   19.4239   43.2626 C   0  0  0  0  0  0  0  0  0  0  0  0
    0.8188   20.4312   44.0165 N   0  0  0  0  0  0  0  0  0  0  0  0
    0.6183   20.4026   45.4691 C   0  0  0  0  0  0  0  0  0  0  0  0
    0.5588   21.4552   43.2196 N   0  0  0  0  0  0  0  0  0  0  0  0
    0.8506   21.1617   41.9523 C   0  0  0  0  0  0  0  0  0  0  0  0
    1.3252   19.8671   41.9560 C   0  0  0  0  0  0  0  0  0  0  0  0
    1.7782   19.0299   40.9522 C   0  0  0  0  0  0  0  0  0  0  0  0
    1.8219   19.4516   39.5861 N   0  0  0  0  0  0  0  0  0  0  0  0
    3.0805   15.5162   40.8622 H   0  0  0  0  0  0  0  0  0  0  0  0
    3.8530   13.2186   41.3479 H   0  0  0  0  0  0  0  0  0  0  0  0
    3.8074   12.4322   43.6473 H   0  0  0  0  0  0  0  0  0  0  0  0
    2.2698   16.0930   44.9850 H   0  0  0  0  0  0  0  0  0  0  0  0
    0.6742   21.4536   45.8149 H   0  0  0  0  0  0  0  0  0  0  0  0
   -0.4244   20.0812   45.7112 H   0  0  0  0  0  0  0  0  0  0  0  0
    1.3445   19.7377   45.9441 H   0  0  0  0  0  0  0  0  0  0  0  0
    0.7628   21.7580   41.0510 H   0  0  0  0  0  0  0  0  0  0  0  0
    2.7136   19.2935   39.0324 H   0  0  0  0  0  0  0  0  0  0  0  0
    0.9825   19.9053   39.1568 H   0  0  0  0  0  0  0  0  0  0  0  0
  1  2  2  0
  1  6  1  0
  2  3  1  0
  3  4  2  0
  4  5  1  0
  5  6  2  0
  6  7  1  0
  7  8  2  0
  7  9  1  0
  8 16  1  0
  9 10  2  0
 10 11  1  0
 10 15  1  0
 11 12  1  0
 11 13  1  0
 13 14  2  0
 14 15  1  0
 15 16  2  0
 16 17  1  0
  1 18  1  0
  2 19  1  0
  3 20  1  0
  5 21  1  0
 12 22  1  0
 12 23  1  0
 12 24  1  0
 14 25  1  0
 17 26  1  0
 17 27  1  0
M  END
>  <mol_id>  (24) 
2026-09-17-6fnk-s0-n100-0024

>  <rmsd_to_ref>  (24) 
1.5102040816381597

>  <pose_kind>  (24) 
conformer

$$$$
6fnk.A
     RDKit          3D

 27 29  0  0  0  0  0  0  0  0999 V2000
    2.7354   14.9515   40.7918 C   0  0  0  0  0  0  0  0  0  0  0  0
    2.5157   13.6660   40.2967 C   0  0  0  0  0  0  0  0  0  0  0  0
    1.4279   12.9289   40.7416 C   0  0  0  0  0  0  0  0  0  0  0  0
    0.5514   13.4766   41.6823 N   0  0  0  0  0  0  0  0  0  0  0  0
    0.7759   14.7693   42.1797 C   0  0  0  0  0  0  0  0  0  0  0  0
    1.8694   15.5100   41.7350 C   0  0  0  0  0  0  0  0  0  0  0  0
    2.0919   16.7974   42.2343 C   0  0  0  0  0  0  0  0  0  0  0  0
    3.2243   17.4588   41.9585 N   0  0  0  0  0  0  0  0  0  0  0  0
    1.1625   17.3863   42.9937 N   0  0  0  0  0  0  0  0  0  0  0  0
    1.3442   18.6194   43.4989 C   0  0  0  0  0  0  0  0  0  0  0  0
    0.5775   19.3924   44.2832 N   0  0  0  0  0  0  0  0  0  0  0  0
   -0.7461   19.0425   44.8071 C   0  0  0  0  0  0  0  0  0  0  0  0
    1.1346   20.4676   44.5082 N   0  0  0  0  0  0  0  0  0  0  0  0
    2.3014   20.4629   43.8428 C   0  0  0  0  0  0  0  0  0  0  0  0
    2.4592   19.2873   43.2200 C   0  0  0  0  0  0  0  0  0  0  0  0
    3.4095   18.7017   42.4405 C   0  0  0  0  0  0  0  0  0  0  0  0
    4.5595   19.3521   42.1393 N   0  0  0  0  0  0  0  0  0  0  0  0
    3.5997   15.5315   40.4358 H   0  0  0  0  0  0  0  0  0  0  0  0
    3.2045   13.2371   39.5542 H   0  0  0  0  0  0  0  0  0  0  0  0
    1.2554   11.9140   40.3541 H   0  0  0  0  0  0  0  0  0  0  0  0
    0.0873   15.1989   42.9222 H   0  0  0  0  0  0  0  0  0  0  0  0
   -0.7617   19.1964   45.8962 H   0  0  0  0  0  0  0  0  0  0  0  0
   -1.5076   19.6812   44.3356 H   0  0  0  0  0  0  0  0  0  0  0  0
   -0.9623   17.9876   44.5826 H   0  0  0  0  0  0  0  0  0  0  0  0
    3.0180   21.2970   43.8138 H   0  0  0  0  0  0  0  0  0  0  0  0
    4.7218   20.3041   42.4975 H   0  0  0  0  0  0  0  0  0  0  0  0
    5.2713   18.8946   41.5519 H   0  0  0  0  0  0  0  0  0  0  0  0
  1  2  2  0
  1  6  1  0
  2  3  1  0
  3  4  2  0
  4  5  1  0
  5  6  2  0
  6  7  1  0
  7  8  2  0
  7  9  1  0
  8 16  1  0
  9 10  2  0
 10 11  1  0
 10 15  1  0
 11 12  1  0
 11 13  1  0
 13 14  2  0
 14 15  1  0
 15 16  2  0
 16 17  1  0
  1 18  1  0
  2 19  1  0
  3 20  1  0
  5 21  1  0
 12 22  1  0
 12 23  1  0
 12 24  1  0
 14 25  1  0
 17 26  1  0
 17 27  1  0
M  END
>  <mol_id>  (25) 
2026-09-17-6fnk-s0-n100-0025

>  <rmsd_to_ref>  (25) 
1.55612244898173

>  <pose_kind>  (25) 
rigid

$$$$
6fnk.A
     RDKit          3D

 27 29  0  0  0  0  0  0  0  0999 V2000
    3.1220   14.6416   42.1003 C   0  0  0  0  0  0  0  0  0  0  0  0
    3.3368   13.3035   41.8359 C   0  0  0  0  0  0  0  0  0  0  0  0
    2.2288   12.4595   41.9663 C   0  0  0  0  0  0  0  0  0  0  0  0
    1.0396   12.9212   42.3241 N   0  0  0  0  0  0  0  0  0  0  0  0
    0.8605   14.2179   42.5734 C   0  0  0  0  0  0  0  0  0  0  0  0
    1.8821   15.1303   42.4745 C   0  0  0  0  0  0  0  0  0  0  0  0
    1.7226   16.5552   42.7395 C   0  0  0  0  0  0  0  0  0  0  0  0
    2.7611   17.4093   42.6273 N   0  0  0  0  0  0  0  0  0  0  0  0
    0.5162   17.0338   43.1040 N   0  0  0  0  0  0  0  0  0  0  0  0
    0.3286   18.3612   43.3602 C   0  0  0  0  0  0  0  0  0  0  0  0
   -0.7346   19.0989   43.7318 N   0  0  0  0  0  0  0  0  0  0  0  0
   -2.0908   18.5969   43.9760 C   0  0  0  0  0  0  0  0  0  0  0  0
   -0.3450   20.3591   43.8393 N   0  0  0  0  0  0  0  0  0  0  0  0
    0.9502   20.4861   43.5500 C   0  0  0  0  0  0  0  0  0  0  0  0
    1.4019   19.2206   43.2405 C   0  0  0  0  0  0  0  0  0  0  0  0
    2.6403   18.7306   42.8665 C   0  0  0  0  0  0  0  0  0  0  0  0
    3.7769   19.5883   42.7314 N   0  0  0  0  0  0  0  0  0  0  0  0
    3.9602   15.3286   42.0093 H   0  0  0  0  0  0  0  0  0  0  0  0
    4.3110   12.9264   41.5430 H   0  0  0  0  0  0  0  0  0  0  0  0
    2.4247   11.4079   41.7521 H   0  0  0  0  0  0  0  0  0  0  0  0
   -0.1205   14.5462   42.8601 H   0  0  0  0  0  0  0  0  0  0  0  0
   -2.5675   19.3081   44.6792 H   0  0  0  0  0  0  0  0  0  0  0  0
   -2.7047   18.6669   43.0448 H   0  0  0  0  0  0  0  0  0  0  0  0
   -2.0594   17.5657   44.3378 H   0  0  0  0  0  0  0  0  0  0  0  0
    1.5883   21.3626   43.5370 H   0  0  0  0  0  0  0  0  0  0  0  0
    4.6874   19.3048   43.1977 H   0  0  0  0  0  0  0  0  0  0  0  0
    3.6951   20.4740   42.1803 H   0  0  0  0  0  0  0  0  0  0  0  0
  1  2  2  0
  1  6  1  0
  2  3  1  0
  3  4  2  0
  4  5  1  0
  5  6  2  0
  6  7  1  0
  7  8  2  0
  7  9  1  0
  8 16  1  0
  9 10  2  0
 10 11  1  0
 10 15  1  0
 11 12  1  0
 11 13  1  0
 13 14  2  0
 14 15  1  0
 15 16  2  0
 16 17  1  0
  1 18  1  0
  2 19  1  0
  3 20  1  0
  5 21  1  0
 12 22  1  0
 12 23  1  0
 12 24  1  0
 14 25  1  0
 17 26  1  0
 17 27  1  0
M  END
>  <mol_id>  (26) 
2026-09-17-6fnk-s0-n100-0026

>  <rmsd_to_ref>  (26) 
1.6020408163276607

>  <pose_kind>  (26) 
conformer

$$$$
6fnk.A
     RDKit          3D

 27 29  0  0  0  0  0  0  0  0999 V2000
    1.9387   14.9505   40.4415 C   0  0  0  0  0  0  0  0  0  0  0  0
    2.0981   13.5759   40.2660 C   0  0  0  0  0  0  0  0  0  0  0  0
    2.3143   12.7576   41.3652 C   0  0  0  0  0  0  0  0  0  0  0  0
    2.3682   13.3109   42.6473 N   0  0  0  0  0  0  0  0  0  0  0  0
    2.2090   14.6942   42.8207 C   0  0  0  0  0  0  0  0  0  0  0  0
    1.9937   15.5175   41.7171 C   0  0  0  0  0  0  0  0  0  0  0  0
    1.8377   16.8962   41.8927 C   0  0  0  0  0  0  0  0  0  0  0  0
    1.8056   17.7270   40.8416 N   0  0  0  0  0  0  0  0  0  0  0  0
    1.7116   17.3998   43.1246 N   0  0  0  0  0  0  0  0  0  0  0  0
    1.5686   18.7207   43.3338 C   0  0  0  0  0  0  0  0  0  0  0  0
    1.4430   19.4456   44.4559 N   0  0  0  0  0  0  0  0  0  0  0  0
    1.4253   18.9189   45.8238 C   0  0  0  0  0  0  0  0  0  0  0  0
    1.3318   20.6426   44.1875 N   0  0  0  0  0  0  0  0  0  0  0  0
    1.3474   20.7578   42.8493 C   0  0  0  0  0  0  0  0  0  0  0  0
    1.5233   19.5504   42.2960 C   0  0  0  0  0  0  0  0  0  0  0  0
    1.6418   19.0486   41.0361 C   0  0  0  0  0  0  0  0  0  0  0  0
    1.6035   19.8657   39.9556 N   0  0  0  0  0  0  0  0  0  0  0  0
    1.7677   15.5947   39.5664 H   0  0  0  0  0  0  0  0  0  0  0  0
    2.0526   13.1410   39.2566 H   0  0  0  0  0  0  0  0  0  0  0  0
    2.4432   11.6738   41.2276 H   0  0  0  0  0  0  0  0  0  0  0  0
    2.2543   15.1297   43.8298 H   0  0  0  0  0  0  0  0  0  0  0  0
    2.1628   19.4600   46.4347 H   0  0  0  0  0  0  0  0  0  0  0  0
    0.4224   19.0530   46.2554 H   0  0  0  0  0  0  0  0  0  0  0  0
    1.6772   17.8482   45.8077 H   0  0  0  0  0  0  0  0  0  0  0  0
    1.2332   21.6997   42.2928 H   0  0  0  0  0  0  0  0  0  0  0  0
    1.4791   20.8804   40.0815 H   0  0  0  0  0  0  0  0  0  0  0  0
    1.6990   19.4721   39.0086 H   0  0  0  0  0  0  0  0  0  0  0  0
  1  2  2  0
  1  6  1  0
  2  3  1  0
  3  4  2  0
  4  5  1  0
  5  6  2  0
  6  7  1  0
  7  8  2  0
  7  9  1  0
  8 16  1  0
  9 10  2  0
 10 11  1  0
 10 15  1  0
 11 12  1  0
 11 13  1  0
 13 14  2  0
 14 15  1  0
 15 16  2  0
 16 17  1  0
  1 18  1  0
  2 19  1  0
  3 20  1  0
  5 21  1  0
 12 22  1  0
 12 23  1  0
 12 24  1  0
 14 25  1  0
 17 26  1  0
 17 27  1  0
M  END
>  <mol_id>  (27) 
2026-09-17-6fnk-s0-n100-0027

>  <rmsd_to_ref>  (27) 
1.64795918367673

>  <pose_kind>  (27) 
rigid

$$$$
6fnk.A
     RDKit          3D

 27 29  0  0  0  0  0  0  0  0999 V2000
    2.0002   15.2236   40.9154 C   0  0  0  0  0  0  0  0  0  0  0  0
    2.2768   13.9236   40.5409 C   0  0  0  0  0  0  0  0  0  0  0  0
    2.6289   13.0431   41.5693 C   0  0  0  0  0  0  0  0  0  0  0  0
    2.6927   13.4374   42.8327 N   0  0  0  0  0  0  0  0  0  0  0  0
    2.4206   14.6985   43.1660 C   0  0  0  0  0  0  0  0  0  0  0  0
    2.0652   15.6418   42.2333 C   0  0  0  0  0  0  0  0  0  0  0  0
    1.7608   17.0295   42.5616 C   0  0  0  0  0  0  0  0  0  0  0  0
    1.4162   17.9165   41.6050 N   0  0  0  0  0  0  0  0  0  0  0  0
    1.8232   17.4394   43.8443 N   0  0  0  0  0  0  0  0  0  0  0  0
    1.5452   18.7302   44.1898 C   0  0  0  0  0  0  0  0  0  0  0  0
    1.5277   19.4009   45.3571 N   0  0  0  0  0  0  0  0  0  0  0  0
    1.8367   18.8432   46.6779 C   0  0  0  0  0  0  0  0  0  0  0  0
    1.1826   20.6539   45.1078 N   0  0  0  0  0  0  0  0  0  0  0  0
    0.9685   20.8413   43.8053 C   0  0  0  0  0  0  0  0  0  0  0  0
    1.1945   19.6240   43.1984 C   0  0  0  0  0  0  0  0  0  0  0  0
    1.1301   19.2046   41.8818 C   0  0  0  0  0  0  0  0  0  0  0  0
    0.7708   20.0998   40.8258 N   0  0  0  0  0  0  0  0  0  0  0  0
    1.7227   15.9372   40.1430 H   0  0  0  0  0  0  0  0  0  0  0  0
    2.2242   13.6018   39.5061 H   0  0  0  0  0  0  0  0  0  0  0  0
    2.8424   12.0229   41.2476 H   0  0  0  0  0  0  0  0  0  0  0  0
    2.4853   14.9723   44.2020 H   0  0  0  0  0  0  0  0  0  0  0  0
    2.1807   19.6900   47.3040 H   0  0  0  0  0  0  0  0  0  0  0  0
    0.9029   18.4850   47.1766 H   0  0  0  0  0  0  0  0  0  0  0  0
    2.5614   18.0293   46.5913 H   0  0  0  0  0  0  0  0  0  0  0  0
    0.6760   21.7308   43.2586 H   0  0  0  0  0  0  0  0  0  0  0  0
    1.3789   20.1322   39.9563 H   0  0  0  0  0  0  0  0  0  0  0  0
   -0.0778   20.7038   40.9249 H   0  0  0  0  0  0  0  0  0  0  0  0
  1  2  2  0
  1  6  1  0
  2  3  1  0
  3  4  2  0
  4  5  1  0
  5  6  2  0
  6  7  1  0
  7  8  2  0
  7  9  1  0
  8 16  1  0
  9 10  2  0
 10 11  1  0
 10 15  1  0
 11 12  1  0
 11 13  1  0
 13 14  2  0
 14 15  1  0
 15 16  2  0
 16 17  1  0
  1 18  1  0
  2 19  1  0
  3 20  1  0
  5 21  1  0
 12 22  1  0
 12 23  1  0
 12 24  1  0
 14 25  1  0
 17 26  1  0
 17 27  1  0
M  END
>  <mol_id>  (28) 
2026-09-17-6fnk-s0-n100-0028

>  <rmsd_to_ref>  (28) 
1.6938775510225488

>  <pose_kind>  (28) 
conformer

$$$$
6fnk.A
     RDKit          3D

 27 29  0  0  0  0  0  0  0  0999 V2000
    2.8141   17.5704   39.7459 C   0  0  0  0  0  0  0  0  0  0  0  0
    3.2362   16.6771   38.7610 C   0  0  0  0  0  0  0  0  0  0  0  0
    3.6141   15.3888   39.1102 C   0  0  0  0  0  0  0  0  0  0  0  0
    3.5679   14.9863   40.4478 N   0  0  0  0  0  0  0  0  0  0  0  0
    3.1443   15.8874   41.4364 C   0  0  0  0  0  0  0  0  0  0  0  0
    2.7662   17.1825   41.0871 C   0  0  0  0  0  0  0  0  0  0  0  0
    2.3467   18.0792   42.0750 C   0  0  0  0  0  0  0  0  0  0  0  0
    2.1472   19.3740   41.7926 N   0  0  0  0  0  0  0  0  0  0  0  0
    2.1332   17.6443   43.3209 N   0  0  0  0  0  0  0  0  0  0  0  0
    1.7379   18.4780   44.2994 C   0  0  0  0  0  0  0  0  0  0  0  0
    1.4813   18.2797   45.6014 N   0  0  0  0  0  0  0  0  0  0  0  0
    1.5749   17.0012   46.3125 C   0  0  0  0  0  0  0  0  0  0  0  0
    1.1380   19.3329   46.1400 N   0  0  0  0  0  0  0  0  0  0  0  0
    1.1224   20.2834   45.1911 C   0  0  0  0  0  0  0  0  0  0  0  0
    1.5258   19.7614   44.0251 C   0  0  0  0  0  0  0  0  0  0  0  0
    1.7312   20.2146   42.7578 C   0  0  0  0  0  0  0  0  0  0  0  0
    1.5283   21.5171   42.4436 N   0  0  0  0  0  0  0  0  0  0  0  0
    2.5158   18.5908   39.4635 H   0  0  0  0  0  0  0  0  0  0  0  0
    3.2694   16.9941   37.7083 H   0  0  0  0  0  0  0  0  0  0  0  0
    3.9499   14.6846   38.3348 H   0  0  0  0  0  0  0  0  0  0  0  0
    3.1106   15.5709   42.4894 H   0  0  0  0  0  0  0  0  0  0  0  0
    2.1972   17.1260   47.2109 H   0  0  0  0  0  0  0  0  0  0  0  0
    0.5679   16.6709   46.6071 H   0  0  0  0  0  0  0  0  0  0  0  0
    2.0297   16.2474   45.6531 H   0  0  0  0  0  0  0  0  0  0  0  0
    0.8240   21.3305   45.3474 H   0  0  0  0  0  0  0  0  0  0  0  0
    1.2099   22.1778   43.1670 H   0  0  0  0  0  0  0  0  0  0  0  0
    1.6922   21.8464   41.4816 H   0  0  0  0  0  0  0  0  0  0  0  0
  1  2  2  0
  1  6  1  0
  2  3  1  0
  3  4  2  0
  4  5  1  0
  5  6  2  0
  6  7  1  0
  7  8  2  0
  7  9  1  0
  8 16  1  0
  9 10  2  0
 10 11  1  0
 10 15  1  0
 11 12  1  0
 11 13  1  0
 13 14  2  0
 14 15  1  0
 15 16  2  0
 16 17  1  0
  1 18  1  0
  2 19  1  0
  3 20  1  0
  5 21  1  0
 12 22  1  0
 12 23  1  0
 12 24  1  0
 14 25  1  0
 17 26  1  0
 17 27  1  0
M  END
>  <mol_id>  (29) 
2026-09-17-6fnk-s0-n100-0029

>  <rmsd_to_ref>  (29) 
1.739795918372865

>  <pose_kind>  (29) 
rigid

$$$$
6fnk.A
     RDKit          3D

 27 29  0  0  0  0  0  0  0  0999 V2000
    2.4046   14.5935   40.5783 C   0  0  0  0  0  0  0  0  0  0  0  0
    2.6649   13.2380   40.6167 C   0  0  0  0  0  0  0  0  0  0  0  0
    2.3918   12.5875   41.8247 C   0  0  0  0  0  0  0  0  0  0  0  0
    1.9097   13.2386   42.8731 N   0  0  0  0  0  0  0  0  0  0  0  0
    1.6675   14.5474   42.8081 C   0  0  0  0  0  0  0  0  0  0  0  0
    1.9009   15.2795   41.6700 C   0  0  0  0  0  0  0  0  0  0  0  0
    1.6480   16.7116   41.5632 C   0  0  0  0  0  0  0  0  0  0  0  0
    1.8953   17.3834   40.4196 N   0  0  0  0  0  0  0  0  0  0  0  0
    1.1575   17.3821   42.6249 N   0  0  0  0  0  0  0  0  0  0  0  0
    0.9082   18.7225   42.5625 C   0  0  0  0  0  0  0  0  0  0  0  0
    0.4323   19.6252   43.4409 N   0  0  0  0  0  0  0  0  0  0  0  0
    0.0247   19.3530   44.8231 C   0  0  0  0  0  0  0  0  0  0  0  0
    0.3952   20.8043   42.8413 N   0  0  0  0  0  0  0  0  0  0  0  0
    0.8333   20.7166   41.5852 C   0  0  0  0  0  0  0  0  0  0  0  0
    1.1671   19.3939   41.3848 C   0  0  0  0  0  0  0  0  0  0  0  0
    1.6703   18.7069   40.2947 C   0  0  0  0  0  0  0  0  0  0  0  0
    1.9517   19.3661   39.0570 N   0  0  0  0  0  0  0  0  0  0  0  0
    2.6045   15.1335   39.6556 H   0  0  0  0  0  0  0  0  0  0  0  0
    3.0597   12.7058   39.7576 H   0  0  0  0  0  0  0  0  0  0  0  0
    2.6059   11.5178   41.8290 H   0  0  0  0  0  0  0  0  0  0  0  0
    1.2772   15.0327   43.6825 H   0  0  0  0  0  0  0  0  0  0  0  0
    0.1382   20.3053   45.3778 H   0  0  0  0  0  0  0  0  0  0  0  0
   -1.0694   19.1289   44.8687 H   0  0  0  0  0  0  0  0  0  0  0  0
    0.6034   18.5235   45.2381 H   0  0  0  0  0  0  0  0  0  0  0  0
    0.9367   21.4765   40.8187 H   0  0  0  0  0  0  0  0  0  0  0  0
    2.8923   19.2004   38.5939 H   0  0  0  0  0  0  0  0  0  0  0  0
    1.2332   19.9957   38.6303 H   0  0  0  0  0  0  0  0  0  0  0  0
  1  2  2  0
  1  6  1  0
  2  3  1  0
  3  4  2  0
  4  5  1  0
  5  6  2  0
  6  7  1  0
  7  8  2  0
  7  9  1  0
  8 16  1  0
  9 10  2  0
 10 11  1  0
 10 15  1  0
 11 12  1  0
 11 13  1  0
 13 14  2  0
 14 15  1  0
 15 16  2  0
 16 17  1  0
  1 18  1  0
  2 19  1  0
  3 20  1  0
  5 21  1  0
 12 22  1  0
 12 23  1  0
 12 24  1  0
 14 25  1  0
 17 26  1  0
 17 27  1  0
M  END
>  <mol_id>  (30) 
2026-09-17-6fnk-s0-n100-0030

>  <rmsd_to_ref>  (30) 
1.7857142857175374

>  <pose_kind>  (30) 
conformer

$$$$
6fnk.A
     RDKit          3D

 27 29  0  0  0  0  0  0  0  0999 V2000
    3.5421   16.4909   40.6158 C   0  0  0  0  0  0  0  0  0  0  0  0
    3.9120   15.6660   39.5534 C   0  0  0  0  0  0  0  0  0  0  0  0
    3.2369   14.4740   39.3342 C   0  0  0  0  0  0  0  0  0  0  0  0
    2.1846   14.1029   40.1758 N   0  0  0  0  0  0  0  0  0  0  0  0
    1.8158   14.9341   41.2445 C   0  0  0  0  0  0  0  0  0  0  0  0
    2.4944   16.1309   41.4668 C   0  0  0  0  0  0  0  0  0  0  0  0
    2.1261   16.9560   42.5343 C   0  0  0  0  0  0  0  0  0  0  0  0
    2.8694   18.0178   42.8746 N   0  0  0  0  0  0  0  0  0  0  0  0
    1.0132   16.6916   43.2263 N   0  0  0  0  0  0  0  0  0  0  0  0
    0.6313   17.4570   44.2641 C   0  0  0  0  0  0  0  0  0  0  0  0
   -0.4148   17.3812   45.1009 N   0  0  0  0  0  0  0  0  0  0  0  0
   -1.4718   16.3661   45.0682 C   0  0  0  0  0  0  0  0  0  0  0  0
   -0.3825   18.3020   45.9184 N   0  0  0  0  0  0  0  0  0  0  0  0
    0.6899   19.0579   45.6304 C   0  0  0  0  0  0  0  0  0  0  0  0
    1.3563   18.5192   44.6007 C   0  0  0  0  0  0  0  0  0  0  0  0
    2.4870   18.8040   43.8980 C   0  0  0  0  0  0  0  0  0  0  0  0
    3.2517   19.8767   44.2157 N   0  0  0  0  0  0  0  0  0  0  0  0
    4.0808   17.4348   40.7850 H   0  0  0  0  0  0  0  0  0  0  0  0
    4.7385   15.9604   38.8899 H   0  0  0  0  0  0  0  0  0  0  0  0
    3.5298   13.8213   38.4987 H   0  0  0  0  0  0  0  0  0  0  0  0
    0.9893   14.6403   41.9083 H   0  0  0  0  0  0  0  0  0  0  0  0
   -1.5820   15.9193   46.0674 H   0  0  0  0  0  0  0  0  0  0  0  0
   -2.4211   16.8346   44.7695 H   0  0  0  0  0  0  0  0  0  0  0  0
   -1.2055   15.5826   44.3435 H   0  0  0  0  0  0  0  0  0  0  0  0
    0.9770   19.9786   46.1594 H   0  0  0  0  0  0  0  0  0  0  0  0
    2.9777   20.4918   44.9952 H   0  0  0  0  0  0  0  0  0  0  0  0
    4.1070   20.0770   43.6779 H   0  0  0  0  0  0  0  0  0  0  0  0
  1  2  2  0
  1  6  1  0
  2  3  1  0
  3  4  2  0
  4  5  1  0
  5  6  2  0
  6  7  1  0
  7  8  2  0
  7  9  1  0
  8 16  1  0
  9 10  2  0
 10 11  1  0
 10 15  1  0
 11 12  1  0
 11 13  1  0
 13 14  2  0
 14 15  1  0
 15 16  2  0
 16 17  1  0
  1 18  1  0
  2 19  1  0
  3 20  1  0
  5 21  1  0
 12 22  1  0
 12 23  1  0
 12 24  1  0
 14 25  1  0
 17 26  1  0
 17 27  1  0
M  END
>  <mol_id>  (31) 
2026-09-17-6fnk-s0-n100-0031

>  <rmsd_to_ref>  (31) 
1.8316326530668439

>  <pose_kind>  (31) 
rigid

$$$$
6fnk.A
     RDKit          3D

 27 29  0  0  0  0  0  0  0  0999 V2000
    2.4983   15.8300   40.4579 C   0  0  0  0  0  0  0  0  0  0  0  0
    2.5881   14.5950   39.8470 C   0  0  0  0  0  0  0  0  0  0  0  0
    1.6543   13.6342   40.2493 C   0  0  0  0  0  0  0  0  0  0  0  0
    0.7349   13.8974   41.1664 N   0  0  0  0  0  0  0  0  0  0  0  0
    0.6710   15.0985   41.7400 C   0  0  0  0  0  0  0  0  0  0  0  0
    1.5403   16.1113   41.4167 C   0  0  0  0  0  0  0  0  0  0  0  0
    1.4998   17.4366   42.0232 C   0  0  0  0  0  0  0  0  0  0  0  0
    2.3788   18.3967   41.6686 N   0  0  0  0  0  0  0  0  0  0  0  0
    0.5678   17.7132   42.9573 N   0  0  0  0  0  0  0  0  0  0  0  0
    0.4991   18.9421   43.5471 C   0  0  0  0  0  0  0  0  0  0  0  0
   -0.3031   19.4850   44.4823 N   0  0  0  0  0  0  0  0  0  0  0  0
   -1.4139   18.8116   45.1632 C   0  0  0  0  0  0  0  0  0  0  0  0
    0.0838   20.7346   44.6827 N   0  0  0  0  0  0  0  0  0  0  0  0
    1.1232   21.0441   43.9073 C   0  0  0  0  0  0  0  0  0  0  0  0
    1.4061   19.9123   43.1722 C   0  0  0  0  0  0  0  0  0  0  0  0
    2.3629   19.6296   42.2139 C   0  0  0  0  0  0  0  0  0  0  0  0
    3.3204   20.6075   41.7983 N   0  0  0  0  0  0  0  0  0  0  0  0
    3.2076   16.6027   40.1707 H   0  0  0  0  0  0  0  0  0  0  0  0
    3.3412   14.3804   39.0962 H   0  0  0  0  0  0  0  0  0  0  0  0
    1.7464   12.6675   39.7522 H   0  0  0  0  0  0  0  0  0  0  0  0
   -0.0905   15.2658   42.4778 H   0  0  0  0  0  0  0  0  0  0  0  0
   -1.5435   19.3248   46.1365 H   0  0  0  0  0  0  0  0  0  0  0  0
   -2.3722   18.9948   44.6181 H   0  0  0  0  0  0  0  0  0  0  0  0
   -1.2196   17.7390   45.2470 H   0  0  0  0  0  0  0  0  0  0  0  0
    1.6848   21.9668   43.8142 H   0  0  0  0  0  0  0  0  0  0  0  0
    4.3455   20.3338   41.7628 H   0  0  0  0  0  0  0  0  0  0  0  0
    2.9997   21.5687   41.5379 H   0  0  0  0  0  0  0  0  0  0  0  0
  1  2  2  0
  1  6  1  0
  2  3  1  0
  3  4  2  0
  4  5  1  0
  5  6  2  0
  6  7  1  0
  7  8  2  0
  7  9  1  0
  8 16  1  0
  9 10  2  0
 10 11  1  0
 10 15  1  0
 11 12  1  0
 11 13  1  0
 13 14  2  0
 14 15  1  0
 15 16  2  0
 16 17  1  0
  1 18  1  0
  2 19  1  0
  3 20  1  0
  5 21  1  0
 12 22  1  0
 12 23  1  0
 12 24  1  0
 14 25  1  0
 17 26  1  0
 17 27  1  0
M  END
>  <mol_id>  (32) 
2026-09-17-6fnk-s0-n100-0032

>  <rmsd_to_ref>  (32) 
1.8775510204085604

>  <pose_kind>  (32) 
conformer

$$$$
6fnk.A
     RDKit          3D

 27 29  0  0  0  0  0  0  0  0999 V2000
    0.4264   14.8175   40.7616 C   0  0  0  0  0  0  0  0  0  0  0  0
    0.2675   13.4434   40.5803 C   0  0  0  0  0  0  0  0  0  0  0  0
    0.4015   12.5822   41.6595 C   0  0  0  0  0  0  0  0  0  0  0  0
    0.6917   13.0926   42.9279 N   0  0  0  0  0  0  0  0  0  0  0  0
    0.8523   14.4749   43.1069 C   0  0  0  0  0  0  0  0  0  0  0  0
    0.7200   15.3409   42.0230 C   0  0  0  0  0  0  0  0  0  0  0  0
    0.8830   16.7182   42.2041 C   0  0  0  0  0  0  0  0  0  0  0  0
    0.9350   17.5511   41.1555 N   0  0  0  0  0  0  0  0  0  0  0  0
    0.9828   17.2195   43.4393 N   0  0  0  0  0  0  0  0  0  0  0  0
    1.1490   18.5369   43.6530 C   0  0  0  0  0  0  0  0  0  0  0  0
    1.2871   19.2558   44.7775 N   0  0  0  0  0  0  0  0  0  0  0  0
    1.2816   18.7258   46.1442 C   0  0  0  0  0  0  0  0  0  0  0  0
    1.4135   20.4521   44.5134 N   0  0  0  0  0  0  0  0  0  0  0  0
    1.3306   20.5803   43.1789 C   0  0  0  0  0  0  0  0  0  0  0  0
    1.1893   19.3714   42.6190 C   0  0  0  0  0  0  0  0  0  0  0  0
    1.0799   18.8740   41.3565 C   0  0  0  0  0  0  0  0  0  0  0  0
    1.1204   19.6954   40.2794 N   0  0  0  0  0  0  0  0  0  0  0  0
    0.3193   15.4958   39.9023 H   0  0  0  0  0  0  0  0  0  0  0  0
    0.0363   13.0432   39.5822 H   0  0  0  0  0  0  0  0  0  0  0  0
    0.2794   11.4983   41.5171 H   0  0  0  0  0  0  0  0  0  0  0  0
    1.0834   14.8759   44.1048 H   0  0  0  0  0  0  0  0  0  0  0  0
    2.1717   19.0860   46.6807 H   0  0  0  0  0  0  0  0  0  0  0  0
    0.3756   19.0675   46.6663 H   0  0  0  0  0  0  0  0  0  0  0  0
    1.2932   17.6264   46.1113 H   0  0  0  0  0  0  0  0  0  0  0  0
    1.3724   21.5325   42.6297 H   0  0  0  0  0  0  0  0  0  0  0  0
    1.2306   20.7111   40.4101 H   0  0  0  0  0  0  0  0  0  0  0  0
    1.0408   19.3040   39.3299 H   0  0  0  0  0  0  0  0  0  0  0  0
  1  2  2  0
  1  6  1  0
  2  3  1  0
  3  4  2  0
  4  5  1  0
  5  6  2  0
  6  7  1  0
  7  8  2  0
  7  9  1  0
  8 16  1  0
  9 10  2  0
 10 11  1  0
 10 15  1  0
 11 12  1  0
 11 13  1  0
 13 14  2  0
 14 15  1  0
 15 16  2  0
 16 17  1  0
  1 18  1  0
  2 19  1  0
  3 20  1  0
  5 21  1  0
 12 22  1  0
 12 23  1  0
 12 24  1  0
 14 25  1  0
 17 26  1  0
 17 27  1  0
M  END
>  <mol_id>  (33) 
2026-09-17-6fnk-s0-n100-0033

>  <rmsd_to_ref>  (33) 
1.9234693877607454

>  <pose_kind>  (33) 
rigid

$$$$
6fnk.A
     RDKit          3D

 27 29  0  0  0  0  0  0  0  0999 V2000
    4.1559   16.3176   41.6342 C   0  0  0  0  0  0  0  0  0  0  0  0
    5.1163   15.3387   41.7954 C   0  0  0  0  0  0  0  0  0  0  0  0
    4.8786   14.3958   42.8010 C   0  0  0  0  0  0  0  0  0  0  0  0
    3.7908   14.4415   43.5560 N   0  0  0  0  0  0  0  0  0  0  0  0
    2.8798   15.3977   43.3786 C   0  0  0  0  0  0  0  0  0  0  0  0
    3.0174   16.3711   42.4196 C   0  0  0  0  0  0  0  0  0  0  0  0
    2.0416   17.4316   42.1976 C   0  0  0  0  0  0  0  0  0  0  0  0
    2.2261   18.3642   41.2402 N   0  0  0  0  0  0  0  0  0  0  0  0
    0.9319   17.4859   42.9611 N   0  0  0  0  0  0  0  0  0  0  0  0
   -0.0035   18.4637   42.7826 C   0  0  0  0  0  0  0  0  0  0  0  0
   -1.1738   18.7560   43.3804 N   0  0  0  0  0  0  0  0  0  0  0  0
   -1.7882   18.0126   44.4854 C   0  0  0  0  0  0  0  0  0  0  0  0
   -1.6768   19.8328   42.7985 N   0  0  0  0  0  0  0  0  0  0  0  0
   -0.8755   20.2702   41.8268 C   0  0  0  0  0  0  0  0  0  0  0  0
    0.2014   19.4095   41.7986 C   0  0  0  0  0  0  0  0  0  0  0  0
    1.3397   19.3547   41.0146 C   0  0  0  0  0  0  0  0  0  0  0  0
    1.5886   20.3159   39.9849 N   0  0  0  0  0  0  0  0  0  0  0  0
    4.3063   17.0685   40.8619 H   0  0  0  0  0  0  0  0  0  0  0  0
    6.0069   15.3021   41.1767 H   0  0  0  0  0  0  0  0  0  0  0  0
    5.6518   13.6335   42.9080 H   0  0  0  0  0  0  0  0  0  0  0  0
    2.0145   15.3949   44.0138 H   0  0  0  0  0  0  0  0  0  0  0  0
   -2.4386   18.7299   45.0237 H   0  0  0  0  0  0  0  0  0  0  0  0
   -2.4900   17.2378   44.0898 H   0  0  0  0  0  0  0  0  0  0  0  0
   -1.0203   17.5503   45.1113 H   0  0  0  0  0  0  0  0  0  0  0  0
   -0.9763   21.1153   41.1551 H   0  0  0  0  0  0  0  0  0  0  0  0
    2.5413   20.7822   39.9427 H   0  0  0  0  0  0  0  0  0  0  0  0
    0.8354   20.5430   39.2952 H   0  0  0  0  0  0  0  0  0  0  0  0
  1  2  2  0
  1  6  1  0
  2  3  1  0
  3  4  2  0
  4  5  1  0
  5  6  2  0
  6  7  1  0
  7  8  2  0
  7  9  1  0
  8 16  1  0
  9 10  2  0
 10 11  1  0
 10 15  1  0
 11 12  1  0
 11 13  1  0
 13 14  2  0
 14 15  1  0
 15 16  2  0
 16 17  1  0
  1 18  1  0
  2 19  1  0
  3 20  1  0
  5 21  1  0
 12 22  1  0
 12 23  1  0
 12 24  1  0
 14 25  1  0
 17 26  1  0
 17 27  1  0
M  END
>  <mol_id>  (34) 
2026-09-17-6fnk-s0-n100-0034

>  <rmsd_to_ref>  (34) 
1.9693877551062735

>  <pose_kind>  (34) 
conformer

$$$$
6fnk.A
     RDKit          3D

 27 29  0  0  0  0  0  0  0  0999 V2000
    3.6413   17.1381   41.6962 C   0  0  0  0  0  0  0  0  0  0  0  0
    4.7667   16.3565   41.9576 C   0  0  0  0  0  0  0  0  0  0  0  0
    5.1444   16.1021   43.2680 C   0  0  0  0  0  0  0  0  0  0  0  0
    4.3945   16.6262   44.3247 N   0  0  0  0  0  0  0  0  0  0  0  0
    3.2638   17.4133   44.0585 C   0  0  0  0  0  0  0  0  0  0  0  0
    2.8847   17.6710   42.7425 C   0  0  0  0  0  0  0  0  0  0  0  0
    1.7584   18.4580   42.4804 C   0  0  0  0  0  0  0  0  0  0  0  0
    1.4749   18.8647   41.2353 N   0  0  0  0  0  0  0  0  0  0  0  0
    0.9442   18.8084   43.4810 N   0  0  0  0  0  0  0  0  0  0  0  0
   -0.1431   19.5712   43.2694 C   0  0  0  0  0  0  0  0  0  0  0  0
   -1.0793   20.0536   44.1006 N   0  0  0  0  0  0  0  0  0  0  0  0
   -1.1394   19.8361   45.5491 C   0  0  0  0  0  0  0  0  0  0  0  0
   -1.9122   20.7135   43.4778 N   0  0  0  0  0  0  0  0  0  0  0  0
   -1.5725   20.6673   42.1791 C   0  0  0  0  0  0  0  0  0  0  0  0
   -0.4384   19.9685   42.0356 C   0  0  0  0  0  0  0  0  0  0  0  0
    0.3782   19.6107   41.0069 C   0  0  0  0  0  0  0  0  0  0  0  0
    0.1094   20.0011   39.7373 N   0  0  0  0  0  0  0  0  0  0  0  0
    3.3466   17.3368   40.6552 H   0  0  0  0  0  0  0  0  0  0  0  0
    5.3545   15.9421   41.1253 H   0  0  0  0  0  0  0  0  0  0  0  0
    6.0334   15.4884   43.4753 H   0  0  0  0  0  0  0  0  0  0  0  0
    2.6755   17.8278   44.8905 H   0  0  0  0  0  0  0  0  0  0  0  0
   -1.2376   20.8046   46.0615 H   0  0  0  0  0  0  0  0  0  0  0  0
   -2.0073   19.2044   45.7893 H   0  0  0  0  0  0  0  0  0  0  0  0
   -0.2183   19.3362   45.8833 H   0  0  0  0  0  0  0  0  0  0  0  0
   -2.1388   21.1322   41.3587 H   0  0  0  0  0  0  0  0  0  0  0  0
   -0.7245   20.5725   39.5400 H   0  0  0  0  0  0  0  0  0  0  0  0
    0.7390   19.7264   38.9698 H   0  0  0  0  0  0  0  0  0  0  0  0
  1  2  2  0
  1  6  1  0
  2  3  1  0
  3  4  2  0
  4  5  1  0
  5  6  2  0
  6  7  1  0
  7  8  2  0
  7  9  1  0
  8 16  1  0
  9 10  2  0
 10 11  1  0
 10 15  1  0
 11 12  1  0
 11 13  1  0
 13 14  2  0
 14 15  1  0
 15 16  2  0
 16 17  1  0
  1 18  1  0
  2 19  1  0
  3 20  1  0
  5 21  1  0
 12 22  1  0
 12 23  1  0
 12 24  1  0
 14 25  1  0
 17 26  1  0
 17 27  1  0
M  END
>  <mol_id>  (35) 
2026-09-17-6fnk-s0-n100-0035

>  <rmsd_to_ref>  (35) 
2.015306122451059

>  <pose_kind>  (35) 
rigid

$$$$
6fnk.A
     RDKit          3D

 27 29  0  0  0  0  0  0  0  0999 V2000
    3.6502   17.6016   40.2465 C   0  0  0  0  0  0  0  0  0  0  0  0
    4.6807   17.0622   39.5024 C   0  0  0  0  0  0  0  0  0  0  0  0
    4.8823   15.6836   39.6293 C   0  0  0  0  0  0  0  0  0  0  0  0
    4.1245   14.9386   40.4206 N   0  0  0  0  0  0  0  0  0  0  0  0
    3.1363   15.4857   41.1277 C   0  0  0  0  0  0  0  0  0  0  0  0
    2.8549   16.8288   41.0750 C   0  0  0  0  0  0  0  0  0  0  0  0
    1.7825   17.4611   41.8341 C   0  0  0  0  0  0  0  0  0  0  0  0
    1.5487   18.7869   41.7454 N   0  0  0  0  0  0  0  0  0  0  0  0
    1.0065   16.7108   42.6417 N   0  0  0  0  0  0  0  0  0  0  0  0
   -0.0066   17.2673   43.3676 C   0  0  0  0  0  0  0  0  0  0  0  0
   -0.9156   16.7758   44.2307 N   0  0  0  0  0  0  0  0  0  0  0  0
   -1.0472   15.3737   44.6404 C   0  0  0  0  0  0  0  0  0  0  0  0
   -1.6726   17.7780   44.6476 N   0  0  0  0  0  0  0  0  0  0  0  0
   -1.2959   18.9276   44.0875 C   0  0  0  0  0  0  0  0  0  0  0  0
   -0.2316   18.6250   43.2647 C   0  0  0  0  0  0  0  0  0  0  0  0
    0.5641   19.3959   42.4363 C   0  0  0  0  0  0  0  0  0  0  0  0
    0.3632   20.8057   42.3022 N   0  0  0  0  0  0  0  0  0  0  0  0
    3.4632   18.6705   40.1737 H   0  0  0  0  0  0  0  0  0  0  0  0
    5.3008   17.6730   38.8547 H   0  0  0  0  0  0  0  0  0  0  0  0
    5.7019   15.2823   39.0316 H   0  0  0  0  0  0  0  0  0  0  0  0
    2.5486   14.8430   41.7552 H   0  0  0  0  0  0  0  0  0  0  0  0
   -1.5243   15.3818   45.6402 H   0  0  0  0  0  0  0  0  0  0  0  0
   -1.7792   14.8437   43.9829 H   0  0  0  0  0  0  0  0  0  0  0  0
   -0.0757   14.8729   44.6140 H   0  0  0  0  0  0  0  0  0  0  0  0
   -1.6900   19.9312   44.2015 H   0  0  0  0  0  0  0  0  0  0  0  0
    1.2019   21.4503   42.3895 H   0  0  0  0  0  0  0  0  0  0  0  0
   -0.5982   21.1772   42.1219 H   0  0  0  0  0  0  0  0  0  0  0  0
  1  2  2  0
  1  6  1  0
  2  3  1  0
  3  4  2  0
  4  5  1  0
  5  6  2  0
  6  7  1  0
  7  8  2  0
  7  9  1  0
  8 16  1  0
  9 10  2  0
 10 11  1  0
 10 15  1  0
 11 12  1  0
 11 13  1  0
 13 14  2  0
 14 15  1  0
 15 16  2  0
 16 17  1  0
  1 18  1  0
  2 19  1  0
  3 20  1  0
  5 21  1  0
 12 22  1  0
 12 23  1  0
 12 24  1  0
 14 25  1  0
 17 26  1  0
 17 27  1  0
M  END
>  <mol_id>  (36) 
2026-09-17-6fnk-s0-n100-0036

>  <rmsd_to_ref>  (36) 
2.0612244898022376

>  <pose_kind>  (36) 
conformer

$$$$
6fnk.A
     RDKit          3D

 27 29  0  0  0  0  0  0  0  0999 V2000
    1.2893   18.4643   39.1998 C   0  0  0  0  0  0  0  0  0  0  0  0
    1.1980   17.9042   37.9255 C   0  0  0  0  0  0  0  0  0  0  0  0
    0.4145   16.7784   37.7180 C   0  0  0  0  0  0  0  0  0  0  0  0
   -0.2854   16.2089   38.7853 N   0  0  0  0  0  0  0  0  0  0  0  0
   -0.1904   16.7735   40.0663 C   0  0  0  0  0  0  0  0  0  0  0  0
    0.5979   17.9035   40.2763 C   0  0  0  0  0  0  0  0  0  0  0  0
    0.6925   18.4627   41.5547 C   0  0  0  0  0  0  0  0  0  0  0  0
    1.5750   19.4360   41.8191 N   0  0  0  0  0  0  0  0  0  0  0  0
   -0.1108   18.0294   42.5315 N   0  0  0  0  0  0  0  0  0  0  0  0
   -0.0433   18.5365   43.7753 C   0  0  0  0  0  0  0  0  0  0  0  0
   -0.7202   18.2561   44.8993 N   0  0  0  0  0  0  0  0  0  0  0  0
   -1.7807   17.2536   45.0383 C   0  0  0  0  0  0  0  0  0  0  0  0
   -0.3365   18.9719   45.8253 N   0  0  0  0  0  0  0  0  0  0  0  0
    0.6061   19.7934   45.3348 C   0  0  0  0  0  0  0  0  0  0  0  0
    0.8207   19.5107   44.0429 C   0  0  0  0  0  0  0  0  0  0  0  0
    1.6381   19.9667   43.0543 C   0  0  0  0  0  0  0  0  0  0  0  0
    2.5330   20.9561   43.2927 N   0  0  0  0  0  0  0  0  0  0  0  0
    1.9122   19.3569   39.3586 H   0  0  0  0  0  0  0  0  0  0  0  0
    1.7469   18.3551   37.0855 H   0  0  0  0  0  0  0  0  0  0  0  0
    0.3442   16.3341   36.7142 H   0  0  0  0  0  0  0  0  0  0  0  0
   -0.7392   16.3235   40.9067 H   0  0  0  0  0  0  0  0  0  0  0  0
   -1.5518   16.5932   45.8878 H   0  0  0  0  0  0  0  0  0  0  0  0
   -2.7418   17.7586   45.2150 H   0  0  0  0  0  0  0  0  0  0  0  0
   -1.8441   16.6566   44.1165 H   0  0  0  0  0  0  0  0  0  0  0  0
    1.1228   20.5783   45.9064 H   0  0  0  0  0  0  0  0  0  0  0  0
    2.5981   21.3765   44.2308 H   0  0  0  0  0  0  0  0  0  0  0  0
    3.1480   21.2877   42.5359 H   0  0  0  0  0  0  0  0  0  0  0  0
  1  2  2  0
  1  6  1  0
  2  3  1  0
  3  4  2  0
  4  5  1  0
  5  6  2  0
  6  7  1  0
  7  8  2  0
  7  9  1  0
  8 16  1  0
  9 10  2  0
 10 11  1  0
 10 15  1  0
 11 12  1  0
 11 13  1  0
 13 14  2  0
 14 15  1  0
 15 16  2  0
 16 17  1  0
  1 18  1  0
  2 19  1  0
  3 20  1  0
  5 21  1  0
 12 22  1  0
 12 23  1  0
 12 24  1  0
 14 25  1  0
 17 26  1  0
 17 27  1  0
M  END
>  <mol_id>  (37) 
2026-09-17-6fnk-s0-n100-0037

>  <rmsd_to_ref>  (37) 
2.1071428571486197

>  <pose_kind>  (37) 
rigid

$$$$
6fnk.A
     RDKit          3D

 27 29  0  0  0  0  0  0  0  0999 V2000
    2.4557   17.3202   38.9974 C   0  0  0  0  0  0  0  0  0  0  0  0
    2.6024   16.8300   37.7150 C   0  0  0  0  0  0  0  0  0  0  0  0
    1.6799   15.8584   37.3126 C   0  0  0  0  0  0  0  0  0  0  0  0
    0.7189   15.4334   38.1198 N   0  0  0  0  0  0  0  0  0  0  0  0
    0.6005   15.9239   39.3531 C   0  0  0  0  0  0  0  0  0  0  0  0
    1.4540   16.8805   39.8455 C   0  0  0  0  0  0  0  0  0  0  0  0
    1.3543   17.4394   41.1886 C   0  0  0  0  0  0  0  0  0  0  0  0
    2.2202   18.3784   41.6229 N   0  0  0  0  0  0  0  0  0  0  0  0
    0.3795   17.0129   42.0167 N   0  0  0  0  0  0  0  0  0  0  0  0
    0.2549   17.5127   43.2806 C   0  0  0  0  0  0  0  0  0  0  0  0
   -0.5973   17.2797   44.2965 N   0  0  0  0  0  0  0  0  0  0  0  0
   -1.7152   16.3304   44.2851 C   0  0  0  0  0  0  0  0  0  0  0  0
   -0.2524   18.0566   45.3108 N   0  0  0  0  0  0  0  0  0  0  0  0
    0.8077   18.8040   45.0024 C   0  0  0  0  0  0  0  0  0  0  0  0
    1.1494   18.4728   43.7082 C   0  0  0  0  0  0  0  0  0  0  0  0
    2.1499   18.9111   42.8594 C   0  0  0  0  0  0  0  0  0  0  0  0
    3.0961   19.9042   43.2648 N   0  0  0  0  0  0  0  0  0  0  0  0
    3.1546   18.0771   39.3458 H   0  0  0  0  0  0  0  0  0  0  0  0
    3.3897   17.1785   37.0548 H   0  0  0  0  0  0  0  0  0  0  0  0
    1.8173   15.4876   36.2959 H   0  0  0  0  0  0  0  0  0  0  0  0
   -0.1933   15.5498   39.9713 H   0  0  0  0  0  0  0  0  0  0  0  0
   -1.8962   16.0452   45.3403 H   0  0  0  0  0  0  0  0  0  0  0  0
   -2.6561   16.8418   43.9659 H   0  0  0  0  0  0  0  0  0  0  0  0
   -1.4954   15.4859   43.6264 H   0  0  0  0  0  0  0  0  0  0  0  0
    1.3473   19.5399   45.5878 H   0  0  0  0  0  0  0  0  0  0  0  0
    4.1288   19.7210   43.1007 H   0  0  0  0  0  0  0  0  0  0  0  0
    2.7600   20.7880   43.7126 H   0  0  0  0  0  0  0  0  0  0  0  0
  1  2  2  0
  1  6  1  0
  2  3  1  0
  3  4  2  0
  4  5  1  0
  5  6  2  0
  6  7  1  0
  7  8  2  0
  7  9  1  0
  8 16  1  0
  9 10  2  0
 10 11  1  0
 10 15  1  0
 11 12  1  0
 11 13  1  0
 13 14  2  0
 14 15  1  0
 15 16  2  0
 16 17  1  0
  1 18  1  0
  2 19  1  0
  3 20  1  0
  5 21  1  0
 12 22  1  0
 12 23  1  0
 12 24  1  0
 14 25  1  0
 17 26  1  0
 17 27  1  0
M  END
>  <mol_id>  (38) 
2026-09-17-6fnk-s0-n100-0038

>  <rmsd_to_ref>  (38) 
2.153061224494499

>  <pose_kind>  (38) 
conformer

$$$$
6fnk.A
     RDKit          3D

 27 29  0  0  0  0  0  0  0  0999 V2000
    0.5049   16.7269   38.3557 C   0  0  0  0  0  0  0  0  0  0  0  0
    0.1816   15.7846   37.3792 C   0  0  0  0  0  0  0  0  0  0  0  0
   -0.0350   14.4620   37.7375 C   0  0  0  0  0  0  0  0  0  0  0  0
    0.0671   14.0761   39.0768 N   0  0  0  0  0  0  0  0  0  0  0  0
    0.3940   15.0258   40.0567 C   0  0  0  0  0  0  0  0  0  0  0  0
    0.6137   16.3544   39.6977 C   0  0  0  0  0  0  0  0  0  0  0  0
    0.9417   17.2984   40.6762 C   0  0  0  0  0  0  0  0  0  0  0  0
    1.3279   18.5365   40.3392 N   0  0  0  0  0  0  0  0  0  0  0  0
    0.8649   16.9698   41.9697 N   0  0  0  0  0  0  0  0  0  0  0  0
    1.1804   17.8474   42.9388 C   0  0  0  0  0  0  0  0  0  0  0  0
    1.1955   17.7438   44.2765 N   0  0  0  0  0  0  0  0  0  0  0  0
    0.8356   16.5530   45.0519 C   0  0  0  0  0  0  0  0  0  0  0  0
    1.5505   18.8062   44.7887 N   0  0  0  0  0  0  0  0  0  0  0  0
    1.7581   19.6832   43.7927 C   0  0  0  0  0  0  0  0  0  0  0  0
    1.5526   19.0814   42.6135 C   0  0  0  0  0  0  0  0  0  0  0  0
    1.6262   19.4308   41.2998 C   0  0  0  0  0  0  0  0  0  0  0  0
    2.0052   20.6789   40.9322 N   0  0  0  0  0  0  0  0  0  0  0  0
    0.6759   17.7741   38.0659 H   0  0  0  0  0  0  0  0  0  0  0  0
    0.0986   16.0901   36.3258 H   0  0  0  0  0  0  0  0  0  0  0  0
   -0.2871   13.7176   36.9680 H   0  0  0  0  0  0  0  0  0  0  0  0
    0.4769   14.7211   41.1104 H   0  0  0  0  0  0  0  0  0  0  0  0
    1.6434   16.3193   45.7612 H   0  0  0  0  0  0  0  0  0  0  0  0
   -0.0951   16.7438   45.6063 H   0  0  0  0  0  0  0  0  0  0  0  0
    0.6886   15.7022   44.3704 H   0  0  0  0  0  0  0  0  0  0  0  0
    2.0518   20.7349   43.9251 H   0  0  0  0  0  0  0  0  0  0  0  0
    2.2379   21.3791   41.6509 H   0  0  0  0  0  0  0  0  0  0  0  0
    2.0607   20.9274   39.9342 H   0  0  0  0  0  0  0  0  0  0  0  0
  1  2  2  0
  1  6  1  0
  2  3  1  0
  3  4  2  0
  4  5  1  0
  5  6  2  0
  6  7  1  0
  7  8  2  0
  7  9  1  0
  8 16  1  0
  9 10  2  0
 10 11  1  0
 10 15  1  0
 11 12  1  0
 11 13  1  0
 13 14  2  0
 14 15  1  0
 15 16  2  0
 16 17  1  0
  1 18  1  0
  2 19  1  0
  3 20  1  0
  5 21  1  0
 12 22  1  0
 12 23  1  0
 12 24  1  0
 14 25  1  0
 17 26  1  0
 17 27  1  0
M  END
>  <mol_id>  (39) 
2026-09-17-6fnk-s0-n100-0039

>  <rmsd_to_ref>  (39) 
2.198979591841587

>  <pose_kind>  (39) 
rigid

$$$$
6fnk.A
     RDKit          3D

 27 29  0  0  0  0  0  0  0  0999 V2000
    3.5481   16.5849   42.2492 C   0  0  0  0  0  0  0  0  0  0  0  0
    4.3902   15.6250   42.7746 C   0  0  0  0  0  0  0  0  0  0  0  0
    4.0484   15.1218   44.0343 C   0  0  0  0  0  0  0  0  0  0  0  0
    2.9748   15.5447   44.6856 N   0  0  0  0  0  0  0  0  0  0  0  0
    2.1791   16.4725   44.1547 C   0  0  0  0  0  0  0  0  0  0  0  0
    2.4251   17.0309   42.9245 C   0  0  0  0  0  0  0  0  0  0  0  0
    1.5770   18.0475   42.3133 C   0  0  0  0  0  0  0  0  0  0  0  0
    1.8649   18.5635   41.1003 N   0  0  0  0  0  0  0  0  0  0  0  0
    0.4826   18.4836   42.9688 N   0  0  0  0  0  0  0  0  0  0  0  0
   -0.3348   19.4338   42.4285 C   0  0  0  0  0  0  0  0  0  0  0  0
   -1.4624   20.0407   42.8442 N   0  0  0  0  0  0  0  0  0  0  0  0
   -2.1553   19.7987   44.1140 C   0  0  0  0  0  0  0  0  0  0  0  0
   -1.8400   20.8960   41.9076 N   0  0  0  0  0  0  0  0  0  0  0  0
   -0.9961   20.8789   40.8756 C   0  0  0  0  0  0  0  0  0  0  0  0
   -0.0252   19.9507   41.1869 C   0  0  0  0  0  0  0  0  0  0  0  0
    1.0975   19.5039   40.5134 C   0  0  0  0  0  0  0  0  0  0  0  0
    1.4524   20.0143   39.2253 N   0  0  0  0  0  0  0  0  0  0  0  0
    3.7817   16.9997   41.2714 H   0  0  0  0  0  0  0  0  0  0  0  0
    5.2691   15.2794   42.2406 H   0  0  0  0  0  0  0  0  0  0  0  0
    4.7292   14.3652   44.4270 H   0  0  0  0  0  0  0  0  0  0  0  0
    1.3207   16.7843   44.7188 H   0  0  0  0  0  0  0  0  0  0  0  0
   -2.7178   20.7244   44.3467 H   0  0  0  0  0  0  0  0  0  0  0  0
   -2.9423   19.0158   43.9843 H   0  0  0  0  0  0  0  0  0  0  0  0
   -1.4439   19.5023   44.8894 H   0  0  0  0  0  0  0  0  0  0  0  0
   -1.0009   21.4436   39.9500 H   0  0  0  0  0  0  0  0  0  0  0  0
    2.4522   20.3306   39.0605 H   0  0  0  0  0  0  0  0  0  0  0  0
    0.7286   20.0680   38.4717 H   0  0  0  0  0  0  0  0  0  0  0  0
  1  2  2  0
  1  6  1  0
  2  3  1  0
  3  4  2  0
  4  5  1  0
  5  6  2  0
  6  7  1  0
  7  8  2  0
  7  9  1  0
  8 16  1  0
  9 10  2  0
 10 11  1  0
 10 15  1  0
 11 12  1  0
 11 13  1  0
 13 14  2  0
 14 15  1  0
 15 16  2  0
 16 17  1  0
  1 18  1  0
  2 19  1  0
  3 20  1  0
  5 21  1  0
 12 22  1  0
 12 23  1  0
 12 24  1  0
 14 25  1  0
 17 26  1  0
 17 27  1  0
M  END
>  <mol_id>  (40) 
2026-09-17-6fnk-s0-n100-0040

>  <rmsd_to_ref>  (40) 
2.2448979591882416

>  <pose_kind>  (40) 
conformer

$$$$
6fnk.A
     RDKit          3D

 27 29  0  0  0  0  0  0  0  0999 V2000
    2.6690   17.9466   38.9083 C   0  0  0  0  0  0  0  0  0  0  0  0
    2.8015   17.3990   37.6322 C   0  0  0  0  0  0  0  0  0  0  0  0
    2.2964   16.1351   37.3647 C   0  0  0  0  0  0  0  0  0  0  0  0
    1.6518   15.4134   38.3732 N   0  0  0  0  0  0  0  0  0  0  0  0
    1.5214   15.9661   39.6564 C   0  0  0  0  0  0  0  0  0  0  0  0
    2.0302   17.2350   39.9266 C   0  0  0  0  0  0  0  0  0  0  0  0
    1.9008   17.7824   41.2072 C   0  0  0  0  0  0  0  0  0  0  0  0
    2.5305   18.9176   41.5397 N   0  0  0  0  0  0  0  0  0  0  0  0
    1.1337   17.1730   42.1168 N   0  0  0  0  0  0  0  0  0  0  0  0
    0.9918   17.6642   43.3607 C   0  0  0  0  0  0  0  0  0  0  0  0
    0.3032   17.2290   44.4268 N   0  0  0  0  0  0  0  0  0  0  0  0
   -0.5257   16.0211   44.4819 C   0  0  0  0  0  0  0  0  0  0  0  0
    0.4497   17.9962   45.3792 N   0  0  0  0  0  0  0  0  0  0  0  0
    1.2306   19.0074   44.9645 C   0  0  0  0  0  0  0  0  0  0  0  0
    1.6030   18.7965   43.6950 C   0  0  0  0  0  0  0  0  0  0  0  0
    2.3799   19.4311   42.7747 C   0  0  0  0  0  0  0  0  0  0  0  0
    3.0204   20.5851   43.0824 N   0  0  0  0  0  0  0  0  0  0  0  0
    3.0717   18.9492   39.1149 H   0  0  0  0  0  0  0  0  0  0  0  0
    3.3064   17.9691   36.8383 H   0  0  0  0  0  0  0  0  0  0  0  0
    2.4029   15.7011   36.3596 H   0  0  0  0  0  0  0  0  0  0  0  0
    1.0165   15.3966   40.4506 H   0  0  0  0  0  0  0  0  0  0  0  0
   -0.2292   15.4123   45.3488 H   0  0  0  0  0  0  0  0  0  0  0  0
   -1.5835   16.3066   44.5789 H   0  0  0  0  0  0  0  0  0  0  0  0
   -0.3862   15.4382   43.5596 H   0  0  0  0  0  0  0  0  0  0  0  0
    1.5202   19.8760   45.5742 H   0  0  0  0  0  0  0  0  0  0  0  0
    2.9191   20.9957   44.0215 H   0  0  0  0  0  0  0  0  0  0  0  0
    3.6084   21.0516   42.3770 H   0  0  0  0  0  0  0  0  0  0  0  0
  1  2  2  0
  1  6  1  0
  2  3  1  0
  3  4  2  0
  4  5  1  0
  5  6  2  0
  6  7  1  0
  7  8  2  0
  7  9  1  0
  8 16  1  0
  9 10  2  0
 10 11  1  0
 10 15  1  0
 11 12  1  0
 11 13  1  0
 13 14  2  0
 14 15  1  0
 15 16  2  0
 16 17  1  0
  1 18  1  0
  2 19  1  0
  3 20  1  0
  5 21  1  0
 12 22  1  0
 12 23  1  0
 12 24  1  0
 14 25  1  0
 17 26  1  0
 17 27  1  0
M  END
>  <mol_id>  (41) 
2026-09-17-6fnk-s0-n100-0041

>  <rmsd_to_ref>  (41) 
2.2908163265327772

>  <pose_kind>  (41) 
rigid

$$$$
6fnk.A
     RDKit          3D

 27 29  0  0  0  0  0  0  0  0999 V2000
    0.1910   15.8327   40.2514 C   0  0  0  0  0  0  0  0  0  0  0  0
   -0.2976   14.5874   39.9093 C   0  0  0  0  0  0  0  0  0  0  0  0
   -0.0754   13.5589   40.8313 C   0  0  0  0  0  0  0  0  0  0  0  0
    0.5688   13.7706   41.9695 N   0  0  0  0  0  0  0  0  0  0  0  0
    1.0299   14.9833   42.2743 C   0  0  0  0  0  0  0  0  0  0  0  0
    0.8648   16.0606   41.4390 C   0  0  0  0  0  0  0  0  0  0  0  0
    1.3556   17.4003   41.7398 C   0  0  0  0  0  0  0  0  0  0  0  0
    1.1662   18.4248   40.8827 N   0  0  0  0  0  0  0  0  0  0  0  0
    2.0121   17.6249   42.8957 N   0  0  0  0  0  0  0  0  0  0  0  0
    2.4860   18.8652   43.2116 C   0  0  0  0  0  0  0  0  0  0  0  0
    3.1583   19.3672   44.2646 N   0  0  0  0  0  0  0  0  0  0  0  0
    3.5878   18.6192   45.4507 C   0  0  0  0  0  0  0  0  0  0  0  0
    3.3661   20.6556   44.0452 N   0  0  0  0  0  0  0  0  0  0  0  0
    2.8513   21.0309   42.8740 C   0  0  0  0  0  0  0  0  0  0  0  0
    2.2832   19.9016   42.3232 C   0  0  0  0  0  0  0  0  0  0  0  0
    1.6096   19.6723   41.1368 C   0  0  0  0  0  0  0  0  0  0  0  0
    1.3794   20.7196   40.1902 N   0  0  0  0  0  0  0  0  0  0  0  0
    0.0374   16.6574   39.5592 H   0  0  0  0  0  0  0  0  0  0  0  0
   -0.8249   14.4149   38.9771 H   0  0  0  0  0  0  0  0  0  0  0  0
   -0.4710   12.5855   40.5376 H   0  0  0  0  0  0  0  0  0  0  0  0
    1.5456   15.1074   43.2075 H   0  0  0  0  0  0  0  0  0  0  0  0
    4.4641   19.1581   45.8621 H   0  0  0  0  0  0  0  0  0  0  0  0
    2.8133   18.6859   46.2538 H   0  0  0  0  0  0  0  0  0  0  0  0
    3.7862   17.5749   45.1954 H   0  0  0  0  0  0  0  0  0  0  0  0
    2.8392   21.9988   42.3856 H   0  0  0  0  0  0  0  0  0  0  0  0
    1.6145   20.5448   39.1699 H   0  0  0  0  0  0  0  0  0  0  0  0
    0.9863   21.6335   40.5141 H   0  0  0  0  0  0  0  0  0  0  0  0
  1  2  2  0
  1  6  1  0
  2  3  1  0
  3  4  2  0
  4  5  1  0
  5  6  2  0
  6  7  1  0
  7  8  2  0
  7  9  1  0
  8 16  1  0
  9 10  2  0
 10 11  1  0
 10 15  1  0
 11 12  1  0
 11 13  1  0
 13 14  2  0
 14 15  1  0
 15 16  2  0
 16 17  1  0
  1 18  1  0
  2 19  1  0
  3 20  1  0
  5 21  1  0
 12 22  1  0
 12 23  1  0
 12 24  1  0
 14 25  1  0
 17 26  1  0
 17 27  1  0
M  END
>  <mol_id>  (42) 
2026-09-17-6fnk-s0-n100-0042

>  <rmsd_to_ref>  (42) 
2.336734693882066

>  <pose_kind>  (42) 
conformer

$$$$
6fnk.A
     RDKit          3D

 27 29  0  0  0  0  0  0  0  0999 V2000
    3.4721   16.2435   40.8878 C   0  0  0  0  0  0  0  0  0  0  0  0
    4.6626   15.5166   40.9014 C   0  0  0  0  0  0  0  0  0  0  0  0
    4.9920   14.7475   42.0079 C   0  0  0  0  0  0  0  0  0  0  0  0
    4.1290   14.6990   43.1061 N   0  0  0  0  0  0  0  0  0  0  0  0
    2.9330   15.4326   43.0902 C   0  0  0  0  0  0  0  0  0  0  0  0
    2.6019   16.2071   41.9798 C   0  0  0  0  0  0  0  0  0  0  0  0
    1.4102   16.9391   41.9678 C   0  0  0  0  0  0  0  0  0  0  0  0
    1.1530   17.8237   40.9945 N   0  0  0  0  0  0  0  0  0  0  0  0
    0.5061   16.7543   42.9351 N   0  0  0  0  0  0  0  0  0  0  0  0
   -0.6472   17.4457   42.9621 C   0  0  0  0  0  0  0  0  0  0  0  0
   -1.6776   17.4435   43.8214 N   0  0  0  0  0  0  0  0  0  0  0  0
   -1.7943   16.6132   45.0238 C   0  0  0  0  0  0  0  0  0  0  0  0
   -2.5437   18.2415   43.4604 N   0  0  0  0  0  0  0  0  0  0  0  0
   -2.1280   18.7918   42.3077 C   0  0  0  0  0  0  0  0  0  0  0  0
   -0.9156   18.3161   41.9937 C   0  0  0  0  0  0  0  0  0  0  0  0
   -0.0067   18.5067   40.9983 C   0  0  0  0  0  0  0  0  0  0  0  0
   -0.2461   19.3885   39.9976 N   0  0  0  0  0  0  0  0  0  0  0  0
    3.2160   16.8520   40.0078 H   0  0  0  0  0  0  0  0  0  0  0  0
    5.3397   15.5530   40.0352 H   0  0  0  0  0  0  0  0  0  0  0  0
    5.9319   14.1761   42.0210 H   0  0  0  0  0  0  0  0  0  0  0  0
    2.2554   15.3964   43.9559 H   0  0  0  0  0  0  0  0  0  0  0  0
   -2.0308   17.2510   45.8883 H   0  0  0  0  0  0  0  0  0  0  0  0
   -2.5969   15.8744   44.8829 H   0  0  0  0  0  0  0  0  0  0  0  0
   -0.8426   16.0913   45.2028 H   0  0  0  0  0  0  0  0  0  0  0  0
   -2.6963   19.5218   41.7125 H   0  0  0  0  0  0  0  0  0  0  0  0
   -1.1271   19.9218   39.9808 H   0  0  0  0  0  0  0  0  0  0  0  0
    0.4530   19.5254   39.2536 H   0  0  0  0  0  0  0  0  0  0  0  0
  1  2  2  0
  1  6  1  0
  2  3  1  0
  3  4  2  0
  4  5  1  0
  5  6  2  0
  6  7  1  0
  7  8  2  0
  7  9  1  0
  8 16  1  0
  9 10  2  0
 10 11  1  0
 10 15  1  0
 11 12  1  0
 11 13  1  0
 13 14  2  0
 14 15  1  0
 15 16  2  0
 16 17  1  0
  1 18  1  0
  2 19  1  0
  3 20  1  0
  5 21  1  0
 12 22  1  0
 12 23  1  0
 12 24  1  0
 14 25  1  0
 17 26  1  0
 17 27  1  0
M  END
>  <mol_id>  (43) 
2026-09-17-6fnk-s0-n100-0043

>  <rmsd_to_ref>  (43) 
2.3826530612262182

>  <pose_kind>  (43) 
rigid

$$$$
6fnk.A
     RDKit          3D

 27 29  0  0  0  0  0  0  0  0999 V2000
    3.6067   17.2769   40.4096 C   0  0  0  0  0  0  0  0  0  0  0  0
    4.9159   16.8470   40.3207 C   0  0  0  0  0  0  0  0  0  0  0  0
    5.4402   16.2160   41.4537 C   0  0  0  0  0  0  0  0  0  0  0  0
    4.7182   16.0415   42.5509 N   0  0  0  0  0  0  0  0  0  0  0  0
    3.4566   16.4665   42.6093 C   0  0  0  0  0  0  0  0  0  0  0  0
    2.8471   17.0977   41.5528 C   0  0  0  0  0  0  0  0  0  0  0  0
    1.4698   17.5755   41.5813 C   0  0  0  0  0  0  0  0  0  0  0  0
    0.9191   18.1901   40.5139 N   0  0  0  0  0  0  0  0  0  0  0  0
    0.7277   17.4023   42.6934 N   0  0  0  0  0  0  0  0  0  0  0  0
   -0.5648   17.8361   42.7572 C   0  0  0  0  0  0  0  0  0  0  0  0
   -1.5156   17.7996   43.7098 N   0  0  0  0  0  0  0  0  0  0  0  0
   -1.3727   17.2225   45.0505 C   0  0  0  0  0  0  0  0  0  0  0  0
   -2.6050   18.3757   43.2276 N   0  0  0  0  0  0  0  0  0  0  0  0
   -2.4103   18.7973   41.9779 C   0  0  0  0  0  0  0  0  0  0  0  0
   -1.1119   18.4627   41.6560 C   0  0  0  0  0  0  0  0  0  0  0  0
   -0.3515   18.6410   40.5143 C   0  0  0  0  0  0  0  0  0  0  0  0
   -0.8817   19.2854   39.3527 N   0  0  0  0  0  0  0  0  0  0  0  0
    3.1645   17.7721   39.5482 H   0  0  0  0  0  0  0  0  0  0  0  0
    5.5063   16.9904   39.4218 H   0  0  0  0  0  0  0  0  0  0  0  0
    6.4756   15.8860   41.3580 H   0  0  0  0  0  0  0  0  0  0  0  0
    2.9103   16.3033   43.5188 H   0  0  0  0  0  0  0  0  0  0  0  0
   -2.1041   17.7457   45.6976 H   0  0  0  0  0  0  0  0  0  0  0  0
   -1.7069   16.1560   45.0522 H   0  0  0  0  0  0  0  0  0  0  0  0
   -0.3377   17.3003   45.3940 H   0  0  0  0  0  0  0  0  0  0  0  0
   -3.0791   19.3043   41.2913 H   0  0  0  0  0  0  0  0  0  0  0  0
   -0.3145   20.0568   38.8944 H   0  0  0  0  0  0  0  0  0  0  0  0
   -1.8117   18.9899   38.9753 H   0  0  0  0  0  0  0  0  0  0  0  0
  1  2  2  0
  1  6  1  0
  2  3  1  0
  3  4  2  0
  4  5  1  0
  5  6  2  0
  6  7  1  0
  7  8  2  0
  7  9  1  0
  8 16  1  0
  9 10  2  0
 10 11  1  0
 10 15  1  0
 11 12  1  0
 11 13  1  0
 13 14  2  0
 14 15  1  0
 15 16  2  0
 16 17  1  0
  1 18  1  0
  2 19  1  0
  3 20  1  0
  5 21  1  0
 12 22  1  0
 12 23  1  0
 12 24  1  0
 14 25  1  0
 17 26  1  0
 17 27  1  0
M  END
>  <mol_id>  (44) 
2026-09-17-6fnk-s0-n100-0044

>  <rmsd_to_ref>  (44) 
2.4285714285751583

>  <pose_kind>  (44) 
conformer

$$$$
6fnk.A
     RDKit          3D

 27 29  0  0  0  0  0  0  0  0999 V2000
    1.1816   15.0401   39.9333 C   0  0  0  0  0  0  0  0  0  0  0  0
    1.5433   13.7451   39.5621 C   0  0  0  0  0  0  0  0  0  0  0  0
    2.4432   13.0281   40.3370 C   0  0  0  0  0  0  0  0  0  0  0  0
    2.9833   13.6028   41.4908 N   0  0  0  0  0  0  0  0  0  0  0  0
    2.6187   14.9063   41.8608 C   0  0  0  0  0  0  0  0  0  0  0  0
    1.7163   15.6282   41.0821 C   0  0  0  0  0  0  0  0  0  0  0  0
    1.3566   16.9281   41.4522 C   0  0  0  0  0  0  0  0  0  0  0  0
    0.6327   17.7038   40.6335 N   0  0  0  0  0  0  0  0  0  0  0  0
    1.7315   17.4089   42.6419 N   0  0  0  0  0  0  0  0  0  0  0  0
    1.4122   18.6567   43.0291 C   0  0  0  0  0  0  0  0  0  0  0  0
    1.6842   19.3497   44.1454 N   0  0  0  0  0  0  0  0  0  0  0  0
    2.4503   18.8622   45.2963 C   0  0  0  0  0  0  0  0  0  0  0  0
    1.1889   20.4759   44.0870 N   0  0  0  0  0  0  0  0  0  0  0  0
    0.5288   20.5648   42.9205 C   0  0  0  0  0  0  0  0  0  0  0  0
    0.6838   19.4283   42.2283 C   0  0  0  0  0  0  0  0  0  0  0  0
    0.2885   18.9469   41.0178 C   0  0  0  0  0  0  0  0  0  0  0  0
   -0.4517   19.7073   40.1750 N   0  0  0  0  0  0  0  0  0  0  0  0
    0.4678   15.6042   39.3150 H   0  0  0  0  0  0  0  0  0  0  0  0
    1.1152   13.2926   38.6554 H   0  0  0  0  0  0  0  0  0  0  0  0
    2.7314   12.0079   40.0436 H   0  0  0  0  0  0  0  0  0  0  0  0
    3.0463   15.3592   42.7675 H   0  0  0  0  0  0  0  0  0  0  0  0
    3.2464   19.5817   45.5381 H   0  0  0  0  0  0  0  0  0  0  0  0
    1.7807   18.7515   46.1621 H   0  0  0  0  0  0  0  0  0  0  0  0
    2.8983   17.8877   45.0524 H   0  0  0  0  0  0  0  0  0  0  0  0
   -0.0505   21.4376   42.5848 H   0  0  0  0  0  0  0  0  0  0  0  0
   -0.7263   20.6615   40.4489 H   0  0  0  0  0  0  0  0  0  0  0  0
   -0.7397   19.3311   39.2604 H   0  0  0  0  0  0  0  0  0  0  0  0
  1  2  2  0
  1  6  1  0
  2  3  1  0
  3  4  2  0
  4  5  1  0
  5  6  2  0
  6  7  1  0
  7  8  2  0
  7  9  1  0
  8 16  1  0
  9 10  2  0
 10 11  1  0
 10 15  1  0
 11 12  1  0
 11 13  1  0
 13 14  2  0
 14 15  1  0
 15 16  2  0
 16 17  1  0
  1 18  1  0
  2 19  1  0
  3 20  1  0
  5 21  1  0
 12 22  1  0
 12 23  1  0
 12 24  1  0
 14 25  1  0
 17 26  1  0
 17 27  1  0
M  END
>  <mol_id>  (45) 
2026-09-17-6fnk-s0-n100-0045

>  <rmsd_to_ref>  (45) 
2.4744897959202152

>  <pose_kind>  (45) 
rigid

$$$$
6fnk.A
     RDKit          3D

 27 29  0  0  0  0  0  0  0  0999 V2000
    3.1110   15.2946   41.3312 C   0  0  0  0  0  0  0  0  0  0  0  0
    2.6735   14.0630   40.8856 C   0  0  0  0  0  0  0  0  0  0  0  0
    1.3055   13.8039   41.0214 C   0  0  0  0  0  0  0  0  0  0  0  0
    0.4770   14.6932   41.5489 N   0  0  0  0  0  0  0  0  0  0  0  0
    0.9266   15.8746   41.9710 C   0  0  0  0  0  0  0  0  0  0  0  0
    2.2507   16.2279   41.8832 C   0  0  0  0  0  0  0  0  0  0  0  0
    2.7773   17.5105   42.3345 C   0  0  0  0  0  0  0  0  0  0  0  0
    4.0891   17.8071   42.2249 N   0  0  0  0  0  0  0  0  0  0  0  0
    1.9417   18.4213   42.8726 N   0  0  0  0  0  0  0  0  0  0  0  0
    2.3981   19.6324   43.3061 C   0  0  0  0  0  0  0  0  0  0  0  0
    1.8095   20.7047   43.8685 N   0  0  0  0  0  0  0  0  0  0  0  0
    0.3835   20.8410   44.1830 C   0  0  0  0  0  0  0  0  0  0  0  0
    2.7413   21.6181   44.0897 N   0  0  0  0  0  0  0  0  0  0  0  0
    3.9382   21.1871   43.6909 C   0  0  0  0  0  0  0  0  0  0  0  0
    3.7428   19.9189   43.1862 C   0  0  0  0  0  0  0  0  0  0  0  0
    4.6013   18.9850   42.6343 C   0  0  0  0  0  0  0  0  0  0  0  0
    6.0009   19.2437   42.4928 N   0  0  0  0  0  0  0  0  0  0  0  0
    4.1686   15.5319   41.2420 H   0  0  0  0  0  0  0  0  0  0  0  0
    3.3527   13.3354   40.4537 H   0  0  0  0  0  0  0  0  0  0  0  0
    0.9855   12.8249   40.6621 H   0  0  0  0  0  0  0  0  0  0  0  0
    0.2186   16.5633   42.3915 H   0  0  0  0  0  0  0  0  0  0  0  0
    0.3128   21.5733   45.0113 H   0  0  0  0  0  0  0  0  0  0  0  0
   -0.1576   21.3240   43.3327 H   0  0  0  0  0  0  0  0  0  0  0  0
   -0.0545   19.8657   44.4113 H   0  0  0  0  0  0  0  0  0  0  0  0
    4.9088   21.6695   43.7218 H   0  0  0  0  0  0  0  0  0  0  0  0
    6.6910   18.5104   42.8283 H   0  0  0  0  0  0  0  0  0  0  0  0
    6.3208   20.1433   42.0647 H   0  0  0  0  0  0  0  0  0  0  0  0
  1  2  2  0
  1  6  1  0
  2  3  1  0
  3  4  2  0
  4  5  1  0
  5  6  2  0
  6  7  1  0
  7  8  2  0
  7  9  1  0
  8 16  1  0
  9 10  2  0
 10 11  1  0
 10 15  1  0
 11 12  1  0
 11 13  1  0
 13 14  2  0
 14 15  1  0
 15 16  2  0
 16 17  1  0
  1 18  1  0
  2 19  1  0
  3 20  1  0
  5 21  1  0
 12 22  1  0
 12 23  1  0
 12 24  1  0
 14 25  1  0
 17 26  1  0
 17 27  1  0
M  END
>  <mol_id>  (46) 
2026-09-17-6fnk-s0-n100-0046

>  <rmsd_to_ref>  (46) 
2.520408163270152

>  <pose_kind>  (46) 
conformer

$$$$
6fnk.A
     RDKit          3D

 27 29  0  0  0  0  0  0  0  0999 V2000
    2.4953   13.9826   40.9522 C   0  0  0  0  0  0  0  0  0  0  0  0
    2.0644   12.6872   40.6656 C   0  0  0  0  0  0  0  0  0  0  0  0
    0.8786   12.2155   41.2094 C   0  0  0  0  0  0  0  0  0  0  0  0
    0.1152   13.0398   42.0405 N   0  0  0  0  0  0  0  0  0  0  0  0
    0.5520   14.3418   42.3283 C   0  0  0  0  0  0  0  0  0  0  0  0
    1.7441   14.8163   41.7842 C   0  0  0  0  0  0  0  0  0  0  0  0
    2.1781   16.1137   42.0747 C   0  0  0  0  0  0  0  0  0  0  0  0
    3.3983   16.5315   41.7105 N   0  0  0  0  0  0  0  0  0  0  0  0
    1.3666   16.9579   42.7196 N   0  0  0  0  0  0  0  0  0  0  0  0
    1.7517   18.2100   43.0241 C   0  0  0  0  0  0  0  0  0  0  0  0
    1.1308   19.2112   43.6663 N   0  0  0  0  0  0  0  0  0  0  0  0
   -0.2243   19.1673   44.2236 C   0  0  0  0  0  0  0  0  0  0  0  0
    1.8570   20.2045   43.7237 N   0  0  0  0  0  0  0  0  0  0  0  0
    2.9982   19.9060   43.0813 C   0  0  0  0  0  0  0  0  0  0  0  0
    2.9557   18.6364   42.6556 C   0  0  0  0  0  0  0  0  0  0  0  0
    3.7880   17.7889   41.9904 C   0  0  0  0  0  0  0  0  0  0  0  0
    5.0234   18.1890   41.6029 N   0  0  0  0  0  0  0  0  0  0  0  0
    3.4366   14.3516   40.5185 H   0  0  0  0  0  0  0  0  0  0  0  0
    2.6645   12.0403   40.0088 H   0  0  0  0  0  0  0  0  0  0  0  0
    0.5393   11.1930   40.9864 H   0  0  0  0  0  0  0  0  0  0  0  0
   -0.0477   14.9895   42.9848 H   0  0  0  0  0  0  0  0  0  0  0  0
   -0.1995   19.4929   45.2741 H   0  0  0  0  0  0  0  0  0  0  0  0
   -0.8796   19.8372   43.6476 H   0  0  0  0  0  0  0  0  0  0  0  0
   -0.6107   18.1390   44.1676 H   0  0  0  0  0  0  0  0  0  0  0  0
    3.8393   20.5982   42.9282 H   0  0  0  0  0  0  0  0  0  0  0  0
    5.3421   19.1470   41.8069 H   0  0  0  0  0  0  0  0  0  0  0  0
    5.6437   17.5352   41.1044 H   0  0  0  0  0  0  0  0  0  0  0  0
  1  2  2  0
  1  6  1  0
  2  3  1  0
  3  4  2  0
  4  5  1  0
  5  6  2  0
  6  7  1  0
  7  8  2  0
  7  9  1  0
  8 16  1  0
  9 10  2  0
 10 11  1  0
 10 15  1  0
 11 12  1  0
 11 13  1  0
 13 14  2  0
 14 15  1  0
 15 16  2  0
 16 17  1  0
  1 18  1  0
  2 19  1  0
  3 20  1  0
  5 21  1  0
 12 22  1  0
 12 23  1  0
 12 24  1  0
 14 25  1  0
 17 26  1  0
 17 27  1  0
M  END
>  <mol_id>  (47) 
2026-09-17-6fnk-s0-n100-0047

>  <rmsd_to_ref>  (47) 
2.566326530616575

>  <pose_kind>  (47) 
rigid

$$$$
6fnk.A
     RDKit          3D

 27 29  0  0  0  0  0  0  0  0999 V2000
   -0.4331   14.8586   42.0770 C   0  0  0  0  0  0  0  0  0  0  0  0
   -0.9135   13.5960   42.3627 C   0  0  0  0  0  0  0  0  0  0  0  0
   -1.1160   13.3003   43.7150 C   0  0  0  0  0  0  0  0  0  0  0  0
   -0.8601   14.1850   44.6675 N   0  0  0  0  0  0  0  0  0  0  0  0
   -0.3969   15.3969   44.3632 C   0  0  0  0  0  0  0  0  0  0  0  0
   -0.1638   15.7874   43.0674 C   0  0  0  0  0  0  0  0  0  0  0  0
    0.3422   17.1040   42.6979 C   0  0  0  0  0  0  0  0  0  0  0  0
    0.5539   17.4366   41.4074 N   0  0  0  0  0  0  0  0  0  0  0  0
    0.6054   18.0104   43.6605 N   0  0  0  0  0  0  0  0  0  0  0  0
    1.0799   19.2527   43.3529 C   0  0  0  0  0  0  0  0  0  0  0  0
    1.4211   20.3292   44.0860 N   0  0  0  0  0  0  0  0  0  0  0  0
    1.3571   20.4342   45.5475 C   0  0  0  0  0  0  0  0  0  0  0  0
    1.8257   21.2800   43.2591 N   0  0  0  0  0  0  0  0  0  0  0  0
    1.7649   20.8700   41.9919 C   0  0  0  0  0  0  0  0  0  0  0  0
    1.2905   19.5759   42.0279 C   0  0  0  0  0  0  0  0  0  0  0  0
    1.0208   18.6465   41.0393 C   0  0  0  0  0  0  0  0  0  0  0  0
    1.2257   18.9426   39.6550 N   0  0  0  0  0  0  0  0  0  0  0  0
   -0.2631   15.1249   41.0364 H   0  0  0  0  0  0  0  0  0  0  0  0
   -1.1228   12.8722   41.5820 H   0  0  0  0  0  0  0  0  0  0  0  0
   -1.4958   12.2971   43.9139 H   0  0  0  0  0  0  0  0  0  0  0  0
   -0.2040   16.0804   45.1681 H   0  0  0  0  0  0  0  0  0  0  0  0
    2.1032   21.1987   45.8408 H   0  0  0  0  0  0  0  0  0  0  0  0
    0.3747   20.8631   45.8637 H   0  0  0  0  0  0  0  0  0  0  0  0
    1.5150   19.4563   46.0101 H   0  0  0  0  0  0  0  0  0  0  0  0
    2.0166   21.3834   41.0707 H   0  0  0  0  0  0  0  0  0  0  0  0
    1.7610   18.2463   39.0589 H   0  0  0  0  0  0  0  0  0  0  0  0
    0.8486   19.8325   39.2542 H   0  0  0  0  0  0  0  0  0  0  0  0
  1  2  2  0
  1  6  1  0
  2  3  1  0
  3  4  2  0
  4  5  1  0
  5  6  2  0
  6  7  1  0
  7  8  2  0
  7  9  1  0
  8 16  1  0
  9 10  2  0
 10 11  1  0
 10 15  1  0
 11 12  1  0
 11 13  1  0
 13 14  2  0
 14 15  1  0
 15 16  2  0
 16 17  1  0
  1 18  1  0
  2 19  1  0
  3 20  1  0
  5 21  1  0
 12 22  1  0
 12 23  1  0
 12 24  1  0
 14 25  1  0
 17 26  1  0
 17 27  1  0
M  END
>  <mol_id>  (48) 
2026-09-17-6fnk-s0-n100-0048

>  <rmsd_to_ref>  (48) 
2.612244897963881

>  <pose_kind>  (48) 
conformer

$$$$
6fnk.A
     RDKit          3D

 27 29  0  0  0  0  0  0  0  0999 V2000
    2.2804   14.1142   41.8569 C   0  0  0  0  0  0  0  0  0  0  0  0
    2.7023   12.8303   42.2027 C   0  0  0  0  0  0  0  0  0  0  0  0
    3.0629   12.5489   43.5123 C   0  0  0  0  0  0  0  0  0  0  0  0
    2.9993   13.5510   44.4845 N   0  0  0  0  0  0  0  0  0  0  0  0
    2.5760   14.8418   44.1333 C   0  0  0  0  0  0  0  0  0  0  0  0
    2.2154   15.1263   42.8175 C   0  0  0  0  0  0  0  0  0  0  0  0
    1.7961   16.4146   42.4701 C   0  0  0  0  0  0  0  0  0  0  0  0
    1.6134   16.7589   41.1879 N   0  0  0  0  0  0  0  0  0  0  0  0
    1.5659   17.3198   43.4264 N   0  0  0  0  0  0  0  0  0  0  0  0
    1.1702   18.5708   43.1309 C   0  0  0  0  0  0  0  0  0  0  0  0
    0.8988   19.6345   43.9023 N   0  0  0  0  0  0  0  0  0  0  0  0
    0.9716   19.6779   45.3658 C   0  0  0  0  0  0  0  0  0  0  0  0
    0.5618   20.5961   43.2104 N   0  0  0  0  0  0  0  0  0  0  0  0
    0.5657   20.1909   41.9297 C   0  0  0  0  0  0  0  0  0  0  0  0
    0.9746   18.9169   41.8624 C   0  0  0  0  0  0  0  0  0  0  0  0
    1.1972   18.0011   40.8799 C   0  0  0  0  0  0  0  0  0  0  0  0
    1.0114   18.3209   39.5762 N   0  0  0  0  0  0  0  0  0  0  0  0
    1.9960   14.3320   40.8169 H   0  0  0  0  0  0  0  0  0  0  0  0
    2.7492   12.0416   41.4374 H   0  0  0  0  0  0  0  0  0  0  0  0
    3.3986   11.5376   43.7855 H   0  0  0  0  0  0  0  0  0  0  0  0
    2.5287   15.6309   44.8983 H   0  0  0  0  0  0  0  0  0  0  0  0
    1.5866   20.5351   45.6771 H   0  0  0  0  0  0  0  0  0  0  0  0
   -0.0417   19.7838   45.7804 H   0  0  0  0  0  0  0  0  0  0  0  0
    1.4246   18.7471   45.7381 H   0  0  0  0  0  0  0  0  0  0  0  0
    0.2771   20.8105   41.0678 H   0  0  0  0  0  0  0  0  0  0  0  0
    0.6933   19.2658   39.3179 H   0  0  0  0  0  0  0  0  0  0  0  0
    1.1882   17.6189   38.8435 H   0  0  0  0  0  0  0  0  0  0  0  0
  1  2  2  0
  1  6  1  0
  2  3  1  0
  3  4  2  0
  4  5  1  0
  5  6  2  0
  6  7  1  0
  7  8  2  0
  7  9  1  0
  8 16  1  0
  9 10  2  0
 10 11  1  0
 10 15  1  0
 11 12  1  0
 11 13  1  0
 13 14  2  0
 14 15  1  0
 15 16  2  0
 16 17  1  0
  1 18  1  0
  2 19  1  0
  3 20  1  0
  5 21  1  0
 12 22  1  0
 12 23  1  0
 12 24  1  0
 14 25  1  0
 17 26  1  0
 17 27  1  0
M  END
>  <mol_id>  (49) 
2026-09-17-6fnk-s0-n100-0049

>  <rmsd_to_ref>  (49) 
2.6581632653100766

>  <pose_kind>  (49) 
rigid

$$$$
6fnk.A
     RDKit          3D

 27 29  0  0  0  0  0  0  0  0999 V2000
    1.9038   17.2389   38.6517 C   0  0  0  0  0  0  0  0  0  0  0  0
    1.4225   16.4163   37.6525 C   0  0  0  0  0  0  0  0  0  0  0  0
    0.6003   15.3606   38.0601 C   0  0  0  0  0  0  0  0  0  0  0  0
    0.3011   15.1627   39.3356 N   0  0  0  0  0  0  0  0  0  0  0  0
    0.7797   15.9725   40.2796 C   0  0  0  0  0  0  0  0  0  0  0  0
    1.5950   17.0377   39.9860 C   0  0  0  0  0  0  0  0  0  0  0  0
    2.1364   17.9436   40.9922 C   0  0  0  0  0  0  0  0  0  0  0  0
    2.9339   18.9763   40.6488 N   0  0  0  0  0  0  0  0  0  0  0  0
    1.8372   17.7500   42.2924 N   0  0  0  0  0  0  0  0  0  0  0  0
    2.3253   18.5770   43.2623 C   0  0  0  0  0  0  0  0  0  0  0  0
    2.1965   18.6226   44.6016 N   0  0  0  0  0  0  0  0  0  0  0  0
    1.4166   17.6935   45.4260 C   0  0  0  0  0  0  0  0  0  0  0  0
    2.8965   19.6527   45.0487 N   0  0  0  0  0  0  0  0  0  0  0  0
    3.4910   20.2989   44.0454 C   0  0  0  0  0  0  0  0  0  0  0  0
    3.1396   19.6283   42.8930 C   0  0  0  0  0  0  0  0  0  0  0  0
    3.4473   19.8280   41.5592 C   0  0  0  0  0  0  0  0  0  0  0  0
    4.2873   20.9055   41.1360 N   0  0  0  0  0  0  0  0  0  0  0  0
    2.5465   18.0708   38.3731 H   0  0  0  0  0  0  0  0  0  0  0  0
    1.6681   16.5790   36.6083 H   0  0  0  0  0  0  0  0  0  0  0  0
    0.2334   14.7257   37.2523 H   0  0  0  0  0  0  0  0  0  0  0  0
    0.5104   15.7734   41.2995 H   0  0  0  0  0  0  0  0  0  0  0  0
    1.8745   17.7078   46.4347 H   0  0  0  0  0  0  0  0  0  0  0  0
    0.3817   18.0859   45.5807 H   0  0  0  0  0  0  0  0  0  0  0  0
    1.3858   16.7030   44.9642 H   0  0  0  0  0  0  0  0  0  0  0  0
    4.1311   21.1740   44.0499 H   0  0  0  0  0  0  0  0  0  0  0  0
    5.0875   20.6966   40.4706 H   0  0  0  0  0  0  0  0  0  0  0  0
    4.1026   21.8744   41.4851 H   0  0  0  0  0  0  0  0  0  0  0  0
  1  2  2  0
  1  6  1  0
  2  3  1  0
  3  4  2  0
  4  5  1  0
  5  6  2  0
  6  7  1  0
  7  8  2  0
  7  9  1  0
  8 16  1  0
  9 10  2  0
 10 11  1  0
 10 15  1  0
 11 12  1  0
 11 13  1  0
 13 14  2  0
 14 15  1  0
 15 16  2  0
 16 17  1  0
  1 18  1  0
  2 19  1  0
  3 20  1  0
  5 21  1  0
 12 22  1  0
 12 23  1  0
 12 24  1  0
 14 25  1  0
 17 26  1  0
 17 27  1  0
M  END
>  <mol_id>  (50) 
2026-09-17-6fnk-s0-n100-0050

>  <rmsd_to_ref>  (50) 
2.704081632653864

>  <pose_kind>  (50) 
conformer

$$$$
6fnk.A
     RDKit          3D

 27 29  0  0  0  0  0  0  0  0999 V2000
    3.5126   15.5032   42.7412 C   0  0  0  0  0  0  0  0  0  0  0  0
    4.4930   14.7044   43.3300 C   0  0  0  0  0  0  0  0  0  0  0  0
    4.6736   14.7302   44.7052 C   0  0  0  0  0  0  0  0  0  0  0  0
    3.8707   15.5535   45.4994 N   0  0  0  0  0  0  0  0  0  0  0  0
    2.8864   16.3570   44.9041 C   0  0  0  0  0  0  0  0  0  0  0  0
    2.7052   16.3334   43.5225 C   0  0  0  0  0  0  0  0  0  0  0  0
    1.7248   17.1372   42.9317 C   0  0  0  0  0  0  0  0  0  0  0  0
    1.6475   17.2656   41.6000 N   0  0  0  0  0  0  0  0  0  0  0  0
    0.8439   17.7853   43.7005 N   0  0  0  0  0  0  0  0  0  0  0  0
   -0.1073   18.5740   43.1695 C   0  0  0  0  0  0  0  0  0  0  0  0
   -1.0714   19.3215   43.7280 N   0  0  0  0  0  0  0  0  0  0  0  0
   -1.3341   19.4553   45.1640 C   0  0  0  0  0  0  0  0  0  0  0  0
   -1.7346   19.8910   42.8603 N   0  0  0  0  0  0  0  0  0  0  0  0
   -1.2472   19.5112   41.6676 C   0  0  0  0  0  0  0  0  0  0  0  0
   -0.1988   18.6971   41.8490 C   0  0  0  0  0  0  0  0  0  0  0  0
    0.6872   18.0351   41.0551 C   0  0  0  0  0  0  0  0  0  0  0  0
    0.6253   18.1406   39.7055 N   0  0  0  0  0  0  0  0  0  0  0  0
    3.3738   15.4791   41.6502 H   0  0  0  0  0  0  0  0  0  0  0  0
    5.1223   14.0546   42.7043 H   0  0  0  0  0  0  0  0  0  0  0  0
    5.4484   14.1029   45.1703 H   0  0  0  0  0  0  0  0  0  0  0  0
    2.2564   17.0069   45.5292 H   0  0  0  0  0  0  0  0  0  0  0  0
   -1.3742   20.5216   45.4315 H   0  0  0  0  0  0  0  0  0  0  0  0
   -2.2959   18.9800   45.4067 H   0  0  0  0  0  0  0  0  0  0  0  0
   -0.5293   18.9650   45.7312 H   0  0  0  0  0  0  0  0  0  0  0  0
   -1.6477   19.8213   40.6912 H   0  0  0  0  0  0  0  0  0  0  0  0
   -0.1017   18.7241   39.2673 H   0  0  0  0  0  0  0  0  0  0  0  0
    1.3052   17.6373   39.1178 H   0  0  0  0  0  0  0  0  0  0  0  0
  1  2  2  0
  1  6  1  0
  2  3  1  0
  3  4  2  0
  4  5  1  0
  5  6  2  0
  6  7  1  0
  7  8  2  0
  7  9  1  0
  8 16  1  0
  9 10  2  0
 10 11  1  0
 10 15  1  0
 11 12  1  0
 11 13  1  0
 13 14  2  0
 14 15  1  0
 15 16  2  0
 16 17  1  0
  1 18  1  0
  2 19  1  0
  3 20  1  0
  5 21  1  0
 12 22  1  0
 12 23  1  0
 12 24  1  0
 14 25  1  0
 17 26  1  0
 17 27  1  0
M  END
>  <mol_id>  (51) 
2026-09-17-6fnk-s0-n100-0051

>  <rmsd_to_ref>  (51) 
2.7500000000020033

>  <pose_kind>  (51) 
rigid

$$$$
6fnk.A
     RDKit          3D

 27 29  0  0  0  0  0  0  0  0999 V2000
    1.0936   14.6826   40.1882 C   0  0  0  0  0  0  0  0  0  0  0  0
    1.6196   13.4068   40.1405 C   0  0  0  0  0  0  0  0  0  0  0  0
    2.5270   13.0714   41.1509 C   0  0  0  0  0  0  0  0  0  0  0  0
    2.8617   13.9325   42.1008 N   0  0  0  0  0  0  0  0  0  0  0  0
    2.3384   15.1578   42.1226 C   0  0  0  0  0  0  0  0  0  0  0  0
    1.4391   15.5868   41.1776 C   0  0  0  0  0  0  0  0  0  0  0  0
    0.8468   16.9193   41.1706 C   0  0  0  0  0  0  0  0  0  0  0  0
   -0.0330   17.2898   40.2172 N   0  0  0  0  0  0  0  0  0  0  0  0
    1.1816   17.8019   42.1330 N   0  0  0  0  0  0  0  0  0  0  0  0
    0.6480   19.0578   42.1590 C   0  0  0  0  0  0  0  0  0  0  0  0
    0.7952   20.1177   42.9760 N   0  0  0  0  0  0  0  0  0  0  0  0
    1.6576   20.1814   44.1606 C   0  0  0  0  0  0  0  0  0  0  0  0
    0.0259   21.0958   42.5258 N   0  0  0  0  0  0  0  0  0  0  0  0
   -0.6330   20.7203   41.4292 C   0  0  0  0  0  0  0  0  0  0  0  0
   -0.2505   19.4200   41.1760 C   0  0  0  0  0  0  0  0  0  0  0  0
   -0.5947   18.5151   40.1879 C   0  0  0  0  0  0  0  0  0  0  0  0
   -1.5217   18.8519   39.1520 N   0  0  0  0  0  0  0  0  0  0  0  0
    0.3845   14.9796   39.4189 H   0  0  0  0  0  0  0  0  0  0  0  0
    1.3450   12.7024   39.3623 H   0  0  0  0  0  0  0  0  0  0  0  0
    2.9279   12.0586   41.0908 H   0  0  0  0  0  0  0  0  0  0  0  0
    2.6390   15.8212   42.9112 H   0  0  0  0  0  0  0  0  0  0  0  0
    1.9066   21.2504   44.3112 H   0  0  0  0  0  0  0  0  0  0  0  0
    1.0834   19.8942   45.0753 H   0  0  0  0  0  0  0  0  0  0  0  0
    2.5295   19.5337   44.0363 H   0  0  0  0  0  0  0  0  0  0  0  0
   -1.3381   21.2621   40.8087 H   0  0  0  0  0  0  0  0  0  0  0  0
   -1.2580   18.6444   38.1450 H   0  0  0  0  0  0  0  0  0  0  0  0
   -2.4374   19.2936   39.3995 H   0  0  0  0  0  0  0  0  0  0  0  0
  1  2  2  0
  1  6  1  0
  2  3  1  0
  3  4  2  0
  4  5  1  0
  5  6  2  0
  6  7  1  0
  7  8  2  0
  7  9  1  0
  8 16  1  0
  9 10  2  0
 10 11  1  0
 10 15  1  0
 11 12  1  0
 11 13  1  0
 13 14  2  0
 14 15  1  0
 15 16  2  0
 16 17  1  0
  1 18  1  0
  2 19  1  0
  3 20  1  0
  5 21  1  0
 12 22  1  0
 12 23  1  0
 12 24  1  0
 14 25  1  0
 17 26  1  0
 17 27  1  0
M  END
>  <mol_id>  (52) 
2026-09-17-6fnk-s0-n100-0052

>  <rmsd_to_ref>  (52) 
2.795918367350887

>  <pose_kind>  (52) 
conformer

$$$$
6fnk.A
     RDKit          3D

 27 29  0  0  0  0  0  0  0  0999 V2000
    0.5315   17.9063   40.3903 C   0  0  0  0  0  0  0  0  0  0  0  0
    0.0624   17.3000   39.2249 C   0  0  0  0  0  0  0  0  0  0  0  0
   -0.7078   16.1489   39.3045 C   0  0  0  0  0  0  0  0  0  0  0  0
   -1.0159   15.6002   40.5524 N   0  0  0  0  0  0  0  0  0  0  0  0
   -0.5412   16.2114   41.7229 C   0  0  0  0  0  0  0  0  0  0  0  0
    0.2341   17.3667   41.6441 C   0  0  0  0  0  0  0  0  0  0  0  0
    0.7077   17.9723   42.8124 C   0  0  0  0  0  0  0  0  0  0  0  0
    1.5949   18.9754   42.7595 N   0  0  0  0  0  0  0  0  0  0  0  0
    0.2685   17.5540   44.0037 N   0  0  0  0  0  0  0  0  0  0  0  0
    0.7072   18.1058   45.1491 C   0  0  0  0  0  0  0  0  0  0  0  0
    0.4290   17.8484   46.4362 N   0  0  0  0  0  0  0  0  0  0  0  0
   -0.4989   16.8259   46.9287 C   0  0  0  0  0  0  0  0  0  0  0  0
    1.0603   18.6051   47.1750 N   0  0  0  0  0  0  0  0  0  0  0  0
    1.7718   19.4316   46.3909 C   0  0  0  0  0  0  0  0  0  0  0  0
    1.5779   19.1094   45.1050 C   0  0  0  0  0  0  0  0  0  0  0  0
    2.0260   19.5503   43.8975 C   0  0  0  0  0  0  0  0  0  0  0  0
    2.9162   20.5687   43.8156 N   0  0  0  0  0  0  0  0  0  0  0  0
    1.1420   18.8187   40.3214 H   0  0  0  0  0  0  0  0  0  0  0  0
    0.3029   17.7344   38.2433 H   0  0  0  0  0  0  0  0  0  0  0  0
   -1.0758   15.6684   38.3860 H   0  0  0  0  0  0  0  0  0  0  0  0
   -0.7817   15.7777   42.7048 H   0  0  0  0  0  0  0  0  0  0  0  0
    0.0083   16.2013   47.6788 H   0  0  0  0  0  0  0  0  0  0  0  0
   -1.3720   17.3134   47.3872 H   0  0  0  0  0  0  0  0  0  0  0  0
   -0.8293   16.1959   46.0897 H   0  0  0  0  0  0  0  0  0  0  0  0
    2.4154   20.2484   46.7497 H   0  0  0  0  0  0  0  0  0  0  0  0
    3.2593   21.0231   44.6739 H   0  0  0  0  0  0  0  0  0  0  0  0
    3.2497   20.8885   42.8950 H   0  0  0  0  0  0  0  0  0  0  0  0
  1  2  2  0
  1  6  1  0
  2  3  1  0
  3  4  2  0
  4  5  1  0
  5  6  2  0
  6  7  1  0
  7  8  2  0
  7  9  1  0
  8 16  1  0
  9 10  2  0
 10 11  1  0
 10 15  1  0
 11 12  1  0
 11 13  1  0
 13 14  2  0
 14 15  1  0
 15 16  2  0
 16 17  1  0
  1 18  1  0
  2 19  1  0
  3 20  1  0
  5 21  1  0
 12 22  1  0
 12 23  1  0
 12 24  1  0
 14 25  1  0
 17 26  1  0
 17 27  1  0
M  END
>  <mol_id>  (53) 
2026-09-17-6fnk-s0-n100-0053

>  <rmsd_to_ref>  (53) 
2.8418367346989717

>  <pose_kind>  (53) 
rigid

$$$$
6fnk.A
     RDKit          3D

 27 29  0  0  0  0  0  0  0  0999 V2000
    4.1115   18.0842   41.0786 C   0  0  0  0  0  0  0  0  0  0  0  0
    5.2897   17.6022   40.5436 C   0  0  0  0  0  0  0  0  0  0  0  0
    5.1908   16.4401   39.7711 C   0  0  0  0  0  0  0  0  0  0  0  0
    4.0291   15.8369   39.5655 N   0  0  0  0  0  0  0  0  0  0  0  0
    2.9071   16.3241   40.0942 C   0  0  0  0  0  0  0  0  0  0  0  0
    2.8948   17.4588   40.8676 C   0  0  0  0  0  0  0  0  0  0  0  0
    1.6871   18.0199   41.4616 C   0  0  0  0  0  0  0  0  0  0  0  0
    1.7311   19.1388   42.2143 N   0  0  0  0  0  0  0  0  0  0  0  0
    0.5008   17.4128   41.2576 N   0  0  0  0  0  0  0  0  0  0  0  0
   -0.6506   17.9087   41.7973 C   0  0  0  0  0  0  0  0  0  0  0  0
   -1.9399   17.5225   41.7617 N   0  0  0  0  0  0  0  0  0  0  0  0
   -2.4709   16.3502   41.0583 C   0  0  0  0  0  0  0  0  0  0  0  0
   -2.6487   18.3848   42.4726 N   0  0  0  0  0  0  0  0  0  0  0  0
   -1.8696   19.3384   42.9836 C   0  0  0  0  0  0  0  0  0  0  0  0
   -0.5871   19.0540   42.5646 C   0  0  0  0  0  0  0  0  0  0  0  0
    0.6296   19.6778   42.7746 C   0  0  0  0  0  0  0  0  0  0  0  0
    0.7374   20.8661   43.5633 N   0  0  0  0  0  0  0  0  0  0  0  0
    4.1489   18.9862   41.6851 H   0  0  0  0  0  0  0  0  0  0  0  0
    6.2404   18.0968   40.7125 H   0  0  0  0  0  0  0  0  0  0  0  0
    6.1350   16.0799   39.3602 H   0  0  0  0  0  0  0  0  0  0  0  0
    1.9894   15.8019   39.9006 H   0  0  0  0  0  0  0  0  0  0  0  0
   -3.4019   16.0622   41.5853 H   0  0  0  0  0  0  0  0  0  0  0  0
   -2.8049   16.6324   40.0297 H   0  0  0  0  0  0  0  0  0  0  0  0
   -1.7203   15.5566   41.0133 H   0  0  0  0  0  0  0  0  0  0  0  0
   -2.1139   20.1915   43.6065 H   0  0  0  0  0  0  0  0  0  0  0  0
    1.4820   20.9104   44.3186 H   0  0  0  0  0  0  0  0  0  0  0  0
    0.0872   21.6664   43.3860 H   0  0  0  0  0  0  0  0  0  0  0  0
  1  2  2  0
  1  6  1  0
  2  3  1  0
  3  4  2  0
  4  5  1  0
  5  6  2  0
  6  7  1  0
  7  8  2  0
  7  9  1  0
  8 16  1  0
  9 10  2  0
 10 11  1  0
 10 15  1  0
 11 12  1  0
 11 13  1  0
 13 14  2  0
 14 15  1  0
 15 16  2  0
 16 17  1  0
  1 18  1  0
  2 19  1  0
  3 20  1  0
  5 21  1  0
 12 22  1  0
 12 23  1  0
 12 24  1  0
 14 25  1  0
 17 26  1  0
 17 27  1  0
M  END
>  <mol_id>  (54) 
2026-09-17-6fnk-s0-n100-0054

>  <rmsd_to_ref>  (54) 
2.887755102040955

>  <pose_kind>  (54) 
conformer

$$$$
6fnk.A
     RDKit          3D

 27 29  0  0  0  0  0  0  0  0999 V2000
    3.0091   18.0748   39.9243 C   0  0  0  0  0  0  0  0  0  0  0  0
    4.0802   17.6249   39.1519 C   0  0  0  0  0  0  0  0  0  0  0  0
    4.5080   16.3098   39.2602 C   0  0  0  0  0  0  0  0  0  0  0  0
    3.8633   15.4362   40.1402 N   0  0  0  0  0  0  0  0  0  0  0  0
    2.7873   15.8920   40.9170 C   0  0  0  0  0  0  0  0  0  0  0  0
    2.3577   17.2135   40.8104 C   0  0  0  0  0  0  0  0  0  0  0  0
    1.2865   17.6656   41.5877 C   0  0  0  0  0  0  0  0  0  0  0  0
    0.9681   18.9666   41.6346 N   0  0  0  0  0  0  0  0  0  0  0  0
    0.5603   16.7919   42.2922 N   0  0  0  0  0  0  0  0  0  0  0  0
   -0.4715   17.1897   43.0577 C   0  0  0  0  0  0  0  0  0  0  0  0
   -1.3178   16.5135   43.8493 N   0  0  0  0  0  0  0  0  0  0  0  0
   -1.3146   15.0649   44.0745 C   0  0  0  0  0  0  0  0  0  0  0  0
   -2.1276   17.2803   44.3720 N   0  0  0  0  0  0  0  0  0  0  0  0
   -1.8654   18.5153   43.9138 C   0  0  0  0  0  0  0  0  0  0  0  0
   -0.8017   18.4767   43.1002 C   0  0  0  0  0  0  0  0  0  0  0  0
   -0.0753   19.3752   42.3802 C   0  0  0  0  0  0  0  0  0  0  0  0
   -0.3816   20.6951   42.4031 N   0  0  0  0  0  0  0  0  0  0  0  0
    2.6741   19.1187   39.8346 H   0  0  0  0  0  0  0  0  0  0  0  0
    4.5850   18.3125   38.4574 H   0  0  0  0  0  0  0  0  0  0  0  0
    5.3544   15.9547   38.6539 H   0  0  0  0  0  0  0  0  0  0  0  0
    2.2818   15.2049   41.6115 H   0  0  0  0  0  0  0  0  0  0  0  0
   -1.3052   14.8620   45.1556 H   0  0  0  0  0  0  0  0  0  0  0  0
   -2.2163   14.6222   43.6262 H   0  0  0  0  0  0  0  0  0  0  0  0
   -0.4201   14.6237   43.6108 H   0  0  0  0  0  0  0  0  0  0  0  0
   -2.4368   19.4204   44.1678 H   0  0  0  0  0  0  0  0  0  0  0  0
   -1.1761   21.0297   42.9669 H   0  0  0  0  0  0  0  0  0  0  0  0
    0.1798   21.3637   41.8566 H   0  0  0  0  0  0  0  0  0  0  0  0
  1  2  2  0
  1  6  1  0
  2  3  1  0
  3  4  2  0
  4  5  1  0
  5  6  2  0
  6  7  1  0
  7  8  2  0
  7  9  1  0
  8 16  1  0
  9 10  2  0
 10 11  1  0
 10 15  1  0
 11 12  1  0
 11 13  1  0
 13 14  2  0
 14 15  1  0
 15 16  2  0
 16 17  1  0
  1 18  1  0
  2 19  1  0
  3 20  1  0
  5 21  1  0
 12 22  1  0
 12 23  1  0
 12 24  1  0
 14 25  1  0
 17 26  1  0
 17 27  1  0
M  END
>  <mol_id>  (55) 
2026-09-17-6fnk-s0-n100-0055

>  <rmsd_to_ref>  (55) 
2.9336734693885553

>  <pose_kind>  (55) 
rigid

$$$$
6fnk.A
     RDKit          3D

 27 29  0  0  0  0  0  0  0  0999 V2000
    3.4503   17.1613   42.0087 C   0  0  0  0  0  0  0  0  0  0  0  0
    3.9037   16.2601   41.0660 C   0  0  0  0  0  0  0  0  0  0  0  0
    3.1649   16.1772   39.8810 C   0  0  0  0  0  0  0  0  0  0  0  0
    2.0894   16.9236   39.6768 N   0  0  0  0  0  0  0  0  0  0  0  0
    1.6740   17.7857   40.6042 C   0  0  0  0  0  0  0  0  0  0  0  0
    2.3275   17.9440   41.8016 C   0  0  0  0  0  0  0  0  0  0  0  0
    1.9019   18.8767   42.8384 C   0  0  0  0  0  0  0  0  0  0  0  0
    2.5813   18.9928   43.9984 N   0  0  0  0  0  0  0  0  0  0  0  0
    0.8088   19.6402   42.6393 N   0  0  0  0  0  0  0  0  0  0  0  0
    0.3801   20.5242   43.5867 C   0  0  0  0  0  0  0  0  0  0  0  0
   -0.6485   21.3901   43.6579 N   0  0  0  0  0  0  0  0  0  0  0  0
   -1.6624   21.6131   42.6220 C   0  0  0  0  0  0  0  0  0  0  0  0
   -0.5876   22.0077   44.8267 N   0  0  0  0  0  0  0  0  0  0  0  0
    0.4535   21.5794   45.5408 C   0  0  0  0  0  0  0  0  0  0  0  0
    1.0871   20.6300   44.7672 C   0  0  0  0  0  0  0  0  0  0  0  0
    2.2090   19.8471   44.9726 C   0  0  0  0  0  0  0  0  0  0  0  0
    2.9686   19.9271   46.1820 N   0  0  0  0  0  0  0  0  0  0  0  0
    3.9992   17.2536   42.9431 H   0  0  0  0  0  0  0  0  0  0  0  0
    4.7844   15.6491   41.2341 H   0  0  0  0  0  0  0  0  0  0  0  0
    3.5434   15.4584   39.1529 H   0  0  0  0  0  0  0  0  0  0  0  0
    0.7978   18.3694   40.3948 H   0  0  0  0  0  0  0  0  0  0  0  0
   -2.5648   21.9915   43.1417 H   0  0  0  0  0  0  0  0  0  0  0  0
   -1.3530   22.4499   41.9489 H   0  0  0  0  0  0  0  0  0  0  0  0
   -1.8301   20.6995   42.0455 H   0  0  0  0  0  0  0  0  0  0  0  0
    0.7984   21.8656   46.5280 H   0  0  0  0  0  0  0  0  0  0  0  0
    3.2220   19.0273   46.6848 H   0  0  0  0  0  0  0  0  0  0  0  0
    3.2605   20.8622   46.5495 H   0  0  0  0  0  0  0  0  0  0  0  0
  1  2  2  0
  1  6  1  0
  2  3  1  0
  3  4  2  0
  4  5  1  0
  5  6  2  0
  6  7  1  0
  7  8  2  0
  7  9  1  0
  8 16  1  0
  9 10  2  0
 10 11  1  0
 10 15  1  0
 11 12  1  0
 11 13  1  0
 13 14  2  0
 14 15  1  0
 15 16  2  0
 16 17  1  0
  1 18  1  0
  2 19  1  0
  3 20  1  0
  5 21  1  0
 12 22  1  0
 12 23  1  0
 12 24  1  0
 14 25  1  0
 17 26  1  0
 17 27  1  0
M  END
>  <mol_id>  (56) 
2026-09-17-6fnk-s0-n100-0056

>  <rmsd_to_ref>  (56) 
2.979591836734763

>  <pose_kind>  (56) 
conformer

$$$$
6fnk.A
     RDKit          3D

 27 29  0  0  0  0  0  0  0  0999 V2000
    3.7585   16.2573   43.1779 C   0  0  0  0  0  0  0  0  0  0  0  0
    3.9658   14.8961   43.4022 C   0  0  0  0  0  0  0  0  0  0  0  0
    2.8804   14.0482   43.5680 C   0  0  0  0  0  0  0  0  0  0  0  0
    1.5806   14.5581   43.5061 N   0  0  0  0  0  0  0  0  0  0  0  0
    1.3753   15.9280   43.2820 C   0  0  0  0  0  0  0  0  0  0  0  0
    2.4650   16.7810   43.1173 C   0  0  0  0  0  0  0  0  0  0  0  0
    2.2572   18.1464   42.8963 C   0  0  0  0  0  0  0  0  0  0  0  0
    3.2806   19.0117   42.9099 N   0  0  0  0  0  0  0  0  0  0  0  0
    1.0227   18.6020   42.6607 N   0  0  0  0  0  0  0  0  0  0  0  0
    0.7825   19.9087   42.4524 C   0  0  0  0  0  0  0  0  0  0  0  0
   -0.3498   20.5891   42.2171 N   0  0  0  0  0  0  0  0  0  0  0  0
   -1.6949   20.0147   42.1187 C   0  0  0  0  0  0  0  0  0  0  0  0
   -0.1124   21.7900   42.0804 N   0  0  0  0  0  0  0  0  0  0  0  0
    1.2163   21.9523   42.1900 C   0  0  0  0  0  0  0  0  0  0  0  0
    1.7934   20.7720   42.4521 C   0  0  0  0  0  0  0  0  0  0  0  0
    3.0566   20.3191   42.6820 C   0  0  0  0  0  0  0  0  0  0  0  0
    4.1099   21.1714   42.6923 N   0  0  0  0  0  0  0  0  0  0  0  0
    4.6228   16.9251   43.0475 H   0  0  0  0  0  0  0  0  0  0  0  0
    4.9891   14.4954   43.4476 H   0  0  0  0  0  0  0  0  0  0  0  0
    3.0426   12.9752   43.7478 H   0  0  0  0  0  0  0  0  0  0  0  0
    0.3522   16.3293   43.2362 H   0  0  0  0  0  0  0  0  0  0  0  0
   -2.3763   20.5601   42.7882 H   0  0  0  0  0  0  0  0  0  0  0  0
   -2.0543   20.0979   41.0825 H   0  0  0  0  0  0  0  0  0  0  0  0
   -1.6633   18.9549   42.4119 H   0  0  0  0  0  0  0  0  0  0  0  0
    1.7494   22.9084   42.0813 H   0  0  0  0  0  0  0  0  0  0  0  0
    3.9613   22.1760   42.5203 H   0  0  0  0  0  0  0  0  0  0  0  0
    5.0593   20.8147   42.8722 H   0  0  0  0  0  0  0  0  0  0  0  0
  1  2  2  0
  1  6  1  0
  2  3  1  0
  3  4  2  0
  4  5  1  0
  5  6  2  0
  6  7  1  0
  7  8  2  0
  7  9  1  0
  8 16  1  0
  9 10  2  0
 10 11  1  0
 10 15  1  0
 11 12  1  0
 11 13  1  0
 13 14  2  0
 14 15  1  0
 15 16  2  0
 16 17  1  0
  1 18  1  0
  2 19  1  0
  3 20  1  0
  5 21  1  0
 12 22  1  0
 12 23  1  0
 12 24  1  0
 14 25  1  0
 17 26  1  0
 17 27  1  0
M  END
>  <mol_id>  (57) 
2026-09-17-6fnk-s0-n100-0057

>  <rmsd_to_ref>  (57) 
3.0255102040834014

>  <pose_kind>  (57) 
rigid

$$$$
6fnk.A
     RDKit          3D

 27 29  0  0  0  0  0  0  0  0999 V2000
    3.9564   17.7157   39.6178 C   0  0  0  0  0  0  0  0  0  0  0  0
    4.1927   17.5959   38.2626 C   0  0  0  0  0  0  0  0  0  0  0  0
    3.0921   17.2569   37.4684 C   0  0  0  0  0  0  0  0  0  0  0  0
    1.8900   17.0619   37.9902 N   0  0  0  0  0  0  0  0  0  0  0  0
    1.6903   17.1841   39.3021 C   0  0  0  0  0  0  0  0  0  0  0  0
    2.7030   17.5133   40.1692 C   0  0  0  0  0  0  0  0  0  0  0  0
    2.5211   17.6554   41.6089 C   0  0  0  0  0  0  0  0  0  0  0  0
    3.5517   17.9810   42.4167 N   0  0  0  0  0  0  0  0  0  0  0  0
    1.3014   17.4589   42.1486 N   0  0  0  0  0  0  0  0  0  0  0  0
    1.0928   17.5831   43.4917 C   0  0  0  0  0  0  0  0  0  0  0  0
    0.0131   17.4489   44.2848 N   0  0  0  0  0  0  0  0  0  0  0  0
   -1.3421   17.0995   43.8464 C   0  0  0  0  0  0  0  0  0  0  0  0
    0.3854   17.6871   45.5323 N   0  0  0  0  0  0  0  0  0  0  0  0
    1.6850   17.9772   45.5967 C   0  0  0  0  0  0  0  0  0  0  0  0
    2.1582   17.9166   44.3031 C   0  0  0  0  0  0  0  0  0  0  0  0
    3.4102   18.1186   43.7504 C   0  0  0  0  0  0  0  0  0  0  0  0
    4.5394   18.4654   44.5570 N   0  0  0  0  0  0  0  0  0  0  0  0
    4.7883   17.9781   40.2674 H   0  0  0  0  0  0  0  0  0  0  0  0
    5.1773   17.7558   37.8362 H   0  0  0  0  0  0  0  0  0  0  0  0
    3.3050   17.1685   36.4021 H   0  0  0  0  0  0  0  0  0  0  0  0
    0.6995   17.0168   39.6798 H   0  0  0  0  0  0  0  0  0  0  0  0
   -1.8424   16.6290   44.7158 H   0  0  0  0  0  0  0  0  0  0  0  0
   -1.9364   18.0246   43.6458 H   0  0  0  0  0  0  0  0  0  0  0  0
   -1.3065   16.4662   42.9559 H   0  0  0  0  0  0  0  0  0  0  0  0
    2.3129   18.2208   46.4465 H   0  0  0  0  0  0  0  0  0  0  0  0
    5.4427   17.9228   44.4290 H   0  0  0  0  0  0  0  0  0  0  0  0
    4.4593   19.2412   45.2544 H   0  0  0  0  0  0  0  0  0  0  0  0
  1  2  2  0
  1  6  1  0
  2  3  1  0
  3  4  2  0
  4  5  1  0
  5  6  2  0
  6  7  1  0
  7  8  2  0
  7  9  1  0
  8 16  1  0
  9 10  2  0
 10 11  1  0
 10 15  1  0
 11 12  1  0
 11 13  1  0
 13 14  2  0
 14 15  1  0
 15 16  2  0
 16 17  1  0
  1 18  1  0
  2 19  1  0
  3 20  1  0
  5 21  1  0
 12 22  1  0
 12 23  1  0
 12 24  1  0
 14 25  1  0
 17 26  1  0
 17 27  1  0
M  END
>  <mol_id>  (58) 
2026-09-17-6fnk-s0-n100-0058

>  <rmsd_to_ref>  (58) 
3.071428571433226

>  <pose_kind>  (58) 
conformer

$$$$
6fnk.A
     RDKit          3D

 27 29  0  0  0  0  0  0  0  0999 V2000
    0.1618   18.1823   39.2149 C   0  0  0  0  0  0  0  0  0  0  0  0
    0.5644   17.7470   37.9522 C   0  0  0  0  0  0  0  0  0  0  0  0
    1.8823   17.3715   37.7365 C   0  0  0  0  0  0  0  0  0  0  0  0
    2.8042   17.4262   38.7856 N   0  0  0  0  0  0  0  0  0  0  0  0
    2.3966   17.8660   40.0541 C   0  0  0  0  0  0  0  0  0  0  0  0
    1.0734   18.2454   40.2716 C   0  0  0  0  0  0  0  0  0  0  0  0
    0.6707   18.6856   41.5365 C   0  0  0  0  0  0  0  0  0  0  0  0
   -0.5437   19.2193   41.7276 N   0  0  0  0  0  0  0  0  0  0  0  0
    1.5020   18.5696   42.5770 N   0  0  0  0  0  0  0  0  0  0  0  0
    1.1537   18.9895   43.8063 C   0  0  0  0  0  0  0  0  0  0  0  0
    1.8110   18.9921   44.9760 N   0  0  0  0  0  0  0  0  0  0  0  0
    3.1699   18.4904   45.2012 C   0  0  0  0  0  0  0  0  0  0  0  0
    1.1085   19.4734   45.8660 N   0  0  0  0  0  0  0  0  0  0  0  0
   -0.0771   19.7858   45.3177 C   0  0  0  0  0  0  0  0  0  0  0  0
   -0.0536   19.5086   44.0072 C   0  0  0  0  0  0  0  0  0  0  0  0
   -0.9124   19.6239   42.9571 C   0  0  0  0  0  0  0  0  0  0  0  0
   -2.1492   20.1516   43.1250 N   0  0  0  0  0  0  0  0  0  0  0  0
   -0.8844   18.4792   39.3803 H   0  0  0  0  0  0  0  0  0  0  0  0
   -0.1628   17.7015   37.1281 H   0  0  0  0  0  0  0  0  0  0  0  0
    2.2015   17.0308   36.7405 H   0  0  0  0  0  0  0  0  0  0  0  0
    3.1232   17.9114   40.8788 H   0  0  0  0  0  0  0  0  0  0  0  0
    3.7674   19.2639   45.7059 H   0  0  0  0  0  0  0  0  0  0  0  0
    3.1285   17.5898   45.8314 H   0  0  0  0  0  0  0  0  0  0  0  0
    3.6334   18.2411   44.2353 H   0  0  0  0  0  0  0  0  0  0  0  0
   -0.9364   20.2051   45.8616 H   0  0  0  0  0  0  0  0  0  0  0  0
   -2.4520   20.4678   44.0574 H   0  0  0  0  0  0  0  0  0  0  0  0
   -2.7865   20.2367   42.3203 H   0  0  0  0  0  0  0  0  0  0  0  0
  1  2  2  0
  1  6  1  0
  2  3  1  0
  3  4  2  0
  4  5  1  0
  5  6  2  0
  6  7  1  0
  7  8  2  0
  7  9  1  0
  8 16  1  0
  9 10  2  0
 10 11  1  0
 10 15  1  0
 11 12  1  0
 11 13  1  0
 13 14  2  0
 14 15  1  0
 15 16  2  0
 16 17  1  0
  1 18  1  0
  2 19  1  0
  3 20  1  0
  5 21  1  0
 12 22  1  0
 12 23  1  0
 12 24  1  0
 14 25  1  0
 17 26  1  0
 17 27  1  0
M  END
>  <mol_id>  (59) 
2026-09-17-6fnk-s0-n100-0059

>  <rmsd_to_ref>  (59) 
3.117346938778266

>  <pose_kind>  (59) 
rigid

$$$$
6fnk.A
     RDKit          3D

 27 29  0  0  0  0  0  0  0  0999 V2000
    2.3220   13.6230   41.4739 C   0  0  0  0  0  0  0  0  0  0  0  0
    1.7314   12.3814   41.3479 C   0  0  0  0  0  0  0  0  0  0  0  0
    0.3479   12.3289   41.5485 C   0  0  0  0  0  0  0  0  0  0  0  0
   -0.3549   13.4127   41.8432 N   0  0  0  0  0  0  0  0  0  0  0  0
    0.2411   14.5989   41.9587 C   0  0  0  0  0  0  0  0  0  0  0  0
    1.5934   14.7591   41.7815 C   0  0  0  0  0  0  0  0  0  0  0  0
    2.2787   16.0407   41.9002 C   0  0  0  0  0  0  0  0  0  0  0  0
    3.6115   16.1424   41.7158 N   0  0  0  0  0  0  0  0  0  0  0  0
    1.5715   17.1486   42.1998 N   0  0  0  0  0  0  0  0  0  0  0  0
    2.1783   18.3655   42.3191 C   0  0  0  0  0  0  0  0  0  0  0  0
    1.7358   19.6054   42.6013 N   0  0  0  0  0  0  0  0  0  0  0  0
    0.3461   19.9839   42.8777 C   0  0  0  0  0  0  0  0  0  0  0  0
    2.7731   20.4268   42.5867 N   0  0  0  0  0  0  0  0  0  0  0  0
    3.8988   19.7715   42.3023 C   0  0  0  0  0  0  0  0  0  0  0  0
    3.5423   18.4511   42.1272 C   0  0  0  0  0  0  0  0  0  0  0  0
    4.2690   17.3149   41.8198 C   0  0  0  0  0  0  0  0  0  0  0  0
    5.6835   17.3618   41.6135 N   0  0  0  0  0  0  0  0  0  0  0  0
    3.3964   13.7032   41.3250 H   0  0  0  0  0  0  0  0  0  0  0  0
    2.3078   11.4944   41.1066 H   0  0  0  0  0  0  0  0  0  0  0  0
   -0.0943   11.3372   41.4433 H   0  0  0  0  0  0  0  0  0  0  0  0
   -0.3687   15.4492   42.1987 H   0  0  0  0  0  0  0  0  0  0  0  0
    0.3874   20.8997   43.4999 H   0  0  0  0  0  0  0  0  0  0  0  0
   -0.1637   20.3053   41.9365 H   0  0  0  0  0  0  0  0  0  0  0  0
   -0.1933   19.1537   43.3415 H   0  0  0  0  0  0  0  0  0  0  0  0
    4.9189   20.1271   42.2095 H   0  0  0  0  0  0  0  0  0  0  0  0
    6.2955   16.6557   42.1173 H   0  0  0  0  0  0  0  0  0  0  0  0
    6.0904   18.0842   40.9753 H   0  0  0  0  0  0  0  0  0  0  0  0
  1  2  2  0
  1  6  1  0
  2  3  1  0
  3  4  2  0
  4  5  1  0
  5  6  2  0
  6  7  1  0
  7  8  2  0
  7  9  1  0
  8 16  1  0
  9 10  2  0
 10 11  1  0
 10 15  1  0
 11 12  1  0
 11 13  1  0
 13 14  2  0
 14 15  1  0
 15 16  2  0
 16 17  1  0
  1 18  1  0
  2 19  1  0
  3 20  1  0
  5 21  1  0
 12 22  1  0
 12 23  1  0
 12 24  1  0
 14 25  1  0
 17 26  1  0
 17 27  1  0
M  END
>  <mol_id>  (60) 
2026-09-17-6fnk-s0-n100-0060

>  <rmsd_to_ref>  (60) 
3.1632653061227938

>  <pose_kind>  (60) 
conformer

$$$$
6fnk.A
     RDKit          3D

 27 29  0  0  0  0  0  0  0  0999 V2000
    1.8616   19.2053   39.1764 C   0  0  0  0  0  0  0  0  0  0  0  0
    1.5112   18.8586   37.8714 C   0  0  0  0  0  0  0  0  0  0  0  0
    0.8468   17.6657   37.6262 C   0  0  0  0  0  0  0  0  0  0  0  0
    0.5259   16.8146   38.6873 N   0  0  0  0  0  0  0  0  0  0  0  0
    0.8810   17.1653   39.9987 C   0  0  0  0  0  0  0  0  0  0  0  0
    1.5502   18.3625   40.2461 C   0  0  0  0  0  0  0  0  0  0  0  0
    1.9050   18.7082   41.5540 C   0  0  0  0  0  0  0  0  0  0  0  0
    2.6980   19.7604   41.7991 N   0  0  0  0  0  0  0  0  0  0  0  0
    1.4447   17.9868   42.5809 N   0  0  0  0  0  0  0  0  0  0  0  0
    1.7709   18.2831   43.8516 C   0  0  0  0  0  0  0  0  0  0  0  0
    1.4509   17.7071   45.0204 N   0  0  0  0  0  0  0  0  0  0  0  0
    0.5964   16.5288   45.1942 C   0  0  0  0  0  0  0  0  0  0  0  0
    1.9710   18.3132   45.9581 N   0  0  0  0  0  0  0  0  0  0  0  0
    2.6434   19.3544   45.4404 C   0  0  0  0  0  0  0  0  0  0  0  0
    2.5469   19.3325   44.1043 C   0  0  0  0  0  0  0  0  0  0  0  0
    3.0148   20.0803   43.0675 C   0  0  0  0  0  0  0  0  0  0  0  0
    3.8109   21.1545   43.2884 N   0  0  0  0  0  0  0  0  0  0  0  0
    2.3886   20.1522   39.3651 H   0  0  0  0  0  0  0  0  0  0  0  0
    1.7616   19.5306   37.0373 H   0  0  0  0  0  0  0  0  0  0  0  0
    0.5726   17.3899   36.5972 H   0  0  0  0  0  0  0  0  0  0  0  0
    0.6307   16.4939   40.8333 H   0  0  0  0  0  0  0  0  0  0  0  0
    1.1191   15.7850   45.8136 H   0  0  0  0  0  0  0  0  0  0  0  0
   -0.3403   16.8249   45.6891 H   0  0  0  0  0  0  0  0  0  0  0  0
    0.3692   16.0922   44.2105 H   0  0  0  0  0  0  0  0  0  0  0  0
    3.1898   20.1097   46.0243 H   0  0  0  0  0  0  0  0  0  0  0  0
    4.0659   21.4173   44.2511 H   0  0  0  0  0  0  0  0  0  0  0  0
    4.1610   21.7082   42.4936 H   0  0  0  0  0  0  0  0  0  0  0  0
  1  2  2  0
  1  6  1  0
  2  3  1  0
  3  4  2  0
  4  5  1  0
  5  6  2  0
  6  7  1  0
  7  8  2  0
  7  9  1  0
  8 16  1  0
  9 10  2  0
 10 11  1  0
 10 15  1  0
 11 12  1  0
 11 13  1  0
 13 14  2  0
 14 15  1  0
 15 16  2  0
 16 17  1  0
  1 18  1  0
  2 19  1  0
  3 20  1  0
  5 21  1  0
 12 22  1  0
 12 23  1  0
 12 24  1  0
 14 25  1  0
 17 26  1  0
 17 27  1  0
M  END
>  <mol_id>  (61) 
2026-09-17-6fnk-s0-n100-0061

>  <rmsd_to_ref>  (61) 
3.209183673472281

>  <pose_kind>  (61) 
rigid

$$$$
6fnk.A
     RDKit          3D

 27 29  0  0  0  0  0  0  0  0999 V2000
    1.1523   18.2928   39.5860 C   0  0  0  0  0  0  0  0  0  0  0  0
    0.9651   18.4077   38.2228 C   0  0  0  0  0  0  0  0  0  0  0  0
    1.5235   17.3975   37.4324 C   0  0  0  0  0  0  0  0  0  0  0  0
    2.1948   16.3869   37.9650 N   0  0  0  0  0  0  0  0  0  0  0  0
    2.3603   16.3010   39.2844 C   0  0  0  0  0  0  0  0  0  0  0  0
    1.8526   17.2397   40.1487 C   0  0  0  0  0  0  0  0  0  0  0  0
    2.0143   17.1777   41.5965 C   0  0  0  0  0  0  0  0  0  0  0  0
    1.4943   18.1279   42.4010 N   0  0  0  0  0  0  0  0  0  0  0  0
    2.6958   16.1531   42.1471 N   0  0  0  0  0  0  0  0  0  0  0  0
    2.8677   16.0615   43.4980 C   0  0  0  0  0  0  0  0  0  0  0  0
    3.4848   15.1755   44.3024 N   0  0  0  0  0  0  0  0  0  0  0  0
    4.1962   13.9676   43.8711 C   0  0  0  0  0  0  0  0  0  0  0  0
    3.3392   15.5827   45.5531 N   0  0  0  0  0  0  0  0  0  0  0  0
    2.6414   16.7172   45.6090 C   0  0  0  0  0  0  0  0  0  0  0  0
    2.3290   17.0422   44.3059 C   0  0  0  0  0  0  0  0  0  0  0  0
    1.6295   18.0941   43.7419 C   0  0  0  0  0  0  0  0  0  0  0  0
    1.0563   19.1300   44.5445 N   0  0  0  0  0  0  0  0  0  0  0  0
    0.7326   19.0597   40.2329 H   0  0  0  0  0  0  0  0  0  0  0  0
    0.4154   19.2356   37.7875 H   0  0  0  0  0  0  0  0  0  0  0  0
    1.3616   17.5113   36.3595 H   0  0  0  0  0  0  0  0  0  0  0  0
    2.9112   15.4646   39.6708 H   0  0  0  0  0  0  0  0  0  0  0  0
    4.9416   13.7434   44.6595 H   0  0  0  0  0  0  0  0  0  0  0  0
    3.5070   13.0878   43.8765 H   0  0  0  0  0  0  0  0  0  0  0  0
    4.6278   14.1103   42.8769 H   0  0  0  0  0  0  0  0  0  0  0  0
    2.3404   17.3200   46.4584 H   0  0  0  0  0  0  0  0  0  0  0  0
    1.2335   20.1410   44.2740 H   0  0  0  0  0  0  0  0  0  0  0  0
    0.4765   18.8785   45.3783 H   0  0  0  0  0  0  0  0  0  0  0  0
  1  2  2  0
  1  6  1  0
  2  3  1  0
  3  4  2  0
  4  5  1  0
  5  6  2  0
  6  7  1  0
  7  8  2  0
  7  9  1  0
  8 16  1  0
  9 10  2  0
 10 11  1  0
 10 15  1  0
 11 12  1  0
 11 13  1  0
 13 14  2  0
 14 15  1  0
 15 16  2  0
 16 17  1  0
  1 18  1  0
  2 19  1  0
  3 20  1  0
  5 21  1  0
 12 22  1  0
 12 23  1  0
 12 24  1  0
 14 25  1  0
 17 26  1  0
 17 27  1  0
M  END
>  <mol_id>  (62) 
2026-09-17-6fnk-s0-n100-0062

>  <rmsd_to_ref>  (62) 
3.2551020408205225

>  <pose_kind>  (62) 
conformer

$$$$
6fnk.A
     RDKit          3D

 27 29  0  0  0  0  0  0  0  0999 V2000
    1.0996   14.3406   42.4184 C   0  0  0  0  0  0  0  0  0  0  0  0
    0.9697   13.1746   43.1733 C   0  0  0  0  0  0  0  0  0  0  0  0
    0.9823   13.2414   44.5588 C   0  0  0  0  0  0  0  0  0  0  0  0
    1.1215   14.4771   45.1967 N   0  0  0  0  0  0  0  0  0  0  0  0
    1.2536   15.6480   44.4349 C   0  0  0  0  0  0  0  0  0  0  0  0
    1.2429   15.5819   43.0429 C   0  0  0  0  0  0  0  0  0  0  0  0
    1.3771   16.7504   42.2861 C   0  0  0  0  0  0  0  0  0  0  0  0
    1.5457   16.6971   40.9576 N   0  0  0  0  0  0  0  0  0  0  0  0
    1.3311   17.9426   42.8891 N   0  0  0  0  0  0  0  0  0  0  0  0
    1.4649   19.0875   42.1962 C   0  0  0  0  0  0  0  0  0  0  0  0
    1.4686   20.3742   42.5766 N   0  0  0  0  0  0  0  0  0  0  0  0
    1.3079   20.8672   43.9478 C   0  0  0  0  0  0  0  0  0  0  0  0
    1.6188   21.1129   41.6026 N   0  0  0  0  0  0  0  0  0  0  0  0
    1.6899   20.3314   40.5124 C   0  0  0  0  0  0  0  0  0  0  0  0
    1.6202   19.0440   40.8767 C   0  0  0  0  0  0  0  0  0  0  0  0
    1.6598   17.8362   40.2499 C   0  0  0  0  0  0  0  0  0  0  0  0
    1.8204   17.7547   38.9067 N   0  0  0  0  0  0  0  0  0  0  0  0
    1.0891   14.2817   41.3200 H   0  0  0  0  0  0  0  0  0  0  0  0
    0.8573   12.2029   42.6702 H   0  0  0  0  0  0  0  0  0  0  0  0
    0.8829   12.3224   45.1551 H   0  0  0  0  0  0  0  0  0  0  0  0
    1.3659   16.6200   44.9373 H   0  0  0  0  0  0  0  0  0  0  0  0
    2.1284   21.5597   44.1870 H   0  0  0  0  0  0  0  0  0  0  0  0
    0.3460   21.3932   44.0379 H   0  0  0  0  0  0  0  0  0  0  0  0
    1.3286   20.0185   44.6474 H   0  0  0  0  0  0  0  0  0  0  0  0
    1.7901   20.6932   39.4784 H   0  0  0  0  0  0  0  0  0  0  0  0
    1.9098   18.6138   38.3456 H   0  0  0  0  0  0  0  0  0  0  0  0
    1.8530   16.8336   38.4469 H   0  0  0  0  0  0  0  0  0  0  0  0
  1  2  2  0
  1  6  1  0
  2  3  1  0
  3  4  2  0
  4  5  1  0
  5  6  2  0
  6  7  1  0
  7  8  2  0
  7  9  1  0
  8 16  1  0
  9 10  2  0
 10 11  1  0
 10 15  1  0
 11 12  1  0
 11 13  1  0
 13 14  2  0
 14 15  1  0
 15 16  2  0
 16 17  1  0
  1 18  1  0
  2 19  1  0
  3 20  1  0
  5 21  1  0
 12 22  1  0
 12 23  1  0
 12 24  1  0
 14 25  1  0
 17 26  1  0
 17 27  1  0
M  END
>  <mol_id>  (63) 
2026-09-17-6fnk-s0-n100-0063

>  <rmsd_to_ref>  (63) 
3.301020408171018

>  <pose_kind>  (63) 
rigid

$$$$
6fnk.A
     RDKit          3D

 27 29  0  0  0  0  0  0  0  0999 V2000
    3.3015   16.5127   40.9642 C   0  0  0  0  0  0  0  0  0  0  0  0
    4.6115   16.2593   41.3195 C   0  0  0  0  0  0  0  0  0  0  0  0
    4.8804   16.1904   42.6907 C   0  0  0  0  0  0  0  0  0  0  0  0
    3.9285   16.3595   43.5967 N   0  0  0  0  0  0  0  0  0  0  0  0
    2.6720   16.6029   43.2254 C   0  0  0  0  0  0  0  0  0  0  0  0
    2.3025   16.6902   41.9057 C   0  0  0  0  0  0  0  0  0  0  0  0
    0.9386   16.9551   41.4634 C   0  0  0  0  0  0  0  0  0  0  0  0
    0.6294   17.0308   40.1522 N   0  0  0  0  0  0  0  0  0  0  0  0
   -0.0364   17.1283   42.3783 N   0  0  0  0  0  0  0  0  0  0  0  0
   -1.3244   17.3779   42.0022 C   0  0  0  0  0  0  0  0  0  0  0  0
   -2.4702   17.5867   42.6776 N   0  0  0  0  0  0  0  0  0  0  0  0
   -2.6228   17.5967   44.1363 C   0  0  0  0  0  0  0  0  0  0  0  0
   -3.4386   17.7821   41.7971 N   0  0  0  0  0  0  0  0  0  0  0  0
   -2.9731   17.7099   40.5499 C   0  0  0  0  0  0  0  0  0  0  0  0
   -1.6228   17.4520   40.6567 C   0  0  0  0  0  0  0  0  0  0  0  0
   -0.6233   17.2744   39.7170 C   0  0  0  0  0  0  0  0  0  0  0  0
   -0.8916   17.3436   38.3138 N   0  0  0  0  0  0  0  0  0  0  0  0
    3.0541   16.5734   39.9069 H   0  0  0  0  0  0  0  0  0  0  0  0
    5.3903   16.1211   40.5770 H   0  0  0  0  0  0  0  0  0  0  0  0
    5.9220   15.9892   42.9450 H   0  0  0  0  0  0  0  0  0  0  0  0
    1.9345   16.7330   43.9945 H   0  0  0  0  0  0  0  0  0  0  0  0
   -3.5069   18.2274   44.3557 H   0  0  0  0  0  0  0  0  0  0  0  0
   -2.9038   16.5796   44.5047 H   0  0  0  0  0  0  0  0  0  0  0  0
   -1.7017   17.9375   44.6166 H   0  0  0  0  0  0  0  0  0  0  0  0
   -3.4821   17.8190   39.5988 H   0  0  0  0  0  0  0  0  0  0  0  0
   -0.2649   17.9458   37.7044 H   0  0  0  0  0  0  0  0  0  0  0  0
   -1.6939   16.8049   37.9126 H   0  0  0  0  0  0  0  0  0  0  0  0
  1  2  2  0
  1  6  1  0
  2  3  1  0
  3  4  2  0
  4  5  1  0
  5  6  2  0
  6  7  1  0
  7  8  2  0
  7  9  1  0
  8 16  1  0
  9 10  2  0
 10 11  1  0
 10 15  1  0
 11 12  1  0
 11 13  1  0
 13 14  2  0
 14 15  1  0
 15 16  2  0
 16 17  1  0
  1 18  1  0
  2 19  1  0
  3 20  1  0
  5 21  1  0
 12 22  1  0
 12 23  1  0
 12 24  1  0
 14 25  1  0
 17 26  1  0
 17 27  1  0
M  END
>  <mol_id>  (64) 
2026-09-17-6fnk-s0-n100-0064

>  <rmsd_to_ref>  (64) 
3.346938775513577

>  <pose_kind>  (64) 
conformer

$$$$
6fnk.A
     RDKit          3D

 27 29  0  0  0  0  0  0  0  0999 V2000
    1.9670   19.3534   40.9572 C   0  0  0  0  0  0  0  0  0  0  0  0
    3.1683   19.4442   40.2539 C   0  0  0  0  0  0  0  0  0  0  0  0
    4.2491   18.6575   40.6246 C   0  0  0  0  0  0  0  0  0  0  0  0
    4.1319   17.7723   41.6997 N   0  0  0  0  0  0  0  0  0  0  0  0
    2.9228   17.6843   42.4062 C   0  0  0  0  0  0  0  0  0  0  0  0
    1.8369   18.4755   42.0360 C   0  0  0  0  0  0  0  0  0  0  0  0
    0.6337   18.3873   42.7435 C   0  0  0  0  0  0  0  0  0  0  0  0
   -0.3626   19.2561   42.5226 N   0  0  0  0  0  0  0  0  0  0  0  0
    0.4649   17.4204   43.6511 N   0  0  0  0  0  0  0  0  0  0  0  0
   -0.6743   17.3089   44.3572 C   0  0  0  0  0  0  0  0  0  0  0  0
   -1.0603   16.4493   45.3124 N   0  0  0  0  0  0  0  0  0  0  0  0
   -0.2644   15.3391   45.8445 C   0  0  0  0  0  0  0  0  0  0  0  0
   -2.2027   16.7092   45.6923 N   0  0  0  0  0  0  0  0  0  0  0  0
   -2.6401   17.7519   44.9674 C   0  0  0  0  0  0  0  0  0  0  0  0
   -1.6720   18.1589   44.1355 C   0  0  0  0  0  0  0  0  0  0  0  0
   -1.5156   19.1426   43.2074 C   0  0  0  0  0  0  0  0  0  0  0  0
   -2.5105   20.0284   42.9584 N   0  0  0  0  0  0  0  0  0  0  0  0
    1.1132   19.9797   40.6592 H   0  0  0  0  0  0  0  0  0  0  0  0
    3.2585   20.1391   39.4060 H   0  0  0  0  0  0  0  0  0  0  0  0
    5.1978   18.7304   40.0726 H   0  0  0  0  0  0  0  0  0  0  0  0
    2.8318   16.9894   43.2540 H   0  0  0  0  0  0  0  0  0  0  0  0
   -0.2369   15.4009   46.9424 H   0  0  0  0  0  0  0  0  0  0  0  0
   -0.7190   14.3842   45.5422 H   0  0  0  0  0  0  0  0  0  0  0  0
    0.7599   15.3993   45.4481 H   0  0  0  0  0  0  0  0  0  0  0  0
   -3.6404   18.2029   45.0449 H   0  0  0  0  0  0  0  0  0  0  0  0
   -3.4012   19.9599   43.4711 H   0  0  0  0  0  0  0  0  0  0  0  0
   -2.3759   20.7701   42.2566 H   0  0  0  0  0  0  0  0  0  0  0  0
  1  2  2  0
  1  6  1  0
  2  3  1  0
  3  4  2  0
  4  5  1  0
  5  6  2  0
  6  7  1  0
  7  8  2  0
  7  9  1  0
  8 16  1  0
  9 10  2  0
 10 11  1  0
 10 15  1  0
 11 12  1  0
 11 13  1  0
 13 14  2  0
 14 15  1  0
 15 16  2  0
 16 17  1  0
  1 18  1  0
  2 19  1  0
  3 20  1  0
  5 21  1  0
 12 22  1  0
 12 23  1  0
 12 24  1  0
 14 25  1  0
 17 26  1  0
 17 27  1  0
M  END
>  <mol_id>  (65) 
2026-09-17-6fnk-s0-n100-0065

>  <rmsd_to_ref>  (65) 
3.39285714286077

>  <pose_kind>  (65) 
rigid

$$$$
6fnk.A
     RDKit          3D

 27 29  0  0  0  0  0  0  0  0999 V2000
    3.7479   18.2674   41.1501 C   0  0  0  0  0  0  0  0  0  0  0  0
    5.0744   17.9150   40.9987 C   0  0  0  0  0  0  0  0  0  0  0  0
    5.4420   16.6569   41.4875 C   0  0  0  0  0  0  0  0  0  0  0  0
    4.5636   15.8494   42.0637 N   0  0  0  0  0  0  0  0  0  0  0  0
    3.2891   16.2152   42.1967 C   0  0  0  0  0  0  0  0  0  0  0  0
    2.8254   17.4285   41.7511 C   0  0  0  0  0  0  0  0  0  0  0  0
    1.4390   17.8615   41.8797 C   0  0  0  0  0  0  0  0  0  0  0  0
    1.0358   19.0658   41.4240 N   0  0  0  0  0  0  0  0  0  0  0  0
    0.5384   17.0465   42.4648 N   0  0  0  0  0  0  0  0  0  0  0  0
   -0.7678   17.4174   42.6029 C   0  0  0  0  0  0  0  0  0  0  0  0
   -1.8555   16.8246   43.1303 N   0  0  0  0  0  0  0  0  0  0  0  0
   -1.9000   15.4954   43.7486 C   0  0  0  0  0  0  0  0  0  0  0  0
   -2.8814   17.6496   42.9948 N   0  0  0  0  0  0  0  0  0  0  0  0
   -2.5109   18.7790   42.3910 C   0  0  0  0  0  0  0  0  0  0  0  0
   -1.1627   18.6528   42.1311 C   0  0  0  0  0  0  0  0  0  0  0  0
   -0.2395   19.4899   41.5307 C   0  0  0  0  0  0  0  0  0  0  0  0
   -0.6089   20.7774   41.0289 N   0  0  0  0  0  0  0  0  0  0  0  0
    3.4248   19.2385   40.7821 H   0  0  0  0  0  0  0  0  0  0  0  0
    5.7930   18.5768   40.5268 H   0  0  0  0  0  0  0  0  0  0  0  0
    6.4947   16.4023   41.3559 H   0  0  0  0  0  0  0  0  0  0  0  0
    2.6134   15.5283   42.6700 H   0  0  0  0  0  0  0  0  0  0  0  0
   -2.7507   15.5071   44.4582 H   0  0  0  0  0  0  0  0  0  0  0  0
   -2.1763   14.7228   42.9898 H   0  0  0  0  0  0  0  0  0  0  0  0
   -0.9384   15.2537   44.2092 H   0  0  0  0  0  0  0  0  0  0  0  0
   -3.0860   19.6586   42.1242 H   0  0  0  0  0  0  0  0  0  0  0  0
   -0.0152   21.6167   41.2931 H   0  0  0  0  0  0  0  0  0  0  0  0
   -1.4506   20.8721   40.4147 H   0  0  0  0  0  0  0  0  0  0  0  0
  1  2  2  0
  1  6  1  0
  2  3  1  0
  3  4  2  0
  4  5  1  0
  5  6  2  0
  6  7  1  0
  7  8  2  0
  7  9  1  0
  8 16  1  0
  9 10  2  0
 10 11  1  0
 10 15  1  0
 11 12  1  0
 11 13  1  0
 13 14  2  0
 14 15  1  0
 15 16  2  0
 16 17  1  0
  1 18  1  0
  2 19  1  0
  3 20  1  0
  5 21  1  0
 12 22  1  0
 12 23  1  0
 12 24  1  0
 14 25  1  0
 17 26  1  0
 17 27  1  0
M  END
>  <mol_id>  (66) 
2026-09-17-6fnk-s0-n100-0066

>  <rmsd_to_ref>  (66) 
3.4387755102092874

>  <pose_kind>  (66) 
conformer

$$$$
6fnk.A
     RDKit          3D

 27 29  0  0  0  0  0  0  0  0999 V2000
    3.1091   20.0857   39.8596 C   0  0  0  0  0  0  0  0  0  0  0  0
    3.7034   20.0736   38.5977 C   0  0  0  0  0  0  0  0  0  0  0  0
    3.2858   19.1568   37.6440 C   0  0  0  0  0  0  0  0  0  0  0  0
    2.2676   18.2489   37.9476 N   0  0  0  0  0  0  0  0  0  0  0  0
    1.6726   18.2624   39.2183 C   0  0  0  0  0  0  0  0  0  0  0  0
    2.0927   19.1818   40.1778 C   0  0  0  0  0  0  0  0  0  0  0  0
    1.4995   19.1913   41.4444 C   0  0  0  0  0  0  0  0  0  0  0  0
    2.0005   19.9410   42.4358 N   0  0  0  0  0  0  0  0  0  0  0  0
    0.4121   18.4488   41.6753 N   0  0  0  0  0  0  0  0  0  0  0  0
   -0.1809   18.4254   42.8822 C   0  0  0  0  0  0  0  0  0  0  0  0
   -1.2491   17.7598   43.3470 N   0  0  0  0  0  0  0  0  0  0  0  0
   -2.0876   16.8340   42.5797 C   0  0  0  0  0  0  0  0  0  0  0  0
   -1.4508   18.0375   44.5300 N   0  0  0  0  0  0  0  0  0  0  0  0
   -0.5253   18.9401   44.8946 C   0  0  0  0  0  0  0  0  0  0  0  0
    0.3023   19.1755   43.8676 C   0  0  0  0  0  0  0  0  0  0  0  0
    1.4041   19.9428   43.6423 C   0  0  0  0  0  0  0  0  0  0  0  0
    1.9254   20.7167   44.6250 N   0  0  0  0  0  0  0  0  0  0  0  0
    3.4444   20.8147   40.6121 H   0  0  0  0  0  0  0  0  0  0  0  0
    4.5028   20.7906   38.3589 H   0  0  0  0  0  0  0  0  0  0  0  0
    3.7558   19.1444   36.6496 H   0  0  0  0  0  0  0  0  0  0  0  0
    0.8732   17.5459   39.4577 H   0  0  0  0  0  0  0  0  0  0  0  0
   -2.1800   15.8840   43.1265 H   0  0  0  0  0  0  0  0  0  0  0  0
   -3.0857   17.2743   42.4385 H   0  0  0  0  0  0  0  0  0  0  0  0
   -1.6263   16.6489   41.5985 H   0  0  0  0  0  0  0  0  0  0  0  0
   -0.4572   19.4137   45.8851 H   0  0  0  0  0  0  0  0  0  0  0  0
    1.4850   20.7331   45.5560 H   0  0  0  0  0  0  0  0  0  0  0  0
    2.7621   21.2885   44.4410 H   0  0  0  0  0  0  0  0  0  0  0  0
  1  2  2  0
  1  6  1  0
  2  3  1  0
  3  4  2  0
  4  5  1  0
  5  6  2  0
  6  7  1  0
  7  8  2  0
  7  9  1  0
  8 16  1  0
  9 10  2  0
 10 11  1  0
 10 15  1  0
 11 12  1  0
 11 13  1  0
 13 14  2  0
 14 15  1  0
 15 16  2  0
 16 17  1  0
  1 18  1  0
  2 19  1  0
  3 20  1  0
  5 21  1  0
 12 22  1  0
 12 23  1  0
 12 24  1  0
 14 25  1  0
 17 26  1  0
 17 27  1  0
M  END
>  <mol_id>  (67) 
2026-09-17-6fnk-s0-n100-0067

>  <rmsd_to_ref>  (67) 
3.484693877556446

>  <pose_kind>  (67) 
rigid

$$$$
6fnk.A
     RDKit          3D

 27 29  0  0  0  0  0  0  0  0999 V2000
    2.7770   16.7291   44.0081 C   0  0  0  0  0  0  0  0  0  0  0  0
    3.2688   15.9057   45.0015 C   0  0  0  0  0  0  0  0  0  0  0  0
    2.7583   16.1116   46.2875 C   0  0  0  0  0  0  0  0  0  0  0  0
    1.8527   17.0462   46.5362 N   0  0  0  0  0  0  0  0  0  0  0  0
    1.3953   17.8271   45.5581 C   0  0  0  0  0  0  0  0  0  0  0  0
    1.8308   17.7072   44.2613 C   0  0  0  0  0  0  0  0  0  0  0  0
    1.3530   18.5437   43.1667 C   0  0  0  0  0  0  0  0  0  0  0  0
    1.8149   18.3835   41.9093 N   0  0  0  0  0  0  0  0  0  0  0  0
    0.4316   19.4971   43.4106 N   0  0  0  0  0  0  0  0  0  0  0  0
   -0.0395   20.2989   42.4116 C   0  0  0  0  0  0  0  0  0  0  0  0
   -0.9341   21.3041   42.3650 N   0  0  0  0  0  0  0  0  0  0  0  0
   -1.6978   21.8332   43.4997 C   0  0  0  0  0  0  0  0  0  0  0  0
   -1.0066   21.7342   41.1156 N   0  0  0  0  0  0  0  0  0  0  0  0
   -0.1851   21.0449   40.3236 C   0  0  0  0  0  0  0  0  0  0  0  0
    0.4441   20.1213   41.1313 C   0  0  0  0  0  0  0  0  0  0  0  0
    1.3896   19.1433   40.8799 C   0  0  0  0  0  0  0  0  0  0  0  0
    1.9154   18.9277   39.5673 N   0  0  0  0  0  0  0  0  0  0  0  0
    3.1504   16.5985   42.9950 H   0  0  0  0  0  0  0  0  0  0  0  0
    4.0104   15.1407   44.7969 H   0  0  0  0  0  0  0  0  0  0  0  0
    3.1626   15.4488   47.0538 H   0  0  0  0  0  0  0  0  0  0  0  0
    0.6620   18.5706   45.8067 H   0  0  0  0  0  0  0  0  0  0  0  0
   -1.9523   22.8813   43.2461 H   0  0  0  0  0  0  0  0  0  0  0  0
   -2.6848   21.3149   43.5795 H   0  0  0  0  0  0  0  0  0  0  0  0
   -1.1314   21.7241   44.4285 H   0  0  0  0  0  0  0  0  0  0  0  0
    0.0068   21.1300   39.2599 H   0  0  0  0  0  0  0  0  0  0  0  0
    2.9676   18.8598   39.4449 H   0  0  0  0  0  0  0  0  0  0  0  0
    1.2616   18.8409   38.7550 H   0  0  0  0  0  0  0  0  0  0  0  0
  1  2  2  0
  1  6  1  0
  2  3  1  0
  3  4  2  0
  4  5  1  0
  5  6  2  0
  6  7  1  0
  7  8  2  0
  7  9  1  0
  8 16  1  0
  9 10  2  0
 10 11  1  0
 10 15  1  0
 11 12  1  0
 11 13  1  0
 13 14  2  0
 14 15  1  0
 15 16  2  0
 16 17  1  0
  1 18  1  0
  2 19  1  0
  3 20  1  0
  5 21  1  0
 12 22  1  0
 12 23  1  0
 12 24  1  0
 14 25  1  0
 17 26  1  0
 17 27  1  0
M  END
>  <mol_id>  (68) 
2026-09-17-6fnk-s0-n100-0068

>  <rmsd_to_ref>  (68) 
3.530612244899808

>  <pose_kind>  (68) 
conformer

$$$$
6fnk.A
     RDKit          3D

 27 29  0  0  0  0  0  0  0  0999 V2000
    4.6852   18.3990   43.4631 C   0  0  0  0  0  0  0  0  0  0  0  0
    5.8568   18.3359   44.2177 C   0  0  0  0  0  0  0  0  0  0  0  0
    5.8514   17.7072   45.4543 C   0  0  0  0  0  0  0  0  0  0  0  0
    4.6730   17.1344   45.9408 N   0  0  0  0  0  0  0  0  0  0  0  0
    3.4957   17.2009   45.1803 C   0  0  0  0  0  0  0  0  0  0  0  0
    3.4996   17.8339   43.9387 C   0  0  0  0  0  0  0  0  0  0  0  0
    2.3240   17.9005   43.1839 C   0  0  0  0  0  0  0  0  0  0  0  0
    2.2568   18.6504   42.0752 N   0  0  0  0  0  0  0  0  0  0  0  0
    1.2487   17.2032   43.5642 N   0  0  0  0  0  0  0  0  0  0  0  0
    0.0981   17.2489   42.8692 C   0  0  0  0  0  0  0  0  0  0  0  0
   -1.0927   16.6613   43.0609 N   0  0  0  0  0  0  0  0  0  0  0  0
   -1.4387   15.7550   44.1600 C   0  0  0  0  0  0  0  0  0  0  0  0
   -1.8804   16.9788   42.1688 N   0  0  0  0  0  0  0  0  0  0  0  0
   -1.2205   17.7796   41.3160 C   0  0  0  0  0  0  0  0  0  0  0  0
    0.0269   17.9805   41.7615 C   0  0  0  0  0  0  0  0  0  0  0  0
    1.1179   18.6881   41.3590 C   0  0  0  0  0  0  0  0  0  0  0  0
    1.0795   19.4470   40.2369 N   0  0  0  0  0  0  0  0  0  0  0  0
    4.6952   18.8990   42.4834 H   0  0  0  0  0  0  0  0  0  0  0  0
    6.7844   18.7844   43.8325 H   0  0  0  0  0  0  0  0  0  0  0  0
    6.7738   17.6594   46.0516 H   0  0  0  0  0  0  0  0  0  0  0  0
    2.5678   16.7524   45.5647 H   0  0  0  0  0  0  0  0  0  0  0  0
   -2.3602   16.1055   44.6479 H   0  0  0  0  0  0  0  0  0  0  0  0
   -1.5966   14.7412   43.7634 H   0  0  0  0  0  0  0  0  0  0  0  0
   -0.6191   15.7384   44.8934 H   0  0  0  0  0  0  0  0  0  0  0  0
   -1.6402   18.2054   40.3926 H   0  0  0  0  0  0  0  0  0  0  0  0
    0.2182   19.4904   39.6738 H   0  0  0  0  0  0  0  0  0  0  0  0
    1.9116   19.9806   39.9473 H   0  0  0  0  0  0  0  0  0  0  0  0
  1  2  2  0
  1  6  1  0
  2  3  1  0
  3  4  2  0
  4  5  1  0
  5  6  2  0
  6  7  1  0
  7  8  2  0
  7  9  1  0
  8 16  1  0
  9 10  2  0
 10 11  1  0
 10 15  1  0
 11 12  1  0
 11 13  1  0
 13 14  2  0
 14 15  1  0
 15 16  2  0
 16 17  1  0
  1 18  1  0
  2 19  1  0
  3 20  1  0
  5 21  1  0
 12 22  1  0
 12 23  1  0
 12 24  1  0
 14 25  1  0
 17 26  1  0
 17 27  1  0
M  END
>  <mol_id>  (69) 
2026-09-17-6fnk-s0-n100-0069

>  <rmsd_to_ref>  (69) 
3.5765306122459477

>  <pose_kind>  (69) 
rigid

$$$$
6fnk.A
     RDKit          3D

 27 29  0  0  0  0  0  0  0  0999 V2000
    3.7885   18.7516   41.9079 C   0  0  0  0  0  0  0  0  0  0  0  0
    5.0669   18.7534   42.4295 C   0  0  0  0  0  0  0  0  0  0  0  0
    5.1716   18.9138   43.8153 C   0  0  0  0  0  0  0  0  0  0  0  0
    4.1011   19.0561   44.5830 N   0  0  0  0  0  0  0  0  0  0  0  0
    2.8786   19.0506   44.0527 C   0  0  0  0  0  0  0  0  0  0  0  0
    2.6661   18.8998   42.7044 C   0  0  0  0  0  0  0  0  0  0  0  0
    1.3438   18.8890   42.0900 C   0  0  0  0  0  0  0  0  0  0  0  0
    1.1912   18.7373   40.7580 N   0  0  0  0  0  0  0  0  0  0  0  0
    0.2490   19.0331   42.8635 N   0  0  0  0  0  0  0  0  0  0  0  0
   -1.0048   19.0281   42.3242 C   0  0  0  0  0  0  0  0  0  0  0  0
   -2.2429   19.1481   42.8395 N   0  0  0  0  0  0  0  0  0  0  0  0
   -2.5741   19.3328   44.2563 C   0  0  0  0  0  0  0  0  0  0  0  0
   -3.1128   19.0706   41.8453 N   0  0  0  0  0  0  0  0  0  0  0  0
   -2.4916   18.9020   40.6778 C   0  0  0  0  0  0  0  0  0  0  0  0
   -1.1423   18.8718   40.9599 C   0  0  0  0  0  0  0  0  0  0  0  0
   -0.0196   18.7239   40.1653 C   0  0  0  0  0  0  0  0  0  0  0  0
   -0.1199   18.5595   38.7480 N   0  0  0  0  0  0  0  0  0  0  0  0
    3.6674   18.6292   40.8340 H   0  0  0  0  0  0  0  0  0  0  0  0
    5.9429   18.6369   41.8001 H   0  0  0  0  0  0  0  0  0  0  0  0
    6.1916   18.9118   44.2023 H   0  0  0  0  0  0  0  0  0  0  0  0
    2.0410   19.1690   44.7136 H   0  0  0  0  0  0  0  0  0  0  0  0
   -3.5566   19.8440   44.2854 H   0  0  0  0  0  0  0  0  0  0  0  0
   -2.7560   18.3443   44.7450 H   0  0  0  0  0  0  0  0  0  0  0  0
   -1.7748   19.8733   44.7704 H   0  0  0  0  0  0  0  0  0  0  0  0
   -2.8895   18.8011   39.6743 H   0  0  0  0  0  0  0  0  0  0  0  0
    0.4885   19.1624   38.1210 H   0  0  0  0  0  0  0  0  0  0  0  0
   -0.7849   17.8544   38.3539 H   0  0  0  0  0  0  0  0  0  0  0  0
  1  2  2  0
  1  6  1  0
  2  3  1  0
  3  4  2  0
  4  5  1  0
  5  6  2  0
  6  7  1  0
  7  8  2  0
  7  9  1  0
  8 16  1  0
  9 10  2  0
 10 11  1  0
 10 15  1  0
 11 12  1  0
 11 13  1  0
 13 14  2  0
 14 15  1  0
 15 16  2  0
 16 17  1  0
  1 18  1  0
  2 19  1  0
  3 20  1  0
  5 21  1  0
 12 22  1  0
 12 23  1  0
 12 24  1  0
 14 25  1  0
 17 26  1  0
 17 27  1  0
M  END
>  <mol_id>  (70) 
2026-09-17-6fnk-s0-n100-0070

>  <rmsd_to_ref>  (70) 
3.6224489795921913

>  <pose_kind>  (70) 
conformer

$$$$
6fnk.A
     RDKit          3D

 27 29  0  0  0  0  0  0  0  0999 V2000
    1.9614   19.2967   39.9433 C   0  0  0  0  0  0  0  0  0  0  0  0
    1.5870   19.3588   38.6010 C   0  0  0  0  0  0  0  0  0  0  0  0
    1.1292   18.2192   37.9560 C   0  0  0  0  0  0  0  0  0  0  0  0
    1.0402   17.0110   38.6528 N   0  0  0  0  0  0  0  0  0  0  0  0
    1.4190   16.9512   40.0026 C   0  0  0  0  0  0  0  0  0  0  0  0
    1.8808   18.0951   40.6511 C   0  0  0  0  0  0  0  0  0  0  0  0
    2.2600   18.0318   41.9959 C   0  0  0  0  0  0  0  0  0  0  0  0
    2.8688   19.0667   42.5909 N   0  0  0  0  0  0  0  0  0  0  0  0
    2.0086   16.9279   42.7067 N   0  0  0  0  0  0  0  0  0  0  0  0
    2.3658   16.8266   43.9993 C   0  0  0  0  0  0  0  0  0  0  0  0
    2.2364   15.8346   44.8935 N   0  0  0  0  0  0  0  0  0  0  0  0
    1.6191   14.5281   44.6467 C   0  0  0  0  0  0  0  0  0  0  0  0
    2.7055   16.1694   45.9821 N   0  0  0  0  0  0  0  0  0  0  0  0
    3.1442   17.4331   45.8593 C   0  0  0  0  0  0  0  0  0  0  0  0
    2.9591   17.8531   44.6006 C   0  0  0  0  0  0  0  0  0  0  0  0
    3.2125   18.9861   43.8897 C   0  0  0  0  0  0  0  0  0  0  0  0
    3.8189   20.0501   44.4700 N   0  0  0  0  0  0  0  0  0  0  0  0
    2.3239   20.2034   40.4498 H   0  0  0  0  0  0  0  0  0  0  0  0
    1.6546   20.3110   38.0542 H   0  0  0  0  0  0  0  0  0  0  0  0
    0.8365   18.2664   36.8966 H   0  0  0  0  0  0  0  0  0  0  0  0
    1.3514   15.9995   40.5500 H   0  0  0  0  0  0  0  0  0  0  0  0
    2.3078   13.7314   44.9641 H   0  0  0  0  0  0  0  0  0  0  0  0
    0.6820   14.4517   45.2177 H   0  0  0  0  0  0  0  0  0  0  0  0
    1.4042   14.4210   43.5733 H   0  0  0  0  0  0  0  0  0  0  0  0
    3.5877   18.0316   46.6687 H   0  0  0  0  0  0  0  0  0  0  0  0
    4.0904   20.0100   45.4626 H   0  0  0  0  0  0  0  0  0  0  0  0
    4.0082   20.8990   43.9181 H   0  0  0  0  0  0  0  0  0  0  0  0
  1  2  2  0
  1  6  1  0
  2  3  1  0
  3  4  2  0
  4  5  1  0
  5  6  2  0
  6  7  1  0
  7  8  2  0
  7  9  1  0
  8 16  1  0
  9 10  2  0
 10 11  1  0
 10 15  1  0
 11 12  1  0
 11 13  1  0
 13 14  2  0
 14 15  1  0
 15 16  2  0
 16 17  1  0
  1 18  1  0
  2 19  1  0
  3 20  1  0
  5 21  1  0
 12 22  1  0
 12 23  1  0
 12 24  1  0
 14 25  1  0
 17 26  1  0
 17 27  1  0
M  END
>  <mol_id>  (71) 
2026-09-17-6fnk-s0-n100-0071

>  <rmsd_to_ref>  (71) 
3.668367346945241

>  <pose_kind>  (71) 
rigid

$$$$
6fnk.A
     RDKit          3D

 27 29  0  0  0  0  0  0  0  0999 V2000
    4.6382   18.6323   43.7797 C   0  0  0  0  0  0  0  0  0  0  0  0
    5.8027   18.6574   44.5214 C   0  0  0  0  0  0  0  0  0  0  0  0
    5.7635   18.0083   45.7600 C   0  0  0  0  0  0  0  0  0  0  0  0
    4.6681   17.4034   46.1953 N   0  0  0  0  0  0  0  0  0  0  0  0
    3.5578   17.3946   45.4585 C   0  0  0  0  0  0  0  0  0  0  0  0
    3.4905   18.0022   44.2287 C   0  0  0  0  0  0  0  0  0  0  0  0
    2.2937   18.0125   43.3959 C   0  0  0  0  0  0  0  0  0  0  0  0
    2.2818   18.6251   42.1939 N   0  0  0  0  0  0  0  0  0  0  0  0
    1.1745   17.3995   43.8309 N   0  0  0  0  0  0  0  0  0  0  0  0
    0.0353   17.3884   43.0792 C   0  0  0  0  0  0  0  0  0  0  0  0
   -1.1944   16.8693   43.2559 N   0  0  0  0  0  0  0  0  0  0  0  0
   -1.6513   16.1105   44.4248 C   0  0  0  0  0  0  0  0  0  0  0  0
   -1.9228   17.1622   42.1906 N   0  0  0  0  0  0  0  0  0  0  0  0
   -1.2149   17.8632   41.3047 C   0  0  0  0  0  0  0  0  0  0  0  0
    0.0410   18.0198   41.8522 C   0  0  0  0  0  0  0  0  0  0  0  0
    1.1888   18.6492   41.4048 C   0  0  0  0  0  0  0  0  0  0  0  0
    1.2352   19.3144   40.1395 N   0  0  0  0  0  0  0  0  0  0  0  0
    4.6304   19.1267   42.8109 H   0  0  0  0  0  0  0  0  0  0  0  0
    6.6992   19.1530   44.1642 H   0  0  0  0  0  0  0  0  0  0  0  0
    6.6954   18.0425   46.3261 H   0  0  0  0  0  0  0  0  0  0  0  0
    2.6946   16.8921   45.8519 H   0  0  0  0  0  0  0  0  0  0  0  0
   -2.7505   16.2405   44.4741 H   0  0  0  0  0  0  0  0  0  0  0  0
   -1.5043   15.0151   44.2588 H   0  0  0  0  0  0  0  0  0  0  0  0
   -1.1229   16.4361   45.3248 H   0  0  0  0  0  0  0  0  0  0  0  0
   -1.4930   18.2632   40.3361 H   0  0  0  0  0  0  0  0  0  0  0  0
    1.6299   20.2989   40.0957 H   0  0  0  0  0  0  0  0  0  0  0  0
    0.8829   18.8259   39.2839 H   0  0  0  0  0  0  0  0  0  0  0  0
  1  2  2  0
  1  6  1  0
  2  3  1  0
  3  4  2  0
  4  5  1  0
  5  6  2  0
  6  7  1  0
  7  8  2  0
  7  9  1  0
  8 16  1  0
  9 10  2  0
 10 11  1  0
 10 15  1  0
 11 12  1  0
 11 13  1  0
 13 14  2  0
 14 15  1  0
 15 16  2  0
 16 17  1  0
  1 18  1  0
  2 19  1  0
  3 20  1  0
  5 21  1  0
 12 22  1  0
 12 23  1  0
 12 24  1  0
 14 25  1  0
 17 26  1  0
 17 27  1  0
M  END
>  <mol_id>  (72) 
2026-09-17-6fnk-s0-n100-0072

>  <rmsd_to_ref>  (72) 
3.714285714291869

>  <pose_kind>  (72) 
conformer

$$$$
6fnk.A
     RDKit          3D

 27 29  0  0  0  0  0  0  0  0999 V2000
    1.8440   19.6257   39.0519 C   0  0  0  0  0  0  0  0  0  0  0  0
    1.2433   19.2468   37.8512 C   0  0  0  0  0  0  0  0  0  0  0  0
    0.4532   18.1077   37.8011 C   0  0  0  0  0  0  0  0  0  0  0  0
    0.2568   17.3432   38.9545 N   0  0  0  0  0  0  0  0  0  0  0  0
    0.8635   17.7259   40.1605 C   0  0  0  0  0  0  0  0  0  0  0  0
    1.6591   18.8691   40.2116 C   0  0  0  0  0  0  0  0  0  0  0  0
    2.2643   19.2468   41.4145 C   0  0  0  0  0  0  0  0  0  0  0  0
    3.1695   20.2344   41.4517 N   0  0  0  0  0  0  0  0  0  0  0  0
    1.9355   18.6220   42.5496 N   0  0  0  0  0  0  0  0  0  0  0  0
    2.5023   18.9513   43.7240 C   0  0  0  0  0  0  0  0  0  0  0  0
    2.3476   18.4657   44.9653 N   0  0  0  0  0  0  0  0  0  0  0  0
    1.4457   17.3791   45.3585 C   0  0  0  0  0  0  0  0  0  0  0  0
    3.0709   19.0690   45.7590 N   0  0  0  0  0  0  0  0  0  0  0  0
    3.7228   20.0182   45.0675 C   0  0  0  0  0  0  0  0  0  0  0  0
    3.3918   19.9380   43.7718 C   0  0  0  0  0  0  0  0  0  0  0  0
    3.7286   20.5878   42.6239 C   0  0  0  0  0  0  0  0  0  0  0  0
    4.6342   21.5958   42.6354 N   0  0  0  0  0  0  0  0  0  0  0  0
    2.4697   20.5297   39.0860 H   0  0  0  0  0  0  0  0  0  0  0  0
    1.3961   19.8509   36.9448 H   0  0  0  0  0  0  0  0  0  0  0  0
   -0.0185   17.8063   36.8542 H   0  0  0  0  0  0  0  0  0  0  0  0
    0.7109   17.1225   41.0673 H   0  0  0  0  0  0  0  0  0  0  0  0
    2.0080   16.6235   45.9267 H   0  0  0  0  0  0  0  0  0  0  0  0
    0.6370   17.7827   45.9857 H   0  0  0  0  0  0  0  0  0  0  0  0
    1.0152   16.9160   44.4585 H   0  0  0  0  0  0  0  0  0  0  0  0
    4.4218   20.7497   45.4992 H   0  0  0  0  0  0  0  0  0  0  0  0
    5.0744   21.8826   43.5213 H   0  0  0  0  0  0  0  0  0  0  0  0
    4.8823   22.0753   41.7582 H   0  0  0  0  0  0  0  0  0  0  0  0
  1  2  2  0
  1  6  1  0
  2  3  1  0
  3  4  2  0
  4  5  1  0
  5  6  2  0
  6  7  1  0
  7  8  2  0
  7  9  1  0
  8 16  1  0
  9 10  2  0
 10 11  1  0
 10 15  1  0
 11 12  1  0
 11 13  1  0
 13 14  2  0
 14 15  1  0
 15 16  2  0
 16 17  1  0
  1 18  1  0
  2 19  1  0
  3 20  1  0
  5 21  1  0
 12 22  1  0
 12 23  1  0
 12 24  1  0
 14 25  1  0
 17 26  1  0
 17 27  1  0
M  END
>  <mol_id>  (73) 
2026-09-17-6fnk-s0-n100-0073

>  <rmsd_to_ref>  (73) 
3.7602040816334683

>  <pose_kind>  (73) 
rigid

$$$$
6fnk.A
     RDKit          3D

 27 29  0  0  0  0  0  0  0  0999 V2000
   -1.4477   16.8952   39.5541 C   0  0  0  0  0  0  0  0  0  0  0  0
   -2.2918   16.3787   38.5913 C   0  0  0  0  0  0  0  0  0  0  0  0
   -2.0651   15.0505   38.2152 C   0  0  0  0  0  0  0  0  0  0  0  0
   -1.0931   14.3297   38.7549 N   0  0  0  0  0  0  0  0  0  0  0  0
   -0.2928   14.8538   39.6826 C   0  0  0  0  0  0  0  0  0  0  0  0
   -0.4303   16.1477   40.1218 C   0  0  0  0  0  0  0  0  0  0  0  0
    0.4263   16.7536   41.1342 C   0  0  0  0  0  0  0  0  0  0  0  0
    0.2475   18.0310   41.5302 N   0  0  0  0  0  0  0  0  0  0  0  0
    1.4177   16.0278   41.6887 N   0  0  0  0  0  0  0  0  0  0  0  0
    2.2396   16.5608   42.6392 C   0  0  0  0  0  0  0  0  0  0  0  0
    3.2818   16.0840   43.3458 N   0  0  0  0  0  0  0  0  0  0  0  0
    3.8423   14.7319   43.2518 C   0  0  0  0  0  0  0  0  0  0  0  0
    3.7155   17.0476   44.1425 N   0  0  0  0  0  0  0  0  0  0  0  0
    2.9924   18.1572   43.9892 C   0  0  0  0  0  0  0  0  0  0  0  0
    2.0424   17.8689   43.0322 C   0  0  0  0  0  0  0  0  0  0  0  0
    1.0252   18.6147   42.4640 C   0  0  0  0  0  0  0  0  0  0  0  0
    0.7883   19.9731   42.8442 N   0  0  0  0  0  0  0  0  0  0  0  0
   -1.5933   17.9251   39.8721 H   0  0  0  0  0  0  0  0  0  0  0  0
   -3.0875   16.9696   38.1499 H   0  0  0  0  0  0  0  0  0  0  0  0
   -2.7451   14.6662   37.4535 H   0  0  0  0  0  0  0  0  0  0  0  0
    0.4809   14.2323   40.0915 H   0  0  0  0  0  0  0  0  0  0  0  0
    4.9003   14.8073   43.5716 H   0  0  0  0  0  0  0  0  0  0  0  0
    3.3663   14.0604   44.0078 H   0  0  0  0  0  0  0  0  0  0  0  0
    3.7086   14.3299   42.2439 H   0  0  0  0  0  0  0  0  0  0  0  0
    3.0699   19.1233   44.4750 H   0  0  0  0  0  0  0  0  0  0  0  0
    0.6759   20.7033   42.0819 H   0  0  0  0  0  0  0  0  0  0  0  0
    0.7299   20.2247   43.8581 H   0  0  0  0  0  0  0  0  0  0  0  0
  1  2  2  0
  1  6  1  0
  2  3  1  0
  3  4  2  0
  4  5  1  0
  5  6  2  0
  6  7  1  0
  7  8  2  0
  7  9  1  0
  8 16  1  0
  9 10  2  0
 10 11  1  0
 10 15  1  0
 11 12  1  0
 11 13  1  0
 13 14  2  0
 14 15  1  0
 15 16  2  0
 16 17  1  0
  1 18  1  0
  2 19  1  0
  3 20  1  0
  5 21  1  0
 12 22  1  0
 12 23  1  0
 12 24  1  0
 14 25  1  0
 17 26  1  0
 17 27  1  0
M  END
>  <mol_id>  (74) 
2026-09-17-6fnk-s0-n100-0074

>  <rmsd_to_ref>  (74) 
3.8061224489839853

>  <pose_kind>  (74) 
conformer

$$$$
6fnk.A
     RDKit          3D

 27 29  0  0  0  0  0  0  0  0999 V2000
    2.8265   17.7658   40.0014 C   0  0  0  0  0  0  0  0  0  0  0  0
    3.9890   17.8109   39.2316 C   0  0  0  0  0  0  0  0  0  0  0  0
    4.9601   16.8322   39.3856 C   0  0  0  0  0  0  0  0  0  0  0  0
    4.7709   15.8004   40.3091 N   0  0  0  0  0  0  0  0  0  0  0  0
    3.6013   15.7587   41.0830 C   0  0  0  0  0  0  0  0  0  0  0  0
    2.6258   16.7422   40.9306 C   0  0  0  0  0  0  0  0  0  0  0  0
    1.4620   16.6993   41.7051 C   0  0  0  0  0  0  0  0  0  0  0  0
    0.5945   17.7208   41.7052 N   0  0  0  0  0  0  0  0  0  0  0  0
    1.2010   15.6235   42.4545 N   0  0  0  0  0  0  0  0  0  0  0  0
    0.0969   15.5492   43.2189 C   0  0  0  0  0  0  0  0  0  0  0  0
   -0.3603   14.5997   44.0493 N   0  0  0  0  0  0  0  0  0  0  0  0
    0.2902   13.3167   44.3317 C   0  0  0  0  0  0  0  0  0  0  0  0
   -1.4302   14.9441   44.5532 N   0  0  0  0  0  0  0  0  0  0  0  0
   -1.7469   16.1453   44.0425 C   0  0  0  0  0  0  0  0  0  0  0  0
   -0.7749   16.5527   43.2153 C   0  0  0  0  0  0  0  0  0  0  0  0
   -0.5246   17.6501   42.4494 C   0  0  0  0  0  0  0  0  0  0  0  0
   -1.3899   18.6929   42.4246 N   0  0  0  0  0  0  0  0  0  0  0  0
    2.0599   18.5445   39.8754 H   0  0  0  0  0  0  0  0  0  0  0  0
    4.1356   18.6217   38.5030 H   0  0  0  0  0  0  0  0  0  0  0  0
    5.8786   16.8684   38.7813 H   0  0  0  0  0  0  0  0  0  0  0  0
    3.4540   14.9479   41.8117 H   0  0  0  0  0  0  0  0  0  0  0  0
    0.3847   13.1852   45.4197 H   0  0  0  0  0  0  0  0  0  0  0  0
   -0.3157   12.4987   43.9148 H   0  0  0  0  0  0  0  0  0  0  0  0
    1.2897   13.3035   43.8725 H   0  0  0  0  0  0  0  0  0  0  0  0
   -2.6643   16.7087   44.2688 H   0  0  0  0  0  0  0  0  0  0  0  0
   -2.2524   18.6598   42.9865 H   0  0  0  0  0  0  0  0  0  0  0  0
   -1.1847   19.5184   41.8437 H   0  0  0  0  0  0  0  0  0  0  0  0
  1  2  2  0
  1  6  1  0
  2  3  1  0
  3  4  2  0
  4  5  1  0
  5  6  2  0
  6  7  1  0
  7  8  2  0
  7  9  1  0
  8 16  1  0
  9 10  2  0
 10 11  1  0
 10 15  1  0
 11 12  1  0
 11 13  1  0
 13 14  2  0
 14 15  1  0
 15 16  2  0
 16 17  1  0
  1 18  1  0
  2 19  1  0
  3 20  1  0
  5 21  1  0
 12 22  1  0
 12 23  1  0
 12 24  1  0
 14 25  1  0
 17 26  1  0
 17 27  1  0
M  END
>  <mol_id>  (75) 
2026-09-17-6fnk-s0-n100-0075

>  <rmsd_to_ref>  (75) 
3.8520408163331195

>  <pose_kind>  (75) 
rigid

$$$$
6fnk.A
     RDKit          3D

 27 29  0  0  0  0  0  0  0  0999 V2000
   -0.4623   18.4548   39.4318 C   0  0  0  0  0  0  0  0  0  0  0  0
   -0.7584   18.3891   38.0848 C   0  0  0  0  0  0  0  0  0  0  0  0
   -0.5174   17.1633   37.4554 C   0  0  0  0  0  0  0  0  0  0  0  0
   -0.0313   16.1237   38.1177 N   0  0  0  0  0  0  0  0  0  0  0  0
    0.2457   16.2151   39.4179 C   0  0  0  0  0  0  0  0  0  0  0  0
    0.0457   17.3725   40.1295 C   0  0  0  0  0  0  0  0  0  0  0  0
    0.3374   17.5085   41.5517 C   0  0  0  0  0  0  0  0  0  0  0  0
    0.1219   18.6701   42.2033 N   0  0  0  0  0  0  0  0  0  0  0  0
    0.8321   16.4559   42.2335 N   0  0  0  0  0  0  0  0  0  0  0  0
    1.1171   16.5455   43.5653 C   0  0  0  0  0  0  0  0  0  0  0  0
    1.6056   15.6818   44.4753 N   0  0  0  0  0  0  0  0  0  0  0  0
    1.9890   14.2885   44.2245 C   0  0  0  0  0  0  0  0  0  0  0  0
    1.6809   16.3074   45.6390 N   0  0  0  0  0  0  0  0  0  0  0  0
    1.2562   17.5667   45.5338 C   0  0  0  0  0  0  0  0  0  0  0  0
    0.8905   17.7414   44.2158 C   0  0  0  0  0  0  0  0  0  0  0  0
    0.3829   18.8220   43.5172 C   0  0  0  0  0  0  0  0  0  0  0  0
    0.1342   20.0779   44.1548 N   0  0  0  0  0  0  0  0  0  0  0  0
   -0.6365   19.3919   39.9554 H   0  0  0  0  0  0  0  0  0  0  0  0
   -1.1563   19.2408   37.5433 H   0  0  0  0  0  0  0  0  0  0  0  0
   -0.7595   17.1374   36.3919 H   0  0  0  0  0  0  0  0  0  0  0  0
    0.6379   15.3470   39.9129 H   0  0  0  0  0  0  0  0  0  0  0  0
    2.7444   14.0273   44.9916 H   0  0  0  0  0  0  0  0  0  0  0  0
    1.1290   13.6054   44.4316 H   0  0  0  0  0  0  0  0  0  0  0  0
    2.3372   14.1653   43.1955 H   0  0  0  0  0  0  0  0  0  0  0  0
    1.1823   18.3516   46.2782 H   0  0  0  0  0  0  0  0  0  0  0  0
    0.4986   20.9632   43.6962 H   0  0  0  0  0  0  0  0  0  0  0  0
   -0.3980   20.1055   45.0552 H   0  0  0  0  0  0  0  0  0  0  0  0
  1  2  2  0
  1  6  1  0
  2  3  1  0
  3  4  2  0
  4  5  1  0
  5  6  2  0
  6  7  1  0
  7  8  2  0
  7  9  1  0
  8 16  1  0
  9 10  2  0
 10 11  1  0
 10 15  1  0
 11 12  1  0
 11 13  1  0
 13 14  2  0
 14 15  1  0
 15 16  2  0
 16 17  1  0
  1 18  1  0
  2 19  1  0
  3 20  1  0
  5 21  1  0
 12 22  1  0
 12 23  1  0
 12 24  1  0
 14 25  1  0
 17 26  1  0
 17 27  1  0
M  END
>  <mol_id>  (76) 
2026-09-17-6fnk-s0-n100-0076

>  <rmsd_to_ref>  (76) 
3.8979591836735072

>  <pose_kind>  (76) 
conformer

$$$$
6fnk.A
     RDKit          3D

 27 29  0  0  0  0  0  0  0  0999 V2000
    1.2618   17.0721   44.3747 C   0  0  0  0  0  0  0  0  0  0  0  0
    0.7702   15.7762   44.5324 C   0  0  0  0  0  0  0  0  0  0  0  0
   -0.2817   15.3336   43.7438 C   0  0  0  0  0  0  0  0  0  0  0  0
   -0.8452   16.1854   42.7896 N   0  0  0  0  0  0  0  0  0  0  0  0
   -0.3496   17.4889   42.6344 C   0  0  0  0  0  0  0  0  0  0  0  0
    0.7059   17.9353   43.4274 C   0  0  0  0  0  0  0  0  0  0  0  0
    1.1962   19.2359   43.2720 C   0  0  0  0  0  0  0  0  0  0  0  0
    2.0861   19.7460   44.1346 N   0  0  0  0  0  0  0  0  0  0  0  0
    0.7805   19.9854   42.2461 N   0  0  0  0  0  0  0  0  0  0  0  0
    1.2227   21.2431   42.0687 C   0  0  0  0  0  0  0  0  0  0  0  0
    0.9427   22.1731   41.1429 N   0  0  0  0  0  0  0  0  0  0  0  0
    0.0186   22.0153   40.0159 C   0  0  0  0  0  0  0  0  0  0  0  0
    1.5833   23.2031   41.3568 N   0  0  0  0  0  0  0  0  0  0  0  0
    2.3524   22.9816   42.4355 C   0  0  0  0  0  0  0  0  0  0  0  0
    2.1147   21.7525   42.9126 C   0  0  0  0  0  0  0  0  0  0  0  0
    2.5524   20.9959   43.9562 C   0  0  0  0  0  0  0  0  0  0  0  0
    3.4585   21.4845   44.8376 N   0  0  0  0  0  0  0  0  0  0  0  0
    2.0960   17.4180   45.0029 H   0  0  0  0  0  0  0  0  0  0  0  0
    1.2164   15.1057   45.2816 H   0  0  0  0  0  0  0  0  0  0  0  0
   -0.6722   14.3130   43.8693 H   0  0  0  0  0  0  0  0  0  0  0  0
   -0.7951   18.1599   41.8852 H   0  0  0  0  0  0  0  0  0  0  0  0
   -0.6961   22.8514   40.0079 H   0  0  0  0  0  0  0  0  0  0  0  0
    0.5867   22.0094   39.0740 H   0  0  0  0  0  0  0  0  0  0  0  0
   -0.5282   21.0665   40.1202 H   0  0  0  0  0  0  0  0  0  0  0  0
    3.0683   23.6997   42.8620 H   0  0  0  0  0  0  0  0  0  0  0  0
    3.8286   22.4385   44.7201 H   0  0  0  0  0  0  0  0  0  0  0  0
    3.7770   20.9019   45.6250 H   0  0  0  0  0  0  0  0  0  0  0  0
  1  2  2  0
  1  6  1  0
  2  3  1  0
  3  4  2  0
  4  5  1  0
  5  6  2  0
  6  7  1  0
  7  8  2  0
  7  9  1  0
  8 16  1  0
  9 10  2  0
 10 11  1  0
 10 15  1  0
 11 12  1  0
 11 13  1  0
 13 14  2  0
 14 15  1  0
 15 16  2  0
 16 17  1  0
  1 18  1  0
  2 19  1  0
  3 20  1  0
  5 21  1  0
 12 22  1  0
 12 23  1  0
 12 24  1  0
 14 25  1  0
 17 26  1  0
 17 27  1  0
M  END
>  <mol_id>  (77) 
2026-09-17-6fnk-s0-n100-0077

>  <rmsd_to_ref>  (77) 
3.9438775510231

>  <pose_kind>  (77) 
rigid

$$$$
6fnk.A
     RDKit          3D

 27 29  0  0  0  0  0  0  0  0999 V2000
    0.1344   16.1594   42.5068 C   0  0  0  0  0  0  0  0  0  0  0  0
   -1.0438   15.5112   42.1933 C   0  0  0  0  0  0  0  0  0  0  0  0
   -2.1746   15.8913   42.9240 C   0  0  0  0  0  0  0  0  0  0  0  0
   -2.1156   16.8224   43.8648 N   0  0  0  0  0  0  0  0  0  0  0  0
   -0.9647   17.4320   44.1469 C   0  0  0  0  0  0  0  0  0  0  0  0
    0.2027   17.1329   43.4885 C   0  0  0  0  0  0  0  0  0  0  0  0
    1.4790   17.7790   43.7706 C   0  0  0  0  0  0  0  0  0  0  0  0
    2.5975   17.4469   43.0930 N   0  0  0  0  0  0  0  0  0  0  0  0
    1.5483   18.7275   44.7262 N   0  0  0  0  0  0  0  0  0  0  0  0
    2.7251   19.3542   45.0181 C   0  0  0  0  0  0  0  0  0  0  0  0
    3.0803   20.3109   45.8964 N   0  0  0  0  0  0  0  0  0  0  0  0
    2.1904   20.9793   46.8516 C   0  0  0  0  0  0  0  0  0  0  0  0
    4.3743   20.5458   45.7497 N   0  0  0  0  0  0  0  0  0  0  0  0
    4.8962   19.7726   44.7972 C   0  0  0  0  0  0  0  0  0  0  0  0
    3.8593   19.0020   44.3151 C   0  0  0  0  0  0  0  0  0  0  0  0
    3.7894   18.0289   43.3344 C   0  0  0  0  0  0  0  0  0  0  0  0
    4.9418   17.6359   42.5838 N   0  0  0  0  0  0  0  0  0  0  0  0
    1.0350   15.8904   41.9596 H   0  0  0  0  0  0  0  0  0  0  0  0
   -1.0911   14.7489   41.4228 H   0  0  0  0  0  0  0  0  0  0  0  0
   -3.0921   15.3648   42.6575 H   0  0  0  0  0  0  0  0  0  0  0  0
   -0.9650   18.1800   44.9169 H   0  0  0  0  0  0  0  0  0  0  0  0
    2.8297   21.3260   47.6873 H   0  0  0  0  0  0  0  0  0  0  0  0
    1.7757   21.9167   46.4061 H   0  0  0  0  0  0  0  0  0  0  0  0
    1.3819   20.3097   47.1567 H   0  0  0  0  0  0  0  0  0  0  0  0
    5.9107   19.7031   44.4210 H   0  0  0  0  0  0  0  0  0  0  0  0
    5.1548   16.6010   42.4819 H   0  0  0  0  0  0  0  0  0  0  0  0
    5.5520   18.3670   42.1504 H   0  0  0  0  0  0  0  0  0  0  0  0
  1  2  2  0
  1  6  1  0
  2  3  1  0
  3  4  2  0
  4  5  1  0
  5  6  2  0
  6  7  1  0
  7  8  2  0
  7  9  1  0
  8 16  1  0
  9 10  2  0
 10 11  1  0
 10 15  1  0
 11 12  1  0
 11 13  1  0
 13 14  2  0
 14 15  1  0
 15 16  2  0
 16 17  1  0
  1 18  1  0
  2 19  1  0
  3 20  1  0
  5 21  1  0
 12 22  1  0
 12 23  1  0
 12 24  1  0
 14 25  1  0
 17 26  1  0
 17 27  1  0
M  END
>  <mol_id>  (78) 
2026-09-17-6fnk-s0-n100-0078

>  <rmsd_to_ref>  (78) 
3.9897959183702714

>  <pose_kind>  (78) 
conformer

$$$$
6fnk.A
     RDKit          3D

 27 29  0  0  0  0  0  0  0  0999 V2000
   -1.1555   14.4892   41.8454 C   0  0  0  0  0  0  0  0  0  0  0  0
   -1.7055   13.4440   42.5876 C   0  0  0  0  0  0  0  0  0  0  0  0
   -1.6514   13.4749   43.9734 C   0  0  0  0  0  0  0  0  0  0  0  0
   -1.0492   14.5553   44.6243 N   0  0  0  0  0  0  0  0  0  0  0  0
   -0.4955   15.6044   43.8751 C   0  0  0  0  0  0  0  0  0  0  0  0
   -0.5476   15.5734   42.4827 C   0  0  0  0  0  0  0  0  0  0  0  0
    0.0073   16.6196   41.7385 C   0  0  0  0  0  0  0  0  0  0  0  0
    0.1269   16.5318   40.4066 N   0  0  0  0  0  0  0  0  0  0  0  0
    0.4210   17.7299   42.3575 N   0  0  0  0  0  0  0  0  0  0  0  0
    0.9675   18.7531   41.6770 C   0  0  0  0  0  0  0  0  0  0  0  0
    1.4602   19.9364   42.0736 N   0  0  0  0  0  0  0  0  0  0  0  0
    1.5139   20.4278   43.4537 C   0  0  0  0  0  0  0  0  0  0  0  0
    1.8653   20.5826   41.1063 N   0  0  0  0  0  0  0  0  0  0  0  0
    1.6234   19.8524   40.0051 C   0  0  0  0  0  0  0  0  0  0  0  0
    1.0786   18.6792   40.3543 C   0  0  0  0  0  0  0  0  0  0  0  0
    0.6528   17.5573   39.7114 C   0  0  0  0  0  0  0  0  0  0  0  0
    0.7540   17.4466   38.3646 N   0  0  0  0  0  0  0  0  0  0  0  0
   -1.2010   14.4594   40.7467 H   0  0  0  0  0  0  0  0  0  0  0  0
   -2.1819   12.5956   42.0743 H   0  0  0  0  0  0  0  0  0  0  0  0
   -2.0821   12.6499   44.5596 H   0  0  0  0  0  0  0  0  0  0  0  0
   -0.0193   16.4532   44.3877 H   0  0  0  0  0  0  0  0  0  0  0  0
    2.5377   20.7560   43.6863 H   0  0  0  0  0  0  0  0  0  0  0  0
    0.8222   21.2753   43.5683 H   0  0  0  0  0  0  0  0  0  0  0  0
    1.2224   19.6207   44.1418 H   0  0  0  0  0  0  0  0  0  0  0  0
    1.8395   20.1692   38.9743 H   0  0  0  0  0  0  0  0  0  0  0  0
    1.1533   18.2194   37.8130 H   0  0  0  0  0  0  0  0  0  0  0  0
    0.4317   16.5898   37.8926 H   0  0  0  0  0  0  0  0  0  0  0  0
  1  2  2  0
  1  6  1  0
  2  3  1  0
  3  4  2  0
  4  5  1  0
  5  6  2  0
  6  7  1  0
  7  8  2  0
  7  9  1  0
  8 16  1  0
  9 10  2  0
 10 11  1  0
 10 15  1  0
 11 12  1  0
 11 13  1  0
 13 14  2  0
 14 15  1  0
 15 16  2  0
 16 17  1  0
  1 18  1  0
  2 19  1  0
  3 20  1  0
  5 21  1  0
 12 22  1  0
 12 23  1  0
 12 24  1  0
 14 25  1  0
 17 26  1  0
 17 27  1  0
M  END
>  <mol_id>  (79) 
2026-09-17-6fnk-s0-n100-0079

>  <rmsd_to_ref>  (79) 
4.035714285716131

>  <pose_kind>  (79) 
rigid

$$$$
6fnk.A
     RDKit          3D

 27 29  0  0  0  0  0  0  0  0999 V2000
    3.0102   19.3527   38.7099 C   0  0  0  0  0  0  0  0  0  0  0  0
    3.0111   19.6900   37.3709 C   0  0  0  0  0  0  0  0  0  0  0  0
    1.8373   19.4157   36.6611 C   0  0  0  0  0  0  0  0  0  0  0  0
    0.7838   18.8626   37.2438 N   0  0  0  0  0  0  0  0  0  0  0  0
    0.8104   18.5471   38.5383 C   0  0  0  0  0  0  0  0  0  0  0  0
    1.9130   18.7747   39.3247 C   0  0  0  0  0  0  0  0  0  0  0  0
    1.9774   18.4426   40.7430 C   0  0  0  0  0  0  0  0  0  0  0  0
    3.0871   18.6877   41.4703 N   0  0  0  0  0  0  0  0  0  0  0  0
    0.9102   17.8795   41.3443 N   0  0  0  0  0  0  0  0  0  0  0  0
    0.9335   17.5550   42.6698 C   0  0  0  0  0  0  0  0  0  0  0  0
    0.0407   16.9990   43.5103 N   0  0  0  0  0  0  0  0  0  0  0  0
   -1.3160   16.5628   43.1636 C   0  0  0  0  0  0  0  0  0  0  0  0
    0.5988   16.9131   44.7072 N   0  0  0  0  0  0  0  0  0  0  0  0
    1.8412   17.3964   44.6917 C   0  0  0  0  0  0  0  0  0  0  0  0
    2.0768   17.8127   43.3985 C   0  0  0  0  0  0  0  0  0  0  0  0
    3.1725   18.3904   42.7826 C   0  0  0  0  0  0  0  0  0  0  0  0
    4.3755   18.6733   43.5028 N   0  0  0  0  0  0  0  0  0  0  0  0
    3.9055   19.5510   39.2946 H   0  0  0  0  0  0  0  0  0  0  0  0
    3.8743   20.1428   36.8946 H   0  0  0  0  0  0  0  0  0  0  0  0
    1.8635   19.6914   35.6059 H   0  0  0  0  0  0  0  0  0  0  0  0
   -0.0666   18.1009   38.9674 H   0  0  0  0  0  0  0  0  0  0  0  0
   -1.5872   15.7717   43.8903 H   0  0  0  0  0  0  0  0  0  0  0  0
   -2.0492   17.3844   43.3547 H   0  0  0  0  0  0  0  0  0  0  0  0
   -1.3617   16.2435   42.1190 H   0  0  0  0  0  0  0  0  0  0  0  0
    2.5762   17.4804   45.4844 H   0  0  0  0  0  0  0  0  0  0  0  0
    5.3023   18.3637   43.0880 H   0  0  0  0  0  0  0  0  0  0  0  0
    4.3248   19.1763   44.4188 H   0  0  0  0  0  0  0  0  0  0  0  0
  1  2  2  0
  1  6  1  0
  2  3  1  0
  3  4  2  0
  4  5  1  0
  5  6  2  0
  6  7  1  0
  7  8  2  0
  7  9  1  0
  8 16  1  0
  9 10  2  0
 10 11  1  0
 10 15  1  0
 11 12  1  0
 11 13  1  0
 13 14  2  0
 14 15  1  0
 15 16  2  0
 16 17  1  0
  1 18  1  0
  2 19  1  0
  3 20  1  0
  5 21  1  0
 12 22  1  0
 12 23  1  0
 12 24  1  0
 14 25  1  0
 17 26  1  0
 17 27  1  0
M  END
>  <mol_id>  (80) 
2026-09-17-6fnk-s0-n100-0080

>  <rmsd_to_ref>  (80) 
4.08163265306494

>  <pose_kind>  (80) 
conformer

$$$$
6fnk.A
     RDKit          3D

 27 29  0  0  0  0  0  0  0  0999 V2000
    4.0577   13.4350   44.9239 C   0  0  0  0  0  0  0  0  0  0  0  0
    5.0225   12.4280   44.9544 C   0  0  0  0  0  0  0  0  0  0  0  0
    5.6572   12.0410   43.7832 C   0  0  0  0  0  0  0  0  0  0  0  0
    5.3320   12.6631   42.5747 N   0  0  0  0  0  0  0  0  0  0  0  0
    4.3600   13.6747   42.5469 C   0  0  0  0  0  0  0  0  0  0  0  0
    3.7203   14.0630   43.7226 C   0  0  0  0  0  0  0  0  0  0  0  0
    2.7502   15.0700   43.6913 C   0  0  0  0  0  0  0  0  0  0  0  0
    1.9993   15.3390   44.7683 N   0  0  0  0  0  0  0  0  0  0  0  0
    2.5678   15.7837   42.5758 N   0  0  0  0  0  0  0  0  0  0  0  0
    1.6391   16.7539   42.5048 C   0  0  0  0  0  0  0  0  0  0  0  0
    1.2702   17.5753   41.5101 N   0  0  0  0  0  0  0  0  0  0  0  0
    1.8476   17.6099   40.1631 C   0  0  0  0  0  0  0  0  0  0  0  0
    0.3664   18.3254   41.8811 N   0  0  0  0  0  0  0  0  0  0  0  0
    0.1173   18.0473   43.1714 C   0  0  0  0  0  0  0  0  0  0  0  0
    0.8985   17.0355   43.5723 C   0  0  0  0  0  0  0  0  0  0  0  0
    1.0809   16.3216   44.7170 C   0  0  0  0  0  0  0  0  0  0  0  0
    0.3411   16.5794   45.8228 N   0  0  0  0  0  0  0  0  0  0  0  0
    3.5574   13.7378   45.8556 H   0  0  0  0  0  0  0  0  0  0  0  0
    5.2799   11.9410   45.9066 H   0  0  0  0  0  0  0  0  0  0  0  0
    6.4160   11.2449   43.8056 H   0  0  0  0  0  0  0  0  0  0  0  0
    4.1023   14.1623   41.5951 H   0  0  0  0  0  0  0  0  0  0  0  0
    1.0420   17.5438   39.4170 H   0  0  0  0  0  0  0  0  0  0  0  0
    2.3992   18.5515   40.0247 H   0  0  0  0  0  0  0  0  0  0  0  0
    2.5349   16.7604   40.0368 H   0  0  0  0  0  0  0  0  0  0  0  0
   -0.6162   18.5705   43.8025 H   0  0  0  0  0  0  0  0  0  0  0  0
   -0.3673   17.3269   45.8057 H   0  0  0  0  0  0  0  0  0  0  0  0
    0.4873   16.0279   46.6803 H   0  0  0  0  0  0  0  0  0  0  0  0
  1  2  2  0
  1  6  1  0
  2  3  1  0
  3  4  2  0
  4  5  1  0
  5  6  2  0
  6  7  1  0
  7  8  2  0
  7  9  1  0
  8 16  1  0
  9 10  2  0
 10 11  1  0
 10 15  1  0
 11 12  1  0
 11 13  1  0
 13 14  2  0
 14 15  1  0
 15 16  2  0
 16 17  1  0
  1 18  1  0
  2 19  1  0
  3 20  1  0
  5 21  1  0
 12 22  1  0
 12 23  1  0
 12 24  1  0
 14 25  1  0
 17 26  1  0
 17 27  1  0
M  END
>  <mol_id>  (81) 
2026-09-17-6fnk-s0-n100-0081

>  <rmsd_to_ref>  (81) 
4.127551020409601

>  <pose_kind>  (81) 
rigid

$$$$
6fnk.A
     RDKit          3D

 27 29  0  0  0  0  0  0  0  0999 V2000
    3.9329   15.4321   42.7264 C   0  0  0  0  0  0  0  0  0  0  0  0
    4.0594   14.1864   42.1444 C   0  0  0  0  0  0  0  0  0  0  0  0
    4.5888   14.1571   40.8498 C   0  0  0  0  0  0  0  0  0  0  0  0
    4.9483   15.2653   40.2189 N   0  0  0  0  0  0  0  0  0  0  0  0
    4.8151   16.4548   40.8046 C   0  0  0  0  0  0  0  0  0  0  0  0
    4.3065   16.5936   42.0727 C   0  0  0  0  0  0  0  0  0  0  0  0
    4.1467   17.8780   42.7441 C   0  0  0  0  0  0  0  0  0  0  0  0
    3.6409   17.9579   43.9924 N   0  0  0  0  0  0  0  0  0  0  0  0
    4.5098   19.0107   42.1097 N   0  0  0  0  0  0  0  0  0  0  0  0
    4.3750   20.2310   42.7062 C   0  0  0  0  0  0  0  0  0  0  0  0
    4.6468   21.4925   42.3224 N   0  0  0  0  0  0  0  0  0  0  0  0
    5.2137   21.8993   41.0324 C   0  0  0  0  0  0  0  0  0  0  0  0
    4.3136   22.3056   43.3120 N   0  0  0  0  0  0  0  0  0  0  0  0
    3.8260   21.6234   44.3484 C   0  0  0  0  0  0  0  0  0  0  0  0
    3.8558   20.2941   43.9834 C   0  0  0  0  0  0  0  0  0  0  0  0
    3.4829   19.1324   44.6353 C   0  0  0  0  0  0  0  0  0  0  0  0
    2.9411   19.1556   45.9588 N   0  0  0  0  0  0  0  0  0  0  0  0
    3.5250   15.4946   43.7326 H   0  0  0  0  0  0  0  0  0  0  0  0
    3.7648   13.2794   42.6618 H   0  0  0  0  0  0  0  0  0  0  0  0
    4.6785   13.1617   40.4125 H   0  0  0  0  0  0  0  0  0  0  0  0
    5.1197   17.3252   40.2551 H   0  0  0  0  0  0  0  0  0  0  0  0
    4.8831   22.9424   40.8586 H   0  0  0  0  0  0  0  0  0  0  0  0
    6.3273   21.9641   41.1003 H   0  0  0  0  0  0  0  0  0  0  0  0
    4.9177   21.2007   40.2453 H   0  0  0  0  0  0  0  0  0  0  0  0
    3.4615   21.9656   45.3105 H   0  0  0  0  0  0  0  0  0  0  0  0
    2.0512   18.6111   46.1546 H   0  0  0  0  0  0  0  0  0  0  0  0
    3.4251   19.7036   46.7073 H   0  0  0  0  0  0  0  0  0  0  0  0
  1  2  2  0
  1  6  1  0
  2  3  1  0
  3  4  2  0
  4  5  1  0
  5  6  2  0
  6  7  1  0
  7  8  2  0
  7  9  1  0
  8 16  1  0
  9 10  2  0
 10 11  1  0
 10 15  1  0
 11 12  1  0
 11 13  1  0
 13 14  2  0
 14 15  1  0
 15 16  2  0
 16 17  1  0
  1 18  1  0
  2 19  1  0
  3 20  1  0
  5 21  1  0
 12 22  1  0
 12 23  1  0
 12 24  1  0
 14 25  1  0
 17 26  1  0
 17 27  1  0
M  END
>  <mol_id>  (82) 
2026-09-17-6fnk-s0-n100-0082

>  <rmsd_to_ref>  (82) 
4.173469387755513

>  <pose_kind>  (82) 
conformer

$$$$
6fnk.A
     RDKit          3D

 27 29  0  0  0  0  0  0  0  0999 V2000
   -1.8637   17.6752   39.4987 C   0  0  0  0  0  0  0  0  0  0  0  0
   -3.0331   16.9766   39.1981 C   0  0  0  0  0  0  0  0  0  0  0  0
   -3.3593   15.8325   39.9117 C   0  0  0  0  0  0  0  0  0  0  0  0
   -2.5179   15.3835   40.9333 N   0  0  0  0  0  0  0  0  0  0  0  0
   -1.3415   16.0875   41.2323 C   0  0  0  0  0  0  0  0  0  0  0  0
   -1.0118   17.2359   40.5149 C   0  0  0  0  0  0  0  0  0  0  0  0
    0.1626   17.9341   40.8136 C   0  0  0  0  0  0  0  0  0  0  0  0
    0.5904   18.9332   40.0294 N   0  0  0  0  0  0  0  0  0  0  0  0
    0.8713   17.6101   41.8998 N   0  0  0  0  0  0  0  0  0  0  0  0
    2.0100   18.2527   42.2149 C   0  0  0  0  0  0  0  0  0  0  0  0
    2.8814   18.0973   43.2232 N   0  0  0  0  0  0  0  0  0  0  0  0
    2.7795   17.1136   44.3053 C   0  0  0  0  0  0  0  0  0  0  0  0
    3.7999   18.9127   43.1308 N   0  0  0  0  0  0  0  0  0  0  0  0
    3.5523   19.6771   42.0544 C   0  0  0  0  0  0  0  0  0  0  0  0
    2.4348   19.2530   41.4492 C   0  0  0  0  0  0  0  0  0  0  0  0
    1.7171   19.5983   40.3451 C   0  0  0  0  0  0  0  0  0  0  0  0
    2.1227   20.6104   39.5404 N   0  0  0  0  0  0  0  0  0  0  0  0
   -1.6097   18.5817   38.9295 H   0  0  0  0  0  0  0  0  0  0  0  0
   -3.6961   17.3326   38.3959 H   0  0  0  0  0  0  0  0  0  0  0  0
   -4.2797   15.2792   39.6736 H   0  0  0  0  0  0  0  0  0  0  0  0
   -0.6782   15.7323   42.0346 H   0  0  0  0  0  0  0  0  0  0  0  0
    3.7226   16.5525   44.3808 H   0  0  0  0  0  0  0  0  0  0  0  0
    2.5847   17.6326   45.2555 H   0  0  0  0  0  0  0  0  0  0  0  0
    1.9549   16.4177   44.0919 H   0  0  0  0  0  0  0  0  0  0  0  0
    4.1723   20.5221   41.7207 H   0  0  0  0  0  0  0  0  0  0  0  0
    2.9820   21.1328   39.7633 H   0  0  0  0  0  0  0  0  0  0  0  0
    1.5717   20.8573   38.7060 H   0  0  0  0  0  0  0  0  0  0  0  0
  1  2  2  0
  1  6  1  0
  2  3  1  0
  3  4  2  0
  4  5  1  0
  5  6  2  0
  6  7  1  0
  7  8  2  0
  7  9  1  0
  8 16  1  0
  9 10  2  0
 10 11  1  0
 10 15  1  0
 11 12  1  0
 11 13  1  0
 13 14  2  0
 14 15  1  0
 15 16  2  0
 16 17  1  0
  1 18  1  0
  2 19  1  0
  3 20  1  0
  5 21  1  0
 12 22  1  0
 12 23  1  0
 12 24  1  0
 14 25  1  0
 17 26  1  0
 17 27  1  0
M  END
>  <mol_id>  (83) 
2026-09-17-6fnk-s0-n100-0083

>  <rmsd_to_ref>  (83) 
4.219387755102335

>  <pose_kind>  (83) 
rigid

$$$$
6fnk.A
     RDKit          3D

 27 29  0  0  0  0  0  0  0  0999 V2000
   -0.3318   17.6073   41.2307 C   0  0  0  0  0  0  0  0  0  0  0  0
   -1.4076   16.7865   41.5053 C   0  0  0  0  0  0  0  0  0  0  0  0
   -1.3033   15.9887   42.6497 C   0  0  0  0  0  0  0  0  0  0  0  0
   -0.2300   16.0207   43.4259 N   0  0  0  0  0  0  0  0  0  0  0  0
    0.7942   16.8227   43.1370 C   0  0  0  0  0  0  0  0  0  0  0  0
    0.7923   17.6455   42.0375 C   0  0  0  0  0  0  0  0  0  0  0  0
    1.8944   18.5352   41.6909 C   0  0  0  0  0  0  0  0  0  0  0  0
    1.8409   19.3238   40.5975 N   0  0  0  0  0  0  0  0  0  0  0  0
    2.9904   18.5743   42.4749 N   0  0  0  0  0  0  0  0  0  0  0  0
    4.0415   19.3943   42.1825 C   0  0  0  0  0  0  0  0  0  0  0  0
    5.2295   19.6340   42.7690 N   0  0  0  0  0  0  0  0  0  0  0  0
    5.7305   19.0025   43.9942 C   0  0  0  0  0  0  0  0  0  0  0  0
    5.8701   20.5403   42.0481 N   0  0  0  0  0  0  0  0  0  0  0  0
    5.1438   20.9145   40.9946 C   0  0  0  0  0  0  0  0  0  0  0  0
    3.9699   20.1942   41.0602 C   0  0  0  0  0  0  0  0  0  0  0  0
    2.8458   20.1549   40.2550 C   0  0  0  0  0  0  0  0  0  0  0  0
    2.7330   20.9681   39.0837 N   0  0  0  0  0  0  0  0  0  0  0  0
   -0.3767   18.2424   40.3489 H   0  0  0  0  0  0  0  0  0  0  0  0
   -2.2861   16.7609   40.8692 H   0  0  0  0  0  0  0  0  0  0  0  0
   -2.1658   15.3497   42.8444 H   0  0  0  0  0  0  0  0  0  0  0  0
    1.6427   16.8151   43.7946 H   0  0  0  0  0  0  0  0  0  0  0  0
    6.8363   19.0460   43.9408 H   0  0  0  0  0  0  0  0  0  0  0  0
    5.4668   19.6215   44.8864 H   0  0  0  0  0  0  0  0  0  0  0  0
    5.3286   17.9910   44.0970 H   0  0  0  0  0  0  0  0  0  0  0  0
    5.3582   21.6276   40.2064 H   0  0  0  0  0  0  0  0  0  0  0  0
    2.4286   20.5124   38.1745 H   0  0  0  0  0  0  0  0  0  0  0  0
    2.9499   21.9901   39.1396 H   0  0  0  0  0  0  0  0  0  0  0  0
  1  2  2  0
  1  6  1  0
  2  3  1  0
  3  4  2  0
  4  5  1  0
  5  6  2  0
  6  7  1  0
  7  8  2  0
  7  9  1  0
  8 16  1  0
  9 10  2  0
 10 11  1  0
 10 15  1  0
 11 12  1  0
 11 13  1  0
 13 14  2  0
 14 15  1  0
 15 16  2  0
 16 17  1  0
  1 18  1  0
  2 19  1  0
  3 20  1  0
  5 21  1  0
 12 22  1  0
 12 23  1  0
 12 24  1  0
 14 25  1  0
 17 26  1  0
 17 27  1  0
M  END
>  <mol_id>  (84) 
2026-09-17-6fnk-s0-n100-0084

>  <rmsd_to_ref>  (84) 
4.265306122453909

>  <pose_kind>  (84) 
conformer

$$$$
6fnk.A
     RDKit          3D

 27 29  0  0  0  0  0  0  0  0999 V2000
   -2.1193   16.1272   42.6773 C   0  0  0  0  0  0  0  0  0  0  0  0
   -3.3692   15.5525   42.9082 C   0  0  0  0  0  0  0  0  0  0  0  0
   -3.8365   15.4090   44.2065 C   0  0  0  0  0  0  0  0  0  0  0  0
   -3.0560   15.8439   45.2812 N   0  0  0  0  0  0  0  0  0  0  0  0
   -1.7985   16.4202   45.0459 C   0  0  0  0  0  0  0  0  0  0  0  0
   -1.3272   16.5632   43.7422 C   0  0  0  0  0  0  0  0  0  0  0  0
   -0.0724   17.1359   43.5109 C   0  0  0  0  0  0  0  0  0  0  0  0
    0.4769   17.1249   42.2885 N   0  0  0  0  0  0  0  0  0  0  0  0
    0.5925   17.7105   44.5182 N   0  0  0  0  0  0  0  0  0  0  0  0
    1.8048   18.2637   44.3365 C   0  0  0  0  0  0  0  0  0  0  0  0
    2.6524   18.8710   45.1809 N   0  0  0  0  0  0  0  0  0  0  0  0
    2.4293   19.0944   46.6125 C   0  0  0  0  0  0  0  0  0  0  0  0
    3.6672   19.2372   44.5865 N   0  0  0  0  0  0  0  0  0  0  0  0
    3.5158   18.9092   43.2928 C   0  0  0  0  0  0  0  0  0  0  0  0
    2.3514   18.2682   43.1247 C   0  0  0  0  0  0  0  0  0  0  0  0
    1.6802   17.6938   42.0888 C   0  0  0  0  0  0  0  0  0  0  0  0
    2.2091   17.6772   40.8413 N   0  0  0  0  0  0  0  0  0  0  0  0
   -1.7536   16.2383   41.6458 H   0  0  0  0  0  0  0  0  0  0  0  0
   -3.9839   15.2132   42.0614 H   0  0  0  0  0  0  0  0  0  0  0  0
   -4.8207   14.9532   44.3900 H   0  0  0  0  0  0  0  0  0  0  0  0
   -1.1834   16.7599   45.8922 H   0  0  0  0  0  0  0  0  0  0  0  0
    3.2934   18.7200   47.1810 H   0  0  0  0  0  0  0  0  0  0  0  0
    2.3053   20.1710   46.8006 H   0  0  0  0  0  0  0  0  0  0  0  0
    1.5220   18.5597   46.9299 H   0  0  0  0  0  0  0  0  0  0  0  0
    4.2375   19.1328   42.4933 H   0  0  0  0  0  0  0  0  0  0  0  0
    3.1287   18.1068   40.6660 H   0  0  0  0  0  0  0  0  0  0  0  0
    1.6915   17.2350   40.0683 H   0  0  0  0  0  0  0  0  0  0  0  0
  1  2  2  0
  1  6  1  0
  2  3  1  0
  3  4  2  0
  4  5  1  0
  5  6  2  0
  6  7  1  0
  7  8  2  0
  7  9  1  0
  8 16  1  0
  9 10  2  0
 10 11  1  0
 10 15  1  0
 11 12  1  0
 11 13  1  0
 13 14  2  0
 14 15  1  0
 15 16  2  0
 16 17  1  0
  1 18  1  0
  2 19  1  0
  3 20  1  0
  5 21  1  0
 12 22  1  0
 12 23  1  0
 12 24  1  0
 14 25  1  0
 17 26  1  0
 17 27  1  0
M  END
>  <mol_id>  (85) 
2026-09-17-6fnk-s0-n100-0085

>  <rmsd_to_ref>  (85) 
4.311224489798775

>  <pose_kind>  (85) 
rigid

$$$$
6fnk.A
     RDKit          3D

 27 29  0  0  0  0  0  0  0  0999 V2000
    2.5385   20.8860   41.7613 C   0  0  0  0  0  0  0  0  0  0  0  0
    2.6295   21.8326   40.7603 C   0  0  0  0  0  0  0  0  0  0  0  0
    2.8068   21.3462   39.4605 C   0  0  0  0  0  0  0  0  0  0  0  0
    2.8829   20.0480   39.2067 N   0  0  0  0  0  0  0  0  0  0  0  0
    2.7919   19.1560   40.1926 C   0  0  0  0  0  0  0  0  0  0  0  0
    2.6173   19.5284   41.5029 C   0  0  0  0  0  0  0  0  0  0  0  0
    2.5138   18.5808   42.6062 C   0  0  0  0  0  0  0  0  0  0  0  0
    2.3424   19.0008   43.8769 N   0  0  0  0  0  0  0  0  0  0  0  0
    2.5900   17.2580   42.3573 N   0  0  0  0  0  0  0  0  0  0  0  0
    2.4973   16.3412   43.3642 C   0  0  0  0  0  0  0  0  0  0  0  0
    2.5382   14.9962   43.4086 N   0  0  0  0  0  0  0  0  0  0  0  0
    2.7109   14.0995   42.2609 C   0  0  0  0  0  0  0  0  0  0  0  0
    2.3955   14.6205   44.6694 N   0  0  0  0  0  0  0  0  0  0  0  0
    2.2601   15.6769   45.4712 C   0  0  0  0  0  0  0  0  0  0  0  0
    2.3222   16.7887   44.6580 C   0  0  0  0  0  0  0  0  0  0  0  0
    2.2437   18.1457   44.9146 C   0  0  0  0  0  0  0  0  0  0  0  0
    2.0626   18.6492   46.2410 N   0  0  0  0  0  0  0  0  0  0  0  0
    2.4004   21.2264   42.7850 H   0  0  0  0  0  0  0  0  0  0  0  0
    2.5671   22.8953   40.9690 H   0  0  0  0  0  0  0  0  0  0  0  0
    2.8756   22.1136   38.6883 H   0  0  0  0  0  0  0  0  0  0  0  0
    2.8590   18.1150   39.9395 H   0  0  0  0  0  0  0  0  0  0  0  0
    3.1555   13.1649   42.6562 H   0  0  0  0  0  0  0  0  0  0  0  0
    1.7161   13.7895   41.8568 H   0  0  0  0  0  0  0  0  0  0  0  0
    3.3073   14.5825   41.4823 H   0  0  0  0  0  0  0  0  0  0  0  0
    2.1254   15.7354   46.5455 H   0  0  0  0  0  0  0  0  0  0  0  0
    2.7001   19.4263   46.5824 H   0  0  0  0  0  0  0  0  0  0  0  0
    1.3116   18.2483   46.8494 H   0  0  0  0  0  0  0  0  0  0  0  0
  1  2  2  0
  1  6  1  0
  2  3  1  0
  3  4  2  0
  4  5  1  0
  5  6  2  0
  6  7  1  0
  7  8  2  0
  7  9  1  0
  8 16  1  0
  9 10  2  0
 10 11  1  0
 10 15  1  0
 11 12  1  0
 11 13  1  0
 13 14  2  0
 14 15  1  0
 15 16  2  0
 16 17  1  0
  1 18  1  0
  2 19  1  0
  3 20  1  0
  5 21  1  0
 12 22  1  0
 12 23  1  0
 12 24  1  0
 14 25  1  0
 17 26  1  0
 17 27  1  0
M  END
>  <mol_id>  (86) 
2026-09-17-6fnk-s0-n100-0086

>  <rmsd_to_ref>  (86) 
4.3571428571489275

>  <pose_kind>  (86) 
conformer

$$$$
6fnk.A
     RDKit          3D

 27 29  0  0  0  0  0  0  0  0999 V2000
    2.3238   17.6476   45.4586 C   0  0  0  0  0  0  0  0  0  0  0  0
    1.8451   16.8242   46.4777 C   0  0  0  0  0  0  0  0  0  0  0  0
    0.4812   16.6089   46.6113 C   0  0  0  0  0  0  0  0  0  0  0  0
   -0.4113   17.2143   45.7224 N   0  0  0  0  0  0  0  0  0  0  0  0
    0.0731   18.0433   44.6991 C   0  0  0  0  0  0  0  0  0  0  0  0
    1.4430   18.2618   44.5651 C   0  0  0  0  0  0  0  0  0  0  0  0
    1.9227   19.0905   43.5457 C   0  0  0  0  0  0  0  0  0  0  0  0
    3.2113   19.4560   43.5019 N   0  0  0  0  0  0  0  0  0  0  0  0
    1.0905   19.5233   42.5932 N   0  0  0  0  0  0  0  0  0  0  0  0
    1.5129   20.3283   41.6020 C   0  0  0  0  0  0  0  0  0  0  0  0
    0.8731   20.8914   40.5658 N   0  0  0  0  0  0  0  0  0  0  0  0
   -0.5499   20.7403   40.2474 C   0  0  0  0  0  0  0  0  0  0  0  0
    1.6528   21.5635   39.8894 N   0  0  0  0  0  0  0  0  0  0  0  0
    2.8708   21.4443   40.4429 C   0  0  0  0  0  0  0  0  0  0  0  0
    2.7921   20.6855   41.5442 C   0  0  0  0  0  0  0  0  0  0  0  0
    3.6513   20.2440   42.5034 C   0  0  0  0  0  0  0  0  0  0  0  0
    4.9609   20.5915   42.4774 N   0  0  0  0  0  0  0  0  0  0  0  0
    3.4063   17.8150   45.3574 H   0  0  0  0  0  0  0  0  0  0  0  0
    2.5486   16.3458   47.1750 H   0  0  0  0  0  0  0  0  0  0  0  0
    0.1023   15.9622   47.4165 H   0  0  0  0  0  0  0  0  0  0  0  0
   -0.6298   18.5217   44.0013 H   0  0  0  0  0  0  0  0  0  0  0  0
   -1.0039   21.7337   40.1170 H   0  0  0  0  0  0  0  0  0  0  0  0
   -0.6582   20.1627   39.3175 H   0  0  0  0  0  0  0  0  0  0  0  0
   -1.0552   20.2111   41.0687 H   0  0  0  0  0  0  0  0  0  0  0  0
    3.7923   21.9002   40.0516 H   0  0  0  0  0  0  0  0  0  0  0  0
    5.3190   21.1937   41.7224 H   0  0  0  0  0  0  0  0  0  0  0  0
    5.5981   20.2533   43.2125 H   0  0  0  0  0  0  0  0  0  0  0  0
  1  2  2  0
  1  6  1  0
  2  3  1  0
  3  4  2  0
  4  5  1  0
  5  6  2  0
  6  7  1  0
  7  8  2  0
  7  9  1  0
  8 16  1  0
  9 10  2  0
 10 11  1  0
 10 15  1  0
 11 12  1  0
 11 13  1  0
 13 14  2  0
 14 15  1  0
 15 16  2  0
 16 17  1  0
  1 18  1  0
  2 19  1  0
  3 20  1  0
  5 21  1  0
 12 22  1  0
 12 23  1  0
 12 24  1  0
 14 25  1  0
 17 26  1  0
 17 27  1  0
M  END
>  <mol_id>  (87) 
2026-09-17-6fnk-s0-n100-0087

>  <rmsd_to_ref>  (87) 
4.403061224492224

>  <pose_kind>  (87) 
rigid

$$$$
6fnk.A
     RDKit          3D

 27 29  0  0  0  0  0  0  0  0999 V2000
    3.0345   18.5140   44.9928 C   0  0  0  0  0  0  0  0  0  0  0  0
    4.0092   17.6003   45.3417 C   0  0  0  0  0  0  0  0  0  0  0  0
    5.0047   17.3604   44.3886 C   0  0  0  0  0  0  0  0  0  0  0  0
    5.0098   17.9774   43.2161 N   0  0  0  0  0  0  0  0  0  0  0  0
    4.0563   18.8550   42.9054 C   0  0  0  0  0  0  0  0  0  0  0  0
    3.0341   19.1619   43.7696 C   0  0  0  0  0  0  0  0  0  0  0  0
    1.9749   20.1161   43.4634 C   0  0  0  0  0  0  0  0  0  0  0  0
    0.9929   20.3812   44.3498 N   0  0  0  0  0  0  0  0  0  0  0  0
    1.9722   20.7485   42.2728 N   0  0  0  0  0  0  0  0  0  0  0  0
    0.9975   21.6480   41.9508 C   0  0  0  0  0  0  0  0  0  0  0  0
    0.7493   22.4074   40.8671 N   0  0  0  0  0  0  0  0  0  0  0  0
    1.5549   22.4533   39.6424 C   0  0  0  0  0  0  0  0  0  0  0  0
   -0.3498   23.1077   41.0969 N   0  0  0  0  0  0  0  0  0  0  0  0
   -0.8450   22.8384   42.3050 C   0  0  0  0  0  0  0  0  0  0  0  0
    0.0007   21.9071   42.8695 C   0  0  0  0  0  0  0  0  0  0  0  0
    0.0025   21.2587   44.0915 C   0  0  0  0  0  0  0  0  0  0  0  0
   -1.0124   21.4996   45.0702 N   0  0  0  0  0  0  0  0  0  0  0  0
    2.2437   18.7264   45.7086 H   0  0  0  0  0  0  0  0  0  0  0  0
    4.0042   17.0955   46.3021 H   0  0  0  0  0  0  0  0  0  0  0  0
    5.7624   16.6350   44.6883 H   0  0  0  0  0  0  0  0  0  0  0  0
    4.1014   19.3303   41.9440 H   0  0  0  0  0  0  0  0  0  0  0  0
    0.8733   22.7730   38.8295 H   0  0  0  0  0  0  0  0  0  0  0  0
    2.3166   23.2685   39.7085 H   0  0  0  0  0  0  0  0  0  0  0  0
    2.0394   21.4895   39.4648 H   0  0  0  0  0  0  0  0  0  0  0  0
   -1.7219   23.2262   42.8113 H   0  0  0  0  0  0  0  0  0  0  0  0
   -1.4911   20.6674   45.5231 H   0  0  0  0  0  0  0  0  0  0  0  0
   -1.2656   22.4828   45.3229 H   0  0  0  0  0  0  0  0  0  0  0  0
  1  2  2  0
  1  6  1  0
  2  3  1  0
  3  4  2  0
  4  5  1  0
  5  6  2  0
  6  7  1  0
  7  8  2  0
  7  9  1  0
  8 16  1  0
  9 10  2  0
 10 11  1  0
 10 15  1  0
 11 12  1  0
 11 13  1  0
 13 14  2  0
 14 15  1  0
 15 16  2  0
 16 17  1  0
  1 18  1  0
  2 19  1  0
  3 20  1  0
  5 21  1  0
 12 22  1  0
 12 23  1  0
 12 24  1  0
 14 25  1  0
 17 26  1  0
 17 27  1  0
M  END
>  <mol_id>  (88) 
2026-09-17-6fnk-s0-n100-0088

>  <rmsd_to_ref>  (88) 
4.448979591838181

>  <pose_kind>  (88) 
conformer

$$$$
6fnk.A
     RDKit          3D

 27 29  0  0  0  0  0  0  0  0999 V2000
    4.3338   17.7205   43.6522 C   0  0  0  0  0  0  0  0  0  0  0  0
    5.6888   17.9960   43.4675 C   0  0  0  0  0  0  0  0  0  0  0  0
    6.4454   17.2092   42.6114 C   0  0  0  0  0  0  0  0  0  0  0  0
    5.8482   16.1437   41.9321 N   0  0  0  0  0  0  0  0  0  0  0  0
    4.4855   15.8680   42.1211 C   0  0  0  0  0  0  0  0  0  0  0  0
    3.7248   16.6566   42.9823 C   0  0  0  0  0  0  0  0  0  0  0  0
    2.3673   16.3779   43.1704 C   0  0  0  0  0  0  0  0  0  0  0  0
    1.6586   17.0053   44.1192 N   0  0  0  0  0  0  0  0  0  0  0  0
    1.7587   15.4778   42.3915 N   0  0  0  0  0  0  0  0  0  0  0  0
    0.4573   15.1770   42.5479 C   0  0  0  0  0  0  0  0  0  0  0  0
   -0.3498   14.3150   41.9109 N   0  0  0  0  0  0  0  0  0  0  0  0
    0.0331   13.4355   40.8024 C   0  0  0  0  0  0  0  0  0  0  0  0
   -1.4881   14.3612   42.3792 N   0  0  0  0  0  0  0  0  0  0  0  0
   -1.4887   15.2969   43.3429 C   0  0  0  0  0  0  0  0  0  0  0  0
   -0.2560   15.8036   43.4785 C   0  0  0  0  0  0  0  0  0  0  0  0
    0.3503   16.7287   44.2722 C   0  0  0  0  0  0  0  0  0  0  0  0
   -0.3455   17.3838   45.2330 N   0  0  0  0  0  0  0  0  0  0  0  0
    3.7387   18.3475   44.3324 H   0  0  0  0  0  0  0  0  0  0  0  0
    6.1570   18.8367   44.0004 H   0  0  0  0  0  0  0  0  0  0  0  0
    7.5146   17.4237   42.4674 H   0  0  0  0  0  0  0  0  0  0  0  0
    4.0165   15.0276   41.5883 H   0  0  0  0  0  0  0  0  0  0  0  0
   -0.2667   12.4026   41.0334 H   0  0  0  0  0  0  0  0  0  0  0  0
   -0.4698   13.7660   39.8815 H   0  0  0  0  0  0  0  0  0  0  0  0
    1.1230   13.4778   40.6603 H   0  0  0  0  0  0  0  0  0  0  0  0
   -2.3673   15.6007   43.9309 H   0  0  0  0  0  0  0  0  0  0  0  0
   -1.3477   17.1877   45.3673 H   0  0  0  0  0  0  0  0  0  0  0  0
    0.1279   18.0779   45.8289 H   0  0  0  0  0  0  0  0  0  0  0  0
  1  2  2  0
  1  6  1  0
  2  3  1  0
  3  4  2  0
  4  5  1  0
  5  6  2  0
  6  7  1  0
  7  8  2  0
  7  9  1  0
  8 16  1  0
  9 10  2  0
 10 11  1  0
 10 15  1  0
 11 12  1  0
 11 13  1  0
 13 14  2  0
 14 15  1  0
 15 16  2  0
 16 17  1  0
  1 18  1  0
  2 19  1  0
  3 20  1  0
  5 21  1  0
 12 22  1  0
 12 23  1  0
 12 24  1  0
 14 25  1  0
 17 26  1  0
 17 27  1  0
M  END
>  <mol_id>  (89) 
2026-09-17-6fnk-s0-n100-0089

>  <rmsd_to_ref>  (89) 
4.4948979591841365

>  <pose_kind>  (89) 
rigid

$$$$
6fnk.A
     RDKit          3D

 27 29  0  0  0  0  0  0  0  0999 V2000
    1.3447   14.2410   42.0996 C   0  0  0  0  0  0  0  0  0  0  0  0
    0.3040   13.4436   42.5327 C   0  0  0  0  0  0  0  0  0  0  0  0
   -0.6816   14.0724   43.3011 C   0  0  0  0  0  0  0  0  0  0  0  0
   -0.6174   15.3626   43.5959 N   0  0  0  0  0  0  0  0  0  0  0  0
    0.3989   16.1088   43.1647 C   0  0  0  0  0  0  0  0  0  0  0  0
    1.4175   15.5893   42.4042 C   0  0  0  0  0  0  0  0  0  0  0  0
    2.5442   16.3755   41.9156 C   0  0  0  0  0  0  0  0  0  0  0  0
    3.5194   15.8145   41.1710 N   0  0  0  0  0  0  0  0  0  0  0  0
    2.6176   17.6888   42.2106 N   0  0  0  0  0  0  0  0  0  0  0  0
    3.6568   18.4566   41.7709 C   0  0  0  0  0  0  0  0  0  0  0  0
    3.9807   19.7562   41.9085 N   0  0  0  0  0  0  0  0  0  0  0  0
    3.2101   20.7648   42.6433 C   0  0  0  0  0  0  0  0  0  0  0  0
    5.1174   19.9684   41.2650 N   0  0  0  0  0  0  0  0  0  0  0  0
    5.5642   18.8467   40.6999 C   0  0  0  0  0  0  0  0  0  0  0  0
    4.6456   17.8663   41.0104 C   0  0  0  0  0  0  0  0  0  0  0  0
    4.5714   16.5187   40.7069 C   0  0  0  0  0  0  0  0  0  0  0  0
    5.5756   15.8699   39.9219 N   0  0  0  0  0  0  0  0  0  0  0  0
    2.1300   13.7871   41.4996 H   0  0  0  0  0  0  0  0  0  0  0  0
    0.2523   12.3872   42.2909 H   0  0  0  0  0  0  0  0  0  0  0  0
   -1.4924   13.4211   43.6306 H   0  0  0  0  0  0  0  0  0  0  0  0
    0.4086   17.1494   43.4282 H   0  0  0  0  0  0  0  0  0  0  0  0
    3.9308   21.5471   42.9529 H   0  0  0  0  0  0  0  0  0  0  0  0
    2.5021   21.2897   41.9561 H   0  0  0  0  0  0  0  0  0  0  0  0
    2.6679   20.3044   43.4735 H   0  0  0  0  0  0  0  0  0  0  0  0
    6.4520   18.6602   40.1061 H   0  0  0  0  0  0  0  0  0  0  0  0
    5.9875   14.9573   40.2746 H   0  0  0  0  0  0  0  0  0  0  0  0
    5.8864   16.3000   39.0201 H   0  0  0  0  0  0  0  0  0  0  0  0
  1  2  2  0
  1  6  1  0
  2  3  1  0
  3  4  2  0
  4  5  1  0
  5  6  2  0
  6  7  1  0
  7  8  2  0
  7  9  1  0
  8 16  1  0
  9 10  2  0
 10 11  1  0
 10 15  1  0
 11 12  1  0
 11 13  1  0
 13 14  2  0
 14 15  1  0
 15 16  2  0
 16 17  1  0
  1 18  1  0
  2 19  1  0
  3 20  1  0
  5 21  1  0
 12 22  1  0
 12 23  1  0
 12 24  1  0
 14 25  1  0
 17 26  1  0
 17 27  1  0
M  END
>  <mol_id>  (90) 
2026-09-17-6fnk-s0-n100-0090

>  <rmsd_to_ref>  (90) 
4.540816326531542

>  <pose_kind>  (90) 
conformer

$$$$
6fnk.A
     RDKit          3D

 27 29  0  0  0  0  0  0  0  0999 V2000
    2.5259   19.7112   42.2929 C   0  0  0  0  0  0  0  0  0  0  0  0
    3.5208   20.5731   41.8313 C   0  0  0  0  0  0  0  0  0  0  0  0
    4.3474   21.2243   42.7353 C   0  0  0  0  0  0  0  0  0  0  0  0
    4.1846   21.0131   44.1073 N   0  0  0  0  0  0  0  0  0  0  0  0
    3.1819   20.1468   44.5687 C   0  0  0  0  0  0  0  0  0  0  0  0
    2.3497   19.4935   43.6615 C   0  0  0  0  0  0  0  0  0  0  0  0
    1.3496   18.6323   44.1245 C   0  0  0  0  0  0  0  0  0  0  0  0
    0.4287   18.1316   43.2896 N   0  0  0  0  0  0  0  0  0  0  0  0
    1.3091   18.2939   45.4171 N   0  0  0  0  0  0  0  0  0  0  0  0
    0.3577   17.4756   45.9010 C   0  0  0  0  0  0  0  0  0  0  0  0
    0.1092   17.0165   47.1370 N   0  0  0  0  0  0  0  0  0  0  0  0
    0.8865   17.3226   48.3416 C   0  0  0  0  0  0  0  0  0  0  0  0
   -0.8758   16.2769   47.1339 N   0  0  0  0  0  0  0  0  0  0  0  0
   -1.3088   16.1892   45.8655 C   0  0  0  0  0  0  0  0  0  0  0  0
   -0.5522   16.9647   45.0774 C   0  0  0  0  0  0  0  0  0  0  0  0
   -0.5162   17.2948   43.7571 C   0  0  0  0  0  0  0  0  0  0  0  0
   -1.4300   16.7953   42.8901 N   0  0  0  0  0  0  0  0  0  0  0  0
    1.8731   19.1976   41.5717 H   0  0  0  0  0  0  0  0  0  0  0  0
    3.6500   20.7362   40.7512 H   0  0  0  0  0  0  0  0  0  0  0  0
    5.1303   21.9065   42.3726 H   0  0  0  0  0  0  0  0  0  0  0  0
    3.0523   19.9829   45.6486 H   0  0  0  0  0  0  0  0  0  0  0  0
    0.2106   17.6763   49.1341 H   0  0  0  0  0  0  0  0  0  0  0  0
    1.4076   16.4156   48.6820 H   0  0  0  0  0  0  0  0  0  0  0  0
    1.6245   18.1055   48.1127 H   0  0  0  0  0  0  0  0  0  0  0  0
   -2.1553   15.5744   45.5256 H   0  0  0  0  0  0  0  0  0  0  0  0
   -2.1618   16.1532   43.2264 H   0  0  0  0  0  0  0  0  0  0  0  0
   -1.3928   17.0576   41.8948 H   0  0  0  0  0  0  0  0  0  0  0  0
  1  2  2  0
  1  6  1  0
  2  3  1  0
  3  4  2  0
  4  5  1  0
  5  6  2  0
  6  7  1  0
  7  8  2  0
  7  9  1  0
  8 16  1  0
  9 10  2  0
 10 11  1  0
 10 15  1  0
 11 12  1  0
 11 13  1  0
 13 14  2  0
 14 15  1  0
 15 16  2  0
 16 17  1  0
  1 18  1  0
  2 19  1  0
  3 20  1  0
  5 21  1  0
 12 22  1  0
 12 23  1  0
 12 24  1  0
 14 25  1  0
 17 26  1  0
 17 27  1  0
M  END
>  <mol_id>  (91) 
2026-09-17-6fnk-s0-n100-0091

>  <rmsd_to_ref>  (91) 
4.586734693878652

>  <pose_kind>  (91) 
rigid

$$$$
6fnk.A
     RDKit          3D

 27 29  0  0  0  0  0  0  0  0999 V2000
   -0.9419   18.5600   43.3317 C   0  0  0  0  0  0  0  0  0  0  0  0
   -2.1698   18.4137   42.7175 C   0  0  0  0  0  0  0  0  0  0  0  0
   -2.3704   17.2258   42.0062 C   0  0  0  0  0  0  0  0  0  0  0  0
   -1.4320   16.2937   41.9279 N   0  0  0  0  0  0  0  0  0  0  0  0
   -0.2555   16.4612   42.5307 C   0  0  0  0  0  0  0  0  0  0  0  0
    0.0426   17.5901   43.2536 C   0  0  0  0  0  0  0  0  0  0  0  0
    1.3184   17.8069   43.9258 C   0  0  0  0  0  0  0  0  0  0  0  0
    1.5595   18.9360   44.6239 N   0  0  0  0  0  0  0  0  0  0  0  0
    2.2789   16.8639   43.8513 N   0  0  0  0  0  0  0  0  0  0  0  0
    3.4853   17.0316   44.4673 C   0  0  0  0  0  0  0  0  0  0  0  0
    4.5984   16.2798   44.5600 N   0  0  0  0  0  0  0  0  0  0  0  0
    4.8009   14.9590   43.9555 C   0  0  0  0  0  0  0  0  0  0  0  0
    5.4816   16.9390   45.2925 N   0  0  0  0  0  0  0  0  0  0  0  0
    4.9910   18.1120   45.6933 C   0  0  0  0  0  0  0  0  0  0  0  0
    3.7149   18.1927   45.1771 C   0  0  0  0  0  0  0  0  0  0  0  0
    2.7299   19.1610   45.2542 C   0  0  0  0  0  0  0  0  0  0  0  0
    2.9288   20.3775   45.9796 N   0  0  0  0  0  0  0  0  0  0  0  0
   -0.7492   19.4707   43.8940 H   0  0  0  0  0  0  0  0  0  0  0  0
   -2.9376   19.1775   42.7822 H   0  0  0  0  0  0  0  0  0  0  0  0
   -3.3480   17.1347   41.5306 H   0  0  0  0  0  0  0  0  0  0  0  0
    0.4743   15.6792   42.4398 H   0  0  0  0  0  0  0  0  0  0  0  0
    5.8938   14.8406   43.8176 H   0  0  0  0  0  0  0  0  0  0  0  0
    4.5189   14.1537   44.6773 H   0  0  0  0  0  0  0  0  0  0  0  0
    4.2224   14.8661   43.0325 H   0  0  0  0  0  0  0  0  0  0  0  0
    5.4358   18.8940   46.2984 H   0  0  0  0  0  0  0  0  0  0  0  0
    2.6873   21.2973   45.5080 H   0  0  0  0  0  0  0  0  0  0  0  0
    3.3056   20.3433   46.9552 H   0  0  0  0  0  0  0  0  0  0  0  0
  1  2  2  0
  1  6  1  0
  2  3  1  0
  3  4  2  0
  4  5  1  0
  5  6  2  0
  6  7  1  0
  7  8  2  0
  7  9  1  0
  8 16  1  0
  9 10  2  0
 10 11  1  0
 10 15  1  0
 11 12  1  0
 11 13  1  0
 13 14  2  0
 14 15  1  0
 15 16  2  0
 16 17  1  0
  1 18  1  0
  2 19  1  0
  3 20  1  0
  5 21  1  0
 12 22  1  0
 12 23  1  0
 12 24  1  0
 14 25  1  0
 17 26  1  0
 17 27  1  0
M  END
>  <mol_id>  (92) 
2026-09-17-6fnk-s0-n100-0092

>  <rmsd_to_ref>  (92) 
4.632653061226943

>  <pose_kind>  (92) 
conformer

$$$$
6fnk.A
     RDKit          3D

 27 29  0  0  0  0  0  0  0  0999 V2000
    2.7071   18.5198   43.1350 C   0  0  0  0  0  0  0  0  0  0  0  0
    3.5241   19.0525   44.1325 C   0  0  0  0  0  0  0  0  0  0  0  0
    3.3727   18.6370   45.4473 C   0  0  0  0  0  0  0  0  0  0  0  0
    2.4044   17.6825   45.7705 N   0  0  0  0  0  0  0  0  0  0  0  0
    1.5830   17.1495   44.7654 C   0  0  0  0  0  0  0  0  0  0  0  0
    1.7329   17.5676   43.4444 C   0  0  0  0  0  0  0  0  0  0  0  0
    0.9111   17.0364   42.4451 C   0  0  0  0  0  0  0  0  0  0  0  0
    0.9144   17.5454   41.2054 N   0  0  0  0  0  0  0  0  0  0  0  0
    0.1122   16.0008   42.7215 N   0  0  0  0  0  0  0  0  0  0  0  0
   -0.6983   15.4686   41.7895 C   0  0  0  0  0  0  0  0  0  0  0  0
   -1.5813   14.4594   41.8351 N   0  0  0  0  0  0  0  0  0  0  0  0
   -1.8851   13.6336   43.0076 C   0  0  0  0  0  0  0  0  0  0  0  0
   -2.1145   14.3011   40.7362 N   0  0  0  0  0  0  0  0  0  0  0  0
   -1.5723   15.1955   39.8935 C   0  0  0  0  0  0  0  0  0  0  0  0
   -0.6921   15.9596   40.5540 C   0  0  0  0  0  0  0  0  0  0  0  0
    0.1237   17.0085   40.2578 C   0  0  0  0  0  0  0  0  0  0  0  0
    0.1528   17.5361   39.0100 N   0  0  0  0  0  0  0  0  0  0  0  0
    2.8312   18.8530   42.0942 H   0  0  0  0  0  0  0  0  0  0  0  0
    4.2878   19.8016   43.8765 H   0  0  0  0  0  0  0  0  0  0  0  0
    4.0144   19.0586   46.2350 H   0  0  0  0  0  0  0  0  0  0  0  0
    0.8192   16.4002   45.0207 H   0  0  0  0  0  0  0  0  0  0  0  0
   -2.9727   13.6165   43.1722 H   0  0  0  0  0  0  0  0  0  0  0  0
   -1.5238   12.6086   42.8377 H   0  0  0  0  0  0  0  0  0  0  0  0
   -1.3869   14.0560   43.8926 H   0  0  0  0  0  0  0  0  0  0  0  0
   -1.8141   15.2868   38.8243 H   0  0  0  0  0  0  0  0  0  0  0  0
   -0.4442   17.1407   38.2696 H   0  0  0  0  0  0  0  0  0  0  0  0
    0.7718   18.3326   38.8019 H   0  0  0  0  0  0  0  0  0  0  0  0
  1  2  2  0
  1  6  1  0
  2  3  1  0
  3  4  2  0
  4  5  1  0
  5  6  2  0
  6  7  1  0
  7  8  2  0
  7  9  1  0
  8 16  1  0
  9 10  2  0
 10 11  1  0
 10 15  1  0
 11 12  1  0
 11 13  1  0
 13 14  2  0
 14 15  1  0
 15 16  2  0
 16 17  1  0
  1 18  1  0
  2 19  1  0
  3 20  1  0
  5 21  1  0
 12 22  1  0
 12 23  1  0
 12 24  1  0
 14 25  1  0
 17 26  1  0
 17 27  1  0
M  END
>  <mol_id>  (93) 
2026-09-17-6fnk-s0-n100-0093

>  <rmsd_to_ref>  (93) 
4.678571428571712

>  <pose_kind>  (93) 
rigid

$$$$
6fnk.A
     RDKit          3D

 27 29  0  0  0  0  0  0  0  0999 V2000
    5.7022   16.1980   41.2004 C   0  0  0  0  0  0  0  0  0  0  0  0
    7.0271   15.8348   41.3394 C   0  0  0  0  0  0  0  0  0  0  0  0
    7.9114   16.3322   40.3762 C   0  0  0  0  0  0  0  0  0  0  0  0
    7.4977   17.1091   39.3858 N   0  0  0  0  0  0  0  0  0  0  0  0
    6.2127   17.4441   39.2757 C   0  0  0  0  0  0  0  0  0  0  0  0
    5.2638   17.0093   40.1681 C   0  0  0  0  0  0  0  0  0  0  0  0
    3.8501   17.3557   40.0786 C   0  0  0  0  0  0  0  0  0  0  0  0
    2.9586   16.9007   40.9833 N   0  0  0  0  0  0  0  0  0  0  0  0
    3.4205   18.1457   39.0743 N   0  0  0  0  0  0  0  0  0  0  0  0
    2.1051   18.4911   38.9580 C   0  0  0  0  0  0  0  0  0  0  0  0
    1.4116   19.2435   38.0829 N   0  0  0  0  0  0  0  0  0  0  0  0
    1.9648   19.9467   36.9209 C   0  0  0  0  0  0  0  0  0  0  0  0
    0.1408   19.2397   38.4522 N   0  0  0  0  0  0  0  0  0  0  0  0
   -0.0363   18.5055   39.5509 C   0  0  0  0  0  0  0  0  0  0  0  0
    1.2070   18.0167   39.8923 C   0  0  0  0  0  0  0  0  0  0  0  0
    1.6468   17.2060   40.9233 C   0  0  0  0  0  0  0  0  0  0  0  0
    0.7479   16.6943   41.9112 N   0  0  0  0  0  0  0  0  0  0  0  0
    4.9850   15.8303   41.9305 H   0  0  0  0  0  0  0  0  0  0  0  0
    7.3649   15.1985   42.1506 H   0  0  0  0  0  0  0  0  0  0  0  0
    8.9514   16.0308   40.5082 H   0  0  0  0  0  0  0  0  0  0  0  0
    5.9238   18.0757   38.4572 H   0  0  0  0  0  0  0  0  0  0  0  0
    1.1349   20.0558   36.1950 H   0  0  0  0  0  0  0  0  0  0  0  0
    2.2390   20.9948   37.1951 H   0  0  0  0  0  0  0  0  0  0  0  0
    2.8343   19.4135   36.5273 H   0  0  0  0  0  0  0  0  0  0  0  0
   -0.9345   18.2884   40.1179 H   0  0  0  0  0  0  0  0  0  0  0  0
    0.7806   15.6587   42.1421 H   0  0  0  0  0  0  0  0  0  0  0  0
    0.0777   17.3418   42.3870 H   0  0  0  0  0  0  0  0  0  0  0  0
  1  2  2  0
  1  6  1  0
  2  3  1  0
  3  4  2  0
  4  5  1  0
  5  6  2  0
  6  7  1  0
  7  8  2  0
  7  9  1  0
  8 16  1  0
  9 10  2  0
 10 11  1  0
 10 15  1  0
 11 12  1  0
 11 13  1  0
 13 14  2  0
 14 15  1  0
 15 16  2  0
 16 17  1  0
  1 18  1  0
  2 19  1  0
  3 20  1  0
  5 21  1  0
 12 22  1  0
 12 23  1  0
 12 24  1  0
 14 25  1  0
 17 26  1  0
 17 27  1  0
M  END
>  <mol_id>  (94) 
2026-09-17-6fnk-s0-n100-0094

>  <rmsd_to_ref>  (94) 
4.724489795919655

>  <pose_kind>  (94) 
conformer

$$$$
6fnk.A
     RDKit          3D

 27 29  0  0  0  0  0  0  0  0999 V2000
   -0.2574   13.5240   42.6124 C   0  0  0  0  0  0  0  0  0  0  0  0
   -1.2742   13.0092   43.4168 C   0  0  0  0  0  0  0  0  0  0  0  0
   -1.8105   13.7832   44.4355 C   0  0  0  0  0  0  0  0  0  0  0  0
   -1.3341   15.0790   44.6523 N   0  0  0  0  0  0  0  0  0  0  0  0
   -0.3102   15.5936   43.8426 C   0  0  0  0  0  0  0  0  0  0  0  0
    0.2308   14.8163   42.8200 C   0  0  0  0  0  0  0  0  0  0  0  0
    1.2529   15.3310   42.0161 C   0  0  0  0  0  0  0  0  0  0  0  0
    1.9076   14.5492   41.1466 N   0  0  0  0  0  0  0  0  0  0  0  0
    1.5832   16.6233   42.1061 N   0  0  0  0  0  0  0  0  0  0  0  0
    2.5663   17.1524   41.3560 C   0  0  0  0  0  0  0  0  0  0  0  0
    3.0759   18.3916   41.2848 N   0  0  0  0  0  0  0  0  0  0  0  0
    2.6369   19.5496   42.0692 C   0  0  0  0  0  0  0  0  0  0  0  0
    3.9784   18.4407   40.4481 N   0  0  0  0  0  0  0  0  0  0  0  0
    4.0834   17.2199   39.8977 C   0  0  0  0  0  0  0  0  0  0  0  0
    3.2122   16.3867   40.4822 C   0  0  0  0  0  0  0  0  0  0  0  0
    2.8789   15.0711   40.3749 C   0  0  0  0  0  0  0  0  0  0  0  0
    3.5191   14.2609   39.4973 N   0  0  0  0  0  0  0  0  0  0  0  0
    0.1645   12.9059   41.8063 H   0  0  0  0  0  0  0  0  0  0  0  0
   -1.6505   11.9902   43.2434 H   0  0  0  0  0  0  0  0  0  0  0  0
   -2.6103   13.3771   45.0723 H   0  0  0  0  0  0  0  0  0  0  0  0
    0.0664   16.6125   44.0152 H   0  0  0  0  0  0  0  0  0  0  0  0
    3.5074   20.0145   42.5551 H   0  0  0  0  0  0  0  0  0  0  0  0
    2.1541   20.2810   41.4044 H   0  0  0  0  0  0  0  0  0  0  0  0
    1.9200   19.2222   42.8365 H   0  0  0  0  0  0  0  0  0  0  0  0
    4.7786   16.9461   39.0904 H   0  0  0  0  0  0  0  0  0  0  0  0
    4.2656   14.6394   38.8971 H   0  0  0  0  0  0  0  0  0  0  0  0
    3.2590   13.2665   39.4305 H   0  0  0  0  0  0  0  0  0  0  0  0
  1  2  2  0
  1  6  1  0
  2  3  1  0
  3  4  2  0
  4  5  1  0
  5  6  2  0
  6  7  1  0
  7  8  2  0
  7  9  1  0
  8 16  1  0
  9 10  2  0
 10 11  1  0
 10 15  1  0
 11 12  1  0
 11 13  1  0
 13 14  2  0
 14 15  1  0
 15 16  2  0
 16 17  1  0
  1 18  1  0
  2 19  1  0
  3 20  1  0
  5 21  1  0
 12 22  1  0
 12 23  1  0
 12 24  1  0
 14 25  1  0
 17 26  1  0
 17 27  1  0
M  END
>  <mol_id>  (95) 
2026-09-17-6fnk-s0-n100-0095

>  <rmsd_to_ref>  (95) 
4.770408163270917

>  <pose_kind>  (95) 
rigid

$$$$
6fnk.A
     RDKit          3D

 27 29  0  0  0  0  0  0  0  0999 V2000
    2.5215   16.6667   43.3010 C   0  0  0  0  0  0  0  0  0  0  0  0
    3.1729   16.3975   44.4884 C   0  0  0  0  0  0  0  0  0  0  0  0
    3.8639   15.1829   44.5557 C   0  0  0  0  0  0  0  0  0  0  0  0
    3.8903   14.3389   43.5347 N   0  0  0  0  0  0  0  0  0  0  0  0
    3.2523   14.6242   42.4000 C   0  0  0  0  0  0  0  0  0  0  0  0
    2.5452   15.7893   42.2308 C   0  0  0  0  0  0  0  0  0  0  0  0
    1.8358   16.1341   41.0044 C   0  0  0  0  0  0  0  0  0  0  0  0
    1.1553   17.2936   40.8910 N   0  0  0  0  0  0  0  0  0  0  0  0
    1.8572   15.2812   39.9605 N   0  0  0  0  0  0  0  0  0  0  0  0
    1.2052   15.5698   38.7967 C   0  0  0  0  0  0  0  0  0  0  0  0
    1.0589   14.9244   37.6242 N   0  0  0  0  0  0  0  0  0  0  0  0
    1.6268   13.6163   37.2819 C   0  0  0  0  0  0  0  0  0  0  0  0
    0.3121   15.6752   36.8304 N   0  0  0  0  0  0  0  0  0  0  0  0
   -0.0460   16.8061   37.4390 C   0  0  0  0  0  0  0  0  0  0  0  0
    0.5141   16.7603   38.6982 C   0  0  0  0  0  0  0  0  0  0  0  0
    0.4915   17.6362   39.7686 C   0  0  0  0  0  0  0  0  0  0  0  0
   -0.2131   18.8794   39.7062 N   0  0  0  0  0  0  0  0  0  0  0  0
    1.9735   17.6018   43.2114 H   0  0  0  0  0  0  0  0  0  0  0  0
    3.1508   17.0893   45.3239 H   0  0  0  0  0  0  0  0  0  0  0  0
    4.3697   14.9941   45.5036 H   0  0  0  0  0  0  0  0  0  0  0  0
    3.3016   13.9104   41.5998 H   0  0  0  0  0  0  0  0  0  0  0  0
    0.9729   13.1848   36.4985 H   0  0  0  0  0  0  0  0  0  0  0  0
    2.6191   13.7417   36.7834 H   0  0  0  0  0  0  0  0  0  0  0  0
    1.7227   12.9936   38.1754 H   0  0  0  0  0  0  0  0  0  0  0  0
   -0.6481   17.6367   37.0882 H   0  0  0  0  0  0  0  0  0  0  0  0
   -0.8660   19.1355   40.5029 H   0  0  0  0  0  0  0  0  0  0  0  0
   -0.0759   19.5119   38.8841 H   0  0  0  0  0  0  0  0  0  0  0  0
  1  2  2  0
  1  6  1  0
  2  3  1  0
  3  4  2  0
  4  5  1  0
  5  6  2  0
  6  7  1  0
  7  8  2  0
  7  9  1  0
  8 16  1  0
  9 10  2  0
 10 11  1  0
 10 15  1  0
 11 12  1  0
 11 13  1  0
 13 14  2  0
 14 15  1  0
 15 16  2  0
 16 17  1  0
  1 18  1  0
  2 19  1  0
  3 20  1  0
  5 21  1  0
 12 22  1  0
 12 23  1  0
 12 24  1  0
 14 25  1  0
 17 26  1  0
 17 27  1  0
M  END
>  <mol_id>  (96) 
2026-09-17-6fnk-s0-n100-0096

>  <rmsd_to_ref>  (96) 
4.816326530616163

>  <pose_kind>  (96) 
conformer

$$$$
6fnk.A
     RDKit          3D

 27 29  0  0  0  0  0  0  0  0999 V2000
   -0.6256   15.3818   45.7504 C   0  0  0  0  0  0  0  0  0  0  0  0
   -1.2592   14.9658   46.9215 C   0  0  0  0  0  0  0  0  0  0  0  0
   -1.5254   15.8824   47.9283 C   0  0  0  0  0  0  0  0  0  0  0  0
   -1.1619   17.2221   47.7663 N   0  0  0  0  0  0  0  0  0  0  0  0
   -0.5234   17.6373   46.5879 C   0  0  0  0  0  0  0  0  0  0  0  0
   -0.2537   16.7171   45.5766 C   0  0  0  0  0  0  0  0  0  0  0  0
    0.3850   17.1335   44.4041 C   0  0  0  0  0  0  0  0  0  0  0  0
    0.8114   16.2440   43.4969 N   0  0  0  0  0  0  0  0  0  0  0  0
    0.5707   18.4373   44.1747 N   0  0  0  0  0  0  0  0  0  0  0  0
    1.1883   18.8754   43.0632 C   0  0  0  0  0  0  0  0  0  0  0  0
    1.4966   20.1079   42.6316 N   0  0  0  0  0  0  0  0  0  0  0  0
    1.2004   21.3633   43.3282 C   0  0  0  0  0  0  0  0  0  0  0  0
    2.0676   20.0543   41.5416 N   0  0  0  0  0  0  0  0  0  0  0  0
    2.1334   18.7610   41.1852 C   0  0  0  0  0  0  0  0  0  0  0  0
    1.6033   18.0005   42.1525 C   0  0  0  0  0  0  0  0  0  0  0  0
    1.4120   16.6704   42.3704 C   0  0  0  0  0  0  0  0  0  0  0  0
    1.8256   15.7507   41.4651 N   0  0  0  0  0  0  0  0  0  0  0  0
   -0.4167   14.6508   44.9555 H   0  0  0  0  0  0  0  0  0  0  0  0
   -1.5474   13.9117   47.0466 H   0  0  0  0  0  0  0  0  0  0  0  0
   -2.0222   15.5549   48.8534 H   0  0  0  0  0  0  0  0  0  0  0  0
   -0.2351   18.6914   46.4620 H   0  0  0  0  0  0  0  0  0  0  0  0
    2.1194   21.9619   43.4117 H   0  0  0  0  0  0  0  0  0  0  0  0
    0.4453   21.9278   42.7614 H   0  0  0  0  0  0  0  0  0  0  0  0
    0.8141   21.1422   44.3341 H   0  0  0  0  0  0  0  0  0  0  0  0
    2.5577   18.3838   40.2430 H   0  0  0  0  0  0  0  0  0  0  0  0
    2.2876   16.0549   40.5962 H   0  0  0  0  0  0  0  0  0  0  0  0
    1.6780   14.7475   41.6459 H   0  0  0  0  0  0  0  0  0  0  0  0
  1  2  2  0
  1  6  1  0
  2  3  1  0
  3  4  2  0
  4  5  1  0
  5  6  2  0
  6  7  1  0
  7  8  2  0
  7  9  1  0
  8 16  1  0
  9 10  2  0
 10 11  1  0
 10 15  1  0
 11 12  1  0
 11 13  1  0
 13 14  2  0
 14 15  1  0
 15 16  2  0
 16 17  1  0
  1 18  1  0
  2 19  1  0
  3 20  1  0
  5 21  1  0
 12 22  1  0
 12 23  1  0
 12 24  1  0
 14 25  1  0
 17 26  1  0
 17 27  1  0
M  END
>  <mol_id>  (97) 
2026-09-17-6fnk-s0-n100-0097

>  <rmsd_to_ref>  (97) 
4.862244897960793

>  <pose_kind>  (97) 
rigid

$$$$
6fnk.A
     RDKit          3D

 27 29  0  0  0  0  0  0  0  0999 V2000
   -0.0820   20.0144   41.7989 C   0  0  0  0  0  0  0  0  0  0  0  0
    0.2417   20.9307   40.8180 C   0  0  0  0  0  0  0  0  0  0  0  0
    1.2015   20.5268   39.8838 C   0  0  0  0  0  0  0  0  0  0  0  0
    1.7674   19.3301   39.9393 N   0  0  0  0  0  0  0  0  0  0  0  0
    1.4359   18.4650   40.8972 C   0  0  0  0  0  0  0  0  0  0  0  0
    0.5055   18.7626   41.8624 C   0  0  0  0  0  0  0  0  0  0  0  0
    0.1186   17.8415   42.9246 C   0  0  0  0  0  0  0  0  0  0  0  0
   -0.8023   18.1849   43.8489 N   0  0  0  0  0  0  0  0  0  0  0  0
    0.6892   16.6217   42.9887 N   0  0  0  0  0  0  0  0  0  0  0  0
    0.3525   15.7329   43.9682 C   0  0  0  0  0  0  0  0  0  0  0  0
    0.7480   14.4816   44.2693 N   0  0  0  0  0  0  0  0  0  0  0  0
    1.7425   13.6909   43.5367 C   0  0  0  0  0  0  0  0  0  0  0  0
    0.0836   14.0861   45.3432 N   0  0  0  0  0  0  0  0  0  0  0  0
   -0.7465   15.0380   45.7701 C   0  0  0  0  0  0  0  0  0  0  0  0
   -0.5913   16.1009   44.9055 C   0  0  0  0  0  0  0  0  0  0  0  0
   -1.1775   17.3522   44.8406 C   0  0  0  0  0  0  0  0  0  0  0  0
   -2.1593   17.7712   45.7927 N   0  0  0  0  0  0  0  0  0  0  0  0
   -0.8245   20.2929   42.5431 H   0  0  0  0  0  0  0  0  0  0  0  0
   -0.2221   21.9104   40.7733 H   0  0  0  0  0  0  0  0  0  0  0  0
    1.4396   21.2682   39.1199 H   0  0  0  0  0  0  0  0  0  0  0  0
    1.9205   17.5071   40.9023 H   0  0  0  0  0  0  0  0  0  0  0  0
    2.1617   12.9644   44.2606 H   0  0  0  0  0  0  0  0  0  0  0  0
    1.2428   13.0599   42.7613 H   0  0  0  0  0  0  0  0  0  0  0  0
    2.4893   14.3435   43.0768 H   0  0  0  0  0  0  0  0  0  0  0  0
   -1.4318   15.0528   46.6102 H   0  0  0  0  0  0  0  0  0  0  0  0
   -2.0480   18.7200   46.2552 H   0  0  0  0  0  0  0  0  0  0  0  0
   -2.9649   17.1424   46.0169 H   0  0  0  0  0  0  0  0  0  0  0  0
  1  2  2  0
  1  6  1  0
  2  3  1  0
  3  4  2  0
  4  5  1  0
  5  6  2  0
  6  7  1  0
  7  8  2  0
  7  9  1  0
  8 16  1  0
  9 10  2  0
 10 11  1  0
 10 15  1  0
 11 12  1  0
 11 13  1  0
 13 14  2  0
 14 15  1  0
 15 16  2  0
 16 17  1  0
  1 18  1  0
  2 19  1  0
  3 20  1  0
  5 21  1  0
 12 22  1  0
 12 23  1  0
 12 24  1  0
 14 25  1  0
 17 26  1  0
 17 27  1  0
M  END
>  <mol_id>  (98) 
2026-09-17-6fnk-s0-n100-0098

>  <rmsd_to_ref>  (98) 
4.908163265308384

>  <pose_kind>  (98) 
conformer

$$$$
6fnk.A
     RDKit          3D

 27 29  0  0  0  0  0  0  0  0999 V2000
    0.3818   16.2746   37.8837 C   0  0  0  0  0  0  0  0  0  0  0  0
   -0.6951   16.3552   37.0006 C   0  0  0  0  0  0  0  0  0  0  0  0
   -1.8420   17.0437   37.3677 C   0  0  0  0  0  0  0  0  0  0  0  0
   -1.9159   17.6589   38.6204 N   0  0  0  0  0  0  0  0  0  0  0  0
   -0.8317   17.5747   39.5073 C   0  0  0  0  0  0  0  0  0  0  0  0
    0.3204   16.8817   39.1402 C   0  0  0  0  0  0  0  0  0  0  0  0
    1.3985   16.7975   40.0272 C   0  0  0  0  0  0  0  0  0  0  0  0
    2.4414   15.9955   39.7722 N   0  0  0  0  0  0  0  0  0  0  0  0
    1.3988   17.5302   41.1453 N   0  0  0  0  0  0  0  0  0  0  0  0
    2.4132   17.4696   42.0263 C   0  0  0  0  0  0  0  0  0  0  0  0
    2.6239   18.0853   43.1997 N   0  0  0  0  0  0  0  0  0  0  0  0
    1.7245   19.0498   43.8397 C   0  0  0  0  0  0  0  0  0  0  0  0
    3.7021   17.7376   43.6832 N   0  0  0  0  0  0  0  0  0  0  0  0
    4.2749   16.8852   42.8175 C   0  0  0  0  0  0  0  0  0  0  0  0
    3.4572   16.6859   41.7751 C   0  0  0  0  0  0  0  0  0  0  0  0
    3.4727   15.9415   40.6354 C   0  0  0  0  0  0  0  0  0  0  0  0
    4.5191   15.1293   40.3493 N   0  0  0  0  0  0  0  0  0  0  0  0
    1.2888   15.7271   37.5874 H   0  0  0  0  0  0  0  0  0  0  0  0
   -0.6347   15.8732   36.0136 H   0  0  0  0  0  0  0  0  0  0  0  0
   -2.6929   17.1054   36.6733 H   0  0  0  0  0  0  0  0  0  0  0  0
   -0.8913   18.0567   40.4942 H   0  0  0  0  0  0  0  0  0  0  0  0
    1.5316   18.7390   44.8771 H   0  0  0  0  0  0  0  0  0  0  0  0
    2.1922   20.0455   43.8363 H   0  0  0  0  0  0  0  0  0  0  0  0
    0.7748   19.0890   43.2860 H   0  0  0  0  0  0  0  0  0  0  0  0
    5.2643   16.4217   42.9449 H   0  0  0  0  0  0  0  0  0  0  0  0
    5.3188   15.0726   40.9959 H   0  0  0  0  0  0  0  0  0  0  0  0
    4.5146   14.5686   39.4853 H   0  0  0  0  0  0  0  0  0  0  0  0
  1  2  2  0
  1  6  1  0
  2  3  1  0
  3  4  2  0
  4  5  1  0
  5  6  2  0
  6  7  1  0
  7  8  2  0
  7  9  1  0
  8 16  1  0
  9 10  2  0
 10 11  1  0
 10 15  1  0
 11 12  1  0
 11 13  1  0
 13 14  2  0
 14 15  1  0
 15 16  2  0
 16 17  1  0
  1 18  1  0
  2 19  1  0
  3 20  1  0
  5 21  1  0
 12 22  1  0
 12 23  1  0
 12 24  1  0
 14 25  1  0
 17 26  1  0
 17 27  1  0
M  END
>  <mol_id>  (99) 
2026-09-17-6fnk-s0-n100-0099

>  <rmsd_to_ref>  (99) 
4.954081632656076

>  <pose_kind>  (99) 
rigid

$$$$
6fnk.A
     RDKit          3D

 27 29  0  0  0  0  0  0  0  0999 V2000
    6.5921   17.8398   42.0950 C   0  0  0  0  0  0  0  0  0  0  0  0
    7.4658   18.3699   41.1664 C   0  0  0  0  0  0  0  0  0  0  0  0
    7.1940   19.6711   40.7306 C   0  0  0  0  0  0  0  0  0  0  0  0
    6.1547   20.3555   41.1854 N   0  0  0  0  0  0  0  0  0  0  0  0
    5.3273   19.8192   42.0820 C   0  0  0  0  0  0  0  0  0  0  0  0
    5.5045   18.5495   42.5742 C   0  0  0  0  0  0  0  0  0  0  0  0
    4.6200   17.9312   43.5548 C   0  0  0  0  0  0  0  0  0  0  0  0
    4.8401   16.6787   44.0057 N   0  0  0  0  0  0  0  0  0  0  0  0
    3.5600   18.6202   44.0231 N   0  0  0  0  0  0  0  0  0  0  0  0
    2.7102   18.0745   44.9413 C   0  0  0  0  0  0  0  0  0  0  0  0
    1.6034   18.5170   45.5672 N   0  0  0  0  0  0  0  0  0  0  0  0
    0.9805   19.8332   45.3921 C   0  0  0  0  0  0  0  0  0  0  0  0
    1.1722   17.5577   46.3703 N   0  0  0  0  0  0  0  0  0  0  0  0
    1.9598   16.4843   46.2998 C   0  0  0  0  0  0  0  0  0  0  0  0
    2.9506   16.7923   45.3915 C   0  0  0  0  0  0  0  0  0  0  0  0
    4.0379   16.0845   44.9116 C   0  0  0  0  0  0  0  0  0  0  0  0
    4.3211   14.7538   45.3531 N   0  0  0  0  0  0  0  0  0  0  0  0
    6.7711   16.8301   42.4573 H   0  0  0  0  0  0  0  0  0  0  0  0
    8.3165   17.8087   40.7944 H   0  0  0  0  0  0  0  0  0  0  0  0
    7.8986   20.0666   39.9975 H   0  0  0  0  0  0  0  0  0  0  0  0
    4.4987   20.4110   42.4217 H   0  0  0  0  0  0  0  0  0  0  0  0
   -0.0899   19.7114   45.6509 H   0  0  0  0  0  0  0  0  0  0  0  0
    1.3737   20.5534   46.1508 H   0  0  0  0  0  0  0  0  0  0  0  0
    1.1546   20.2091   44.3805 H   0  0  0  0  0  0  0  0  0  0  0  0
    1.9029   15.5316   46.8141 H   0  0  0  0  0  0  0  0  0  0  0  0
    4.5178   14.0066   44.6253 H   0  0  0  0  0  0  0  0  0  0  0  0
    4.3302   14.5385   46.3771 H   0  0  0  0  0  0  0  0  0  0  0  0
  1  2  2  0
  1  6  1  0
  2  3  1  0
  3  4  2  0
  4  5  1  0
  5  6  2  0
  6  7  1  0
  7  8  2  0
  7  9  1  0
  8 16  1  0
  9 10  2  0
 10 11  1  0
 10 15  1  0
 11 12  1  0
 11 13  1  0
 13 14  2  0
 14 15  1  0
 15 16  2  0
 16 17  1  0
  1 18  1  0
  2 19  1  0
  3 20  1  0
  5 21  1  0
 12 22  1  0
 12 23  1  0
 12 24  1  0
 14 25  1  0
 17 26  1  0
 17 27  1  0
M  END
>  <mol_id>  (100) 
2026-09-17-6fnk-s0-n100-0100

>  <rmsd_to_ref>  (100) 
5.000000000000223

>  <pose_kind>  (100) 
conformer

$$$$
