
     RDKit          3D

 61 64  0  0  0  0  0  0  0  0999 V2000
    1.8194   18.7556   40.5000 C   0  0  0  0  0  0  0  0  0  0  0  0
    1.3917   16.1682   40.9853 C   0  0  0  0  0  0  0  0  0  0  0  0
    3.0036   18.2623   37.0908 C   0  0  0  0  0  0  0  0  0  0  0  0
   -0.2348   11.7853   44.6491 C   0  0  0  0  0  0  0  0  0  0  0  0
    0.7866   17.1306   41.9540 C   0  0  0  0  0  0  0  0  0  0  0  0
    1.0156   18.3694   41.6288 C   0  0  0  0  0  0  0  0  0  0  0  0
   -0.4157   14.1783   44.1511 N   0  0  0  0  0  0  0  0  0  0  0  0
    3.7235   20.7388   35.3237 N   0  0  0  0  0  0  0  0  0  0  0  0
    0.5205   14.2706   43.2995 O   0  0  0  0  0  0  0  0  0  0  0  0
    1.6416   21.0672   38.3911 C   0  0  0  0  0  0  0  0  0  0  0  0
    2.8104   21.0285   36.1675 C   0  0  0  0  0  0  0  0  0  0  0  0
   -1.1533   12.8606   44.0445 C   0  0  0  0  0  0  0  0  0  0  0  0
    2.3487   20.5289   37.2572 C   0  0  1  0  0  0  0  0  0  0  0  0
   -0.3738   19.5223   43.1388 C   0  0  0  0  0  0  0  0  0  0  0  0
   -0.7126   18.3734   43.8904 C   0  0  0  0  0  0  0  0  0  0  0  0
   -0.5130   16.9599   46.7265 S   0  0  0  0  0  0  0  0  0  0  0  0
   -1.1575   15.1771   48.7976 C   0  0  0  0  0  0  0  0  0  0  0  0
   -0.1746   16.9807   43.6738 C   0  0  0  0  0  0  0  0  0  0  0  0
    2.1695   16.5471   39.9820 C   0  0  0  0  0  0  0  0  0  0  0  0
   -0.9686   14.5034   46.4109 N   0  0  0  0  0  0  0  0  0  0  0  0
    2.1478   21.9958   35.8501 N   0  0  0  0  0  0  0  0  0  0  0  0
   -1.1617   18.6955   45.0212 O   0  0  0  0  0  0  0  0  0  0  0  0
   -2.5201   14.6073   49.1300 C   0  0  0  0  0  0  0  0  0  0  0  0
    2.4478   17.9208   39.7163 C   0  0  0  0  0  0  0  0  0  0  0  0
   -0.6343   15.0286   45.2242 C   0  0  1  0  0  0  0  0  0  0  0  0
    2.5227   19.7498   38.4332 C   0  0  2  0  0  0  0  0  0  0  0  0
    2.6189   22.5195   34.8105 O   0  0  0  0  0  0  0  0  0  0  0  0
   -0.4979   16.3425   45.1066 N   0  0  0  0  0  0  0  0  0  0  0  0
   -0.9319   15.3685   47.3876 C   0  0  0  0  0  0  0  0  0  0  0  0
    0.4611   19.4717   42.1785 C   0  0  0  0  0  0  0  0  0  0  0  0
    3.6400   21.7783   34.4615 N   0  0  0  0  0  0  0  0  0  0  0  0
    2.8295   18.4407   38.3815 N   0  0  0  0  0  0  0  0  0  0  0  0
    1.9113   19.8298   40.2815 H   0  0  0  0  0  0  0  0  0  0  0  0
    1.1819   15.0957   41.1105 H   0  0  0  0  0  0  0  0  0  0  0  0
    3.6927   17.4207   36.9267 H   0  0  0  0  0  0  0  0  0  0  0  0
    2.0356   18.0413   36.6173 H   0  0  0  0  0  0  0  0  0  0  0  0
    3.4282   19.1755   36.6484 H   0  0  0  0  0  0  0  0  0  0  0  0
   -0.2984   11.8236   45.7466 H   0  0  0  0  0  0  0  0  0  0  0  0
   -0.5521   10.7924   44.2979 H   0  0  0  0  0  0  0  0  0  0  0  0
    0.8031   11.9709   44.3353 H   0  0  0  0  0  0  0  0  0  0  0  0
    0.2125   16.8266   42.8417 H   0  0  0  0  0  0  0  0  0  0  0  0
    1.3940   14.2347   43.7641 H   0  0  0  0  0  0  0  0  0  0  0  0
    0.5445   21.0107   38.4468 H   0  0  0  0  0  0  0  0  0  0  0  0
    1.6041   22.0243   38.9319 H   0  0  0  0  0  0  0  0  0  0  0  0
   -2.0986   12.9096   44.6049 H   0  0  0  0  0  0  0  0  0  0  0  0
   -1.3955   12.6283   42.9969 H   0  0  0  0  0  0  0  0  0  0  0  0
    2.3611   20.2323   36.1980 H   0  0  0  0  0  0  0  0  0  0  0  0
   -0.8437   20.4847   43.3901 H   0  0  0  0  0  0  0  0  0  0  0  0
   -1.0578   16.1509   49.2993 H   0  0  0  0  0  0  0  0  0  0  0  0
   -0.4128   14.4451   49.1431 H   0  0  0  0  0  0  0  0  0  0  0  0
   -0.7043   16.4582   42.8636 H   0  0  0  0  0  0  0  0  0  0  0  0
    0.8807   16.9303   43.3677 H   0  0  0  0  0  0  0  0  0  0  0  0
    2.6149   15.7783   39.3334 H   0  0  0  0  0  0  0  0  0  0  0  0
    1.3201   22.3367   36.3593 H   0  0  0  0  0  0  0  0  0  0  0  0
   -2.5964   14.4493   50.2160 H   0  0  0  0  0  0  0  0  0  0  0  0
   -3.3009   15.3112   48.8061 H   0  0  0  0  0  0  0  0  0  0  0  0
   -2.6530   13.6474   48.6096 H   0  0  0  0  0  0  0  0  0  0  0  0
   -1.6985   15.0958   44.9542 H   0  0  0  0  0  0  0  0  0  0  0  0
    2.9818   19.3357   39.3430 H   0  0  0  0  0  0  0  0  0  0  0  0
    0.7659   20.4366   41.7471 H   0  0  0  0  0  0  0  0  0  0  0  0
    4.2712   21.9558   33.6673 H   0  0  0  0  0  0  0  0  0  0  0  0
  1  6  2  0
  2  5  2  0
  3 32  1  0
  6 30  1  0
  6  5  1  0
  8 11  2  0
  9  7  1  0
 10 26  1  0
 12  7  1  0
 12  4  1  0
 13 11  1  0
 13 10  1  0
 13 26  1  0
 14 15  1  0
 15 22  2  0
 16 29  1  0
 17 23  1  0
 18 15  1  0
 18 28  1  0
 19  2  1  0
 20 29  2  0
 21 11  1  0
 24 19  2  0
 24  1  1  0
 25  7  1  0
 25 20  1  0
 26 32  1  0
 27 21  1  0
 28 25  1  0
 28 16  1  0
 29 17  1  0
 30 14  2  3
 31 27  1  0
 31  8  1  0
 32 24  1  0
  1 33  1  0
  2 34  1  0
  3 35  1  0
  3 36  1  0
  3 37  1  0
  4 38  1  0
  4 39  1  0
  4 40  1  0
  5 41  1  0
  9 42  1  0
 10 43  1  0
 10 44  1  0
 12 45  1  0
 12 46  1  0
 13 47  1  6
 14 48  1  0
 17 49  1  0
 17 50  1  0
 18 51  1  0
 18 52  1  0
 19 53  1  0
 21 54  1  0
 23 55  1  0
 23 56  1  0
 23 57  1  0
 25 58  1  6
 26 59  1  1
 30 60  1  0
 31 61  1  0
M  END
>  <mol_id>  (1) 
2026-08-23-6tgu-s0-n100-prep-0001

>  <rmsd_to_ref>  (1) 


$$$$

     RDKit          3D

 35 38  0  0  0  0  0  0  0  0999 V2000
   -0.8275   17.9524   44.9170 C   0  0  0  0  0  0  0  0  0  0  0  0
    0.2157   20.6949   41.4822 N   0  0  0  0  0  0  0  0  0  0  0  0
    1.3326   17.0612   41.1196 C   0  0  0  0  0  0  0  0  0  0  0  0
    0.6443   17.0968   42.4935 C   0  0  0  0  0  0  0  0  0  0  0  0
   -1.4334   16.7754   44.2680 N   0  0  0  0  0  0  0  0  0  0  0  0
    2.5282   16.4082   38.5198 O   0  0  0  0  0  0  0  0  0  0  0  0
    0.6349   21.4395   40.5207 C   0  0  0  0  0  0  0  0  0  0  0  0
    3.1598   18.1232   37.1938 C   0  0  0  0  0  0  0  0  0  0  0  0
    3.6072   17.0546   36.4851 N   0  0  0  0  0  0  0  0  0  0  0  0
    1.3847   21.2578   39.4039 C   0  0  0  0  0  0  0  0  0  0  0  0
    0.6135   19.3617   41.5896 C   0  0  0  0  0  0  0  0  0  0  0  0
    2.4830   17.7495   38.4114 C   0  0  0  0  0  0  0  0  0  0  0  0
    3.1585   16.0376   37.2450 C   0  0  0  0  0  0  0  0  0  0  0  0
   -0.7672   20.1540   44.0542 O   0  0  0  0  0  0  0  0  0  0  0  0
    1.8557   18.6967   39.2889 C   0  0  0  0  0  0  0  0  0  0  0  0
    2.6155   20.3598   37.4550 C   0  0  0  0  0  0  0  0  0  0  0  0
    3.2162   19.4865   36.6953 N   0  0  0  0  0  0  0  0  0  0  0  0
    1.9884   20.1215   38.7417 C   0  0  0  0  0  0  0  0  0  0  0  0
    1.2739   18.5153   40.5940 C   0  0  0  0  0  0  0  0  0  0  0  0
   -0.4336   19.0369   43.8730 C   0  0  0  0  0  0  0  0  0  0  0  0
    3.0962   14.5729   36.8532 C   0  0  0  0  0  0  0  0  0  0  0  0
    0.2655   18.6421   42.7195 C   0  0  0  0  0  0  0  0  0  0  0  0
   -1.5512   18.3831   45.6246 H   0  0  0  0  0  0  0  0  0  0  0  0
    0.0843   17.6282   45.4400 H   0  0  0  0  0  0  0  0  0  0  0  0
    1.7732   16.1876   40.6170 H   0  0  0  0  0  0  0  0  0  0  0  0
    0.4533   16.2520   43.1716 H   0  0  0  0  0  0  0  0  0  0  0  0
   -1.7659   16.1191   44.9888 H   0  0  0  0  0  0  0  0  0  0  0  0
   -2.2273   17.0758   43.6846 H   0  0  0  0  0  0  0  0  0  0  0  0
   -0.7302   16.3091   43.6772 H   0  0  0  0  0  0  0  0  0  0  0  0
    0.3035   22.4826   40.6309 H   0  0  0  0  0  0  0  0  0  0  0  0
    1.5807   22.2020   38.8746 H   0  0  0  0  0  0  0  0  0  0  0  0
    2.5803   21.3928   37.0783 H   0  0  0  0  0  0  0  0  0  0  0  0
    3.1168   13.9497   37.7594 H   0  0  0  0  0  0  0  0  0  0  0  0
    2.1665   14.3812   36.2974 H   0  0  0  0  0  0  0  0  0  0  0  0
    3.9602   14.3260   36.2187 H   0  0  0  0  0  0  0  0  0  0  0  0
  2 11  1  0
  3  4  2  0
  4 22  1  0
  5  1  1  0
  7  2  2  0
  8 12  2  0
  9 13  2  0
  9  8  1  0
 10  7  1  0
 11 22  2  0
 12  6  1  0
 12 15  1  0
 13  6  1  0
 15 19  2  0
 16 18  1  0
 17  8  1  0
 17 16  2  0
 18 15  1  0
 18 10  2  0
 19  3  1  0
 19 11  1  0
 20 14  2  0
 20  1  1  0
 21 13  1  0
 22 20  1  0
  1 23  1  0
  1 24  1  0
  3 25  1  0
  4 26  1  0
  5 27  1  0
  5 28  1  0
  5 29  1  0
  7 30  1  0
 10 31  1  0
 16 32  1  0
 21 33  1  0
 21 34  1  0
 21 35  1  0
M  CHG  1   5   1
M  END
>  <mol_id>  (2) 
2026-08-23-6tgu-s0-n100-prep-0002

>  <rmsd_to_ref>  (2) 


$$$$

     RDKit          3D

 35 38  0  0  0  0  0  0  0  0999 V2000
    3.4683   20.1154   37.6826 C   0  0  2  0  0  0  0  0  0  0  0  0
   -0.8335   17.5559   43.3460 C   0  0  0  0  0  0  0  0  0  0  0  0
   -1.5797   18.6350   43.4415 N   0  0  0  0  0  0  0  0  0  0  0  0
    3.1169   17.2315   38.8845 C   0  0  0  0  0  0  0  0  0  0  0  0
    1.9547   19.2697   39.5804 C   0  0  1  0  0  0  0  0  0  0  0  0
    4.1408   17.9584   38.0377 C   0  0  0  0  0  0  0  0  0  0  0  0
    1.6850   15.9841   40.4703 N   0  0  0  0  0  0  0  0  0  0  0  0
    1.7977   20.5185   39.5303 C   0  0  0  0  0  0  0  0  0  0  0  0
    1.8561   13.3177   40.7199 Cl  0  0  0  0  0  0  0  0  0  0  0  0
    3.6897   15.9173   38.4026 C   0  0  0  0  0  0  0  0  0  0  0  0
    2.3190   14.8429   40.0139 C   0  0  0  0  0  0  0  0  0  0  0  0
    2.8985   21.0900   36.8844 O   0  0  0  0  0  0  0  0  0  0  0  0
    0.3556   18.3144   41.3605 C   0  0  0  0  0  0  0  0  0  0  0  0
    1.3561   18.3703   40.3356 C   0  0  1  0  0  0  0  0  0  0  0  0
   -1.3595   19.5542   42.5388 C   0  0  0  0  0  0  0  0  0  0  0  0
    2.0089   17.0217   39.9480 C   0  0  0  0  0  0  0  0  0  0  0  0
    3.8062   18.8959   37.0688 O   0  0  0  0  0  0  0  0  0  0  0  0
   -0.4711   19.4265   41.5053 C   0  0  0  0  0  0  0  0  0  0  0  0
    2.4998   19.7675   38.6822 N   0  0  0  0  0  0  0  0  0  0  0  0
    0.1096   17.3673   42.4097 C   0  0  0  0  0  0  0  0  0  0  0  0
    3.2280   14.8129   38.9499 C   0  0  0  0  0  0  0  0  0  0  0  0
    4.4086   20.5647   38.0344 H   0  0  0  0  0  0  0  0  0  0  0  0
   -0.9930   16.7547   44.0826 H   0  0  0  0  0  0  0  0  0  0  0  0
    2.1089   18.2339   39.9169 H   0  0  0  0  0  0  0  0  0  0  0  0
    4.8012   18.4802   38.7459 H   0  0  0  0  0  0  0  0  0  0  0  0
    4.5292   17.1371   37.4174 H   0  0  0  0  0  0  0  0  0  0  0  0
    0.8336   20.9582   39.2352 H   0  0  0  0  0  0  0  0  0  0  0  0
    1.9672   21.3885   40.1818 H   0  0  0  0  0  0  0  0  0  0  0  0
    4.4646   15.8855   37.6224 H   0  0  0  0  0  0  0  0  0  0  0  0
    2.3109   21.6657   37.4352 H   0  0  0  0  0  0  0  0  0  0  0  0
    2.1347   18.4961   41.1025 H   0  0  0  0  0  0  0  0  0  0  0  0
   -1.9263   20.4938   42.6148 H   0  0  0  0  0  0  0  0  0  0  0  0
   -0.4075   20.2332   40.7601 H   0  0  0  0  0  0  0  0  0  0  0  0
    0.7173   16.4513   42.4483 H   0  0  0  0  0  0  0  0  0  0  0  0
    3.5654   13.8408   38.5609 H   0  0  0  0  0  0  0  0  0  0  0  0
  1 12  1  0
  1 19  1  0
  2  3  2  0
  4 16  2  0
  5  8  1  0
  5 14  1  0
  6  4  1  0
 10  4  1  0
 10 21  2  0
 11  7  2  0
 11  9  1  0
 13 18  1  0
 13 20  2  0
 14 13  1  0
 15  3  1  0
 16 14  1  0
 16  7  1  0
 17  1  1  0
 17  6  1  0
 18 15  2  0
 19  8  1  0
 19  5  1  0
 20  2  1  0
 21 11  1  0
  1 22  1  1
  2 23  1  0
  5 24  1  1
  6 25  1  0
  6 26  1  0
  8 27  1  0
  8 28  1  0
 10 29  1  0
 12 30  1  0
 14 31  1  1
 15 32  1  0
 18 33  1  0
 20 34  1  0
 21 35  1  0
M  END
>  <mol_id>  (3) 
2026-08-23-6tgu-s0-n100-prep-0003

>  <rmsd_to_ref>  (3) 


$$$$

     RDKit          3D

 24 25  0  0  0  0  0  0  0  0999 V2000
    2.3306   20.8835   37.9070 C   0  0  0  0  0  0  0  0  0  0  0  0
   -0.8038   17.0471   43.2061 C   0  0  0  0  0  0  0  0  0  0  0  0
    1.8236   18.3193   40.4964 C   0  0  0  0  0  0  0  0  0  0  0  0
    4.0676   19.0396   37.0281 C   0  0  0  0  0  0  0  0  0  0  0  0
    3.8479   20.1421   36.3432 N   0  0  0  0  0  0  0  0  0  0  0  0
    2.5761   19.7952   38.7505 C   0  0  0  0  0  0  0  0  0  0  0  0
    0.9772   20.5418   40.5356 C   0  0  0  0  0  0  0  0  0  0  0  0
    0.1527   20.2514   41.5863 C   0  0  0  0  0  0  0  0  0  0  0  0
   -0.7049   18.5248   43.0106 O   0  0  0  0  0  0  0  0  0  0  0  0
    0.1775   18.9535   42.0764 C   0  0  0  0  0  0  0  0  0  0  0  0
    1.7823   19.5566   39.9111 C   0  0  0  0  0  0  0  0  0  0  0  0
    1.0521   17.9688   41.6352 C   0  0  0  0  0  0  0  0  0  0  0  0
    2.9814   21.0705   36.7705 N   0  0  0  0  0  0  0  0  0  0  0  0
    3.4552   18.8480   38.2707 C   0  0  0  0  0  0  0  0  0  0  0  0
    1.5636   21.6151   38.2012 H   0  0  0  0  0  0  0  0  0  0  0  0
   -0.9595   16.8280   44.2728 H   0  0  0  0  0  0  0  0  0  0  0  0
   -1.6514   16.6561   42.6240 H   0  0  0  0  0  0  0  0  0  0  0  0
    0.1265   16.5690   42.8656 H   0  0  0  0  0  0  0  0  0  0  0  0
    2.4884   17.5582   40.0619 H   0  0  0  0  0  0  0  0  0  0  0  0
    4.7356   18.2660   36.6214 H   0  0  0  0  0  0  0  0  0  0  0  0
    1.0174   21.5756   40.1619 H   0  0  0  0  0  0  0  0  0  0  0  0
   -0.5044   21.0162   42.0259 H   0  0  0  0  0  0  0  0  0  0  0  0
    1.1403   16.9909   42.1311 H   0  0  0  0  0  0  0  0  0  0  0  0
    3.6737   17.9465   38.8618 H   0  0  0  0  0  0  0  0  0  0  0  0
  1  6  2  0
  3 12  1  0
  4 14  2  0
  5 13  2  0
  5  4  1  0
  6 11  1  0
  7  8  2  0
  8 10  1  0
  9  2  1  0
 10  9  1  0
 11  3  2  0
 11  7  1  0
 12 10  2  0
 13  1  1  0
 14  6  1  0
  1 15  1  0
  2 16  1  0
  2 17  1  0
  2 18  1  0
  3 19  1  0
  4 20  1  0
  7 21  1  0
  8 22  1  0
 12 23  1  0
 14 24  1  0
M  END
>  <mol_id>  (4) 
2026-08-23-6tgu-s0-n100-prep-0004

>  <rmsd_to_ref>  (4) 


$$$$

     RDKit          3D

 30 32  0  0  0  0  0  0  0  0999 V2000
    0.1164   17.2458   42.8182 C   0  0  0  0  0  0  0  0  0  0  0  0
   -0.0037   19.5208   42.7448 C   0  0  0  0  0  0  0  0  0  0  0  0
    1.5286   19.8509   40.4503 C   0  0  0  0  0  0  0  0  0  0  0  0
    3.6934   19.4398   37.2469 C   0  0  0  0  0  0  0  0  0  0  0  0
    1.9331   21.2044   38.3861 C   0  0  0  0  0  0  0  0  0  0  0  0
    1.2594   18.5337   40.9284 C   0  0  0  0  0  0  0  0  0  0  0  0
    0.4847   15.8313   42.4207 C   0  0  0  0  0  0  0  0  0  0  0  0
   -0.1015   14.9011   43.3220 N   0  0  0  0  0  0  0  0  0  0  0  0
   -0.6764   17.7233   43.8931 C   0  0  0  0  0  0  0  0  0  0  0  0
    0.5450   18.3687   42.0855 C   0  0  0  0  0  0  0  0  0  0  0  0
    3.5282   20.6043   36.6625 N   0  0  0  0  0  0  0  0  0  0  0  0
    1.0771   20.8830   41.1642 C   0  0  0  0  0  0  0  0  0  0  0  0
    2.9463   19.1090   38.4279 C   0  0  0  0  0  0  0  0  0  0  0  0
   -0.6895   19.1498   43.7895 N   0  0  0  0  0  0  0  0  0  0  0  0
    2.6299   21.4730   37.1780 C   0  0  0  0  0  0  0  0  0  0  0  0
    0.3108   20.7297   42.3090 N   0  0  0  0  0  0  0  0  0  0  0  0
    2.2042   19.9913   39.0840 C   0  0  0  0  0  0  0  0  0  0  0  0
    4.4074   18.7144   36.8297 H   0  0  0  0  0  0  0  0  0  0  0  0
    1.1959   21.9212   38.7771 H   0  0  0  0  0  0  0  0  0  0  0  0
    1.6229   17.6572   40.3718 H   0  0  0  0  0  0  0  0  0  0  0  0
    0.1176   15.6323   41.4030 H   0  0  0  0  0  0  0  0  0  0  0  0
    1.5789   15.7222   42.4525 H   0  0  0  0  0  0  0  0  0  0  0  0
    0.0998   15.1879   44.2906 H   0  0  0  0  0  0  0  0  0  0  0  0
   -1.1208   14.8771   43.1759 H   0  0  0  0  0  0  0  0  0  0  0  0
    0.2917   13.9643   43.1525 H   0  0  0  0  0  0  0  0  0  0  0  0
   -1.1825   17.1152   44.6573 H   0  0  0  0  0  0  0  0  0  0  0  0
    1.3238   21.9014   40.8295 H   0  0  0  0  0  0  0  0  0  0  0  0
    2.9916   18.0769   38.8058 H   0  0  0  0  0  0  0  0  0  0  0  0
    2.4329   22.4156   36.6463 H   0  0  0  0  0  0  0  0  0  0  0  0
   -0.0152   21.5607   42.8227 H   0  0  0  0  0  0  0  0  0  0  0  0
  1  9  2  0
  2 14  2  0
  3  6  1  0
  3 12  2  0
  4 13  1  0
  5 17  1  0
  6 10  2  0
  7  1  1  0
  7  8  1  0
 10  2  1  0
 10  1  1  0
 11 15  1  0
 11  4  2  0
 12 16  1  0
 13 17  2  0
 14  9  1  0
 15  5  2  0
 16  2  1  0
 17  3  1  0
  4 18  1  0
  5 19  1  0
  6 20  1  0
  7 21  1  0
  7 22  1  0
  8 23  1  0
  8 24  1  0
  8 25  1  0
  9 26  1  0
 12 27  1  0
 13 28  1  0
 15 29  1  0
 16 30  1  0
M  CHG  1   8   1
M  END
>  <mol_id>  (5) 
2026-08-23-6tgu-s0-n100-prep-0005

>  <rmsd_to_ref>  (5) 


$$$$

     RDKit          3D

 52 56  0  0  0  0  0  0  0  0999 V2000
   -0.3632   19.5018   44.4622 N   0  0  0  0  0  0  0  0  0  0  0  0
    3.2359   18.9810   38.8762 C   0  0  2  0  0  0  0  0  0  0  0  0
   -0.4804   13.4877   44.5502 C   0  0  0  0  0  0  0  0  0  0  0  0
    2.3363   18.8661   40.0800 C   0  0  0  0  0  0  0  0  0  0  0  0
    3.4835   16.9129   37.6260 C   0  0  1  0  0  0  0  0  0  0  0  0
   -0.0448   19.1502   42.1381 C   0  0  2  0  0  0  0  0  0  0  0  0
    2.4416   21.6102   36.7794 C   0  0  0  0  0  0  0  0  0  0  0  0
    1.9415   17.6543   40.5728 N   0  0  0  0  0  0  0  0  0  0  0  0
    3.3835   20.9412   36.2253 N   0  0  0  0  0  0  0  0  0  0  0  0
   -0.2513   20.0111   43.2096 C   0  0  0  0  0  0  0  0  0  0  0  0
    3.9316   16.1651   36.5055 C   0  0  0  0  0  0  0  0  0  0  0  0
   -0.8953   13.0840   45.9167 C   0  0  0  0  0  0  0  0  0  0  0  0
    0.3834   15.1687   42.5941 C   0  0  0  0  0  0  0  0  0  0  0  0
    1.0659   15.7476   41.5564 C   0  0  0  0  0  0  0  0  0  0  0  0
    2.3661   15.5066   39.3504 C   0  0  0  0  0  0  0  0  0  0  0  0
    2.5698   14.3576   38.5054 O   0  0  0  0  0  0  0  0  0  0  0  0
   -0.1521   18.1277   44.6567 C   0  0  0  0  0  0  0  0  0  0  0  0
    0.4378   17.8735   42.3603 C   0  0  0  0  0  0  0  0  0  0  0  0
    3.7692   19.9233   36.9972 N   0  0  0  0  0  0  0  0  0  0  0  0
    0.0762   17.3354   43.6686 C   0  0  0  0  0  0  0  0  0  0  0  0
   -0.2328   21.2819   42.9760 O   0  0  0  0  0  0  0  0  0  0  0  0
    2.6521   16.7299   38.2815 O   0  0  0  0  0  0  0  0  0  0  0  0
    1.1595   17.1165   41.4985 C   0  0  0  0  0  0  0  0  0  0  0  0
    3.0534   20.0380   38.0221 C   0  0  0  0  0  0  0  0  0  0  0  0
   -0.3635   14.9176   44.6784 C   0  0  0  0  0  0  0  0  0  0  0  0
    1.6485   14.8781   40.5476 C   0  0  0  0  0  0  0  0  0  0  0  0
    2.2366   21.0995   38.0109 C   0  0  0  0  0  0  0  0  0  0  0  0
    4.2655   17.9849   38.2309 C   0  0  0  0  0  0  0  0  0  0  0  0
   -0.6098   15.3931   45.9564 N   0  0  0  0  0  0  0  0  0  0  0  0
   -0.9692   14.1995   46.6724 N   0  0  0  0  0  0  0  0  0  0  0  0
    2.1904   19.9947   40.6862 O   0  0  0  0  0  0  0  0  0  0  0  0
    0.0252   15.8222   43.6421 C   0  0  0  0  0  0  0  0  0  0  0  0
   -0.4007   19.6150   40.9566 F   0  0  0  0  0  0  0  0  0  0  0  0
    3.5591   18.7176   39.8942 H   0  0  0  0  0  0  0  0  0  0  0  0
   -0.3066   12.8567   43.6661 H   0  0  0  0  0  0  0  0  0  0  0  0
    3.1417   16.7459   36.5939 H   0  0  0  0  0  0  0  0  0  0  0  0
   -1.0710   18.7914   42.3060 H   0  0  0  0  0  0  0  0  0  0  0  0
    1.8960   22.4529   36.3298 H   0  0  0  0  0  0  0  0  0  0  0  0
    2.4108   16.9037   40.0461 H   0  0  0  0  0  0  0  0  0  0  0  0
    4.4017   15.2326   36.8512 H   0  0  0  0  0  0  0  0  0  0  0  0
    3.0752   15.9260   35.8580 H   0  0  0  0  0  0  0  0  0  0  0  0
    4.6653   16.7574   35.9391 H   0  0  0  0  0  0  0  0  0  0  0  0
   -1.8782   12.5917   45.8792 H   0  0  0  0  0  0  0  0  0  0  0  0
   -0.1694   12.3773   46.3454 H   0  0  0  0  0  0  0  0  0  0  0  0
    0.1313   14.1001   42.5278 H   0  0  0  0  0  0  0  0  0  0  0  0
   -0.1827   17.7185   45.6774 H   0  0  0  0  0  0  0  0  0  0  0  0
    0.8329   14.2591   40.1457 H   0  0  0  0  0  0  0  0  0  0  0  0
    2.4483   14.3486   41.0860 H   0  0  0  0  0  0  0  0  0  0  0  0
    2.5131   21.8225   38.7925 H   0  0  0  0  0  0  0  0  0  0  0  0
    1.1852   20.8469   38.2124 H   0  0  0  0  0  0  0  0  0  0  0  0
    4.9348   17.5776   39.0031 H   0  0  0  0  0  0  0  0  0  0  0  0
    4.8918   18.4913   37.4816 H   0  0  0  0  0  0  0  0  0  0  0  0
  1 17  2  0
  2 24  1  0
  2  4  1  0
  3 12  1  0
  4 31  2  0
  4  8  1  0
  5 11  1  0
  5 28  1  0
  5 22  1  0
  6 33  1  0
  6 18  1  0
  6 10  1  0
  7 27  1  0
  8 23  1  0
  9  7  2  0
  9 19  1  0
 10  1  1  0
 12 30  1  0
 13 32  2  0
 14 13  1  0
 15 26  1  0
 16 15  2  0
 18 20  2  0
 19 24  2  0
 20 32  1  0
 20 17  1  0
 21 10  2  0
 22 15  1  0
 23 14  2  0
 23 18  1  0
 25  3  2  0
 25 29  1  0
 26 14  1  0
 27 24  1  0
 28  2  1  0
 29 30  2  0
 32 25  1  0
  2 34  1  1
  3 35  1  0
  5 36  1  6
  6 37  1  6
  7 38  1  0
  8 39  1  0
 11 40  1  0
 11 41  1  0
 11 42  1  0
 12 43  1  0
 12 44  1  0
 13 45  1  0
 17 46  1  0
 26 47  1  0
 26 48  1  0
 27 49  1  0
 27 50  1  0
 28 51  1  0
 28 52  1  0
M  END
>  <mol_id>  (6) 
2026-08-23-6tgu-s0-n100-prep-0006

>  <rmsd_to_ref>  (6) 


$$$$

     RDKit          3D

 46 48  0  0  0  0  0  0  0  0999 V2000
   -0.1048   19.8027   42.3680 C   0  0  0  0  0  0  0  0  0  0  0  0
    2.3606   20.7842   36.9732 O   0  0  0  0  0  0  0  0  0  0  0  0
    3.7624   18.1374   39.4093 C   0  0  0  0  0  0  0  0  0  0  0  0
   -0.5100   17.7238   43.6102 C   0  0  0  0  0  0  0  0  0  0  0  0
    0.0812   18.3140   42.5517 C   0  0  0  0  0  0  0  0  0  0  0  0
    2.7912   20.3191   38.3364 C   0  0  0  0  0  0  0  0  0  0  0  0
    1.5080   18.0685   40.4953 C   0  0  0  0  0  0  0  0  0  0  0  0
    3.3052   21.4211   36.1112 C   0  0  0  0  0  0  0  0  0  0  0  0
    2.0189   13.9978   41.3387 C   0  0  0  0  0  0  0  0  0  0  0  0
   -0.5114   16.3582   43.8746 C   0  0  0  0  0  0  0  0  0  0  0  0
    3.8101   18.4470   37.0077 C   0  0  0  0  0  0  0  0  0  0  0  0
    3.8388   17.2824   37.2350 C   0  0  0  0  0  0  0  0  0  0  0  0
    0.3371   15.5035   43.0318 C   0  0  0  0  0  0  0  0  0  0  0  0
    1.9856   15.4163   41.1789 C   0  0  0  0  0  0  0  0  0  0  0  0
    0.9036   17.4786   41.7350 C   0  0  0  0  0  0  0  0  0  0  0  0
    4.0528   20.9951   35.1300 N   0  0  0  0  0  0  0  0  0  0  0  0
    2.7654   15.9992   40.2360 N   0  0  0  0  0  0  0  0  0  0  0  0
    3.5457   19.0101   38.1788 C   0  0  2  0  0  0  0  0  0  0  0  0
    1.2709   13.3892   42.3719 C   0  0  0  0  0  0  0  0  0  0  0  0
    1.0296   16.1479   41.9518 C   0  0  0  0  0  0  0  0  0  0  0  0
    2.6517   17.2840   39.9871 C   0  0  2  0  0  0  0  0  0  0  0  0
    0.4318   14.1524   43.1958 C   0  0  0  0  0  0  0  0  0  0  0  0
    1.0609   18.9629   39.9338 O   0  0  0  0  0  0  0  0  0  0  0  0
   -1.3164   18.5191   44.3493 O   0  0  0  0  0  0  0  0  0  0  0  0
   -0.2402   20.2792   43.3502 H   0  0  0  0  0  0  0  0  0  0  0  0
    0.7830   20.2252   41.8748 H   0  0  0  0  0  0  0  0  0  0  0  0
   -0.9928   19.9873   41.7455 H   0  0  0  0  0  0  0  0  0  0  0  0
    4.5831   17.4490   39.1593 H   0  0  0  0  0  0  0  0  0  0  0  0
    3.9191   18.8847   40.2011 H   0  0  0  0  0  0  0  0  0  0  0  0
    3.4469   21.0730   38.7965 H   0  0  0  0  0  0  0  0  0  0  0  0
    1.9123   20.1740   38.9818 H   0  0  0  0  0  0  0  0  0  0  0  0
    3.4279   22.4945   36.3175 H   0  0  0  0  0  0  0  0  0  0  0  0
    2.6251   13.3804   40.6594 H   0  0  0  0  0  0  0  0  0  0  0  0
   -1.1242   15.9339   44.6836 H   0  0  0  0  0  0  0  0  0  0  0  0
    4.7808   18.7913   36.6217 H   0  0  0  0  0  0  0  0  0  0  0  0
    3.0625   18.7043   36.2429 H   0  0  0  0  0  0  0  0  0  0  0  0
    3.7744   17.1190   38.3209 H   0  0  0  0  0  0  0  0  0  0  0  0
    2.9887   16.7909   36.7392 H   0  0  0  0  0  0  0  0  0  0  0  0
    4.7800   16.8579   36.8556 H   0  0  0  0  0  0  0  0  0  0  0  0
    4.6764   21.6493   34.6360 H   0  0  0  0  0  0  0  0  0  0  0  0
    3.4490   15.4333   39.7133 H   0  0  0  0  0  0  0  0  0  0  0  0
    4.3663   19.7275   38.0304 H   0  0  0  0  0  0  0  0  0  0  0  0
    1.3480   12.3035   42.5316 H   0  0  0  0  0  0  0  0  0  0  0  0
    2.3987   16.6342   39.1364 H   0  0  0  0  0  0  0  0  0  0  0  0
   -0.1561   13.6570   43.9825 H   0  0  0  0  0  0  0  0  0  0  0  0
   -1.3362   19.4949   44.1834 H   0  0  0  0  0  0  0  0  0  0  0  0
  1  5  1  0
  2  6  1  0
  4 10  2  0
  4 24  1  0
  5  4  1  0
  7 15  1  0
  8  2  1  0
  9 19  2  0
 11 12  1  0
 13 22  2  0
 13 10  1  0
 14  9  1  0
 14 20  2  0
 15 20  1  0
 15  5  2  0
 16  8  2  3
 17 14  1  0
 18 11  1  0
 18  6  1  0
 18  3  1  0
 19 22  1  0
 20 13  1  0
 21  3  1  0
 21 17  1  0
 21  7  1  0
 23  7  2  0
  1 25  1  0
  1 26  1  0
  1 27  1  0
  3 28  1  0
  3 29  1  0
  6 30  1  0
  6 31  1  0
  8 32  1  0
  9 33  1  0
 10 34  1  0
 11 35  1  0
 11 36  1  0
 12 37  1  0
 12 38  1  0
 12 39  1  0
 16 40  1  0
 17 41  1  0
 18 42  1  1
 19 43  1  0
 21 44  1  6
 22 45  1  0
 24 46  1  0
M  END
>  <mol_id>  (7) 
2026-08-23-6tgu-s0-n100-prep-0007

>  <rmsd_to_ref>  (7) 


$$$$

     RDKit          3D

 40 43  0  0  0  0  0  0  0  0999 V2000
    0.5266   19.7371   42.4041 C   0  0  0  0  0  0  0  0  0  0  0  0
    4.0858   19.6039   36.3694 N   0  0  0  0  0  0  0  0  0  0  0  0
    0.7554   18.4020   42.1292 N   0  0  0  0  0  0  0  0  0  0  0  0
    2.8017   20.4300   37.9271 C   0  0  0  0  0  0  0  0  0  0  0  0
    3.8632   18.5851   37.1320 C   0  0  0  0  0  0  0  0  0  0  0  0
    0.9301   20.6621   41.9587 C   0  0  0  0  0  0  0  0  0  0  0  0
    4.4348   17.1065   36.8437 C   0  0  0  0  0  0  0  0  0  0  0  0
    0.8553   15.8506   42.4621 S   0  0  0  0  0  0  0  0  0  0  0  0
    0.3105   14.4850   43.3609 C   0  0  0  0  0  0  0  0  0  0  0  0
    3.2076   19.0606   38.1963 C   0  0  0  0  0  0  0  0  0  0  0  0
   -0.1856   17.3950   44.3690 C   0  0  0  0  0  0  0  0  0  0  0  0
    3.4372   20.7049   36.8789 N   0  0  0  0  0  0  0  0  0  0  0  0
    1.4275   18.4840   41.4179 N   0  0  0  0  0  0  0  0  0  0  0  0
   -0.8939   16.1315   44.8155 C   0  0  0  0  0  0  0  0  0  0  0  0
   -0.2026   14.8514   44.6818 C   0  0  0  0  0  0  0  0  0  0  0  0
    1.3021   19.7967   40.8871 C   0  0  2  0  0  0  0  0  0  0  0  0
    2.6772   18.5463   39.3544 C   0  0  0  0  0  0  0  0  0  0  0  0
    2.1399   20.9545   38.9311 C   0  0  0  0  0  0  0  0  0  0  0  0
   -0.0158   17.2429   42.8677 C   0  0  1  0  0  0  0  0  0  0  0  0
    2.0684   19.7709   39.8926 C   0  0  0  0  0  0  0  0  0  0  0  0
   -0.5611   19.8437   42.2797 H   0  0  0  0  0  0  0  0  0  0  0  0
    1.1186   19.7766   43.3303 H   0  0  0  0  0  0  0  0  0  0  0  0
    0.1845   21.4313   41.7087 H   0  0  0  0  0  0  0  0  0  0  0  0
    1.6333   21.3322   42.4749 H   0  0  0  0  0  0  0  0  0  0  0  0
    4.5938   16.5824   37.7976 H   0  0  0  0  0  0  0  0  0  0  0  0
    3.7111   16.5460   36.2337 H   0  0  0  0  0  0  0  0  0  0  0  0
    5.3898   17.1815   36.3030 H   0  0  0  0  0  0  0  0  0  0  0  0
   -0.4923   13.9884   42.7960 H   0  0  0  0  0  0  0  0  0  0  0  0
    1.1723   13.8180   43.5104 H   0  0  0  0  0  0  0  0  0  0  0  0
   -0.7941   18.2816   44.6011 H   0  0  0  0  0  0  0  0  0  0  0  0
    0.7782   17.5307   44.8815 H   0  0  0  0  0  0  0  0  0  0  0  0
    2.3722   18.3460   41.8045 H   0  0  0  0  0  0  0  0  0  0  0  0
   -1.1381   16.2572   45.8806 H   0  0  0  0  0  0  0  0  0  0  0  0
   -1.7459   16.0466   44.1249 H   0  0  0  0  0  0  0  0  0  0  0  0
   -0.9074   14.0647   44.9893 H   0  0  0  0  0  0  0  0  0  0  0  0
    0.6960   14.9563   45.3075 H   0  0  0  0  0  0  0  0  0  0  0  0
    0.5556   20.3721   40.3199 H   0  0  0  0  0  0  0  0  0  0  0  0
    2.7010   17.5234   39.7583 H   0  0  0  0  0  0  0  0  0  0  0  0
    1.7429   21.9736   39.0486 H   0  0  0  0  0  0  0  0  0  0  0  0
   -1.0652   17.2280   42.5381 H   0  0  0  0  0  0  0  0  0  0  0  0
  2 12  2  0
  2  5  1  0
  3  1  1  0
  3 19  1  0
  4 10  1  0
  4 18  2  0
  5 10  2  0
  6  1  1  0
  7  5  1  0
  8 19  1  0
  8  9  1  0
  9 15  1  0
 10 17  1  0
 11 14  1  0
 12  4  1  0
 13  3  1  0
 14 15  1  0
 16 20  1  0
 16 13  1  0
 16  6  1  0
 17 20  2  0
 18 20  1  0
 19 11  1  0
  1 21  1  0
  1 22  1  0
  6 23  1  0
  6 24  1  0
  7 25  1  0
  7 26  1  0
  7 27  1  0
  9 28  1  0
  9 29  1  0
 11 30  1  0
 11 31  1  0
 13 32  1  0
 14 33  1  0
 14 34  1  0
 15 35  1  0
 15 36  1  0
 16 37  1  6
 17 38  1  0
 18 39  1  0
 19 40  1  6
M  END
>  <mol_id>  (8) 
2026-08-23-6tgu-s0-n100-prep-0008

>  <rmsd_to_ref>  (8) 


$$$$

     RDKit          3D

 35 38  0  0  0  0  0  0  0  0999 V2000
    0.0712   21.0919   40.6970 C   0  0  0  0  0  0  0  0  0  0  0  0
    0.4156   14.9411   42.3832 C   0  0  0  0  0  0  0  0  0  0  0  0
    3.9026   19.5976   36.7412 C   0  0  0  0  0  0  0  0  0  0  0  0
    0.9933   18.7030   40.2825 O   0  0  0  0  0  0  0  0  0  0  0  0
    2.0017   20.7376   38.5038 C   0  0  0  0  0  0  0  0  0  0  0  0
    2.2762   18.7189   39.7895 O   0  0  0  0  0  0  0  0  0  0  0  0
    3.4689   18.8910   37.7962 C   0  0  0  0  0  0  0  0  0  0  0  0
   -0.1183   19.8760   41.6234 C   0  0  0  0  0  0  0  0  0  0  0  0
    3.3164   20.8662   36.4977 C   0  0  0  0  0  0  0  0  0  0  0  0
    0.4566   18.5947   41.2988 C   0  0  0  0  0  0  0  0  0  0  0  0
    2.5178   19.4560   38.6957 C   0  0  0  0  0  0  0  0  0  0  0  0
    2.4070   21.4259   37.3783 C   0  0  0  0  0  0  0  0  0  0  0  0
    0.8575   16.0346   41.7576 C   0  0  0  0  0  0  0  0  0  0  0  0
   -1.0305   19.9267   42.6221 N   0  0  0  0  0  0  0  0  0  0  0  0
    3.6812   21.5603   35.4619 O   0  0  0  0  0  0  0  0  0  0  0  0
   -0.6721   15.1182   43.3333 C   0  0  0  0  0  0  0  0  0  0  0  0
   -0.7692   17.4449   42.9427 C   0  0  0  0  0  0  0  0  0  0  0  0
    0.2138   17.3461   41.8752 C   0  0  0  0  0  0  0  0  0  0  0  0
   -1.2966   18.7447   43.2009 C   0  0  0  0  0  0  0  0  0  0  0  0
    1.0135   21.3084   39.5358 C   0  0  0  0  0  0  0  0  0  0  0  0
   -1.1504   16.3313   43.6048 N   0  0  0  0  0  0  0  0  0  0  0  0
    1.9758   15.7551   40.7686 C   0  0  0  0  0  0  0  0  0  0  0  0
   -1.1286   14.1359   43.8661 O   0  0  0  0  0  0  0  0  0  0  0  0
   -0.5888   21.9438   40.9173 H   0  0  0  0  0  0  0  0  0  0  0  0
    0.8539   13.9511   42.1891 H   0  0  0  0  0  0  0  0  0  0  0  0
    4.6912   19.2039   36.0831 H   0  0  0  0  0  0  0  0  0  0  0  0
    3.8483   17.8728   37.9676 H   0  0  0  0  0  0  0  0  0  0  0  0
    2.0031   22.4295   37.1790 H   0  0  0  0  0  0  0  0  0  0  0  0
    3.2730   22.4458   35.2906 H   0  0  0  0  0  0  0  0  0  0  0  0
   -2.0444   18.7856   44.0066 H   0  0  0  0  0  0  0  0  0  0  0  0
    0.9743   22.3883   39.3303 H   0  0  0  0  0  0  0  0  0  0  0  0
   -1.8466   16.4249   44.3581 H   0  0  0  0  0  0  0  0  0  0  0  0
    2.8671   15.4076   41.3115 H   0  0  0  0  0  0  0  0  0  0  0  0
    1.6526   14.9788   40.0594 H   0  0  0  0  0  0  0  0  0  0  0  0
    2.2175   16.6765   40.2185 H   0  0  0  0  0  0  0  0  0  0  0  0
  1  8  1  0
  2 16  1  0
  3  7  1  0
  4 10  1  0
  5 11  1  0
  5 20  1  0
  6  4  1  0
  7 11  2  0
  8 14  1  0
  9  3  2  0
  9 12  1  0
 10  8  2  0
 10 18  1  0
 11  6  1  0
 12  5  2  0
 13 18  1  0
 13  2  2  0
 14 19  2  0
 15  9  1  0
 16 21  1  0
 16 23  2  0
 17 19  1  0
 17 21  1  0
 18 17  2  0
 20  1  2  0
 22 13  1  0
  1 24  1  0
  2 25  1  0
  3 26  1  0
  7 27  1  0
 12 28  1  0
 15 29  1  0
 19 30  1  0
 20 31  1  0
 21 32  1  0
 22 33  1  0
 22 34  1  0
 22 35  1  0
M  END
>  <mol_id>  (9) 
2026-08-23-6tgu-s0-n100-prep-0009

>  <rmsd_to_ref>  (9) 


$$$$

     RDKit          3D

 16 15  0  0  0  0  0  0  0  0999 V2000
    0.3133   21.1558   40.8242 O   0  0  0  0  0  0  0  0  0  0  0  0
    3.0638   19.9689   37.9663 C   0  0  0  0  0  0  0  0  0  0  0  0
    0.5647   19.0576   41.8353 C   0  0  0  0  0  0  0  0  0  0  0  0
    1.8875   17.4698   40.7897 O   0  0  0  0  0  0  0  0  0  0  0  0
    2.8888   20.0204   36.7207 O   0  0  0  0  0  0  0  0  0  0  0  0
    1.1516   17.8218   41.8205 C   0  0  0  0  0  0  0  0  0  0  0  0
    1.1735   16.9479   42.7207 O   0  0  0  0  0  0  0  0  0  0  0  0
    0.7590   20.0354   40.7716 C   0  0  0  0  0  0  0  0  0  0  0  0
    4.1437   19.4427   38.5835 O   0  0  0  0  0  0  0  0  0  0  0  0
    1.9180   20.5287   38.7076 C   0  0  0  0  0  0  0  0  0  0  0  0
    1.4986   19.5914   39.7391 N   0  0  0  0  0  0  0  0  0  0  0  0
   -0.5193   18.8790   41.8902 H   0  0  0  0  0  0  0  0  0  0  0  0
    1.0814   19.5396   42.6783 H   0  0  0  0  0  0  0  0  0  0  0  0
    2.2138   21.4795   39.1753 H   0  0  0  0  0  0  0  0  0  0  0  0
    1.0839   20.7041   38.0124 H   0  0  0  0  0  0  0  0  0  0  0  0
    1.7652   18.5983   39.6792 H   0  0  0  0  0  0  0  0  0  0  0  0
  2  9  1  0
  2 10  1  0
  4  6  2  0
  5  2  2  0
  6  3  1  0
  6  7  1  0
  8  1  2  0
  8  3  1  0
 10 11  1  0
 11  8  1  0
  3 12  1  0
  3 13  1  0
 10 14  1  0
 10 15  1  0
 11 16  1  0
M  CHG  2   7  -1   9  -1
M  END
>  <mol_id>  (10) 
2026-08-23-6tgu-s0-n100-prep-0010

>  <rmsd_to_ref>  (10) 


$$$$

     RDKit          3D

 29 31  0  0  0  0  0  0  0  0999 V2000
    0.8608   20.4343   41.7806 N   0  0  0  0  0  0  0  0  0  0  0  0
    3.0510   17.3710   38.4013 F   0  0  0  0  0  0  0  0  0  0  0  0
    2.9721   18.6053   38.0004 C   0  0  0  0  0  0  0  0  0  0  0  0
    2.1513   20.8444   38.2196 C   0  0  0  0  0  0  0  0  0  0  0  0
    1.3694   18.3684   40.9580 C   0  0  0  0  0  0  0  0  0  0  0  0
    0.8600   16.0625   41.9163 C   0  0  0  0  0  0  0  0  0  0  0  0
    1.4952   20.5064   40.7164 N   0  0  0  0  0  0  0  0  0  0  0  0
    3.3506   20.3018   36.2131 N   0  0  0  0  0  0  0  0  0  0  0  0
   -0.0435   16.1752   42.8604 C   0  0  0  0  0  0  0  0  0  0  0  0
   -0.6254   17.3842   43.1327 C   0  0  0  0  0  0  0  0  0  0  0  0
    1.8196   19.3621   40.0489 C   0  0  0  0  0  0  0  0  0  0  0  0
    0.6065   19.1496   41.8419 C   0  0  1  0  0  0  0  0  0  0  0  0
    3.4436   19.0130   36.6896 C   0  0  0  0  0  0  0  0  0  0  0  0
    4.1862   18.1195   35.9867 N   0  0  0  0  0  0  0  0  0  0  0  0
   -0.4110   18.5534   42.6046 C   0  0  0  0  0  0  0  0  0  0  0  0
    1.4651   17.0420   41.1785 C   0  0  0  0  0  0  0  0  0  0  0  0
    2.7556   21.1142   37.0386 C   0  0  0  0  0  0  0  0  0  0  0  0
    2.3420   19.5829   38.7495 C   0  0  0  0  0  0  0  0  0  0  0  0
    0.6032   21.1832   42.4391 H   0  0  0  0  0  0  0  0  0  0  0  0
    1.5356   21.5965   38.7346 H   0  0  0  0  0  0  0  0  0  0  0  0
    1.1757   15.0344   41.6853 H   0  0  0  0  0  0  0  0  0  0  0  0
   -0.3373   15.2878   43.4403 H   0  0  0  0  0  0  0  0  0  0  0  0
   -1.3931   17.3636   43.9202 H   0  0  0  0  0  0  0  0  0  0  0  0
   -0.1685   19.2662   41.0701 H   0  0  0  0  0  0  0  0  0  0  0  0
    4.2738   17.1484   36.3188 H   0  0  0  0  0  0  0  0  0  0  0  0
    4.6617   18.4127   35.1215 H   0  0  0  0  0  0  0  0  0  0  0  0
   -1.2360   19.2525   42.8066 H   0  0  0  0  0  0  0  0  0  0  0  0
    2.2831   16.6155   40.5794 H   0  0  0  0  0  0  0  0  0  0  0  0
    2.7419   22.1707   36.7326 H   0  0  0  0  0  0  0  0  0  0  0  0
  1 12  1  0
  3 18  1  0
  3  2  1  0
  4 18  2  0
  5 16  2  0
  5 12  1  0
  6  9  2  0
  7  1  1  0
  8 17  2  0
  8 13  1  0
 10  9  1  0
 11  7  2  0
 11  5  1  0
 12 15  1  0
 13  3  2  0
 14 13  1  0
 15 10  2  0
 16  6  1  0
 17  4  1  0
 18 11  1  0
  1 19  1  0
  4 20  1  0
  6 21  1  0
  9 22  1  0
 10 23  1  0
 12 24  1  1
 14 25  1  0
 14 26  1  0
 15 27  1  0
 16 28  1  0
 17 29  1  0
M  END
>  <mol_id>  (11) 
2026-08-23-6tgu-s0-n100-prep-0011

>  <rmsd_to_ref>  (11) 


$$$$

     RDKit          3D

 49 51  0  0  0  0  0  0  0  0999 V2000
    0.6751   19.9148   42.0272 C   0  0  0  0  0  0  0  0  0  0  0  0
    1.3400   14.6813   41.8692 C   0  0  0  0  0  0  0  0  0  0  0  0
   -0.7730   16.0744   44.6588 C   0  0  0  0  0  0  0  0  0  0  0  0
    4.1295   18.8288   38.5613 C   0  0  0  0  0  0  0  0  0  0  0  0
    3.9009   18.9256   36.0864 N   0  0  0  0  0  0  0  0  0  0  0  0
    1.6042   18.6723   40.3061 C   0  0  0  0  0  0  0  0  0  0  0  0
    0.0280   15.5779   43.5077 C   0  0  0  0  0  0  0  0  0  0  0  0
    3.0811   19.9284   38.6597 N   0  0  0  0  0  0  0  0  0  0  0  0
    0.9645   18.6747   41.5926 C   0  0  2  0  0  0  0  0  0  0  0  0
    0.5082   14.2742   42.8494 N   0  0  0  0  0  0  0  0  0  0  0  0
    2.2745   19.9056   39.8244 C   0  0  0  0  0  0  0  0  0  0  0  0
    3.4594   21.0028   35.2313 O   0  0  0  0  0  0  0  0  0  0  0  0
    1.3447   15.9866   41.6874 N   0  0  0  0  0  0  0  0  0  0  0  0
    0.1555   20.4992   43.0350 O   0  0  0  0  0  0  0  0  0  0  0  0
    3.7240   18.0980   37.2958 C   0  0  0  0  0  0  0  0  0  0  0  0
    2.8829   20.5366   37.4842 C   0  0  0  0  0  0  0  0  0  0  0  0
    2.0373   21.1138   40.5129 C   0  0  0  0  0  0  0  0  0  0  0  0
    0.1140   17.8689   42.7491 C   0  0  0  0  0  0  0  0  0  0  0  0
    1.1995   21.1072   41.5457 C   0  0  0  0  0  0  0  0  0  0  0  0
   -0.6413   12.8431   44.8481 C   0  0  0  0  0  0  0  0  0  0  0  0
    0.5195   16.5069   42.6599 C   0  0  0  0  0  0  0  0  0  0  0  0
   -1.6113   12.7231   43.7113 C   0  0  0  0  0  0  0  0  0  0  0  0
   -1.2361   17.4194   44.7842 C   0  0  0  0  0  0  0  0  0  0  0  0
    2.1120   13.6594   41.0763 C   0  0  0  0  0  0  0  0  0  0  0  0
    3.4047   20.2272   36.2722 C   0  0  0  0  0  0  0  0  0  0  0  0
   -0.7943   18.3394   43.7915 N   0  0  0  0  0  0  0  0  0  0  0  0
   -1.0231   15.3639   45.4605 H   0  0  0  0  0  0  0  0  0  0  0  0
    5.1408   19.2514   38.4690 H   0  0  0  0  0  0  0  0  0  0  0  0
    4.1675   18.1797   39.4485 H   0  0  0  0  0  0  0  0  0  0  0  0
    4.3345   18.5905   35.2142 H   0  0  0  0  0  0  0  0  0  0  0  0
    1.5972   17.7651   39.6842 H   0  0  0  0  0  0  0  0  0  0  0  0
    1.5555   17.7866   41.3243 H   0  0  0  0  0  0  0  0  0  0  0  0
    1.8601   16.5105   40.9657 H   0  0  0  0  0  0  0  0  0  0  0  0
    2.6647   17.8128   37.3767 H   0  0  0  0  0  0  0  0  0  0  0  0
    4.3727   17.2153   37.1959 H   0  0  0  0  0  0  0  0  0  0  0  0
    1.7940   20.4958   37.3335 H   0  0  0  0  0  0  0  0  0  0  0  0
    3.4630   21.4508   37.6784 H   0  0  0  0  0  0  0  0  0  0  0  0
    2.5359   22.0435   40.2014 H   0  0  0  0  0  0  0  0  0  0  0  0
    0.9186   22.0572   42.0241 H   0  0  0  0  0  0  0  0  0  0  0  0
   -1.1716   12.6922   45.8000 H   0  0  0  0  0  0  0  0  0  0  0  0
    0.1447   12.0810   44.7415 H   0  0  0  0  0  0  0  0  0  0  0  0
   -0.1854   13.8440   44.8370 H   0  0  0  0  0  0  0  0  0  0  0  0
   -2.6159   12.5136   44.1070 H   0  0  0  0  0  0  0  0  0  0  0  0
   -1.6298   13.6654   43.1440 H   0  0  0  0  0  0  0  0  0  0  0  0
   -1.2997   11.9022   43.0486 H   0  0  0  0  0  0  0  0  0  0  0  0
   -1.8998   17.7286   45.6051 H   0  0  0  0  0  0  0  0  0  0  0  0
    2.6123   12.9625   41.7648 H   0  0  0  0  0  0  0  0  0  0  0  0
    1.4216   13.1010   40.4271 H   0  0  0  0  0  0  0  0  0  0  0  0
    2.8660   14.1684   40.4579 H   0  0  0  0  0  0  0  0  0  0  0  0
  1 14  2  0
  2 10  2  0
  3 23  1  0
  4  8  1  0
  5 25  1  0
  5 15  1  0
  6  9  1  0
  7  3  2  0
  8 11  1  0
  9  1  1  0
  9 18  1  0
 10  7  1  0
 11  6  2  0
 11 17  1  0
 12 25  2  0
 13  2  1  0
 13 21  1  0
 15  4  1  0
 16  8  1  0
 17 19  2  0
 18 26  1  0
 19  1  1  0
 21 18  2  0
 21  7  1  0
 22 20  1  0
 24  2  1  0
 25 16  1  0
 26 23  2  0
  3 27  1  0
  4 28  1  0
  4 29  1  0
  5 30  1  0
  6 31  1  0
  9 32  1  1
 13 33  1  0
 15 34  1  0
 15 35  1  0
 16 36  1  0
 16 37  1  0
 17 38  1  0
 19 39  1  0
 20 40  1  0
 20 41  1  0
 20 42  1  0
 22 43  1  0
 22 44  1  0
 22 45  1  0
 23 46  1  0
 24 47  1  0
 24 48  1  0
 24 49  1  0
M  END
>  <mol_id>  (12) 
2026-08-23-6tgu-s0-n100-prep-0012

>  <rmsd_to_ref>  (12) 


$$$$

     RDKit          3D

 31 34  0  0  0  0  0  0  0  0999 V2000
   -1.1922   19.4737   44.1448 C   0  0  0  0  0  0  0  0  0  0  0  0
    1.3662   17.9817   41.2288 N   0  0  0  0  0  0  0  0  0  0  0  0
   -0.4025   17.5563   43.2579 C   0  0  0  0  0  0  0  0  0  0  0  0
    3.1561   18.1891   38.9020 C   0  0  0  0  0  0  0  0  0  0  0  0
    3.7516   19.1248   36.8592 C   0  0  0  0  0  0  0  0  0  0  0  0
    1.6518   19.1931   40.5604 C   0  0  0  0  0  0  0  0  0  0  0  0
    2.4514   19.2206   39.3833 C   0  0  0  0  0  0  0  0  0  0  0  0
    3.7713   18.0674   37.7423 C   0  0  0  0  0  0  0  0  0  0  0  0
    3.3200   20.3087   37.2297 C   0  0  0  0  0  0  0  0  0  0  0  0
    1.1400   21.8834   40.9565 Cl  0  0  0  0  0  0  0  0  0  0  0  0
    0.9326   20.2882   41.2913 C   0  0  0  0  0  0  0  0  0  0  0  0
    0.1745   19.7575   42.3228 C   0  0  0  0  0  0  0  0  0  0  0  0
    3.6295   20.7134   36.2372 O   0  0  0  0  0  0  0  0  0  0  0  0
    2.9079   15.1891   37.9608 C   0  0  0  0  0  0  0  0  0  0  0  0
    3.8790   15.7737   37.3552 C   0  0  0  0  0  0  0  0  0  0  0  0
   -0.3938   15.8580   43.0991 S   0  0  0  0  0  0  0  0  0  0  0  0
    4.4925   16.8481   37.2434 O   0  0  0  0  0  0  0  0  0  0  0  0
   -0.6165   20.3091   43.2361 N   0  0  0  0  0  0  0  0  0  0  0  0
    3.6444   14.7036   36.9857 N   0  0  0  0  0  0  0  0  0  0  0  0
   -1.1400   18.1035   44.1880 N   0  0  0  0  0  0  0  0  0  0  0  0
    0.4119   18.3705   42.2205 C   0  0  2  0  0  0  0  0  0  0  0  0
    2.5782   20.3561   38.4540 C   0  0  0  0  0  0  0  0  0  0  0  0
   -1.7716   19.9585   44.9444 H   0  0  0  0  0  0  0  0  0  0  0  0
    3.2330   17.3184   39.5698 H   0  0  0  0  0  0  0  0  0  0  0  0
    4.1028   18.9750   35.8276 H   0  0  0  0  0  0  0  0  0  0  0  0
    3.0182   14.8244   38.9927 H   0  0  0  0  0  0  0  0  0  0  0  0
    1.8434   15.3739   38.1673 H   0  0  0  0  0  0  0  0  0  0  0  0
   -0.7872   21.3246   43.2562 H   0  0  0  0  0  0  0  0  0  0  0  0
    1.2184   18.4537   42.9639 H   0  0  0  0  0  0  0  0  0  0  0  0
    3.0226   21.1736   39.0407 H   0  0  0  0  0  0  0  0  0  0  0  0
    1.5491   20.4310   38.0729 H   0  0  0  0  0  0  0  0  0  0  0  0
  3 20  1  0
  4  7  2  0
  5  9  1  0
  5  8  2  0
  6  2  2  0
  6 11  1  0
  7  6  1  0
  8  4  1  0
  9 22  1  0
 10 11  1  0
 11 12  2  0
 12 18  1  0
 13  9  2  0
 15 14  1  0
 16  3  2  0
 17 15  1  0
 17  8  1  0
 18  1  1  0
 19 15  2  0
 19 14  1  0
 20  1  2  0
 21  2  1  0
 21 12  1  0
 21  3  1  0
 22  7  1  0
  1 23  1  0
  4 24  1  0
  5 25  1  0
 14 26  1  0
 14 27  1  0
 18 28  1  0
 21 29  1  1
 22 30  1  0
 22 31  1  0
M  END
>  <mol_id>  (13) 
2026-08-23-6tgu-s0-n100-prep-0013

>  <rmsd_to_ref>  (13) 


$$$$

     RDKit          3D

 31 32  0  0  0  0  0  0  0  0999 V2000
    0.6976   16.9917   41.3304 C   0  0  0  0  0  0  0  0  0  0  0  0
    0.3977   18.2994   41.4542 C   0  0  0  0  0  0  0  0  0  0  0  0
    1.8693   17.9405   39.5390 C   0  0  1  0  0  0  0  0  0  0  0  0
   -1.3434   15.8854   44.1123 N   0  0  0  0  0  0  0  0  0  0  0  0
   -1.5070   18.5618   44.6948 C   0  0  0  0  0  0  0  0  0  0  0  0
   -0.7437   16.7207   43.2947 C   0  0  0  0  0  0  0  0  0  0  0  0
    2.4292   20.3252   37.2545 O   0  0  0  0  0  0  0  0  0  0  0  0
    2.2429   18.0325   38.1137 C   0  0  0  0  0  0  0  0  0  0  0  0
    1.2576   19.3156   40.3503 S   0  0  0  0  0  0  0  0  0  0  0  0
    4.0912   19.6579   36.0315 O   0  0  0  0  0  0  0  0  0  0  0  0
    3.3001   19.4026   37.0131 C   0  0  0  0  0  0  0  0  0  0  0  0
   -0.6518   18.9574   42.2537 C   0  0  1  0  0  0  0  0  0  0  0  0
    3.4854   18.3225   37.8339 C   0  0  0  0  0  0  0  0  0  0  0  0
   -0.9055   18.0581   43.4910 N   0  0  0  0  0  0  0  0  0  0  0  0
    0.0050   16.1548   42.3043 N   0  0  0  0  0  0  0  0  0  0  0  0
   -0.6112   20.4364   42.5964 C   0  0  0  0  0  0  0  0  0  0  0  0
    1.6851   16.4270   40.1700 S   0  0  0  0  0  0  0  0  0  0  0  0
    2.8317   18.1659   40.0216 H   0  0  0  0  0  0  0  0  0  0  0  0
   -1.2343   14.8696   43.9820 H   0  0  0  0  0  0  0  0  0  0  0  0
   -1.9225   16.2465   44.8838 H   0  0  0  0  0  0  0  0  0  0  0  0
   -1.0437   18.0768   45.5667 H   0  0  0  0  0  0  0  0  0  0  0  0
   -1.3523   19.6492   44.7548 H   0  0  0  0  0  0  0  0  0  0  0  0
   -2.5853   18.3448   44.6845 H   0  0  0  0  0  0  0  0  0  0  0  0
    2.0193   17.0599   37.6509 H   0  0  0  0  0  0  0  0  0  0  0  0
    1.6622   18.8824   37.7258 H   0  0  0  0  0  0  0  0  0  0  0  0
   -1.4932   19.0343   41.5493 H   0  0  0  0  0  0  0  0  0  0  0  0
    3.9899   17.4957   37.3124 H   0  0  0  0  0  0  0  0  0  0  0  0
    4.1248   18.5107   38.7090 H   0  0  0  0  0  0  0  0  0  0  0  0
   -0.6917   20.5626   43.6861 H   0  0  0  0  0  0  0  0  0  0  0  0
    0.3382   20.8678   42.2465 H   0  0  0  0  0  0  0  0  0  0  0  0
   -1.4506   20.9498   42.1048 H   0  0  0  0  0  0  0  0  0  0  0  0
  1  2  2  0
  1 15  1  0
  2 12  1  0
  3  8  1  0
  3 17  1  0
  3  9  1  0
  6 14  1  0
  6  4  1  0
  9  2  1  0
 10 11  2  0
 11  7  1  0
 11 13  1  0
 12 16  1  0
 12 14  1  0
 13  8  1  0
 14  5  1  0
 15  6  2  0
 17  1  1  0
  3 18  1  1
  4 19  1  0
  4 20  1  0
  5 21  1  0
  5 22  1  0
  5 23  1  0
  8 24  1  0
  8 25  1  0
 12 26  1  6
 13 27  1  0
 13 28  1  0
 16 29  1  0
 16 30  1  0
 16 31  1  0
M  CHG  1   7  -1
M  END
>  <mol_id>  (14) 
2026-08-23-6tgu-s0-n100-prep-0014

>  <rmsd_to_ref>  (14) 


$$$$

     RDKit          3D

 44 47  0  0  0  0  0  0  0  0999 V2000
   -0.5510   17.1010   45.7860 C   0  0  2  0  0  0  0  0  0  0  0  0
    1.4860   18.0920   41.2230 C   0  0  0  0  0  0  0  0  0  0  0  0
    1.4560   15.5130   41.9630 S   0  0  0  0  0  0  0  0  0  0  0  0
    0.2040   17.3960   43.3820 C   0  0  0  0  0  0  0  0  0  0  0  0
    3.3900   18.9170   38.5760 C   0  0  2  0  0  0  0  0  0  0  0  0
    2.2320   17.2580   40.1790 C   0  0  0  0  0  0  0  0  0  0  0  0
    1.6050   20.1810   39.9120 C   0  0  0  0  0  0  0  0  0  0  0  0
    1.3060   19.5030   40.9300 C   0  0  0  0  0  0  0  0  0  0  0  0
    3.8150   19.7470   36.1750 C   0  0  0  0  0  0  0  0  0  0  0  0
    3.0190   20.9680   36.3150 C   0  0  0  0  0  0  0  0  0  0  0  0
    3.7820   18.7430   37.0710 C   0  0  0  0  0  0  0  0  0  0  0  0
   -0.0010   18.6290   43.5790 N   0  0  0  0  0  0  0  0  0  0  0  0
    2.1420   15.8040   40.4950 C   0  0  0  0  0  0  0  0  0  0  0  0
   -0.2990   16.4290   44.4310 C   0  0  0  0  0  0  0  0  0  0  0  0
    2.9240   17.6520   39.0190 C   0  0  0  0  0  0  0  0  0  0  0  0
   -1.5230   16.5010   46.6070 O   0  0  0  0  0  0  0  0  0  0  0  0
    2.3710   21.1560   37.7250 C   0  0  0  0  0  0  0  0  0  0  0  0
    1.0170   17.0330   42.2000 C   0  0  0  0  0  0  0  0  0  0  0  0
   -0.9160   20.5030   44.4190 O   0  0  0  0  0  0  0  0  0  0  0  0
    2.4320   19.9980   38.6920 C   0  0  1  0  0  0  0  0  0  0  0  0
   -1.0990   18.4880   45.5130 N   0  0  0  0  0  0  0  0  0  0  0  0
   -0.6540   19.1590   44.5130 C   0  0  0  0  0  0  0  0  0  0  0  0
    2.7920   21.8020   35.4730 O   0  0  0  0  0  0  0  0  0  0  0  0
    4.2790   19.4060   39.8010 C   0  0  0  0  0  0  0  0  0  0  0  0
    0.4155   17.0465   46.3085 H   0  0  0  0  0  0  0  0  0  0  0  0
    1.1269   21.1715   39.9314 H   0  0  0  0  0  0  0  0  0  0  0  0
    0.8261   20.0781   41.7356 H   0  0  0  0  0  0  0  0  0  0  0  0
    3.5223   19.3033   35.2120 H   0  0  0  0  0  0  0  0  0  0  0  0
    4.8356   20.1328   36.3148 H   0  0  0  0  0  0  0  0  0  0  0  0
    3.0754   18.0049   36.6637 H   0  0  0  0  0  0  0  0  0  0  0  0
    4.8539   18.5133   37.1626 H   0  0  0  0  0  0  0  0  0  0  0  0
    2.4959   15.0108   39.8200 H   0  0  0  0  0  0  0  0  0  0  0  0
   -1.2418   15.9861   44.0775 H   0  0  0  0  0  0  0  0  0  0  0  0
    0.4797   15.6663   44.5791 H   0  0  0  0  0  0  0  0  0  0  0  0
    2.2695   17.3166   38.2010 H   0  0  0  0  0  0  0  0  0  0  0  0
    3.9054   17.2554   39.3184 H   0  0  0  0  0  0  0  0  0  0  0  0
   -1.2875   16.6464   47.5575 H   0  0  0  0  0  0  0  0  0  0  0  0
    2.8724   22.0096   38.2045 H   0  0  0  0  0  0  0  0  0  0  0  0
    1.2983   21.2870   37.5197 H   0  0  0  0  0  0  0  0  0  0  0  0
    2.0566   19.1510   38.0989 H   0  0  0  0  0  0  0  0  0  0  0  0
   -1.8233   18.8892   46.1256 H   0  0  0  0  0  0  0  0  0  0  0  0
    3.7841   19.1338   40.7449 H   0  0  0  0  0  0  0  0  0  0  0  0
    5.2667   18.9242   39.7526 H   0  0  0  0  0  0  0  0  0  0  0  0
    4.4010   20.4981   39.7526 H   0  0  0  0  0  0  0  0  0  0  0  0
  1 16  1  0
  2 18  2  0
  3 18  1  0
  4 12  2  0
  4 14  1  0
  5 20  1  0
  5 15  1  0
  5 24  1  1
  6 13  2  0
  6  2  1  0
  7  8  2  0
  8  2  1  0
  9 10  1  0
  9 11  1  0
 10 17  1  0
 11  5  1  0
 12 22  1  0
 13  3  1  0
 14  1  1  0
 15  6  1  0
 18  4  1  0
 19 22  2  0
 20 17  1  0
 20  7  1  0
 21  1  1  0
 22 21  1  0
 23 10  2  0
  1 25  1  1
  7 26  1  0
  8 27  1  0
  9 28  1  0
  9 29  1  0
 11 30  1  0
 11 31  1  0
 13 32  1  0
 14 33  1  0
 14 34  1  0
 15 35  1  0
 15 36  1  0
 16 37  1  0
 17 38  1  0
 17 39  1  0
 20 40  1  6
 21 41  1  0
 24 42  1  0
 24 43  1  0
 24 44  1  0
M  END
>  <mol_id>  (15) 
2026-08-23-6tgu-s0-n100-prep-0015

>  <rmsd_to_ref>  (15) 


$$$$

     RDKit          3D

 49 49  0  0  0  0  0  0  0  0999 V2000
    1.8280   21.0840   39.5400 F   0  0  0  0  0  0  0  0  0  0  0  0
    1.1660   15.7340   42.2150 C   0  0  0  0  0  0  0  0  0  0  0  0
    3.0280   20.4800   37.0190 C   0  0  0  0  0  0  0  0  0  0  0  0
   -0.9210   19.4790   44.6600 O   0  0  0  0  0  0  0  0  0  0  0  0
   -0.0760   18.2200   46.2680 C   0  0  0  0  0  0  0  0  0  0  0  0
    3.1250   18.5290   38.5040 C   0  0  0  0  0  0  0  0  0  0  0  0
   -0.0610   20.6910   42.8100 C   0  0  0  0  0  0  0  0  0  0  0  0
   -1.2230   18.2130   45.3020 C   0  0  0  0  0  0  0  0  0  0  0  0
    0.6160   18.9150   41.3280 C   0  0  0  0  0  0  0  0  0  0  0  0
   -0.2190   19.5360   43.5610 C   0  0  2  0  0  0  0  0  0  0  0  0
   -0.2870   14.6830   44.1170 S   0  0  0  0  0  0  0  0  0  0  0  0
   -0.0550   18.2590   42.3760 C   0  0  2  0  0  0  0  0  0  0  0  0
    2.2640   13.6460   41.4440 C   0  0  0  0  0  0  0  0  0  0  0  0
    2.3310   15.3040   40.9950 S   0  0  0  0  0  0  0  0  0  0  0  0
   -0.2810   13.1210   44.6640 C   0  0  0  0  0  0  0  0  0  0  0  0
    0.7200   17.0490   42.6040 N   0  0  0  0  0  0  0  0  0  0  0  0
    1.9660   20.1290   39.1490 N   0  0  0  0  0  0  0  0  0  0  0  0
    3.7060   20.4020   36.1740 O   0  0  0  0  0  0  0  0  0  0  0  0
    2.4040   21.5200   36.7760 O   0  0  0  0  0  0  0  0  0  0  0  0
    3.1000   17.7080   39.2780 O   0  0  0  0  0  0  0  0  0  0  0  0
    1.4860   13.4320   42.4140 N   0  0  0  0  0  0  0  0  0  0  0  0
    2.7670   19.7050   38.1870 C   0  0  1  0  0  0  0  0  0  0  0  0
    0.5170   20.3810   41.5770 C   0  0  0  0  0  0  0  0  0  0  0  0
    3.7600   17.6710   37.3290 C   0  0  0  0  0  0  0  0  0  0  0  0
    3.6760   17.6020   36.3510 N   0  0  0  0  0  0  0  0  0  0  0  0
    0.8490   14.6560   42.8540 C   0  0  0  0  0  0  0  0  0  0  0  0
    4.6560   17.0140   37.8100 O   0  0  0  0  0  0  0  0  0  0  0  0
   -0.4636   18.2176   47.2974 H   0  0  0  0  0  0  0  0  0  0  0  0
    0.5440   17.3256   46.1076 H   0  0  0  0  0  0  0  0  0  0  0  0
    0.5330   19.1219   46.1076 H   0  0  0  0  0  0  0  0  0  0  0  0
   -1.0441   21.1563   42.6453 H   0  0  0  0  0  0  0  0  0  0  0  0
    0.5945   21.3885   43.3520 H   0  0  0  0  0  0  0  0  0  0  0  0
   -2.1996   18.2202   45.8082 H   0  0  0  0  0  0  0  0  0  0  0  0
   -1.3076   17.3353   44.6444 H   0  0  0  0  0  0  0  0  0  0  0  0
    0.1442   18.6653   40.3662 H   0  0  0  0  0  0  0  0  0  0  0  0
    1.6693   18.6005   41.2871 H   0  0  0  0  0  0  0  0  0  0  0  0
    0.5008   19.4064   44.3826 H   0  0  0  0  0  0  0  0  0  0  0  0
   -1.0729   17.8540   42.2772 H   0  0  0  0  0  0  0  0  0  0  0  0
    2.8385   12.8554   40.9392 H   0  0  0  0  0  0  0  0  0  0  0  0
   -0.2810   13.1177   45.7640 H   0  0  0  0  0  0  0  0  0  0  0  0
   -1.1772   12.6001   44.2958 H   0  0  0  0  0  0  0  0  0  0  0  0
    0.6191   12.6070   44.2958 H   0  0  0  0  0  0  0  0  0  0  0  0
    1.1914   17.2183   43.5040 H   0  0  0  0  0  0  0  0  0  0  0  0
    2.2346   19.5615   39.9655 H   0  0  0  0  0  0  0  0  0  0  0  0
    1.8584   19.3015   37.7162 H   0  0  0  0  0  0  0  0  0  0  0  0
    1.5295   20.8099   41.5476 H   0  0  0  0  0  0  0  0  0  0  0  0
   -0.1326   20.8025   40.7958 H   0  0  0  0  0  0  0  0  0  0  0  0
    2.9399   18.1282   35.8589 H   0  0  0  0  0  0  0  0  0  0  0  0
    4.3242   17.0036   35.8194 H   0  0  0  0  0  0  0  0  0  0  0  0
  2 16  1  0
  2 26  2  0
  4  8  1  0
  6 20  2  0
  7 10  1  0
  8  5  1  0
  9 23  1  0
  9 12  1  0
 10  4  1  0
 11 15  1  0
 12 16  1  0
 12 10  1  0
 13 21  2  0
 14 13  1  0
 14  2  1  0
 17  1  1  0
 18  3  2  0
 19  3  1  0
 21 26  1  0
 22  3  1  0
 22  6  1  0
 22 17  1  0
 23  7  1  0
 24 27  2  0
 24  6  1  0
 25 24  1  0
 26 11  1  0
  5 28  1  0
  5 29  1  0
  5 30  1  0
  7 31  1  0
  7 32  1  0
  8 33  1  0
  8 34  1  0
  9 35  1  0
  9 36  1  0
 10 37  1  1
 12 38  1  6
 13 39  1  0
 15 40  1  0
 15 41  1  0
 15 42  1  0
 16 43  1  0
 17 44  1  0
 22 45  1  1
 23 46  1  0
 23 47  1  0
 25 48  1  0
 25 49  1  0
M  CHG  1  19  -1
M  END
>  <mol_id>  (16) 
2026-08-23-6tgu-s0-n100-prep-0016

>  <rmsd_to_ref>  (16) 


$$$$

     RDKit          3D

 64 67  0  0  0  0  0  0  0  0999 V2000
    3.9974   13.2730   36.2327 C   0  0  0  0  0  0  0  0  0  0  0  0
   -0.0731   16.4275   46.3562 O   0  0  0  0  0  0  0  0  0  0  0  0
    3.7760    9.7976   37.0035 O   0  0  0  0  0  0  0  0  0  0  0  0
    3.1400   16.0504   38.3455 C   0  0  0  0  0  0  0  0  0  0  0  0
    3.8330   11.1137   38.3700 O   0  0  0  0  0  0  0  0  0  0  0  0
   -0.6976   19.9534   46.1626 F   0  0  0  0  0  0  0  0  0  0  0  0
    3.5725   19.9520   40.3267 C   0  0  0  0  0  0  0  0  0  0  0  0
    2.2567   20.1978   36.8188 O   0  0  0  0  0  0  0  0  0  0  0  0
    4.0924   11.9555   36.0939 C   0  0  2  0  0  0  0  0  0  0  0  0
    0.5528   19.2460   44.3626 C   0  0  0  0  0  0  0  0  0  0  0  0
    3.8290   11.2063   37.1500 C   0  0  1  0  0  0  0  0  0  0  0  0
    3.4713   12.1077   39.1538 C   0  0  0  0  0  0  0  0  0  0  0  0
    3.6643   15.2130   37.4124 N   0  0  0  0  0  0  0  0  0  0  0  0
    2.8694   15.6489   39.6147 N   0  0  0  0  0  0  0  0  0  0  0  0
    3.5675    9.4206   36.2839 O   0  0  0  0  0  0  0  0  0  0  0  0
    4.9963   11.4339   34.5944 S   0  0  0  0  0  0  0  0  0  0  0  0
    3.7748   13.8779   37.4438 C   0  0  0  0  0  0  0  0  0  0  0  0
    0.1432   18.7975   45.7582 C   0  0  0  0  0  0  0  0  0  0  0  0
    1.4058   18.7052   41.2181 C   0  0  1  0  0  0  0  0  0  0  0  0
   -0.4298   20.1385   44.0449 C   0  0  0  0  0  0  0  0  0  0  0  0
    3.0585   19.3206   36.3876 C   0  0  0  0  0  0  0  0  0  0  0  0
   -0.5362   17.4235   45.5214 C   0  0  1  0  0  0  0  0  0  0  0  0
    2.3626   16.8731   40.2749 C   0  0  0  0  0  0  0  0  0  0  0  0
    3.8571   19.5016   35.4866 O   0  0  0  0  0  0  0  0  0  0  0  0
    2.2399   19.2352   40.1058 C   0  0  2  0  0  0  0  0  0  0  0  0
    1.6829   17.1771   41.5589 C   0  0  0  0  0  0  0  0  0  0  0  0
    2.9276   17.5385   38.1466 C   0  0  0  0  0  0  0  0  0  0  0  0
   -0.2536   17.0200   44.1989 O   0  0  0  0  0  0  0  0  0  0  0  0
    1.1920   18.7005   46.5054 F   0  0  0  0  0  0  0  0  0  0  0  0
    1.1701   19.8550   42.1149 C   0  0  1  0  0  0  0  0  0  0  0  0
    3.6514   13.3102   38.5577 C   0  0  0  0  0  0  0  0  0  0  0  0
    2.5383   17.9179   39.3556 C   0  0  0  0  0  0  0  0  0  0  0  0
    1.3770   20.4456   39.8400 O   0  0  0  0  0  0  0  0  0  0  0  0
    0.1834   15.1458   45.8896 C   0  0  0  0  0  0  0  0  0  0  0  0
   -0.0767   21.4022   43.7414 O   0  0  0  0  0  0  0  0  0  0  0  0
   -1.4548   19.6562   43.5230 O   0  0  0  0  0  0  0  0  0  0  0  0
    1.3895   19.1923   43.2517 N   0  0  0  0  0  0  0  0  0  0  0  0
    1.3654   21.0698   41.2114 C   0  0  0  0  0  0  0  0  0  0  0  0
    3.1865   18.0857   36.8024 C   0  0  0  0  0  0  0  0  0  0  0  0
    3.1715   13.5891   35.5785 H   0  0  0  0  0  0  0  0  0  0  0  0
    5.0251   13.5950   36.0087 H   0  0  0  0  0  0  0  0  0  0  0  0
    3.7432   20.0844   41.4053 H   0  0  0  0  0  0  0  0  0  0  0  0
    4.3877   19.3510   39.8975 H   0  0  0  0  0  0  0  0  0  0  0  0
    3.5452   20.9363   39.8363 H   0  0  0  0  0  0  0  0  0  0  0  0
    3.2015   11.4010   35.7636 H   0  0  0  0  0  0  0  0  0  0  0  0
    3.4907   12.2350   36.9566 H   0  0  0  0  0  0  0  0  0  0  0  0
    2.4072   11.9919   39.4073 H   0  0  0  0  0  0  0  0  0  0  0  0
    4.0989   12.0765   40.0567 H   0  0  0  0  0  0  0  0  0  0  0  0
    4.0274   15.6679   36.5626 H   0  0  0  0  0  0  0  0  0  0  0  0
    3.2321    8.5088   36.4741 H   0  0  0  0  0  0  0  0  0  0  0  0
    6.2711   11.0651   34.9348 H   0  0  0  0  0  0  0  0  0  0  0  0
    0.3606   18.3899   41.0837 H   0  0  0  0  0  0  0  0  0  0  0  0
   -1.6099   17.5580   45.7191 H   0  0  0  0  0  0  0  0  0  0  0  0
    2.3387   17.0453   42.4321 H   0  0  0  0  0  0  0  0  0  0  0  0
    0.8210   16.5536   41.8386 H   0  0  0  0  0  0  0  0  0  0  0  0
    0.6020   16.5223   44.1815 H   0  0  0  0  0  0  0  0  0  0  0  0
    0.5023   20.5631   42.6274 H   0  0  0  0  0  0  0  0  0  0  0  0
    3.7127   14.0777   39.3434 H   0  0  0  0  0  0  0  0  0  0  0  0
    0.4804   14.5020   46.7305 H   0  0  0  0  0  0  0  0  0  0  0  0
   -0.7236   14.7386   45.4187 H   0  0  0  0  0  0  0  0  0  0  0  0
    0.9965   15.1808   45.1496 H   0  0  0  0  0  0  0  0  0  0  0  0
    2.3167   21.5785   41.4265 H   0  0  0  0  0  0  0  0  0  0  0  0
    0.5944   21.8440   41.3385 H   0  0  0  0  0  0  0  0  0  0  0  0
    3.5324   17.3618   36.0498 H   0  0  0  0  0  0  0  0  0  0  0  0
  1 17  1  0
  4 14  2  0
  5 12  1  0
  9 16  1  0
  9  1  1  0
  9 11  1  0
 10 18  1  0
 11  3  1  0
 11  5  1  0
 13  4  1  0
 14 23  1  0
 15  3  1  0
 17 13  1  0
 17 31  2  0
 18  6  1  0
 18 29  1  0
 19 26  1  0
 19 30  1  0
 20 10  1  0
 21 39  1  0
 21  8  1  0
 22 28  1  0
 22 18  1  0
 22  2  1  0
 23 26  1  0
 24 21  2  0
 25  7  1  1
 25 19  1  0
 27  4  1  0
 27 32  1  0
 30 37  1  0
 31 12  1  0
 32 23  2  0
 32 25  1  0
 33 25  1  0
 33 38  1  0
 34  2  1  0
 35 20  1  0
 36 20  2  0
 37 10  2  3
 38 30  1  0
 39 27  2  3
  1 40  1  0
  1 41  1  0
  7 42  1  0
  7 43  1  0
  7 44  1  0
  9 45  1  6
 11 46  1  1
 12 47  1  0
 12 48  1  0
 13 49  1  0
 15 50  1  0
 16 51  1  0
 19 52  1  6
 22 53  1  6
 26 54  1  0
 26 55  1  0
 28 56  1  0
 30 57  1  1
 31 58  1  0
 34 59  1  0
 34 60  1  0
 34 61  1  0
 38 62  1  0
 38 63  1  0
 39 64  1  0
M  CHG  2   8  -1  35  -1
M  END
>  <mol_id>  (17) 
2026-08-23-6tgu-s0-n100-prep-0017

>  <rmsd_to_ref>  (17) 


$$$$

     RDKit          3D

 31 34  0  0  0  0  0  0  0  0999 V2000
   -1.0005   19.4555   43.0458 C   0  0  0  0  0  0  0  0  0  0  0  0
    1.0478   20.5244   40.4090 C   0  0  0  0  0  0  0  0  0  0  0  0
    3.9288   17.4744   36.7369 N   0  0  0  0  0  0  0  0  0  0  0  0
    0.6840   17.3846   42.1619 C   0  0  0  0  0  0  0  0  0  0  0  0
    0.1707   20.8224   41.3268 N   0  0  0  0  0  0  0  0  0  0  0  0
    3.1385   19.7031   36.3838 N   0  0  0  0  0  0  0  0  0  0  0  0
    0.7676   18.6728   41.5511 C   0  0  0  0  0  0  0  0  0  0  0  0
    1.4683   19.2099   40.4337 C   0  0  0  0  0  0  0  0  0  0  0  0
    2.3074   18.4641   39.5252 C   0  0  0  0  0  0  0  0  0  0  0  0
    2.0263   21.2926   37.4436 O   0  0  0  0  0  0  0  0  0  0  0  0
    3.1466   18.5850   37.0589 C   0  0  1  0  0  0  0  0  0  0  0  0
    2.6050   18.7824   38.2345 C   0  0  2  0  0  0  0  0  0  0  0  0
   -0.1673   17.1744   43.2166 C   0  0  0  0  0  0  0  0  0  0  0  0
    2.5120   20.0322   37.5549 C   0  0  2  0  0  0  0  0  0  0  0  0
   -0.0960   19.6782   42.0127 C   0  0  0  0  0  0  0  0  0  0  0  0
   -1.0300   18.2088   43.6371 C   0  0  0  0  0  0  0  0  0  0  0  0
   -1.6767   20.2546   43.3838 H   0  0  0  0  0  0  0  0  0  0  0  0
    1.4204   21.2572   39.6782 H   0  0  0  0  0  0  0  0  0  0  0  0
    4.2217   16.9982   37.6019 H   0  0  0  0  0  0  0  0  0  0  0  0
    3.3799   16.8246   36.1562 H   0  0  0  0  0  0  0  0  0  0  0  0
    4.7621   17.7811   36.2149 H   0  0  0  0  0  0  0  0  0  0  0  0
    1.3044   16.5581   41.7852 H   0  0  0  0  0  0  0  0  0  0  0  0
    4.0507   20.1455   36.2017 H   0  0  0  0  0  0  0  0  0  0  0  0
    2.7909   19.8522   35.4257 H   0  0  0  0  0  0  0  0  0  0  0  0
    3.2814   18.3947   40.0316 H   0  0  0  0  0  0  0  0  0  0  0  0
    1.6499   17.6006   39.3466 H   0  0  0  0  0  0  0  0  0  0  0  0
    1.8631   21.6643   38.3465 H   0  0  0  0  0  0  0  0  0  0  0  0
    1.6894   18.2742   37.8980 H   0  0  0  0  0  0  0  0  0  0  0  0
   -0.1774   16.2031   43.7328 H   0  0  0  0  0  0  0  0  0  0  0  0
   -0.8269   18.3673   44.7065 H   0  0  0  0  0  0  0  0  0  0  0  0
   -2.0186   17.8287   43.3399 H   0  0  0  0  0  0  0  0  0  0  0  0
  1 16  1  0
  2  8  1  0
  2  5  2  0
  4 13  2  0
  5 15  1  0
  6 11  1  0
  6 14  1  0
  7 15  1  0
  7  4  1  0
  8  7  2  0
  9  8  1  0
 11  3  1  1
 11 14  1  0
 11 12  1  0
 12  9  1  0
 13 16  1  0
 14 10  1  6
 14 12  1  0
 15  1  2  0
  1 17  1  0
  2 18  1  0
  3 19  1  0
  3 20  1  0
  3 21  1  0
  4 22  1  0
  6 23  1  0
  6 24  1  0
  9 25  1  0
  9 26  1  0
 10 27  1  0
 12 28  1  6
 13 29  1  0
 16 30  1  0
 16 31  1  0
M  CHG  2   3   1   6   1
M  END
>  <mol_id>  (18) 
2026-08-23-6tgu-s0-n100-prep-0018

>  <rmsd_to_ref>  (18) 


$$$$

     RDKit          3D

 32 34  0  0  0  0  0  0  0  0999 V2000
    3.7056   19.8251   36.8237 C   0  0  0  0  0  0  0  0  0  0  0  0
    1.2747   13.1825   43.0648 C   0  0  0  0  0  0  0  0  0  0  0  0
    2.6907   20.1407   37.8191 C   0  0  1  0  0  0  0  0  0  0  0  0
    1.0050   18.6141   41.1085 C   0  0  0  0  0  0  0  0  0  0  0  0
    0.4149   15.6293   43.2540 O   0  0  0  0  0  0  0  0  0  0  0  0
    1.0978   14.4974   42.7559 C   0  0  0  0  0  0  0  0  0  0  0  0
    0.4373   16.9644   42.5461 C   0  0  0  0  0  0  0  0  0  0  0  0
    0.7949   20.6725   40.1035 C   0  0  0  0  0  0  0  0  0  0  0  0
    0.1298   19.3782   41.7113 N   0  0  0  0  0  0  0  0  0  0  0  0
    3.2013   17.9528   38.7778 C   0  0  0  0  0  0  0  0  0  0  0  0
    1.1883   17.2951   41.5273 N   0  0  0  0  0  0  0  0  0  0  0  0
    4.1296   17.6964   37.8042 C   0  0  0  0  0  0  0  0  0  0  0  0
    4.3549   18.5979   36.8288 N   0  0  0  0  0  0  0  0  0  0  0  0
    1.9750   21.3059   37.6320 Cl  0  0  0  0  0  0  0  0  0  0  0  0
   -1.2878   17.3325   44.4147 C   0  0  0  0  0  0  0  0  0  0  0  0
   -1.3739   19.8229   43.3389 O   0  0  0  0  0  0  0  0  0  0  0  0
    1.4648   19.4593   39.9360 C   0  0  0  0  0  0  0  0  0  0  0  0
    2.4834   19.1696   38.8538 C   0  0  0  0  0  0  0  0  0  0  0  0
    3.9167   20.6584   35.9400 O   0  0  0  0  0  0  0  0  0  0  0  0
   -0.0024   20.6474   41.1702 N   0  0  0  0  0  0  0  0  0  0  0  0
   -0.6545   19.0250   42.7980 C   0  0  0  0  0  0  0  0  0  0  0  0
   -0.4904   17.7917   43.2322 N   0  0  0  0  0  0  0  0  0  0  0  0
    1.9070   12.5478   42.4265 H   0  0  0  0  0  0  0  0  0  0  0  0
    0.7853   12.7554   43.9525 H   0  0  0  0  0  0  0  0  0  0  0  0
    3.4384   20.6942   38.4061 H   0  0  0  0  0  0  0  0  0  0  0  0
    1.6548   14.7557   41.8432 H   0  0  0  0  0  0  0  0  0  0  0  0
    0.9110   21.5406   39.4380 H   0  0  0  0  0  0  0  0  0  0  0  0
    3.0051   17.1785   39.5341 H   0  0  0  0  0  0  0  0  0  0  0  0
    4.6930   16.7517   37.8187 H   0  0  0  0  0  0  0  0  0  0  0  0
   -0.8827   17.7891   45.3298 H   0  0  0  0  0  0  0  0  0  0  0  0
   -2.3380   17.6342   44.2883 H   0  0  0  0  0  0  0  0  0  0  0  0
   -1.2281   16.2370   44.4942 H   0  0  0  0  0  0  0  0  0  0  0  0
  1  3  1  0
  3 14  1  0
  3 18  1  0
  4 11  1  0
  4  9  1  0
  6  2  2  3
  6  5  1  0
  7  5  1  0
  7 22  1  0
  8 20  2  0
  9 21  1  0
 10 18  2  0
 11  7  2  0
 12 10  1  0
 13  1  1  0
 13 12  2  0
 17  8  1  0
 17  4  2  0
 18 17  1  0
 19  1  2  0
 20  9  1  0
 21 22  1  0
 21 16  2  0
 22 15  1  0
  2 23  1  0
  2 24  1  0
  3 25  1  1
  6 26  1  0
  8 27  1  0
 10 28  1  0
 12 29  1  0
 15 30  1  0
 15 31  1  0
 15 32  1  0
M  END
>  <mol_id>  (19) 
2026-08-23-6tgu-s0-n100-prep-0019

>  <rmsd_to_ref>  (19) 


$$$$

     RDKit          3D

 38 41  0  0  0  0  0  0  0  0999 V2000
    2.1859   15.3604   40.1191 C   0  0  2  0  0  0  0  0  0  0  0  0
    0.5888   20.1188   41.9179 C   0  0  0  0  0  0  0  0  0  0  0  0
   -0.4587   19.8972   43.7059 N   0  0  0  0  0  0  0  0  0  0  0  0
    0.4769   18.7885   42.1181 C   0  0  0  0  0  0  0  0  0  0  0  0
    2.2163   18.9114   38.9462 C   0  0  0  0  0  0  0  0  0  0  0  0
    1.4692   15.4501   41.5151 C   0  0  0  0  0  0  0  0  0  0  0  0
    2.5661   14.1048   39.7515 N   0  0  0  0  0  0  0  0  0  0  0  0
    3.3533   17.3938   37.4910 C   0  0  0  0  0  0  0  0  0  0  0  0
    3.3714   19.7521   37.0280 C   0  0  0  0  0  0  0  0  0  0  0  0
    3.7252   18.4853   36.7003 C   0  0  0  0  0  0  0  0  0  0  0  0
    1.2797   20.3973   40.7062 C   0  0  0  0  0  0  0  0  0  0  0  0
   -0.4820   17.3557   44.0795 C   0  0  0  0  0  0  0  0  0  0  0  0
    2.6171   19.9546   38.0979 C   0  0  0  0  0  0  0  0  0  0  0  0
    1.1452   18.0363   41.1028 C   0  0  0  0  0  0  0  0  0  0  0  0
    1.0145   16.7507   41.4669 N   0  0  0  0  0  0  0  0  0  0  0  0
    2.4065   16.4383   39.4601 N   0  0  0  0  0  0  0  0  0  0  0  0
   -0.2020   18.6373   43.3377 C   0  0  0  0  0  0  0  0  0  0  0  0
    2.6245   17.5880   38.6821 C   0  0  0  0  0  0  0  0  0  0  0  0
    3.7772   20.7649   36.3105 O   0  0  0  0  0  0  0  0  0  0  0  0
    1.5669   19.1315   40.2282 C   0  0  0  0  0  0  0  0  0  0  0  0
   -0.0537   20.8091   42.8938 N   0  0  0  0  0  0  0  0  0  0  0  0
    1.2127   15.2092   39.6293 H   0  0  0  0  0  0  0  0  0  0  0  0
    0.6410   14.7308   41.5959 H   0  0  0  0  0  0  0  0  0  0  0  0
    2.1070   15.2138   42.3796 H   0  0  0  0  0  0  0  0  0  0  0  0
    2.7077   13.5286   40.5934 H   0  0  0  0  0  0  0  0  0  0  0  0
    1.8323   13.6817   39.1653 H   0  0  0  0  0  0  0  0  0  0  0  0
    3.4455   14.1548   39.2177 H   0  0  0  0  0  0  0  0  0  0  0  0
    3.6313   16.3756   37.1812 H   0  0  0  0  0  0  0  0  0  0  0  0
    4.3190   18.3118   35.7907 H   0  0  0  0  0  0  0  0  0  0  0  0
    1.5241   21.3733   40.2615 H   0  0  0  0  0  0  0  0  0  0  0  0
   -0.4522   17.5450   45.1627 H   0  0  0  0  0  0  0  0  0  0  0  0
   -1.4776   16.9804   43.8001 H   0  0  0  0  0  0  0  0  0  0  0  0
    0.2793   16.6063   43.8170 H   0  0  0  0  0  0  0  0  0  0  0  0
    2.2927   20.9797   38.3302 H   0  0  0  0  0  0  0  0  0  0  0  0
    0.8891   16.8984   42.4785 H   0  0  0  0  0  0  0  0  0  0  0  0
    0.6314   16.5532   40.5314 H   0  0  0  0  0  0  0  0  0  0  0  0
    2.7628   16.9106   40.3032 H   0  0  0  0  0  0  0  0  0  0  0  0
    4.3408   20.6111   35.5112 H   0  0  0  0  0  0  0  0  0  0  0  0
  1  7  1  0
  1  6  1  0
  2  4  1  0
  2 21  1  0
  4 17  2  0
  5 20  1  0
  8 18  1  0
  9 13  2  0
 10  9  1  0
 10  8  2  0
 11  2  2  0
 13  5  1  0
 14 15  1  0
 14  4  1  0
 15  6  1  0
 16  1  1  0
 17  3  1  0
 17 12  1  0
 18  5  2  0
 18 16  1  0
 19  9  1  0
 20 11  1  0
 20 14  2  0
 21  3  2  0
  1 22  1  6
  6 23  1  0
  6 24  1  0
  7 25  1  0
  7 26  1  0
  7 27  1  0
  8 28  1  0
 10 29  1  0
 11 30  1  0
 12 31  1  0
 12 32  1  0
 12 33  1  0
 13 34  1  0
 15 35  1  0
 15 36  1  0
 16 37  1  0
 19 38  1  0
M  CHG  2   7   1  15   1
M  END
>  <mol_id>  (20) 
2026-08-23-6tgu-s0-n100-prep-0020

>  <rmsd_to_ref>  (20) 


$$$$

     RDKit          3D

 40 44  0  0  0  0  0  0  0  0999 V2000
    2.4210   15.5520   40.7220 C   0  0  0  0  0  0  0  0  0  0  0  0
    2.2420   19.1490   39.2410 C   0  0  0  0  0  0  0  0  0  0  0  0
   -0.5440   16.8240   44.7240 C   0  0  0  0  0  0  0  0  0  0  0  0
    1.5140   18.8770   40.4450 C   0  0  0  0  0  0  0  0  0  0  0  0
   -1.3160   20.4070   43.9790 N   0  0  0  0  0  0  0  0  0  0  0  0
    1.6760   13.3820   42.3060 C   0  0  0  0  0  0  0  0  0  0  0  0
   -1.1450   19.1830   44.5630 N   0  0  0  0  0  0  0  0  0  0  0  0
    3.8660   20.5970   35.7100 O   0  0  0  0  0  0  0  0  0  0  0  0
    1.2040   21.1150   40.0750 C   0  0  0  0  0  0  0  0  0  0  0  0
    0.9350   17.2900   41.9840 C   0  0  0  0  0  0  0  0  0  0  0  0
    3.2600   20.1610   36.8370 C   0  0  0  0  0  0  0  0  0  0  0  0
    0.1850   18.3380   42.7360 C   0  0  0  0  0  0  0  0  0  0  0  0
   -0.4830   18.1610   44.0030 C   0  0  0  0  0  0  0  0  0  0  0  0
    2.6030   13.2410   41.2460 C   0  0  0  0  0  0  0  0  0  0  0  0
    1.1320   14.6240   42.6080 C   0  0  0  0  0  0  0  0  0  0  0  0
    2.0410   20.5020   38.9270 C   0  0  0  0  0  0  0  0  0  0  0  0
    0.9660   19.9110   40.9440 C   0  0  0  0  0  0  0  0  0  0  0  0
    2.9190   14.2830   40.4360 C   0  0  0  0  0  0  0  0  0  0  0  0
    2.5640   20.9660   37.6730 C   0  0  0  0  0  0  0  0  0  0  0  0
    0.1580   19.6380   42.0930 C   0  0  0  0  0  0  0  0  0  0  0  0
    3.1110   18.3840   38.3890 C   0  0  0  0  0  0  0  0  0  0  0  0
   -0.6310   20.6550   42.8480 C   0  0  0  0  0  0  0  0  0  0  0  0
    1.4360   17.8060   40.8050 N   0  0  0  0  0  0  0  0  0  0  0  0
    1.4930   15.8150   41.7980 C   0  0  0  0  0  0  0  0  0  0  0  0
    3.5530   18.7790   37.2220 C   0  0  0  0  0  0  0  0  0  0  0  0
    2.7505   16.3957   40.0979 H   0  0  0  0  0  0  0  0  0  0  0  0
   -0.5363   16.9929   45.8109 H   0  0  0  0  0  0  0  0  0  0  0  0
   -1.4671   16.2968   44.4414 H   0  0  0  0  0  0  0  0  0  0  0  0
    0.3273   16.2149   44.4414 H   0  0  0  0  0  0  0  0  0  0  0  0
    1.3838   12.5006   42.8958 H   0  0  0  0  0  0  0  0  0  0  0  0
    3.7124   21.5216   35.3914 H   0  0  0  0  0  0  0  0  0  0  0  0
    0.8718   22.1539   40.2174 H   0  0  0  0  0  0  0  0  0  0  0  0
    3.0785   12.2640   41.0746 H   0  0  0  0  0  0  0  0  0  0  0  0
    0.4315   14.7255   43.4500 H   0  0  0  0  0  0  0  0  0  0  0  0
    3.5644   14.1264   39.5591 H   0  0  0  0  0  0  0  0  0  0  0  0
    2.3929   22.0128   37.3815 H   0  0  0  0  0  0  0  0  0  0  0  0
    3.4283   17.3925   38.7443 H   0  0  0  0  0  0  0  0  0  0  0  0
   -0.6542   21.6808   42.4514 H   0  0  0  0  0  0  0  0  0  0  0  0
    1.7976   17.1022   40.1457 H   0  0  0  0  0  0  0  0  0  0  0  0
    4.1179   18.1046   36.5617 H   0  0  0  0  0  0  0  0  0  0  0  0
  1 24  1  0
  2  4  2  0
  4 23  1  0
  4 17  1  0
  5  7  1  0
  6 15  1  0
  8 11  1  0
  9 17  1  0
 10 12  2  0
 11 25  1  0
 11 19  2  0
 12 13  1  0
 13  7  2  0
 13  3  1  0
 14  6  2  0
 16  2  1  0
 16  9  2  0
 17 20  2  0
 18  1  2  0
 18 14  1  0
 19 16  1  0
 20 12  1  0
 20 22  1  0
 21  2  1  0
 22  5  2  0
 23 10  1  0
 24 10  1  0
 24 15  2  0
 25 21  2  0
  1 26  1  0
  3 27  1  0
  3 28  1  0
  3 29  1  0
  6 30  1  0
  8 31  1  0
  9 32  1  0
 14 33  1  0
 15 34  1  0
 18 35  1  0
 19 36  1  0
 21 37  1  0
 22 38  1  0
 23 39  1  0
 25 40  1  0
M  END
>  <mol_id>  (21) 
2026-08-23-6tgu-s0-n100-prep-0021

>  <rmsd_to_ref>  (21) 


$$$$

     RDKit          3D

 57 58  0  0  0  0  0  0  0  0999 V2000
    3.1982   18.1371   37.7512 C   0  0  0  0  0  0  0  0  0  0  0  0
   -1.1623   16.7497   46.1421 C   0  0  2  0  0  0  0  0  0  0  0  0
    1.4999   19.1199   40.9126 C   0  0  0  0  0  0  0  0  0  0  0  0
   -0.8264   14.2618   46.2989 C   0  0  0  0  0  0  0  0  0  0  0  0
    3.7600   17.2910   36.8778 C   0  0  0  0  0  0  0  0  0  0  0  0
    3.0300   19.5797   37.1753 C   0  0  0  0  0  0  0  0  0  0  0  0
   -0.1307   20.6209   41.8582 C   0  0  0  0  0  0  0  0  0  0  0  0
    3.5538   20.9226   35.3692 C   0  0  0  0  0  0  0  0  0  0  0  0
    2.7827   17.9219   39.0076 C   0  0  0  0  0  0  0  0  0  0  0  0
    3.4747   13.3871   39.6320 C   0  0  0  0  0  0  0  0  0  0  0  0
    2.7480   16.4739   39.3217 C   0  0  0  0  0  0  0  0  0  0  0  0
    2.9146   12.2176   39.6352 O   0  0  0  0  0  0  0  0  0  0  0  0
   -0.3301   19.7086   42.9374 C   0  0  0  0  0  0  0  0  0  0  0  0
    4.3777   20.9406   34.4384 O   0  0  0  0  0  0  0  0  0  0  0  0
    2.3382   16.1107   40.3796 O   0  0  0  0  0  0  0  0  0  0  0  0
    3.6744   15.9240   37.1849 C   0  0  0  0  0  0  0  0  0  0  0  0
    2.7432   12.2328   37.0852 O   0  0  0  0  0  0  0  0  0  0  0  0
    0.8153   20.3871   40.8554 C   0  0  0  0  0  0  0  0  0  0  0  0
   -0.5271   15.5123   45.5548 C   0  0  0  0  0  0  0  0  0  0  0  0
    3.5511   13.3226   37.1408 C   0  0  0  0  0  0  0  0  0  0  0  0
    1.3315   18.1865   41.9822 C   0  0  0  0  0  0  0  0  0  0  0  0
    3.1210   15.4771   38.3600 N   0  0  0  0  0  0  0  0  0  0  0  0
    2.3001   20.5248   37.6090 O   0  0  0  0  0  0  0  0  0  0  0  0
    2.5138   21.5230   35.5090 O   0  0  0  0  0  0  0  0  0  0  0  0
    3.0106   14.0232   38.3658 C   0  0  0  0  0  0  0  0  0  0  0  0
   -1.0780   17.6802   45.0742 N   0  0  0  0  0  0  0  0  0  0  0  0
   -1.2772   14.6454   47.5363 O   0  0  0  0  0  0  0  0  0  0  0  0
    3.8091   19.9080   36.2573 O   0  0  0  0  0  0  0  0  0  0  0  0
    0.3655   18.4202   42.9769 C   0  0  0  0  0  0  0  0  0  0  0  0
    2.4441   18.9676   39.8620 N   0  0  0  0  0  0  0  0  0  0  0  0
   -0.2595   18.1532   46.2761 C   0  0  0  0  0  0  0  0  0  0  0  0
   -1.1734   19.9829   43.7952 O   0  0  0  0  0  0  0  0  0  0  0  0
   -1.8550   16.2914   46.8633 H   0  0  0  0  0  0  0  0  0  0  0  0
    0.7514   18.5746   40.3189 H   0  0  0  0  0  0  0  0  0  0  0  0
    0.0832   13.6511   46.3979 H   0  0  0  0  0  0  0  0  0  0  0  0
   -1.5770   13.6544   45.7719 H   0  0  0  0  0  0  0  0  0  0  0  0
    4.2625   17.6489   35.9670 H   0  0  0  0  0  0  0  0  0  0  0  0
   -0.7397   21.5358   41.8139 H   0  0  0  0  0  0  0  0  0  0  0  0
    3.1508   13.9751   40.5034 H   0  0  0  0  0  0  0  0  0  0  0  0
    4.5714   13.3244   39.6897 H   0  0  0  0  0  0  0  0  0  0  0  0
    2.7663   11.9252   40.5693 H   0  0  0  0  0  0  0  0  0  0  0  0
    4.0617   15.1893   36.4635 H   0  0  0  0  0  0  0  0  0  0  0  0
    2.5172   11.9423   38.0042 H   0  0  0  0  0  0  0  0  0  0  0  0
    1.0248   21.1269   40.0687 H   0  0  0  0  0  0  0  0  0  0  0  0
   -0.8899   15.3949   44.5230 H   0  0  0  0  0  0  0  0  0  0  0  0
    0.5617   15.6596   45.6099 H   0  0  0  0  0  0  0  0  0  0  0  0
    4.6053   13.0371   37.2715 H   0  0  0  0  0  0  0  0  0  0  0  0
    3.5452   13.9372   36.2286 H   0  0  0  0  0  0  0  0  0  0  0  0
    1.9586   17.2839   42.0270 H   0  0  0  0  0  0  0  0  0  0  0  0
    1.9230   13.8671   38.3153 H   0  0  0  0  0  0  0  0  0  0  0  0
   -0.5761   17.4005   44.2193 H   0  0  0  0  0  0  0  0  0  0  0  0
   -1.8149   18.1532   44.5320 H   0  0  0  0  0  0  0  0  0  0  0  0
   -0.7377   14.2001   48.2368 H   0  0  0  0  0  0  0  0  0  0  0  0
    0.1425   17.6697   43.7496 H   0  0  0  0  0  0  0  0  0  0  0  0
    3.0007   19.8182   39.6959 H   0  0  0  0  0  0  0  0  0  0  0  0
   -0.5987   18.9915   46.9023 H   0  0  0  0  0  0  0  0  0  0  0  0
    0.7781   18.4424   46.4988 H   0  0  0  0  0  0  0  0  0  0  0  0
  1  9  2  0
  2 19  1  0
  2 31  1  0
  3 30  1  0
  3 21  1  0
  4 27  1  0
  5 16  2  0
  5  1  1  0
  6 23  2  0
  6  1  1  0
  7 13  1  0
  8 24  1  0
  8 28  1  0
  9 11  1  0
  9 30  1  0
 11 15  2  0
 12 10  1  0
 13 29  1  0
 13 32  2  0
 14  8  2  0
 16 22  1  0
 17 20  1  0
 18  3  1  0
 18  7  2  0
 19  4  1  0
 20 25  1  0
 21 29  2  0
 22 11  1  0
 25 22  1  0
 25 10  1  0
 26  2  1  0
 26 31  1  0
 28  6  1  0
  2 33  1  1
  3 34  1  0
  4 35  1  0
  4 36  1  0
  5 37  1  0
  7 38  1  0
 10 39  1  0
 10 40  1  0
 12 41  1  0
 16 42  1  0
 17 43  1  0
 18 44  1  0
 19 45  1  0
 19 46  1  0
 20 47  1  0
 20 48  1  0
 21 49  1  0
 25 50  1  0
 26 51  1  0
 26 52  1  0
 27 53  1  0
 29 54  1  0
 30 55  1  0
 31 56  1  0
 31 57  1  0
M  CHG  2  24  -1  26   1
M  END
>  <mol_id>  (22) 
2026-08-23-6tgu-s0-n100-prep-0022

>  <rmsd_to_ref>  (22) 


$$$$

     RDKit          3D

 26 26  0  0  0  0  0  0  0  0999 V2000
    3.6570   20.0120   38.7910 C   0  0  0  0  0  0  0  0  0  0  0  0
    3.7450   18.9570   36.7490 O   0  0  0  0  0  0  0  0  0  0  0  0
    0.4290   18.0860   43.2230 C   0  0  0  0  0  0  0  0  0  0  0  0
    2.5730   18.3520   40.1750 C   0  0  0  0  0  0  0  0  0  0  0  0
    0.9980   20.0810   41.5060 C   0  0  0  0  0  0  0  0  0  0  0  0
    1.5190   17.8560   41.0700 C   0  0  0  0  0  0  0  0  0  0  0  0
    2.6170   19.6000   39.8070 C   0  0  0  0  0  0  0  0  0  0  0  0
    0.9990   18.7570   41.9390 C   0  0  0  0  0  0  0  0  0  0  0  0
    2.4650   20.6290   36.9000 O   0  0  0  0  0  0  0  0  0  0  0  0
   -1.0520   18.3730   43.4950 C   0  0  0  0  0  0  0  0  0  0  0  0
    1.7620   20.4610   40.4290 C   0  0  0  0  0  0  0  0  0  0  0  0
    3.2400   19.8550   37.4100 C   0  0  0  0  0  0  0  0  0  0  0  0
   -1.4640   17.9110   44.7980 N   0  0  0  0  0  0  0  0  0  0  0  0
    3.9011   21.0714   38.9585 H   0  0  0  0  0  0  0  0  0  0  0  0
    4.5198   19.3454   38.9365 H   0  0  0  0  0  0  0  0  0  0  0  0
    1.0111   18.4457   44.0843 H   0  0  0  0  0  0  0  0  0  0  0  0
    0.5104   17.0001   43.0671 H   0  0  0  0  0  0  0  0  0  0  0  0
    3.3407   17.6547   39.8083 H   0  0  0  0  0  0  0  0  0  0  0  0
    0.3818   20.8269   42.0295 H   0  0  0  0  0  0  0  0  0  0  0  0
    1.1715   16.8128   41.0369 H   0  0  0  0  0  0  0  0  0  0  0  0
   -1.2199   19.4584   43.4341 H   0  0  0  0  0  0  0  0  0  0  0  0
   -1.6453   17.8344   42.7415 H   0  0  0  0  0  0  0  0  0  0  0  0
    1.6813   21.4929   40.0566 H   0  0  0  0  0  0  0  0  0  0  0  0
   -0.9783   18.4557   45.5248 H   0  0  0  0  0  0  0  0  0  0  0  0
   -2.4816   18.0335   44.8998 H   0  0  0  0  0  0  0  0  0  0  0  0
   -1.2263   16.9140   44.8998 H   0  0  0  0  0  0  0  0  0  0  0  0
  1  7  1  0
  2 12  2  0
  3 10  1  0
  4  6  2  0
  5  8  2  0
  6  8  1  0
  7  4  1  0
  7 11  2  0
  8  3  1  0
  9 12  1  0
 10 13  1  0
 11  5  1  0
 12  1  1  0
  1 14  1  0
  1 15  1  0
  3 16  1  0
  3 17  1  0
  4 18  1  0
  5 19  1  0
  6 20  1  0
 10 21  1  0
 10 22  1  0
 11 23  1  0
 13 24  1  0
 13 25  1  0
 13 26  1  0
M  CHG  2   9  -1  13   1
M  END
>  <mol_id>  (23) 
2026-08-23-6tgu-s0-n100-prep-0023

>  <rmsd_to_ref>  (23) 


$$$$

     RDKit          3D

 38 40  0  0  0  0  0  0  0  0999 V2000
    4.7680   16.5110   36.3190 C   0  0  0  0  0  0  0  0  0  0  0  0
    3.5790   17.1440   38.1980 O   0  0  0  0  0  0  0  0  0  0  0  0
    0.3530   18.5560   42.4870 C   0  0  1  0  0  0  0  0  0  0  0  0
    3.4720   20.6430   36.5460 O   0  0  0  0  0  0  0  0  0  0  0  0
   -0.1650   16.9300   43.8440 C   0  0  0  0  0  0  0  0  0  0  0  0
    0.6340   20.7930   41.6140 C   0  0  0  0  0  0  0  0  0  0  0  0
    2.7440   20.5030   37.5000 C   0  0  0  0  0  0  0  0  0  0  0  0
    1.6650   18.9320   40.4880 C   0  0  0  0  0  0  0  0  0  0  0  0
    0.9110   19.4550   41.4940 C   0  0  0  0  0  0  0  0  0  0  0  0
    0.4730   17.2230   42.6350 N   0  0  0  0  0  0  0  0  0  0  0  0
   -1.4540   18.1740   45.5970 N   0  0  0  0  0  0  0  0  0  0  0  0
   -0.7410   18.1030   44.3890 C   0  0  0  0  0  0  0  0  0  0  0  0
    1.8280   21.6870   37.7240 C   0  0  0  0  0  0  0  0  0  0  0  0
    4.0940   17.3820   37.0590 C   0  0  0  0  0  0  0  0  0  0  0  0
   -0.3810   19.1820   43.5590 C   0  0  0  0  0  0  0  0  0  0  0  0
    4.1470   18.4090   36.4160 N   0  0  0  0  0  0  0  0  0  0  0  0
   -0.1710   21.2340   42.6830 C   0  0  0  0  0  0  0  0  0  0  0  0
    2.0350   19.6150   39.4810 N   0  0  0  0  0  0  0  0  0  0  0  0
    2.1380   17.6640   40.1460 C   0  0  0  0  0  0  0  0  0  0  0  0
    2.8550   17.9560   38.9530 C   0  0  0  0  0  0  0  0  0  0  0  0
   -0.6220   20.4390   43.6380 N   0  0  0  0  0  0  0  0  0  0  0  0
    2.6410   19.3480   38.5450 C   0  0  0  0  0  0  0  0  0  0  0  0
    5.3082   15.8129   36.9753 H   0  0  0  0  0  0  0  0  0  0  0  0
    4.0670   15.9494   35.6841 H   0  0  0  0  0  0  0  0  0  0  0  0
    5.4876   17.0487   35.6841 H   0  0  0  0  0  0  0  0  0  0  0  0
   -0.5333   18.4058   41.8530 H   0  0  0  0  0  0  0  0  0  0  0  0
   -0.2126   15.9325   44.3051 H   0  0  0  0  0  0  0  0  0  0  0  0
    1.0352   21.5125   40.8850 H   0  0  0  0  0  0  0  0  0  0  0  0
   -0.7972   18.1086   46.3877 H   0  0  0  0  0  0  0  0  0  0  0  0
   -1.9605   19.0696   45.6446 H   0  0  0  0  0  0  0  0  0  0  0  0
   -2.1272   17.3959   45.6446 H   0  0  0  0  0  0  0  0  0  0  0  0
    1.7000   21.8524   38.8039 H   0  0  0  0  0  0  0  0  0  0  0  0
    2.2695   22.5841   37.2654 H   0  0  0  0  0  0  0  0  0  0  0  0
    0.8488   21.4849   37.2654 H   0  0  0  0  0  0  0  0  0  0  0  0
    3.6934   19.2629   36.7710 H   0  0  0  0  0  0  0  0  0  0  0  0
   -0.4393   22.2999   42.7253 H   0  0  0  0  0  0  0  0  0  0  0  0
    2.7986   17.2554   40.9249 H   0  0  0  0  0  0  0  0  0  0  0  0
    1.3526   16.9028   40.0289 H   0  0  0  0  0  0  0  0  0  0  0  0
  1 14  1  0
  2 20  1  0
  3  9  1  0
  3 10  1  0
  3 15  1  0
  4  7  2  0
  5 12  1  0
  6 17  1  0
  7 13  1  0
  7 22  1  0
  8  9  1  0
  9  6  2  0
 10  5  2  0
 12 11  1  0
 14  2  1  0
 15 21  1  0
 15 12  2  0
 16 14  2  3
 17 21  2  0
 18  8  2  0
 19  8  1  0
 20 19  1  0
 22 20  2  0
 22 18  1  0
  1 23  1  0
  1 24  1  0
  1 25  1  0
  3 26  1  6
  5 27  1  0
  6 28  1  0
 11 29  1  0
 11 30  1  0
 11 31  1  0
 13 32  1  0
 13 33  1  0
 13 34  1  0
 16 35  1  0
 17 36  1  0
 19 37  1  0
 19 38  1  0
M  CHG  1  11   1
M  END
>  <mol_id>  (24) 
2026-08-23-6tgu-s0-n100-prep-0024

>  <rmsd_to_ref>  (24) 


$$$$

     RDKit          3D

 25 27  0  0  0  0  0  0  0  0999 V2000
    1.8504   16.2008   40.3068 F   0  0  0  0  0  0  0  0  0  0  0  0
   -0.7466   16.9645   43.1542 C   0  0  0  0  0  0  0  0  0  0  0  0
    2.0448   17.3394   39.7033 C   0  0  0  0  0  0  0  0  0  0  0  0
    2.7094   20.7924   37.3981 N   0  0  0  0  0  0  0  0  0  0  0  0
    1.4369   18.4775   40.2698 C   0  0  0  0  0  0  0  0  0  0  0  0
    2.3943   19.8065   38.2906 C   0  0  0  0  0  0  0  0  0  0  0  0
   -0.2103   19.3840   41.8855 C   0  0  0  0  0  0  0  0  0  0  0  0
    1.6987   19.7747   39.5407 C   0  0  0  0  0  0  0  0  0  0  0  0
    0.4624   18.2518   41.4555 C   0  0  0  0  0  0  0  0  0  0  0  0
    2.9463   18.6154   37.8291 C   0  0  0  0  0  0  0  0  0  0  0  0
    3.5847   18.8457   36.6037 O   0  0  0  0  0  0  0  0  0  0  0  0
   -1.4142   18.0425   43.5568 N   0  0  0  0  0  0  0  0  0  0  0  0
    3.4200   20.2653   36.3874 N   0  0  0  0  0  0  0  0  0  0  0  0
    2.7839   17.4081   38.4839 C   0  0  0  0  0  0  0  0  0  0  0  0
   -1.0788   19.1872   42.9402 C   0  0  0  0  0  0  0  0  0  0  0  0
    1.2270   21.1011   39.9974 C   0  0  0  0  0  0  0  0  0  0  0  0
    0.1651   16.9894   42.0776 C   0  0  0  0  0  0  0  0  0  0  0  0
   -0.9124   16.0141   43.6826 H   0  0  0  0  0  0  0  0  0  0  0  0
   -0.0629   20.3694   41.4196 H   0  0  0  0  0  0  0  0  0  0  0  0
    3.2276   16.4942   38.0622 H   0  0  0  0  0  0  0  0  0  0  0  0
   -1.5636   20.0944   43.3299 H   0  0  0  0  0  0  0  0  0  0  0  0
    1.1461   21.1037   41.0944 H   0  0  0  0  0  0  0  0  0  0  0  0
    1.9431   21.8738   39.6807 H   0  0  0  0  0  0  0  0  0  0  0  0
    0.2415   21.3116   39.5565 H   0  0  0  0  0  0  0  0  0  0  0  0
    0.6388   16.0626   41.7215 H   0  0  0  0  0  0  0  0  0  0  0  0
  2 12  2  0
  3  5  2  0
  3  1  1  0
  4  6  1  0
  5  9  1  0
  6  8  2  0
  7 15  2  0
  8 16  1  0
  8  5  1  0
  9  7  1  0
  9 17  2  0
 10  6  1  0
 10 14  2  0
 11 10  1  0
 13 11  1  0
 13  4  2  0
 14  3  1  0
 15 12  1  0
 17  2  1  0
  2 18  1  0
  7 19  1  0
 14 20  1  0
 15 21  1  0
 16 22  1  0
 16 23  1  0
 16 24  1  0
 17 25  1  0
M  END
>  <mol_id>  (25) 
2026-08-23-6tgu-s0-n100-prep-0026

>  <rmsd_to_ref>  (25) 


$$$$

     RDKit          3D

 29 30  0  0  0  0  0  0  0  0999 V2000
    1.8210   19.6448   39.0905 C   0  0  0  0  0  0  0  0  0  0  0  0
    2.7858   21.2188   35.9359 O   0  0  0  0  0  0  0  0  0  0  0  0
    0.4678   16.3142   41.6787 C   0  0  0  0  0  0  0  0  0  0  0  0
   -0.2291   15.1376   43.3524 C   0  0  0  0  0  0  0  0  0  0  0  0
   -0.1446   17.2784   42.8197 C   0  0  0  0  0  0  0  0  0  0  0  0
    3.2338   19.1092   36.8574 C   0  0  0  0  0  0  0  0  0  0  0  0
    0.1392   18.6837   42.5406 C   0  0  0  0  0  0  0  0  0  0  0  0
    0.8322   18.5767   41.2346 C   0  0  0  0  0  0  0  0  0  0  0  0
    0.9056   17.2826   40.9123 C   0  0  0  0  0  0  0  0  0  0  0  0
    1.9767   20.6399   38.1669 C   0  0  0  0  0  0  0  0  0  0  0  0
    0.5398   15.2525   42.3888 C   0  0  0  0  0  0  0  0  0  0  0  0
    0.7680   20.1674   40.5814 S   0  0  0  0  0  0  0  0  0  0  0  0
    2.3384   18.3726   38.9341 C   0  0  0  0  0  0  0  0  0  0  0  0
    2.6640   20.4421   36.9603 C   0  0  0  0  0  0  0  0  0  0  0  0
   -0.9028   14.4769   44.0972 N   0  0  0  0  0  0  0  0  0  0  0  0
    3.0990   18.1301   37.7736 C   0  0  0  0  0  0  0  0  0  0  0  0
    2.4125   22.1353   35.9625 H   0  0  0  0  0  0  0  0  0  0  0  0
   -0.3661   16.1687   43.7104 H   0  0  0  0  0  0  0  0  0  0  0  0
   -1.2344   17.1351   42.8619 H   0  0  0  0  0  0  0  0  0  0  0  0
    0.3219   17.0160   43.7807 H   0  0  0  0  0  0  0  0  0  0  0  0
    3.8236   18.8806   35.9575 H   0  0  0  0  0  0  0  0  0  0  0  0
   -0.0969   19.5774   43.1367 H   0  0  0  0  0  0  0  0  0  0  0  0
    1.3600   17.0142   39.9473 H   0  0  0  0  0  0  0  0  0  0  0  0
    1.5479   21.6309   38.3771 H   0  0  0  0  0  0  0  0  0  0  0  0
    0.3529   14.3998   41.7195 H   0  0  0  0  0  0  0  0  0  0  0  0
    1.5403   15.2975   42.8437 H   0  0  0  0  0  0  0  0  0  0  0  0
    2.1640   17.5851   39.6821 H   0  0  0  0  0  0  0  0  0  0  0  0
   -1.4315   14.9327   44.8546 H   0  0  0  0  0  0  0  0  0  0  0  0
    3.5779   17.1523   37.6169 H   0  0  0  0  0  0  0  0  0  0  0  0
  1 12  1  0
  2 14  1  0
  3 11  1  0
  3  5  1  0
  4 15  2  3
  6 14  1  0
  6 16  2  0
  7  5  1  0
  8  7  2  0
  9  8  1  0
  9  3  2  0
 10  1  1  0
 11  4  1  0
 12  8  1  0
 13  1  2  0
 14 10  2  0
 16 13  1  0
  2 17  1  0
  4 18  1  0
  5 19  1  0
  5 20  1  0
  6 21  1  0
  7 22  1  0
  9 23  1  0
 10 24  1  0
 11 25  1  0
 11 26  1  0
 13 27  1  0
 15 28  1  0
 16 29  1  0
M  END
>  <mol_id>  (26) 
2026-08-23-6tgu-s0-n100-prep-0027

>  <rmsd_to_ref>  (26) 


$$$$

     RDKit          3D

 59 63  0  0  0  0  0  0  0  0999 V2000
    0.0358   16.3222   44.7013 C   0  0  0  0  0  0  0  0  0  0  0  0
    3.6101   22.4483   34.8265 O   0  0  0  0  0  0  0  0  0  0  0  0
   -0.4037   17.2418   45.7079 C   0  0  0  0  0  0  0  0  0  0  0  0
    2.1634   19.5041   40.0081 C   0  0  0  0  0  0  0  0  0  0  0  0
    3.1656   17.3847   39.2761 C   0  0  0  0  0  0  0  0  0  0  0  0
    4.2505   21.7045   35.5169 C   0  0  0  0  0  0  0  0  0  0  0  0
    1.8783   17.3999   41.5788 C   0  0  0  0  0  0  0  0  0  0  0  0
   -0.6654   16.7314   47.0044 C   0  0  0  0  0  0  0  0  0  0  0  0
    0.6087   16.9431   43.4998 C   0  0  0  0  0  0  0  0  0  0  0  0
   -1.7572   14.2382   50.6182 C   0  0  0  0  0  0  0  0  0  0  0  0
   -0.7372   15.3139   47.1697 C   0  0  0  0  0  0  0  0  0  0  0  0
   -0.1904   14.8996   44.8043 C   0  0  0  0  0  0  0  0  0  0  0  0
    1.5256   18.9733   41.1827 C   0  0  0  0  0  0  0  0  0  0  0  0
   -0.5225   14.4266   46.1006 C   0  0  0  0  0  0  0  0  0  0  0  0
    3.7224   17.0220   38.0695 C   0  0  0  0  0  0  0  0  0  0  0  0
    2.2389   21.2855   38.3888 C   0  0  0  0  0  0  0  0  0  0  0  0
    2.6795   16.8404   40.5869 C   0  0  0  0  0  0  0  0  0  0  0  0
    2.9100   18.7552   39.0943 C   0  0  1  0  0  0  0  0  0  0  0  0
    1.8058   14.8769   42.2129 C   0  0  0  0  0  0  0  0  0  0  0  0
    3.9253   18.0809   37.1776 O   0  0  0  0  0  0  0  0  0  0  0  0
   -1.2833   15.2697   49.6518 C   0  0  0  0  0  0  0  0  0  0  0  0
    3.0983   20.5161   37.4343 C   0  0  0  0  0  0  0  0  0  0  0  0
    3.7638   20.6362   36.1073 N   0  0  0  0  0  0  0  0  0  0  0  0
    3.3410   19.1954   37.8130 C   0  0  0  0  0  0  0  0  0  0  0  0
   -0.4978   18.6820   45.5334 N   0  0  0  0  0  0  0  0  0  0  0  0
    5.8323   21.7058   35.6167 C   0  0  0  0  0  0  0  0  0  0  0  0
    0.4148   18.4211   43.3117 C   0  0  0  0  0  0  0  0  0  0  0  0
   -0.5486   20.5574   44.1112 O   0  0  0  0  0  0  0  0  0  0  0  0
   -0.6406   19.1103   44.0576 C   0  0  2  0  0  0  0  0  0  0  0  0
    1.9233   20.9320   39.6143 C   0  0  0  0  0  0  0  0  0  0  0  0
   -1.0760   14.7478   48.3719 N   0  0  0  0  0  0  0  0  0  0  0  0
    1.3232   16.2605   42.4847 C   0  0  0  0  0  0  0  0  0  0  0  0
   -0.8093   17.4080   47.8596 H   0  0  0  0  0  0  0  0  0  0  0  0
   -1.5347   14.5671   51.6440 H   0  0  0  0  0  0  0  0  0  0  0  0
   -2.8427   14.1005   50.5046 H   0  0  0  0  0  0  0  0  0  0  0  0
   -1.2440   13.2858   50.4190 H   0  0  0  0  0  0  0  0  0  0  0  0
   -0.1107   14.2280   43.9368 H   0  0  0  0  0  0  0  0  0  0  0  0
    0.8374   19.5803   41.7893 H   0  0  0  0  0  0  0  0  0  0  0  0
   -0.6138   13.3438   46.2722 H   0  0  0  0  0  0  0  0  0  0  0  0
    3.9866   15.9823   37.8264 H   0  0  0  0  0  0  0  0  0  0  0  0
    1.8313   22.2415   38.0284 H   0  0  0  0  0  0  0  0  0  0  0  0
    3.0164   15.8158   40.8032 H   0  0  0  0  0  0  0  0  0  0  0  0
    3.2085   19.5369   39.8085 H   0  0  0  0  0  0  0  0  0  0  0  0
    1.9850   14.3573   43.1657 H   0  0  0  0  0  0  0  0  0  0  0  0
    1.0462   14.3306   41.6345 H   0  0  0  0  0  0  0  0  0  0  0  0
    2.7424   14.9216   41.6378 H   0  0  0  0  0  0  0  0  0  0  0  0
   -2.0376   16.0680   49.5895 H   0  0  0  0  0  0  0  0  0  0  0  0
   -0.3191   15.6527   50.0172 H   0  0  0  0  0  0  0  0  0  0  0  0
    3.8556   19.7576   35.5775 H   0  0  0  0  0  0  0  0  0  0  0  0
   -0.4719   19.3501   46.3169 H   0  0  0  0  0  0  0  0  0  0  0  0
    6.1331   21.6388   36.6727 H   0  0  0  0  0  0  0  0  0  0  0  0
    6.2352   20.8435   35.0653 H   0  0  0  0  0  0  0  0  0  0  0  0
    6.2264   22.6360   35.1815 H   0  0  0  0  0  0  0  0  0  0  0  0
    1.3652   18.9053   43.5807 H   0  0  0  0  0  0  0  0  0  0  0  0
    0.0902   18.5081   42.2643 H   0  0  0  0  0  0  0  0  0  0  0  0
   -0.5069   20.8506   45.0558 H   0  0  0  0  0  0  0  0  0  0  0  0
   -1.5750   18.8446   43.5417 H   0  0  0  0  0  0  0  0  0  0  0  0
    1.4986   21.6560   40.3253 H   0  0  0  0  0  0  0  0  0  0  0  0
   -1.2040   13.7271   48.3212 H   0  0  0  0  0  0  0  0  0  0  0  0
  1 12  1  0
  1  3  2  0
  2  6  2  0
  3  8  1  0
  4 13  2  0
  5 17  1  0
  6 26  1  0
  6 23  1  0
  7 32  1  0
  8 11  2  0
  9  1  1  0
 11 31  1  0
 12 14  2  0
 13  7  1  0
 14 11  1  0
 15  5  2  0
 16 30  2  0
 17  7  2  0
 18 24  1  0
 18  5  1  0
 18  4  1  0
 19 32  1  0
 20 24  1  0
 20 15  1  0
 21 10  1  0
 22 24  2  0
 22 16  1  0
 23 22  1  0
 25  3  1  0
 27  9  1  0
 27 29  1  0
 29 28  1  0
 29 25  1  0
 30  4  1  0
 31 21  1  0
 32  9  2  3
  8 33  1  0
 10 34  1  0
 10 35  1  0
 10 36  1  0
 12 37  1  0
 13 38  1  0
 14 39  1  0
 15 40  1  0
 16 41  1  0
 17 42  1  0
 18 43  1  1
 19 44  1  0
 19 45  1  0
 19 46  1  0
 21 47  1  0
 21 48  1  0
 23 49  1  0
 25 50  1  0
 26 51  1  0
 26 52  1  0
 26 53  1  0
 27 54  1  0
 27 55  1  0
 28 56  1  0
 29 57  1  6
 30 58  1  0
 31 59  1  0
M  END
>  <mol_id>  (27) 
2026-08-23-6tgu-s0-n100-prep-0028

>  <rmsd_to_ref>  (27) 


$$$$

     RDKit          3D

 51 54  0  0  0  0  0  0  0  0999 V2000
    0.7792   12.1312   41.8594 C   0  0  0  0  0  0  0  0  0  0  0  0
    2.7687   16.2495   37.8139 O   0  0  0  0  0  0  0  0  0  0  0  0
    0.2957   17.5009   43.4889 C   0  0  0  0  0  0  0  0  0  0  0  0
   -0.0024   14.2327   43.5393 C   0  0  0  0  0  0  0  0  0  0  0  0
    1.1834   17.8958   41.1107 C   0  0  0  0  0  0  0  0  0  0  0  0
    4.1066   20.1536   35.9467 O   0  0  0  0  0  0  0  0  0  0  0  0
   -0.6155   20.7323   44.9126 O   0  0  0  0  0  0  0  0  0  0  0  0
    3.4947   17.9576   36.6030 N   0  0  0  0  0  0  0  0  0  0  0  0
    1.2761   15.7156   42.0283 C   0  0  0  0  0  0  0  0  0  0  0  0
    0.9034   17.0153   42.2761 C   0  0  0  0  0  0  0  0  0  0  0  0
    1.4208   20.5371   39.3637 O   0  0  0  0  0  0  0  0  0  0  0  0
    0.0966   18.9723   43.5430 C   0  0  0  0  0  0  0  0  0  0  0  0
    0.8555   14.4575   42.4197 C   0  0  0  0  0  0  0  0  0  0  0  0
    2.1971   18.3141   38.7095 C   0  0  0  0  0  0  0  0  0  0  0  0
   -0.3426   15.2897   44.5305 C   0  0  0  0  0  0  0  0  0  0  0  0
    2.7616   21.8488   35.7527 C   0  0  0  0  0  0  0  0  0  0  0  0
   -0.1982   16.6942   44.5431 C   0  0  0  0  0  0  0  0  0  0  0  0
    2.5222   20.4593   37.4652 C   0  0  0  0  0  0  0  0  0  0  0  0
    2.8111   17.5214   37.6997 C   0  0  0  0  0  0  0  0  0  0  0  0
   -0.2487   11.9405   42.7750 C   0  0  0  0  0  0  0  0  0  0  0  0
    3.1426   20.8089   36.3353 C   0  0  0  0  0  0  0  0  0  0  0  0
   -0.7845   18.7282   45.7679 N   0  0  0  0  0  0  0  0  0  0  0  0
   -0.6076   12.9761   43.5848 C   0  0  0  0  0  0  0  0  0  0  0  0
    2.0400   19.7671   38.4986 C   0  0  0  0  0  0  0  0  0  0  0  0
   -0.7551   17.3887   45.6718 C   0  0  0  0  0  0  0  0  0  0  0  0
    0.6899   21.2506   42.4516 C   0  0  0  0  0  0  0  0  0  0  0  0
   -1.4378   16.6102   46.5686 N   0  0  0  0  0  0  0  0  0  0  0  0
    0.8449   19.1452   41.2735 O   0  0  0  0  0  0  0  0  0  0  0  0
    1.7500   17.5024   39.8616 C   0  0  0  0  0  0  0  0  0  0  0  0
    0.5490   19.7520   42.4496 C   0  0  0  0  0  0  0  0  0  0  0  0
    1.4179   13.3921   41.7099 C   0  0  0  0  0  0  0  0  0  0  0  0
   -0.4156   19.5281   44.7759 C   0  0  0  0  0  0  0  0  0  0  0  0
    1.1063   11.2864   41.2355 H   0  0  0  0  0  0  0  0  0  0  0  0
    4.3782   19.3359   36.4341 H   0  0  0  0  0  0  0  0  0  0  0  0
    3.5862   18.9673   36.4210 H   0  0  0  0  0  0  0  0  0  0  0  0
    3.9196   17.2773   35.9567 H   0  0  0  0  0  0  0  0  0  0  0  0
    2.1318   15.6623   41.3392 H   0  0  0  0  0  0  0  0  0  0  0  0
    1.0172   20.1428   40.1771 H   0  0  0  0  0  0  0  0  0  0  0  0
   -0.8042   14.8929   45.4468 H   0  0  0  0  0  0  0  0  0  0  0  0
    2.5784   22.6391   36.4956 H   0  0  0  0  0  0  0  0  0  0  0  0
    3.5389   22.1804   35.0486 H   0  0  0  0  0  0  0  0  0  0  0  0
    1.8324   21.6410   35.2018 H   0  0  0  0  0  0  0  0  0  0  0  0
   -0.7634   10.9708   42.8449 H   0  0  0  0  0  0  0  0  0  0  0  0
   -1.4166   12.8131   44.3121 H   0  0  0  0  0  0  0  0  0  0  0  0
    0.8795   21.5997   43.4774 H   0  0  0  0  0  0  0  0  0  0  0  0
    1.5306   21.5408   41.8042 H   0  0  0  0  0  0  0  0  0  0  0  0
   -0.2375   21.7066   42.0746 H   0  0  0  0  0  0  0  0  0  0  0  0
   -1.8644   17.0388   47.4024 H   0  0  0  0  0  0  0  0  0  0  0  0
   -1.5245   15.5964   46.4091 H   0  0  0  0  0  0  0  0  0  0  0  0
    1.8746   16.4168   39.7350 H   0  0  0  0  0  0  0  0  0  0  0  0
    2.3044   13.5225   41.0720 H   0  0  0  0  0  0  0  0  0  0  0  0
  1 20  1  0
  3 17  2  0
  4 23  1  0
  4 15  2  0
  5 10  2  0
  6 21  1  0
  7 32  2  0
  8 19  1  0
  9 13  2  0
 10  9  1  0
 10  3  1  0
 12  3  1  0
 12 32  1  0
 13  4  1  0
 14 29  2  3
 16 21  1  0
 17 15  1  0
 17 25  1  0
 18 24  2  0
 19  2  2  0
 19 14  1  0
 20 23  2  0
 21 18  2  0
 22 25  2  0
 24 14  1  0
 24 11  1  0
 25 27  1  0
 26 30  1  0
 28  5  1  0
 28 30  1  0
 29  5  1  0
 30 12  2  0
 31  1  2  0
 31 13  1  0
 32 22  1  0
  1 33  1  0
  6 34  1  0
  8 35  1  0
  8 36  1  0
  9 37  1  0
 11 38  1  0
 15 39  1  0
 16 40  1  0
 16 41  1  0
 16 42  1  0
 20 43  1  0
 23 44  1  0
 26 45  1  0
 26 46  1  0
 26 47  1  0
 27 48  1  0
 27 49  1  0
 29 50  1  0
 31 51  1  0
M  END
>  <mol_id>  (28) 
2026-08-23-6tgu-s0-n100-prep-0029

>  <rmsd_to_ref>  (28) 


$$$$

     RDKit          3D

 60 65  0  0  0  0  0  0  0  0999 V2000
    2.5300   20.2008   37.6918 C   0  0  1  0  0  0  0  0  0  0  0  0
    3.7628   19.2717   35.5816 O   0  0  0  0  0  0  0  0  0  0  0  0
    2.7819   14.9048   40.3864 C   0  0  0  0  0  0  0  0  0  0  0  0
    3.4023   13.6291   40.4110 C   0  0  0  0  0  0  0  0  0  0  0  0
    4.7154   14.2646   38.5472 C   0  0  0  0  0  0  0  0  0  0  0  0
    2.9040   20.1772   40.1166 C   0  0  0  0  0  0  0  0  0  0  0  0
    2.5682   18.1665   38.5332 C   0  0  1  0  0  0  0  0  0  0  0  0
   -0.8619   16.6028   46.4514 C   0  0  0  0  0  0  0  0  0  0  0  0
   -0.2783   16.5277   45.1802 C   0  0  0  0  0  0  0  0  0  0  0  0
    4.3395   13.3199   39.4645 C   0  0  0  0  0  0  0  0  0  0  0  0
    2.3093   17.1967   39.4141 C   0  0  2  0  0  0  0  0  0  0  0  0
   -0.2305   20.0908   42.8879 C   0  0  0  0  0  0  0  0  0  0  0  0
    0.9098   18.8343   40.8992 C   0  0  1  0  0  0  0  0  0  0  0  0
    0.5968   20.8894   40.2377 C   0  0  0  0  0  0  0  0  0  0  0  0
    3.1476   21.6133   37.7679 C   0  0  0  0  0  0  0  0  0  0  0  0
   -1.2070   15.2172   49.4029 C   0  0  0  0  0  0  0  0  0  0  0  0
   -0.0562   17.8067   44.4255 C   0  0  0  0  0  0  0  0  0  0  0  0
    1.6246   19.9531   40.0279 C   0  0  1  0  0  0  0  0  0  0  0  0
   -0.7273   20.0907   44.2352 C   0  0  0  0  0  0  0  0  0  0  0  0
   -1.0620   17.7571   47.0661 C   0  0  0  0  0  0  0  0  0  0  0  0
    3.0516   17.9494   37.2226 O   0  0  0  0  0  0  0  0  0  0  0  0
    1.7726   17.5682   40.7506 C   0  0  0  0  0  0  0  0  0  0  0  0
    2.9277   19.2436   36.6447 C   0  0  0  0  0  0  0  0  0  0  0  0
   -0.6106   18.9670   45.0134 C   0  0  0  0  0  0  0  0  0  0  0  0
   -0.5235   14.8563   50.3457 O   0  0  0  0  0  0  0  0  0  0  0  0
    4.2090   15.5623   38.5702 C   0  0  0  0  0  0  0  0  0  0  0  0
   -1.0453   18.9809   46.3830 N   0  0  0  0  0  0  0  0  0  0  0  0
   -2.1538   16.0120   49.3706 O   0  0  0  0  0  0  0  0  0  0  0  0
    0.4869   17.8242   43.2216 C   0  0  0  0  0  0  0  0  0  0  0  0
   -1.3029   15.4013   46.9364 O   0  0  0  0  0  0  0  0  0  0  0  0
    0.4376   18.9927   42.3032 C   0  0  0  0  0  0  0  0  0  0  0  0
   -0.6973   14.7361   48.1284 C   0  0  0  0  0  0  0  0  0  0  0  0
    2.3375   19.5343   38.9303 C   0  0  2  0  0  0  0  0  0  0  0  0
    3.2267   15.8886   39.4503 C   0  0  0  0  0  0  0  0  0  0  0  0
    1.5659   20.5690   37.3109 H   0  0  0  0  0  0  0  0  0  0  0  0
    1.9632   15.1353   41.0840 H   0  0  0  0  0  0  0  0  0  0  0  0
    3.1317   12.8953   41.1845 H   0  0  0  0  0  0  0  0  0  0  0  0
    5.4407   13.9900   37.7670 H   0  0  0  0  0  0  0  0  0  0  0  0
    3.2898   21.2055   40.0562 H   0  0  0  0  0  0  0  0  0  0  0  0
    3.6936   19.9265   40.8402 H   0  0  0  0  0  0  0  0  0  0  0  0
    3.6019   18.2334   38.9033 H   0  0  0  0  0  0  0  0  0  0  0  0
    0.0095   15.5585   44.7467 H   0  0  0  0  0  0  0  0  0  0  0  0
    4.7896   12.3165   39.4401 H   0  0  0  0  0  0  0  0  0  0  0  0
    1.4292   16.8563   38.8486 H   0  0  0  0  0  0  0  0  0  0  0  0
   -0.3784   20.9947   42.2788 H   0  0  0  0  0  0  0  0  0  0  0  0
   -0.1011   18.8512   40.4660 H   0  0  0  0  0  0  0  0  0  0  0  0
    0.4842   21.0748   41.3162 H   0  0  0  0  0  0  0  0  0  0  0  0
    0.8490   21.8311   39.7282 H   0  0  0  0  0  0  0  0  0  0  0  0
   -0.3469   20.4949   39.8330 H   0  0  0  0  0  0  0  0  0  0  0  0
    3.3069   21.8875   38.8212 H   0  0  0  0  0  0  0  0  0  0  0  0
    4.1110   21.6214   37.2371 H   0  0  0  0  0  0  0  0  0  0  0  0
    2.4649   22.3377   37.2997 H   0  0  0  0  0  0  0  0  0  0  0  0
   -1.2030   20.9941   44.6444 H   0  0  0  0  0  0  0  0  0  0  0  0
   -1.2480   17.7564   48.1503 H   0  0  0  0  0  0  0  0  0  0  0  0
    1.1600   16.7221   41.0951 H   0  0  0  0  0  0  0  0  0  0  0  0
    2.6753   17.8027   41.3337 H   0  0  0  0  0  0  0  0  0  0  0  0
    4.6033   16.3206   37.8777 H   0  0  0  0  0  0  0  0  0  0  0  0
    1.0076   16.9185   42.8771 H   0  0  0  0  0  0  0  0  0  0  0  0
   -0.8995   13.6570   48.0612 H   0  0  0  0  0  0  0  0  0  0  0  0
    0.3774   14.9705   48.1091 H   0  0  0  0  0  0  0  0  0  0  0  0
  1 15  1  0
  1 33  1  0
  2 23  2  0
  3  4  1  0
  5 26  2  0
  5 10  1  0
  7 21  1  0
  7 33  1  0
  7 11  1  0
  8 30  1  0
  8 20  1  0
  9  8  2  0
 10  4  2  0
 11 34  1  0
 11 22  1  0
 12 19  1  0
 13 31  1  0
 16 25  1  0
 17 24  1  0
 17  9  1  0
 18  6  1  0
 18 14  1  6
 18 13  1  0
 19 24  2  0
 22 13  1  0
 23 21  1  0
 23  1  1  0
 24 27  1  0
 26 34  1  0
 27 20  2  0
 28 16  2  0
 29 17  2  0
 30 32  1  0
 31 12  2  0
 31 29  1  0
 32 16  1  0
 33 18  1  0
 33  6  1  1
 34  3  2  0
  1 35  1  6
  3 36  1  0
  4 37  1  0
  5 38  1  0
  6 39  1  0
  6 40  1  0
  7 41  1  1
  9 42  1  0
 10 43  1  0
 11 44  1  6
 12 45  1  0
 13 46  1  6
 14 47  1  0
 14 48  1  0
 14 49  1  0
 15 50  1  0
 15 51  1  0
 15 52  1  0
 19 53  1  0
 20 54  1  0
 22 55  1  0
 22 56  1  0
 26 57  1  0
 29 58  1  0
 32 59  1  0
 32 60  1  0
M  CHG  1  25  -1
M  END
>  <mol_id>  (29) 
2026-08-23-6tgu-s0-n100-prep-0030

>  <rmsd_to_ref>  (29) 


$$$$

     RDKit          3D

 22 23  0  0  0  0  0  0  0  0999 V2000
   -0.1201   18.5624   42.0041 N   0  0  0  0  0  0  0  0  0  0  0  0
    2.8363   19.7456   38.1472 C   0  0  0  0  0  0  0  0  0  0  0  0
   -0.3796   16.7965   43.6119 C   0  0  0  0  0  0  0  0  0  0  0  0
    1.1332   19.7727   40.0046 C   0  0  0  0  0  0  0  0  0  0  0  0
    1.0549   17.9432   41.5708 C   0  0  0  0  0  0  0  0  0  0  0  0
    1.7068   20.3572   38.8270 C   0  0  0  0  0  0  0  0  0  0  0  0
    1.6771   18.6110   40.4293 C   0  0  0  0  0  0  0  0  0  0  0  0
    3.3698   18.5238   38.6887 C   0  0  0  0  0  0  0  0  0  0  0  0
   -0.7876   18.0350   42.9674 C   0  0  0  0  0  0  0  0  0  0  0  0
    1.5155   16.8142   42.1843 C   0  0  0  0  0  0  0  0  0  0  0  0
   -1.9160   18.5960   43.5842 N   0  0  0  0  0  0  0  0  0  0  0  0
    0.8176   16.1818   43.2067 N   0  0  0  0  0  0  0  0  0  0  0  0
    2.8675   18.0370   39.8166 C   0  0  0  0  0  0  0  0  0  0  0  0
    3.2704   20.2029   37.2458 H   0  0  0  0  0  0  0  0  0  0  0  0
   -0.9980   16.3484   44.4035 H   0  0  0  0  0  0  0  0  0  0  0  0
    0.2936   20.2460   40.5348 H   0  0  0  0  0  0  0  0  0  0  0  0
    1.2817   21.2903   38.4290 H   0  0  0  0  0  0  0  0  0  0  0  0
    4.1866   17.9982   38.1725 H   0  0  0  0  0  0  0  0  0  0  0  0
    2.4755   16.3884   41.8571 H   0  0  0  0  0  0  0  0  0  0  0  0
   -2.3855   18.0952   44.3522 H   0  0  0  0  0  0  0  0  0  0  0  0
   -2.2749   19.5086   43.2690 H   0  0  0  0  0  0  0  0  0  0  0  0
    3.3611   17.1807   40.2996 H   0  0  0  0  0  0  0  0  0  0  0  0
  1  9  1  0
  2  8  1  0
  2  6  2  0
  4  7  2  0
  5 10  1  0
  5  1  2  0
  6  4  1  0
  7  5  1  0
  8 13  2  0
  9  3  2  0
  9 11  1  0
 10 12  2  0
 12  3  1  0
 13  7  1  0
  2 14  1  0
  3 15  1  0
  4 16  1  0
  6 17  1  0
  8 18  1  0
 10 19  1  0
 11 20  1  0
 11 21  1  0
 13 22  1  0
M  END
>  <mol_id>  (30) 
2026-08-23-6tgu-s0-n100-prep-0031

>  <rmsd_to_ref>  (30) 


$$$$

     RDKit          3D

 29 29  0  0  0  0  0  0  0  0999 V2000
    3.7833   19.3868   36.4879 O   0  0  0  0  0  0  0  0  0  0  0  0
   -0.2302   18.7714   41.7800 C   0  0  1  0  0  0  0  0  0  0  0  0
   -1.0655   17.8121   42.6135 C   0  0  0  0  0  0  0  0  0  0  0  0
    0.9079   16.1452   41.8176 C   0  0  0  0  0  0  0  0  0  0  0  0
    0.6343   20.2425   39.4000 N   0  0  0  0  0  0  0  0  0  0  0  0
    1.2549   20.7669   38.3824 C   0  0  0  0  0  0  0  0  0  0  0  0
    2.4387   20.1768   38.0324 C   0  0  2  0  0  0  0  0  0  0  0  0
    2.8897   21.4319   36.3329 O   0  0  0  0  0  0  0  0  0  0  0  0
    3.1122   20.2708   36.8728 C   0  0  0  0  0  0  0  0  0  0  0  0
    2.7930   19.0835   39.4323 S   0  0  0  0  0  0  0  0  0  0  0  0
   -0.6189   20.1822   41.8373 C   0  0  0  0  0  0  0  0  0  0  0  0
    1.2408   19.2664   40.0407 C   0  0  1  0  0  0  0  0  0  0  0  0
    0.7138   18.4176   40.9957 C   0  0  1  0  0  0  0  0  0  0  0  0
    1.3689   17.0066   41.0365 C   0  0  0  0  0  0  0  0  0  0  0  0
   -1.9055   20.2876   42.4717 O   0  0  0  0  0  0  0  0  0  0  0  0
   -0.9073   18.6195   40.9266 H   0  0  0  0  0  0  0  0  0  0  0  0
   -0.8165   17.9385   43.6775 H   0  0  0  0  0  0  0  0  0  0  0  0
   -2.1333   18.0264   42.4589 H   0  0  0  0  0  0  0  0  0  0  0  0
   -0.8510   16.7777   42.3070 H   0  0  0  0  0  0  0  0  0  0  0  0
    1.3590   15.1427   41.8591 H   0  0  0  0  0  0  0  0  0  0  0  0
    0.0515   16.3899   42.4630 H   0  0  0  0  0  0  0  0  0  0  0  0
    0.8515   21.6326   37.8367 H   0  0  0  0  0  0  0  0  0  0  0  0
    2.9876   21.0471   38.4216 H   0  0  0  0  0  0  0  0  0  0  0  0
    0.1258   20.7468   42.4176 H   0  0  0  0  0  0  0  0  0  0  0  0
   -0.6715   20.5951   40.8191 H   0  0  0  0  0  0  0  0  0  0  0  0
    0.8651   18.5462   39.2990 H   0  0  0  0  0  0  0  0  0  0  0  0
   -0.0240   18.0539   40.2652 H   0  0  0  0  0  0  0  0  0  0  0  0
    2.2251   16.7702   40.3877 H   0  0  0  0  0  0  0  0  0  0  0  0
   -1.8109   20.1108   43.4412 H   0  0  0  0  0  0  0  0  0  0  0  0
  1  9  1  0
  2  3  1  0
  5 12  1  0
  6  5  2  0
  7  9  1  0
  7  6  1  0
  7 10  1  0
  8  9  2  0
 10 12  1  0
 11  2  1  0
 11 15  1  0
 12 13  1  0
 13 14  1  0
 13  2  1  0
 14  4  2  3
  2 16  1  1
  3 17  1  0
  3 18  1  0
  3 19  1  0
  4 20  1  0
  4 21  1  0
  6 22  1  0
  7 23  1  1
 11 24  1  0
 11 25  1  0
 12 26  1  1
 13 27  1  6
 14 28  1  0
 15 29  1  0
M  CHG  1   1  -1
M  END
>  <mol_id>  (31) 
2026-08-23-6tgu-s0-n100-prep-0032

>  <rmsd_to_ref>  (31) 


$$$$

     RDKit          3D

 23 24  0  0  0  0  0  0  0  0999 V2000
    0.0177   17.7494   43.1839 C   0  0  0  0  0  0  0  0  0  0  0  0
    1.9813   20.0113   40.8850 C   0  0  0  0  0  0  0  0  0  0  0  0
    3.5030   19.3499   38.8854 C   0  0  0  0  0  0  0  0  0  0  0  0
    0.3438   15.4845   42.3421 C   0  0  0  0  0  0  0  0  0  0  0  0
    1.0899   15.8672   41.2845 C   0  0  0  0  0  0  0  0  0  0  0  0
    2.1493   21.0265   38.0104 O   0  0  0  0  0  0  0  0  0  0  0  0
    2.5014   18.9883   39.9620 C   0  0  0  0  0  0  0  0  0  0  0  0
    1.3304   17.2599   41.1529 C   0  0  0  0  0  0  0  0  0  0  0  0
   -1.0937   14.9728   43.9009 Cl  0  0  0  0  0  0  0  0  0  0  0  0
    1.1864   19.6211   41.9207 C   0  0  0  0  0  0  0  0  0  0  0  0
    2.9030   20.0313   37.7046 C   0  0  0  0  0  0  0  0  0  0  0  0
    3.2036   19.8549   36.5281 O   0  0  0  0  0  0  0  0  0  0  0  0
   -0.4377   16.3469   43.2134 C   0  0  0  0  0  0  0  0  0  0  0  0
    0.8731   18.1926   42.1515 C   0  0  0  0  0  0  0  0  0  0  0  0
    2.1358   17.6841   40.0822 C   0  0  0  0  0  0  0  0  0  0  0  0
   -0.3091   18.4503   43.9662 H   0  0  0  0  0  0  0  0  0  0  0  0
    2.2304   21.0729   40.7406 H   0  0  0  0  0  0  0  0  0  0  0  0
    4.2570   20.0194   39.3250 H   0  0  0  0  0  0  0  0  0  0  0  0
    3.9352   18.4056   38.5226 H   0  0  0  0  0  0  0  0  0  0  0  0
    0.3250   14.4082   42.5683 H   0  0  0  0  0  0  0  0  0  0  0  0
    1.4900   15.1393   40.5634 H   0  0  0  0  0  0  0  0  0  0  0  0
    0.7698   20.3815   42.5977 H   0  0  0  0  0  0  0  0  0  0  0  0
    2.4740   16.9531   39.3331 H   0  0  0  0  0  0  0  0  0  0  0  0
  1 13  2  0
  2 10  1  0
  3  7  1  0
  4 13  1  0
  5  4  2  0
  7 15  1  0
  7  2  2  0
  8  5  1  0
  8 14  1  0
 10 14  2  0
 11  6  1  0
 11  3  1  0
 12 11  2  0
 13  9  1  0
 14  1  1  0
 15  8  2  0
  1 16  1  0
  2 17  1  0
  3 18  1  0
  3 19  1  0
  4 20  1  0
  5 21  1  0
 10 22  1  0
 15 23  1  0
M  CHG  1   6  -1
M  END
>  <mol_id>  (32) 
2026-08-23-6tgu-s0-n100-prep-0033

>  <rmsd_to_ref>  (32) 


$$$$

     RDKit          3D

 25 27  0  0  0  0  0  0  0  0999 V2000
    3.5452   19.9810   36.6370 O   0  0  0  0  0  0  0  0  0  0  0  0
    1.2703   20.1380   39.4097 C   0  0  0  0  0  0  0  0  0  0  0  0
    1.9633   16.5740   40.8939 C   0  0  0  0  0  0  0  0  0  0  0  0
    0.0311   14.7000   43.1350 O   0  0  0  0  0  0  0  0  0  0  0  0
    3.1125   19.4903   37.8462 C   0  0  0  0  0  0  0  0  0  0  0  0
    3.1784   17.5246   39.1821 C   0  0  0  0  0  0  0  0  0  0  0  0
    0.9222   16.4993   41.6759 C   0  0  0  0  0  0  0  0  0  0  0  0
    0.3944   19.0188   41.2494 C   0  0  0  0  0  0  0  0  0  0  0  0
    0.0214   15.8937   42.7650 C   0  0  0  0  0  0  0  0  0  0  0  0
    2.1995   20.2737   38.4529 C   0  0  0  0  0  0  0  0  0  0  0  0
    2.2419   17.8347   40.0318 C   0  0  0  0  0  0  0  0  0  0  0  0
   -0.4133   16.9810   43.1125 C   0  0  0  0  0  0  0  0  0  0  0  0
    3.6110   18.2574   38.1777 C   0  0  0  0  0  0  0  0  0  0  0  0
    1.3375   18.9427   40.1464 C   0  0  1  0  0  0  0  0  0  0  0  0
    0.0563   17.9911   42.1170 C   0  0  0  0  0  0  0  0  0  0  0  0
    3.2328   20.8658   36.3216 H   0  0  0  0  0  0  0  0  0  0  0  0
    0.5089   20.9077   39.6046 H   0  0  0  0  0  0  0  0  0  0  0  0
    2.6600   15.7242   40.8441 H   0  0  0  0  0  0  0  0  0  0  0  0
    3.6598   16.5449   39.3182 H   0  0  0  0  0  0  0  0  0  0  0  0
   -0.1003   19.9877   41.4122 H   0  0  0  0  0  0  0  0  0  0  0  0
    2.2228   21.2997   38.0570 H   0  0  0  0  0  0  0  0  0  0  0  0
   -1.5128   16.9569   43.1330 H   0  0  0  0  0  0  0  0  0  0  0  0
   -0.0568   17.2364   44.1213 H   0  0  0  0  0  0  0  0  0  0  0  0
    4.4283   17.8526   37.5627 H   0  0  0  0  0  0  0  0  0  0  0  0
    2.0178   19.4236   40.8646 H   0  0  0  0  0  0  0  0  0  0  0  0
  1  5  1  0
  3  7  2  0
  5 13  2  0
  5 10  1  0
  6 11  2  0
  7 15  1  0
  7  9  1  0
  8 15  2  0
  9 12  1  0
  9  4  2  0
 10  2  2  0
 11 14  1  0
 11  3  1  0
 13  6  1  0
 14  2  1  0
 14  8  1  0
 15 12  1  0
  1 16  1  0
  2 17  1  0
  3 18  1  0
  6 19  1  0
  8 20  1  0
 10 21  1  0
 12 22  1  0
 12 23  1  0
 13 24  1  0
 14 25  1  6
M  END
>  <mol_id>  (33) 
2026-08-23-6tgu-s0-n100-prep-0034

>  <rmsd_to_ref>  (33) 


$$$$

     RDKit          3D

 35 37  0  0  0  0  0  0  0  0999 V2000
    3.8669   16.2549   37.7391 O   0  0  0  0  0  0  0  0  0  0  0  0
    2.8661   18.6222   38.4899 C   0  0  0  0  0  0  0  0  0  0  0  0
    3.3687   14.9966   39.4593 C   0  0  0  0  0  0  0  0  0  0  0  0
    2.0488   17.8002   40.6180 N   0  0  0  0  0  0  0  0  0  0  0  0
    0.4738   19.4348   41.5129 C   0  0  0  0  0  0  0  0  0  0  0  0
    4.2729   15.0063   37.4750 N   0  0  0  0  0  0  0  0  0  0  0  0
    2.4210   20.9601   37.8339 C   0  0  0  0  0  0  0  0  0  0  0  0
    2.7539   14.4317   40.7446 C   0  0  0  0  0  0  0  0  0  0  0  0
    3.0988   20.7715   36.6466 C   0  0  0  0  0  0  0  0  0  0  0  0
   -1.3484   18.6049   42.8088 C   0  0  0  0  0  0  0  0  0  0  0  0
    3.6595   19.5909   36.3712 N   0  0  0  0  0  0  0  0  0  0  0  0
    2.7464   17.5751   39.5248 C   0  0  1  0  0  0  0  0  0  0  0  0
   -0.7234   19.6746   42.3426 C   0  0  0  0  0  0  0  0  0  0  0  0
   -1.2253   20.9579   42.4667 O   0  0  0  0  0  0  0  0  0  0  0  0
    2.2297   19.8417   38.7507 C   0  0  0  0  0  0  0  0  0  0  0  0
    0.3940   17.0827   42.1465 C   0  0  0  0  0  0  0  0  0  0  0  0
   -0.7969   17.2950   42.8931 C   0  0  0  0  0  0  0  0  0  0  0  0
    3.4891   18.5354   37.2726 C   0  0  0  0  0  0  0  0  0  0  0  0
    0.9767   18.0566   41.4447 C   0  0  0  0  0  0  0  0  0  0  0  0
    3.2561   16.3103   38.9223 C   0  0  0  0  0  0  0  0  0  0  0  0
    3.9912   14.1794   38.5181 N   0  0  0  0  0  0  0  0  0  0  0  0
    2.8025   17.7547   41.3185 H   0  0  0  0  0  0  0  0  0  0  0  0
    0.9681   20.2533   40.9691 H   0  0  0  0  0  0  0  0  0  0  0  0
    2.0249   21.9542   38.0889 H   0  0  0  0  0  0  0  0  0  0  0  0
    3.3318   14.7823   41.6123 H   0  0  0  0  0  0  0  0  0  0  0  0
    1.7127   14.7748   40.8347 H   0  0  0  0  0  0  0  0  0  0  0  0
    2.7760   13.3325   40.7093 H   0  0  0  0  0  0  0  0  0  0  0  0
    3.1776   21.5970   35.9239 H   0  0  0  0  0  0  0  0  0  0  0  0
   -2.3818   18.7395   43.1609 H   0  0  0  0  0  0  0  0  0  0  0  0
    3.1442   17.4577   40.5437 H   0  0  0  0  0  0  0  0  0  0  0  0
   -2.0279   21.1239   43.0219 H   0  0  0  0  0  0  0  0  0  0  0  0
    1.5911   19.9554   39.6390 H   0  0  0  0  0  0  0  0  0  0  0  0
    0.8506   16.0819   42.1473 H   0  0  0  0  0  0  0  0  0  0  0  0
   -1.2612   16.5005   43.4956 H   0  0  0  0  0  0  0  0  0  0  0  0
    3.8888   17.5533   36.9799 H   0  0  0  0  0  0  0  0  0  0  0  0
  1 20  1  0
  2 15  1  0
  2 12  1  0
  3  8  1  0
  4 19  1  0
  5 19  1  0
  5 13  2  0
  6  1  1  0
  6 21  2  0
  7 15  2  0
  9  7  1  0
 10 17  2  0
 11  9  2  0
 11 18  1  0
 12  4  1  0
 13 14  1  0
 13 10  1  0
 16 17  1  0
 18  2  2  0
 19 16  2  0
 20 12  1  0
 20  3  2  0
 21  3  1  0
  4 22  1  0
  5 23  1  0
  7 24  1  0
  8 25  1  0
  8 26  1  0
  8 27  1  0
  9 28  1  0
 10 29  1  0
 12 30  1  1
 14 31  1  0
 15 32  1  0
 16 33  1  0
 17 34  1  0
 18 35  1  0
M  END
>  <mol_id>  (34) 
2026-08-23-6tgu-s0-n100-prep-0035

>  <rmsd_to_ref>  (34) 


$$$$

     RDKit          3D

 46 49  0  0  0  0  0  0  0  0999 V2000
    0.9588   16.5373   41.4220 C   0  0  0  0  0  0  0  0  0  0  0  0
    0.2696   11.0401   45.1662 C   0  0  0  0  0  0  0  0  0  0  0  0
    1.1331   21.1303   39.3244 C   0  0  0  0  0  0  0  0  0  0  0  0
    3.0874   19.4543   37.8185 C   0  0  0  0  0  0  0  0  0  0  0  0
    0.8387   11.8177   43.0087 C   0  0  0  0  0  0  0  0  0  0  0  0
   -1.2071   17.9086   42.9613 C   0  0  0  0  0  0  0  0  0  0  0  0
    2.5229   17.8029   39.8279 C   0  0  0  0  0  0  0  0  0  0  0  0
   -0.4672   19.0359   42.4549 C   0  0  0  0  0  0  0  0  0  0  0  0
    3.9748   21.2806   35.6651 O   0  0  0  0  0  0  0  0  0  0  0  0
   -0.2551   12.2298   45.4570 N   0  0  0  0  0  0  0  0  0  0  0  0
    0.3639   13.1818   43.3586 C   0  0  0  0  0  0  0  0  0  0  0  0
   -0.1737   13.2664   44.6574 C   0  0  0  0  0  0  0  0  0  0  0  0
    2.5290   20.6939   37.2985 C   0  0  0  0  0  0  0  0  0  0  0  0
    1.9850   22.2122   35.4981 O   0  0  0  0  0  0  0  0  0  0  0  0
    0.7713   10.6824   43.9164 C   0  0  0  0  0  0  0  0  0  0  0  0
    1.6860   20.0977   39.2462 C   0  0  1  0  0  0  0  0  0  0  0  0
    2.8454   21.3711   36.1258 C   0  0  0  0  0  0  0  0  0  0  0  0
    1.4105   17.8076   40.9398 C   0  0  0  0  0  0  0  0  0  0  0  0
    0.7075   18.9132   41.6481 C   0  0  0  0  0  0  0  0  0  0  0  0
    0.2450   15.7286   42.2404 C   0  0  2  0  0  0  0  0  0  0  0  0
    1.5937   21.1814   38.0772 C   0  0  1  0  0  0  0  0  0  0  0  0
    2.4610   19.0290   39.0121 C   0  0  2  0  0  0  0  0  0  0  0  0
   -0.8157   16.4891   43.0369 C   0  0  0  0  0  0  0  0  0  0  0  0
    0.4648   14.2631   42.4482 N   0  0  0  0  0  0  0  0  0  0  0  0
    4.1674   18.5147   37.1414 C   0  0  0  0  0  0  0  0  0  0  0  0
    1.4789   15.8252   40.7644 H   0  0  0  0  0  0  0  0  0  0  0  0
    0.3095   10.2884   45.9682 H   0  0  0  0  0  0  0  0  0  0  0  0
    0.0400   21.0934   39.4423 H   0  0  0  0  0  0  0  0  0  0  0  0
    1.2865   21.8907   40.1042 H   0  0  0  0  0  0  0  0  0  0  0  0
    1.2650   11.6572   42.0075 H   0  0  0  0  0  0  0  0  0  0  0  0
   -2.2104   18.1405   43.3479 H   0  0  0  0  0  0  0  0  0  0  0  0
    3.5107   17.7399   40.3078 H   0  0  0  0  0  0  0  0  0  0  0  0
    2.3573   16.9365   39.1708 H   0  0  0  0  0  0  0  0  0  0  0  0
   -0.8249   20.0462   42.7022 H   0  0  0  0  0  0  0  0  0  0  0  0
   -0.5397   14.2400   45.0154 H   0  0  0  0  0  0  0  0  0  0  0  0
    1.0801    9.6614   43.6475 H   0  0  0  0  0  0  0  0  0  0  0  0
    0.7590   19.6287   38.8847 H   0  0  0  0  0  0  0  0  0  0  0  0
    1.2204   19.8776   41.5181 H   0  0  0  0  0  0  0  0  0  0  0  0
   -0.4494   15.5076   41.4163 H   0  0  0  0  0  0  0  0  0  0  0  0
    1.2994   21.9354   37.3324 H   0  0  0  0  0  0  0  0  0  0  0  0
    3.2702   19.4870   39.6000 H   0  0  0  0  0  0  0  0  0  0  0  0
   -1.3681   15.8889   43.7749 H   0  0  0  0  0  0  0  0  0  0  0  0
    0.8458   13.8853   41.5689 H   0  0  0  0  0  0  0  0  0  0  0  0
    4.6514   17.8973   37.9126 H   0  0  0  0  0  0  0  0  0  0  0  0
    3.6757   17.8625   36.4047 H   0  0  0  0  0  0  0  0  0  0  0  0
    4.9254   19.1317   36.6368 H   0  0  0  0  0  0  0  0  0  0  0  0
  1 20  1  0
  2 10  2  0
  4 22  1  0
  5 11  1  0
  5 15  2  0
  6 23  2  0
  7 18  1  0
  8  6  1  0
  9 17  2  0
 11 12  2  0
 12 10  1  0
 13  4  2  0
 13 21  1  0
 14 17  1  0
 15  2  1  0
 16  3  1  0
 17 13  1  0
 18  1  2  0
 18 19  1  0
 19  8  2  0
 20 24  1  0
 20 23  1  0
 21 16  1  0
 21  3  1  0
 22 16  1  0
 22  7  1  0
 24 11  1  0
 25  4  1  0
  1 26  1  0
  2 27  1  0
  3 28  1  0
  3 29  1  0
  5 30  1  0
  6 31  1  0
  7 32  1  0
  7 33  1  0
  8 34  1  0
 12 35  1  0
 15 36  1  0
 16 37  1  6
 19 38  1  0
 20 39  1  6
 21 40  1  6
 22 41  1  1
 23 42  1  0
 24 43  1  0
 25 44  1  0
 25 45  1  0
 25 46  1  0
M  CHG  1  14  -1
M  END
>  <mol_id>  (35) 
2026-08-23-6tgu-s0-n100-prep-0036

>  <rmsd_to_ref>  (35) 


$$$$

     RDKit          3D

 69 74  0  0  0  0  0  0  0  0999 V2000
    1.6305   16.3054   40.6536 C   0  0  0  0  0  0  0  0  0  0  0  0
   -0.5407   12.2578   45.7099 C   0  0  0  0  0  0  0  0  0  0  0  0
    3.0187   17.6968   38.3045 C   0  0  0  0  0  0  0  0  0  0  0  0
    0.2780   15.4454   43.7145 C   0  0  0  0  0  0  0  0  0  0  0  0
    5.3618   14.0606   37.1822 C   0  0  0  0  0  0  0  0  0  0  0  0
    3.6547   15.7889   37.2571 C   0  0  0  0  0  0  0  0  0  0  0  0
    0.6215   19.8622   41.1692 C   0  0  0  0  0  0  0  0  0  0  0  0
   -0.1879   20.8893   41.8274 C   0  0  0  0  0  0  0  0  0  0  0  0
    3.7597   19.0995   36.2358 N   0  0  0  0  0  0  0  0  0  0  0  0
    2.4505   20.0547   37.7323 C   0  0  0  0  0  0  0  0  0  0  0  0
   -2.5081   17.8468   44.8897 N   0  0  0  0  0  0  0  0  0  0  0  0
   -1.2052   17.1333   44.9351 C   0  0  1  0  0  0  0  0  0  0  0  0
   -0.1541   14.5459   44.7195 C   0  0  0  0  0  0  0  0  0  0  0  0
    3.8164   20.8500   34.5118 C   0  0  0  0  0  0  0  0  0  0  0  0
    1.3507   20.1132   39.9763 C   0  0  0  0  0  0  0  0  0  0  0  0
    0.8162   18.6005   41.8532 C   0  0  0  0  0  0  0  0  0  0  0  0
    1.2331   14.9464   42.7476 C   0  0  0  0  0  0  0  0  0  0  0  0
    0.8387   12.6009   43.5321 C   0  0  0  0  0  0  0  0  0  0  0  0
    3.4326   20.2151   35.7238 C   0  0  0  0  0  0  0  0  0  0  0  0
    3.0810   18.9276   37.4794 C   0  0  1  0  0  0  0  0  0  0  0  0
    2.0864   22.4532   34.9560 C   0  0  0  0  0  0  0  0  0  0  0  0
    1.9444   17.6949   41.2171 C   0  0  1  0  0  0  0  0  0  0  0  0
    4.0706   14.5282   37.6928 O   0  0  0  0  0  0  0  0  0  0  0  0
    0.2109   18.7246   46.0169 N   0  0  0  0  0  0  0  0  0  0  0  0
   -0.3712   16.9170   43.6873 C   0  0  1  0  0  0  0  0  0  0  0  0
    1.8377   21.8109   36.1786 C   0  0  0  0  0  0  0  0  0  0  0  0
   -0.7500   19.4083   43.6998 N   0  0  0  0  0  0  0  0  0  0  0  0
   -0.8034   20.7453   43.0560 C   0  0  0  0  0  0  0  0  0  0  0  0
   -0.4732   16.9233   47.1727 O   0  0  0  0  0  0  0  0  0  0  0  0
    3.1509   22.0149   34.1579 C   0  0  0  0  0  0  0  0  0  0  0  0
    1.8319   20.2027   38.9503 C   0  0  0  0  0  0  0  0  0  0  0  0
    2.7749   16.4155   38.0087 N   0  0  0  0  0  0  0  0  0  0  0  0
   -0.4805   17.6362   46.1366 C   0  0  0  0  0  0  0  0  0  0  0  0
   -0.0086   18.2640   42.9863 C   0  0  0  0  0  0  0  0  0  0  0  0
    0.0943   13.1444   44.6057 C   0  0  0  0  0  0  0  0  0  0  0  0
    2.0011   16.2517   42.1328 C   0  0  2  0  0  0  0  0  0  0  0  0
    1.4170   13.5596   42.6173 C   0  0  0  0  0  0  0  0  0  0  0  0
    4.2148   16.2224   36.2274 O   0  0  0  0  0  0  0  0  0  0  0  0
    2.5443   20.7867   36.5726 C   0  0  0  0  0  0  0  0  0  0  0  0
    0.5947   16.0773   40.3617 H   0  0  0  0  0  0  0  0  0  0  0  0
    2.0315   15.7657   39.7831 H   0  0  0  0  0  0  0  0  0  0  0  0
   -0.2338   12.6281   46.6992 H   0  0  0  0  0  0  0  0  0  0  0  0
   -1.6368   12.2980   45.6272 H   0  0  0  0  0  0  0  0  0  0  0  0
   -0.2015   11.2187   45.5859 H   0  0  0  0  0  0  0  0  0  0  0  0
    4.0073   17.6629   38.7855 H   0  0  0  0  0  0  0  0  0  0  0  0
    2.0328   17.9033   38.7467 H   0  0  0  0  0  0  0  0  0  0  0  0
    6.0355   13.8504   38.0260 H   0  0  0  0  0  0  0  0  0  0  0  0
    5.2131   13.1429   36.5943 H   0  0  0  0  0  0  0  0  0  0  0  0
    5.8064   14.8375   36.5429 H   0  0  0  0  0  0  0  0  0  0  0  0
   -0.3156   21.8485   41.3041 H   0  0  0  0  0  0  0  0  0  0  0  0
   -2.8193   18.0545   45.8493 H   0  0  0  0  0  0  0  0  0  0  0  0
   -2.3995   18.7269   44.3659 H   0  0  0  0  0  0  0  0  0  0  0  0
   -3.2084   17.2533   44.4225 H   0  0  0  0  0  0  0  0  0  0  0  0
   -1.4578   16.0653   45.0100 H   0  0  0  0  0  0  0  0  0  0  0  0
   -0.6884   14.9324   45.5999 H   0  0  0  0  0  0  0  0  0  0  0  0
    4.6122   20.4331   33.8771 H   0  0  0  0  0  0  0  0  0  0  0  0
    0.9692   11.5165   43.4015 H   0  0  0  0  0  0  0  0  0  0  0  0
    3.9660   19.3027   38.0142 H   0  0  0  0  0  0  0  0  0  0  0  0
    1.4531   23.2908   34.6284 H   0  0  0  0  0  0  0  0  0  0  0  0
    2.5610   18.5149   40.8202 H   0  0  0  0  0  0  0  0  0  0  0  0
    0.7241   19.1005   46.8269 H   0  0  0  0  0  0  0  0  0  0  0  0
    0.2476   19.2145   45.1115 H   0  0  0  0  0  0  0  0  0  0  0  0
   -0.6014   16.6738   42.6395 H   0  0  0  0  0  0  0  0  0  0  0  0
    1.0256   22.1804   36.8220 H   0  0  0  0  0  0  0  0  0  0  0  0
   -1.3146   21.5907   43.5397 H   0  0  0  0  0  0  0  0  0  0  0  0
    3.4538   22.5840   33.2665 H   0  0  0  0  0  0  0  0  0  0  0  0
    1.9310   15.9376   38.3557 H   0  0  0  0  0  0  0  0  0  0  0  0
    2.6064   16.1865   43.0490 H   0  0  0  0  0  0  0  0  0  0  0  0
    2.0281   13.1866   41.7821 H   0  0  0  0  0  0  0  0  0  0  0  0
  4 13  1  0
  5 23  1  0
  6 23  1  0
  6 32  1  0
  7  8  2  0
  7 16  1  0
  8 28  1  0
  9 20  1  0
 10 31  1  0
 12 11  1  0
 12 33  1  0
 14 19  1  0
 15  7  1  0
 16 34  2  0
 17  4  2  0
 18 35  1  0
 19  9  2  0
 19 39  1  0
 20 10  1  0
 20  3  1  0
 21 26  2  0
 22  1  1  0
 22 16  1  0
 22 36  1  0
 24 33  1  0
 25  4  1  0
 25 12  1  0
 26 39  1  0
 28 27  2  0
 30 14  2  0
 30 21  1  0
 31 15  3  0
 32  3  1  0
 33 29  2  0
 34 25  1  0
 34 27  1  0
 35 13  2  0
 35  2  1  0
 36  1  1  0
 36 17  1  0
 37 17  1  0
 37 18  2  0
 38  6  2  0
 39 10  2  0
  1 40  1  0
  1 41  1  0
  2 42  1  0
  2 43  1  0
  2 44  1  0
  3 45  1  0
  3 46  1  0
  5 47  1  0
  5 48  1  0
  5 49  1  0
  8 50  1  0
 11 51  1  0
 11 52  1  0
 11 53  1  0
 12 54  1  1
 13 55  1  0
 14 56  1  0
 18 57  1  0
 20 58  1  1
 21 59  1  0
 22 60  1  6
 24 61  1  0
 24 62  1  0
 25 63  1  6
 26 64  1  0
 28 65  1  0
 30 66  1  0
 32 67  1  0
 36 68  1  6
 37 69  1  0
M  CHG  1  11   1
M  END
>  <mol_id>  (36) 
2026-08-23-6tgu-s0-n100-prep-0037

>  <rmsd_to_ref>  (36) 


$$$$

     RDKit          3D

 26 27  0  0  0  0  0  0  0  0999 V2000
    0.2678   18.5544   42.3109 C   0  0  0  0  0  0  0  0  0  0  0  0
    0.3514   19.8976   42.6620 N   0  0  0  0  0  0  0  0  0  0  0  0
    2.1396   18.6344   40.5448 C   0  0  0  0  0  0  0  0  0  0  0  0
    1.2348   17.8224   41.4377 C   0  0  1  0  0  0  0  0  0  0  0  0
    2.0734   20.0292   40.2340 C   0  0  0  0  0  0  0  0  0  0  0  0
    3.1538   19.9733   37.8060 C   0  0  0  0  0  0  0  0  0  0  0  0
    1.3279   16.3310   41.4766 C   0  0  0  0  0  0  0  0  0  0  0  0
    2.6224   20.5805   38.9345 C   0  0  0  0  0  0  0  0  0  0  0  0
    0.9747   20.9111   42.2620 C   0  0  0  0  0  0  0  0  0  0  0  0
    2.9754   17.8140   39.7981 O   0  0  0  0  0  0  0  0  0  0  0  0
    1.0528   15.2967   42.2066 C   0  0  0  0  0  0  0  0  0  0  0  0
    3.3529   18.5444   37.4467 C   0  0  0  0  0  0  0  0  0  0  0  0
    1.7273   21.0398   41.1548 C   0  0  0  0  0  0  0  0  0  0  0  0
    2.8657   17.5369   38.3868 C   0  0  0  0  0  0  0  0  0  0  0  0
   -0.6998   17.8437   42.8218 O   0  0  0  0  0  0  0  0  0  0  0  0
    0.4947   17.7551   40.6266 H   0  0  0  0  0  0  0  0  0  0  0  0
    3.4904   20.6803   37.0334 H   0  0  0  0  0  0  0  0  0  0  0  0
    1.8031   15.9860   40.5465 H   0  0  0  0  0  0  0  0  0  0  0  0
    2.5944   21.6785   38.8736 H   0  0  0  0  0  0  0  0  0  0  0  0
    0.8954   21.8062   42.8966 H   0  0  0  0  0  0  0  0  0  0  0  0
    1.3023   14.2876   41.8469 H   0  0  0  0  0  0  0  0  0  0  0  0
    0.5698   15.4275   43.1861 H   0  0  0  0  0  0  0  0  0  0  0  0
    3.8485   18.2562   36.5080 H   0  0  0  0  0  0  0  0  0  0  0  0
    2.6889   21.4366   41.5123 H   0  0  0  0  0  0  0  0  0  0  0  0
    1.0219   21.6085   40.5311 H   0  0  0  0  0  0  0  0  0  0  0  0
    2.4276   16.5939   38.0282 H   0  0  0  0  0  0  0  0  0  0  0  0
  1  2  1  0
  1 15  2  0
  3  4  1  0
  4  7  1  0
  4  1  1  0
  5  3  2  0
  5 13  1  0
  6  8  2  0
  7 11  2  3
  8  5  1  0
  9  2  2  0
 10  3  1  0
 12  6  1  0
 12 14  2  0
 13  9  1  0
 14 10  1  0
  4 16  1  6
  6 17  1  0
  7 18  1  0
  8 19  1  0
  9 20  1  0
 11 21  1  0
 11 22  1  0
 12 23  1  0
 13 24  1  0
 13 25  1  0
 14 26  1  0
M  END
>  <mol_id>  (37) 
2026-08-23-6tgu-s0-n100-prep-0038

>  <rmsd_to_ref>  (37) 


$$$$

     RDKit          3D

 32 35  0  0  0  0  0  0  0  0999 V2000
    3.1104   15.8026   39.9238 C   0  0  0  0  0  0  0  0  0  0  0  0
    1.5156   16.3722   41.7295 C   0  0  0  0  0  0  0  0  0  0  0  0
    2.8245   18.3116   38.7189 C   0  0  0  0  0  0  0  0  0  0  0  0
    0.6082   17.4472   42.3188 C   0  0  0  0  0  0  0  0  0  0  0  0
    1.3692   20.4674   40.0069 C   0  0  0  0  0  0  0  0  0  0  0  0
    3.3749   19.7393   36.8000 C   0  0  0  0  0  0  0  0  0  0  0  0
    2.7445   19.6187   38.1302 C   0  0  0  0  0  0  0  0  0  0  0  0
   -0.1388   19.7495   42.4120 C   0  0  0  0  0  0  0  0  0  0  0  0
    2.2323   18.1058   39.9742 C   0  0  0  0  0  0  0  0  0  0  0  0
   -0.9987   18.2997   43.9812 C   0  0  0  0  0  0  0  0  0  0  0  0
    2.0521   20.6378   38.8128 C   0  0  0  0  0  0  0  0  0  0  0  0
    3.4601   17.3303   38.1255 O   0  0  0  0  0  0  0  0  0  0  0  0
    3.1443   14.4784   40.5098 C   0  0  0  0  0  0  0  0  0  0  0  0
    2.2509   16.7617   40.5748 C   0  0  0  0  0  0  0  0  0  0  0  0
   -0.2385   17.2184   43.4573 C   0  0  0  0  0  0  0  0  0  0  0  0
    3.3308   20.7107   36.1284 O   0  0  0  0  0  0  0  0  0  0  0  0
    1.4324   19.1165   40.6211 C   0  0  0  0  0  0  0  0  0  0  0  0
    0.6452   18.7905   41.8239 C   0  0  0  0  0  0  0  0  0  0  0  0
    1.6353   15.1246   42.2186 C   0  0  0  0  0  0  0  0  0  0  0  0
    2.4238   14.1265   41.5937 C   0  0  0  0  0  0  0  0  0  0  0  0
   -0.9399   19.5054   43.5117 N   0  0  0  0  0  0  0  0  0  0  0  0
    3.7047   16.0617   39.0351 H   0  0  0  0  0  0  0  0  0  0  0  0
    0.8094   21.2902   40.4755 H   0  0  0  0  0  0  0  0  0  0  0  0
    3.9210   18.8682   36.4090 H   0  0  0  0  0  0  0  0  0  0  0  0
   -0.1299   20.7641   41.9872 H   0  0  0  0  0  0  0  0  0  0  0  0
   -1.6714   18.1022   44.8288 H   0  0  0  0  0  0  0  0  0  0  0  0
    2.0534   21.6427   38.3653 H   0  0  0  0  0  0  0  0  0  0  0  0
    3.8781   17.4751   37.2398 H   0  0  0  0  0  0  0  0  0  0  0  0
    3.7920   13.7198   40.0460 H   0  0  0  0  0  0  0  0  0  0  0  0
   -0.2976   16.2208   43.9170 H   0  0  0  0  0  0  0  0  0  0  0  0
    1.0979   14.8682   43.1435 H   0  0  0  0  0  0  0  0  0  0  0  0
    2.4474   13.0972   41.9807 H   0  0  0  0  0  0  0  0  0  0  0  0
  1 14  2  0
  1 13  1  0
  2  4  1  0
  2 19  2  0
  3  9  2  0
  4 15  2  0
  5 17  2  0
  6  7  1  0
  7 11  2  0
  7  3  1  0
  8 21  1  0
  9 17  1  0
  9 14  1  0
 11  5  1  0
 12  3  1  0
 13 20  2  0
 14  2  1  0
 15 10  1  0
 16  6  2  0
 17 18  1  0
 18  8  2  0
 18  4  1  0
 20 19  1  0
 21 10  2  0
  1 22  1  0
  5 23  1  0
  6 24  1  0
  8 25  1  0
 10 26  1  0
 11 27  1  0
 12 28  1  0
 13 29  1  0
 15 30  1  0
 19 31  1  0
 20 32  1  0
M  END
>  <mol_id>  (38) 
2026-08-23-6tgu-s0-n100-prep-0039

>  <rmsd_to_ref>  (38) 


$$$$

     RDKit          3D

 50 54  0  0  0  0  0  0  0  0999 V2000
    1.5260   16.0145   42.8946 C   0  0  0  0  0  0  0  0  0  0  0  0
    3.8218   15.8297   38.5923 O   0  0  0  0  0  0  0  0  0  0  0  0
    1.9029   16.3528   41.4967 C   0  0  0  0  0  0  0  0  0  0  0  0
    0.5773   18.8327   42.4948 C   0  0  0  0  0  0  0  0  0  0  0  0
    3.3117   20.7425   37.2572 C   0  0  1  0  0  0  0  0  0  0  0  0
    1.3439   18.8291   41.3448 C   0  0  0  0  0  0  0  0  0  0  0  0
    2.3551   20.8300   38.2881 N   0  0  0  0  0  0  0  0  0  0  0  0
    2.2908   19.9861   39.3488 C   0  0  0  0  0  0  0  0  0  0  0  0
   -0.2881   17.7427   43.1747 C   0  0  2  0  0  0  0  0  0  0  0  0
   -0.2353   13.8207   46.4254 C   0  0  0  0  0  0  0  0  0  0  0  0
    2.7605   22.0809   35.4944 O   0  0  0  0  0  0  0  0  0  0  0  0
   -0.2544   15.6708   44.7466 C   0  0  0  0  0  0  0  0  0  0  0  0
    4.1673   20.3279   36.3733 O   0  0  0  0  0  0  0  0  0  0  0  0
    0.2944   20.2954   42.6617 C   0  0  0  0  0  0  0  0  0  0  0  0
    3.4723   21.3735   36.1916 C   0  0  0  0  0  0  0  0  0  0  0  0
    2.5379   15.5070   40.6139 C   0  0  0  0  0  0  0  0  0  0  0  0
    2.6473   17.5977   39.7730 C   0  0  0  0  0  0  0  0  0  0  0  0
    0.9228   21.0494   41.6914 C   0  0  0  0  0  0  0  0  0  0  0  0
    1.5858   20.0582   40.7767 C   0  0  0  0  0  0  0  0  0  0  0  0
   -0.8324   18.2573   44.3541 O   0  0  0  0  0  0  0  0  0  0  0  0
    0.3541   16.4229   43.6468 N   0  0  0  0  0  0  0  0  0  0  0  0
    2.8949   18.7313   39.0530 C   0  0  0  0  0  0  0  0  0  0  0  0
    1.9058   17.5691   40.9374 C   0  0  0  0  0  0  0  0  0  0  0  0
    3.8525   16.4231   37.3023 C   0  0  0  0  0  0  0  0  0  0  0  0
    3.0311   16.3074   39.6256 N   0  0  0  0  0  0  0  0  0  0  0  0
    0.0654   14.2543   44.9199 C   0  0  0  0  0  0  0  0  0  0  0  0
    2.6531   14.0165   40.6265 C   0  0  0  0  0  0  0  0  0  0  0  0
    2.3755   16.3643   43.4996 H   0  0  0  0  0  0  0  0  0  0  0  0
    1.2484   14.9626   42.7316 H   0  0  0  0  0  0  0  0  0  0  0  0
    3.1707   20.4203   38.2995 H   0  0  0  0  0  0  0  0  0  0  0  0
    1.6573   21.5857   38.2327 H   0  0  0  0  0  0  0  0  0  0  0  0
   -0.9687   17.4916   42.3478 H   0  0  0  0  0  0  0  0  0  0  0  0
    0.4052   14.3982   47.1083 H   0  0  0  0  0  0  0  0  0  0  0  0
   -1.2919   14.0172   46.6596 H   0  0  0  0  0  0  0  0  0  0  0  0
   -0.0264   12.7474   46.5466 H   0  0  0  0  0  0  0  0  0  0  0  0
   -1.3443   15.7378   44.6141 H   0  0  0  0  0  0  0  0  0  0  0  0
    0.1713   16.1413   45.6451 H   0  0  0  0  0  0  0  0  0  0  0  0
   -0.7912   20.4589   42.5931 H   0  0  0  0  0  0  0  0  0  0  0  0
    0.6784   20.6098   43.6433 H   0  0  0  0  0  0  0  0  0  0  0  0
    0.9356   22.1459   41.6055 H   0  0  0  0  0  0  0  0  0  0  0  0
   -0.3915   17.8343   45.1330 H   0  0  0  0  0  0  0  0  0  0  0  0
    3.5934   18.6722   38.2053 H   0  0  0  0  0  0  0  0  0  0  0  0
    4.0338   17.5037   37.3999 H   0  0  0  0  0  0  0  0  0  0  0  0
    4.6591   15.9683   36.7086 H   0  0  0  0  0  0  0  0  0  0  0  0
    2.8885   16.2570   36.7992 H   0  0  0  0  0  0  0  0  0  0  0  0
   -0.5507   13.6530   44.2353 H   0  0  0  0  0  0  0  0  0  0  0  0
    1.1298   14.0891   44.6967 H   0  0  0  0  0  0  0  0  0  0  0  0
    2.7222   13.6627   41.6658 H   0  0  0  0  0  0  0  0  0  0  0  0
    1.7661   13.5760   40.1475 H   0  0  0  0  0  0  0  0  0  0  0  0
    3.5557   13.7138   40.0753 H   0  0  0  0  0  0  0  0  0  0  0  0
  1 21  1  0
  2 25  1  0
  3  1  1  0
  4 14  1  0
  4  9  1  0
  5  7  1  0
  6  4  2  0
  7  8  1  0
  8 19  1  0
  9 21  1  0
  9 20  1  0
 11 15  2  0
 12 26  1  0
 13  5  1  0
 15 13  1  0
 15  5  1  0
 16 27  1  0
 16  3  2  0
 17 23  2  0
 18 14  1  0
 19  6  1  0
 19 18  2  0
 21 12  1  0
 22  8  2  0
 22 17  1  0
 23  6  1  0
 23  3  1  0
 24  2  1  0
 25 17  1  0
 25 16  1  0
 26 10  1  0
  1 28  1  0
  1 29  1  0
  5 30  1  1
  7 31  1  0
  9 32  1  6
 10 33  1  0
 10 34  1  0
 10 35  1  0
 12 36  1  0
 12 37  1  0
 14 38  1  0
 14 39  1  0
 18 40  1  0
 20 41  1  0
 22 42  1  0
 24 43  1  0
 24 44  1  0
 24 45  1  0
 26 46  1  0
 26 47  1  0
 27 48  1  0
 27 49  1  0
 27 50  1  0
M  END
>  <mol_id>  (39) 
2026-08-23-6tgu-s0-n100-prep-0040

>  <rmsd_to_ref>  (39) 


$$$$

     RDKit          3D

 40 44  0  0  0  0  0  0  0  0999 V2000
   -1.0235   13.6584   45.0904 C   0  0  0  0  0  0  0  0  0  0  0  0
    2.9282   19.9724   38.3334 C   0  0  0  0  0  0  0  0  0  0  0  0
    1.7439   19.3447   40.4941 C   0  0  0  0  0  0  0  0  0  0  0  0
    1.0604   15.6096   42.6348 C   0  0  0  0  0  0  0  0  0  0  0  0
    0.4015   20.0950   42.4245 C   0  0  0  0  0  0  0  0  0  0  0  0
    1.7555   20.6329   40.0584 C   0  0  0  0  0  0  0  0  0  0  0  0
    0.6181   21.3803   42.0839 C   0  0  0  0  0  0  0  0  0  0  0  0
    3.6543   19.6828   37.2126 C   0  0  0  0  0  0  0  0  0  0  0  0
    0.5436   12.9645   43.2145 C   0  0  0  0  0  0  0  0  0  0  0  0
    0.0492   15.3638   43.5142 C   0  0  0  0  0  0  0  0  0  0  0  0
   -0.8211   16.3924   43.9956 N   0  0  0  0  0  0  0  0  0  0  0  0
    4.2902   18.5198   36.9142 N   0  0  0  0  0  0  0  0  0  0  0  0
    1.9219   14.7228   42.2041 C   0  0  0  0  0  0  0  0  0  0  0  0
    3.8070   20.7446   36.1160 O   0  0  0  0  0  0  0  0  0  0  0  0
   -0.5424   17.6216   43.4232 C   0  0  0  0  0  0  0  0  0  0  0  0
    2.7353   18.9918   39.3657 C   0  0  0  0  0  0  0  0  0  0  0  0
    3.5593   17.8939   39.1494 C   0  0  0  0  0  0  0  0  0  0  0  0
    4.0952   17.7104   37.9368 C   0  0  0  0  0  0  0  0  0  0  0  0
    0.8410   19.0540   41.7524 C   0  0  0  0  0  0  0  0  0  0  0  0
    1.5481   13.3647   42.3156 C   0  0  0  0  0  0  0  0  0  0  0  0
    0.5029   17.7721   42.4760 C   0  0  0  0  0  0  0  0  0  0  0  0
    1.3158   16.8284   42.0258 N   0  0  0  0  0  0  0  0  0  0  0  0
   -0.1629   13.9909   43.9038 C   0  0  0  0  0  0  0  0  0  0  0  0
    2.2946   21.0741   38.7833 C   0  0  0  0  0  0  0  0  0  0  0  0
    1.3384   21.6443   40.8719 C   0  0  0  0  0  0  0  0  0  0  0  0
   -0.4912   13.9247   46.0155 H   0  0  0  0  0  0  0  0  0  0  0  0
   -1.9639   14.2261   45.0320 H   0  0  0  0  0  0  0  0  0  0  0  0
   -1.2451   12.5809   45.0921 H   0  0  0  0  0  0  0  0  0  0  0  0
   -0.1874   19.9019   43.3333 H   0  0  0  0  0  0  0  0  0  0  0  0
    0.2533   22.2030   42.7165 H   0  0  0  0  0  0  0  0  0  0  0  0
    0.3129   11.9016   43.3786 H   0  0  0  0  0  0  0  0  0  0  0  0
    2.8904   15.0206   41.7759 H   0  0  0  0  0  0  0  0  0  0  0  0
   -1.1428   18.4982   43.7081 H   0  0  0  0  0  0  0  0  0  0  0  0
    4.3940   17.9728   39.8614 H   0  0  0  0  0  0  0  0  0  0  0  0
    2.8863   17.0325   39.2720 H   0  0  0  0  0  0  0  0  0  0  0  0
    4.4412   16.6816   37.7579 H   0  0  0  0  0  0  0  0  0  0  0  0
    2.0494   12.6107   41.6910 H   0  0  0  0  0  0  0  0  0  0  0  0
    2.9976   21.9094   38.9174 H   0  0  0  0  0  0  0  0  0  0  0  0
    1.5270   21.4501   38.0909 H   0  0  0  0  0  0  0  0  0  0  0  0
    1.5590   22.6852   40.5929 H   0  0  0  0  0  0  0  0  0  0  0  0
  2 24  1  0
  2 16  2  0
  3 19  2  0
  4 10  1  0
  6  3  1  0
  6 25  2  0
  7  5  2  0
  8  2  1  0
  9 23  1  0
 10 23  2  0
 10 11  1  0
 12  8  1  0
 12 18  2  0
 13 20  1  0
 13  4  2  0
 14  8  2  0
 15 11  2  0
 16  3  1  0
 17 16  1  0
 18 17  1  0
 19 21  1  0
 19  5  1  0
 20  9  2  0
 21 15  1  0
 22 21  2  0
 22  4  1  0
 23  1  1  0
 24  6  1  0
 25  7  1  0
  1 26  1  0
  1 27  1  0
  1 28  1  0
  5 29  1  0
  7 30  1  0
  9 31  1  0
 13 32  1  0
 15 33  1  0
 17 34  1  0
 17 35  1  0
 18 36  1  0
 20 37  1  0
 24 38  1  0
 24 39  1  0
 25 40  1  0
M  END
>  <mol_id>  (40) 
2026-08-23-6tgu-s0-n100-prep-0041

>  <rmsd_to_ref>  (40) 


$$$$

     RDKit          3D

 42 46  0  0  0  0  0  0  0  0999 V2000
    3.1290   14.2844   40.8587 S   0  0  0  0  0  0  0  0  0  0  0  0
    1.3257   14.5802   42.9801 N   0  0  0  0  0  0  0  0  0  0  0  0
    3.3654   20.0299   36.2958 O   0  0  0  0  0  0  0  0  0  0  0  0
   -0.1696   15.8119   44.6598 C   0  0  0  0  0  0  0  0  0  0  0  0
    0.9631   16.8380   42.8097 C   0  0  0  0  0  0  0  0  0  0  0  0
   -0.7840   17.0490   44.9541 C   0  0  0  0  0  0  0  0  0  0  0  0
    1.9002   16.4636   41.7839 O   0  0  0  0  0  0  0  0  0  0  0  0
    2.6530   20.0207   37.2495 C   0  0  0  0  0  0  0  0  0  0  0  0
    3.0395   15.4519   38.4697 C   0  0  0  0  0  0  0  0  0  0  0  0
    1.6133   20.6983   40.6277 C   0  0  0  0  0  0  0  0  0  0  0  0
    1.5671   20.9309   39.2196 O   0  0  0  0  0  0  0  0  0  0  0  0
    1.8145   19.8976   38.3307 C   0  0  2  0  0  0  0  0  0  0  0  0
    2.0486   15.0754   41.9388 C   0  0  0  0  0  0  0  0  0  0  0  0
    0.3500   19.3772   42.4155 C   0  0  0  0  0  0  0  0  0  0  0  0
    3.4804   17.9217   38.4872 N   0  0  0  0  0  0  0  0  0  0  0  0
   -0.9891   19.4377   44.1868 N   0  0  0  0  0  0  0  0  0  0  0  0
    2.4098   14.5871   39.3381 C   0  0  0  0  0  0  0  0  0  0  0  0
    3.8165   16.7612   38.3484 C   0  0  0  0  0  0  0  0  0  0  0  0
    0.3670   18.1006   43.1033 C   0  0  0  0  0  0  0  0  0  0  0  0
   -0.4819   20.1821   43.2283 C   0  0  0  0  0  0  0  0  0  0  0  0
   -0.5093   18.1815   44.1771 C   0  0  0  0  0  0  0  0  0  0  0  0
    3.0059   19.0544   38.4707 C   0  0  1  0  0  0  0  0  0  0  0  0
    1.0833   19.6398   41.2494 C   0  0  0  0  0  0  0  0  0  0  0  0
    0.6683   15.7246   43.5467 C   0  0  0  0  0  0  0  0  0  0  0  0
   -0.3481   14.9328   45.2963 H   0  0  0  0  0  0  0  0  0  0  0  0
   -1.8699   16.8831   44.8968 H   0  0  0  0  0  0  0  0  0  0  0  0
   -0.3563   17.3109   45.9332 H   0  0  0  0  0  0  0  0  0  0  0  0
    2.2139   15.6553   37.7718 H   0  0  0  0  0  0  0  0  0  0  0  0
    3.9806   14.8935   38.5822 H   0  0  0  0  0  0  0  0  0  0  0  0
    1.1348   21.5767   41.0855 H   0  0  0  0  0  0  0  0  0  0  0  0
    2.6850   20.4876   40.7580 H   0  0  0  0  0  0  0  0  0  0  0  0
    0.7386   19.6724   38.3738 H   0  0  0  0  0  0  0  0  0  0  0  0
    4.4432   18.2680   38.3691 H   0  0  0  0  0  0  0  0  0  0  0  0
    2.5487   17.5780   38.7607 H   0  0  0  0  0  0  0  0  0  0  0  0
    1.4060   14.9942   39.5298 H   0  0  0  0  0  0  0  0  0  0  0  0
    2.4509   13.6151   38.8246 H   0  0  0  0  0  0  0  0  0  0  0  0
    4.6383   16.6420   39.0698 H   0  0  0  0  0  0  0  0  0  0  0  0
    3.8656   16.7759   37.2496 H   0  0  0  0  0  0  0  0  0  0  0  0
   -0.6734   21.2555   43.0827 H   0  0  0  0  0  0  0  0  0  0  0  0
    3.6550   18.7956   39.3201 H   0  0  0  0  0  0  0  0  0  0  0  0
    0.4297   19.2212   40.4699 H   0  0  0  0  0  0  0  0  0  0  0  0
    2.0401   19.3426   41.7035 H   0  0  0  0  0  0  0  0  0  0  0  0
  1 13  1  0
  2 24  1  0
  3  8  2  0
  4  6  1  0
  5 19  2  0
  5 24  1  0
  7 13  1  0
  7  5  1  0
  9 18  1  0
  9 17  1  0
 10 23  1  0
 11 10  1  0
 12  8  1  0
 12 22  1  0
 12 11  1  0
 13  2  2  0
 14 19  1  0
 14 20  2  0
 15 22  1  0
 17  1  1  0
 18 15  1  0
 19 21  1  0
 20 16  1  0
 21 16  2  0
 21  6  1  0
 22  8  1  0
 23 14  1  0
 24  4  2  0
  4 25  1  0
  6 26  1  0
  6 27  1  0
  9 28  1  0
  9 29  1  0
 10 30  1  0
 10 31  1  0
 12 32  1  6
 15 33  1  0
 15 34  1  0
 17 35  1  0
 17 36  1  0
 18 37  1  0
 18 38  1  0
 20 39  1  0
 22 40  1  1
 23 41  1  0
 23 42  1  0
M  CHG  1  15   1
M  END
>  <mol_id>  (41) 
2026-08-23-6tgu-s0-n100-prep-0042

>  <rmsd_to_ref>  (41) 


$$$$

     RDKit          3D

 57 61  0  0  0  0  0  0  0  0999 V2000
    1.8223   20.7864   37.6384 C   0  0  0  0  0  0  0  0  0  0  0  0
    0.7094   15.0768   43.5774 C   0  0  0  0  0  0  0  0  0  0  0  0
    2.0333   13.8310   42.4252 C   0  0  0  0  0  0  0  0  0  0  0  0
   -0.7639   14.5375   48.4988 C   0  0  0  0  0  0  0  0  0  0  0  0
   -0.4363   15.3547   49.4706 O   0  0  0  0  0  0  0  0  0  0  0  0
   -0.4477   17.3930   44.5087 C   0  0  0  0  0  0  0  0  0  0  0  0
    1.1241   20.3697   39.8657 C   0  0  0  0  0  0  0  0  0  0  0  0
    2.0092   16.7570   40.7384 N   0  0  0  0  0  0  0  0  0  0  0  0
    3.5265   14.6475   37.8656 O   0  0  0  0  0  0  0  0  0  0  0  0
   -0.0173   14.8906   44.7194 C   0  0  0  0  0  0  0  0  0  0  0  0
    3.7767   18.1031   36.8832 N   0  0  0  0  0  0  0  0  0  0  0  0
    1.9649   19.2846   39.7423 C   0  0  0  0  0  0  0  0  0  0  0  0
    5.1954   15.4964   36.9245 N   0  0  0  0  0  0  0  0  0  0  0  0
   -1.0476   15.7893   46.3386 N   0  0  0  0  0  0  0  0  0  0  0  0
    2.8328   21.1480   35.5640 C   0  0  0  0  0  0  0  0  0  0  0  0
    2.1799   14.6782   41.4259 C   0  0  0  0  0  0  0  0  0  0  0  0
    3.3055   16.5712   38.5040 C   0  0  0  0  0  0  0  0  0  0  0  0
    1.8749   21.3872   36.5021 C   0  0  0  0  0  0  0  0  0  0  0  0
    1.1258   13.9412   43.4045 C   0  0  0  0  0  0  0  0  0  0  0  0
    3.6751   20.0610   35.7336 C   0  0  0  0  0  0  0  0  0  0  0  0
    2.4925   19.6368   37.6450 C   0  0  0  0  0  0  0  0  0  0  0  0
    4.0209   15.5258   37.8372 C   0  0  0  0  0  0  0  0  0  0  0  0
   -0.6644   16.3481   45.3791 C   0  0  0  0  0  0  0  0  0  0  0  0
   -0.5422   14.8266   47.3050 C   0  0  0  0  0  0  0  0  0  0  0  0
    1.0077   16.2013   42.8548 C   0  0  0  0  0  0  0  0  0  0  0  0
    1.7303   15.9391   41.6533 C   0  0  0  0  0  0  0  0  0  0  0  0
    2.8055   16.3490   39.7215 N   0  0  0  0  0  0  0  0  0  0  0  0
    2.5029   18.9151   38.6584 C   0  0  0  0  0  0  0  0  0  0  0  0
    5.6629   14.0557   36.5361 C   0  0  0  0  0  0  0  0  0  0  0  0
    3.3453   19.2941   36.8231 C   0  0  0  0  0  0  0  0  0  0  0  0
    0.3128   17.3486   43.3567 N   0  0  0  0  0  0  0  0  0  0  0  0
    3.1109   17.7876   38.0712 C   0  0  0  0  0  0  0  0  0  0  0  0
    1.0317   21.0501   38.7160 C   0  0  0  0  0  0  0  0  0  0  0  0
   -1.0871   13.2269   48.4250 O   0  0  0  0  0  0  0  0  0  0  0  0
    3.0090   13.8057   42.9324 H   0  0  0  0  0  0  0  0  0  0  0  0
    1.6346   12.9591   41.8858 H   0  0  0  0  0  0  0  0  0  0  0  0
   -0.9253   18.3530   44.7538 H   0  0  0  0  0  0  0  0  0  0  0  0
    0.5959   20.6422   40.7912 H   0  0  0  0  0  0  0  0  0  0  0  0
   -0.1753   13.9026   45.1763 H   0  0  0  0  0  0  0  0  0  0  0  0
    4.4002   17.5583   36.2705 H   0  0  0  0  0  0  0  0  0  0  0  0
    2.1833   18.6999   40.6480 H   0  0  0  0  0  0  0  0  0  0  0  0
    5.6592   16.3488   36.5793 H   0  0  0  0  0  0  0  0  0  0  0  0
   -2.0176   16.0573   46.5583 H   0  0  0  0  0  0  0  0  0  0  0  0
    2.9358   21.8055   34.6881 H   0  0  0  0  0  0  0  0  0  0  0  0
    1.6352   14.2761   40.5590 H   0  0  0  0  0  0  0  0  0  0  0  0
    3.2645   14.7704   41.2671 H   0  0  0  0  0  0  0  0  0  0  0  0
    1.1023   22.1367   36.2753 H   0  0  0  0  0  0  0  0  0  0  0  0
    0.2711   13.2945   43.1569 H   0  0  0  0  0  0  0  0  0  0  0  0
    1.6296   13.6445   44.3363 H   0  0  0  0  0  0  0  0  0  0  0  0
    4.5195   19.8363   35.0653 H   0  0  0  0  0  0  0  0  0  0  0  0
   -0.7177   13.8679   46.7949 H   0  0  0  0  0  0  0  0  0  0  0  0
    0.3624   15.4099   47.5318 H   0  0  0  0  0  0  0  0  0  0  0  0
    3.2134   15.4549   40.0300 H   0  0  0  0  0  0  0  0  0  0  0  0
    5.8638   13.4767   37.4496 H   0  0  0  0  0  0  0  0  0  0  0  0
    4.8734   13.5587   35.9532 H   0  0  0  0  0  0  0  0  0  0  0  0
    6.5802   14.1181   35.9323 H   0  0  0  0  0  0  0  0  0  0  0  0
    0.2864   21.8555   38.6385 H   0  0  0  0  0  0  0  0  0  0  0  0
  1 21  1  0
  1 33  1  0
  2 10  1  0
  3 19  1  0
  4  5  1  0
  6 23  1  0
  8 26  2  3
 10 23  2  0
 11 32  1  0
 12  7  1  0
 13 22  1  0
 14 24  1  0
 15 20  2  0
 15 18  1  0
 16 26  1  0
 16  3  1  0
 17 27  1  0
 18  1  2  0
 19  2  1  0
 20 30  1  0
 21 28  1  0
 22  9  2  0
 22 17  1  0
 23 14  1  0
 24  4  1  0
 25 31  1  0
 25  2  2  0
 26 25  1  0
 27  8  1  0
 28 12  2  0
 29 13  1  0
 30 11  1  0
 30 21  2  0
 31  6  2  0
 32 17  2  3
 32 28  1  0
 33  7  2  0
 34  4  2  0
  3 35  1  0
  3 36  1  0
  6 37  1  0
  7 38  1  0
 10 39  1  0
 11 40  1  0
 12 41  1  0
 13 42  1  0
 14 43  1  0
 15 44  1  0
 16 45  1  0
 16 46  1  0
 18 47  1  0
 19 48  1  0
 19 49  1  0
 20 50  1  0
 24 51  1  0
 24 52  1  0
 27 53  1  0
 29 54  1  0
 29 55  1  0
 29 56  1  0
 33 57  1  0
M  CHG  1   5  -1
M  END
>  <mol_id>  (42) 
2026-08-23-6tgu-s0-n100-prep-0043

>  <rmsd_to_ref>  (42) 


$$$$

     RDKit          3D

 32 34  0  0  0  0  0  0  0  0999 V2000
   -0.0116   20.2329   41.7374 C   0  0  0  0  0  0  0  0  0  0  0  0
    2.5990   17.7647   38.4219 C   0  0  0  0  0  0  0  0  0  0  0  0
    1.5017   17.5099   40.5656 N   0  0  0  0  0  0  0  0  0  0  0  0
    2.9507   18.3083   37.1959 C   0  0  0  0  0  0  0  0  0  0  0  0
    1.8767   18.4886   39.3173 C   0  0  0  0  0  0  0  0  0  0  0  0
    1.8638   20.2607   37.6215 C   0  0  0  0  0  0  0  0  0  0  0  0
    0.9051   18.2883   41.1078 C   0  0  0  0  0  0  0  0  0  0  0  0
    2.4582   19.4389   36.7660 N   0  0  0  0  0  0  0  0  0  0  0  0
    0.0174   17.0257   42.6775 C   0  0  0  0  0  0  0  0  0  0  0  0
   -0.4166   15.1496   43.5978 C   0  0  0  0  0  0  0  0  0  0  0  0
    0.1571   18.1472   42.1233 C   0  0  2  0  0  0  0  0  0  0  0  0
    1.5253   19.7789   38.8900 C   0  0  0  0  0  0  0  0  0  0  0  0
   -0.4239   13.5107   43.9654 Cl  0  0  0  0  0  0  0  0  0  0  0  0
   -0.8343   17.3644   43.8652 C   0  0  0  0  0  0  0  0  0  0  0  0
    1.6160   21.4170   37.1844 O   0  0  0  0  0  0  0  0  0  0  0  0
    0.2408   15.7604   42.4930 C   0  0  0  0  0  0  0  0  0  0  0  0
   -0.3276   19.1437   42.5683 C   0  0  0  0  0  0  0  0  0  0  0  0
   -0.9704   16.1471   44.2556 N   0  0  0  0  0  0  0  0  0  0  0  0
    3.7060   17.6307   36.4235 O   0  0  0  0  0  0  0  0  0  0  0  0
    0.6439   19.5825   41.1175 N   0  0  0  0  0  0  0  0  0  0  0  0
   -1.2546   19.6874   43.3390 O   0  0  0  0  0  0  0  0  0  0  0  0
   -0.2965   21.2950   41.7111 H   0  0  0  0  0  0  0  0  0  0  0  0
    2.9070   16.7388   38.6721 H   0  0  0  0  0  0  0  0  0  0  0  0
    1.7306   16.5287   40.7793 H   0  0  0  0  0  0  0  0  0  0  0  0
    2.5307   19.6908   35.7700 H   0  0  0  0  0  0  0  0  0  0  0  0
    1.0281   18.2764   42.7827 H   0  0  0  0  0  0  0  0  0  0  0  0
    1.9751   20.4751   39.6131 H   0  0  0  0  0  0  0  0  0  0  0  0
    0.4296   19.7079   38.8234 H   0  0  0  0  0  0  0  0  0  0  0  0
   -0.3137   17.9953   44.6007 H   0  0  0  0  0  0  0  0  0  0  0  0
   -1.7485   17.9500   43.6886 H   0  0  0  0  0  0  0  0  0  0  0  0
    0.8024   15.2772   41.6798 H   0  0  0  0  0  0  0  0  0  0  0  0
   -1.6854   19.1494   44.0497 H   0  0  0  0  0  0  0  0  0  0  0  0
  1 17  2  0
  2  5  2  0
  3  7  1  0
  4  2  1  0
  5  3  1  0
  6 12  1  0
  7 11  1  0
  8  6  1  0
  8  4  1  0
  9 16  2  0
  9 14  1  0
 10 18  2  0
 10 13  1  0
 11 17  1  0
 11  9  1  0
 12  5  1  0
 14 18  1  0
 15  6  2  0
 16 10  1  0
 17 21  1  0
 19  4  2  0
 20  7  2  0
 20  1  1  0
  1 22  1  0
  2 23  1  0
  3 24  1  0
  8 25  1  0
 11 26  1  6
 12 27  1  0
 12 28  1  0
 14 29  1  0
 14 30  1  0
 16 31  1  0
 21 32  1  0
M  END
>  <mol_id>  (43) 
2026-08-23-6tgu-s0-n100-prep-0044

>  <rmsd_to_ref>  (43) 


$$$$

     RDKit          3D

 55 58  0  0  0  0  0  0  0  0999 V2000
   -0.2183   13.7676   46.2404 C   0  0  0  0  0  0  0  0  0  0  0  0
   -1.1715   12.8891   47.0435 C   0  0  0  0  0  0  0  0  0  0  0  0
    1.8612   19.8076   40.0871 C   0  0  0  0  0  0  0  0  0  0  0  0
    2.4440   19.2458   38.9642 C   0  0  1  0  0  0  0  0  0  0  0  0
    3.1537   14.8786   38.2910 C   0  0  0  0  0  0  0  0  0  0  0  0
   -1.5982   18.2051   43.3788 C   0  0  0  0  0  0  0  0  0  0  0  0
   -0.4205   15.3537   44.6927 N   0  0  0  0  0  0  0  0  0  0  0  0
    3.8063   13.8121   37.7719 O   0  0  0  0  0  0  0  0  0  0  0  0
   -0.2703   17.4683   43.7711 C   0  0  2  0  0  0  0  0  0  0  0  0
   -0.9968   14.2389   45.0371 N   0  0  0  0  0  0  0  0  0  0  0  0
    2.8243   19.9776   37.7031 C   0  0  0  0  0  0  0  0  0  0  0  0
    2.6939   17.9255   38.9457 N   0  0  0  0  0  0  0  0  0  0  0  0
    2.5060   21.3361   37.5882 N   0  0  0  0  0  0  0  0  0  0  0  0
    3.6319   15.9656   37.6968 C   0  0  0  0  0  0  0  0  0  0  0  0
   -2.3111   12.1934   45.0019 C   0  0  0  0  0  0  0  0  0  0  0  0
    1.0100   19.0528   42.1534 N   0  0  0  0  0  0  0  0  0  0  0  0
    0.8500   17.8675   42.8165 C   0  0  0  0  0  0  0  0  0  0  0  0
    4.5518   15.6155   36.7820 N   0  0  0  0  0  0  0  0  0  0  0  0
   -1.1963   13.0191   44.2956 C   0  0  0  0  0  0  0  0  0  0  0  0
    4.7086   14.2837   36.8033 C   0  0  0  0  0  0  0  0  0  0  0  0
    1.6694   16.9812   42.4260 O   0  0  0  0  0  0  0  0  0  0  0  0
    3.2201   17.3686   37.8039 C   0  0  0  0  0  0  0  0  0  0  0  0
    3.5894   18.0127   36.7534 N   0  0  0  0  0  0  0  0  0  0  0  0
   -1.6417   11.7141   46.2157 O   0  0  0  0  0  0  0  0  0  0  0  0
    1.5543   18.8330   41.0338 C   0  0  0  0  0  0  0  0  0  0  0  0
    1.5517   21.1096   40.3944 C   0  0  0  0  0  0  0  0  0  0  0  0
   -0.5761   16.0086   43.6246 N   0  0  0  0  0  0  0  0  0  0  0  0
    0.8046   21.3376   41.5453 C   0  0  0  0  0  0  0  0  0  0  0  0
    0.5642   20.3087   42.4488 C   0  0  0  0  0  0  0  0  0  0  0  0
    3.3872   19.3488   36.6607 N   0  0  0  0  0  0  0  0  0  0  0  0
    0.1088   14.6271   46.8441 H   0  0  0  0  0  0  0  0  0  0  0  0
    0.6845   13.2138   45.9432 H   0  0  0  0  0  0  0  0  0  0  0  0
   -0.6512   12.5155   47.9378 H   0  0  0  0  0  0  0  0  0  0  0  0
   -2.0462   13.4898   47.3335 H   0  0  0  0  0  0  0  0  0  0  0  0
    1.4465   19.0630   38.5380 H   0  0  0  0  0  0  0  0  0  0  0  0
    2.3710   14.8500   39.0634 H   0  0  0  0  0  0  0  0  0  0  0  0
   -2.1427   18.4901   44.2911 H   0  0  0  0  0  0  0  0  0  0  0  0
   -1.3588   19.1078   42.7976 H   0  0  0  0  0  0  0  0  0  0  0  0
   -2.2245   17.5342   42.7725 H   0  0  0  0  0  0  0  0  0  0  0  0
   -0.6634   16.0161   45.4432 H   0  0  0  0  0  0  0  0  0  0  0  0
    0.0602   17.7219   44.7892 H   0  0  0  0  0  0  0  0  0  0  0  0
    2.7577   21.8535   36.7339 H   0  0  0  0  0  0  0  0  0  0  0  0
    2.0201   21.8182   38.3580 H   0  0  0  0  0  0  0  0  0  0  0  0
   -2.6403   11.3531   44.3729 H   0  0  0  0  0  0  0  0  0  0  0  0
   -3.2205   12.7769   45.2079 H   0  0  0  0  0  0  0  0  0  0  0  0
   -0.2615   12.4397   44.2743 H   0  0  0  0  0  0  0  0  0  0  0  0
   -1.4930   13.2489   43.2615 H   0  0  0  0  0  0  0  0  0  0  0  0
    5.3991   13.6855   36.1905 H   0  0  0  0  0  0  0  0  0  0  0  0
    4.0421   17.5088   35.9773 H   0  0  0  0  0  0  0  0  0  0  0  0
    0.8890   18.1241   40.5191 H   0  0  0  0  0  0  0  0  0  0  0  0
    2.5659   18.5485   41.3589 H   0  0  0  0  0  0  0  0  0  0  0  0
    1.8822   21.9411   39.7544 H   0  0  0  0  0  0  0  0  0  0  0  0
   -1.5552   15.9092   43.3204 H   0  0  0  0  0  0  0  0  0  0  0  0
    0.4004   22.3414   41.7424 H   0  0  0  0  0  0  0  0  0  0  0  0
    0.0233   20.5036   43.3866 H   0  0  0  0  0  0  0  0  0  0  0  0
  1  2  1  0
  3 26  2  0
  3 25  1  0
  4 12  1  0
  4  3  1  0
  7 10  1  0
  8  5  1  0
  9  6  1  0
 10  1  1  0
 11  4  1  0
 13 11  1  0
 14 22  1  0
 14  5  2  0
 15 24  1  0
 16 29  1  0
 16 17  1  0
 17  9  1  0
 18 20  2  0
 18 14  1  0
 19 15  1  0
 19 10  1  0
 20  8  1  0
 21 17  2  0
 22 12  2  0
 23 22  1  0
 24  2  1  0
 25 16  1  0
 26 28  1  0
 27  9  1  0
 27  7  1  0
 28 29  2  0
 30 23  1  0
 30 11  2  0
  1 31  1  0
  1 32  1  0
  2 33  1  0
  2 34  1  0
  4 35  1  6
  5 36  1  0
  6 37  1  0
  6 38  1  0
  6 39  1  0
  7 40  1  0
  9 41  1  1
 13 42  1  0
 13 43  1  0
 15 44  1  0
 15 45  1  0
 19 46  1  0
 19 47  1  0
 20 48  1  0
 23 49  1  0
 25 50  1  0
 25 51  1  0
 26 52  1  0
 27 53  1  0
 28 54  1  0
 29 55  1  0
M  END
>  <mol_id>  (44) 
2026-08-23-6tgu-s0-n100-prep-0045

>  <rmsd_to_ref>  (44) 


$$$$

     RDKit          3D

 59 65  0  0  0  0  0  0  0  0999 V2000
   -0.5547   13.1642   44.7292 C   0  0  0  0  0  0  0  0  0  0  0  0
    0.8354   20.5055   41.3344 C   0  0  0  0  0  0  0  0  0  0  0  0
   -0.3566   18.5691   42.7758 C   0  0  0  0  0  0  0  0  0  0  0  0
   -1.2190   19.2698   43.1657 O   0  0  0  0  0  0  0  0  0  0  0  0
    1.6455   20.4141   40.0742 O   0  0  0  0  0  0  0  0  0  0  0  0
    4.7041   16.1612   37.7023 C   0  0  0  0  0  0  0  0  0  0  0  0
    2.1790   20.4538   37.3149 O   0  0  0  0  0  0  0  0  0  0  0  0
    3.9397   19.3406   36.5675 C   0  0  0  0  0  0  0  0  0  0  0  0
    3.0993   21.3366   35.3628 C   0  0  0  0  0  0  0  0  0  0  0  0
    2.9202   14.4169   40.1022 O   0  0  0  0  0  0  0  0  0  0  0  0
    2.0732   16.5089   40.2534 C   0  0  2  0  0  0  0  0  0  0  0  0
    0.5534   19.0942   41.7381 C   0  0  0  0  0  0  0  0  0  0  0  0
    2.5770   18.4685   38.7567 C   0  0  2  0  0  0  0  0  0  0  0  0
   -0.7694   15.5116   45.0367 C   0  0  0  0  0  0  0  0  0  0  0  0
    5.3176   14.1097   37.3698 C   0  0  0  0  0  0  0  0  0  0  0  0
    2.9687   15.8227   39.5292 C   0  0  2  0  0  0  0  0  0  0  0  0
    5.5604   15.3857   36.9748 C   0  0  0  0  0  0  0  0  0  0  0  0
   -0.3637   14.4199   44.3217 C   0  0  0  0  0  0  0  0  0  0  0  0
    3.0787   20.3357   36.4653 C   0  0  0  0  0  0  0  0  0  0  0  0
    2.5236   17.0059   39.0748 C   0  0  1  0  0  0  0  0  0  0  0  0
    0.8679   16.4620   42.3356 C   0  0  0  0  0  0  0  0  0  0  0  0
    4.0524   15.3479   38.5978 C   0  0  1  0  0  0  0  0  0  0  0  0
   -0.2161   17.1487   43.2733 C   0  0  0  0  0  0  0  0  0  0  0  0
   -1.0726   12.9377   46.0338 C   0  0  0  0  0  0  0  0  0  0  0  0
   -1.3910   15.3173   46.2842 C   0  0  0  0  0  0  0  0  0  0  0  0
    3.8987   18.6054   37.9317 C   0  0  1  0  0  0  0  0  0  0  0  0
    1.3602   17.0022   41.2047 C   0  0  1  0  0  0  0  0  0  0  0  0
   -1.1038   11.7531   46.4662 O   0  0  0  0  0  0  0  0  0  0  0  0
    2.8146   22.7494   35.7099 C   0  0  0  0  0  0  0  0  0  0  0  0
   -0.6066   16.8321   44.5781 N   0  0  0  0  0  0  0  0  0  0  0  0
    1.2839   18.3579   40.9422 C   0  0  0  0  0  0  0  0  0  0  0  0
    0.2279   14.4199   43.1240 F   0  0  0  0  0  0  0  0  0  0  0  0
    3.4970   21.0142   34.1945 O   0  0  0  0  0  0  0  0  0  0  0  0
    4.3854   14.0744   38.3374 C   0  0  0  0  0  0  0  0  0  0  0  0
    4.4322   17.4005   37.4622 O   0  0  0  0  0  0  0  0  0  0  0  0
    2.1939   19.0849   40.1199 C   0  0  2  0  0  0  0  0  0  0  0  0
   -1.5620   13.9778   46.7460 C   0  0  0  0  0  0  0  0  0  0  0  0
   -0.3157   12.3188   44.0673 H   0  0  0  0  0  0  0  0  0  0  0  0
   -0.1043   21.0461   41.1478 H   0  0  0  0  0  0  0  0  0  0  0  0
    1.3723   21.0535   42.1228 H   0  0  0  0  0  0  0  0  0  0  0  0
    4.9527   19.7442   36.4229 H   0  0  0  0  0  0  0  0  0  0  0  0
    3.6630   18.6020   35.8008 H   0  0  0  0  0  0  0  0  0  0  0  0
    2.8162   14.4648   41.0856 H   0  0  0  0  0  0  0  0  0  0  0  0
    1.4886   16.1972   41.1315 H   0  0  0  0  0  0  0  0  0  0  0  0
    1.9178   19.0438   38.0900 H   0  0  0  0  0  0  0  0  0  0  0  0
    5.8173   13.2227   36.9532 H   0  0  0  0  0  0  0  0  0  0  0  0
    6.2925   15.7235   36.2266 H   0  0  0  0  0  0  0  0  0  0  0  0
    2.4864   17.2946   38.0140 H   0  0  0  0  0  0  0  0  0  0  0  0
    1.2438   15.4718   42.6325 H   0  0  0  0  0  0  0  0  0  0  0  0
    4.0398   15.5477   39.6794 H   0  0  0  0  0  0  0  0  0  0  0  0
   -1.7348   16.1721   46.8852 H   0  0  0  0  0  0  0  0  0  0  0  0
    4.4086   19.1588   38.7341 H   0  0  0  0  0  0  0  0  0  0  0  0
    0.4444   16.7135   40.6681 H   0  0  0  0  0  0  0  0  0  0  0  0
    2.6838   22.8403   36.7983 H   0  0  0  0  0  0  0  0  0  0  0  0
    3.6542   23.3825   35.3873 H   0  0  0  0  0  0  0  0  0  0  0  0
    1.8945   23.0736   35.2016 H   0  0  0  0  0  0  0  0  0  0  0  0
    3.9751   13.1761   38.8219 H   0  0  0  0  0  0  0  0  0  0  0  0
    3.2014   19.0654   40.5611 H   0  0  0  0  0  0  0  0  0  0  0  0
   -2.0964   13.7899   47.6889 H   0  0  0  0  0  0  0  0  0  0  0  0
  1 24  1  0
  2 12  1  0
  3  4  2  0
  3 23  1  0
  5  2  1  0
  6 22  1  0
  8 26  1  0
  9 29  1  0
  9 19  1  0
 11 27  1  0
 12  3  1  0
 13 20  1  0
 13 36  1  0
 14 25  1  0
 15 34  2  0
 16 10  1  6
 16 11  1  0
 17 15  1  0
 17  6  2  0
 18  1  2  0
 18 14  1  0
 19  8  1  0
 19  7  2  0
 20 16  1  0
 20 11  1  0
 21 23  2  0
 22 16  1  0
 23 30  1  0
 24 28  2  0
 24 37  1  0
 25 37  2  0
 26 13  1  0
 27 21  1  0
 30 14  2  3
 31 27  1  0
 31 12  2  0
 32 18  1  0
 33  9  2  0
 34 22  1  0
 35  6  1  0
 35 26  1  0
 36  5  1  0
 36 31  1  0
  1 38  1  0
  2 39  1  0
  2 40  1  0
  8 41  1  0
  8 42  1  0
 10 43  1  0
 11 44  1  6
 13 45  1  6
 15 46  1  0
 17 47  1  0
 20 48  1  6
 21 49  1  0
 22 50  1  1
 25 51  1  0
 26 52  1  1
 27 53  1  6
 29 54  1  0
 29 55  1  0
 29 56  1  0
 34 57  1  0
 36 58  1  1
 37 59  1  0
M  END
>  <mol_id>  (45) 
2026-08-23-6tgu-s0-n100-prep-0046

>  <rmsd_to_ref>  (45) 


$$$$

     RDKit          3D

 43 46  0  0  0  0  0  0  0  0999 V2000
   -0.6404   19.4260   43.0291 C   0  0  0  0  0  0  0  0  0  0  0  0
    1.5542   15.3525   41.6450 C   0  0  0  0  0  0  0  0  0  0  0  0
    3.9997   14.7858   38.9565 C   0  0  0  0  0  0  0  0  0  0  0  0
    1.9196   13.9070   41.7347 C   0  0  1  0  0  0  0  0  0  0  0  0
    3.1374   21.8117   36.7524 F   0  0  0  0  0  0  0  0  0  0  0  0
    2.1379   15.9359   40.6443 C   0  0  0  0  0  0  0  0  0  0  0  0
    0.4280   20.3908   41.3213 C   0  0  0  0  0  0  0  0  0  0  0  0
    1.3046   12.8725   42.6432 C   0  0  0  0  0  0  0  0  0  0  0  0
    3.1111   18.0716   38.2924 C   0  0  0  0  0  0  0  0  0  0  0  0
   -1.7853   18.3815   44.8360 O   0  0  0  0  0  0  0  0  0  0  0  0
    1.7616   17.4081   40.5847 C   0  0  0  0  0  0  0  0  0  0  0  0
    2.3665   20.5024   38.4747 C   0  0  0  0  0  0  0  0  0  0  0  0
    2.8831   17.1366   38.7663 O   0  0  0  0  0  0  0  0  0  0  0  0
    0.3881   16.8633   42.3869 N   0  0  0  0  0  0  0  0  0  0  0  0
    3.9799   19.6791   36.7411 C   0  0  0  0  0  0  0  0  0  0  0  0
   -1.0283   18.3273   43.8225 C   0  0  0  0  0  0  0  0  0  0  0  0
    2.0887   18.4691   39.9387 C   0  0  0  0  0  0  0  0  0  0  0  0
    2.9980   14.8325   40.1050 C   0  0  0  0  0  0  0  0  0  0  0  0
    3.9597   18.3510   37.2240 C   0  0  0  0  0  0  0  0  0  0  0  0
   -1.0468   20.6588   43.1419 N   0  0  0  0  0  0  0  0  0  0  0  0
    2.3209   19.2399   38.9603 C   0  0  0  0  0  0  0  0  0  0  0  0
   -0.5260   16.9576   43.4580 C   0  0  0  0  0  0  0  0  0  0  0  0
    2.8010   13.6065   40.9690 N   0  0  0  0  0  0  0  0  0  0  0  0
   -0.4730   21.2670   42.2018 C   0  0  0  0  0  0  0  0  0  0  0  0
    0.2639   19.1368   42.0058 C   0  0  0  0  0  0  0  0  0  0  0  0
    0.7874   17.8396   41.7621 C   0  0  0  0  0  0  0  0  0  0  0  0
    3.1304   20.6405   37.3072 C   0  0  0  0  0  0  0  0  0  0  0  0
    0.8727   15.8606   42.3430 H   0  0  0  0  0  0  0  0  0  0  0  0
    5.0223   14.7805   39.3618 H   0  0  0  0  0  0  0  0  0  0  0  0
    3.8355   13.8740   38.3636 H   0  0  0  0  0  0  0  0  0  0  0  0
    3.8640   15.6694   38.3155 H   0  0  0  0  0  0  0  0  0  0  0  0
    2.6649   14.1435   42.5084 H   0  0  0  0  0  0  0  0  0  0  0  0
    1.0225   20.6459   40.4315 H   0  0  0  0  0  0  0  0  0  0  0  0
    1.3222   13.2385   43.6804 H   0  0  0  0  0  0  0  0  0  0  0  0
    0.2644   12.6877   42.3371 H   0  0  0  0  0  0  0  0  0  0  0  0
    1.8787   11.9367   42.5748 H   0  0  0  0  0  0  0  0  0  0  0  0
    1.8494   21.3465   38.9542 H   0  0  0  0  0  0  0  0  0  0  0  0
    4.6605   19.9580   35.9231 H   0  0  0  0  0  0  0  0  0  0  0  0
    4.5892   17.5692   36.7738 H   0  0  0  0  0  0  0  0  0  0  0  0
   -1.6929   21.0481   43.8433 H   0  0  0  0  0  0  0  0  0  0  0  0
   -1.4012   16.3436   43.1994 H   0  0  0  0  0  0  0  0  0  0  0  0
    0.0396   16.6223   44.3399 H   0  0  0  0  0  0  0  0  0  0  0  0
   -0.6068   22.3443   42.0247 H   0  0  0  0  0  0  0  0  0  0  0  0
  1 20  1  0
  1 16  1  0
  3 18  1  0
  4  2  1  0
  4  8  1  0
  5 27  1  0
  6 11  1  0
  6  2  2  0
  7 25  1  0
  7 24  2  0
  9 13  2  0
  9 21  1  0
 11 26  1  0
 12 21  1  0
 14 22  1  0
 15 19  2  0
 15 27  1  0
 16 10  2  0
 17 11  2  0
 18  6  1  0
 18 23  2  0
 19  9  1  0
 21 17  2  0
 22 16  1  0
 23  4  1  0
 24 20  1  0
 25  1  2  0
 26 25  1  0
 26 14  2  0
 27 12  2  0
  2 28  1  0
  3 29  1  0
  3 30  1  0
  3 31  1  0
  4 32  1  1
  7 33  1  0
  8 34  1  0
  8 35  1  0
  8 36  1  0
 12 37  1  0
 15 38  1  0
 19 39  1  0
 20 40  1  0
 22 41  1  0
 22 42  1  0
 24 43  1  0
M  END
>  <mol_id>  (46) 
2026-08-23-6tgu-s0-n100-prep-0047

>  <rmsd_to_ref>  (46) 


$$$$

     RDKit          3D

 59 62  0  0  0  0  0  0  0  0999 V2000
    2.7264   18.2638   39.0004 C   0  0  0  0  0  0  0  0  0  0  0  0
    3.1007   15.7322   38.1304 C   0  0  0  0  0  0  0  0  0  0  0  0
   -1.2154   14.1569   45.2020 N   0  0  0  0  0  0  0  0  0  0  0  0
   -0.6206   11.9298   43.4755 S   0  0  0  0  0  4  0  0  0  0  0  0
    2.3309   17.1637   39.8159 N   0  0  0  0  0  0  0  0  0  0  0  0
   -1.6624   14.0547   47.4902 O   0  0  0  0  0  0  0  0  0  0  0  0
    0.8676   14.3256   42.4938 C   0  0  0  0  0  0  0  0  0  0  0  0
    2.3329   12.3901   40.7843 C   0  0  0  0  0  0  0  0  0  0  0  0
    0.5375   12.9322   42.5923 C   0  0  2  0  0  0  0  0  0  0  0  0
    3.6972   18.9943   36.7861 N   0  0  0  0  0  0  0  0  0  0  0  0
   -0.3555   19.0085   43.4371 C   0  0  2  0  0  0  0  0  0  0  0  0
    2.3847   20.2781   38.8864 C   0  0  0  0  0  0  0  0  0  0  0  0
   -0.7964   18.0441   44.8204 S   0  0  0  0  0  0  0  0  0  0  0  0
    2.5003   20.7513   37.7459 C   0  0  0  0  0  0  0  0  0  0  0  0
    3.4151   16.7910   37.4011 C   0  0  0  0  0  0  0  0  0  0  0  0
   -1.4287   14.8195   46.4786 C   0  0  0  0  0  0  0  0  0  0  0  0
   -1.4615   12.7092   44.9562 C   0  0  0  0  0  0  0  0  0  0  0  0
   -0.1655   17.2783   43.4285 C   0  0  0  0  0  0  0  0  0  0  0  0
   -1.3681   16.2025   46.5527 O   0  0  0  0  0  0  0  0  0  0  0  0
    0.3852   19.6004   42.3069 C   0  0  0  0  0  0  0  0  0  0  0  0
    1.8099   19.9475   40.2560 C   0  0  0  0  0  0  0  0  0  0  0  0
    2.6941   13.4279   39.9676 C   0  0  0  0  0  0  0  0  0  0  0  0
   -2.6841   12.1021   45.5434 C   0  0  0  0  0  0  0  0  0  0  0  0
    1.5220   14.9650   41.4377 C   0  0  0  0  0  0  0  0  0  0  0  0
   -1.4265   17.2639   47.4558 C   0  0  0  0  0  0  0  0  0  0  0  0
    3.9055   21.0109   35.7608 O   0  0  0  0  0  0  0  0  0  0  0  0
    1.0765   18.9441   41.2491 N   0  0  0  0  0  0  0  0  0  0  0  0
    1.4605   12.2132   41.7896 C   0  0  0  0  0  0  0  0  0  0  0  0
    2.2665   14.6672   40.3284 C   0  0  0  0  0  0  0  0  0  0  0  0
    3.3700   20.3067   36.6922 C   0  0  0  0  0  0  0  0  0  0  0  0
    2.5504   15.9022   39.4195 C   0  0  0  0  0  0  0  0  0  0  0  0
    0.5185   20.8734   42.0810 N   0  0  0  0  0  0  0  0  0  0  0  0
    3.2428   18.1608   37.8034 C   0  0  0  0  0  0  0  0  0  0  0  0
    1.1549   21.0309   40.9077 C   0  0  0  0  0  0  0  0  0  0  0  0
    2.5868   19.2756   39.4086 H   0  0  0  0  0  0  0  0  0  0  0  0
    3.2680   14.7205   37.7323 H   0  0  0  0  0  0  0  0  0  0  0  0
   -0.8713   14.7266   44.4159 H   0  0  0  0  0  0  0  0  0  0  0  0
   -0.8905   10.6419   43.0941 H   0  0  0  0  0  0  0  0  0  0  0  0
    0.5732   14.9596   43.3431 H   0  0  0  0  0  0  0  0  0  0  0  0
    2.8980   11.4730   40.5615 H   0  0  0  0  0  0  0  0  0  0  0  0
    1.2614   12.8186   43.4126 H   0  0  0  0  0  0  0  0  0  0  0  0
    4.3149   18.5930   36.0661 H   0  0  0  0  0  0  0  0  0  0  0  0
   -0.6837   20.0582   43.4165 H   0  0  0  0  0  0  0  0  0  0  0  0
    1.8602   21.6150   37.5131 H   0  0  0  0  0  0  0  0  0  0  0  0
    3.8438   16.6080   36.4048 H   0  0  0  0  0  0  0  0  0  0  0  0
   -0.8210   16.6581   42.7995 H   0  0  0  0  0  0  0  0  0  0  0  0
    0.6729   16.5930   43.2354 H   0  0  0  0  0  0  0  0  0  0  0  0
    3.3004   13.2670   39.0639 H   0  0  0  0  0  0  0  0  0  0  0  0
   -2.6177   12.1325   46.6410 H   0  0  0  0  0  0  0  0  0  0  0  0
   -3.5686   12.6669   45.2138 H   0  0  0  0  0  0  0  0  0  0  0  0
   -2.7710   11.0574   45.2102 H   0  0  0  0  0  0  0  0  0  0  0  0
    1.3999   16.0547   41.5258 H   0  0  0  0  0  0  0  0  0  0  0  0
   -1.4274   16.8714   48.4833 H   0  0  0  0  0  0  0  0  0  0  0  0
   -0.5519   17.9155   47.3129 H   0  0  0  0  0  0  0  0  0  0  0  0
   -2.3464   17.8418   47.2832 H   0  0  0  0  0  0  0  0  0  0  0  0
    1.4619   11.1558   42.0927 H   0  0  0  0  0  0  0  0  0  0  0  0
    0.1920   21.6322   42.6963 H   0  0  0  0  0  0  0  0  0  0  0  0
    1.9230   21.8005   41.0742 H   0  0  0  0  0  0  0  0  0  0  0  0
    0.3240   21.2475   40.2201 H   0  0  0  0  0  0  0  0  0  0  0  0
  1  5  2  0
  2 31  2  0
  3 16  1  0
  4 17  2  3
  7  9  1  0
  8 28  2  0
  9  4  1  0
 10 33  1  0
 11 20  1  0
 11 18  1  0
 11 13  1  0
 12 21  2  0
 14 12  2  0
 15 33  2  0
 15  2  1  0
 16 19  1  0
 16  6  2  0
 17  3  1  0
 17 23  1  0
 18 13  1  0
 19 25  1  0
 21 34  1  0
 21 27  1  0
 22 29  2  0
 22  8  1  0
 24  7  2  0
 26 30  2  0
 27 20  2  0
 28  9  1  0
 29 24  1  0
 30 10  1  0
 30 14  1  0
 31  5  1  0
 31 29  1  0
 32 20  1  0
 33  1  1  0
 34 32  1  0
  1 35  1  0
  2 36  1  0
  3 37  1  0
  4 38  1  0
  7 39  1  0
  8 40  1  0
  9 41  1  6
 10 42  1  0
 11 43  1  6
 14 44  1  0
 15 45  1  0
 18 46  1  0
 18 47  1  0
 22 48  1  0
 23 49  1  0
 23 50  1  0
 23 51  1  0
 24 52  1  0
 25 53  1  0
 25 54  1  0
 25 55  1  0
 28 56  1  0
 32 57  1  0
 34 58  1  0
 34 59  1  0
M  END
>  <mol_id>  (47) 
2026-08-23-6tgu-s0-n100-prep-0048

>  <rmsd_to_ref>  (47) 


$$$$

     RDKit          3D

 30 32  0  0  0  0  0  0  0  0999 V2000
    0.5234   20.4063   41.9726 C   0  0  0  0  0  0  0  0  0  0  0  0
    1.2577   18.0824   41.3219 C   0  0  0  0  0  0  0  0  0  0  0  0
    0.4037   17.6546   42.5000 C   0  0  0  0  0  0  0  0  0  0  0  0
    3.1302   19.5776   37.7627 C   0  0  0  0  0  0  0  0  0  0  0  0
    3.9888   19.0860   37.1072 O   0  0  0  0  0  0  0  0  0  0  0  0
    2.5645   20.6713   37.3984 O   0  0  0  0  0  0  0  0  0  0  0  0
   -0.2511   19.9072   42.9770 N   0  0  0  0  0  0  0  0  0  0  0  0
    3.9691   13.0987   38.4972 C   0  0  0  0  0  0  0  0  0  0  0  0
    1.2243   19.4950   41.0589 C   0  0  0  0  0  0  0  0  0  0  0  0
    1.9719   19.8851   39.9699 C   0  0  0  0  0  0  0  0  0  0  0  0
    2.6369   19.0211   39.1064 C   0  0  0  0  0  0  0  0  0  0  0  0
    2.1810   15.7561   40.6069 C   0  0  0  0  0  0  0  0  0  0  0  0
    3.3560   13.7448   39.6057 C   0  0  0  0  0  0  0  0  0  0  0  0
    0.4701   16.3634   42.7628 O   0  0  0  0  0  0  0  0  0  0  0  0
    0.6064   21.6038   41.7839 O   0  0  0  0  0  0  0  0  0  0  0  0
    3.8035   16.3433   38.6815 S   0  0  0  0  0  0  0  0  0  0  0  0
   -0.3212   18.5681   43.2214 C   0  0  0  0  0  0  0  0  0  0  0  0
    2.7914   17.6385   39.4058 C   0  0  0  0  0  0  0  0  0  0  0  0
    2.9981   15.1887   39.7025 C   0  0  0  0  0  0  0  0  0  0  0  0
    2.0468   17.1928   40.5028 C   0  0  0  0  0  0  0  0  0  0  0  0
   -0.7949   20.5558   43.5639 H   0  0  0  0  0  0  0  0  0  0  0  0
    4.6617   12.3252   38.8607 H   0  0  0  0  0  0  0  0  0  0  0  0
    3.1948   12.6323   37.8704 H   0  0  0  0  0  0  0  0  0  0  0  0
    4.5252   13.8389   37.9030 H   0  0  0  0  0  0  0  0  0  0  0  0
    2.0489   20.9635   39.7673 H   0  0  0  0  0  0  0  0  0  0  0  0
    1.6519   15.1693   41.3721 H   0  0  0  0  0  0  0  0  0  0  0  0
    2.4111   13.2045   39.7648 H   0  0  0  0  0  0  0  0  0  0  0  0
    4.1925   13.7158   40.3194 H   0  0  0  0  0  0  0  0  0  0  0  0
   -0.0513   15.9837   43.5138 H   0  0  0  0  0  0  0  0  0  0  0  0
   -0.9815   18.2081   44.0242 H   0  0  0  0  0  0  0  0  0  0  0  0
  1  7  1  0
  2  3  1  0
  3 14  1  0
  3 17  2  0
  4 11  1  0
  5  4  2  0
  6  4  1  0
  7 17  1  0
  8 13  1  0
  9  2  1  0
  9  1  1  0
 10  9  2  0
 11 18  2  0
 11 10  1  0
 12 20  1  0
 13 19  1  0
 15  1  2  0
 16 18  1  0
 16 19  1  0
 18 20  1  0
 19 12  2  0
 20  2  2  0
  7 21  1  0
  8 22  1  0
  8 23  1  0
  8 24  1  0
 10 25  1  0
 12 26  1  0
 13 27  1  0
 13 28  1  0
 14 29  1  0
 17 30  1  0
M  CHG  1   6  -1
M  END
>  <mol_id>  (48) 
2026-08-23-6tgu-s0-n100-prep-0049

>  <rmsd_to_ref>  (48) 


$$$$

     RDKit          3D

 46 48  0  0  0  0  0  0  0  0999 V2000
    1.1430   16.4300   42.5930 O   0  0  0  0  0  0  0  0  0  0  0  0
    3.4890   20.8760   36.0490 O   0  0  0  0  0  0  0  0  0  0  0  0
    1.3360   18.4990   41.4800 C   0  0  0  0  0  0  0  0  0  0  0  0
    1.4810   20.8090   40.2090 C   0  0  0  0  0  0  0  0  0  0  0  0
    1.6630   15.2580   42.2670 C   0  0  2  0  0  0  0  0  0  0  0  0
    2.8150   19.4130   39.9710 C   0  0  2  0  0  0  0  0  0  0  0  0
    1.8070   21.2020   38.8900 C   0  0  0  0  0  0  0  0  0  0  0  0
    3.7900   18.2060   36.5450 O   0  0  0  0  0  0  0  0  0  0  0  0
   -0.2790   14.7710   43.2510 C   0  0  1  0  0  0  0  0  0  0  0  0
    3.1610   17.9700   39.9300 C   0  0  0  0  0  0  0  0  0  0  0  0
    0.0680   13.9590   44.3920 O   0  0  0  0  0  0  0  0  0  0  0  0
    2.7300   20.0640   38.1230 C   0  0  0  0  0  0  0  0  0  0  0  0
   -0.2630   19.2780   43.5010 C   0  0  0  0  0  0  0  0  0  0  0  0
    3.1890   20.4940   36.9050 C   0  0  0  0  0  0  0  0  0  0  0  0
    3.3030   18.2450   37.9470 C   0  0  0  0  0  0  0  0  0  0  0  0
   -0.5530   16.9580   44.6340 C   0  0  0  0  0  0  0  0  0  0  0  0
    2.1410   18.4910   40.0160 C   0  0  1  0  0  0  0  0  0  0  0  0
    2.9280   14.6130   41.1960 C   0  0  0  0  0  0  0  0  0  0  0  0
   -0.9120   16.2890   45.8260 O   0  0  0  0  0  0  0  0  0  0  0  0
   -0.0950   16.1400   43.3940 C   0  0  1  0  0  0  0  0  0  0  0  0
   -0.8330   18.3660   44.4650 N   0  0  0  0  0  0  0  0  0  0  0  0
    0.5140   14.3060   42.0810 C   0  0  0  0  0  0  0  0  0  0  0  0
    0.6060   18.9470   42.4770 C   0  0  0  0  0  0  0  0  0  0  0  0
    4.0910   21.6425   36.2226 H   0  0  0  0  0  0  0  0  0  0  0  0
    0.4506   20.4492   40.3459 H   0  0  0  0  0  0  0  0  0  0  0  0
    1.4998   21.5085   41.0578 H   0  0  0  0  0  0  0  0  0  0  0  0
    2.4018   15.4400   43.0614 H   0  0  0  0  0  0  0  0  0  0  0  0
    0.8768   21.3487   38.3215 H   0  0  0  0  0  0  0  0  0  0  0  0
    2.3875   22.1348   38.9438 H   0  0  0  0  0  0  0  0  0  0  0  0
    4.7768   18.1270   36.5405 H   0  0  0  0  0  0  0  0  0  0  0  0
   -1.3634   14.6387   43.1223 H   0  0  0  0  0  0  0  0  0  0  0  0
    3.4817   17.4799   38.9989 H   0  0  0  0  0  0  0  0  0  0  0  0
    3.7759   17.2435   40.4814 H   0  0  0  0  0  0  0  0  0  0  0  0
   -0.1427   14.4520   45.2242 H   0  0  0  0  0  0  0  0  0  0  0  0
   -0.5471   20.3370   43.5896 H   0  0  0  0  0  0  0  0  0  0  0  0
    2.6348   19.6982   36.3858 H   0  0  0  0  0  0  0  0  0  0  0  0
    4.1510   20.7662   37.3637 H   0  0  0  0  0  0  0  0  0  0  0  0
    2.4668   17.5466   38.0987 H   0  0  0  0  0  0  0  0  0  0  0  0
    4.0602   17.9462   38.6868 H   0  0  0  0  0  0  0  0  0  0  0  0
    1.3009   18.1891   39.3732 H   0  0  0  0  0  0  0  0  0  0  0  0
    3.7451   14.1964   41.8032 H   0  0  0  0  0  0  0  0  0  0  0  0
    2.5026   13.8217   40.5612 H   0  0  0  0  0  0  0  0  0  0  0  0
    3.3186   15.4220   40.5612 H   0  0  0  0  0  0  0  0  0  0  0  0
   -0.9598   16.7213   43.0415 H   0  0  0  0  0  0  0  0  0  0  0  0
   -0.0112   14.4580   41.1265 H   0  0  0  0  0  0  0  0  0  0  0  0
    0.7576   13.2341   42.0392 H   0  0  0  0  0  0  0  0  0  0  0  0
  1 20  1  0
  2 14  1  0
  3 23  3  0
  5 18  1  0
  5  1  1  0
  6 10  1  1
  6 17  1  0
  6  4  1  0
  7  4  1  0
  8 15  1  0
  9 20  1  0
  9 11  1  0
 10 17  1  0
 12  7  1  0
 12  6  1  0
 13 21  2  3
 14 12  1  0
 15 12  1  0
 16 19  2  0
 17  3  1  0
 20 16  1  0
 21 16  1  0
 22  5  1  0
 22  9  1  0
 23 13  1  0
  2 24  1  0
  4 25  1  0
  4 26  1  0
  5 27  1  1
  7 28  1  0
  7 29  1  0
  8 30  1  0
  9 31  1  6
 10 32  1  0
 10 33  1  0
 11 34  1  0
 13 35  1  0
 14 36  1  0
 14 37  1  0
 15 38  1  0
 15 39  1  0
 17 40  1  6
 18 41  1  0
 18 42  1  0
 18 43  1  0
 20 44  1  6
 22 45  1  0
 22 46  1  0
M  END
>  <mol_id>  (49) 
2026-08-23-6tgu-s0-n100-prep-0050

>  <rmsd_to_ref>  (49) 


$$$$

     RDKit          3D

 15 15  0  0  0  0  0  0  0  0999 V2000
    0.8537   18.3928   40.9932 N   0  0  0  0  0  0  0  0  0  0  0  0
    1.2863   17.6890   41.8394 O   0  0  0  0  0  0  0  0  0  0  0  0
    1.6583   19.0677   40.0653 C   0  0  0  0  0  0  0  0  0  0  0  0
    2.7415   18.3955   39.6588 C   0  0  0  0  0  0  0  0  0  0  0  0
   -0.3703   18.4926   40.9263 O   0  0  0  0  0  0  0  0  0  0  0  0
    1.8980   20.7489   38.3829 C   0  0  0  0  0  0  0  0  0  0  0  0
    1.1786   20.2489   39.4836 C   0  0  0  0  0  0  0  0  0  0  0  0
    3.0153   19.9591   37.8741 C   0  0  0  0  0  0  0  0  0  0  0  0
    3.4476   18.8907   38.4538 C   0  0  0  0  0  0  0  0  0  0  0  0
    3.4938   20.3344   36.6415 O   0  0  0  0  0  0  0  0  0  0  0  0
    3.0955   17.5059   40.2004 H   0  0  0  0  0  0  0  0  0  0  0  0
    1.6261   21.7084   37.9185 H   0  0  0  0  0  0  0  0  0  0  0  0
    0.2837   20.7598   39.8686 H   0  0  0  0  0  0  0  0  0  0  0  0
    4.3251   18.3567   38.0605 H   0  0  0  0  0  0  0  0  0  0  0  0
    3.1535   21.1567   36.2077 H   0  0  0  0  0  0  0  0  0  0  0  0
  1  5  1  0
  1  2  2  0
  3  1  1  0
  4  3  2  0
  6  7  2  0
  7  3  1  0
  8  9  2  0
  8  6  1  0
  9  4  1  0
 10  8  1  0
  4 11  1  0
  6 12  1  0
  7 13  1  0
  9 14  1  0
 10 15  1  0
M  CHG  2   1   1   5  -1
M  END
>  <mol_id>  (50) 
2026-08-23-6tgu-s0-n100-prep-0051

>  <rmsd_to_ref>  (50) 


$$$$

     RDKit          3D

 36 39  0  0  0  0  0  0  0  0999 V2000
    1.9184   21.3308   36.9643 O   0  0  0  0  0  0  0  0  0  0  0  0
    2.4607   20.2035   38.7013 C   0  0  0  0  0  0  0  0  0  0  0  0
    2.3953   17.2628   40.1892 N   0  0  0  0  0  0  0  0  0  0  0  0
    3.1282   20.7091   36.7633 C   0  0  0  0  0  0  0  0  0  0  0  0
    3.4424   19.9866   37.8516 N   0  0  0  0  0  0  0  0  0  0  0  0
    3.6732   15.0629   40.2615 N   0  0  0  0  0  0  0  0  0  0  0  0
   -0.8641   20.1390   41.6336 C   0  0  0  0  0  0  0  0  0  0  0  0
    0.5240   18.6435   41.1442 C   0  0  0  0  0  0  0  0  0  0  0  0
   -1.6015   19.8698   42.6003 C   0  0  0  0  0  0  0  0  0  0  0  0
   -1.6445   18.6671   43.2786 C   0  0  0  0  0  0  0  0  0  0  0  0
    1.4253   21.0252   38.2515 C   0  0  0  0  0  0  0  0  0  0  0  0
    3.3263   13.9413   40.6764 C   0  0  0  0  0  0  0  0  0  0  0  0
    1.7606   18.4556   40.4421 C   0  0  0  0  0  0  0  0  0  0  0  0
   -0.0804   17.6477   41.9101 C   0  0  0  0  0  0  0  0  0  0  0  0
    4.0283   12.9419   40.9736 O   0  0  0  0  0  0  0  0  0  0  0  0
    0.6893   16.4492   41.6833 N   0  0  0  0  0  0  0  0  0  0  0  0
    2.6841   16.1964   40.0520 C   0  0  1  0  0  0  0  0  0  0  0  0
   -0.9750   17.6042   42.9403 N   0  0  0  0  0  0  0  0  0  0  0  0
   -2.4938   18.7140   44.1292 O   0  0  0  0  0  0  0  0  0  0  0  0
    3.7184   20.8248   35.7559 O   0  0  0  0  0  0  0  0  0  0  0  0
    2.1099   13.7643   41.3191 O   0  0  0  0  0  0  0  0  0  0  0  0
    2.3476   19.6598   40.0256 O   0  0  0  0  0  0  0  0  0  0  0  0
    1.6973   16.3584   40.9670 C   0  0  2  0  0  0  0  0  0  0  0  0
    0.1744   19.8011   40.9518 N   0  0  0  0  0  0  0  0  0  0  0  0
    4.6681   15.2282   40.0525 H   0  0  0  0  0  0  0  0  0  0  0  0
   -1.6143   20.1571   40.8292 H   0  0  0  0  0  0  0  0  0  0  0  0
   -0.2343   20.7615   42.2861 H   0  0  0  0  0  0  0  0  0  0  0  0
   -1.3615   20.6236   43.3647 H   0  0  0  0  0  0  0  0  0  0  0  0
   -2.5746   19.8315   42.0887 H   0  0  0  0  0  0  0  0  0  0  0  0
    1.3151   21.9255   38.8739 H   0  0  0  0  0  0  0  0  0  0  0  0
    0.4226   20.5734   38.2755 H   0  0  0  0  0  0  0  0  0  0  0  0
    3.0371   15.8492   39.0698 H   0  0  0  0  0  0  0  0  0  0  0  0
   -1.1211   16.7231   43.4536 H   0  0  0  0  0  0  0  0  0  0  0  0
    0.9436   16.2564   40.1723 H   0  0  0  0  0  0  0  0  0  0  0  0
    0.9523   20.4248   41.2102 H   0  0  0  0  0  0  0  0  0  0  0  0
   -0.0743   19.8834   39.9557 H   0  0  0  0  0  0  0  0  0  0  0  0
  1 11  1  0
  2 22  1  0
  3 13  1  0
  3 23  1  0
  4  1  1  0
  4  5  1  0
  5  2  2  0
  6 12  1  0
  7  9  1  0
  8 14  1  0
  9 10  1  0
 10 19  2  0
 11  2  1  0
 12 15  2  0
 12 21  1  0
 13  8  2  0
 14 18  1  0
 16 14  2  0
 17  6  1  0
 17  3  1  0
 17 23  1  0
 18 10  1  0
 20  4  2  0
 22 13  1  0
 23 16  1  0
 24  8  1  0
 24  7  1  0
  6 25  1  0
  7 26  1  0
  7 27  1  0
  9 28  1  0
  9 29  1  0
 11 30  1  0
 11 31  1  0
 17 32  1  6
 18 33  1  0
 23 34  1  1
 24 35  1  0
 24 36  1  0
M  CHG  2  21  -1  24   1
M  END
>  <mol_id>  (51) 
2026-08-23-6tgu-s0-n100-prep-0052

>  <rmsd_to_ref>  (51) 


$$$$

     RDKit          3D

 37 40  0  0  0  0  0  0  0  0999 V2000
    1.6368   19.0236   40.3736 C   0  0  0  0  0  0  0  0  0  0  0  0
    1.9011   13.2974   41.8266 N   0  0  0  0  0  0  0  0  0  0  0  0
    1.3818   12.5437   42.7803 C   0  0  0  0  0  0  0  0  0  0  0  0
    0.7395   18.6371   41.3360 C   0  0  0  0  0  0  0  0  0  0  0  0
    0.4662   16.5505   42.7103 C   0  0  0  0  0  0  0  0  0  0  0  0
    3.1247   20.6301   35.9252 C   0  0  0  0  0  0  0  0  0  0  0  0
    0.6636   21.0612   41.1948 S   0  0  0  0  0  0  0  0  0  0  0  0
    0.9035   12.9794   43.7930 O   0  0  0  0  0  0  0  0  0  0  0  0
    2.2424   17.8615   39.9268 O   0  0  0  0  0  0  0  0  0  0  0  0
    3.1513   14.9853   39.9029 O   0  0  0  0  0  0  0  0  0  0  0  0
    0.9613   17.3189   41.6462 C   0  0  0  0  0  0  0  0  0  0  0  0
    1.5544   21.3363   37.6182 C   0  0  0  0  0  0  0  0  0  0  0  0
    1.6693   14.6429   41.7886 C   0  0  0  0  0  0  0  0  0  0  0  0
    2.2692   15.4763   40.7655 C   0  0  0  0  0  0  0  0  0  0  0  0
    2.0819   21.4165   36.3320 N   0  0  0  0  0  0  0  0  0  0  0  0
    1.5467   20.4504   39.9616 C   0  0  2  0  0  0  0  0  0  0  0  0
    0.8016   15.2166   42.7837 C   0  0  0  0  0  0  0  0  0  0  0  0
    1.8672   16.8092   40.7938 C   0  0  0  0  0  0  0  0  0  0  0  0
    3.6191   19.6354   36.8134 C   0  0  0  0  0  0  0  0  0  0  0  0
    0.0886   19.8108   41.9531 C   0  0  0  0  0  0  0  0  0  0  0  0
    3.0836   19.5024   38.1598 C   0  0  0  0  0  0  0  0  0  0  0  0
    2.0698   20.4236   38.4809 C   0  0  0  0  0  0  0  0  0  0  0  0
    1.2637   11.0091   42.5384 C   0  0  0  0  0  0  0  0  0  0  0  0
    2.4895   12.8635   41.1010 H   0  0  0  0  0  0  0  0  0  0  0  0
   -0.1802   17.0064   43.4747 H   0  0  0  0  0  0  0  0  0  0  0  0
    3.5726   20.7645   34.9295 H   0  0  0  0  0  0  0  0  0  0  0  0
    3.3947   14.0262   39.9357 H   0  0  0  0  0  0  0  0  0  0  0  0
    0.7347   22.0005   37.9296 H   0  0  0  0  0  0  0  0  0  0  0  0
    1.8037   21.5086   39.8062 H   0  0  0  0  0  0  0  0  0  0  0  0
    0.4081   14.5922   43.5993 H   0  0  0  0  0  0  0  0  0  0  0  0
    4.4174   18.9571   36.4779 H   0  0  0  0  0  0  0  0  0  0  0  0
   -1.0028   19.7545   41.8279 H   0  0  0  0  0  0  0  0  0  0  0  0
    0.2863   19.8641   43.0339 H   0  0  0  0  0  0  0  0  0  0  0  0
    3.4428   18.7427   38.8696 H   0  0  0  0  0  0  0  0  0  0  0  0
    1.2024   10.4891   43.5058 H   0  0  0  0  0  0  0  0  0  0  0  0
    0.3576   10.7992   41.9512 H   0  0  0  0  0  0  0  0  0  0  0  0
    2.1478   10.6557   41.9875 H   0  0  0  0  0  0  0  0  0  0  0  0
  1  4  2  0
  2  3  1  0
  3  8  2  0
  4 11  1  0
  4 20  1  0
  5 17  1  0
  6 15  2  0
  6 19  1  0
  7 20  1  0
  9  1  1  0
  9 18  1  0
 10 14  1  0
 11  5  2  0
 12 22  2  0
 13  2  1  0
 13 17  2  0
 14 18  2  0
 14 13  1  0
 15 12  1  0
 16 22  1  0
 16  1  1  0
 16  7  1  0
 18 11  1  0
 19 21  2  0
 21 22  1  0
 23  3  1  0
  2 24  1  0
  5 25  1  0
  6 26  1  0
 10 27  1  0
 12 28  1  0
 16 29  1  1
 17 30  1  0
 19 31  1  0
 20 32  1  0
 20 33  1  0
 21 34  1  0
 23 35  1  0
 23 36  1  0
 23 37  1  0
M  END
>  <mol_id>  (52) 
2026-08-23-6tgu-s0-n100-prep-0053

>  <rmsd_to_ref>  (52) 


$$$$

     RDKit          3D

 25 25  0  0  0  0  0  0  0  0999 V2000
    3.5792   20.1511   37.7785 F   0  0  0  0  0  0  0  0  0  0  0  0
    2.8142   17.8617   40.3527 C   0  0  0  0  0  0  0  0  0  0  0  0
    2.7177   19.7167   38.8694 C   0  0  0  0  0  0  0  0  0  0  0  0
    1.6632   20.4511   38.9724 C   0  0  0  0  0  0  0  0  0  0  0  0
    0.7352   19.0774   40.8581 C   0  0  0  0  0  0  0  0  0  0  0  0
    0.7961   20.1215   40.0076 C   0  0  0  0  0  0  0  0  0  0  0  0
   -0.2165   19.0948   41.7387 O   0  0  0  0  0  0  0  0  0  0  0  0
    1.6229   18.0733   40.7677 C   0  0  1  0  0  0  0  0  0  0  0  0
    0.7675   16.4154   42.6040 C   0  0  0  0  0  0  0  0  0  0  0  0
    3.3640   18.7401   39.4929 C   0  0  0  0  0  0  0  0  0  0  0  0
    0.9882   16.7408   41.2424 N   0  0  0  0  0  0  0  0  0  0  0  0
   -0.3741   15.3932   42.7389 C   0  0  0  0  0  0  0  0  0  0  0  0
    3.3781   16.9800   40.6913 H   0  0  0  0  0  0  0  0  0  0  0  0
    1.4623   21.2858   38.2847 H   0  0  0  0  0  0  0  0  0  0  0  0
   -0.0017   20.8624   40.1645 H   0  0  0  0  0  0  0  0  0  0  0  0
   -0.3050   18.3515   42.3866 H   0  0  0  0  0  0  0  0  0  0  0  0
    2.0152   18.3306   41.7627 H   0  0  0  0  0  0  0  0  0  0  0  0
    0.5014   17.3292   43.1554 H   0  0  0  0  0  0  0  0  0  0  0  0
    1.6874   15.9757   43.0168 H   0  0  0  0  0  0  0  0  0  0  0  0
    4.4405   18.6396   39.2903 H   0  0  0  0  0  0  0  0  0  0  0  0
    0.0644   16.6931   40.7894 H   0  0  0  0  0  0  0  0  0  0  0  0
    1.7288   16.0689   40.9953 H   0  0  0  0  0  0  0  0  0  0  0  0
   -0.5943   15.2279   43.8039 H   0  0  0  0  0  0  0  0  0  0  0  0
   -1.2725   15.7781   42.2342 H   0  0  0  0  0  0  0  0  0  0  0  0
   -0.0719   14.4426   42.2751 H   0  0  0  0  0  0  0  0  0  0  0  0
  1  3  1  0
  2  8  1  0
  3  4  2  0
  3 10  1  0
  4  6  1  0
  5  7  1  0
  6  5  2  0
  8  5  1  0
  8 11  1  0
  9 12  1  0
 10  2  2  0
 11  9  1  0
  2 13  1  0
  4 14  1  0
  6 15  1  0
  7 16  1  0
  8 17  1  1
  9 18  1  0
  9 19  1  0
 10 20  1  0
 11 21  1  0
 11 22  1  0
 12 23  1  0
 12 24  1  0
 12 25  1  0
M  CHG  1  11   1
M  END
>  <mol_id>  (53) 
2026-08-23-6tgu-s0-n100-prep-0054

>  <rmsd_to_ref>  (53) 


$$$$

     RDKit          3D

 23 23  0  0  0  0  0  0  0  0999 V2000
    3.1673   20.4535   36.6582 O   0  0  0  0  0  0  0  0  0  0  0  0
    1.8558   21.0015   38.9764 C   0  0  0  0  0  0  0  0  0  0  0  0
    1.6865   16.8543   41.6960 C   0  0  0  0  0  0  0  0  0  0  0  0
    0.7214   20.2786   40.9763 C   0  0  0  0  0  0  0  0  0  0  0  0
    0.9242   21.2169   40.0296 C   0  0  0  0  0  0  0  0  0  0  0  0
    3.8077   17.4046   39.0708 O   0  0  0  0  0  0  0  0  0  0  0  0
    3.0908   17.7602   39.9698 N   0  0  0  0  0  0  0  0  0  0  0  0
    4.5602   19.1726   37.7151 O   0  0  0  0  0  0  0  0  0  0  0  0
    2.5738   19.8766   38.8746 C   0  0  0  0  0  0  0  0  0  0  0  0
    1.0211   15.4833   42.5086 S   0  0  0  0  0  0  0  0  0  0  0  0
   -0.2451   20.2988   41.9068 O   0  0  0  0  0  0  0  0  0  0  0  0
    2.5402   18.9999   39.9506 C   0  0  0  0  0  0  0  0  0  0  0  0
    3.3506   19.5357   37.5113 C   0  0  0  0  0  0  0  0  0  0  0  0
    1.4917   19.1389   40.9004 C   0  0  0  0  0  0  0  0  0  0  0  0
    1.1962   18.0578   41.7349 N   0  0  0  0  0  0  0  0  0  0  0  0
    2.8743   21.2791   37.1194 H   0  0  0  0  0  0  0  0  0  0  0  0
    1.9910   21.7874   38.2187 H   0  0  0  0  0  0  0  0  0  0  0  0
    2.5966   16.6970   41.0987 H   0  0  0  0  0  0  0  0  0  0  0  0
    0.3618   22.1614   40.0720 H   0  0  0  0  0  0  0  0  0  0  0  0
    4.7237   19.1016   38.6889 H   0  0  0  0  0  0  0  0  0  0  0  0
    0.9753   15.7287   43.8556 H   0  0  0  0  0  0  0  0  0  0  0  0
   -0.3155   19.5615   42.5636 H   0  0  0  0  0  0  0  0  0  0  0  0
    2.9144   18.6370   37.0508 H   0  0  0  0  0  0  0  0  0  0  0  0
  1 13  1  0
  2  5  2  0
  3 15  2  3
  3 10  1  0
  4 11  1  0
  5  4  1  0
  6  7  2  0
  7 12  1  0
  9  2  1  0
  9 12  2  0
 12 14  1  0
 13  8  1  0
 13  9  1  0
 14  4  2  0
 14 15  1  0
  1 16  1  0
  2 17  1  0
  3 18  1  0
  5 19  1  0
  8 20  1  0
 10 21  1  0
 11 22  1  0
 13 23  1  0
M  END
>  <mol_id>  (54) 
2026-08-23-6tgu-s0-n100-prep-0055

>  <rmsd_to_ref>  (54) 


$$$$

     RDKit          3D

 30 30  0  0  0  0  0  0  0  0999 V2000
   -0.5691   19.2441   41.9790 C   0  0  0  0  0  0  0  0  0  0  0  0
    0.8288   20.6602   39.5352 C   0  0  0  0  0  0  0  0  0  0  0  0
    0.5768   16.8111   43.1078 O   0  0  0  0  0  0  0  0  0  0  0  0
    2.0286   18.5926   39.3528 C   0  0  0  0  0  0  0  0  0  0  0  0
    1.4397   21.1360   38.4031 C   0  0  0  0  0  0  0  0  0  0  0  0
    3.8541   18.0912   37.4608 S   0  0  0  0  0  4  0  0  0  0  0  0
    3.7963   16.6897   36.7877 O   0  0  0  0  0  0  0  0  0  0  0  0
    3.9752   18.7849   36.5380 O   0  0  0  0  0  0  0  0  0  0  0  0
    2.6474   19.0748   38.1975 C   0  0  0  0  0  0  0  0  0  0  0  0
    0.5177   18.8603   41.2422 C   0  0  0  0  0  0  0  0  0  0  0  0
   -0.5118   17.2292   43.5919 C   0  0  0  0  0  0  0  0  0  0  0  0
    2.3736   20.3713   37.7223 C   0  0  0  0  0  0  0  0  0  0  0  0
    3.0082   20.8840   36.6733 O   0  0  0  0  0  0  0  0  0  0  0  0
   -1.1297   18.4349   43.0853 C   0  0  0  0  0  0  0  0  0  0  0  0
   -1.1768   16.3428   44.4175 N   0  0  0  0  0  0  0  0  0  0  0  0
    1.1095   19.3975   40.0151 C   0  0  0  0  0  0  0  0  0  0  0  0
    4.9099   18.0503   38.3681 O   0  0  0  0  0  0  0  0  0  0  0  0
   -1.0513   20.2028   41.7373 H   0  0  0  0  0  0  0  0  0  0  0  0
    0.1048   21.2941   40.0680 H   0  0  0  0  0  0  0  0  0  0  0  0
    2.2658   17.5883   39.7339 H   0  0  0  0  0  0  0  0  0  0  0  0
    1.1847   22.1390   38.0302 H   0  0  0  0  0  0  0  0  0  0  0  0
    3.7557   15.9894   37.4863 H   0  0  0  0  0  0  0  0  0  0  0  0
    4.1477   19.7111   36.8419 H   0  0  0  0  0  0  0  0  0  0  0  0
    1.0458   17.9844   41.6471 H   0  0  0  0  0  0  0  0  0  0  0  0
    3.6760   20.3406   36.1846 H   0  0  0  0  0  0  0  0  0  0  0  0
   -1.2065   19.1162   43.9455 H   0  0  0  0  0  0  0  0  0  0  0  0
   -2.0345   18.0264   42.6116 H   0  0  0  0  0  0  0  0  0  0  0  0
   -2.0719   16.6136   44.8494 H   0  0  0  0  0  0  0  0  0  0  0  0
   -0.7774   15.4113   44.6010 H   0  0  0  0  0  0  0  0  0  0  0  0
    4.5554   17.9019   39.2805 H   0  0  0  0  0  0  0  0  0  0  0  0
  1 14  1  0
  2 16  1  0
  3 11  2  0
  4 16  2  0
  5  2  2  0
  6  9  1  0
  6 17  1  0
  7  6  1  0
  8  6  1  0
  9  4  1  0
 10  1  2  3
 11 15  1  0
 12  5  1  0
 12  9  2  0
 13 12  1  0
 14 11  1  0
 16 10  1  0
  1 18  1  0
  2 19  1  0
  4 20  1  0
  5 21  1  0
  7 22  1  0
  8 23  1  0
 10 24  1  0
 13 25  1  0
 14 26  1  0
 14 27  1  0
 15 28  1  0
 15 29  1  0
 17 30  1  0
M  END
>  <mol_id>  (55) 
2026-08-23-6tgu-s0-n100-prep-0056

>  <rmsd_to_ref>  (55) 


$$$$

     RDKit          3D

 35 37  0  0  0  0  0  0  0  0999 V2000
    4.0552   19.4865   36.3817 O   0  0  0  0  0  0  0  0  0  0  0  0
    1.1739   20.2478   40.5853 C   0  0  0  0  0  0  0  0  0  0  0  0
    2.8663   17.1303   39.1525 C   0  0  0  0  0  0  0  0  0  0  0  0
    2.7366   15.9434   39.8846 N   0  0  0  0  0  0  0  0  0  0  0  0
    2.4191   18.3828   39.5758 N   0  0  0  0  0  0  0  0  0  0  0  0
   -0.3123   20.0674   42.4573 C   0  0  0  0  0  0  0  0  0  0  0  0
    0.8692   15.6739   43.0795 S   0  0  0  0  0  0  0  0  0  0  0  0
   -1.1329   20.7233   43.3523 O   0  0  0  0  0  0  0  0  0  0  0  0
    0.9117   18.0580   41.5994 C   0  0  0  0  0  0  0  0  0  0  0  0
   -1.0215   17.9646   43.4642 C   0  0  0  0  0  0  0  0  0  0  0  0
    1.6389   14.3052   42.8152 C   0  0  0  0  0  0  0  0  0  0  0  0
    2.4741   20.3193   37.9388 C   0  0  0  0  0  0  0  0  0  0  0  0
    1.5133   18.8572   40.6444 C   0  0  0  0  0  0  0  0  0  0  0  0
    3.3434   16.8267   37.9964 O   0  0  0  0  0  0  0  0  0  0  0  0
    2.9504   21.3503   35.8638 O   0  0  0  0  0  0  0  0  0  0  0  0
   -0.0989   18.6626   42.5281 C   0  0  0  0  0  0  0  0  0  0  0  0
    2.2378   14.3362   41.6243 C   0  0  0  0  0  0  0  0  0  0  0  0
    3.1985   20.4060   36.6675 C   0  0  0  0  0  0  0  0  0  0  0  0
    0.3139   20.7952   41.4174 C   0  0  0  0  0  0  0  0  0  0  0  0
    3.2190   19.3870   38.8480 C   0  0  0  0  0  0  0  0  0  0  0  0
    2.0947   15.6511   41.0534 C   0  0  0  0  0  0  0  0  0  0  0  0
    1.2969   16.5158   41.8622 C   0  0  0  0  0  0  0  0  0  0  0  0
    1.6479   20.8789   39.8191 H   0  0  0  0  0  0  0  0  0  0  0  0
    3.2173   15.1373   39.4603 H   0  0  0  0  0  0  0  0  0  0  0  0
   -1.2630   21.7020   43.2792 H   0  0  0  0  0  0  0  0  0  0  0  0
   -0.7964   18.2702   44.4967 H   0  0  0  0  0  0  0  0  0  0  0  0
   -2.0608   18.2308   43.2213 H   0  0  0  0  0  0  0  0  0  0  0  0
   -0.8892   16.8770   43.3666 H   0  0  0  0  0  0  0  0  0  0  0  0
    1.6719   13.4566   43.5143 H   0  0  0  0  0  0  0  0  0  0  0  0
    1.4593   19.9333   37.7622 H   0  0  0  0  0  0  0  0  0  0  0  0
    2.3997   21.3155   38.3992 H   0  0  0  0  0  0  0  0  0  0  0  0
    2.7592   13.4906   41.1520 H   0  0  0  0  0  0  0  0  0  0  0  0
    0.0719   21.8618   41.2999 H   0  0  0  0  0  0  0  0  0  0  0  0
    3.9560   18.8453   38.2369 H   0  0  0  0  0  0  0  0  0  0  0  0
    3.6495   20.0312   39.6288 H   0  0  0  0  0  0  0  0  0  0  0  0
  1 18  1  0
  2 19  2  0
  3  5  1  0
  3  4  1  0
  4 21  1  0
  5 13  1  0
  6 16  2  0
  6  8  1  0
  9 22  1  0
  9 16  1  0
 11  7  1  0
 12 20  1  0
 13  2  1  0
 13  9  2  0
 14  3  2  0
 15 18  2  0
 16 10  1  0
 17 11  2  0
 18 12  1  0
 19  6  1  0
 20  5  1  0
 21 17  1  0
 21 22  2  0
 22  7  1  0
  2 23  1  0
  4 24  1  0
  8 25  1  0
 10 26  1  0
 10 27  1  0
 10 28  1  0
 11 29  1  0
 12 30  1  0
 12 31  1  0
 17 32  1  0
 19 33  1  0
 20 34  1  0
 20 35  1  0
M  CHG  1   1  -1
M  END
>  <mol_id>  (56) 
2026-08-23-6tgu-s0-n100-prep-0057

>  <rmsd_to_ref>  (56) 


$$$$

     RDKit          3D

 41 43  0  0  0  0  0  0  0  0999 V2000
   -1.5113   18.8391   43.4395 S   0  0  0  0  0  6  0  0  0  0  0  0
    3.6206   19.7303   36.3181 C   0  0  0  0  0  0  0  0  0  0  0  0
    0.4724   19.0071   41.3919 C   0  0  0  0  0  0  0  0  0  0  0  0
    4.0523   20.6256   35.5706 O   0  0  0  0  0  0  0  0  0  0  0  0
    2.9295   17.8568   38.6965 C   0  0  0  0  0  0  0  0  0  0  0  0
    1.1434   15.7120   42.2956 C   0  0  0  0  0  0  0  0  0  0  0  0
    2.5909   19.2469   38.4990 C   0  0  1  0  0  0  0  0  0  0  0  0
   -0.4305   20.2111   41.8503 C   0  0  0  0  0  0  0  0  0  0  0  0
   -0.9013   19.6064   44.5470 O   0  0  0  0  0  0  0  0  0  0  0  0
   -1.8687   20.0176   42.1817 C   0  0  0  0  0  0  0  0  0  0  0  0
   -2.5559   17.6080   43.9388 O   0  0  0  0  0  0  0  0  0  0  0  0
    2.0304   19.9753   39.7495 S   0  0  0  0  0  0  0  0  0  0  0  0
    0.2395   21.3547   41.8324 N   0  0  0  0  0  0  0  0  0  0  0  0
    2.7523   20.0155   37.3804 C   0  0  0  0  0  0  0  0  0  0  0  0
    1.7338   14.3793   42.3426 C   0  0  0  0  0  0  0  0  0  0  0  0
    1.6435   16.5182   41.0617 C   0  0  0  0  0  0  0  0  0  0  0  0
    0.3182   16.6254   43.0936 C   0  0  0  0  0  0  0  0  0  0  0  0
    3.6813   16.9543   37.8666 C   0  0  0  0  0  0  0  0  0  0  0  0
    4.0801   17.3687   36.6811 C   0  0  0  0  0  0  0  0  0  0  0  0
    1.7620   17.8237   40.9585 C   0  0  0  0  0  0  0  0  0  0  0  0
   -0.1789   17.9974   42.5770 C   0  0  0  0  0  0  0  0  0  0  0  0
    1.4295   19.0402   40.7725 C   0  0  0  0  0  0  0  0  0  0  0  0
    2.6018   13.3087   42.0169 C   0  0  0  0  0  0  0  0  0  0  0  0
    4.0606   18.3629   36.0294 C   0  0  0  0  0  0  0  0  0  0  0  0
    4.0528   15.3366   38.3855 Cl  0  0  0  0  0  0  0  0  0  0  0  0
    2.5518   17.4179   39.6318 H   0  0  0  0  0  0  0  0  0  0  0  0
    1.5698   18.9570   38.2102 H   0  0  0  0  0  0  0  0  0  0  0  0
   -2.3569   20.9276   42.5606 H   0  0  0  0  0  0  0  0  0  0  0  0
   -2.5663   19.7408   41.3776 H   0  0  0  0  0  0  0  0  0  0  0  0
   -0.2278   22.2298   42.1095 H   0  0  0  0  0  0  0  0  0  0  0  0
    3.0582   21.0058   37.7489 H   0  0  0  0  0  0  0  0  0  0  0  0
    1.7827   19.8484   36.8885 H   0  0  0  0  0  0  0  0  0  0  0  0
    1.9560   14.3870   43.4199 H   0  0  0  0  0  0  0  0  0  0  0  0
    1.1984   14.1638   41.4063 H   0  0  0  0  0  0  0  0  0  0  0  0
    1.9298   15.9302   40.1772 H   0  0  0  0  0  0  0  0  0  0  0  0
    0.0381   16.3193   44.1124 H   0  0  0  0  0  0  0  0  0  0  0  0
    4.5775   16.5551   36.1327 H   0  0  0  0  0  0  0  0  0  0  0  0
    2.9706   12.8412   42.9417 H   0  0  0  0  0  0  0  0  0  0  0  0
    2.0559   12.5623   41.4211 H   0  0  0  0  0  0  0  0  0  0  0  0
    3.4532   13.6911   41.4346 H   0  0  0  0  0  0  0  0  0  0  0  0
    4.4495   18.2301   35.0091 H   0  0  0  0  0  0  0  0  0  0  0  0
  1 11  2  0
  1  9  2  0
  2 14  1  0
  3  8  1  0
  3 21  2  0
  4  2  2  0
  6 17  2  0
  7  5  1  0
  7 12  1  0
  8 13  2  3
  8 10  1  0
 10  1  1  0
 12 22  1  0
 14  7  1  0
 15  6  1  0
 16  6  1  0
 18 25  1  0
 18  5  2  0
 19 18  1  0
 20 16  2  0
 21 17  1  0
 21  1  1  0
 22 20  2  0
 22  3  1  0
 23 15  1  0
 24  2  1  0
 24 19  2  0
  5 26  1  0
  7 27  1  6
 10 28  1  0
 10 29  1  0
 13 30  1  0
 14 31  1  0
 14 32  1  0
 15 33  1  0
 15 34  1  0
 16 35  1  0
 17 36  1  0
 19 37  1  0
 23 38  1  0
 23 39  1  0
 23 40  1  0
 24 41  1  0
M  END
>  <mol_id>  (57) 
2026-08-23-6tgu-s0-n100-prep-0058

>  <rmsd_to_ref>  (57) 


$$$$

     RDKit          3D

 32 34  0  0  0  0  0  0  0  0999 V2000
    1.0206   20.4371   39.8071 C   0  0  0  0  0  0  0  0  0  0  0  0
   -0.6687   18.7066   43.1722 N   0  0  0  0  0  0  0  0  0  0  0  0
    3.7662   18.9875   36.9379 C   0  0  0  0  0  0  0  0  0  0  0  0
    0.0333   15.0557   43.2235 C   0  0  0  0  0  0  0  0  0  0  0  0
    0.9159   17.0962   41.6702 C   0  0  0  0  0  0  0  0  0  0  0  0
    1.4685   19.0459   40.0887 C   0  0  0  0  0  0  0  0  0  0  0  0
    2.3698   20.5432   37.8273 C   0  0  0  0  0  0  0  0  0  0  0  0
   -1.3703   16.9319   44.4501 O   0  0  0  0  0  0  0  0  0  0  0  0
    3.4362   21.5189   35.7955 O   0  0  0  0  0  0  0  0  0  0  0  0
   -0.7100   17.3740   43.4649 C   0  0  0  0  0  0  0  0  0  0  0  0
    3.1768   20.4788   36.6922 N   0  0  0  0  0  0  0  0  0  0  0  0
    2.9521   19.1881   38.1829 C   0  0  0  0  0  0  0  0  0  0  0  0
    2.4598   18.4972   39.2574 C   0  0  0  0  0  0  0  0  0  0  0  0
    0.1331   16.5012   42.6763 C   0  0  2  0  0  0  0  0  0  0  0  0
    0.8367   18.4058   41.2699 C   0  0  0  0  0  0  0  0  0  0  0  0
    1.8393   16.1735   40.9861 N   0  0  0  0  0  0  0  0  0  0  0  0
   -0.0393   19.2138   42.1164 C   0  0  0  0  0  0  0  0  0  0  0  0
    1.4367   21.2195   38.6786 C   0  0  0  0  0  0  0  0  0  0  0  0
    0.3188   20.8997   40.5167 H   0  0  0  0  0  0  0  0  0  0  0  0
    4.8550   18.9059   37.0713 H   0  0  0  0  0  0  0  0  0  0  0  0
    3.6932   18.1374   36.2436 H   0  0  0  0  0  0  0  0  0  0  0  0
   -0.0279   15.0827   44.3215 H   0  0  0  0  0  0  0  0  0  0  0  0
   -0.8672   14.5714   42.8179 H   0  0  0  0  0  0  0  0  0  0  0  0
    0.9242   14.4863   42.9198 H   0  0  0  0  0  0  0  0  0  0  0  0
    3.5859   22.3585   36.2983 H   0  0  0  0  0  0  0  0  0  0  0  0
    2.8485   17.4914   39.4747 H   0  0  0  0  0  0  0  0  0  0  0  0
   -0.6474   16.2744   41.9350 H   0  0  0  0  0  0  0  0  0  0  0  0
    2.3113   15.5804   41.6835 H   0  0  0  0  0  0  0  0  0  0  0  0
    1.3095   15.5795   40.3324 H   0  0  0  0  0  0  0  0  0  0  0  0
    2.5426   16.7158   40.4644 H   0  0  0  0  0  0  0  0  0  0  0  0
   -0.1826   20.2767   41.8719 H   0  0  0  0  0  0  0  0  0  0  0  0
    1.0742   22.2399   38.4857 H   0  0  0  0  0  0  0  0  0  0  0  0
  1  6  1  0
  2 10  1  0
  3 12  1  0
  5 14  1  0
  6 15  1  0
  7 12  2  0
  7 18  1  0
  9 11  1  0
 10  8  2  0
 11  3  1  0
 11  7  1  0
 12 13  1  0
 13  6  2  0
 14  4  1  0
 14 10  1  0
 15  5  2  0
 15 17  1  0
 16  5  1  0
 17  2  2  0
 18  1  2  0
  1 19  1  0
  3 20  1  0
  3 21  1  0
  4 22  1  0
  4 23  1  0
  4 24  1  0
  9 25  1  0
 13 26  1  0
 14 27  1  6
 16 28  1  0
 16 29  1  0
 16 30  1  0
 17 31  1  0
 18 32  1  0
M  CHG  1  16   1
M  END
>  <mol_id>  (58) 
2026-08-23-6tgu-s0-n100-prep-0059

>  <rmsd_to_ref>  (58) 


$$$$

     RDKit          3D

 49 51  0  0  0  0  0  0  0  0999 V2000
    2.7109   15.7770   40.9227 N   0  0  0  0  0  0  0  0  0  0  0  0
    3.8351   18.5428   37.7414 C   0  0  0  0  0  0  0  0  0  0  0  0
    3.1987   14.5864   38.9930 O   0  0  0  0  0  0  0  0  0  0  0  0
    2.3758   20.4115   38.1888 C   0  0  0  0  0  0  0  0  0  0  0  0
    1.8646   15.2875   41.8669 C   0  0  0  0  0  0  0  0  0  0  0  0
   -0.7437   12.2731   44.6740 C   0  0  0  0  0  0  0  0  0  0  0  0
    0.1823   15.7816   43.5229 C   0  0  0  0  0  0  0  0  0  0  0  0
    4.3568   19.1357   36.6193 C   0  0  0  0  0  0  0  0  0  0  0  0
    3.8892   20.3874   36.3240 C   0  0  0  0  0  0  0  0  0  0  0  0
    0.2176   14.3928   43.8977 C   0  0  0  0  0  0  0  0  0  0  0  0
    2.8956   19.1412   38.5119 C   0  0  0  0  0  0  0  0  0  0  0  0
    0.4357   11.5610   45.2382 C   0  0  0  0  0  0  0  0  0  0  0  0
   -0.5825   16.6232   44.2766 C   0  0  0  0  0  0  0  0  0  0  0  0
    4.1651   17.1560   38.0815 N   0  0  0  0  0  0  0  0  0  0  0  0
    1.8081   13.9924   42.1725 C   0  0  0  0  0  0  0  0  0  0  0  0
    3.4681   16.7801   38.9148 N   0  0  0  0  0  0  0  0  0  0  0  0
    2.3299   22.1647   36.6386 N   0  0  0  0  0  0  0  0  0  0  0  0
    1.0539   16.2330   42.5304 C   0  0  0  0  0  0  0  0  0  0  0  0
    3.1429   15.6508   39.6257 C   0  0  0  0  0  0  0  0  0  0  0  0
    0.2851   18.4751   42.9851 C   0  0  0  0  0  0  0  0  0  0  0  0
    0.3714   19.8818   42.9202 O   0  0  0  0  0  0  0  0  0  0  0  0
   -0.5268   18.0019   43.9814 C   0  0  0  0  0  0  0  0  0  0  0  0
    0.9638   13.5949   43.1227 N   0  0  0  0  0  0  0  0  0  0  0  0
    1.0865   17.6368   42.2356 C   0  0  0  0  0  0  0  0  0  0  0  0
    2.8528   20.9976   37.0458 C   0  0  0  0  0  0  0  0  0  0  0  0
    1.2368   20.5696   41.9949 C   0  0  0  0  0  0  0  0  0  0  0  0
   -0.6197   13.7471   44.8283 N   0  0  0  0  0  0  0  0  0  0  0  0
    3.2383   16.5512   41.3509 H   0  0  0  0  0  0  0  0  0  0  0  0
    1.6252   20.9068   38.8223 H   0  0  0  0  0  0  0  0  0  0  0  0
   -1.6495   11.9345   45.1983 H   0  0  0  0  0  0  0  0  0  0  0  0
   -0.8022   12.0437   43.5997 H   0  0  0  0  0  0  0  0  0  0  0  0
    5.1083   18.6332   35.9925 H   0  0  0  0  0  0  0  0  0  0  0  0
    4.3444   20.9371   35.4870 H   0  0  0  0  0  0  0  0  0  0  0  0
    2.5294   18.6239   39.4110 H   0  0  0  0  0  0  0  0  0  0  0  0
    0.3429   11.5082   46.3330 H   0  0  0  0  0  0  0  0  0  0  0  0
    0.4816   10.5427   44.8246 H   0  0  0  0  0  0  0  0  0  0  0  0
    1.3540   12.1058   44.9739 H   0  0  0  0  0  0  0  0  0  0  0  0
   -1.2205   16.2402   45.0866 H   0  0  0  0  0  0  0  0  0  0  0  0
    4.9112   16.6003   37.6393 H   0  0  0  0  0  0  0  0  0  0  0  0
    2.4465   13.2649   41.6499 H   0  0  0  0  0  0  0  0  0  0  0  0
    2.8842   17.5627   39.2425 H   0  0  0  0  0  0  0  0  0  0  0  0
    1.5691   22.6036   37.1765 H   0  0  0  0  0  0  0  0  0  0  0  0
    2.6893   22.6214   35.7883 H   0  0  0  0  0  0  0  0  0  0  0  0
   -1.1436   18.7059   44.5592 H   0  0  0  0  0  0  0  0  0  0  0  0
    1.7304   18.0331   41.4366 H   0  0  0  0  0  0  0  0  0  0  0  0
    1.9925   21.1402   42.5545 H   0  0  0  0  0  0  0  0  0  0  0  0
    1.7375   19.8356   41.3464 H   0  0  0  0  0  0  0  0  0  0  0  0
    0.6407   21.2577   41.3776 H   0  0  0  0  0  0  0  0  0  0  0  0
   -1.1150   14.2635   45.5693 H   0  0  0  0  0  0  0  0  0  0  0  0
  1  5  1  0
  2 14  1  0
  2 11  1  0
  3 19  2  0
  4 11  2  0
  5 15  1  0
  5 18  2  0
  6 27  1  0
  6 12  1  0
  7 10  2  0
  7 13  1  0
  8  2  2  0
  9  8  1  0
  9 25  2  0
 10 27  1  0
 14 16  1  0
 15 23  2  0
 16 19  1  0
 17 25  1  0
 18  7  1  0
 19  1  1  0
 20 22  1  0
 21 20  1  0
 22 13  2  0
 23 10  1  0
 24 18  1  0
 24 20  2  0
 25  4  1  0
 26 21  1  0
  1 28  1  0
  4 29  1  0
  6 30  1  0
  6 31  1  0
  8 32  1  0
  9 33  1  0
 11 34  1  0
 12 35  1  0
 12 36  1  0
 12 37  1  0
 13 38  1  0
 14 39  1  0
 15 40  1  0
 16 41  1  0
 17 42  1  0
 17 43  1  0
 22 44  1  0
 24 45  1  0
 26 46  1  0
 26 47  1  0
 26 48  1  0
 27 49  1  0
M  END
>  <mol_id>  (59) 
2026-08-23-6tgu-s0-n100-prep-0060

>  <rmsd_to_ref>  (59) 


$$$$

     RDKit          3D

 24 25  0  0  0  0  0  0  0  0999 V2000
    3.1713   21.1360   36.4829 O   0  0  0  0  0  0  0  0  0  0  0  0
    2.6992   18.4258   38.5603 N   0  0  0  0  0  0  0  0  0  0  0  0
    0.7310   18.7460   41.5790 C   0  0  0  0  0  0  0  0  0  0  0  0
    3.6813   19.0151   36.1798 O   0  0  0  0  0  0  0  0  0  0  0  0
   -1.0310   16.3086   43.5739 C   0  0  0  0  0  0  0  0  0  0  0  0
    2.7460   19.7330   38.2225 C   0  0  0  0  0  0  0  0  0  0  0  0
    0.7237   16.4363   40.9946 C   0  0  0  0  0  0  0  0  0  0  0  0
   -0.7191   18.7565   43.4324 N   0  0  0  0  0  0  0  0  0  0  0  0
    0.3641   17.4684   41.7825 C   0  0  0  0  0  0  0  0  0  0  0  0
    2.2535   20.7009   38.8980 O   0  0  0  0  0  0  0  0  0  0  0  0
    1.5587   16.6487   39.8161 C   0  0  0  0  0  0  0  0  0  0  0  0
    0.1450   19.5743   42.6496 C   0  0  0  0  0  0  0  0  0  0  0  0
    3.2613   19.9840   36.8490 C   0  0  0  0  0  0  0  0  0  0  0  0
    1.5958   19.0276   40.4349 C   0  0  0  0  0  0  0  0  0  0  0  0
   -0.3855   17.4467   42.8801 N   0  0  0  0  0  0  0  0  0  0  0  0
    1.9408   17.9883   39.6223 C   0  0  0  0  0  0  0  0  0  0  0  0
    3.2419   17.7431   38.0124 H   0  0  0  0  0  0  0  0  0  0  0  0
   -0.8181   16.3676   44.6516 H   0  0  0  0  0  0  0  0  0  0  0  0
   -2.1183   16.3495   43.4122 H   0  0  0  0  0  0  0  0  0  0  0  0
   -0.6360   15.3633   43.1734 H   0  0  0  0  0  0  0  0  0  0  0  0
    0.3837   15.4200   41.2427 H   0  0  0  0  0  0  0  0  0  0  0  0
    1.8616   15.8349   39.1410 H   0  0  0  0  0  0  0  0  0  0  0  0
    0.3423   20.6437   42.8155 H   0  0  0  0  0  0  0  0  0  0  0  0
    1.9573   20.0471   40.2352 H   0  0  0  0  0  0  0  0  0  0  0  0
  1 13  2  0
  2 16  1  0
  3  9  1  0
  3 12  1  0
  4 13  1  0
  6 10  2  0
  6  2  1  0
  7  9  2  0
  9 15  1  0
 11  7  1  0
 12  8  2  0
 13  6  1  0
 14  3  2  0
 15  8  1  0
 15  5  1  0
 16 11  2  0
 16 14  1  0
  2 17  1  0
  5 18  1  0
  5 19  1  0
  5 20  1  0
  7 21  1  0
 11 22  1  0
 12 23  1  0
 14 24  1  0
M  CHG  1   4  -1
M  END
>  <mol_id>  (60) 
2026-08-23-6tgu-s0-n100-prep-0061

>  <rmsd_to_ref>  (60) 


$$$$

     RDKit          3D

 47 50  0  0  0  0  0  0  0  0999 V2000
    3.9930   14.0488   36.8632 C   0  0  0  0  0  0  0  0  0  0  0  0
    3.3013   13.9055   38.0193 C   0  0  0  0  0  0  0  0  0  0  0  0
    2.8859   15.1139   38.7150 C   0  0  0  0  0  0  0  0  0  0  0  0
    3.0023   20.0623   36.1013 O   0  0  0  0  0  0  0  0  0  0  0  0
   -0.0938   17.1969   44.3546 C   0  0  0  0  0  0  0  0  0  0  0  0
   -1.0451   18.8742   44.9713 N   0  0  0  0  0  0  0  0  0  0  0  0
    1.9384   19.7764   38.2276 C   0  0  1  0  0  0  0  0  0  0  0  0
    2.4234   17.4379   39.0606 C   0  0  0  0  0  0  0  0  0  0  0  0
    2.9825   16.3976   38.2738 C   0  0  0  0  0  0  0  0  0  0  0  0
   -1.2718   18.0068   46.2017 C   0  0  0  0  0  0  0  0  0  0  0  0
    0.6692   18.4748   41.8961 C   0  0  0  0  0  0  0  0  0  0  0  0
    1.9984   17.9542   40.0283 N   0  0  0  0  0  0  0  0  0  0  0  0
   -0.9245   16.0239   47.1612 C   0  0  0  0  0  0  0  0  0  0  0  0
    0.3266   16.5246   43.3456 C   0  0  0  0  0  0  0  0  0  0  0  0
    2.5129   18.6101   38.2746 N   0  0  0  0  0  0  0  0  0  0  0  0
    0.0469   19.1475   42.9037 C   0  0  0  0  0  0  0  0  0  0  0  0
    1.2233   20.0065   39.3852 C   0  0  0  0  0  0  0  0  0  0  0  0
    1.3299   18.9923   40.3575 C   0  0  1  0  0  0  0  0  0  0  0  0
    4.3073   15.3263   36.3536 C   0  0  0  0  0  0  0  0  0  0  0  0
    3.7168   16.4399   36.9588 C   0  0  0  0  0  0  0  0  0  0  0  0
    0.9138   17.1163   42.0998 C   0  0  0  0  0  0  0  0  0  0  0  0
    2.0709   20.4588   36.9519 C   0  0  0  0  0  0  0  0  0  0  0  0
   -0.6598   16.7207   45.7649 C   0  0  2  0  0  0  0  0  0  0  0  0
    4.2824   13.0131   36.1479 O   0  0  0  0  0  0  0  0  0  0  0  0
   -0.1918   18.4626   43.9697 C   0  0  0  0  0  0  0  0  0  0  0  0
    3.5591   17.5515   36.2608 O   0  0  0  0  0  0  0  0  0  0  0  0
    1.3583   21.3344   36.5244 O   0  0  0  0  0  0  0  0  0  0  0  0
    3.0617   12.9089   38.4186 H   0  0  0  0  0  0  0  0  0  0  0  0
    2.4430   14.9737   39.7120 H   0  0  0  0  0  0  0  0  0  0  0  0
   -1.5337   19.7769   44.8863 H   0  0  0  0  0  0  0  0  0  0  0  0
    1.0083   19.3041   37.8784 H   0  0  0  0  0  0  0  0  0  0  0  0
   -0.7601   18.4176   47.0845 H   0  0  0  0  0  0  0  0  0  0  0  0
   -2.3249   17.9247   46.5087 H   0  0  0  0  0  0  0  0  0  0  0  0
   -0.5012   16.6429   47.9660 H   0  0  0  0  0  0  0  0  0  0  0  0
   -2.0078   15.9121   47.3157 H   0  0  0  0  0  0  0  0  0  0  0  0
   -0.4482   15.0323   47.1723 H   0  0  0  0  0  0  0  0  0  0  0  0
    0.2501   15.4285   43.3991 H   0  0  0  0  0  0  0  0  0  0  0  0
    3.2275   18.5144   37.5390 H   0  0  0  0  0  0  0  0  0  0  0  0
   -0.2341   20.2073   42.8138 H   0  0  0  0  0  0  0  0  0  0  0  0
    1.5845   20.9457   39.8295 H   0  0  0  0  0  0  0  0  0  0  0  0
    0.1637   20.0441   39.0922 H   0  0  0  0  0  0  0  0  0  0  0  0
    1.1362   20.0580   40.5492 H   0  0  0  0  0  0  0  0  0  0  0  0
    4.9970   15.4429   35.5047 H   0  0  0  0  0  0  0  0  0  0  0  0
    1.5016   16.5163   41.3896 H   0  0  0  0  0  0  0  0  0  0  0  0
   -0.3571   15.7392   45.3711 H   0  0  0  0  0  0  0  0  0  0  0  0
    4.7880   13.1203   35.3035 H   0  0  0  0  0  0  0  0  0  0  0  0
    3.1420   18.3449   36.6811 H   0  0  0  0  0  0  0  0  0  0  0  0
  1  2  1  0
  2  3  2  0
  4 22  2  0
  5 23  1  0
  6 10  1  0
  7 22  1  0
  7 15  1  0
  7 17  1  0
  8 12  2  0
  9  3  1  0
  9  8  1  0
 11 21  1  0
 11 16  2  0
 12 18  1  0
 14  5  1  0
 15  8  1  0
 16 25  1  0
 17 18  1  0
 18 11  1  0
 19  1  2  0
 19 20  1  0
 20  9  2  0
 21 14  2  0
 23 10  1  0
 23 13  1  0
 24  1  1  0
 25  5  2  0
 25  6  1  0
 26 20  1  0
 27 22  1  0
  2 28  1  0
  3 29  1  0
  6 30  1  0
  7 31  1  1
 10 32  1  0
 10 33  1  0
 13 34  1  0
 13 35  1  0
 13 36  1  0
 14 37  1  0
 15 38  1  0
 16 39  1  0
 17 40  1  0
 17 41  1  0
 18 42  1  1
 19 43  1  0
 21 44  1  0
 23 45  1  6
 24 46  1  0
 26 47  1  0
M  CHG  1  27  -1
M  END
>  <mol_id>  (61) 
2026-08-23-6tgu-s0-n100-prep-0062

>  <rmsd_to_ref>  (61) 


$$$$

     RDKit          3D

 46 49  0  0  0  0  0  0  0  0999 V2000
    3.2354   20.1919   36.0136 O   0  0  0  0  0  0  0  0  0  0  0  0
    1.3509   17.6303   41.0598 C   0  0  0  0  0  0  0  0  0  0  0  0
    2.6744   20.1464   37.1795 C   0  0  0  0  0  0  0  0  0  0  0  0
    2.6546   16.9584   38.8499 C   0  0  0  0  0  0  0  0  0  0  0  0
    1.4905   20.2989   39.6145 N   0  0  0  0  0  0  0  0  0  0  0  0
    0.7294   18.6344   41.5800 N   0  0  0  0  0  0  0  0  0  0  0  0
    2.9968   14.8628   37.5377 C   0  0  0  0  0  0  0  0  0  0  0  0
   -0.4305   19.8752   43.1125 C   0  0  0  0  0  0  0  0  0  0  0  0
    2.0312   17.8314   39.7686 C   0  0  2  0  0  0  0  0  0  0  0  0
    3.0830   15.4445   38.7961 C   0  0  0  0  0  0  0  0  0  0  0  0
   -0.1532   15.0135   44.8679 C   0  0  0  0  0  0  0  0  0  0  0  0
    2.1458   21.3562   37.6095 C   0  0  0  0  0  0  0  0  0  0  0  0
    0.0174   17.4106   43.4824 C   0  0  1  0  0  0  0  0  0  0  0  0
    1.9837   15.3614   41.2932 O   0  0  0  0  0  0  0  0  0  0  0  0
    0.1592   18.5942   42.6935 N   0  0  0  0  0  0  0  0  0  0  0  0
    0.4362   15.0669   43.6197 C   0  0  0  0  0  0  0  0  0  0  0  0
    0.5783   16.2526   42.9778 C   0  0  0  0  0  0  0  0  0  0  0  0
   -0.7021   16.2448   45.3836 C   0  0  0  0  0  0  0  0  0  0  0  0
    2.0136   19.0846   39.2487 C   0  0  0  0  0  0  0  0  0  0  0  0
   -0.5654   17.4157   44.6924 C   0  0  0  0  0  0  0  0  0  0  0  0
    2.5425   19.0160   38.0089 C   0  0  0  0  0  0  0  0  0  0  0  0
    2.7877   17.7532   37.8136 C   0  0  0  0  0  0  0  0  0  0  0  0
    1.5511   21.4285   38.8444 C   0  0  0  0  0  0  0  0  0  0  0  0
    1.3561   16.3858   41.7431 C   0  0  0  0  0  0  0  0  0  0  0  0
    0.3668   20.9472   42.4063 C   0  0  0  0  0  0  0  0  0  0  0  0
    3.6396   19.3752   35.6267 H   0  0  0  0  0  0  0  0  0  0  0  0
    2.9817   13.7677   37.6402 H   0  0  0  0  0  0  0  0  0  0  0  0
    2.0739   15.1974   37.0415 H   0  0  0  0  0  0  0  0  0  0  0  0
    3.8666   15.1627   36.9348 H   0  0  0  0  0  0  0  0  0  0  0  0
   -1.4882   19.9256   42.8142 H   0  0  0  0  0  0  0  0  0  0  0  0
   -0.3955   19.9986   44.2050 H   0  0  0  0  0  0  0  0  0  0  0  0
    1.0735   17.7001   39.2435 H   0  0  0  0  0  0  0  0  0  0  0  0
    4.1262   15.3709   39.1372 H   0  0  0  0  0  0  0  0  0  0  0  0
    2.3784   14.8983   39.4405 H   0  0  0  0  0  0  0  0  0  0  0  0
   -0.2019   14.0764   45.4420 H   0  0  0  0  0  0  0  0  0  0  0  0
    2.2032   22.2473   36.9673 H   0  0  0  0  0  0  0  0  0  0  0  0
   -0.9582   17.2149   43.0134 H   0  0  0  0  0  0  0  0  0  0  0  0
    1.9655   14.5091   41.7966 H   0  0  0  0  0  0  0  0  0  0  0  0
    0.7925   14.1416   43.1435 H   0  0  0  0  0  0  0  0  0  0  0  0
   -1.2371   16.2406   46.3447 H   0  0  0  0  0  0  0  0  0  0  0  0
   -0.9311   18.3585   45.1253 H   0  0  0  0  0  0  0  0  0  0  0  0
    3.0918   17.3702   36.8283 H   0  0  0  0  0  0  0  0  0  0  0  0
    1.1307   22.3775   39.2086 H   0  0  0  0  0  0  0  0  0  0  0  0
    0.9440   21.5218   43.1457 H   0  0  0  0  0  0  0  0  0  0  0  0
    1.0552   20.4787   41.6876 H   0  0  0  0  0  0  0  0  0  0  0  0
   -0.3184   21.6215   41.8717 H   0  0  0  0  0  0  0  0  0  0  0  0
  1  3  1  0
  2  6  2  0
  2 24  1  0
  3 12  2  0
  3 21  1  0
  4 10  1  0
  4  9  1  0
  6 15  1  0
  7 10  1  0
  9  2  1  0
 11 18  1  0
 12 23  1  0
 13 20  1  0
 14 24  1  0
 15  8  1  0
 15 13  1  0
 16 11  2  0
 17 13  1  0
 17 16  1  0
 19  5  1  0
 19  9  1  0
 20 18  2  0
 21 19  2  0
 22 21  1  0
 22  4  2  0
 23  5  2  0
 24 17  2  0
 25  8  1  0
  1 26  1  0
  7 27  1  0
  7 28  1  0
  7 29  1  0
  8 30  1  0
  8 31  1  0
  9 32  1  1
 10 33  1  0
 10 34  1  0
 11 35  1  0
 12 36  1  0
 13 37  1  6
 14 38  1  0
 16 39  1  0
 18 40  1  0
 20 41  1  0
 22 42  1  0
 23 43  1  0
 25 44  1  0
 25 45  1  0
 25 46  1  0
M  END
>  <mol_id>  (62) 
2026-08-23-6tgu-s0-n100-prep-0063

>  <rmsd_to_ref>  (62) 


$$$$

     RDKit          3D

 62 67  0  0  0  0  0  0  0  0999 V2000
    1.5882   19.4734   40.4733 C   0  0  0  0  0  0  0  0  0  0  0  0
    2.0811   13.4920   42.0091 C   0  0  0  0  0  0  0  0  0  0  0  0
   -0.1015   20.2323   42.2197 C   0  0  0  0  0  0  0  0  0  0  0  0
   -0.6325   13.2318   45.4951 O   0  0  0  0  0  0  0  0  0  0  0  0
   -0.4178   17.3016   44.5598 C   0  0  1  0  0  0  0  0  0  0  0  0
    3.0303   20.2309   36.5778 C   0  0  0  0  0  0  0  0  0  0  0  0
   -2.1866   16.3205   47.8073 C   0  0  0  0  0  0  0  0  0  0  0  0
   -0.9861   11.7648   45.3694 C   0  0  0  0  0  0  0  0  0  0  0  0
    0.7523   17.8739   42.1583 C   0  0  0  0  0  0  0  0  0  0  0  0
   -1.4883   16.0534   46.6765 C   0  0  1  0  0  0  0  0  0  0  0  0
    2.1235   19.7294   39.1757 N   0  0  0  0  0  0  0  0  0  0  0  0
    0.3617   14.8549   44.0179 C   0  0  1  0  0  0  0  0  0  0  0  0
    3.0143   18.1851   37.7024 C   0  0  0  0  0  0  0  0  0  0  0  0
    3.4033   18.9003   36.7108 C   0  0  0  0  0  0  0  0  0  0  0  0
   -1.0697   16.2583   45.4934 C   0  0  2  0  0  0  0  0  0  0  0  0
    0.9676   14.2682   41.6529 O   0  0  0  0  0  0  0  0  0  0  0  0
    1.6685   20.9762   37.4454 C   0  0  0  0  0  0  0  0  0  0  0  0
   -2.6455   17.6044   46.6175 O   0  0  0  0  0  0  0  0  0  0  0  0
   -1.3706   19.3331   44.7475 O   0  0  0  0  0  0  0  0  0  0  0  0
    0.6740   15.2728   42.5338 C   0  0  0  0  0  0  0  0  0  0  0  0
    0.6020   16.6839   42.3088 N   0  0  0  0  0  0  0  0  0  0  0  0
   -0.3807   16.0820   44.5226 N   0  0  0  0  0  0  0  0  0  0  0  0
   -2.3295   11.7849   44.7648 O   0  0  0  0  0  0  0  0  0  0  0  0
    3.4392   16.9920   37.9975 N   0  0  0  0  0  0  0  0  0  0  0  0
    1.9254   20.2161   38.3678 C   0  0  0  0  0  0  0  0  0  0  0  0
    1.6593   18.1757   41.0812 C   0  0  0  0  0  0  0  0  0  0  0  0
    0.8033   20.4640   41.1232 C   0  0  0  0  0  0  0  0  0  0  0  0
   -0.5739   18.5607   43.9998 C   0  0  1  0  0  0  0  0  0  0  0  0
    2.4633   18.8038   38.6338 C   0  0  0  0  0  0  0  0  0  0  0  0
   -1.6741   17.3175   46.5600 C   0  0  2  0  0  0  0  0  0  0  0  0
    0.0382   18.9433   42.7180 C   0  0  0  0  0  0  0  0  0  0  0  0
   -0.7038   13.7568   44.2230 C   0  0  0  0  0  0  0  0  0  0  0  0
    3.4596   20.9468   35.7129 O   0  0  0  0  0  0  0  0  0  0  0  0
    2.1293   13.4008   43.1043 H   0  0  0  0  0  0  0  0  0  0  0  0
    1.9889   12.4914   41.5616 H   0  0  0  0  0  0  0  0  0  0  0  0
    2.9980   13.9754   41.6407 H   0  0  0  0  0  0  0  0  0  0  0  0
   -0.8096   20.9776   42.6109 H   0  0  0  0  0  0  0  0  0  0  0  0
    0.1764   18.2053   44.3591 H   0  0  0  0  0  0  0  0  0  0  0  0
   -3.2413   16.0286   47.9188 H   0  0  0  0  0  0  0  0  0  0  0  0
   -2.0845   16.2228   48.8983 H   0  0  0  0  0  0  0  0  0  0  0  0
   -0.2699   11.2422   44.7185 H   0  0  0  0  0  0  0  0  0  0  0  0
   -0.9577   11.2335   46.3322 H   0  0  0  0  0  0  0  0  0  0  0  0
   -1.2277   14.9949   46.8238 H   0  0  0  0  0  0  0  0  0  0  0  0
    1.2999   14.5089   44.4761 H   0  0  0  0  0  0  0  0  0  0  0  0
    4.0498   18.4468   35.9450 H   0  0  0  0  0  0  0  0  0  0  0  0
    1.7988   22.0435   37.6778 H   0  0  0  0  0  0  0  0  0  0  0  0
    0.6622   21.0412   37.0059 H   0  0  0  0  0  0  0  0  0  0  0  0
   -2.9256   17.6328   47.5666 H   0  0  0  0  0  0  0  0  0  0  0  0
   -1.2198   19.1331   45.7052 H   0  0  0  0  0  0  0  0  0  0  0  0
   -3.0134   11.7314   45.4786 H   0  0  0  0  0  0  0  0  0  0  0  0
    3.4692   16.8816   39.0212 H   0  0  0  0  0  0  0  0  0  0  0  0
    2.8007   16.2909   37.5952 H   0  0  0  0  0  0  0  0  0  0  0  0
    4.3841   16.8584   37.6100 H   0  0  0  0  0  0  0  0  0  0  0  0
    1.0676   19.5685   38.1336 H   0  0  0  0  0  0  0  0  0  0  0  0
    2.8587   20.7776   38.5214 H   0  0  0  0  0  0  0  0  0  0  0  0
    2.3887   17.4297   40.7330 H   0  0  0  0  0  0  0  0  0  0  0  0
    0.8946   21.4973   40.7571 H   0  0  0  0  0  0  0  0  0  0  0  0
   -1.4489   18.2022   43.4377 H   0  0  0  0  0  0  0  0  0  0  0  0
    1.4825   18.3099   38.5700 H   0  0  0  0  0  0  0  0  0  0  0  0
    3.4625   18.9669   39.0638 H   0  0  0  0  0  0  0  0  0  0  0  0
   -1.7026   14.1911   44.0684 H   0  0  0  0  0  0  0  0  0  0  0  0
   -0.5190   12.9492   43.4994 H   0  0  0  0  0  0  0  0  0  0  0  0
  1 27  1  0
  1 26  2  0
  3 31  1  0
  5 22  1  0
  5 15  1  0
  6 14  1  0
  6 17  1  0
  8  4  1  0
  9 21  1  0
  9 31  2  0
 10  7  1  0
 11  1  1  0
 12 32  1  0
 12 22  1  0
 13 24  1  0
 13 29  1  0
 14 13  2  0
 15 30  1  0
 15 10  1  0
 16  2  1  0
 16 20  1  0
 17 25  1  0
 20 12  1  0
 21 20  2  0
 15 22  1  6
 23  8  1  0
 25 11  1  0
 26  9  1  0
 27  3  2  0
 28  5  1  0
 28 19  1  0
 29 11  1  0
 30 18  1  6
 30 10  1  0
 30  7  1  0
 31 28  1  0
 32  4  1  0
 33  6  2  0
  2 34  1  0
  2 35  1  0
  2 36  1  0
  3 37  1  0
  5 38  1  1
  7 39  1  0
  7 40  1  0
  8 41  1  0
  8 42  1  0
 10 43  1  1
 12 44  1  1
 14 45  1  0
 17 46  1  0
 17 47  1  0
 18 48  1  0
 19 49  1  0
 23 50  1  0
 24 51  1  0
 24 52  1  0
 24 53  1  0
 25 54  1  0
 25 55  1  0
 26 56  1  0
 27 57  1  0
 28 58  1  6
 29 59  1  0
 29 60  1  0
 32 61  1  0
 32 62  1  0
M  CHG  1  24   1
M  END
>  <mol_id>  (63) 
2026-08-23-6tgu-s0-n100-prep-0064

>  <rmsd_to_ref>  (63) 


$$$$

     RDKit          3D

 39 40  0  0  0  0  0  0  0  0999 V2000
   -0.3550   17.0889   43.3824 C   0  0  0  0  0  0  0  0  0  0  0  0
    0.5267   16.8942   42.3406 C   0  0  0  0  0  0  0  0  0  0  0  0
    3.1983   17.0238   38.3504 C   0  0  0  0  0  0  0  0  0  0  0  0
    2.6336   18.8363   39.7129 C   0  0  1  0  0  0  0  0  0  0  0  0
    2.3256   19.4202   38.7023 O   0  0  0  0  0  0  0  0  0  0  0  0
   -1.0273   18.3045   43.4158 C   0  0  0  0  0  0  0  0  0  0  0  0
    0.8450   17.9415   41.3336 C   0  0  2  0  0  0  0  0  0  0  0  0
    0.0155   19.0988   41.4473 C   0  0  0  0  0  0  0  0  0  0  0  0
    1.0742   15.7640   42.3369 O   0  0  0  0  0  0  0  0  0  0  0  0
    2.5279   20.0609   40.0338 O   0  0  0  0  0  0  0  0  0  0  0  0
    1.9566   17.6855   40.4816 C   0  0  1  0  0  0  0  0  0  0  0  0
    2.6927   16.4096   39.7032 C   0  0  0  0  0  0  0  0  0  0  0  0
    3.1439   19.6417   36.9460 C   0  0  1  0  0  0  0  0  0  0  0  0
    2.4185   20.5883   37.8658 C   0  0  0  0  0  0  0  0  0  0  0  0
   -0.8952   19.3090   42.4064 C   0  0  0  0  0  0  0  0  0  0  0  0
    4.3160   17.4965   36.2989 O   0  0  0  0  0  0  0  0  0  0  0  0
    3.2426   20.1370   35.6677 O   0  0  0  0  0  0  0  0  0  0  0  0
    3.6283   18.1851   37.2321 C   0  0  0  0  0  0  0  0  0  0  0  0
   -1.6204   18.4146   44.4673 O   0  0  0  0  0  0  0  0  0  0  0  0
    4.7960   16.3136   36.5849 C   0  0  0  0  0  0  0  0  0  0  0  0
    2.5920   14.9800   39.8573 C   0  0  0  0  0  0  0  0  0  0  0  0
   -1.1112   16.2917   43.3317 H   0  0  0  0  0  0  0  0  0  0  0  0
    0.2658   17.0785   44.2905 H   0  0  0  0  0  0  0  0  0  0  0  0
    3.4482   18.1025   39.8025 H   0  0  0  0  0  0  0  0  0  0  0  0
    1.5681   18.3913   42.0299 H   0  0  0  0  0  0  0  0  0  0  0  0
    0.1347   19.8820   40.6842 H   0  0  0  0  0  0  0  0  0  0  0  0
    2.5386   20.1457   41.0201 H   0  0  0  0  0  0  0  0  0  0  0  0
    1.6898   17.2580   41.4593 H   0  0  0  0  0  0  0  0  0  0  0  0
    2.1361   19.2624   36.7212 H   0  0  0  0  0  0  0  0  0  0  0  0
    3.0208   21.4158   38.2688 H   0  0  0  0  0  0  0  0  0  0  0  0
    1.5568   21.2025   37.5652 H   0  0  0  0  0  0  0  0  0  0  0  0
   -1.5161   20.2169   42.4174 H   0  0  0  0  0  0  0  0  0  0  0  0
    3.6543   21.0369   35.6933 H   0  0  0  0  0  0  0  0  0  0  0  0
    4.8193   16.1816   37.6767 H   0  0  0  0  0  0  0  0  0  0  0  0
    4.1563   15.5398   36.1355 H   0  0  0  0  0  0  0  0  0  0  0  0
    5.8162   16.2250   36.1830 H   0  0  0  0  0  0  0  0  0  0  0  0
    2.6188   14.7237   40.9267 H   0  0  0  0  0  0  0  0  0  0  0  0
    1.6453   14.6299   39.4199 H   0  0  0  0  0  0  0  0  0  0  0  0
    3.4349   14.4954   39.3428 H   0  0  0  0  0  0  0  0  0  0  0  0
  2  9  2  0
  2  1  1  0
  3 12  2  0
  4 10  1  0
  4 11  1  0
  5  4  1  0
  6  1  1  0
  6 19  2  0
  7  8  1  0
  7  2  1  0
  8 15  2  0
 11 12  1  0
 11  7  1  0
 12 21  1  0
 13 17  1  0
 13 18  1  0
 13 14  1  0
 14  5  1  0
 15  6  1  0
 16 20  1  0
 16 18  1  0
 18  3  2  0
  1 22  1  0
  1 23  1  0
  4 24  1  6
  7 25  1  6
  8 26  1  0
 10 27  1  0
 11 28  1  1
 13 29  1  1
 14 30  1  0
 14 31  1  0
 15 32  1  0
 17 33  1  0
 20 34  1  0
 20 35  1  0
 20 36  1  0
 21 37  1  0
 21 38  1  0
 21 39  1  0
M  END
>  <mol_id>  (64) 
2026-08-23-6tgu-s0-n100-prep-0065

>  <rmsd_to_ref>  (64) 


$$$$

     RDKit          3D

 22 23  0  0  0  0  0  0  0  0999 V2000
    2.0785   17.0728   41.8999 N   0  0  0  0  0  0  0  0  0  0  0  0
    2.3765   20.7362   38.5252 C   0  0  0  0  0  0  0  0  0  0  0  0
    0.2014   17.4782   43.1766 C   0  0  0  0  0  0  0  0  0  0  0  0
    1.6456   18.2905   41.3859 C   0  0  0  0  0  0  0  0  0  0  0  0
    1.4585   15.3825   43.5030 N   0  0  0  0  0  0  0  0  0  0  0  0
    3.7486   18.7869   38.2797 C   0  0  0  0  0  0  0  0  0  0  0  0
    1.1876   16.6553   42.8694 N   0  0  0  0  0  0  0  0  0  0  0  0
    3.2809   18.2717   39.4849 C   0  0  0  0  0  0  0  0  0  0  0  0
    3.3191   19.9598   37.7707 C   0  0  0  0  0  0  0  0  0  0  0  0
    2.2653   18.9090   40.2060 C   0  0  0  0  0  0  0  0  0  0  0  0
    3.6495   20.4536   36.5401 O   0  0  0  0  0  0  0  0  0  0  0  0
    0.2015   18.8459   42.1550 S   0  0  0  0  0  0  0  0  0  0  0  0
    1.8690   20.1235   39.7133 C   0  0  0  0  0  0  0  0  0  0  0  0
    2.0635   21.7420   38.2084 H   0  0  0  0  0  0  0  0  0  0  0  0
   -0.7562   16.9481   43.0672 H   0  0  0  0  0  0  0  0  0  0  0  0
    0.3394   17.8171   44.2140 H   0  0  0  0  0  0  0  0  0  0  0  0
    1.2879   15.4599   44.5158 H   0  0  0  0  0  0  0  0  0  0  0  0
    0.8395   14.6621   43.1047 H   0  0  0  0  0  0  0  0  0  0  0  0
    4.5006   18.2131   37.7183 H   0  0  0  0  0  0  0  0  0  0  0  0
    3.7193   17.3431   39.8792 H   0  0  0  0  0  0  0  0  0  0  0  0
    3.2884   21.3265   36.2438 H   0  0  0  0  0  0  0  0  0  0  0  0
    1.0990   20.6714   40.2763 H   0  0  0  0  0  0  0  0  0  0  0  0
  1  7  1  0
  2 13  2  0
  4  1  2  0
  4 12  1  0
  6  8  1  0
  7  5  1  0
  7  3  1  0
  8 10  2  0
  9  6  2  0
  9  2  1  0
 10  4  1  0
 11  9  1  0
 12  3  1  0
 13 10  1  0
  2 14  1  0
  3 15  1  0
  3 16  1  0
  5 17  1  0
  5 18  1  0
  6 19  1  0
  8 20  1  0
 11 21  1  0
 13 22  1  0
M  END
>  <mol_id>  (65) 
2026-08-23-6tgu-s0-n100-prep-0066

>  <rmsd_to_ref>  (65) 


$$$$

     RDKit          3D

 41 45  0  0  0  0  0  0  0  0999 V2000
    0.3069   15.5718   43.4476 C   0  0  0  0  0  0  0  0  0  0  0  0
   -1.0204   14.8166   45.4845 N   0  0  0  0  0  0  0  0  0  0  0  0
   -0.2890   13.6939   45.1548 C   0  0  0  0  0  0  0  0  0  0  0  0
    2.4611   18.4660   38.4908 C   0  0  0  0  0  0  0  0  0  0  0  0
    0.9515   18.5789   40.7249 C   0  0  0  0  0  0  0  0  0  0  0  0
    1.6410   15.7884   41.2632 C   0  0  0  0  0  0  0  0  0  0  0  0
    1.3011   13.4885   42.5857 C   0  0  0  0  0  0  0  0  0  0  0  0
    2.2619   19.9059   38.1899 C   0  0  0  0  0  0  0  0  0  0  0  0
   -1.3738   17.3638   44.3466 C   0  0  0  0  0  0  0  0  0  0  0  0
    0.7336   16.3139   42.3203 C   0  0  0  0  0  0  0  0  0  0  0  0
    3.3758   16.1220   37.9452 C   0  0  0  0  0  0  0  0  0  0  0  0
    2.8548   15.6169   39.1473 C   0  0  0  0  0  0  0  0  0  0  0  0
   -0.6726   15.9470   44.5288 C   0  0  0  0  0  0  0  0  0  0  0  0
    2.7133   20.4711   37.1089 O   0  0  0  0  0  0  0  0  0  0  0  0
    1.3873   20.7099   39.1768 C   0  0  0  0  0  0  0  0  0  0  0  0
    0.4480   14.0441   43.7816 C   0  0  2  0  0  0  0  0  0  0  0  0
    0.4136   20.6682   41.3523 O   0  0  0  0  0  0  0  0  0  0  0  0
    0.8867   20.0626   40.3839 C   0  0  0  0  0  0  0  0  0  0  0  0
   -0.5146   18.3265   43.3175 C   0  0  0  0  0  0  0  0  0  0  0  0
    3.5356   17.9873   36.3059 O   0  0  0  0  0  0  0  0  0  0  0  0
    3.1791   17.4999   37.5960 C   0  0  0  0  0  0  0  0  0  0  0  0
   -0.3764   12.6855   45.6830 O   0  0  0  0  0  0  0  0  0  0  0  0
    0.3511   17.9073   42.0879 C   0  0  0  0  0  0  0  0  0  0  0  0
    2.1556   16.4443   40.0131 C   0  0  0  0  0  0  0  0  0  0  0  0
    1.8743   17.8877   39.7304 C   0  0  0  0  0  0  0  0  0  0  0  0
    3.1035   14.3052   39.5269 O   0  0  0  0  0  0  0  0  0  0  0  0
   -1.6973   14.8793   46.2584 H   0  0  0  0  0  0  0  0  0  0  0  0
    1.9897   14.7573   41.4226 H   0  0  0  0  0  0  0  0  0  0  0  0
    2.1549   12.9171   42.9787 H   0  0  0  0  0  0  0  0  0  0  0  0
    0.6757   12.8317   41.9632 H   0  0  0  0  0  0  0  0  0  0  0  0
    1.6702   14.3275   41.9776 H   0  0  0  0  0  0  0  0  0  0  0  0
   -2.3844   17.2143   43.9386 H   0  0  0  0  0  0  0  0  0  0  0  0
   -1.4213   17.8580   45.3282 H   0  0  0  0  0  0  0  0  0  0  0  0
    3.9363   15.4596   37.2692 H   0  0  0  0  0  0  0  0  0  0  0  0
    2.5554   21.4357   36.9518 H   0  0  0  0  0  0  0  0  0  0  0  0
    1.1438   21.7627   38.9708 H   0  0  0  0  0  0  0  0  0  0  0  0
   -0.4747   13.8361   43.2201 H   0  0  0  0  0  0  0  0  0  0  0  0
   -1.2593   19.0235   42.9056 H   0  0  0  0  0  0  0  0  0  0  0  0
    0.3016   18.6034   44.0010 H   0  0  0  0  0  0  0  0  0  0  0  0
    3.3936   18.9407   36.0804 H   0  0  0  0  0  0  0  0  0  0  0  0
    2.7325   13.9567   40.3761 H   0  0  0  0  0  0  0  0  0  0  0  0
  1 16  1  0
  1 13  2  0
  3  2  1  0
  3 22  2  0
  4 25  2  0
  5 23  2  0
  6 10  2  0
  8  4  1  0
  8 15  2  0
  9 13  1  0
 10  1  1  0
 11 12  1  0
 12 26  1  0
 12 24  2  0
 13  2  1  0
 14  8  1  0
 15 18  1  0
 16  7  1  0
 16  3  1  0
 18  5  1  0
 18 17  2  0
 19  9  1  0
 20 21  1  0
 21 11  2  0
 21  4  1  0
 23 10  1  0
 23 19  1  0
 24  6  1  0
 25 24  1  0
 25  5  1  0
  2 27  1  0
  6 28  1  0
  7 29  1  0
  7 30  1  0
  7 31  1  0
  9 32  1  0
  9 33  1  0
 11 34  1  0
 14 35  1  0
 15 36  1  0
 16 37  1  6
 19 38  1  0
 19 39  1  0
 20 40  1  0
 26 41  1  0
M  END
>  <mol_id>  (66) 
2026-08-23-6tgu-s0-n100-prep-0067

>  <rmsd_to_ref>  (66) 


$$$$

     RDKit          3D

 23 25  0  0  0  0  0  0  0  0999 V2000
    2.6457   20.3002   38.2673 N   0  0  0  0  0  0  0  0  0  0  0  0
    0.9467   19.8027   41.6186 C   0  0  0  0  0  0  0  0  0  0  0  0
   -0.3525   17.0453   43.7116 C   0  0  0  0  0  0  0  0  0  0  0  0
    1.7833   17.6160   40.8323 C   0  0  0  0  0  0  0  0  0  0  0  0
    2.9280   17.4910   38.7267 O   0  0  0  0  0  0  0  0  0  0  0  0
    3.6353   18.6822   36.7964 O   0  0  0  0  0  0  0  0  0  0  0  0
    0.3214   15.0525   42.9392 C   0  0  0  0  0  0  0  0  0  0  0  0
    3.2848   19.9148   37.0587 C   0  0  0  0  0  0  0  0  0  0  0  0
    1.7604   16.2291   41.0637 N   0  0  0  0  0  0  0  0  0  0  0  0
    0.4326   17.3230   42.5921 C   0  0  0  0  0  0  0  0  0  0  0  0
   -0.4153   15.7505   43.7852 N   0  0  0  0  0  0  0  0  0  0  0  0
    3.4893   20.7966   36.2005 O   0  0  0  0  0  0  0  0  0  0  0  0
    1.5366   20.4059   40.5226 C   0  0  0  0  0  0  0  0  0  0  0  0
    1.0519   18.3687   41.7373 C   0  0  0  0  0  0  0  0  0  0  0  0
    2.1525   19.6556   39.4650 C   0  0  0  0  0  0  0  0  0  0  0  0
    0.8883   16.0668   42.1443 C   0  0  0  0  0  0  0  0  0  0  0  0
    2.2982   18.2834   39.6016 C   0  0  0  0  0  0  0  0  0  0  0  0
    2.4907   21.3180   38.3000 H   0  0  0  0  0  0  0  0  0  0  0  0
    0.4144   20.3973   42.3756 H   0  0  0  0  0  0  0  0  0  0  0  0
   -0.8211   17.7725   44.3910 H   0  0  0  0  0  0  0  0  0  0  0  0
    2.9899   16.5175   38.8960 H   0  0  0  0  0  0  0  0  0  0  0  0
    0.4565   13.9629   42.8731 H   0  0  0  0  0  0  0  0  0  0  0  0
    1.5338   21.5040   40.4588 H   0  0  0  0  0  0  0  0  0  0  0  0
  1 15  1  0
  2 14  1  0
  3 11  1  0
  4  9  1  0
  4 14  2  0
  5 17  1  0
  7 11  2  0
  8  6  1  0
  8  1  1  0
  9 16  2  0
 10  3  2  0
 12  8  2  0
 13  2  2  0
 14 10  1  0
 15 17  2  0
 15 13  1  0
 16 10  1  0
 16  7  1  0
 17  4  1  0
  1 18  1  0
  2 19  1  0
  3 20  1  0
  5 21  1  0
  7 22  1  0
 13 23  1  0
M  CHG  1   6  -1
M  END
>  <mol_id>  (67) 
2026-08-23-6tgu-s0-n100-prep-0068

>  <rmsd_to_ref>  (67) 


$$$$

     RDKit          3D

 32 33  0  0  0  0  0  0  0  0999 V2000
    2.9133   19.7176   37.6612 C   0  0  0  0  0  0  0  0  0  0  0  0
    1.0848   18.0601   42.1156 N   0  0  0  0  0  0  0  0  0  0  0  0
    3.1115   18.3476   38.0494 C   0  0  0  0  0  0  0  0  0  0  0  0
   -0.2667   19.2697   44.8871 N   0  0  0  0  0  0  0  0  0  0  0  0
    3.9879   20.2317   35.6055 O   0  0  0  0  0  0  0  0  0  0  0  0
    0.2399   19.5388   43.8127 N   0  0  0  0  0  0  0  0  0  0  0  0
    2.0159   20.3063   39.7794 C   0  0  0  0  0  0  0  0  0  0  0  0
   -1.5226   17.5525   46.2385 N   0  0  0  0  0  0  0  0  0  0  0  0
   -0.6546   17.9050   45.0579 C   0  0  0  0  0  0  0  0  0  0  0  0
    0.4038   18.4193   43.1737 C   0  0  0  0  0  0  0  0  0  0  0  0
   -0.0559   17.2990   44.0141 C   0  0  1  0  0  0  0  0  0  0  0  0
    3.0691   20.3816   36.3010 C   0  0  0  0  0  0  0  0  0  0  0  0
    2.2915   21.3276   36.0980 O   0  0  0  0  0  0  0  0  0  0  0  0
    0.2919   15.8280   43.8256 C   0  0  0  0  0  0  0  0  0  0  0  0
    2.3694   20.6819   38.5163 C   0  0  0  0  0  0  0  0  0  0  0  0
    3.7516   17.3210   37.1206 C   0  0  0  0  0  0  0  0  0  0  0  0
    2.5874   18.0233   39.2825 C   0  0  0  0  0  0  0  0  0  0  0  0
    1.4676   18.7462   41.2948 C   0  0  0  0  0  0  0  0  0  0  0  0
    2.1362   18.9359   40.1226 C   0  0  0  0  0  0  0  0  0  0  0  0
    1.6491   21.0435   40.5086 H   0  0  0  0  0  0  0  0  0  0  0  0
   -1.8181   16.5771   46.3875 H   0  0  0  0  0  0  0  0  0  0  0  0
   -1.8203   18.2870   46.8963 H   0  0  0  0  0  0  0  0  0  0  0  0
   -0.4395   16.3202   43.6903 H   0  0  0  0  0  0  0  0  0  0  0  0
    0.4684   15.3642   44.8073 H   0  0  0  0  0  0  0  0  0  0  0  0
   -0.5415   15.3157   43.3226 H   0  0  0  0  0  0  0  0  0  0  0  0
    1.1999   15.7417   43.2107 H   0  0  0  0  0  0  0  0  0  0  0  0
    2.2300   21.7193   38.1782 H   0  0  0  0  0  0  0  0  0  0  0  0
    4.3351   16.6025   37.7149 H   0  0  0  0  0  0  0  0  0  0  0  0
    2.9653   16.7863   36.5675 H   0  0  0  0  0  0  0  0  0  0  0  0
    4.4160   17.8338   36.4096 H   0  0  0  0  0  0  0  0  0  0  0  0
    2.5436   16.9644   39.5773 H   0  0  0  0  0  0  0  0  0  0  0  0
    1.1351   19.7514   41.5929 H   0  0  0  0  0  0  0  0  0  0  0  0
  1  3  2  0
  1 15  1  0
  2 10  1  0
  3 17  1  0
  4  9  2  0
  5 12  2  0
  6  4  1  0
  7 19  1  0
  9  8  1  0
 10 11  1  0
 10  6  2  0
 11 14  1  0
 11  9  1  0
 12  1  1  0
 13 12  1  0
 15  7  2  0
 16  3  1  0
 17 19  2  0
 18  2  2  3
 19 18  1  0
  7 20  1  0
  8 21  1  0
  8 22  1  0
 11 23  1  6
 14 24  1  0
 14 25  1  0
 14 26  1  0
 15 27  1  0
 16 28  1  0
 16 29  1  0
 16 30  1  0
 17 31  1  0
 18 32  1  0
M  CHG  1  13  -1
M  END
>  <mol_id>  (68) 
2026-08-23-6tgu-s0-n100-prep-0069

>  <rmsd_to_ref>  (68) 


$$$$

     RDKit          3D

 46 47  0  0  0  0  0  0  0  0999 V2000
    0.0750   18.5120   46.3180 F   0  0  0  0  0  0  0  0  0  0  0  0
    3.7440   12.8690   39.9110 C   0  0  0  0  0  0  0  0  0  0  0  0
    2.1360   20.8840   39.1770 N   0  0  0  0  0  0  0  0  0  0  0  0
    3.0820   16.7620   38.2530 C   0  0  0  0  0  0  0  0  0  0  0  0
   -0.1250   20.9810   42.1190 C   0  0  0  0  0  0  0  0  0  0  0  0
    3.7050   11.8240   39.5100 F   0  0  0  0  0  0  0  0  0  0  0  0
    2.7810   15.1660   40.0470 C   0  0  0  0  0  0  0  0  0  0  0  0
   -0.9290   17.3540   44.7840 F   0  0  0  0  0  0  0  0  0  0  0  0
    2.5340   16.4710   39.6270 C   0  0  0  0  0  0  0  0  0  0  0  0
    3.7090   19.2380   38.5350 C   0  0  0  0  0  0  0  0  0  0  0  0
   -0.2560   19.6280   42.4030 C   0  0  0  0  0  0  0  0  0  0  0  0
    0.7290   21.3390   41.0750 C   0  0  0  0  0  0  0  0  0  0  0  0
   -0.6150   18.5270   45.2710 C   0  0  0  0  0  0  0  0  0  0  0  0
   -2.4760   18.8410   43.2030 C   0  0  0  0  0  0  0  0  0  0  0  0
    4.2960   13.6310   37.3220 O   0  0  0  0  0  0  0  0  0  0  0  0
    3.2120   18.1230   37.6200 C   0  0  1  0  0  0  0  0  0  0  0  0
    1.4500   20.4220   40.3730 C   0  0  0  0  0  0  0  0  0  0  0  0
   -0.8680   19.6840   44.6990 N   0  0  0  0  0  0  0  0  0  0  0  0
    1.4400   19.0610   40.7220 C   0  0  0  0  0  0  0  0  0  0  0  0
    3.6780   15.7970   37.5320 N   0  0  0  0  0  0  0  0  0  0  0  0
    2.7510   20.7400   37.0510 O   0  0  0  0  0  0  0  0  0  0  0  0
    0.5300   18.6960   41.7240 C   0  0  0  0  0  0  0  0  0  0  0  0
    2.7720   20.4100   38.1470 C   0  0  0  0  0  0  0  0  0  0  0  0
   -1.1940   19.3820   43.3960 N   0  0  0  0  0  0  0  0  0  0  0  0
    3.7310   14.5510   38.0050 C   0  0  0  0  0  0  0  0  0  0  0  0
    5.1350   12.8910   39.8880 F   0  0  0  0  0  0  0  0  0  0  0  0
    3.1950   12.7350   41.0580 F   0  0  0  0  0  0  0  0  0  0  0  0
    3.4050   14.2090   39.2810 C   0  0  0  0  0  0  0  0  0  0  0  0
    4.0700   17.9510   36.5820 O   0  0  0  0  0  0  0  0  0  0  0  0
    2.1097   21.9127   39.1315 H   0  0  0  0  0  0  0  0  0  0  0  0
   -0.6732   21.7412   42.6948 H   0  0  0  0  0  0  0  0  0  0  0  0
    2.4554   14.8819   41.0586 H   0  0  0  0  0  0  0  0  0  0  0  0
    2.9992   17.1637   40.3437 H   0  0  0  0  0  0  0  0  0  0  0  0
    1.4426   16.6001   39.5798 H   0  0  0  0  0  0  0  0  0  0  0  0
    3.5936   18.9673   39.5949 H   0  0  0  0  0  0  0  0  0  0  0  0
    4.7787   19.4661   38.4178 H   0  0  0  0  0  0  0  0  0  0  0  0
    0.8232   22.4022   40.8092 H   0  0  0  0  0  0  0  0  0  0  0  0
   -1.5335   18.5216   45.8762 H   0  0  0  0  0  0  0  0  0  0  0  0
   -2.9419   18.6444   44.1799 H   0  0  0  0  0  0  0  0  0  0  0  0
   -3.0942   19.5550   42.6390 H   0  0  0  0  0  0  0  0  0  0  0  0
   -2.3958   17.9000   42.6390 H   0  0  0  0  0  0  0  0  0  0  0  0
    2.2094   18.4672   37.3262 H   0  0  0  0  0  0  0  0  0  0  0  0
   -1.6554   20.1538   45.1682 H   0  0  0  0  0  0  0  0  0  0  0  0
    2.1040   18.3285   40.2397 H   0  0  0  0  0  0  0  0  0  0  0  0
    0.4316   17.6321   41.9855 H   0  0  0  0  0  0  0  0  0  0  0  0
    4.9783   17.7689   36.9313 H   0  0  0  0  0  0  0  0  0  0  0  0
  2 27  1  0
  3 17  1  0
  4  9  1  0
  5 11  1  0
  6  2  1  0
  8 13  1  0
  9  7  1  0
 11 24  1  0
 12  5  2  0
 13  1  1  0
 14 24  1  0
 15 25  2  0
 16 29  1  0
 16  4  1  0
 16 10  1  0
 17 19  2  0
 17 12  1  0
 18 13  1  0
 19 22  1  0
 20 25  1  0
 20  4  2  0
 21 23  2  0
 22 11  2  0
 23 10  1  0
 23  3  1  0
 24 18  1  0
 25 28  1  0
 26  2  1  0
 28  2  1  0
 28  7  2  0
  3 30  1  0
  5 31  1  0
  7 32  1  0
  9 33  1  0
  9 34  1  0
 10 35  1  0
 10 36  1  0
 12 37  1  0
 13 38  1  0
 14 39  1  0
 14 40  1  0
 14 41  1  0
 16 42  1  6
 18 43  1  0
 19 44  1  0
 22 45  1  0
 29 46  1  0
M  END
>  <mol_id>  (69) 
2026-08-23-6tgu-s0-n100-prep-0070

>  <rmsd_to_ref>  (69) 


$$$$

     RDKit          3D

 48 50  0  0  0  0  0  0  0  0999 V2000
   -0.3956   15.0756   44.6682 O   0  0  0  0  0  0  0  0  0  0  0  0
   -0.9152   17.4731   43.4729 N   0  0  0  0  0  0  0  0  0  0  0  0
   -0.0085   16.5677   42.9503 C   0  0  1  0  0  0  0  0  0  0  0  0
    0.7334   21.0455   41.0637 C   0  0  0  0  0  0  0  0  0  0  0  0
    1.0870   11.9280   43.2021 C   0  0  0  0  0  0  0  0  0  0  0  0
   -1.7263   18.3553   43.3474 C   0  0  0  0  0  0  0  0  0  0  0  0
    4.1337   19.0049   37.1005 N   0  0  0  0  0  0  0  0  0  0  0  0
    0.1314   15.2161   43.5367 C   0  0  0  0  0  0  0  0  0  0  0  0
    1.9086   20.8110   40.4565 C   0  0  0  0  0  0  0  0  0  0  0  0
    1.2849   18.6498   40.2104 C   0  0  0  0  0  0  0  0  0  0  0  0
    3.3366   19.1366   38.5823 C   0  0  2  0  0  0  0  0  0  0  0  0
    0.7375   16.8149   41.9654 C   0  0  0  0  0  0  0  0  0  0  0  0
    3.2211   21.2501   37.4577 N   0  0  0  0  0  0  0  0  0  0  0  0
    2.1860   19.4905   39.9245 C   0  0  0  0  0  0  0  0  0  0  0  0
    3.6768   20.8552   36.2413 C   0  0  0  0  0  0  0  0  0  0  0  0
    3.8926   20.3893   38.5353 C   0  0  0  0  0  0  0  0  0  0  0  0
   -1.0080   20.5400   42.5316 C   0  0  0  0  0  0  0  0  0  0  0  0
    0.0647   20.0590   41.6186 C   0  0  0  0  0  0  0  0  0  0  0  0
    0.3844   12.9605   43.0755 C   0  0  0  0  0  0  0  0  0  0  0  0
    0.7459   14.2782   42.9579 N   0  0  0  0  0  0  0  0  0  0  0  0
    3.6763   21.9447   35.2539 O   0  0  0  0  0  0  0  0  0  0  0  0
   -1.7187   19.6807   43.4283 N   0  0  0  0  0  0  0  0  0  0  0  0
    4.0453   19.7279   36.2240 N   0  0  0  0  0  0  0  0  0  0  0  0
    0.5165   18.5459   41.5402 C   0  0  0  0  0  0  0  0  0  0  0  0
   -1.5054   16.8057   43.9896 H   0  0  0  0  0  0  0  0  0  0  0  0
   -0.1742   18.1881   43.4479 H   0  0  0  0  0  0  0  0  0  0  0  0
    0.7639   16.9453   43.6365 H   0  0  0  0  0  0  0  0  0  0  0  0
    0.3287   22.0678   41.0967 H   0  0  0  0  0  0  0  0  0  0  0  0
    0.6062   10.9420   43.2828 H   0  0  0  0  0  0  0  0  0  0  0  0
    2.1836   12.0094   43.2326 H   0  0  0  0  0  0  0  0  0  0  0  0
   -2.1104   18.1817   42.3314 H   0  0  0  0  0  0  0  0  0  0  0  0
   -2.1608   18.2127   44.3478 H   0  0  0  0  0  0  0  0  0  0  0  0
    5.1366   18.9865   37.3346 H   0  0  0  0  0  0  0  0  0  0  0  0
    2.6545   21.6140   40.3635 H   0  0  0  0  0  0  0  0  0  0  0  0
    1.0242   17.9196   39.4301 H   0  0  0  0  0  0  0  0  0  0  0  0
    3.0909   18.0782   38.7544 H   0  0  0  0  0  0  0  0  0  0  0  0
    1.7875   16.6251   42.2327 H   0  0  0  0  0  0  0  0  0  0  0  0
    0.4781   16.1707   41.1122 H   0  0  0  0  0  0  0  0  0  0  0  0
    2.5384   22.0022   37.6285 H   0  0  0  0  0  0  0  0  0  0  0  0
    4.9646   20.2984   38.3064 H   0  0  0  0  0  0  0  0  0  0  0  0
    3.7461   20.8739   39.5118 H   0  0  0  0  0  0  0  0  0  0  0  0
   -1.7706   20.9994   41.8856 H   0  0  0  0  0  0  0  0  0  0  0  0
   -0.4328   21.1600   43.2350 H   0  0  0  0  0  0  0  0  0  0  0  0
   -0.7002   12.7783   43.0555 H   0  0  0  0  0  0  0  0  0  0  0  0
    1.5576   14.5135   42.3691 H   0  0  0  0  0  0  0  0  0  0  0  0
   -1.3571   19.8994   44.3677 H   0  0  0  0  0  0  0  0  0  0  0  0
   -2.6922   19.8948   43.1690 H   0  0  0  0  0  0  0  0  0  0  0  0
    4.3192   19.3566   35.3031 H   0  0  0  0  0  0  0  0  0  0  0  0
  3  2  1  0
  3  8  1  0
  4 18  1  0
  6  2  1  0
  7 11  1  0
  8  1  2  0
  9  4  2  0
 10 24  1  0
 11 14  1  0
 12  3  1  0
 13 16  1  0
 14  9  1  0
 14 10  2  0
 15 23  1  0
 15 13  1  0
 16 11  1  0
 17 22  1  0
 18 24  2  0
 18 17  1  0
 19  5  2  3
 20 19  1  0
 20  8  1  0
 21 15  2  0
 22  6  1  0
 23  7  1  0
 24 12  1  0
  2 25  1  0
  2 26  1  0
  3 27  1  1
  4 28  1  0
  5 29  1  0
  5 30  1  0
  6 31  1  0
  6 32  1  0
  7 33  1  0
  9 34  1  0
 10 35  1  0
 11 36  1  1
 12 37  1  0
 12 38  1  0
 13 39  1  0
 16 40  1  0
 16 41  1  0
 17 42  1  0
 17 43  1  0
 19 44  1  0
 20 45  1  0
 22 46  1  0
 22 47  1  0
 23 48  1  0
M  CHG  2   2   1  22   1
M  END
>  <mol_id>  (70) 
2026-08-23-6tgu-s0-n100-prep-0071

>  <rmsd_to_ref>  (70) 


$$$$

     RDKit          3D

 39 40  0  0  0  0  0  0  0  0999 V2000
    3.0140   20.7665   36.3640 O   0  0  0  0  0  0  0  0  0  0  0  0
    0.0311   17.7182   42.3089 C   0  0  0  0  0  0  0  0  0  0  0  0
    2.8636   20.3272   37.4507 C   0  0  0  0  0  0  0  0  0  0  0  0
   -0.6733   18.5423   43.0044 N   0  0  0  0  0  0  0  0  0  0  0  0
    2.3640   14.6195   39.1306 O   0  0  0  0  0  0  0  0  0  0  0  0
    2.2159   18.7624   39.2603 C   0  0  0  0  0  0  0  0  0  0  0  0
    3.9415   15.5368   37.4728 C   0  0  0  0  0  0  0  0  0  0  0  0
    0.9161   15.6561   41.1604 N   0  0  0  0  0  0  0  0  0  0  0  0
    0.6197   18.4400   41.2001 C   0  0  0  0  0  0  0  0  0  0  0  0
   -1.3993   18.1638   44.1715 C   0  0  0  0  0  0  0  0  0  0  0  0
   -0.5722   19.7759   42.4145 C   0  0  0  0  0  0  0  0  0  0  0  0
    0.1858   16.2677   42.2789 C   0  0  0  0  0  0  0  0  0  0  0  0
    2.8289   18.3251   39.5597 C   0  0  0  0  0  0  0  0  0  0  0  0
    1.9718   21.3126   38.0584 O   0  0  0  0  0  0  0  0  0  0  0  0
    0.3091   19.7861   41.3847 C   0  0  0  0  0  0  0  0  0  0  0  0
    3.3504   16.4794   38.4788 N   0  0  0  0  0  0  0  0  0  0  0  0
    1.7353   16.4110   40.3477 C   0  0  0  0  0  0  0  0  0  0  0  0
    3.4702   17.7542   38.6709 C   0  0  0  0  0  0  0  0  0  0  0  0
    1.7487   17.6807   40.3695 C   0  0  0  0  0  0  0  0  0  0  0  0
    3.5509   19.5948   37.9460 C   0  0  0  0  0  0  0  0  0  0  0  0
    2.4766   15.7935   39.3209 C   0  0  0  0  0  0  0  0  0  0  0  0
   -0.3691   15.2171   43.1037 N   0  0  0  0  0  0  0  0  0  0  0  0
    2.4097   19.5312   38.4977 H   0  0  0  0  0  0  0  0  0  0  0  0
    1.1900   18.5874   39.6165 H   0  0  0  0  0  0  0  0  0  0  0  0
    4.3034   14.6332   37.9853 H   0  0  0  0  0  0  0  0  0  0  0  0
    3.1736   15.2579   36.7362 H   0  0  0  0  0  0  0  0  0  0  0  0
    4.7811   16.0280   36.9590 H   0  0  0  0  0  0  0  0  0  0  0  0
   -0.8551   18.4991   45.0667 H   0  0  0  0  0  0  0  0  0  0  0  0
   -2.3951   18.6308   44.1514 H   0  0  0  0  0  0  0  0  0  0  0  0
   -1.5080   17.0694   44.1969 H   0  0  0  0  0  0  0  0  0  0  0  0
   -1.1425   20.6583   42.7404 H   0  0  0  0  0  0  0  0  0  0  0  0
    0.6899   20.6536   40.8256 H   0  0  0  0  0  0  0  0  0  0  0  0
    4.5334   17.9405   38.8829 H   0  0  0  0  0  0  0  0  0  0  0  0
    3.0424   18.1797   37.7511 H   0  0  0  0  0  0  0  0  0  0  0  0
    3.3714   19.5996   39.0313 H   0  0  0  0  0  0  0  0  0  0  0  0
    3.3617   18.5871   37.5476 H   0  0  0  0  0  0  0  0  0  0  0  0
    4.5947   19.8783   37.7458 H   0  0  0  0  0  0  0  0  0  0  0  0
   -0.1306   14.2332   42.9140 H   0  0  0  0  0  0  0  0  0  0  0  0
   -1.0027   15.4529   43.8808 H   0  0  0  0  0  0  0  0  0  0  0  0
  1  3  2  0
  2 12  2  0
  2  4  1  0
  3 20  1  0
  3 14  1  0
  4 10  1  0
  5 21  2  0
  6 13  2  3
  7 16  1  0
  8 12  1  0
  9 15  1  0
  9  2  1  0
 11  4  1  0
 12 22  1  0
 13 19  1  0
 15 11  2  0
 16 18  1  0
 16 21  1  0
 17  8  2  0
 18 13  1  0
 19 17  1  0
 19  9  2  0
 21 17  1  0
  6 23  1  0
  6 24  1  0
  7 25  1  0
  7 26  1  0
  7 27  1  0
 10 28  1  0
 10 29  1  0
 10 30  1  0
 11 31  1  0
 15 32  1  0
 18 33  1  0
 18 34  1  0
 20 35  1  0
 20 36  1  0
 20 37  1  0
 22 38  1  0
 22 39  1  0
M  CHG  1  14  -1
M  END
>  <mol_id>  (71) 
2026-08-23-6tgu-s0-n100-prep-0072

>  <rmsd_to_ref>  (71) 


$$$$

     RDKit          3D

 23 25  0  0  0  0  0  0  0  0999 V2000
   -1.1994   19.5608   43.1524 N   0  0  0  0  0  0  0  0  0  0  0  0
    2.7075   17.1325   40.5765 S   0  0  0  0  0  0  0  0  0  0  0  0
    1.8296   18.4742   40.3529 C   0  0  0  0  0  0  0  0  0  0  0  0
   -0.4106   18.4295   43.3670 C   0  0  0  0  0  0  0  0  0  0  0  0
    3.0138   19.5192   36.2024 O   0  0  0  0  0  0  0  0  0  0  0  0
   -0.6339   17.7459   44.4656 N   0  0  0  0  0  0  0  0  0  0  0  0
    2.9138   18.3436   38.4430 C   0  0  0  0  0  0  0  0  0  0  0  0
    0.6663   18.1471   42.4645 N   0  0  0  0  0  0  0  0  0  0  0  0
    0.8467   18.8909   41.3722 C   0  0  0  0  0  0  0  0  0  0  0  0
    4.4510   16.8201   37.9161 C   0  0  0  0  0  0  0  0  0  0  0  0
    3.3788   18.6034   37.0642 C   0  0  0  0  0  0  0  0  0  0  0  0
    3.4996   17.2988   39.0206 C   0  0  0  0  0  0  0  0  0  0  0  0
    0.0395   20.0846   41.1657 C   0  0  0  0  0  0  0  0  0  0  0  0
    1.5310   20.1837   38.7643 F   0  0  0  0  0  0  0  0  0  0  0  0
   -0.9302   20.3418   42.0617 C   0  0  0  0  0  0  0  0  0  0  0  0
    2.0651   19.0723   39.2413 N   0  0  0  0  0  0  0  0  0  0  0  0
    4.3109   17.5845   36.7707 N   0  0  0  0  0  0  0  0  0  0  0  0
   -0.0781   16.9030   44.6696 H   0  0  0  0  0  0  0  0  0  0  0  0
   -1.3649   18.0524   45.1234 H   0  0  0  0  0  0  0  0  0  0  0  0
    1.3058   17.3639   42.6609 H   0  0  0  0  0  0  0  0  0  0  0  0
    5.1525   15.9794   38.0208 H   0  0  0  0  0  0  0  0  0  0  0  0
    0.2160   20.7514   40.3089 H   0  0  0  0  0  0  0  0  0  0  0  0
   -1.5474   21.2391   41.9073 H   0  0  0  0  0  0  0  0  0  0  0  0
  2  3  1  0
  3  9  2  3
  4  1  2  0
  4  6  1  0
  5 11  2  0
  7 12  2  0
  7 16  1  0
  8  4  1  0
  9 13  1  0
  9  8  1  0
 10 12  1  0
 11  7  1  0
 12  2  1  0
 13 15  2  0
 14 16  1  0
 15  1  1  0
 16  3  1  0
 17 11  1  0
 17 10  2  0
  6 18  1  0
  6 19  1  0
  8 20  1  0
 10 21  1  0
 13 22  1  0
 15 23  1  0
M  END
>  <mol_id>  (72) 
2026-08-23-6tgu-s0-n100-prep-0073

>  <rmsd_to_ref>  (72) 


$$$$

     RDKit          3D

 38 41  0  0  0  0  0  0  0  0999 V2000
    2.5218   15.1906   39.1132 C   0  0  0  0  0  0  0  0  0  0  0  0
   -0.4458   19.8750   43.4359 C   0  0  0  0  0  0  0  0  0  0  0  0
   -1.0051   16.3590   44.5787 C   0  0  0  0  0  0  0  0  0  0  0  0
    1.4684   15.8414   41.9222 O   0  0  0  0  0  0  0  0  0  0  0  0
    3.8510   20.7126   35.8203 O   0  0  0  0  0  0  0  0  0  0  0  0
    2.0221   18.5764   39.7413 C   0  0  0  0  0  0  0  0  0  0  0  0
   -1.2364   17.6905   44.5228 C   0  0  0  0  0  0  0  0  0  0  0  0
   -0.5168   18.4653   43.5544 C   0  0  0  0  0  0  0  0  0  0  0  0
    1.9315   17.3265   40.1153 N   0  0  0  0  0  0  0  0  0  0  0  0
   -0.0805   15.7395   43.6189 C   0  0  0  0  0  0  0  0  0  0  0  0
    3.5556   17.1104   36.8904 C   0  0  0  0  0  0  0  0  0  0  0  0
    2.8614   19.8782   37.6642 C   0  0  0  0  0  0  0  0  0  0  0  0
    0.8221   19.0229   41.7558 N   0  0  0  0  0  0  0  0  0  0  0  0
    3.9253   18.3400   36.0942 C   0  0  0  0  0  0  0  0  0  0  0  0
    0.3309   20.1848   42.2625 C   0  0  0  0  0  0  0  0  0  0  0  0
    0.6343   16.4596   42.6382 C   0  0  0  0  0  0  0  0  0  0  0  0
    2.6016   18.7032   38.5110 C   0  0  0  0  0  0  0  0  0  0  0  0
    2.9321   17.4415   38.0887 C   0  0  0  0  0  0  0  0  0  0  0  0
    2.5681   16.6561   39.0803 C   0  0  0  0  0  0  0  0  0  0  0  0
    1.5206   19.5509   40.4387 N   0  0  0  0  0  0  0  0  0  0  0  0
    0.3454   17.9531   42.6020 C   0  0  0  0  0  0  0  0  0  0  0  0
    0.6421   21.4350   41.8720 N   0  0  0  0  0  0  0  0  0  0  0  0
    3.5939   19.7233   36.4355 C   0  0  0  0  0  0  0  0  0  0  0  0
   -0.9199   20.8054   44.1937 O   0  0  0  0  0  0  0  0  0  0  0  0
    2.5189   14.8473   40.1582 H   0  0  0  0  0  0  0  0  0  0  0  0
    1.6083   14.8412   38.6099 H   0  0  0  0  0  0  0  0  0  0  0  0
    3.4036   14.7842   38.5961 H   0  0  0  0  0  0  0  0  0  0  0  0
   -1.5069   15.7426   45.3391 H   0  0  0  0  0  0  0  0  0  0  0  0
   -1.9580   18.1666   45.2027 H   0  0  0  0  0  0  0  0  0  0  0  0
    0.6797   15.2256   44.2255 H   0  0  0  0  0  0  0  0  0  0  0  0
   -0.7802   15.1675   42.9918 H   0  0  0  0  0  0  0  0  0  0  0  0
    3.7551   16.0795   36.5625 H   0  0  0  0  0  0  0  0  0  0  0  0
    2.4973   20.8704   37.9691 H   0  0  0  0  0  0  0  0  0  0  0  0
    4.4986   18.1797   35.1693 H   0  0  0  0  0  0  0  0  0  0  0  0
    1.5715   20.5433   40.1678 H   0  0  0  0  0  0  0  0  0  0  0  0
    0.2020   22.2435   42.3342 H   0  0  0  0  0  0  0  0  0  0  0  0
    1.3202   21.5830   41.1110 H   0  0  0  0  0  0  0  0  0  0  0  0
   -0.7757   21.7564   43.9592 H   0  0  0  0  0  0  0  0  0  0  0  0
  2  8  1  0
  2 24  1  0
  4 16  2  0
  5 23  2  0
  6  9  2  0
  6 20  1  0
  7  3  2  0
  8  7  1  0
 10  3  1  0
 11 18  1  0
 12 17  2  0
 13 15  1  0
 13 21  1  0
 14 23  1  0
 14 11  2  0
 15  2  2  0
 16 10  1  0
 17  6  1  0
 18 17  1  0
 18 19  2  0
 19  1  1  0
 19  9  1  0
 20 13  1  0
 21 16  1  0
 21  8  2  0
 22 15  1  0
 23 12  1  0
  1 25  1  0
  1 26  1  0
  1 27  1  0
  3 28  1  0
  7 29  1  0
 10 30  1  0
 10 31  1  0
 11 32  1  0
 12 33  1  0
 14 34  1  0
 20 35  1  0
 22 36  1  0
 22 37  1  0
 24 38  1  0
M  END
>  <mol_id>  (73) 
2026-08-23-6tgu-s0-n100-prep-0074

>  <rmsd_to_ref>  (73) 


$$$$

     RDKit          3D

 35 38  0  0  0  0  0  0  0  0999 V2000
    0.1990   17.6778   42.7000 C   0  0  0  0  0  0  0  0  0  0  0  0
    0.7143   15.6149   41.4385 C   0  0  0  0  0  0  0  0  0  0  0  0
    3.7306   18.3876   35.7088 O   0  0  0  0  0  0  0  0  0  0  0  0
    3.5106   19.6642   36.3954 N   0  0  0  0  0  0  0  0  0  0  0  0
    2.9740   19.7366   37.6662 C   0  0  0  0  0  0  0  0  0  0  0  0
   -0.2369   18.3443   43.8096 N   0  0  0  0  0  0  0  0  0  0  0  0
   -0.6621   13.0334   42.8486 C   0  0  0  0  0  0  0  0  0  0  0  0
    2.7045   21.0038   38.2012 C   0  0  0  0  0  0  0  0  0  0  0  0
   -0.7733   17.5893   44.8121 C   0  0  0  0  0  0  0  0  0  0  0  0
    1.4248   16.3218   40.5034 C   0  0  0  0  0  0  0  0  0  0  0  0
    1.8030   19.9511   40.2150 C   0  0  0  0  0  0  0  0  0  0  0  0
    1.1122   19.8173   41.4420 C   0  0  0  0  0  0  0  0  0  0  0  0
    4.0529   20.8386   35.8589 O   0  0  0  0  0  0  0  0  0  0  0  0
    2.2049   21.0798   39.5447 C   0  0  0  0  0  0  0  0  0  0  0  0
    0.1723   16.2329   42.5739 C   0  0  0  0  0  0  0  0  0  0  0  0
   -0.9464   16.1853   44.7992 C   0  0  0  0  0  0  0  0  0  0  0  0
    2.6631   18.5548   38.3706 C   0  0  2  0  0  0  0  0  0  0  0  0
    1.4757   17.7228   40.5587 C   0  0  0  0  0  0  0  0  0  0  0  0
    2.0031   18.6721   39.6629 C   0  0  0  0  0  0  0  0  0  0  0  0
    0.9040   18.4490   41.6739 C   0  0  0  0  0  0  0  0  0  0  0  0
   -0.4366   15.4732   43.6207 C   0  0  0  0  0  0  0  0  0  0  0  0
    2.8080   17.3387   37.9401 O   0  0  0  0  0  0  0  0  0  0  0  0
   -0.5494   14.0975   43.6746 O   0  0  0  0  0  0  0  0  0  0  0  0
    0.5656   14.5346   41.2942 H   0  0  0  0  0  0  0  0  0  0  0  0
   -0.6680   12.1073   43.4423 H   0  0  0  0  0  0  0  0  0  0  0  0
   -1.5998   13.1094   42.2785 H   0  0  0  0  0  0  0  0  0  0  0  0
    0.1897   13.0174   42.1529 H   0  0  0  0  0  0  0  0  0  0  0  0
    2.8713   21.9150   37.6078 H   0  0  0  0  0  0  0  0  0  0  0  0
   -1.1021   18.1232   45.7159 H   0  0  0  0  0  0  0  0  0  0  0  0
    1.9586   15.7869   39.7040 H   0  0  0  0  0  0  0  0  0  0  0  0
    0.7943   20.6406   42.0987 H   0  0  0  0  0  0  0  0  0  0  0  0
    2.1430   22.0575   40.0450 H   0  0  0  0  0  0  0  0  0  0  0  0
   -1.4373   15.6550   45.6285 H   0  0  0  0  0  0  0  0  0  0  0  0
    1.6428   18.5785   37.9602 H   0  0  0  0  0  0  0  0  0  0  0  0
    2.9016   16.7246   38.7110 H   0  0  0  0  0  0  0  0  0  0  0  0
  1 15  2  0
  1  6  1  0
  2 15  1  0
  3  4  1  0
  4  5  1  0
  5  8  2  0
  5 17  1  0
  6  9  2  0
  7 23  1  0
  8 14  1  0
  9 16  1  0
 10  2  2  0
 11 12  1  0
 12 20  2  0
 13  4  2  0
 14 11  2  0
 15 21  1  0
 17 22  1  0
 17 19  1  0
 18 10  1  0
 18 20  1  0
 19 11  1  0
 19 18  2  0
 20  1  1  0
 21 23  1  0
 21 16  2  0
  2 24  1  0
  7 25  1  0
  7 26  1  0
  7 27  1  0
  8 28  1  0
  9 29  1  0
 10 30  1  0
 12 31  1  0
 14 32  1  0
 16 33  1  0
 17 34  1  1
 22 35  1  0
M  CHG  2   3  -1   4   1
M  END
>  <mol_id>  (74) 
2026-08-23-6tgu-s0-n100-prep-0075

>  <rmsd_to_ref>  (74) 


$$$$

     RDKit          3D

 47 50  0  0  0  0  0  0  0  0999 V2000
    1.6188   18.8039   40.9292 O   0  0  0  0  0  0  0  0  0  0  0  0
    3.8454   21.4988   34.9939 O   0  0  0  0  0  0  0  0  0  0  0  0
    0.0386   14.5265   44.0075 C   0  0  0  0  0  0  0  0  0  0  0  0
    3.3696   20.2441   36.9614 C   0  0  0  0  0  0  0  0  0  0  0  0
    0.4398   15.7378   43.3698 C   0  0  0  0  0  0  0  0  0  0  0  0
    5.5670   14.9530   37.4474 F   0  0  0  0  0  0  0  0  0  0  0  0
    1.3986   15.8719   42.4685 N   0  0  0  0  0  0  0  0  0  0  0  0
    0.8937   20.9135   41.2692 C   0  0  0  0  0  0  0  0  0  0  0  0
    3.1567   21.4394   36.1575 C   0  0  0  0  0  0  0  0  0  0  0  0
   -0.0570   17.0759   43.8220 C   0  0  0  0  0  0  0  0  0  0  0  0
    3.3925   18.3348   38.2686 C   0  0  0  0  0  0  0  0  0  0  0  0
    0.5331   13.3639   43.4927 C   0  0  0  0  0  0  0  0  0  0  0  0
    3.9417   16.0398   38.8271 C   0  0  0  0  0  0  0  0  0  0  0  0
    0.7198   18.8631   41.9839 C   0  0  2  0  0  0  0  0  0  0  0  0
    1.6196   20.0716   40.3746 C   0  0  2  0  0  0  0  0  0  0  0  0
    3.2354   17.2637   39.1191 C   0  0  0  0  0  0  0  0  0  0  0  0
    2.9065   19.7600   38.1880 C   0  0  0  0  0  0  0  0  0  0  0  0
    1.6399   21.6290   38.8294 O   0  0  0  0  0  0  0  0  0  0  0  0
    2.4286   22.3542   36.3683 O   0  0  0  0  0  0  0  0  0  0  0  0
    0.2765   17.9814   42.8993 N   0  0  0  0  0  0  0  0  0  0  0  0
    3.5282   14.2602   40.8992 Cl  0  0  0  0  0  0  0  0  0  0  0  0
    4.2154   18.1161   37.0749 C   0  0  2  0  0  0  0  0  0  0  0  0
    1.4369   13.4251   42.3664 C   0  0  0  0  0  0  0  0  0  0  0  0
    2.0101   14.6221   41.8611 C   0  0  0  0  0  0  0  0  0  0  0  0
    2.0431   20.5032   39.1096 C   0  0  0  0  0  0  0  0  0  0  0  0
    4.7381   15.9369   37.7093 C   0  0  0  0  0  0  0  0  0  0  0  0
    0.2362   20.0494   42.1827 C   0  0  0  0  0  0  0  0  0  0  0  0
    4.8110   16.9586   36.7161 C   0  0  0  0  0  0  0  0  0  0  0  0
   -0.8666   14.5077   45.1865 C   0  0  0  0  0  0  0  0  0  0  0  0
    4.2299   19.3072   36.4210 N   0  0  0  0  0  0  0  0  0  0  0  0
   -0.6346   17.3025   44.8353 O   0  0  0  0  0  0  0  0  0  0  0  0
    0.1571   21.5134   40.7147 H   0  0  0  0  0  0  0  0  0  0  0  0
    1.5624   21.6137   41.7913 H   0  0  0  0  0  0  0  0  0  0  0  0
    0.2482   12.3948   43.9281 H   0  0  0  0  0  0  0  0  0  0  0  0
    3.8426   15.1795   39.5054 H   0  0  0  0  0  0  0  0  0  0  0  0
    1.5459   19.0839   42.6758 H   0  0  0  0  0  0  0  0  0  0  0  0
    2.5579   20.1546   39.8064 H   0  0  0  0  0  0  0  0  0  0  0  0
    2.5848   17.3393   40.0029 H   0  0  0  0  0  0  0  0  0  0  0  0
   -0.7035   18.2682   42.7644 H   0  0  0  0  0  0  0  0  0  0  0  0
    3.3172   17.8296   36.5082 H   0  0  0  0  0  0  0  0  0  0  0  0
    1.6984   12.4805   41.8668 H   0  0  0  0  0  0  0  0  0  0  0  0
    0.4315   20.3705   43.2165 H   0  0  0  0  0  0  0  0  0  0  0  0
   -0.8530   20.0647   42.0295 H   0  0  0  0  0  0  0  0  0  0  0  0
    5.3078   16.8162   35.7450 H   0  0  0  0  0  0  0  0  0  0  0  0
   -0.2698   14.4111   46.1055 H   0  0  0  0  0  0  0  0  0  0  0  0
   -1.4437   15.4435   45.2207 H   0  0  0  0  0  0  0  0  0  0  0  0
   -1.5560   13.6544   45.1058 H   0  0  0  0  0  0  0  0  0  0  0  0
  1 14  1  0
  2  9  2  0
  3 29  1  0
  4 17  1  0
  5 10  1  0
  5  3  2  0
  6 26  1  0
  7  5  1  0
  8 27  1  0
  9 19  1  0
  9  4  1  0
 10 31  2  0
 11 16  1  0
 12  3  1  0
 13 16  2  0
 14 27  1  0
 14 20  1  0
 15 25  1  0
 15  1  1  0
 15  8  1  0
 17 11  2  0
 17 25  1  0
 18 25  2  0
 20 10  1  0
 21 24  1  0
 22 28  1  0
 22 11  1  0
 23 12  2  0
 24  7  2  0
 24 23  1  0
 26 13  1  0
 28 26  2  0
 30  4  2  0
 30 22  1  0
  8 32  1  0
  8 33  1  0
 12 34  1  0
 13 35  1  0
 14 36  1  6
 15 37  1  1
 16 38  1  0
 20 39  1  0
 22 40  1  6
 23 41  1  0
 27 42  1  0
 27 43  1  0
 28 44  1  0
 29 45  1  0
 29 46  1  0
 29 47  1  0
M  CHG  1  19  -1
M  END
>  <mol_id>  (75) 
2026-08-23-6tgu-s0-n100-prep-0076

>  <rmsd_to_ref>  (75) 


$$$$

     RDKit          3D

 38 41  0  0  0  0  0  0  0  0999 V2000
    2.2439   21.0223   38.2758 C   0  0  0  0  0  0  0  0  0  0  0  0
    0.9879   17.8138   41.5767 C   0  0  0  0  0  0  0  0  0  0  0  0
    2.2306   12.1650   41.6649 O   0  0  0  0  0  0  0  0  0  0  0  0
    1.8051   20.3376   39.3420 C   0  0  0  0  0  0  0  0  0  0  0  0
    0.0157   17.4275   44.6221 C   0  0  0  0  0  0  0  0  0  0  0  0
    3.3864   19.0530   37.3766 C   0  0  0  0  0  0  0  0  0  0  0  0
    3.4217   21.1312   36.1867 C   0  0  0  0  0  0  0  0  0  0  0  0
    2.8358   14.0116   39.6436 O   0  0  0  0  0  0  0  0  0  0  0  0
    2.1139   14.2658   40.6560 C   0  0  0  0  0  0  0  0  0  0  0  0
    1.5933   13.1728   41.5719 C   0  0  0  0  0  0  0  0  0  0  0  0
    0.3064   18.8493   42.3449 C   0  0  0  0  0  0  0  0  0  0  0  0
   -1.1241   19.6264   44.0070 N   0  0  0  0  0  0  0  0  0  0  0  0
   -0.3032   18.5685   43.7043 C   0  0  1  0  0  0  0  0  0  0  0  0
    2.8669   18.3157   38.4475 C   0  0  0  0  0  0  0  0  0  0  0  0
   -1.1045   20.5150   42.9784 C   0  0  0  0  0  0  0  0  0  0  0  0
    2.1149   18.9094   39.4612 C   0  0  0  0  0  0  0  0  0  0  0  0
   -0.1967   20.0796   42.0422 C   0  0  0  0  0  0  0  0  0  0  0  0
    3.8051   21.5637   35.2946 N   0  0  0  0  0  0  0  0  0  0  0  0
    2.2860   16.7556   39.9069 C   0  0  0  0  0  0  0  0  0  0  0  0
    2.9440   16.8599   38.7587 N   0  0  0  0  0  0  0  0  0  0  0  0
    0.2870   13.2939   42.2541 C   0  0  0  0  0  0  0  0  0  0  0  0
    1.7473   18.0239   40.3973 C   0  0  0  0  0  0  0  0  0  0  0  0
    1.0831   16.3784   41.8580 C   0  0  0  0  0  0  0  0  0  0  0  0
    3.0685   20.4498   37.2872 C   0  0  0  0  0  0  0  0  0  0  0  0
    1.8275   15.7147   40.8590 C   0  0  0  0  0  0  0  0  0  0  0  0
    1.9474   22.0761   38.1685 H   0  0  0  0  0  0  0  0  0  0  0  0
    1.2168   20.8437   40.1217 H   0  0  0  0  0  0  0  0  0  0  0  0
   -0.1281   17.7450   45.6654 H   0  0  0  0  0  0  0  0  0  0  0  0
   -0.6516   16.5815   44.4009 H   0  0  0  0  0  0  0  0  0  0  0  0
    1.0610   17.1186   44.4735 H   0  0  0  0  0  0  0  0  0  0  0  0
    4.0241   18.5722   36.6202 H   0  0  0  0  0  0  0  0  0  0  0  0
    0.5393   19.0838   44.1886 H   0  0  0  0  0  0  0  0  0  0  0  0
   -1.7128   21.4287   42.9072 H   0  0  0  0  0  0  0  0  0  0  0  0
    0.0905   20.6575   41.1514 H   0  0  0  0  0  0  0  0  0  0  0  0
    0.4248   13.1581   43.3370 H   0  0  0  0  0  0  0  0  0  0  0  0
   -0.1367   14.2904   42.0606 H   0  0  0  0  0  0  0  0  0  0  0  0
   -0.3989   12.5234   41.8723 H   0  0  0  0  0  0  0  0  0  0  0  0
    0.6339   15.8839   42.7319 H   0  0  0  0  0  0  0  0  0  0  0  0
  1  4  2  0
  2 23  1  0
  2 11  1  0
  4 16  1  0
  6 14  1  0
  7 24  1  0
  8  9  2  0
  9 25  1  0
  9 10  1  0
 10  3  2  0
 10 21  1  0
 11 13  1  0
 13 12  1  0
 13  5  1  0
 14 20  1  0
 14 16  2  0
 15 12  2  0
 16 22  1  0
 17 11  2  0
 17 15  1  0
 18  7  3  0
 19 22  1  0
 19 25  1  0
 20 19  2  0
 22  2  2  0
 24  6  2  0
 24  1  1  0
 25 23  2  0
  1 26  1  0
  4 27  1  0
  5 28  1  0
  5 29  1  0
  5 30  1  0
  6 31  1  0
 13 32  1  6
 15 33  1  0
 17 34  1  0
 21 35  1  0
 21 36  1  0
 21 37  1  0
 23 38  1  0
M  END
>  <mol_id>  (76) 
2026-08-23-6tgu-s0-n100-prep-0077

>  <rmsd_to_ref>  (76) 


$$$$

     RDKit          3D

 27 28  0  0  0  0  0  0  0  0999 V2000
    3.1511   20.4909   37.3723 C   0  0  0  0  0  0  0  0  0  0  0  0
    2.7510   19.8525   38.4843 C   0  0  0  0  0  0  0  0  0  0  0  0
    1.6252   19.1914   40.6042 C   0  0  0  0  0  0  0  0  0  0  0  0
   -0.4239   18.1372   43.1739 C   0  0  0  0  0  0  0  0  0  0  0  0
    2.3449   15.7506   39.5390 C   0  0  0  0  0  0  0  0  0  0  0  0
   -1.7345   20.5815   43.3234 C   0  0  0  0  0  0  0  0  0  0  0  0
    1.2555   19.1423   41.8388 N   0  0  0  0  0  0  0  0  0  0  0  0
    2.8829   18.4544   38.8022 C   0  0  0  0  0  0  0  0  0  0  0  0
    4.2386   20.2338   36.8178 O   0  0  0  0  0  0  0  0  0  0  0  0
    2.3299   21.4546   36.9458 O   0  0  0  0  0  0  0  0  0  0  0  0
    2.2295   18.0716   39.9681 C   0  0  0  0  0  0  0  0  0  0  0  0
   -0.6617   20.4300   42.4932 C   0  0  0  0  0  0  0  0  0  0  0  0
   -1.5151   18.2617   44.0542 C   0  0  0  0  0  0  0  0  0  0  0  0
    1.7006   20.6092   39.6793 S   0  0  0  0  0  0  0  0  0  0  0  0
    2.1300   16.8529   40.4765 O   0  0  0  0  0  0  0  0  0  0  0  0
   -2.1768   19.5369   44.1290 C   0  0  0  0  0  0  0  0  0  0  0  0
    0.1007   19.2390   42.5212 C   0  0  0  0  0  0  0  0  0  0  0  0
    0.0201   17.1457   43.0016 H   0  0  0  0  0  0  0  0  0  0  0  0
    2.3245   14.7958   40.0848 H   0  0  0  0  0  0  0  0  0  0  0  0
    1.5498   15.7555   38.7788 H   0  0  0  0  0  0  0  0  0  0  0  0
    3.3219   15.8718   39.0484 H   0  0  0  0  0  0  0  0  0  0  0  0
   -2.2593   21.5477   43.3563 H   0  0  0  0  0  0  0  0  0  0  0  0
    2.0560   18.9885   42.4684 H   0  0  0  0  0  0  0  0  0  0  0  0
    3.4513   17.7502   38.1768 H   0  0  0  0  0  0  0  0  0  0  0  0
   -0.3887   21.2382   41.7987 H   0  0  0  0  0  0  0  0  0  0  0  0
   -1.8513   17.4111   44.6654 H   0  0  0  0  0  0  0  0  0  0  0  0
   -3.0233   19.6844   44.8158 H   0  0  0  0  0  0  0  0  0  0  0  0
  1  2  1  0
  2  8  2  0
  2 14  1  0
  3  7  1  0
  4 13  2  0
  5 15  1  0
  6 16  2  0
  7 17  1  0
  8 11  1  0
  9  1  2  0
 10  1  1  0
 11 15  1  0
 11  3  2  0
 12  6  1  0
 13 16  1  0
 14  3  1  0
 17 12  2  0
 17  4  1  0
  4 18  1  0
  5 19  1  0
  5 20  1  0
  5 21  1  0
  6 22  1  0
  7 23  1  0
  8 24  1  0
 12 25  1  0
 13 26  1  0
 16 27  1  0
M  CHG  1  10  -1
M  END
>  <mol_id>  (77) 
2026-08-23-6tgu-s0-n100-prep-0078

>  <rmsd_to_ref>  (77) 


$$$$

     RDKit          3D

 30 31  0  0  0  0  0  0  0  0999 V2000
    2.0728   17.6336   39.1162 C   0  0  0  0  0  0  0  0  0  0  0  0
    0.2098   19.7453   42.0124 C   0  0  0  0  0  0  0  0  0  0  0  0
   -0.8377   20.7207   43.9343 O   0  0  0  0  0  0  0  0  0  0  0  0
   -0.9026   18.3288   43.7883 C   0  0  1  0  0  0  0  0  0  0  0  0
   -1.5869   18.3558   45.1465 C   0  0  0  0  0  0  0  0  0  0  0  0
    2.0067   20.2722   39.5808 S   0  0  0  0  0  0  0  0  0  0  0  0
    2.0051   16.2966   39.4964 C   0  0  0  0  0  0  0  0  0  0  0  0
    1.4943   18.8166   39.9294 C   0  0  0  0  0  0  0  0  0  0  0  0
    3.0674   16.3511   37.6211 N   0  0  0  0  0  0  0  0  0  0  0  0
   -1.2989   17.9734   46.2830 C   0  0  0  0  0  0  0  0  0  0  0  0
    2.9064   18.6144   36.8198 C   0  0  0  0  0  0  0  0  0  0  0  0
   -0.7668   17.2794   42.9919 C   0  0  0  0  0  0  0  0  0  0  0  0
    2.6402   15.5676   38.6039 O   0  0  0  0  0  0  0  0  0  0  0  0
    0.6633   18.5316   41.2380 C   0  0  0  0  0  0  0  0  0  0  0  0
    3.8502   18.4148   35.9792 O   0  0  0  0  0  0  0  0  0  0  0  0
   -0.5323   19.6953   43.3390 C   0  0  0  0  0  0  0  0  0  0  0  0
    0.2544   17.3060   41.8988 C   0  0  0  0  0  0  0  0  0  0  0  0
    2.2610   19.6331   36.6154 O   0  0  0  0  0  0  0  0  0  0  0  0
    0.4255   20.9730   41.4999 O   0  0  0  0  0  0  0  0  0  0  0  0
    2.6340   17.6192   37.8429 C   0  0  0  0  0  0  0  0  0  0  0  0
    0.0530   18.0835   44.2746 H   0  0  0  0  0  0  0  0  0  0  0  0
   -2.5779   18.8313   45.1049 H   0  0  0  0  0  0  0  0  0  0  0  0
    1.5027   15.9120   40.3962 H   0  0  0  0  0  0  0  0  0  0  0  0
   -2.0068   18.1268   47.1108 H   0  0  0  0  0  0  0  0  0  0  0  0
   -0.3341   17.4789   46.4690 H   0  0  0  0  0  0  0  0  0  0  0  0
   -0.5238   16.4204   43.6346 H   0  0  0  0  0  0  0  0  0  0  0  0
   -1.7227   17.2444   42.4488 H   0  0  0  0  0  0  0  0  0  0  0  0
   -0.1301   16.6466   41.1067 H   0  0  0  0  0  0  0  0  0  0  0  0
    1.1700   17.0286   42.4416 H   0  0  0  0  0  0  0  0  0  0  0  0
    0.9034   21.0730   40.6387 H   0  0  0  0  0  0  0  0  0  0  0  0
  1  7  2  0
  1  8  1  0
  2 16  1  0
  4  5  1  0
  5 10  2  3
  6  8  2  0
  8 14  1  0
  9 20  2  0
  9 13  1  0
 11 20  1  0
 12  4  1  0
 13  7  1  0
 14 17  1  0
 14  2  2  0
 15 11  2  0
 16  4  1  0
 16  3  2  0
 17 12  1  0
 18 11  1  0
 19  2  1  0
 20  1  1  0
  4 21  1  1
  5 22  1  0
  7 23  1  0
 10 24  1  0
 10 25  1  0
 12 26  1  0
 12 27  1  0
 17 28  1  0
 17 29  1  0
 19 30  1  0
M  CHG  1  18  -1
M  END
>  <mol_id>  (78) 
2026-08-23-6tgu-s0-n100-prep-0079

>  <rmsd_to_ref>  (78) 


$$$$

     RDKit          3D

 26 27  0  0  0  0  0  0  0  0999 V2000
    3.7107   20.3443   36.2227 O   0  0  0  0  0  0  0  0  0  0  0  0
    0.0116   19.3313   42.1808 C   0  0  0  0  0  0  0  0  0  0  0  0
    1.9368   19.7333   39.2251 C   0  0  2  0  0  0  0  0  0  0  0  0
    2.6760   18.7516   38.0653 S   0  0  0  0  0  0  0  0  0  0  0  0
    1.6952   19.1476   40.4592 C   0  0  0  0  0  0  0  0  0  0  0  0
   -0.6617   17.7888   43.8529 C   0  0  0  0  0  0  0  0  0  0  0  0
    0.1202   18.0799   42.7473 C   0  0  0  0  0  0  0  0  0  0  0  0
    0.7859   19.8252   41.1502 N   0  0  0  0  0  0  0  0  0  0  0  0
    1.5309   20.9889   38.7699 C   0  0  0  0  0  0  0  0  0  0  0  0
    2.9170   20.2495   37.1252 C   0  0  0  0  0  0  0  0  0  0  0  0
   -1.5541   18.7629   44.3457 C   0  0  0  0  0  0  0  0  0  0  0  0
   -0.9782   20.2806   42.6634 C   0  0  0  0  0  0  0  0  0  0  0  0
    2.0270   21.2470   37.5613 C   0  0  0  0  0  0  0  0  0  0  0  0
   -1.6984   19.9653   43.6860 N   0  0  0  0  0  0  0  0  0  0  0  0
    2.9257   20.0638   39.5756 H   0  0  0  0  0  0  0  0  0  0  0  0
    1.3330   18.1208   40.3027 H   0  0  0  0  0  0  0  0  0  0  0  0
    2.6346   19.1488   41.0314 H   0  0  0  0  0  0  0  0  0  0  0  0
   -0.5872   16.8064   44.3422 H   0  0  0  0  0  0  0  0  0  0  0  0
    0.8104   17.3309   42.3319 H   0  0  0  0  0  0  0  0  0  0  0  0
    0.6451   20.8125   40.8929 H   0  0  0  0  0  0  0  0  0  0  0  0
    0.4324   21.0144   38.7197 H   0  0  0  0  0  0  0  0  0  0  0  0
    1.9052   21.7506   39.4697 H   0  0  0  0  0  0  0  0  0  0  0  0
   -2.1360   18.5635   45.2576 H   0  0  0  0  0  0  0  0  0  0  0  0
   -1.1107   21.2519   42.1645 H   0  0  0  0  0  0  0  0  0  0  0  0
    2.5619   22.2075   37.5964 H   0  0  0  0  0  0  0  0  0  0  0  0
    1.1863   21.2807   36.8528 H   0  0  0  0  0  0  0  0  0  0  0  0
  1 10  2  0
  2 12  2  0
  2  7  1  0
  3  5  1  0
  4  3  1  0
  5  8  1  0
  6 11  1  0
  7  6  2  0
  8  2  1  0
  9  3  1  0
 10 13  1  0
 10  4  1  0
 12 14  1  0
 13  9  1  0
 14 11  2  0
  3 15  1  1
  5 16  1  0
  5 17  1  0
  6 18  1  0
  7 19  1  0
  8 20  1  0
  9 21  1  0
  9 22  1  0
 11 23  1  0
 12 24  1  0
 13 25  1  0
 13 26  1  0
M  END
>  <mol_id>  (79) 
2026-08-23-6tgu-s0-n100-prep-0080

>  <rmsd_to_ref>  (79) 


$$$$

     RDKit          3D

 29 30  0  0  0  0  0  0  0  0999 V2000
    3.4201   18.8605   36.9193 C   0  0  0  0  0  0  0  0  0  0  0  0
    0.1098   17.1385   42.5041 C   0  0  0  0  0  0  0  0  0  0  0  0
   -0.5423   19.2398   44.2350 N   0  0  0  0  0  0  0  0  0  0  0  0
    1.4168   20.0026   40.7486 C   0  0  0  0  0  0  0  0  0  0  0  0
   -0.4938   16.8975   43.7980 C   0  0  0  0  0  0  0  0  0  0  0  0
    2.2480   17.5603   39.0428 C   0  0  0  0  0  0  0  0  0  0  0  0
    2.3781   16.1869   38.4660 C   0  0  0  0  0  0  0  0  0  0  0  0
    2.0785   15.2055   39.1720 O   0  0  0  0  0  0  0  0  0  0  0  0
    1.4867   17.6800   40.2268 C   0  0  0  0  0  0  0  0  0  0  0  0
   -0.7485   17.9494   44.6216 C   0  0  0  0  0  0  0  0  0  0  0  0
    0.3888   18.3868   42.1938 C   0  0  0  0  0  0  0  0  0  0  0  0
    1.0985   18.6716   41.0216 C   0  0  1  0  0  0  0  0  0  0  0  0
    2.0541   20.5642   39.7741 C   0  0  0  0  0  0  0  0  0  0  0  0
   -0.7888   15.7322   44.2604 O   0  0  0  0  0  0  0  0  0  0  0  0
    3.7807   20.0035   36.5690 O   0  0  0  0  0  0  0  0  0  0  0  0
    3.5578   17.7996   36.2193 O   0  0  0  0  0  0  0  0  0  0  0  0
    2.5847   20.0077   38.6977 C   0  0  0  0  0  0  0  0  0  0  0  0
    2.6670   15.9946   37.2651 O   0  0  0  0  0  0  0  0  0  0  0  0
    0.0452   19.4271   43.0401 C   0  0  0  0  0  0  0  0  0  0  0  0
    2.7190   18.6912   38.2559 C   0  0  0  0  0  0  0  0  0  0  0  0
    0.3261   16.3131   41.8099 H   0  0  0  0  0  0  0  0  0  0  0  0
    1.0558   20.7104   41.5093 H   0  0  0  0  0  0  0  0  0  0  0  0
    1.1226   16.7042   40.5806 H   0  0  0  0  0  0  0  0  0  0  0  0
   -1.1337   17.7522   45.6329 H   0  0  0  0  0  0  0  0  0  0  0  0
    0.1703   18.7743   40.4402 H   0  0  0  0  0  0  0  0  0  0  0  0
    2.1714   21.6553   39.8506 H   0  0  0  0  0  0  0  0  0  0  0  0
   -1.2010   15.6450   45.1563 H   0  0  0  0  0  0  0  0  0  0  0  0
    3.0127   20.7422   37.9995 H   0  0  0  0  0  0  0  0  0  0  0  0
    0.2634   20.4565   42.7196 H   0  0  0  0  0  0  0  0  0  0  0  0
  1 20  1  0
  2  5  2  0
  3 10  2  0
  4 12  1  0
  5 10  1  0
  5 14  1  0
  6  9  2  0
  7  6  1  0
  7  8  1  0
  9 12  1  0
 11 19  2  0
 11  2  1  0
 12 11  1  0
 13  4  2  0
 15  1  2  0
 16  1  1  0
 17 13  1  0
 18  7  2  0
 19  3  1  0
 20 17  2  0
 20  6  1  0
  2 21  1  0
  4 22  1  0
  9 23  1  0
 10 24  1  0
 12 25  1  6
 13 26  1  0
 14 27  1  0
 17 28  1  0
 19 29  1  0
M  CHG  2   8  -1  16  -1
M  END
>  <mol_id>  (80) 
2026-08-23-6tgu-s0-n100-prep-0081

>  <rmsd_to_ref>  (80) 


$$$$

     RDKit          3D

 45 49  0  0  0  0  0  0  0  0999 V2000
    3.5238   14.2997   40.4311 C   0  0  1  0  0  0  0  0  0  0  0  0
    2.4128   19.6199   37.5402 C   0  0  0  0  0  0  0  0  0  0  0  0
   -0.9938   18.8758   43.0365 C   0  0  0  0  0  0  0  0  0  0  0  0
   -0.2833   17.6862   43.0407 C   0  0  0  0  0  0  0  0  0  0  0  0
    2.2397   17.7113   39.1794 C   0  0  1  0  0  0  0  0  0  0  0  0
    0.7151   18.4277   41.0865 C   0  0  0  0  0  0  0  0  0  0  0  0
   -0.5193   16.6808   44.2669 C   0  0  0  0  0  0  0  0  0  0  0  0
    1.4889   18.0984   40.0439 N   0  0  0  0  0  0  0  0  0  0  0  0
    2.8951   15.4322   40.3480 C   0  0  2  0  0  0  0  0  0  0  0  0
    0.5339   17.4398   42.0512 C   0  0  0  0  0  0  0  0  0  0  0  0
    2.7249   18.3379   37.8931 C   0  0  0  0  0  0  0  0  0  0  0  0
    4.3326   14.2114   39.4189 C   0  0  2  0  0  0  0  0  0  0  0  0
    0.2187   19.6617   41.1819 C   0  0  0  0  0  0  0  0  0  0  0  0
    3.5919   18.7170   35.8577 O   0  0  0  0  0  0  0  0  0  0  0  0
    3.2517   13.3401   41.4357 F   0  0  0  0  0  0  0  0  0  0  0  0
   -1.1305   21.2220   42.5072 O   0  0  0  0  0  0  0  0  0  0  0  0
   -0.5886   19.9451   42.2780 C   0  0  0  0  0  0  0  0  0  0  0  0
    3.4420   17.7872   36.8236 N   0  0  0  0  0  0  0  0  0  0  0  0
    1.7353   20.6599   38.1695 C   0  0  0  0  0  0  0  0  0  0  0  0
    5.5012   13.4299   39.1615 F   0  0  0  0  0  0  0  0  0  0  0  0
    2.3167   22.2132   36.3716 C   0  0  0  0  0  0  0  0  0  0  0  0
    4.1402   15.0674   38.4172 C   0  0  0  0  0  0  0  0  0  0  0  0
    2.9302   21.2237   35.6555 C   0  0  0  0  0  0  0  0  0  0  0  0
    3.3691   15.7388   39.0555 C   0  0  0  0  0  0  0  0  0  0  0  0
    1.7655   22.0205   37.6914 C   0  0  0  0  0  0  0  0  0  0  0  0
    2.6726   16.4829   39.4416 C   0  0  0  0  0  0  0  0  0  0  0  0
    3.0078   19.9078   36.2760 C   0  0  0  0  0  0  0  0  0  0  0  0
    2.7692   13.8330   39.7810 H   0  0  0  0  0  0  0  0  0  0  0  0
   -1.9002   18.9647   43.6534 H   0  0  0  0  0  0  0  0  0  0  0  0
    1.3864   17.2924   38.6259 H   0  0  0  0  0  0  0  0  0  0  0  0
   -0.3493   17.2123   45.2148 H   0  0  0  0  0  0  0  0  0  0  0  0
   -1.5523   16.3036   44.2382 H   0  0  0  0  0  0  0  0  0  0  0  0
    0.1816   15.8366   44.1890 H   0  0  0  0  0  0  0  0  0  0  0  0
    1.0696   18.8159   39.4354 H   0  0  0  0  0  0  0  0  0  0  0  0
    2.0277   14.9183   39.9080 H   0  0  0  0  0  0  0  0  0  0  0  0
    1.0642   16.4786   41.9823 H   0  0  0  0  0  0  0  0  0  0  0  0
    3.7061   13.4167   38.9876 H   0  0  0  0  0  0  0  0  0  0  0  0
    0.4395   20.4263   40.4225 H   0  0  0  0  0  0  0  0  0  0  0  0
   -1.7010   21.3826   43.3002 H   0  0  0  0  0  0  0  0  0  0  0  0
    1.1500   20.4341   39.0731 H   0  0  0  0  0  0  0  0  0  0  0  0
    2.2388   23.2118   35.9168 H   0  0  0  0  0  0  0  0  0  0  0  0
    3.6855   14.6052   37.5285 H   0  0  0  0  0  0  0  0  0  0  0  0
    5.0147   15.5543   37.9610 H   0  0  0  0  0  0  0  0  0  0  0  0
    3.3468   21.4126   34.6551 H   0  0  0  0  0  0  0  0  0  0  0  0
    1.3912   22.8599   38.2959 H   0  0  0  0  0  0  0  0  0  0  0  0
  1 15  1  0
  2 11  1  0
  2 19  2  0
  3  4  2  0
  4  7  1  0
  5 26  1  0
  5  8  1  0
  6 13  1  0
  6 10  2  0
  8  6  1  0
  9 24  1  0
  9  1  1  0
 10  4  1  0
 11  5  1  0
 12 20  1  0
 12  1  1  0
 13 17  2  0
 14 27  1  0
 14 18  1  0
 17 16  1  0
 17  3  1  0
 18 11  2  0
 21 25  2  0
 22 24  1  0
 22 12  1  0
 23 21  1  0
 23 27  2  0
 24 26  2  0
 25 19  1  0
 26  9  1  0
 27  2  1  0
  1 28  1  1
  3 29  1  0
  5 30  1  6
  7 31  1  0
  7 32  1  0
  7 33  1  0
  8 34  1  0
  9 35  1  6
 10 36  1  0
 12 37  1  6
 13 38  1  0
 16 39  1  0
 19 40  1  0
 21 41  1  0
 22 42  1  0
 22 43  1  0
 23 44  1  0
 25 45  1  0
M  END
>  <mol_id>  (81) 
2026-08-23-6tgu-s0-n100-prep-0082

>  <rmsd_to_ref>  (81) 


$$$$

     RDKit          3D

 76 75  0  0  0  0  0  0  0  0999 V2000
   -1.7887   24.2249   43.8362 C   0  0  0  0  0  0  0  0  0  0  0  0
    5.6061   10.5564   34.1776 C   0  0  0  0  0  0  0  0  0  0  0  0
    1.3921   15.1937   40.8854 C   0  0  0  0  0  0  0  0  0  0  0  0
    6.3543   12.2197   35.9415 C   0  0  0  0  0  0  0  0  0  0  0  0
    3.8251   13.4030   39.3496 S   0  0  0  0  0  0  0  0  0  0  0  0
   -1.9621   24.4135   42.3256 C   0  0  0  0  0  0  0  0  0  0  0  0
    4.5292   15.0628   36.8497 N   0  0  0  0  0  0  0  0  0  0  0  0
    0.4362   21.3534   41.4947 C   0  0  0  0  0  0  0  0  0  0  0  0
    5.9689   13.5494   35.7769 C   0  0  0  0  0  0  0  0  0  0  0  0
    3.4516   17.2117   37.4597 C   0  0  0  0  0  0  0  0  0  0  0  0
    0.7073   17.3775   40.8415 C   0  0  0  0  0  0  0  0  0  0  0  0
    6.7487   11.3267   34.7787 C   0  0  0  0  0  0  0  0  0  0  0  0
    0.3679   19.5090   39.7395 O   0  0  0  0  0  0  0  0  0  0  0  0
   -0.2265   16.7780   41.6401 N   0  0  0  0  0  0  0  0  0  0  0  0
    1.8521   13.8408   41.2458 C   0  0  0  0  0  0  0  0  0  0  0  0
   -0.7804   14.5453   43.8684 C   0  0  0  0  0  0  0  0  0  0  0  0
   -0.7908   20.5553   41.5263 C   0  0  0  0  0  0  0  0  0  0  0  0
    1.1380   20.3520   39.0064 C   0  0  0  0  0  0  0  0  0  0  0  0
    3.1784   15.0650   39.1067 O   0  0  0  0  0  0  0  0  0  0  0  0
    0.0256   22.8814   43.4085 O   0  0  0  0  0  0  0  0  0  0  0  0
   -0.7768   19.7481   40.2421 C   0  0  0  0  0  0  0  0  0  0  0  0
    2.7872   17.4551   38.1580 C   0  0  0  0  0  0  0  0  0  0  0  0
    0.1777   23.6646   41.1274 O   0  0  0  0  0  0  0  0  0  0  0  0
    1.7743   16.3321   40.3278 C   0  0  1  0  0  0  0  0  0  0  0  0
    0.5254   15.4673   41.7522 C   0  0  0  0  0  0  0  0  0  0  0  0
    0.9541   13.0225   42.3638 S   0  0  0  0  0  0  0  0  0  0  0  0
   -1.5397   20.3810   42.4015 O   0  0  0  0  0  0  0  0  0  0  0  0
    4.7327   12.7707   38.0231 C   0  0  0  0  0  0  0  0  0  0  0  0
    5.1177   14.0006   36.7502 C   0  0  0  0  0  0  0  0  0  0  0  0
    0.0189   14.4712   42.7742 N   0  0  0  0  0  0  0  0  0  0  0  0
    0.0921   22.7748   42.0840 C   0  0  0  0  0  0  0  0  0  0  0  0
    3.4768   15.2453   37.9137 C   0  0  0  0  0  0  0  0  0  0  0  0
    2.6876   16.8871   39.5764 C   0  0  0  0  0  0  0  0  0  0  0  0
   -2.7595   23.5189   42.4538 C   0  0  0  0  0  0  0  0  0  0  0  0
    1.7980   20.7122   38.2615 N   0  0  0  0  0  0  0  0  0  0  0  0
    3.9355   17.5779   36.2033 O   0  0  0  0  0  0  0  0  0  0  0  0
   -2.5860   24.7657   44.3671 H   0  0  0  0  0  0  0  0  0  0  0  0
   -1.8462   23.1541   44.0810 H   0  0  0  0  0  0  0  0  0  0  0  0
   -0.8096   24.6197   44.1450 H   0  0  0  0  0  0  0  0  0  0  0  0
    4.9450   10.1958   34.9793 H   0  0  0  0  0  0  0  0  0  0  0  0
    5.0381   11.2116   33.5008 H   0  0  0  0  0  0  0  0  0  0  0  0
    5.9993    9.6982   33.6128 H   0  0  0  0  0  0  0  0  0  0  0  0
    7.2206   12.2362   36.6193 H   0  0  0  0  0  0  0  0  0  0  0  0
    5.4127   11.7548   36.2687 H   0  0  0  0  0  0  0  0  0  0  0  0
   -1.0792   24.1793   41.7126 H   0  0  0  0  0  0  0  0  0  0  0  0
   -2.1894   25.3775   41.8471 H   0  0  0  0  0  0  0  0  0  0  0  0
    1.2135   20.8715   42.1060 H   0  0  0  0  0  0  0  0  0  0  0  0
    0.8146   21.4418   40.4656 H   0  0  0  0  0  0  0  0  0  0  0  0
    6.8724   14.1767   35.7877 H   0  0  0  0  0  0  0  0  0  0  0  0
    5.4266   13.6109   34.8219 H   0  0  0  0  0  0  0  0  0  0  0  0
    4.0107   16.3293   37.8042 H   0  0  0  0  0  0  0  0  0  0  0  0
    0.2019   17.8297   39.9754 H   0  0  0  0  0  0  0  0  0  0  0  0
    1.2282   18.1464   41.4310 H   0  0  0  0  0  0  0  0  0  0  0  0
    7.4998   10.6068   35.1360 H   0  0  0  0  0  0  0  0  0  0  0  0
    7.1340   11.9882   33.9888 H   0  0  0  0  0  0  0  0  0  0  0  0
   -0.3455   17.2526   42.5464 H   0  0  0  0  0  0  0  0  0  0  0  0
   -1.1990   16.7466   41.3020 H   0  0  0  0  0  0  0  0  0  0  0  0
    1.8674   13.2383   40.3256 H   0  0  0  0  0  0  0  0  0  0  0  0
    2.8351   13.9871   41.7173 H   0  0  0  0  0  0  0  0  0  0  0  0
   -0.1621   14.5084   44.7775 H   0  0  0  0  0  0  0  0  0  0  0  0
   -1.3449   15.4891   43.8470 H   0  0  0  0  0  0  0  0  0  0  0  0
   -1.4823   13.6983   43.8678 H   0  0  0  0  0  0  0  0  0  0  0  0
   -1.3634   20.2999   39.4928 H   0  0  0  0  0  0  0  0  0  0  0  0
   -1.1915   18.7648   40.5089 H   0  0  0  0  0  0  0  0  0  0  0  0
    2.0422   18.2158   37.8816 H   0  0  0  0  0  0  0  0  0  0  0  0
    1.1833   16.0917   39.4318 H   0  0  0  0  0  0  0  0  0  0  0  0
    5.6788   12.3657   38.4117 H   0  0  0  0  0  0  0  0  0  0  0  0
    4.1095   11.9997   37.5464 H   0  0  0  0  0  0  0  0  0  0  0  0
    3.3313   16.3336   37.8474 H   0  0  0  0  0  0  0  0  0  0  0  0
    3.0382   14.2709   37.6526 H   0  0  0  0  0  0  0  0  0  0  0  0
    3.4805   16.1247   39.5759 H   0  0  0  0  0  0  0  0  0  0  0  0
    2.5727   17.8769   40.0424 H   0  0  0  0  0  0  0  0  0  0  0  0
   -2.9895   23.3828   43.5209 H   0  0  0  0  0  0  0  0  0  0  0  0
   -3.6818   23.7689   41.9089 H   0  0  0  0  0  0  0  0  0  0  0  0
   -2.3350   22.5885   42.0487 H   0  0  0  0  0  0  0  0  0  0  0  0
    4.6657   17.0578   35.7832 H   0  0  0  0  0  0  0  0  0  0  0  0
  2 12  1  0
  3 15  1  0
  3 25  2  0
  6 34  1  0
  6  1  1  0
  7 32  1  0
  8 17  1  0
  8 31  1  0
  9  4  1  0
  9 29  1  0
 10 22  2  3
 11 14  1  0
 12  4  1  0
 13 21  1  0
 14 25  1  0
 15 26  1  0
 17 27  2  0
 18 13  1  0
 19  5  1  0
 21 17  1  0
 22 33  1  0
 23 31  2  0
 24 33  1  0
 24  3  1  0
 24 11  1  0
 25 30  1  0
 26 30  1  0
 28  5  1  0
 29  7  2  0
 29 28  1  0
 30 16  1  0
 31 20  1  0
 32 19  1  0
 35 18  3  0
 36 10  1  0
  1 37  1  0
  1 38  1  0
  1 39  1  0
  2 40  1  0
  2 41  1  0
  2 42  1  0
  4 43  1  0
  4 44  1  0
  6 45  1  0
  6 46  1  0
  8 47  1  0
  8 48  1  0
  9 49  1  0
  9 50  1  0
 10 51  1  0
 11 52  1  0
 11 53  1  0
 12 54  1  0
 12 55  1  0
 14 56  1  0
 14 57  1  0
 15 58  1  0
 15 59  1  0
 16 60  1  0
 16 61  1  0
 16 62  1  0
 21 63  1  0
 21 64  1  0
 22 65  1  0
 24 66  1  6
 28 67  1  0
 28 68  1  0
 32 69  1  0
 32 70  1  0
 33 71  1  0
 33 72  1  0
 34 73  1  0
 34 74  1  0
 34 75  1  0
 36 76  1  0
M  CHG  2  14   1  20  -1
M  END
>  <mol_id>  (82) 
2026-08-23-6tgu-s0-n100-prep-0083

>  <rmsd_to_ref>  (82) 


$$$$

     RDKit          3D

 56 59  0  0  0  0  0  0  0  0999 V2000
    0.9560   19.2530   40.8040 C   0  0  0  0  0  0  0  0  0  0  0  0
    0.1570   17.7750   43.0410 C   0  0  0  0  0  0  0  0  0  0  0  0
   -0.5340   15.4960   45.1330 C   0  0  0  0  0  0  0  0  0  0  0  0
    1.3270   21.9860   40.1770 O   0  0  0  0  0  0  0  0  0  0  0  0
   -0.6580   19.7500   44.3120 C   0  0  0  0  0  0  0  0  0  0  0  0
    3.5470   21.0090   35.3730 C   0  0  0  0  0  0  0  0  0  0  0  0
    3.8570   20.2590   36.3420 O   0  0  0  0  0  0  0  0  0  0  0  0
    2.9160   16.6070   38.7750 C   0  0  2  0  0  0  0  0  0  0  0  0
    2.8330   17.6580   39.4640 N   0  0  0  0  0  0  0  0  0  0  0  0
    3.0830   20.1070   37.3970 C   0  0  0  0  0  0  0  0  0  0  0  0
    3.1450   14.0910   39.7030 C   0  0  0  0  0  0  0  0  0  0  0  0
   -1.0170   20.9270   44.3310 O   0  0  0  0  0  0  0  0  0  0  0  0
    0.8360   15.5860   42.9370 C   0  0  1  0  0  0  0  0  0  0  0  0
    0.0870   19.8050   41.7410 C   0  0  0  0  0  0  0  0  0  0  0  0
    2.3630   18.6010   39.0290 N   0  0  0  0  0  0  0  0  0  0  0  0
    1.8460   19.7270   39.7190 C   0  0  0  0  0  0  0  0  0  0  0  0
    2.0430   13.7330   41.8750 C   0  0  0  0  0  0  0  0  0  0  0  0
    3.7830   13.5290   38.5670 C   0  0  0  0  0  0  0  0  0  0  0  0
   -0.5160   19.0330   45.4660 N   0  0  0  0  0  0  0  0  0  0  0  0
    1.5700   15.0440   41.8550 C   0  0  0  0  0  0  0  0  0  0  0  0
    0.4790   15.0380   44.0780 C   0  0  0  0  0  0  0  0  0  0  0  0
    1.8550   21.0710   39.4300 C   0  0  0  0  0  0  0  0  0  0  0  0
    3.1410   17.2830   37.4860 C   0  0  0  0  0  0  0  0  0  0  0  0
    2.4610   21.1540   38.1100 C   0  0  0  0  0  0  0  0  0  0  0  0
    2.6700   15.4260   39.7960 C   0  0  0  0  0  0  0  0  0  0  0  0
    0.5990   16.9100   42.9780 C   0  0  0  0  0  0  0  0  0  0  0  0
    1.9160   15.8350   40.8490 N   0  0  0  0  0  0  0  0  0  0  0  0
   -0.2680   19.1530   43.0380 C   0  0  1  0  0  0  0  0  0  0  0  0
    2.9080   18.6610   37.8330 C   0  0  0  0  0  0  0  0  0  0  0  0
    2.7950   13.1510   40.8330 C   0  0  0  0  0  0  0  0  0  0  0  0
    0.9918   18.1573   40.8948 H   0  0  0  0  0  0  0  0  0  0  0  0
   -0.1259   15.3115   46.1377 H   0  0  0  0  0  0  0  0  0  0  0  0
   -0.7316   16.5710   45.0093 H   0  0  0  0  0  0  0  0  0  0  0  0
   -1.4716   14.9342   45.0093 H   0  0  0  0  0  0  0  0  0  0  0  0
    1.3729   22.9362   39.9029 H   0  0  0  0  0  0  0  0  0  0  0  0
    3.1534   21.9614   35.7578 H   0  0  0  0  0  0  0  0  0  0  0  0
    4.4390   21.2023   34.7590 H   0  0  0  0  0  0  0  0  0  0  0  0
    2.7789   20.5161   34.7590 H   0  0  0  0  0  0  0  0  0  0  0  0
    4.0017   16.5784   38.9495 H   0  0  0  0  0  0  0  0  0  0  0  0
    2.2877   17.4174   40.3040 H   0  0  0  0  0  0  0  0  0  0  0  0
    0.5083   14.7358   42.3207 H   0  0  0  0  0  0  0  0  0  0  0  0
    0.5165   20.7823   42.0064 H   0  0  0  0  0  0  0  0  0  0  0  0
   -0.8704   19.7365   41.2038 H   0  0  0  0  0  0  0  0  0  0  0  0
    1.8163   13.1150   42.7563 H   0  0  0  0  0  0  0  0  0  0  0  0
    4.5709   12.8350   38.8949 H   0  0  0  0  0  0  0  0  0  0  0  0
    3.0427   12.9842   37.9627 H   0  0  0  0  0  0  0  0  0  0  0  0
    4.2300   14.3321   37.9627 H   0  0  0  0  0  0  0  0  0  0  0  0
   -0.2143   18.0489   45.4271 H   0  0  0  0  0  0  0  0  0  0  0  0
   -0.7106   19.4764   46.3751 H   0  0  0  0  0  0  0  0  0  0  0  0
    0.1286   14.0353   43.7921 H   0  0  0  0  0  0  0  0  0  0  0  0
    1.3889   15.2900   44.6424 H   0  0  0  0  0  0  0  0  0  0  0  0
    4.1691   17.1286   37.1266 H   0  0  0  0  0  0  0  0  0  0  0  0
    2.5009   16.9139   36.6711 H   0  0  0  0  0  0  0  0  0  0  0  0
    2.4312   22.1362   37.6157 H   0  0  0  0  0  0  0  0  0  0  0  0
   -1.2832   19.5757   43.0120 H   0  0  0  0  0  0  0  0  0  0  0  0
    3.1027   12.0949   40.8424 H   0  0  0  0  0  0  0  0  0  0  0  0
  1 14  1  0
  5 12  2  0
  5 19  1  0
  6  7  1  0
  7 10  1  0
  8 23  1  0
  8  9  1  0
  8 25  1  0
 10 29  2  0
 10 24  1  0
 11 25  2  0
 11 30  1  0
 13 26  1  0
 13 21  1  0
 14 28  1  0
 15  9  1  0
 15 16  1  0
 16  1  2  0
 18 11  1  0
 20 17  1  0
 20 13  1  0
 21  3  1  0
 22 16  1  0
 22  4  1  0
 23 29  1  0
 24 22  2  0
 25 27  1  0
 26  2  3  0
 27 20  2  0
 28  2  1  0
 28  5  1  0
 29 15  1  0
 30 17  2  0
  1 31  1  0
  3 32  1  0
  3 33  1  0
  3 34  1  0
  4 35  1  0
  6 36  1  0
  6 37  1  0
  6 38  1  0
  8 39  1  1
  9 40  1  0
 13 41  1  6
 14 42  1  0
 14 43  1  0
 17 44  1  0
 18 45  1  0
 18 46  1  0
 18 47  1  0
 19 48  1  0
 19 49  1  0
 21 50  1  0
 21 51  1  0
 23 52  1  0
 23 53  1  0
 24 54  1  0
 28 55  1  6
 30 56  1  0
M  END
>  <mol_id>  (83) 
2026-08-23-6tgu-s0-n100-prep-0084

>  <rmsd_to_ref>  (83) 


$$$$

     RDKit          3D

 41 43  0  0  0  0  0  0  0  0999 V2000
    2.6509   14.7614   39.9517 C   0  0  0  0  0  0  0  0  0  0  0  0
    2.3426   22.0379   36.2935 O   0  0  0  0  0  0  0  0  0  0  0  0
    0.8008   18.0396   40.6130 C   0  0  0  0  0  0  0  0  0  0  0  0
   -0.2653   16.2447   43.7044 C   0  0  0  0  0  0  0  0  0  0  0  0
   -1.1102   17.0792   44.4431 C   0  0  0  0  0  0  0  0  0  0  0  0
    2.6370   21.0727   37.0882 C   0  0  0  0  0  0  0  0  0  0  0  0
    3.2975   20.0568   36.6320 C   0  0  0  0  0  0  0  0  0  0  0  0
    0.3644   16.5559   42.3613 C   0  0  0  0  0  0  0  0  0  0  0  0
   -0.0728   15.1044   44.1508 O   0  0  0  0  0  0  0  0  0  0  0  0
    1.8153   15.8036   40.5707 C   0  0  0  0  0  0  0  0  0  0  0  0
    1.6960   17.1387   40.0417 C   0  0  0  0  0  0  0  0  0  0  0  0
   -0.9318   18.7777   42.1908 C   0  0  0  0  0  0  0  0  0  0  0  0
    4.0035   17.8435   36.6938 O   0  0  0  0  0  0  0  0  0  0  0  0
    2.0732   19.9564   39.0137 C   0  0  0  0  0  0  0  0  0  0  0  0
   -0.7257   19.3150   43.5864 C   0  0  0  0  0  0  0  0  0  0  0  0
    2.4544   17.5202   39.0048 O   0  0  0  0  0  0  0  0  0  0  0  0
    2.5218   13.3749   40.4588 C   0  0  0  0  0  0  0  0  0  0  0  0
   -1.3123   18.4186   44.6208 O   0  0  0  0  0  0  0  0  0  0  0  0
    3.3597   18.9227   37.2947 C   0  0  0  0  0  0  0  0  0  0  0  0
    2.6230   18.8148   38.5247 C   0  0  0  0  0  0  0  0  0  0  0  0
    2.1228   21.1622   38.3370 C   0  0  0  0  0  0  0  0  0  0  0  0
    0.0927   17.7434   41.7394 C   0  0  0  0  0  0  0  0  0  0  0  0
    1.1169   15.6209   41.7650 C   0  0  0  0  0  0  0  0  0  0  0  0
    2.4080   14.7415   38.8791 H   0  0  0  0  0  0  0  0  0  0  0  0
    3.6822   15.0508   40.2021 H   0  0  0  0  0  0  0  0  0  0  0  0
    2.6854   22.0365   35.3648 H   0  0  0  0  0  0  0  0  0  0  0  0
    0.6605   19.0226   40.1397 H   0  0  0  0  0  0  0  0  0  0  0  0
   -2.1052   16.7398   44.1194 H   0  0  0  0  0  0  0  0  0  0  0  0
   -0.5147   16.9794   45.3626 H   0  0  0  0  0  0  0  0  0  0  0  0
    3.8189   20.1444   35.6674 H   0  0  0  0  0  0  0  0  0  0  0  0
   -1.9276   18.3124   42.1481 H   0  0  0  0  0  0  0  0  0  0  0  0
   -0.8206   19.6362   41.5120 H   0  0  0  0  0  0  0  0  0  0  0  0
    4.0657   16.9772   37.1690 H   0  0  0  0  0  0  0  0  0  0  0  0
    1.5668   19.9208   39.9895 H   0  0  0  0  0  0  0  0  0  0  0  0
    0.3538   19.4142   43.7731 H   0  0  0  0  0  0  0  0  0  0  0  0
   -1.2320   20.2892   43.6539 H   0  0  0  0  0  0  0  0  0  0  0  0
    2.5881   13.3784   41.5568 H   0  0  0  0  0  0  0  0  0  0  0  0
    1.5500   12.9611   40.1515 H   0  0  0  0  0  0  0  0  0  0  0  0
    3.3314   12.7561   40.0445 H   0  0  0  0  0  0  0  0  0  0  0  0
    1.7752   22.1095   38.7750 H   0  0  0  0  0  0  0  0  0  0  0  0
    1.1893   14.6375   42.2526 H   0  0  0  0  0  0  0  0  0  0  0  0
  1 10  1  0
  1 17  1  0
  2  6  1  0
  3 22  2  0
  4  5  1  0
  4  9  2  0
  6 21  1  0
  7  6  2  0
  7 19  1  0
  8  4  1  0
 10 23  1  0
 11  3  1  0
 11 10  2  0
 12 15  1  0
 13 19  1  0
 15 18  1  0
 16 11  1  0
 18  5  1  0
 19 20  2  0
 20 14  1  0
 20 16  1  0
 21 14  2  0
 22 12  1  0
 22  8  1  0
 23  8  2  0
  1 24  1  0
  1 25  1  0
  2 26  1  0
  3 27  1  0
  5 28  1  0
  5 29  1  0
  7 30  1  0
 12 31  1  0
 12 32  1  0
 13 33  1  0
 14 34  1  0
 15 35  1  0
 15 36  1  0
 17 37  1  0
 17 38  1  0
 17 39  1  0
 21 40  1  0
 23 41  1  0
M  END
>  <mol_id>  (84) 
2026-08-23-6tgu-s0-n100-prep-0085

>  <rmsd_to_ref>  (84) 


$$$$

     RDKit          3D

 46 47  0  0  0  0  0  0  0  0999 V2000
   -0.9890   16.3090   44.2150 C   0  0  0  0  0  0  0  0  0  0  0  0
    3.0220   18.3910   37.9820 C   0  0  0  0  0  0  0  0  0  0  0  0
    1.5960   14.2460   42.1470 C   0  0  0  0  0  0  0  0  0  0  0  0
    2.7890   20.8390   37.5130 C   0  0  0  0  0  0  0  0  0  0  0  0
    3.1930   14.7940   39.5070 C   0  0  0  0  0  0  0  0  0  0  0  0
    1.0130   13.9240   43.1640 O   0  0  0  0  0  0  0  0  0  0  0  0
    0.0840   19.3140   42.6670 C   0  0  0  0  0  0  0  0  0  0  0  0
    2.3830   12.1700   41.8910 O   0  0  0  0  0  0  0  0  0  0  0  0
    1.8800   20.9660   38.7340 C   0  0  0  0  0  0  0  0  0  0  0  0
    3.5690   17.5310   37.4490 O   0  0  0  0  0  0  0  0  0  0  0  0
    0.5260   21.3200   41.5420 S   0  0  0  0  0  0  0  0  0  0  0  0
    0.8910   18.9830   41.5620 C   0  0  0  0  0  0  0  0  0  0  0  0
   -0.8710   20.9260   43.8680 O   0  0  0  0  0  0  0  0  0  0  0  0
    3.8780   20.3790   36.0820 O   0  0  0  0  0  0  0  0  0  0  0  0
    1.2010   20.0430   40.7690 C   0  0  1  0  0  0  0  0  0  0  0  0
    2.4690   18.7000   39.1570 C   0  0  0  0  0  0  0  0  0  0  0  0
   -0.2030   20.5940   42.7870 C   0  0  0  0  0  0  0  0  0  0  0  0
   -0.5840   18.6420   43.6790 O   0  0  0  0  0  0  0  0  0  0  0  0
    2.0530   16.1550   40.7300 C   0  0  0  0  0  0  0  0  0  0  0  0
    2.7110   16.0010   39.6020 N   0  0  0  0  0  0  0  0  0  0  0  0
    2.4050   13.3930   41.4070 C   0  0  2  0  0  0  0  0  0  0  0  0
    1.7630   19.9020   39.4950 C   0  0  0  0  0  0  0  0  0  0  0  0
    0.0320   17.5120   44.2710 C   0  0  0  0  0  0  0  0  0  0  0  0
    3.3990   19.7930   37.1920 C   0  0  0  0  0  0  0  0  0  0  0  0
    1.4940   15.5070   41.7440 C   0  0  0  0  0  0  0  0  0  0  0  0
    3.1620   13.6890   40.3280 C   0  0  0  0  0  0  0  0  0  0  0  0
   -1.2499   16.0016   45.2384 H   0  0  0  0  0  0  0  0  0  0  0  0
   -1.8990   16.6248   43.6838 H   0  0  0  0  0  0  0  0  0  0  0  0
   -0.5294   15.4625   43.6838 H   0  0  0  0  0  0  0  0  0  0  0  0
    2.9164   21.7247   36.8732 H   0  0  0  0  0  0  0  0  0  0  0  0
    3.7425   14.6207   38.5700 H   0  0  0  0  0  0  0  0  0  0  0  0
    2.3837   12.2066   42.8803 H   0  0  0  0  0  0  0  0  0  0  0  0
    1.3499   21.9019   38.9644 H   0  0  0  0  0  0  0  0  0  0  0  0
    1.2392   17.9596   41.3586 H   0  0  0  0  0  0  0  0  0  0  0  0
    4.4656   19.8710   35.4682 H   0  0  0  0  0  0  0  0  0  0  0  0
    2.0852   20.4171   40.2321 H   0  0  0  0  0  0  0  0  0  0  0  0
    1.7540   17.8878   39.3546 H   0  0  0  0  0  0  0  0  0  0  0  0
    3.3854   18.8660   39.7423 H   0  0  0  0  0  0  0  0  0  0  0  0
    1.9121   17.2331   40.8967 H   0  0  0  0  0  0  0  0  0  0  0  0
    3.4868   16.6777   39.5688 H   0  0  0  0  0  0  0  0  0  0  0  0
    2.0623   16.1595   38.8178 H   0  0  0  0  0  0  0  0  0  0  0  0
    1.5529   13.1503   40.7551 H   0  0  0  0  0  0  0  0  0  0  0  0
    0.2897   17.7335   45.3172 H   0  0  0  0  0  0  0  0  0  0  0  0
    0.9540   17.2540   43.7294 H   0  0  0  0  0  0  0  0  0  0  0  0
    0.8262   16.1255   42.3616 H   0  0  0  0  0  0  0  0  0  0  0  0
    3.8845   12.9054   40.0560 H   0  0  0  0  0  0  0  0  0  0  0  0
  1 23  1  0
  2 16  1  0
  3  6  2  0
  4  9  1  0
  5 20  1  0
  5 26  2  0
  7 17  1  0
  7 18  1  0
  9 22  2  0
 10  2  2  0
 11 17  1  0
 12  7  2  0
 14 24  1  0
 15 22  1  0
 15 11  1  0
 15 12  1  0
 16 22  1  0
 17 13  2  0
 18 23  1  0
 19 25  2  0
 20 19  1  0
 21  8  1  0
 21  3  1  0
 24  4  2  0
 24  2  1  0
 25  3  1  0
 26 21  1  0
  1 27  1  0
  1 28  1  0
  1 29  1  0
  4 30  1  0
  5 31  1  0
  8 32  1  0
  9 33  1  0
 12 34  1  0
 14 35  1  0
 15 36  1  1
 16 37  1  0
 16 38  1  0
 19 39  1  0
 20 40  1  0
 20 41  1  0
 21 42  1  6
 23 43  1  0
 23 44  1  0
 25 45  1  0
 26 46  1  0
M  CHG  1  20   1
M  END
>  <mol_id>  (85) 
2026-08-23-6tgu-s0-n100-prep-0086

>  <rmsd_to_ref>  (85) 


$$$$

     RDKit          3D

 49 52  0  0  0  0  0  0  0  0999 V2000
    1.7380   15.2990   41.8930 C   0  0  1  0  0  0  0  0  0  0  0  0
    2.1830   12.9640   41.4490 C   0  0  0  0  0  0  0  0  0  0  0  0
    3.3990   19.1570   37.1080 C   0  0  0  0  0  0  0  0  0  0  0  0
    2.7250   19.5920   38.1970 C   0  0  0  0  0  0  0  0  0  0  0  0
   -1.6800   17.9360   44.6610 F   0  0  0  0  0  0  0  0  0  0  0  0
    2.7620   17.3280   39.1000 C   0  0  0  0  0  0  0  0  0  0  0  0
    2.7580   21.1290   36.6410 N   0  0  0  0  0  0  0  0  0  0  0  0
    2.5050   18.7410   39.3410 C   0  0  2  0  0  0  0  0  0  0  0  0
    0.3340   19.7350   42.4400 C   0  0  0  0  0  0  0  0  0  0  0  0
    1.3220   13.0220   42.5340 C   0  0  0  0  0  0  0  0  0  0  0  0
    1.7390   19.4890   40.4730 C   0  0  0  0  0  0  0  0  0  0  0  0
   -0.2390   18.9600   43.5810 C   0  0  1  0  0  0  0  0  0  0  0  0
    0.7670   21.6890   41.1390 C   0  0  0  0  0  0  0  0  0  0  0  0
    3.0970   14.4890   39.9090 O   0  0  0  0  0  0  0  0  0  0  0  0
    0.9920   17.6020   42.2890 C   0  0  0  0  0  0  0  0  0  0  0  0
    3.8210   17.8940   36.9580 C   0  0  0  0  0  0  0  0  0  0  0  0
    0.2370   17.6400   43.3930 C   0  0  0  0  0  0  0  0  0  0  0  0
    0.1200   21.0960   42.2090 C   0  0  0  0  0  0  0  0  0  0  0  0
    2.6270   11.7680   40.9580 C   0  0  0  0  0  0  0  0  0  0  0  0
    1.7300   16.5690   41.8420 N   0  0  0  0  0  0  0  0  0  0  0  0
    1.0960   18.9380   41.6490 C   0  0  0  0  0  0  0  0  0  0  0  0
    3.4760   16.9550   37.9120 C   0  0  0  0  0  0  0  0  0  0  0  0
    0.6730   14.5210   43.0340 S   0  0  0  0  0  0  0  0  0  0  0  0
   -0.8930   19.8820   44.4830 O   0  0  0  0  0  0  0  0  0  0  0  0
    3.9110   15.3240   37.5640 Cl  0  0  0  0  0  0  0  0  0  0  0  0
    3.5210   20.1590   36.2140 N   0  0  0  0  0  0  0  0  0  0  0  0
    2.3590   20.8700   37.8860 C   0  0  0  0  0  0  0  0  0  0  0  0
    1.5920   20.9000   40.3700 C   0  0  0  0  0  0  0  0  0  0  0  0
    2.3450   14.3190   40.9430 C   0  0  0  0  0  0  0  0  0  0  0  0
    2.7219   15.7801   41.9950 H   0  0  0  0  0  0  0  0  0  0  0  0
   -1.6800   17.9360   45.6020 H   0  0  0  0  0  0  0  0  0  0  0  0
    2.4168   16.5640   39.8121 H   0  0  0  0  0  0  0  0  0  0  0  0
    3.1008   18.3760   40.1906 H   0  0  0  0  0  0  0  0  0  0  0  0
    0.4682   12.3704   42.2964 H   0  0  0  0  0  0  0  0  0  0  0  0
    1.9626   12.7307   43.3794 H   0  0  0  0  0  0  0  0  0  0  0  0
   -0.9034   18.4038   44.2587 H   0  0  0  0  0  0  0  0  0  0  0  0
    0.6266   22.7558   40.9106 H   0  0  0  0  0  0  0  0  0  0  0  0
    3.2300   15.3970   39.5375 H   0  0  0  0  0  0  0  0  0  0  0  0
    4.4325   17.6089   36.0892 H   0  0  0  0  0  0  0  0  0  0  0  0
    0.0210   16.7837   44.0488 H   0  0  0  0  0  0  0  0  0  0  0  0
   -0.5455   21.6811   42.8607 H   0  0  0  0  0  0  0  0  0  0  0  0
    2.8757   11.0980   41.7942 H   0  0  0  0  0  0  0  0  0  0  0  0
    1.8393   11.3092   40.3424 H   0  0  0  0  0  0  0  0  0  0  0  0
    3.5233   11.9344   40.3424 H   0  0  0  0  0  0  0  0  0  0  0  0
    2.6591   16.7976   42.2234 H   0  0  0  0  0  0  0  0  0  0  0  0
    1.2807   16.5811   40.9152 H   0  0  0  0  0  0  0  0  0  0  0  0
   -0.7054   19.6175   45.4184 H   0  0  0  0  0  0  0  0  0  0  0  0
    1.8259   21.5668   38.5495 H   0  0  0  0  0  0  0  0  0  0  0  0
    2.1947   21.4088   39.6032 H   0  0  0  0  0  0  0  0  0  0  0  0
  1 20  1  0
  1 23  1  0
  2 10  1  0
  3  4  1  0
  4  8  1  0
  6  8  1  0
  7 27  1  0
  8 11  1  0
  9 12  1  0
 10 23  1  0
 11 21  2  0
 12 24  1  0
 13 18  1  0
 14 29  1  0
 15 17  2  0
 16  3  2  0
 16 22  1  0
 17 12  1  0
 18  9  2  0
 19  2  1  0
 20 15  1  0
 21 15  1  0
 21  9  1  0
 22  6  2  0
 25 22  1  0
 26  7  2  0
 26  3  1  0
 27  4  2  0
 28 11  1  0
 28 13  2  0
 29  2  2  0
 29  1  1  0
  1 30  1  1
  5 31  1  0
  6 32  1  0
  8 33  1  1
 10 34  1  0
 10 35  1  0
 12 36  1  6
 13 37  1  0
 14 38  1  0
 16 39  1  0
 17 40  1  0
 18 41  1  0
 19 42  1  0
 19 43  1  0
 19 44  1  0
 20 45  1  0
 20 46  1  0
 24 47  1  0
 27 48  1  0
 28 49  1  0
M  CHG  1  20   1
M  END
>  <mol_id>  (86) 
2026-08-23-6tgu-s0-n100-prep-0087

>  <rmsd_to_ref>  (86) 


$$$$

     RDKit          3D

 31 32  0  0  0  0  0  0  0  0999 V2000
    2.1148   13.5144   42.2959 C   0  0  0  0  0  0  0  0  0  0  0  0
    1.1509   20.6410   39.9724 C   0  0  0  0  0  0  0  0  0  0  0  0
    2.4494   18.5728   39.2246 C   0  0  0  0  0  0  0  0  0  0  0  0
   -0.4331   16.5196   42.7585 S   0  0  0  0  0  0  0  0  0  0  0  0
    1.4300   19.1182   40.0619 C   0  0  1  0  0  0  0  0  0  0  0  0
    2.6693   16.1177   40.2107 C   0  0  0  0  0  0  0  0  0  0  0  0
    0.1825   14.9126   42.9794 C   0  0  0  0  0  0  0  0  0  0  0  0
    2.5950   20.3744   37.4995 O   0  0  0  0  0  0  0  0  0  0  0  0
    1.2872   12.2541   42.6358 C   0  0  0  0  0  0  0  0  0  0  0  0
    3.3545   13.3415   42.1890 O   0  0  0  0  0  0  0  0  0  0  0  0
   -0.2427   19.3751   41.9059 C   0  0  0  0  0  0  0  0  0  0  0  0
    0.7796   17.1011   41.6722 C   0  0  0  0  0  0  0  0  0  0  0  0
    1.4004   14.7298   42.1521 C   0  0  0  0  0  0  0  0  0  0  0  0
    2.9513   17.2597   39.4200 C   0  0  0  0  0  0  0  0  0  0  0  0
    3.0984   19.3374   37.9735 C   0  0  0  0  0  0  0  0  0  0  0  0
    0.7290   18.4774   41.1562 C   0  0  0  0  0  0  0  0  0  0  0  0
    4.1526   18.8297   37.4726 O   0  0  0  0  0  0  0  0  0  0  0  0
    1.7057   16.0069   41.2800 C   0  0  0  0  0  0  0  0  0  0  0  0
    0.8617   21.0196   40.9639 H   0  0  0  0  0  0  0  0  0  0  0  0
    2.0586   21.1607   39.6318 H   0  0  0  0  0  0  0  0  0  0  0  0
    0.3344   20.8227   39.2580 H   0  0  0  0  0  0  0  0  0  0  0  0
    1.1522   18.2474   39.4499 H   0  0  0  0  0  0  0  0  0  0  0  0
    3.2513   15.2122   39.9836 H   0  0  0  0  0  0  0  0  0  0  0  0
   -0.2620   14.1470   43.6323 H   0  0  0  0  0  0  0  0  0  0  0  0
    1.1019   12.2184   43.7194 H   0  0  0  0  0  0  0  0  0  0  0  0
    0.3268   12.2907   42.1006 H   0  0  0  0  0  0  0  0  0  0  0  0
    1.8437   11.3562   42.3292 H   0  0  0  0  0  0  0  0  0  0  0  0
   -0.2745   19.0777   42.9645 H   0  0  0  0  0  0  0  0  0  0  0  0
    0.0899   20.4208   41.8286 H   0  0  0  0  0  0  0  0  0  0  0  0
   -1.2465   19.2762   41.4670 H   0  0  0  0  0  0  0  0  0  0  0  0
    3.8143   17.0732   38.7639 H   0  0  0  0  0  0  0  0  0  0  0  0
  1  9  1  0
  3 14  2  0
  3  5  1  0
  4  7  1  0
  5  2  1  0
  5 16  1  0
  6 18  2  0
  8 15  1  0
 10  1  2  0
 12  4  1  0
 13  1  1  0
 13  7  2  0
 14  6  1  0
 15  3  1  0
 16 12  2  0
 16 11  1  0
 17 15  2  0
 18 12  1  0
 18 13  1  0
  2 19  1  0
  2 20  1  0
  2 21  1  0
  5 22  1  6
  6 23  1  0
  7 24  1  0
  9 25  1  0
  9 26  1  0
  9 27  1  0
 11 28  1  0
 11 29  1  0
 11 30  1  0
 14 31  1  0
M  CHG  1   8  -1
M  END
>  <mol_id>  (87) 
2026-08-23-6tgu-s0-n100-prep-0088

>  <rmsd_to_ref>  (87) 


$$$$

     RDKit          3D

 67 72  0  0  0  0  0  0  0  0999 V2000
    1.8610   21.7550   41.6620 O   0  0  0  0  0  0  0  0  0  0  0  0
    0.5730   18.7980   41.0540 N   0  0  0  0  0  0  0  0  0  0  0  0
   -0.8730   14.9340   47.5410 C   0  0  0  0  0  0  0  0  0  0  0  0
    0.2940   18.0260   42.1220 C   0  0  1  0  0  0  0  0  0  0  0  0
    4.2330   16.3360   37.4070 C   0  0  0  0  0  0  0  0  0  0  0  0
   -0.8250   15.8450   46.3770 C   0  0  0  0  0  0  0  0  0  0  0  0
    0.0630   19.9120   43.6840 O   0  0  0  0  0  0  0  0  0  0  0  0
   -0.3810   16.4600   44.0760 C   0  0  0  0  0  0  0  0  0  0  0  0
    2.6660   14.7940   40.8230 N   0  0  0  0  0  0  0  0  0  0  0  0
    3.8290   15.0970   38.5890 S   0  0  0  0  0  0  0  0  0  0  0  0
    1.5010   21.3770   39.3020 C   0  0  0  0  0  0  0  0  0  0  0  0
    3.2920   21.6330   34.2700 C   0  0  0  0  0  0  0  0  0  0  0  0
    1.8190   14.8100   41.8590 N   0  0  0  0  0  0  0  0  0  0  0  0
   -0.8170   13.7210   47.2250 O   0  0  0  0  0  0  0  0  0  0  0  0
    0.1440   15.2630   43.8480 C   0  0  0  0  0  0  0  0  0  0  0  0
   -0.4520   15.3700   45.0940 C   0  0  0  0  0  0  0  0  0  0  0  0
   -1.1270   18.0970   45.6470 C   0  0  0  0  0  0  0  0  0  0  0  0
    3.1950   19.7620   36.3310 C   0  0  0  0  0  0  0  0  0  0  0  0
    2.5930   22.2020   36.5630 C   0  0  0  0  0  0  0  0  0  0  0  0
    1.8190   16.9690   40.3940 C   0  0  0  0  0  0  0  0  0  0  0  0
    3.7390   21.2730   35.0710 O   0  0  0  0  0  0  0  0  0  0  0  0
    1.2680   15.6490   41.6460 C   0  0  0  0  0  0  0  0  0  0  0  0
    1.0830   19.7600   40.9720 N   0  0  0  0  0  0  0  0  0  0  0  0
   -0.7120   15.3540   48.7430 O   0  0  0  0  0  0  0  0  0  0  0  0
    1.0620   16.9240   41.6170 C   0  0  0  0  0  0  0  0  0  0  0  0
    3.8140   18.7080   37.2990 C   0  0  0  0  0  0  0  0  0  0  0  0
    3.2360   17.4210   37.5200 C   0  0  0  0  0  0  0  0  0  0  0  0
   -0.1190   18.7270   43.4390 C   0  0  0  0  0  0  0  0  0  0  0  0
    1.1370   21.1140   40.6850 C   0  0  1  0  0  0  0  0  0  0  0  0
    1.6990   20.6400   38.2950 C   0  0  0  0  0  0  0  0  0  0  0  0
    2.9580   21.9040   34.9400 C   0  0  1  0  0  0  0  0  0  0  0  0
    0.3850   22.1270   41.2160 C   0  0  0  0  0  0  0  0  0  0  0  0
   -1.3140   17.1930   46.6820 C   0  0  0  0  0  0  0  0  0  0  0  0
    2.6600   15.7180   39.9240 C   0  0  0  0  0  0  0  0  0  0  0  0
    2.9300   21.0500   37.3640 C   0  0  1  0  0  0  0  0  0  0  0  0
   -0.5970   17.7240   44.4420 C   0  0  0  0  0  0  0  0  0  0  0  0
    1.1200   18.1778   40.4399 H   0  0  0  0  0  0  0  0  0  0  0  0
   -0.5555   17.5651   42.6473 H   0  0  0  0  0  0  0  0  0  0  0  0
    4.2052   15.9081   36.3940 H   0  0  0  0  0  0  0  0  0  0  0  0
    5.2441   16.7265   37.5947 H   0  0  0  0  0  0  0  0  0  0  0  0
    0.7074   22.0579   38.9605 H   0  0  0  0  0  0  0  0  0  0  0  0
    2.5651   21.5666   39.5061 H   0  0  0  0  0  0  0  0  0  0  0  0
    2.7144   20.9440   33.6362 H   0  0  0  0  0  0  0  0  0  0  0  0
    3.6915   22.1629   33.3927 H   0  0  0  0  0  0  0  0  0  0  0  0
    1.7414   14.1584   42.6529 H   0  0  0  0  0  0  0  0  0  0  0  0
   -0.3220   14.6150   43.0911 H   0  0  0  0  0  0  0  0  0  0  0  0
    1.1517   14.9483   43.5390 H   0  0  0  0  0  0  0  0  0  0  0  0
   -1.4141   19.1478   45.7998 H   0  0  0  0  0  0  0  0  0  0  0  0
    3.8964   20.0297   35.5270 H   0  0  0  0  0  0  0  0  0  0  0  0
    2.2921   19.4141   35.8078 H   0  0  0  0  0  0  0  0  0  0  0  0
    3.1704   23.0705   36.9128 H   0  0  0  0  0  0  0  0  0  0  0  0
    1.5165   22.4065   36.6594 H   0  0  0  0  0  0  0  0  0  0  0  0
    1.8117   17.8826   39.7814 H   0  0  0  0  0  0  0  0  0  0  0  0
    1.1185   15.4546   40.5737 H   0  0  0  0  0  0  0  0  0  0  0  0
    0.9462   15.6589   42.6978 H   0  0  0  0  0  0  0  0  0  0  0  0
    1.4327   19.8117   41.9394 H   0  0  0  0  0  0  0  0  0  0  0  0
    4.8347   18.5230   36.9330 H   0  0  0  0  0  0  0  0  0  0  0  0
    3.6597   19.1892   38.2760 H   0  0  0  0  0  0  0  0  0  0  0  0
    2.4450   17.2547   36.7739 H   0  0  0  0  0  0  0  0  0  0  0  0
    2.8309   17.4031   38.5425 H   0  0  0  0  0  0  0  0  0  0  0  0
    1.8754   19.6160   38.6559 H   0  0  0  0  0  0  0  0  0  0  0  0
    0.8020   20.7453   37.6671 H   0  0  0  0  0  0  0  0  0  0  0  0
    2.2666   21.0485   34.9414 H   0  0  0  0  0  0  0  0  0  0  0  0
    0.1841   23.0419   40.6393 H   0  0  0  0  0  0  0  0  0  0  0  0
   -0.5994   22.2354   41.6948 H   0  0  0  0  0  0  0  0  0  0  0  0
   -1.7840   17.4616   47.6396 H   0  0  0  0  0  0  0  0  0  0  0  0
    3.8109   21.2881   37.9783 H   0  0  0  0  0  0  0  0  0  0  0  0
  2  4  1  0
  3 24  1  0
  4 28  1  0
  5 27  1  0
  5 10  1  0
  6 33  1  0
  6  3  1  0
  8 36  2  0
  8 16  1  0
  9 13  1  0
 10 34  1  0
 12 31  1  0
 12 21  1  0
 14  3  2  0
 15  8  1  0
 15 16  1  0
 16  6  2  0
 17 33  2  0
 18 26  1  0
 18 35  1  0
 20 25  2  0
 22 13  1  0
 23  2  1  0
 25 22  1  0
 25  4  1  0
 26 27  1  0
 28  7  2  0
 28 36  1  0
 29 11  1  0
 29 23  1  0
 29 32  1  0
 29  1  1  1
 30 11  1  0
 31 21  1  0
 31 19  1  0
 32  1  1  0
 34 20  1  0
 34  9  2  0
 35 19  1  0
 35 30  1  0
 36 17  1  0
  2 37  1  0
  4 38  1  6
  5 39  1  0
  5 40  1  0
 11 41  1  0
 11 42  1  0
 12 43  1  0
 12 44  1  0
 13 45  1  0
 15 46  1  0
 15 47  1  0
 17 48  1  0
 18 49  1  0
 18 50  1  0
 19 51  1  0
 19 52  1  0
 20 53  1  0
 22 54  1  0
 22 55  1  0
 23 56  1  0
 26 57  1  0
 26 58  1  0
 27 59  1  0
 27 60  1  0
 30 61  1  0
 30 62  1  0
 31 63  1  1
 32 64  1  0
 32 65  1  0
 33 66  1  0
 35 67  1  1
M  CHG  1  24  -1
M  END
>  <mol_id>  (88) 
2026-08-23-6tgu-s0-n100-prep-0089

>  <rmsd_to_ref>  (88) 


$$$$

     RDKit          3D

 36 37  0  0  0  0  0  0  0  0999 V2000
    1.0618   20.6140   41.8197 C   0  0  0  0  0  0  0  0  0  0  0  0
    0.7803   14.5377   41.4866 Cl  0  0  0  0  0  0  0  0  0  0  0  0
    0.3142   15.9447   42.2465 C   0  0  0  0  0  0  0  0  0  0  0  0
    3.2031   20.2979   37.6841 C   0  0  0  0  0  0  0  0  0  0  0  0
   -0.7606   17.9896   43.9399 C   0  0  0  0  0  0  0  0  0  0  0  0
    0.5679   17.3814   41.9105 C   0  0  2  0  0  0  0  0  0  0  0  0
    2.8862   19.3810   39.0071 C   0  0  2  0  0  0  0  0  0  0  0  0
    1.4440   17.8711   40.6544 C   0  0  0  0  0  0  0  0  0  0  0  0
    4.3735   17.6843   38.5039 C   0  0  0  0  0  0  0  0  0  0  0  0
    2.6412   21.3263   37.8064 O   0  0  0  0  0  0  0  0  0  0  0  0
    0.0875   18.3753   42.8346 C   0  0  0  0  0  0  0  0  0  0  0  0
    3.9353   20.0417   36.6279 N   0  0  0  0  0  0  0  0  0  0  0  0
   -1.0417   16.6489   44.1753 C   0  0  0  0  0  0  0  0  0  0  0  0
    0.4336   19.8488   42.6064 C   0  0  0  0  0  0  0  0  0  0  0  0
    1.5415   16.6316   40.2106 O   0  0  0  0  0  0  0  0  0  0  0  0
    1.7823   19.1668   39.9909 C   0  0  0  0  0  0  0  0  0  0  0  0
    1.5088   20.4264   40.3827 C   0  0  0  0  0  0  0  0  0  0  0  0
    3.6663   18.7730   39.5799 C   0  0  0  0  0  0  0  0  0  0  0  0
    3.8776   21.0290   35.6933 O   0  0  0  0  0  0  0  0  0  0  0  0
   -0.5916   15.6126   43.3904 C   0  0  0  0  0  0  0  0  0  0  0  0
    1.3317   21.5878   42.2544 H   0  0  0  0  0  0  0  0  0  0  0  0
   -1.1859   18.7614   44.5982 H   0  0  0  0  0  0  0  0  0  0  0  0
   -0.3367   17.3948   41.2848 H   0  0  0  0  0  0  0  0  0  0  0  0
    2.5064   19.7044   38.0267 H   0  0  0  0  0  0  0  0  0  0  0  0
    4.7717   16.8239   39.0615 H   0  0  0  0  0  0  0  0  0  0  0  0
    3.6177   17.3369   37.7841 H   0  0  0  0  0  0  0  0  0  0  0  0
    5.1923   18.1821   37.9639 H   0  0  0  0  0  0  0  0  0  0  0  0
    4.4950   19.1841   36.5169 H   0  0  0  0  0  0  0  0  0  0  0  0
   -1.6652   16.4001   45.0467 H   0  0  0  0  0  0  0  0  0  0  0  0
   -0.0231   20.4521   43.4047 H   0  0  0  0  0  0  0  0  0  0  0  0
    2.0442   16.4416   39.3791 H   0  0  0  0  0  0  0  0  0  0  0  0
    1.6052   21.2781   39.6934 H   0  0  0  0  0  0  0  0  0  0  0  0
    4.4348   19.4445   39.9903 H   0  0  0  0  0  0  0  0  0  0  0  0
    3.1927   18.2329   40.4130 H   0  0  0  0  0  0  0  0  0  0  0  0
    3.7795   21.9048   36.1442 H   0  0  0  0  0  0  0  0  0  0  0  0
   -0.8879   14.5737   43.5970 H   0  0  0  0  0  0  0  0  0  0  0  0
  1 14  1  0
  2  3  1  0
  3 20  2  0
  4  7  1  0
  5 13  2  0
  6  8  1  0
  6  3  1  0
  6 11  1  0
  7 18  1  0
  7 16  1  0
  9 18  1  0
 10  4  2  0
 11  5  1  0
 12  4  1  0
 14 11  2  0
 15  8  1  0
 16 17  1  0
 16  8  2  0
 17  1  2  0
 19 12  1  0
 20 13  1  0
  1 21  1  0
  5 22  1  0
  6 23  1  6
  7 24  1  6
  9 25  1  0
  9 26  1  0
  9 27  1  0
 12 28  1  0
 13 29  1  0
 14 30  1  0
 15 31  1  0
 17 32  1  0
 18 33  1  0
 18 34  1  0
 19 35  1  0
 20 36  1  0
M  END
>  <mol_id>  (89) 
2026-08-23-6tgu-s0-n100-prep-0090

>  <rmsd_to_ref>  (89) 


$$$$

     RDKit          3D

 52 55  0  0  0  0  0  0  0  0999 V2000
    2.8670   20.7670   37.2790 C   0  0  0  0  0  0  0  0  0  0  0  0
    1.4830   15.8100   41.9350 C   0  0  0  0  0  0  0  0  0  0  0  0
    4.6800   17.1190   36.6280 C   0  0  0  0  0  0  0  0  0  0  0  0
    1.6530   20.3630   40.3370 C   0  0  1  0  0  0  0  0  0  0  0  0
    2.6590   16.2860   39.6340 C   0  0  0  0  0  0  0  0  0  0  0  0
    1.8660   21.2810   38.1840 C   0  0  0  0  0  0  0  0  0  0  0  0
    0.4800   19.5550   42.3820 C   0  0  1  0  0  0  0  0  0  0  0  0
    3.6700   15.2350   37.8710 C   0  0  0  0  0  0  0  0  0  0  0  0
    0.1460   21.6050   41.7310 O   0  0  0  0  0  0  0  0  0  0  0  0
   -1.0120   15.7010   44.4600 C   0  0  0  0  0  0  0  0  0  0  0  0
    1.0760   16.8720   42.9590 C   0  0  0  0  0  0  0  0  0  0  0  0
    0.9530   18.1880   42.1630 N   0  0  0  0  0  0  0  0  0  0  0  0
    1.9950   16.5940   40.7800 C   0  0  0  0  0  0  0  0  0  0  0  0
    3.0100   18.6780   39.0770 C   0  0  0  0  0  0  0  0  0  0  0  0
    3.5290   20.4770   36.4080 N   0  0  0  0  0  0  0  0  0  0  0  0
    3.2320   17.2730   38.7660 C   0  0  0  0  0  0  0  0  0  0  0  0
    2.0460   21.3820   39.5680 O   0  0  0  0  0  0  0  0  0  0  0  0
    0.7580   20.5600   41.5110 C   0  0  0  0  0  0  0  0  0  0  0  0
   -0.5110   18.1030   45.3400 C   0  0  0  0  0  0  0  0  0  0  0  0
   -0.3340   19.8660   43.6130 C   0  0  0  0  0  0  0  0  0  0  0  0
   -0.1210   14.6090   44.6630 O   0  0  0  0  0  0  0  0  0  0  0  0
   -1.0940   16.6900   45.6110 C   0  0  0  0  0  0  0  0  0  0  0  0
    2.9800   14.9970   38.9680 C   0  0  0  0  0  0  0  0  0  0  0  0
    3.8310   16.5660   37.7560 N   0  0  0  0  0  0  0  0  0  0  0  0
   -1.1980   18.8400   44.2400 N   0  0  0  0  0  0  0  0  0  0  0  0
    1.7360   17.9870   40.9770 C   0  0  0  0  0  0  0  0  0  0  0  0
    2.1450   18.9840   40.0910 C   0  0  0  0  0  0  0  0  0  0  0  0
    2.2688   15.1566   42.3420 H   0  0  0  0  0  0  0  0  0  0  0  0
    0.6480   15.1494   41.6587 H   0  0  0  0  0  0  0  0  0  0  0  0
    5.5318   17.6738   37.0483 H   0  0  0  0  0  0  0  0  0  0  0  0
    5.0523   16.2896   36.0087 H   0  0  0  0  0  0  0  0  0  0  0  0
    4.0719   17.7948   36.0087 H   0  0  0  0  0  0  0  0  0  0  0  0
    2.5317   20.5109   40.9820 H   0  0  0  0  0  0  0  0  0  0  0  0
    1.6435   22.3006   37.8361 H   0  0  0  0  0  0  0  0  0  0  0  0
    1.1038   20.4899   38.1273 H   0  0  0  0  0  0  0  0  0  0  0  0
    1.4030   19.7859   42.9340 H   0  0  0  0  0  0  0  0  0  0  0  0
    4.0490   14.4766   37.1702 H   0  0  0  0  0  0  0  0  0  0  0  0
   -0.6823   16.2476   43.5642 H   0  0  0  0  0  0  0  0  0  0  0  0
   -2.0159   15.2624   44.3615 H   0  0  0  0  0  0  0  0  0  0  0  0
    0.1125   16.6109   43.4211 H   0  0  0  0  0  0  0  0  0  0  0  0
    1.8105   16.9554   43.7736 H   0  0  0  0  0  0  0  0  0  0  0  0
    3.5233   19.4705   38.5126 H   0  0  0  0  0  0  0  0  0  0  0  0
   -0.5988   18.6965   46.2620 H   0  0  0  0  0  0  0  0  0  0  0  0
    0.5338   17.9623   45.0259 H   0  0  0  0  0  0  0  0  0  0  0  0
    0.3797   20.1874   44.3859 H   0  0  0  0  0  0  0  0  0  0  0  0
   -1.0643   20.5987   43.2390 H   0  0  0  0  0  0  0  0  0  0  0  0
    0.0014   14.4590   45.6339 H   0  0  0  0  0  0  0  0  0  0  0  0
   -2.1547   16.8094   45.8766 H   0  0  0  0  0  0  0  0  0  0  0  0
   -0.4732   16.2629   46.4124 H   0  0  0  0  0  0  0  0  0  0  0  0
    2.6877   14.0014   39.3331 H   0  0  0  0  0  0  0  0  0  0  0  0
   -2.0333   19.3033   44.6253 H   0  0  0  0  0  0  0  0  0  0  0  0
   -1.4445   18.1539   43.5124 H   0  0  0  0  0  0  0  0  0  0  0  0
  1  6  1  0
  2 11  1  0
  3 24  1  0
  4 17  1  0
  4 18  1  0
  5 13  2  0
  6 17  1  0
  7 20  1  0
  8 23  2  0
 10 21  1  0
 10 22  1  0
 12  7  1  0
 12 11  1  0
 13 26  1  0
 13  2  1  0
 14 27  1  0
 15  1  3  0
 16 14  2  0
 16  5  1  0
 18  9  2  0
 18  7  1  0
 19 22  1  0
 20 25  1  0
 23  5  1  0
 24  8  1  0
 24 16  1  0
 25 19  1  0
 26 12  1  0
 27  4  1  0
 27 26  2  0
  2 28  1  0
  2 29  1  0
  3 30  1  0
  3 31  1  0
  3 32  1  0
  4 33  1  6
  6 34  1  0
  6 35  1  0
  7 36  1  1
  8 37  1  0
 10 38  1  0
 10 39  1  0
 11 40  1  0
 11 41  1  0
 14 42  1  0
 19 43  1  0
 19 44  1  0
 20 45  1  0
 20 46  1  0
 21 47  1  0
 22 48  1  0
 22 49  1  0
 23 50  1  0
 25 51  1  0
 25 52  1  0
M  CHG  1  25   1
M  END
>  <mol_id>  (90) 
2026-08-23-6tgu-s0-n100-prep-0092

>  <rmsd_to_ref>  (90) 


$$$$

     RDKit          3D

 40 42  0  0  0  0  0  0  0  0999 V2000
   -0.8856   17.0798   45.2240 C   0  0  0  0  0  0  0  0  0  0  0  0
    3.9936   16.2677   37.8364 C   0  0  0  0  0  0  0  0  0  0  0  0
    2.6450   21.0188   35.9993 C   0  0  0  0  0  0  0  0  0  0  0  0
    2.8829   16.9149   38.6424 O   0  0  0  0  0  0  0  0  0  0  0  0
   -1.3132   18.3730   45.3781 C   0  0  0  0  0  0  0  0  0  0  0  0
    0.4312   20.1292   41.3998 N   0  0  0  0  0  0  0  0  0  0  0  0
    1.8788   18.8009   39.5343 C   0  0  0  0  0  0  0  0  0  0  0  0
   -0.3906   20.0950   42.4230 C   0  0  0  0  0  0  0  0  0  0  0  0
    2.4656   18.2066   38.4563 C   0  0  0  0  0  0  0  0  0  0  0  0
    2.9039   21.5836   35.0154 N   0  0  0  0  0  0  0  0  0  0  0  0
    0.7988   20.8072   40.4691 N   0  0  0  0  0  0  0  0  0  0  0  0
    1.4585   20.1985   39.3908 C   0  0  0  0  0  0  0  0  0  0  0  0
   -0.1059   17.6590   42.9959 C   0  0  0  0  0  0  0  0  0  0  0  0
   -0.2449   16.7073   43.9979 C   0  0  0  0  0  0  0  0  0  0  0  0
   -1.0527   21.0684   42.9856 C   0  0  0  0  0  0  0  0  0  0  0  0
    2.3510   20.2427   37.2098 C   0  0  0  0  0  0  0  0  0  0  0  0
    2.7187   18.8341   37.2119 C   0  0  0  0  0  0  0  0  0  0  0  0
    3.3974   18.3250   36.2296 O   0  0  0  0  0  0  0  0  0  0  0  0
   -0.4753   18.9264   43.1942 C   0  0  0  0  0  0  0  0  0  0  0  0
    3.6073   13.7108   36.8841 C   0  0  0  0  0  0  0  0  0  0  0  0
    1.7296   20.9161   38.1820 C   0  0  0  0  0  0  0  0  0  0  0  0
   -1.4571   20.5737   44.1949 N   0  0  0  0  0  0  0  0  0  0  0  0
    3.7348   14.9276   37.3508 C   0  0  0  0  0  0  0  0  0  0  0  0
   -1.1341   19.3610   44.3752 C   0  0  0  0  0  0  0  0  0  0  0  0
   -1.0317   16.3418   46.0266 H   0  0  0  0  0  0  0  0  0  0  0  0
    4.1923   16.9081   36.9644 H   0  0  0  0  0  0  0  0  0  0  0  0
    4.8419   16.1704   38.5299 H   0  0  0  0  0  0  0  0  0  0  0  0
   -2.3964   18.3167   45.5611 H   0  0  0  0  0  0  0  0  0  0  0  0
   -0.6467   18.7369   46.1740 H   0  0  0  0  0  0  0  0  0  0  0  0
    1.7266   18.2528   40.4758 H   0  0  0  0  0  0  0  0  0  0  0  0
    0.3152   17.3636   42.0235 H   0  0  0  0  0  0  0  0  0  0  0  0
    0.1311   15.6838   43.8525 H   0  0  0  0  0  0  0  0  0  0  0  0
   -1.2444   22.0710   42.5757 H   0  0  0  0  0  0  0  0  0  0  0  0
    3.6419   17.3657   36.2417 H   0  0  0  0  0  0  0  0  0  0  0  0
    3.5038   13.0057   37.7221 H   0  0  0  0  0  0  0  0  0  0  0  0
    2.7136   13.6549   36.2453 H   0  0  0  0  0  0  0  0  0  0  0  0
    4.4975   13.4497   36.2930 H   0  0  0  0  0  0  0  0  0  0  0  0
    1.4403   21.9704   38.0598 H   0  0  0  0  0  0  0  0  0  0  0  0
    2.9269   15.2910   36.6987 H   0  0  0  0  0  0  0  0  0  0  0  0
    3.9725   14.5213   38.3450 H   0  0  0  0  0  0  0  0  0  0  0  0
  1  5  1  0
  2  4  1  0
  3 16  1  0
  6  8  1  0
  7 12  2  0
  8 19  1  0
  8 15  2  0
  9  4  1  0
  9  7  1  0
 10  3  3  0
 11  6  2  3
 12 11  1  0
 13 19  2  0
 13 14  1  0
 14  1  2  0
 15 22  1  0
 16 21  2  0
 17 16  1  0
 17  9  2  0
 18 17  1  0
 19 24  1  0
 20 23  1  0
 21 12  1  0
 22 24  2  0
 23  2  1  0
 24  5  1  0
  1 25  1  0
  2 26  1  0
  2 27  1  0
  5 28  1  0
  5 29  1  0
  7 30  1  0
 13 31  1  0
 14 32  1  0
 15 33  1  0
 18 34  1  0
 20 35  1  0
 20 36  1  0
 20 37  1  0
 21 38  1  0
 23 39  1  0
 23 40  1  0
M  END
>  <mol_id>  (91) 
2026-08-23-6tgu-s0-n100-prep-0093

>  <rmsd_to_ref>  (91) 


$$$$

     RDKit          3D

 33 34  0  0  0  0  0  0  0  0999 V2000
   -0.5820   14.1345   43.1887 C   0  0  0  0  0  0  0  0  0  0  0  0
    2.7323   18.1011   39.0041 N   0  0  0  0  0  0  0  0  0  0  0  0
   -1.9721   19.6152   43.4144 O   0  0  0  0  0  0  0  0  0  0  0  0
    3.1922   19.7477   37.4340 C   0  0  0  0  0  0  0  0  0  0  0  0
   -0.3866   15.6636   42.6171 O   0  0  0  0  0  0  0  0  0  0  0  0
    4.1073   21.0533   35.6411 C   0  0  0  0  0  0  0  0  0  0  0  0
    1.8611   20.2049   39.2671 N   0  0  0  0  0  0  0  0  0  0  0  0
   -0.0914   16.9220   42.3069 C   0  0  0  0  0  0  0  0  0  0  0  0
    2.4735   20.6031   38.1760 C   0  0  0  0  0  0  0  0  0  0  0  0
    3.3451   18.4796   37.9782 C   0  0  0  0  0  0  0  0  0  0  0  0
    1.9285   18.9759   39.6433 C   0  0  0  0  0  0  0  0  0  0  0  0
   -0.5762   19.8186   41.8765 C   0  0  0  0  0  0  0  0  0  0  0  0
    3.8811   20.0597   36.3103 O   0  0  0  0  0  0  0  0  0  0  0  0
    1.0062   18.5645   40.7881 C   0  0  0  0  0  0  0  0  0  0  0  0
   -0.9878   18.9753   42.7262 C   0  0  0  0  0  0  0  0  0  0  0  0
   -1.3710   14.5517   44.1582 O   0  0  0  0  0  0  0  0  0  0  0  0
    0.0619   19.4900   41.0829 C   0  0  0  0  0  0  0  0  0  0  0  0
    0.8480   17.3293   41.3291 C   0  0  0  0  0  0  0  0  0  0  0  0
   -0.7284   17.8058   43.1565 C   0  0  0  0  0  0  0  0  0  0  0  0
    0.3509   13.6739   43.5458 H   0  0  0  0  0  0  0  0  0  0  0  0
   -0.9334   13.3445   42.5087 H   0  0  0  0  0  0  0  0  0  0  0  0
   -2.4510   19.1470   44.1435 H   0  0  0  0  0  0  0  0  0  0  0  0
    4.1569   21.9343   36.2979 H   0  0  0  0  0  0  0  0  0  0  0  0
    5.0670   20.9320   35.1174 H   0  0  0  0  0  0  0  0  0  0  0  0
    3.3021   21.1902   34.9042 H   0  0  0  0  0  0  0  0  0  0  0  0
    2.3959   21.6555   37.8655 H   0  0  0  0  0  0  0  0  0  0  0  0
    4.0341   17.7764   37.4877 H   0  0  0  0  0  0  0  0  0  0  0  0
   -0.8706   20.8756   41.9530 H   0  0  0  0  0  0  0  0  0  0  0  0
   -1.0710   14.1633   45.0180 H   0  0  0  0  0  0  0  0  0  0  0  0
   -0.1079   20.1236   40.1999 H   0  0  0  0  0  0  0  0  0  0  0  0
    1.5330   16.5502   40.9633 H   0  0  0  0  0  0  0  0  0  0  0  0
   -1.6845   17.3463   43.4475 H   0  0  0  0  0  0  0  0  0  0  0  0
   -0.0058   17.9697   43.9695 H   0  0  0  0  0  0  0  0  0  0  0  0
  1 16  1  0
  2 11  1  0
  4 10  1  0
  4  9  2  0
  5  1  1  0
  6 13  1  0
  7 11  2  0
  8  5  1  0
  8 19  1  0
  9  7  1  0
 10  2  2  0
 11 14  1  0
 12 15  2  0
 13  4  1  0
 14 17  2  0
 14 18  1  0
 15 19  1  0
 15  3  1  0
 17 12  1  0
 18  8  2  0
  1 20  1  0
  1 21  1  0
  3 22  1  0
  6 23  1  0
  6 24  1  0
  6 25  1  0
  9 26  1  0
 10 27  1  0
 12 28  1  0
 16 29  1  0
 17 30  1  0
 18 31  1  0
 19 32  1  0
 19 33  1  0
M  END
>  <mol_id>  (92) 
2026-08-23-6tgu-s0-n100-prep-0094

>  <rmsd_to_ref>  (92) 


$$$$

     RDKit          3D

 29 31  0  0  0  0  0  0  0  0999 V2000
    2.8639   18.5877   38.4553 C   0  0  0  0  0  0  0  0  0  0  0  0
    1.2089   18.7167   40.7303 C   0  0  0  0  0  0  0  0  0  0  0  0
    1.3808   20.0527   38.8033 C   0  0  0  0  0  0  0  0  0  0  0  0
    3.4125   14.6661   40.2857 C   0  0  0  0  0  0  0  0  0  0  0  0
    1.7880   18.9550   39.4320 C   0  0  0  0  0  0  0  0  0  0  0  0
    2.0895   15.4035   42.0744 C   0  0  0  0  0  0  0  0  0  0  0  0
    3.5401   19.7593   36.4629 O   0  0  0  0  0  0  0  0  0  0  0  0
    0.3919   17.5542   42.6760 N   0  0  0  0  0  0  0  0  0  0  0  0
    3.4481   15.8698   39.8382 N   0  0  0  0  0  0  0  0  0  0  0  0
    2.0599   16.5592   41.3941 N   0  0  0  0  0  0  0  0  0  0  0  0
    2.8440   16.6906   40.2959 C   0  0  0  0  0  0  0  0  0  0  0  0
    2.8111   14.3440   41.5251 C   0  0  0  0  0  0  0  0  0  0  0  0
    1.4375   15.2188   43.0312 O   0  0  0  0  0  0  0  0  0  0  0  0
    2.8698   19.6089   37.4451 C   0  0  0  0  0  0  0  0  0  0  0  0
    4.0247   13.7803   39.5379 N   0  0  0  0  0  0  0  0  0  0  0  0
    0.4217   19.7664   41.2096 C   0  0  0  0  0  0  0  0  0  0  0  0
   -0.3785   19.7709   42.4418 C   0  0  0  0  0  0  0  0  0  0  0  0
    1.9048   20.5054   37.8582 N   0  0  0  0  0  0  0  0  0  0  0  0
    1.2697   17.5797   41.5438 C   0  0  0  0  0  0  0  0  0  0  0  0
   -0.4476   18.5305   43.0736 C   0  0  0  0  0  0  0  0  0  0  0  0
    3.5214   17.7071   38.5029 H   0  0  0  0  0  0  0  0  0  0  0  0
    0.4933   20.5704   39.1960 H   0  0  0  0  0  0  0  0  0  0  0  0
    2.8889   17.6810   39.8193 H   0  0  0  0  0  0  0  0  0  0  0  0
    2.1270   13.4962   41.3725 H   0  0  0  0  0  0  0  0  0  0  0  0
    3.6203   14.0985   42.2286 H   0  0  0  0  0  0  0  0  0  0  0  0
    4.4469   14.0655   38.6428 H   0  0  0  0  0  0  0  0  0  0  0  0
    0.3986   20.6833   40.6025 H   0  0  0  0  0  0  0  0  0  0  0  0
   -0.8775   20.6710   42.8302 H   0  0  0  0  0  0  0  0  0  0  0  0
   -1.1730   18.3520   43.8809 H   0  0  0  0  0  0  0  0  0  0  0  0
  1  5  2  0
  2 16  1  0
  2 19  2  0
  3  5  1  0
  4 12  1  0
  5  2  1  0
  6 13  2  0
  7 14  2  0
  8 20  2  0
  9 11  2  0
  9  4  1  0
 10 19  1  0
 10  6  1  0
 11 10  1  0
 12  6  1  0
 14 18  1  0
 14  1  1  0
 15  4  2  3
 16 17  2  0
 17 20  1  0
 18  3  2  0
 19  8  1  0
  1 21  1  0
  3 22  1  0
 11 23  1  0
 12 24  1  0
 12 25  1  0
 15 26  1  0
 16 27  1  0
 17 28  1  0
 20 29  1  0
M  END
>  <mol_id>  (93) 
2026-08-23-6tgu-s0-n100-prep-0095

>  <rmsd_to_ref>  (93) 


$$$$

     RDKit          3D

 36 39  0  0  0  0  0  0  0  0999 V2000
    2.7430   18.2510   39.0038 C   0  0  1  0  0  0  0  0  0  0  0  0
    0.0971   16.6429   43.8208 N   0  0  0  0  0  0  0  0  0  0  0  0
    0.9479   16.2211   41.6071 C   0  0  0  0  0  0  0  0  0  0  0  0
    1.0871   18.5310   42.3573 C   0  0  0  0  0  0  0  0  0  0  0  0
    3.0074   20.6132   36.9390 O   0  0  0  0  0  0  0  0  0  0  0  0
    4.4707   19.0165   36.7583 C   0  0  0  0  0  0  0  0  0  0  0  0
    0.8356   15.0980   42.0015 O   0  0  0  0  0  0  0  0  0  0  0  0
    4.4854   20.8738   35.2684 O   0  0  0  0  0  0  0  0  0  0  0  0
   -0.4063   17.3020   44.8581 C   0  0  0  0  0  0  0  0  0  0  0  0
    1.5591   19.0028   41.0750 C   0  0  1  0  0  0  0  0  0  0  0  0
    3.9536   20.2391   36.4179 N   0  0  0  0  0  0  0  0  0  0  0  0
    0.3616   17.2100   42.4672 C   0  0  2  0  0  0  0  0  0  0  0  0
   -0.9022   16.6691   45.8992 N   0  0  0  0  0  0  0  0  0  0  0  0
    1.9944   18.0550   40.1005 C   0  0  2  0  0  0  0  0  0  0  0  0
    1.6208   20.3178   40.6423 C   0  0  0  0  0  0  0  0  0  0  0  0
    3.0095   19.9552   38.4100 C   0  0  1  0  0  0  0  0  0  0  0  0
    1.5148   16.7196   40.3873 O   0  0  0  0  0  0  0  0  0  0  0  0
    2.2667   20.7046   39.5201 C   0  0  0  0  0  0  0  0  0  0  0  0
   -0.5287   18.6708   44.8433 N   0  0  0  0  0  0  0  0  0  0  0  0
    3.7505   18.6165   38.0188 C   0  0  1  0  0  0  0  0  0  0  0  0
    2.4604   17.2044   39.1902 H   0  0  0  0  0  0  0  0  0  0  0  0
    0.4022   19.3001   42.7438 H   0  0  0  0  0  0  0  0  0  0  0  0
    2.0189   18.3492   42.9130 H   0  0  0  0  0  0  0  0  0  0  0  0
    5.5527   19.0932   36.9408 H   0  0  0  0  0  0  0  0  0  0  0  0
    4.3345   18.2763   35.9561 H   0  0  0  0  0  0  0  0  0  0  0  0
    5.1865   21.5173   35.5413 H   0  0  0  0  0  0  0  0  0  0  0  0
    2.5825   19.0627   41.4739 H   0  0  0  0  0  0  0  0  0  0  0  0
   -0.6488   17.4869   42.1320 H   0  0  0  0  0  0  0  0  0  0  0  0
   -1.2868   17.2033   46.6914 H   0  0  0  0  0  0  0  0  0  0  0  0
   -0.9057   15.6394   45.9222 H   0  0  0  0  0  0  0  0  0  0  0  0
    1.0847   18.2561   39.5155 H   0  0  0  0  0  0  0  0  0  0  0  0
    1.1170   21.0881   41.2446 H   0  0  0  0  0  0  0  0  0  0  0  0
    2.2568   21.7945   39.3717 H   0  0  0  0  0  0  0  0  0  0  0  0
   -0.9219   19.1615   45.6591 H   0  0  0  0  0  0  0  0  0  0  0  0
   -0.2271   19.2059   44.0165 H   0  0  0  0  0  0  0  0  0  0  0  0
    4.4315   17.7570   37.9317 H   0  0  0  0  0  0  0  0  0  0  0  0
  1 14  1  0
  2  9  2  3
  3  7  2  0
  3 12  1  0
  4 12  1  0
 16  5  1  6
  6 20  1  0
  8 11  1  0
  9 13  1  0
 10  4  1  0
 11  6  1  0
 11  5  1  0
 12  2  1  0
 14 17  1  0
 14 10  1  0
 15 10  1  0
 16  1  1  0
 16 18  1  0
 17  3  1  0
 18 15  2  0
 19  9  1  0
 20 16  1  0
 20  1  1  0
  1 21  1  6
  4 22  1  0
  4 23  1  0
  6 24  1  0
  6 25  1  0
  8 26  1  0
 10 27  1  1
 12 28  1  6
 13 29  1  0
 13 30  1  0
 14 31  1  6
 15 32  1  0
 18 33  1  0
 19 34  1  0
 19 35  1  0
 20 36  1  1
M  END
>  <mol_id>  (94) 
2026-08-23-6tgu-s0-n100-prep-0096

>  <rmsd_to_ref>  (94) 


$$$$

     RDKit          3D

 36 38  0  0  0  0  0  0  0  0999 V2000
    1.4800   16.2610   41.4740 C   0  0  0  0  0  0  0  0  0  0  0  0
    0.5170   19.1950   42.2710 C   0  0  0  0  0  0  0  0  0  0  0  0
    1.9330   20.7860   39.3270 C   0  0  0  0  0  0  0  0  0  0  0  0
    2.3560   19.3840   39.1020 C   0  0  0  0  0  0  0  0  0  0  0  0
    0.7270   16.6840   42.6460 C   0  0  2  0  0  0  0  0  0  0  0  0
    1.2870   20.8220   40.6270 C   0  0  0  0  0  0  0  0  0  0  0  0
    3.1950   17.8750   37.6050 O   0  0  0  0  0  0  0  0  0  0  0  0
   -0.0290   20.1750   42.7900 O   0  0  0  0  0  0  0  0  0  0  0  0
    1.5610   14.9470   41.5680 C   0  0  0  0  0  0  0  0  0  0  0  0
    1.2420   19.4070   41.0300 C   0  0  0  0  0  0  0  0  0  0  0  0
    2.8810   16.0650   39.8310 C   0  0  0  0  0  0  0  0  0  0  0  0
    0.4950   15.5440   43.4470 O   0  0  0  0  0  0  0  0  0  0  0  0
   -0.9340   17.8510   43.9030 C   0  0  0  0  0  0  0  0  0  0  0  0
    2.0870   17.0070   40.4790 C   0  0  0  0  0  0  0  0  0  0  0  0
    2.9760   19.0740   37.8680 C   0  0  0  0  0  0  0  0  0  0  0  0
    0.3550   17.9230   43.0900 C   0  0  2  0  0  0  0  0  0  0  0  0
    3.7870   20.1670   36.0850 O   0  0  0  0  0  0  0  0  0  0  0  0
    3.2710   20.0290   37.0500 N   0  0  0  0  0  0  0  0  0  0  0  0
    1.9300   18.4670   40.2540 C   0  0  0  0  0  0  0  0  0  0  0  0
    3.0100   14.7690   40.2280 C   0  0  0  0  0  0  0  0  0  0  0  0
    2.4030   13.9830   41.2290 C   0  0  0  0  0  0  0  0  0  0  0  0
    2.0797   21.6345   38.6425 H   0  0  0  0  0  0  0  0  0  0  0  0
    1.6624   16.7592   43.2199 H   0  0  0  0  0  0  0  0  0  0  0  0
    1.8758   21.4155   41.3419 H   0  0  0  0  0  0  0  0  0  0  0  0
    0.2919   21.2899   40.5972 H   0  0  0  0  0  0  0  0  0  0  0  0
    1.4629   14.7910   42.6525 H   0  0  0  0  0  0  0  0  0  0  0  0
    0.9160   14.7799   40.6927 H   0  0  0  0  0  0  0  0  0  0  0  0
    3.4403   16.3885   38.9408 H   0  0  0  0  0  0  0  0  0  0  0  0
    0.5464   15.7963   44.4029 H   0  0  0  0  0  0  0  0  0  0  0  0
   -0.6920   17.8645   44.9760 H   0  0  0  0  0  0  0  0  0  0  0  0
   -1.5698   18.7150   43.6596 H   0  0  0  0  0  0  0  0  0  0  0  0
   -1.4696   16.9215   43.6596 H   0  0  0  0  0  0  0  0  0  0  0  0
    1.2347   18.1438   43.7124 H   0  0  0  0  0  0  0  0  0  0  0  0
    3.7519   14.2119   39.6371 H   0  0  0  0  0  0  0  0  0  0  0  0
    1.9045   13.0840   40.8375 H   0  0  0  0  0  0  0  0  0  0  0  0
    3.0363   13.5328   42.0077 H   0  0  0  0  0  0  0  0  0  0  0  0
  1  9  1  0
  1  5  1  0
  2  8  2  0
  2 16  1  0
  3  6  1  0
  4  3  2  0
  4 19  1  0
  5 16  1  0
  5 12  1  0
  6 10  1  0
  7 15  2  0
 10  2  1  0
 11 20  2  0
 11 14  1  0
 14  1  2  0
 15  4  1  0
 16 13  1  0
 17 18  2  0
 18 15  1  0
 19 14  1  0
 19 10  2  0
 20 21  1  0
 21  9  1  0
  3 22  1  0
  5 23  1  6
  6 24  1  0
  6 25  1  0
  9 26  1  0
  9 27  1  0
 11 28  1  0
 12 29  1  0
 13 30  1  0
 13 31  1  0
 13 32  1  0
 16 33  1  1
 20 34  1  0
 21 35  1  0
 21 36  1  0
M  END
>  <mol_id>  (95) 
2026-08-23-6tgu-s0-n100-prep-0097

>  <rmsd_to_ref>  (95) 


$$$$

     RDKit          3D

 30 32  0  0  0  0  0  0  0  0999 V2000
    1.8639   16.2264   40.5912 C   0  0  0  0  0  0  0  0  0  0  0  0
    0.7228   17.6582   41.6561 C   0  0  0  0  0  0  0  0  0  0  0  0
    1.2183   15.5698   41.5944 N   0  0  0  0  0  0  0  0  0  0  0  0
    1.6774   17.5296   40.6080 C   0  0  0  0  0  0  0  0  0  0  0  0
    2.0728   18.5143   39.7019 C   0  0  1  0  0  0  0  0  0  0  0  0
   -0.4849   16.1267   43.2275 C   0  0  0  0  0  0  0  0  0  0  0  0
   -0.6734   19.2263   43.0481 C   0  0  0  0  0  0  0  0  0  0  0  0
    2.6692   15.4526   39.9306 C   0  0  0  0  0  0  0  0  0  0  0  0
    3.5760   19.9037   36.6815 O   0  0  0  0  0  0  0  0  0  0  0  0
    2.2909   20.4819   38.5143 C   0  0  0  0  0  0  0  0  0  0  0  0
    3.0371   19.7011   37.7539 C   0  0  0  0  0  0  0  0  0  0  0  0
    0.2793   18.9697   42.0305 N   0  0  0  0  0  0  0  0  0  0  0  0
   -0.7970   19.9000   41.7000 C   0  0  0  0  0  0  0  0  0  0  0  0
    1.8497   19.8671   39.6479 C   0  0  0  0  0  0  0  0  0  0  0  0
    0.5279   16.4255   42.1791 C   0  0  0  0  0  0  0  0  0  0  0  0
    3.1114   18.2059   38.4530 S   0  0  0  0  0  0  0  0  0  0  0  0
    1.2871   14.5680   41.8233 H   0  0  0  0  0  0  0  0  0  0  0  0
    1.1595   18.3402   39.1141 H   0  0  0  0  0  0  0  0  0  0  0  0
   -0.0225   16.2200   44.2213 H   0  0  0  0  0  0  0  0  0  0  0  0
   -1.3201   16.8375   43.1437 H   0  0  0  0  0  0  0  0  0  0  0  0
   -0.8607   15.1018   43.0928 H   0  0  0  0  0  0  0  0  0  0  0  0
   -1.3902   18.4451   43.3412 H   0  0  0  0  0  0  0  0  0  0  0  0
   -0.6259   19.5724   44.0911 H   0  0  0  0  0  0  0  0  0  0  0  0
    3.1712   14.7653   40.6274 H   0  0  0  0  0  0  0  0  0  0  0  0
    2.0966   14.8724   39.1921 H   0  0  0  0  0  0  0  0  0  0  0  0
    3.4224   16.0641   39.4123 H   0  0  0  0  0  0  0  0  0  0  0  0
    2.0497   21.5241   38.2583 H   0  0  0  0  0  0  0  0  0  0  0  0
   -0.5920   20.9753   41.5924 H   0  0  0  0  0  0  0  0  0  0  0  0
   -1.5669   19.9803   40.9186 H   0  0  0  0  0  0  0  0  0  0  0  0
    1.3511   20.4157   40.4605 H   0  0  0  0  0  0  0  0  0  0  0  0
  1  3  1  0
  2 12  1  0
  2 15  2  0
  3 15  1  0
  4  1  2  0
  4  2  1  0
  5  4  1  0
  8  1  1  0
  9 11  2  0
 10 14  2  0
 11 16  1  0
 11 10  1  0
 12  7  1  0
 13 12  1  0
 13  7  1  0
 14  5  1  0
 15  6  1  0
 16  5  1  0
  3 17  1  0
  5 18  1  6
  6 19  1  0
  6 20  1  0
  6 21  1  0
  7 22  1  0
  7 23  1  0
  8 24  1  0
  8 25  1  0
  8 26  1  0
 10 27  1  0
 13 28  1  0
 13 29  1  0
 14 30  1  0
M  END
>  <mol_id>  (96) 
2026-08-23-6tgu-s0-n100-prep-0098

>  <rmsd_to_ref>  (96) 


$$$$

     RDKit          3D

 24 26  0  0  0  0  0  0  0  0999 V2000
    4.0435   18.3997   36.1561 N   0  0  0  0  0  0  0  0  0  0  0  0
    1.8752   16.0031   38.6902 C   0  0  0  0  0  0  0  0  0  0  0  0
    0.2096   18.1347   41.1380 C   0  0  0  0  0  0  0  0  0  0  0  0
    2.0255   20.8651   39.8229 O   0  0  0  0  0  0  0  0  0  0  0  0
    2.5838   18.3050   38.2567 C   0  0  0  0  0  0  0  0  0  0  0  0
   -1.0270   18.0319   43.0259 C   0  0  0  0  0  0  0  0  0  0  0  0
    2.6146   16.9321   37.9724 C   0  0  0  0  0  0  0  0  0  0  0  0
    3.3845   20.2452   37.0094 O   0  0  0  0  0  0  0  0  0  0  0  0
    0.9768   17.6899   40.0476 C   0  0  0  0  0  0  0  0  0  0  0  0
    1.7542   18.6029   39.4369 C   0  0  0  0  0  0  0  0  0  0  0  0
    1.0201   16.3499   39.7383 C   0  0  0  0  0  0  0  0  0  0  0  0
   -0.9859   19.4419   43.0166 N   0  0  0  0  0  0  0  0  0  0  0  0
    1.3712   19.8694   40.2151 C   0  0  0  0  0  0  0  0  0  0  0  0
    3.3408   19.0640   37.0883 C   0  0  0  0  0  0  0  0  0  0  0  0
    0.4532   19.4564   41.2410 C   0  0  0  0  0  0  0  0  0  0  0  0
   -0.4870   17.3292   42.0008 N   0  0  0  0  0  0  0  0  0  0  0  0
   -0.2096   20.1913   42.2108 C   0  0  0  0  0  0  0  0  0  0  0  0
    4.0558   17.3697   36.1572 H   0  0  0  0  0  0  0  0  0  0  0  0
    4.5700   18.9202   35.4400 H   0  0  0  0  0  0  0  0  0  0  0  0
    1.9672   14.9407   38.4203 H   0  0  0  0  0  0  0  0  0  0  0  0
   -1.4982   17.5019   43.8668 H   0  0  0  0  0  0  0  0  0  0  0  0
    3.2504   16.5778   37.1476 H   0  0  0  0  0  0  0  0  0  0  0  0
    0.4217   15.6025   40.2800 H   0  0  0  0  0  0  0  0  0  0  0  0
   -0.1113   21.2821   42.3126 H   0  0  0  0  0  0  0  0  0  0  0  0
  1 14  1  0
  2 11  1  0
  3 16  2  0
  4 13  2  0
  5 10  2  0
  7  5  1  0
  7  2  2  0
  8 14  2  0
  9  3  1  0
 10 13  1  0
 10  9  1  0
 11  9  2  0
 12  6  2  0
 13 15  1  0
 14  5  1  0
 15  3  1  0
 15 17  2  0
 16  6  1  0
 17 12  1  0
  1 18  1  0
  1 19  1  0
  2 20  1  0
  6 21  1  0
  7 22  1  0
 11 23  1  0
 17 24  1  0
M  END
>  <mol_id>  (97) 
2026-08-23-6tgu-s0-n100-prep-0099

>  <rmsd_to_ref>  (97) 


$$$$

     RDKit          3D

 25 25  0  0  0  0  0  0  0  0999 V2000
    2.2120   18.9800   40.0810 C   0  0  0  0  0  0  0  0  0  0  0  0
    1.7400   18.1440   41.1890 C   0  0  0  0  0  0  0  0  0  0  0  0
    2.9880   18.5560   38.8870 C   0  0  0  0  0  0  0  0  0  0  0  0
    3.7780   18.8950   36.7790 O   0  0  0  0  0  0  0  0  0  0  0  0
    2.4690   20.5000   37.4440 O   0  0  0  0  0  0  0  0  0  0  0  0
    3.0940   19.4270   37.6820 C   0  0  0  0  0  0  0  0  0  0  0  0
    0.9250   20.8190   41.0150 C   0  0  0  0  0  0  0  0  0  0  0  0
   -0.8240   21.6890   43.2540 O   0  0  0  0  0  0  0  0  0  0  0  0
   -0.8160   17.8020   44.0080 C   0  0  0  0  0  0  0  0  0  0  0  0
    0.7940   18.6540   42.1250 C   0  0  0  0  0  0  0  0  0  0  0  0
   -1.0390   20.5110   42.5270 C   0  0  0  0  0  0  0  0  0  0  0  0
    0.3690   17.8540   43.1760 O   0  0  0  0  0  0  0  0  0  0  0  0
    0.2870   19.9920   41.9340 C   0  0  0  0  0  0  0  0  0  0  0  0
    1.9310   20.3770   40.0950 C   0  0  0  0  0  0  0  0  0  0  0  0
    2.1183   17.1169   41.2986 H   0  0  0  0  0  0  0  0  0  0  0  0
    4.0168   18.3761   39.2323 H   0  0  0  0  0  0  0  0  0  0  0  0
    2.4030   17.7026   38.5134 H   0  0  0  0  0  0  0  0  0  0  0  0
    0.6387   21.8809   40.9931 H   0  0  0  0  0  0  0  0  0  0  0  0
   -0.8603   21.4900   44.2231 H   0  0  0  0  0  0  0  0  0  0  0  0
   -0.5209   17.8149   45.0676 H   0  0  0  0  0  0  0  0  0  0  0  0
   -1.4528   18.6731   43.7940 H   0  0  0  0  0  0  0  0  0  0  0  0
   -1.3740   16.8785   43.7940 H   0  0  0  0  0  0  0  0  0  0  0  0
   -1.4610   19.7455   43.1948 H   0  0  0  0  0  0  0  0  0  0  0  0
   -1.7374   20.7234   41.7042 H   0  0  0  0  0  0  0  0  0  0  0  0
    2.4590   21.0798   39.4338 H   0  0  0  0  0  0  0  0  0  0  0  0
  1 14  1  0
  1  2  2  0
  2 10  1  0
  3  1  1  0
  4  6  2  0
  5  6  1  0
  6  3  1  0
  7 13  1  0
 10 12  1  0
 11  8  1  0
 12  9  1  0
 13 10  2  0
 13 11  1  0
 14  7  2  0
  2 15  1  0
  3 16  1  0
  3 17  1  0
  7 18  1  0
  8 19  1  0
  9 20  1  0
  9 21  1  0
  9 22  1  0
 11 23  1  0
 11 24  1  0
 14 25  1  0
M  CHG  1   5  -1
M  END
>  <mol_id>  (98) 
2026-08-23-6tgu-s0-n100-prep-0100

>  <rmsd_to_ref>  (98) 


$$$$
