
     RDKit          3D

 20 19  0  0  0  0  0  0  0  0999 V2000
    2.0017   20.6557   38.6756 C   0  0  0  0  0  0  0  0  0  0  0  0
    2.2601   19.4474   39.6901 C   0  0  2  0  0  0  0  0  0  0  0  0
    2.7051   20.2542   37.4293 C   0  0  0  0  0  0  0  0  0  0  0  0
    1.5142   19.7533   41.0628 C   0  0  1  0  0  0  0  0  0  0  0  0
    1.4786   18.7331   42.3419 C   0  0  0  0  0  0  0  0  0  0  0  0
    3.9997   19.8325   37.6370 O   0  0  0  0  0  0  0  0  0  0  0  0
    3.1503   18.6268   40.5135 O   0  0  0  0  0  0  0  0  0  0  0  0
    1.8260   20.9394   41.5272 O   0  0  0  0  0  0  0  0  0  0  0  0
    0.9251   20.7839   38.4901 H   0  0  0  0  0  0  0  0  0  0  0  0
    2.3651   21.6165   39.0692 H   0  0  0  0  0  0  0  0  0  0  0  0
    2.2878   18.9633   38.7027 H   0  0  0  0  0  0  0  0  0  0  0  0
    2.7260   21.1178   36.7483 H   0  0  0  0  0  0  0  0  0  0  0  0
    2.1523   19.4016   37.0080 H   0  0  0  0  0  0  0  0  0  0  0  0
    0.5000   19.6215   40.6578 H   0  0  0  0  0  0  0  0  0  0  0  0
    1.7025   19.2916   43.2627 H   0  0  0  0  0  0  0  0  0  0  0  0
    0.4795   18.2798   42.4217 H   0  0  0  0  0  0  0  0  0  0  0  0
    2.2298   17.9421   42.2010 H   0  0  0  0  0  0  0  0  0  0  0  0
    4.1911   19.8207   38.6082 H   0  0  0  0  0  0  0  0  0  0  0  0
    3.0444   18.8781   41.4653 H   0  0  0  0  0  0  0  0  0  0  0  0
    1.9390   20.8900   42.5094 H   0  0  0  0  0  0  0  0  0  0  0  0
  1  2  1  0
  2  7  1  0
  2  4  1  0
  3  6  1  0
  3  1  1  0
  4  8  1  0
  4  5  1  0
  1  9  1  0
  1 10  1  0
  2 11  1  6
  3 12  1  0
  3 13  1  0
  4 14  1  6
  5 15  1  0
  5 16  1  0
  5 17  1  0
  6 18  1  0
  7 19  1  0
  8 20  1  0
M  END
>  <mol_id>  (1) 
2026-09-18-3war-s0-n100-refligand-0001

>  <rmsd_to_ref>  (1) 


$$$$

     RDKit          3D

 17 18  0  0  0  0  0  0  0  0999 V2000
    1.0920   20.9800   40.5020 C   0  0  0  0  0  0  0  0  0  0  0  0
    3.3800   18.6160   37.9500 C   0  0  0  0  0  0  0  0  0  0  0  0
    2.9860   18.2390   39.2670 C   0  0  0  0  0  0  0  0  0  0  0  0
    1.5490   18.9310   41.2460 N   0  0  0  0  0  0  0  0  0  0  0  0
    3.3390   20.2490   36.2640 O   0  0  0  0  0  0  0  0  0  0  0  0
    0.9370   20.0750   41.5420 C   0  0  0  0  0  0  0  0  0  0  0  0
    1.8410   20.3150   39.5140 C   0  0  0  0  0  0  0  0  0  0  0  0
    2.9670   19.8540   37.4510 C   0  0  0  0  0  0  0  0  0  0  0  0
    2.1890   20.6930   38.2380 C   0  0  0  0  0  0  0  0  0  0  0  0
    2.1720   19.0600   39.9720 C   0  0  0  0  0  0  0  0  0  0  0  0
    0.7071   22.0095   40.4586 H   0  0  0  0  0  0  0  0  0  0  0  0
    3.9985   17.9439   37.3371 H   0  0  0  0  0  0  0  0  0  0  0  0
    3.3386   17.2935   39.7049 H   0  0  0  0  0  0  0  0  0  0  0  0
    3.0413   21.1279   35.9189 H   0  0  0  0  0  0  0  0  0  0  0  0
    1.3752   20.4957   42.4591 H   0  0  0  0  0  0  0  0  0  0  0  0
   -0.1350   19.8815   41.6949 H   0  0  0  0  0  0  0  0  0  0  0  0
    1.8506   21.6612   37.8404 H   0  0  0  0  0  0  0  0  0  0  0  0
  1  6  1  0
  2  3  2  0
  3 10  1  0
  4  6  1  0
  5  8  1  0
  7 10  1  0
  7  1  2  0
  8  2  1  0
  8  9  2  0
  9  7  1  0
 10  4  2  0
  1 11  1  0
  2 12  1  0
  3 13  1  0
  5 14  1  0
  6 15  1  0
  6 16  1  0
  9 17  1  0
M  END
>  <mol_id>  (2) 
2026-09-18-3war-s0-n100-refligand-0002

>  <rmsd_to_ref>  (2) 


$$$$

     RDKit          3D

 28 31  0  0  0  0  0  0  0  0999 V2000
    0.3294   20.2579   41.4285 C   0  0  0  0  0  0  0  0  0  0  0  0
    2.8385   18.6453   38.2032 C   0  0  0  0  0  0  0  0  0  0  0  0
    1.2674   18.0423   41.0219 C   0  0  0  0  0  0  0  0  0  0  0  0
    2.9363   16.3282   38.2882 O   0  0  0  0  0  0  0  0  0  0  0  0
    3.5586   18.8551   37.1280 N   0  0  0  0  0  0  0  0  0  0  0  0
   -0.2369   18.4403   42.8807 C   0  0  0  0  0  0  0  0  0  0  0  0
   -0.3996   19.7361   42.4903 C   0  0  0  0  0  0  0  0  0  0  0  0
    2.3461   19.8785   38.4964 C   0  0  0  0  0  0  0  0  0  0  0  0
    1.1251   15.2595   41.7486 C   0  0  0  0  0  0  0  0  0  0  0  0
    1.1983   19.3804   40.6685 C   0  0  0  0  0  0  0  0  0  0  0  0
    2.6067   17.3949   38.9915 C   0  0  0  0  0  0  0  0  0  0  0  0
    0.5126   16.1494   42.5527 C   0  0  0  0  0  0  0  0  0  0  0  0
    3.4889   20.0280   36.6503 N   0  0  0  0  0  0  0  0  0  0  0  0
    1.9126   17.0430   40.2716 C   0  0  0  0  0  0  0  0  0  0  0  0
    1.8083   20.1387   39.7468 C   0  0  0  0  0  0  0  0  0  0  0  0
    0.5069   17.5267   42.1328 C   0  0  0  0  0  0  0  0  0  0  0  0
    1.8481   15.6708   40.6803 C   0  0  0  0  0  0  0  0  0  0  0  0
    2.7416   20.7316   37.4451 C   0  0  0  0  0  0  0  0  0  0  0  0
    0.2485   21.3235   41.1679 H   0  0  0  0  0  0  0  0  0  0  0  0
    2.8361   15.4254   38.6819 H   0  0  0  0  0  0  0  0  0  0  0  0
   -0.7075   18.1036   43.8163 H   0  0  0  0  0  0  0  0  0  0  0  0
   -1.1176   20.3772   43.0227 H   0  0  0  0  0  0  0  0  0  0  0  0
    1.0368   14.1841   41.9625 H   0  0  0  0  0  0  0  0  0  0  0  0
    0.0355   15.8365   43.4931 H   0  0  0  0  0  0  0  0  0  0  0  0
    1.9019   21.1928   40.0471 H   0  0  0  0  0  0  0  0  0  0  0  0
    1.4582   15.1135   39.8158 H   0  0  0  0  0  0  0  0  0  0  0  0
    2.8773   15.4915   41.0245 H   0  0  0  0  0  0  0  0  0  0  0  0
    2.4690   21.7902   37.3222 H   0  0  0  0  0  0  0  0  0  0  0  0
  1  7  2  0
  2  8  1  0
  2 11  2  0
  3 16  1  0
  4 11  1  0
  5  2  1  0
  7  6  1  0
  8 15  1  0
  9 12  2  0
 10  3  1  0
 10  1  1  0
 11 14  1  0
 13  5  2  0
 13 18  1  0
 14 17  1  0
 14  3  2  0
 15 10  2  0
 16 12  1  0
 16  6  2  0
 17  9  1  0
 18  8  2  0
  1 19  1  0
  4 20  1  0
  6 21  1  0
  7 22  1  0
  9 23  1  0
 12 24  1  0
 15 25  1  0
 17 26  1  0
 17 27  1  0
 18 28  1  0
M  END
>  <mol_id>  (3) 
2026-09-18-3war-s0-n100-refligand-0003

>  <rmsd_to_ref>  (3) 


$$$$

     RDKit          3D

 25 27  0  0  0  0  0  0  0  0999 V2000
    1.5192   18.9736   42.2062 C   0  0  1  0  0  0  0  0  0  0  0  0
    1.6543   20.3376   40.0338 C   0  0  0  0  0  0  0  0  0  0  0  0
    2.9204   18.7602   39.0234 C   0  0  0  0  0  0  0  0  0  0  0  0
    1.4492   17.4433   42.1457 C   0  0  0  0  0  0  0  0  0  0  0  0
    2.6878   16.7383   41.1120 S   0  0  0  0  0  0  0  0  0  0  0  0
    2.7022   18.2589   40.2266 C   0  0  2  0  0  0  0  0  0  0  0  0
    0.8828   21.3166   40.2070 O   0  0  0  0  0  0  0  0  0  0  0  0
    2.0130   19.4107   40.8757 N   0  0  0  0  0  0  0  0  0  0  0  0
    3.3866   19.4320   36.9120 O   0  0  0  0  0  0  0  0  0  0  0  0
    3.7290   18.5163   37.7974 C   0  0  0  0  0  0  0  0  0  0  0  0
    0.4425   19.9068   42.5554 C   0  0  0  0  0  0  0  0  0  0  0  0
    2.2705   19.9196   38.8054 C   0  0  0  0  0  0  0  0  0  0  0  0
    2.5176   20.3542   37.4713 C   0  0  0  0  0  0  0  0  0  0  0  0
    1.9454   21.5011   36.7980 C   0  0  0  0  0  0  0  0  0  0  0  0
    2.1109   19.0633   43.1291 H   0  0  0  0  0  0  0  0  0  0  0  0
    1.5746   17.0462   43.1638 H   0  0  0  0  0  0  0  0  0  0  0  0
    0.4719   17.1754   41.7178 H   0  0  0  0  0  0  0  0  0  0  0  0
    3.5012   17.5065   40.1530 H   0  0  0  0  0  0  0  0  0  0  0  0
    4.4743   17.7197   37.6561 H   0  0  0  0  0  0  0  0  0  0  0  0
    0.4254   20.0557   43.6452 H   0  0  0  0  0  0  0  0  0  0  0  0
    0.6171   20.8714   42.0563 H   0  0  0  0  0  0  0  0  0  0  0  0
   -0.5222   19.4931   42.2267 H   0  0  0  0  0  0  0  0  0  0  0  0
    1.6785   22.2669   37.5411 H   0  0  0  0  0  0  0  0  0  0  0  0
    2.6798   21.9157   36.0917 H   0  0  0  0  0  0  0  0  0  0  0  0
    1.0433   21.1920   36.2497 H   0  0  0  0  0  0  0  0  0  0  0  0
  1 11  1  0
  2  7  2  0
  2  8  1  0
  4  1  1  0
  5  4  1  0
  6  3  1  0
  6  8  1  0
  6  5  1  0
  8  1  1  0
  9 13  1  0
  9 10  1  0
 10  3  2  0
 12  3  1  0
 12  2  1  0
 13 12  2  0
 14 13  1  0
  1 15  1  1
  4 16  1  0
  4 17  1  0
  6 18  1  1
 10 19  1  0
 11 20  1  0
 11 21  1  0
 11 22  1  0
 14 23  1  0
 14 24  1  0
 14 25  1  0
M  END
>  <mol_id>  (4) 
2026-09-18-3war-s0-n100-refligand-0004

>  <rmsd_to_ref>  (4) 


$$$$

     RDKit          3D

 29 31  0  0  0  0  0  0  0  0999 V2000
    3.9920   18.1735   37.8960 C   0  0  2  0  0  0  0  0  0  0  0  0
    0.8865   19.4159   42.6376 N   0  0  0  0  0  0  0  0  0  0  0  0
    2.8002   21.0131   36.5780 O   0  0  0  0  0  0  0  0  0  0  0  0
    3.8664   15.9944   37.5090 O   0  0  0  0  0  0  0  0  0  0  0  0
    1.7491   21.6257   35.8825 C   0  0  0  0  0  0  0  0  0  0  0  0
    1.3400   18.2050   42.8256 C   0  0  0  0  0  0  0  0  0  0  0  0
    1.9493   17.8338   41.7693 N   0  0  0  0  0  0  0  0  0  0  0  0
    2.6990   20.0301   37.3242 C   0  0  2  0  0  0  0  0  0  0  0  0
    1.1990   19.7577   41.3983 C   0  0  0  0  0  0  0  0  0  0  0  0
    3.1291   17.7631   39.0407 O   0  0  0  0  0  0  0  0  0  0  0  0
    3.1950   18.8692   36.9002 O   0  0  0  0  0  0  0  0  0  0  0  0
    1.3953   20.9784   39.3420 C   0  0  0  0  0  0  0  0  0  0  0  0
    4.5196   17.1144   37.0404 C   0  0  0  0  0  0  0  0  0  0  0  0
    2.1442   19.9861   38.7817 C   0  0  0  0  0  0  0  0  0  0  0  0
    1.9080   18.7347   40.7564 C   0  0  0  0  0  0  0  0  0  0  0  0
    2.4073   18.9061   39.4728 C   0  0  0  0  0  0  0  0  0  0  0  0
    0.9887   20.8556   40.6607 C   0  0  0  0  0  0  0  0  0  0  0  0
    4.7908   18.7176   38.4212 H   0  0  0  0  0  0  0  0  0  0  0  0
    4.0176   15.9078   38.4835 H   0  0  0  0  0  0  0  0  0  0  0  0
    1.0652   22.1044   36.5988 H   0  0  0  0  0  0  0  0  0  0  0  0
    2.1554   22.3859   35.1993 H   0  0  0  0  0  0  0  0  0  0  0  0
    1.2016   20.8675   35.3034 H   0  0  0  0  0  0  0  0  0  0  0  0
    2.0357   18.1972   43.6776 H   0  0  0  0  0  0  0  0  0  0  0  0
    0.5073   17.5195   43.0416 H   0  0  0  0  0  0  0  0  0  0  0  0
    3.7093   20.2224   37.7146 H   0  0  0  0  0  0  0  0  0  0  0  0
    1.1173   21.8655   38.7540 H   0  0  0  0  0  0  0  0  0  0  0  0
    4.2788   17.3011   35.9834 H   0  0  0  0  0  0  0  0  0  0  0  0
    5.6156   17.0283   37.0768 H   0  0  0  0  0  0  0  0  0  0  0  0
    0.4660   21.7041   41.1261 H   0  0  0  0  0  0  0  0  0  0  0  0
  1 13  1  0
  1 10  1  0
  2  6  1  0
  5  3  1  0
  7  6  1  0
  8  3  1  0
  8 14  1  0
  9  2  2  0
 10 16  1  0
 11  8  1  0
 11  1  1  0
 12 17  2  0
 13  4  1  0
 14 12  1  0
 14 16  2  0
 15  9  1  0
 15  7  2  0
 16 15  1  0
 17  9  1  0
  1 18  1  1
  4 19  1  0
  5 20  1  0
  5 21  1  0
  5 22  1  0
  6 23  1  0
  6 24  1  0
  8 25  1  6
 12 26  1  0
 13 27  1  0
 13 28  1  0
 17 29  1  0
M  END
>  <mol_id>  (5) 
2026-09-18-3war-s0-n100-refligand-0005

>  <rmsd_to_ref>  (5) 


$$$$

     RDKit          3D

 48 50  0  0  0  0  0  0  0  0999 V2000
    1.1610   21.6221   37.8178 C   0  0  0  0  0  0  0  0  0  0  0  0
    2.1266   19.7604   40.1525 C   0  0  2  0  0  0  0  0  0  0  0  0
    0.1128   21.4697   42.5299 O   0  0  0  0  0  0  0  0  0  0  0  0
    3.1384   20.9444   35.5909 O   0  0  0  0  0  0  0  0  0  0  0  0
    0.0604   18.7584   43.4728 N   0  0  0  0  0  0  0  0  0  0  0  0
    2.7870   14.5451   42.3649 C   0  0  0  0  0  0  0  0  0  0  0  0
    0.7529   19.3394   42.5880 C   0  0  0  0  0  0  0  0  0  0  0  0
    3.6823   18.4476   37.9833 C   0  0  0  0  0  0  0  0  0  0  0  0
    3.0747   20.0126   36.4496 C   0  0  0  0  0  0  0  0  0  0  0  0
    2.2309   20.3573   37.7157 C   0  0  0  0  0  0  0  0  0  0  0  0
    2.5947   19.7113   38.8755 C   0  0  0  0  0  0  0  0  0  0  0  0
    1.4291   20.8843   40.8755 C   0  0  0  0  0  0  0  0  0  0  0  0
    5.2068   14.3759   38.4318 C   0  0  0  0  0  0  0  0  0  0  0  0
    2.6411   18.7496   41.1488 C   0  0  0  0  0  0  0  0  0  0  0  0
    3.6430   14.8077   40.3748 C   0  0  0  0  0  0  0  0  0  0  0  0
    3.2418   18.9350   38.8804 O   0  0  0  0  0  0  0  0  0  0  0  0
    4.5690   17.1767   38.2048 C   0  0  0  0  0  0  0  0  0  0  0  0
    2.8770   15.4553   41.2882 N   0  0  0  0  0  0  0  0  0  0  0  0
    1.6059   21.2027   37.2216 C   0  0  0  0  0  0  0  0  0  0  0  0
    3.4820   13.3707   42.0627 N   0  0  0  0  0  0  0  0  0  0  0  0
    4.2555   15.2398   39.0695 C   0  0  1  0  0  0  0  0  0  0  0  0
    4.0577   13.6707   40.7872 N   0  0  0  0  0  0  0  0  0  0  0  0
    1.6599   17.5267   42.9184 C   0  0  0  0  0  0  0  0  0  0  0  0
    3.7455   19.0164   36.7804 N   0  0  0  0  0  0  0  0  0  0  0  0
    1.8192   18.5391   42.2561 C   0  0  0  0  0  0  0  0  0  0  0  0
    3.9793   16.5809   39.1525 O   0  0  0  0  0  0  0  0  0  0  0  0
    0.7489   20.6384   41.9855 C   0  0  0  0  0  0  0  0  0  0  0  0
    1.6075   21.4376   38.8060 H   0  0  0  0  0  0  0  0  0  0  0  0
    1.1830   22.7002   37.6010 H   0  0  0  0  0  0  0  0  0  0  0  0
    0.1193   21.2685   37.8143 H   0  0  0  0  0  0  0  0  0  0  0  0
    1.3186   19.6149   39.4203 H   0  0  0  0  0  0  0  0  0  0  0  0
   -0.7853   19.2129   43.8456 H   0  0  0  0  0  0  0  0  0  0  0  0
    2.2479   14.7334   43.3051 H   0  0  0  0  0  0  0  0  0  0  0  0
    2.2020   21.6230   41.1341 H   0  0  0  0  0  0  0  0  0  0  0  0
    0.6487   21.1950   40.1653 H   0  0  0  0  0  0  0  0  0  0  0  0
    5.8793   13.9480   39.1899 H   0  0  0  0  0  0  0  0  0  0  0  0
    4.6751   13.5645   37.9133 H   0  0  0  0  0  0  0  0  0  0  0  0
    5.7953   14.9529   37.7034 H   0  0  0  0  0  0  0  0  0  0  0  0
    2.7631   17.7888   40.6273 H   0  0  0  0  0  0  0  0  0  0  0  0
    3.5842   19.1583   41.5405 H   0  0  0  0  0  0  0  0  0  0  0  0
    4.5965   16.5511   37.3005 H   0  0  0  0  0  0  0  0  0  0  0  0
    5.6196   17.4142   38.4285 H   0  0  0  0  0  0  0  0  0  0  0  0
    2.2814   21.9041   36.7100 H   0  0  0  0  0  0  0  0  0  0  0  0
    0.9090   20.7601   36.4946 H   0  0  0  0  0  0  0  0  0  0  0  0
    4.1337   15.0432   37.9941 H   0  0  0  0  0  0  0  0  0  0  0  0
    4.7107   13.0598   40.2760 H   0  0  0  0  0  0  0  0  0  0  0  0
    0.9649   17.5309   43.7709 H   0  0  0  0  0  0  0  0  0  0  0  0
    2.2114   16.6098   42.6628 H   0  0  0  0  0  0  0  0  0  0  0  0
  2 11  1  0
  2 12  1  0
  2 14  1  0
  4  9  2  0
  7  5  2  3
  8 17  1  0
  8 16  1  0
  9 24  1  0
  9 10  1  0
 10 11  2  0
 12 27  1  0
 14 25  1  0
 15 22  1  0
 15 18  2  0
 16 11  1  0
 17 26  1  0
 18  6  1  0
 19 10  1  0
 19  1  1  0
 20  6  2  0
 21 13  1  0
 21 26  1  0
 21 15  1  0
 22 20  1  0
 24  8  2  0
 25  7  1  0
 25 23  2  3
 27  7  1  0
 27  3  2  0
  1 28  1  0
  1 29  1  0
  1 30  1  0
  2 31  1  6
  5 32  1  0
  6 33  1  0
 12 34  1  0
 12 35  1  0
 13 36  1  0
 13 37  1  0
 13 38  1  0
 14 39  1  0
 14 40  1  0
 17 41  1  0
 17 42  1  0
 19 43  1  0
 19 44  1  0
 21 45  1  6
 22 46  1  0
 23 47  1  0
 23 48  1  0
M  END
>  <mol_id>  (6) 
2026-09-18-3war-s0-n100-refligand-0006

>  <rmsd_to_ref>  (6) 


$$$$

     RDKit          3D

 29 34  0  0  0  0  0  0  0  0999 V2000
    0.8893   20.7904   39.5085 C   0  0  0  0  0  0  0  0  0  0  0  0
   -0.0486   16.3992   42.1037 C   0  0  0  0  0  0  0  0  0  0  0  0
    3.0250   19.1829   38.4497 C   0  0  2  0  0  0  0  0  0  0  0  0
    0.9072   16.9246   41.2212 C   0  0  0  0  0  0  0  0  0  0  0  0
    3.0074   16.5804   39.8443 C   0  0  0  0  0  0  0  0  0  0  0  0
    0.0174   20.5065   40.4775 C   0  0  0  0  0  0  0  0  0  0  0  0
    2.9966   17.9890   39.2445 C   0  0  2  0  0  0  0  0  0  0  0  0
    5.0020   17.9951   37.8423 C   0  0  0  0  0  0  0  0  0  0  0  0
    1.7567   18.7018   39.7405 C   0  0  2  0  0  0  0  0  0  0  0  0
    0.9325   18.2856   40.7088 C   0  0  0  0  0  0  0  0  0  0  0  0
    4.9703   19.0993   37.0782 N   0  0  0  0  0  0  0  0  0  0  0  0
    3.7745   19.5181   37.3504 C   0  0  0  0  0  0  0  0  0  0  0  0
   -0.0282   19.2711   41.1076 C   0  0  0  0  0  0  0  0  0  0  0  0
   -0.8046   19.1389   41.9758 O   0  0  0  0  0  0  0  0  0  0  0  0
    1.8984   14.8504   41.3494 O   0  0  0  0  0  0  0  0  0  0  0  0
    1.9701   16.0550   40.7679 C   0  0  1  0  0  0  0  0  0  0  0  0
    4.1777   17.5396   38.6320 C   0  0  0  0  0  0  0  0  0  0  0  0
    3.2494   20.4069   36.5396 O   0  0  0  0  0  0  0  0  0  0  0  0
    1.8277   19.8593   39.0695 N   0  0  0  0  0  0  0  0  0  0  0  0
    0.8666   21.7871   39.0435 H   0  0  0  0  0  0  0  0  0  0  0  0
   -0.0906   17.0202   43.0107 H   0  0  0  0  0  0  0  0  0  0  0  0
   -1.0346   16.3948   41.6161 H   0  0  0  0  0  0  0  0  0  0  0  0
    0.2303   15.3706   42.3762 H   0  0  0  0  0  0  0  0  0  0  0  0
   -0.6951   21.2841   40.7899 H   0  0  0  0  0  0  0  0  0  0  0  0
    5.9093   18.1214   38.4513 H   0  0  0  0  0  0  0  0  0  0  0  0
    4.8343   17.2665   37.0354 H   0  0  0  0  0  0  0  0  0  0  0  0
    5.6881   19.4976   36.4562 H   0  0  0  0  0  0  0  0  0  0  0  0
    1.5024   14.9427   42.2520 H   0  0  0  0  0  0  0  0  0  0  0  0
    1.3980   15.6744   39.9089 H   0  0  0  0  0  0  0  0  0  0  0  0
  1  6  2  0
  3 12  1  0
  3  7  1  0
  3 19  1  6
  3  9  1  0
  4  2  1  0
  5 16  1  0
  6 13  1  0
  7 17  1  1
  7  5  1  0
  7  9  1  0
  8 17  1  0
  9 10  1  0
 10  4  2  0
 10 13  1  0
 11  8  1  0
 11 12  1  0
 13 14  2  0
 16 15  1  0
 16  4  1  0
 17  5  2  0
 18 12  2  0
  9 19  1  1
 19  1  1  0
  1 20  1  0
  2 21  1  0
  2 22  1  0
  2 23  1  0
  6 24  1  0
  8 25  1  0
  8 26  1  0
 11 27  1  0
 15 28  1  0
 16 29  1  6
M  END
>  <mol_id>  (7) 
2026-09-18-3war-s0-n100-refligand-0007

>  <rmsd_to_ref>  (7) 


$$$$

     RDKit          3D

 38 41  0  0  0  0  0  0  0  0999 V2000
    3.2237   20.3873   36.4688 O   0  0  0  0  0  0  0  0  0  0  0  0
   -0.2282   21.3555   41.4617 C   0  0  0  0  0  0  0  0  0  0  0  0
    4.0859   20.3001   37.3078 C   0  0  2  0  0  0  0  0  0  0  0  0
    2.4531   18.5270   40.7662 C   0  0  2  0  0  0  0  0  0  0  0  0
    4.3894   19.0210   37.7109 C   0  0  0  0  0  0  0  0  0  0  0  0
    4.0515   18.6392   39.0518 C   0  0  2  0  0  0  0  0  0  0  0  0
    1.2390   17.7803   42.6876 C   0  0  0  0  0  0  0  0  0  0  0  0
    2.3947   20.4717   38.9743 C   0  0  0  0  0  0  0  0  0  0  0  0
   -1.4885   21.2113   43.5011 O   0  0  0  0  0  0  0  0  0  0  0  0
    0.7280   20.5565   40.6012 C   0  0  0  0  0  0  0  0  0  0  0  0
    2.9467   19.3899   39.6284 C   0  0  0  0  0  0  0  0  0  0  0  0
    1.5365   18.5808   41.6257 C   0  0  0  0  0  0  0  0  0  0  0  0
    3.1081   17.3431   40.7516 O   0  0  0  0  0  0  0  0  0  0  0  0
    2.7711   21.0408   37.6643 C   0  0  2  0  0  0  0  0  0  0  0  0
   -0.4275   20.6751   42.6815 C   0  0  0  0  0  0  0  0  0  0  0  0
    1.1940   20.9911   39.4854 N   0  0  0  0  0  0  0  0  0  0  0  0
    5.3100   18.9906   39.9481 C   0  0  0  0  0  0  0  0  0  0  0  0
   -0.1155   19.7528   42.9844 C   0  0  0  0  0  0  0  0  0  0  0  0
    0.2395   18.4929   43.4308 C   0  0  0  0  0  0  0  0  0  0  0  0
    0.9605   19.6566   41.2445 C   0  0  0  0  0  0  0  0  0  0  0  0
   -1.1900   21.4656   40.9395 H   0  0  0  0  0  0  0  0  0  0  0  0
    0.1930   22.3527   41.6572 H   0  0  0  0  0  0  0  0  0  0  0  0
    5.1362   20.5978   37.4429 H   0  0  0  0  0  0  0  0  0  0  0  0
    1.7368   18.1398   40.0266 H   0  0  0  0  0  0  0  0  0  0  0  0
    3.8655   18.3313   37.0327 H   0  0  0  0  0  0  0  0  0  0  0  0
    5.4881   18.9772   37.6815 H   0  0  0  0  0  0  0  0  0  0  0  0
    3.7655   17.5774   39.0230 H   0  0  0  0  0  0  0  0  0  0  0  0
    2.1329   17.6129   43.3064 H   0  0  0  0  0  0  0  0  0  0  0  0
    0.8834   16.7898   42.3674 H   0  0  0  0  0  0  0  0  0  0  0  0
   -1.6977   20.7951   44.3747 H   0  0  0  0  0  0  0  0  0  0  0  0
    3.1796   16.9941   41.6753 H   0  0  0  0  0  0  0  0  0  0  0  0
    2.1506   21.9412   37.7843 H   0  0  0  0  0  0  0  0  0  0  0  0
    1.3326   22.0056   39.5964 H   0  0  0  0  0  0  0  0  0  0  0  0
    0.4914   20.6806   38.7992 H   0  0  0  0  0  0  0  0  0  0  0  0
    4.9895   19.1320   40.9908 H   0  0  0  0  0  0  0  0  0  0  0  0
    6.0380   18.1676   39.8967 H   0  0  0  0  0  0  0  0  0  0  0  0
    5.7761   19.9160   39.5790 H   0  0  0  0  0  0  0  0  0  0  0  0
   -0.2277   18.0526   44.3240 H   0  0  0  0  0  0  0  0  0  0  0  0
  1  3  1  0
  2 15  1  0
  3  5  1  0
  3 14  1  0
  4 13  1  0
  4 12  1  0
  5  6  1  0
  6 17  1  0
  6 11  1  0
  7 19  1  0
  8 11  2  0
  8 16  1  0
 10 20  2  0
 10  2  1  0
 11  4  1  0
 12  7  1  0
 14  1  1  0
 14  8  1  0
 15 18  2  0
 15  9  1  0
 16 10  1  0
 18 19  2  0
 20 12  2  0
  2 21  1  0
  2 22  1  0
  3 23  1  6
  4 24  1  1
  5 25  1  0
  5 26  1  0
  6 27  1  6
  7 28  1  0
  7 29  1  0
  9 30  1  0
 13 31  1  0
 14 32  1  6
 16 33  1  0
 16 34  1  0
 17 35  1  0
 17 36  1  0
 17 37  1  0
 19 38  1  0
M  CHG  1  16   1
M  END
>  <mol_id>  (8) 
2026-09-18-3war-s0-n100-refligand-0008

>  <rmsd_to_ref>  (8) 


$$$$

     RDKit          3D

 39 40  0  0  0  0  0  0  0  0999 V2000
    2.2150   17.2760   40.4500 C   0  0  1  0  0  0  0  0  0  0  0  0
    1.0830   21.2240   40.2810 C   0  0  0  0  0  0  0  0  0  0  0  0
    1.7760   21.7700   37.7200 F   0  0  0  0  0  0  0  0  0  0  0  0
    1.0460   16.4970   42.4110 N   0  0  0  0  0  0  0  0  0  0  0  0
    2.1600   20.5830   38.1700 C   0  0  0  0  0  0  0  0  0  0  0  0
    1.8790   18.9580   39.8720 N   0  0  0  0  0  0  0  0  0  0  0  0
    1.8220   20.1120   39.4870 C   0  0  2  0  0  0  0  0  0  0  0  0
    2.2090   15.9110   40.2770 C   0  0  0  0  0  0  0  0  0  0  0  0
    2.9920   19.7570   37.3430 C   0  0  0  0  0  0  0  0  0  0  0  0
    3.1550   18.4920   37.8670 C   0  0  0  0  0  0  0  0  0  0  0  0
    3.4110   20.2150   36.1250 O   0  0  0  0  0  0  0  0  0  0  0  0
    1.6640   16.8180   41.1670 C   0  0  0  0  0  0  0  0  0  0  0  0
    2.6840   18.1490   39.1380 C   0  0  0  0  0  0  0  0  0  0  0  0
    0.6190   17.7150   43.0220 C   0  0  0  0  0  0  0  0  0  0  0  0
    1.4150   18.2260   41.0050 C   0  0  0  0  0  0  0  0  0  0  0  0
    0.8170   18.7280   42.2650 C   0  0  0  0  0  0  0  0  0  0  0  0
    3.7760   17.4150   37.1320 C   0  0  0  0  0  0  0  0  0  0  0  0
    1.2020   21.0450   41.3598 H   0  0  0  0  0  0  0  0  0  0  0  0
    1.5099   22.2043   40.0227 H   0  0  0  0  0  0  0  0  0  0  0  0
    0.0138   21.2101   40.0227 H   0  0  0  0  0  0  0  0  0  0  0  0
    1.7217   16.0176   43.0230 H   0  0  0  0  0  0  0  0  0  0  0  0
    0.2409   15.8729   42.2588 H   0  0  0  0  0  0  0  0  0  0  0  0
    2.7360   19.6617   39.9015 H   0  0  0  0  0  0  0  0  0  0  0  0
    2.2068   15.4169   41.2598 H   0  0  0  0  0  0  0  0  0  0  0  0
    1.3096   15.6164   39.7165 H   0  0  0  0  0  0  0  0  0  0  0  0
    3.1058   15.6085   39.7165 H   0  0  0  0  0  0  0  0  0  0  0  0
    3.2327   21.1522   35.8605 H   0  0  0  0  0  0  0  0  0  0  0  0
    0.7234   16.8459   40.5973 H   0  0  0  0  0  0  0  0  0  0  0  0
    2.6147   16.4964   41.6172 H   0  0  0  0  0  0  0  0  0  0  0  0
   -0.4559   17.6427   43.2441 H   0  0  0  0  0  0  0  0  0  0  0  0
    1.2072   17.8580   43.9404 H   0  0  0  0  0  0  0  0  0  0  0  0
    0.3388   17.9992   41.0259 H   0  0  0  0  0  0  0  0  0  0  0  0
    1.4723   18.5710   42.0479 H   0  0  0  0  0  0  0  0  0  0  0  0
    0.9914   19.6201   42.8844 H   0  0  0  0  0  0  0  0  0  0  0  0
    1.6964   18.5449   41.6300 H   0  0  0  0  0  0  0  0  0  0  0  0
   -0.0666   18.8895   41.6300 H   0  0  0  0  0  0  0  0  0  0  0  0
    4.1973   16.6843   37.8381 H   0  0  0  0  0  0  0  0  0  0  0  0
    3.0238   16.9215   36.4990 H   0  0  0  0  0  0  0  0  0  0  0  0
    4.5799   17.8188   36.4990 H   0  0  0  0  0  0  0  0  0  0  0  0
  1  8  1  6
  1 15  1  0
  1 12  1  0
  3  5  1  0
  4 14  1  0
  5  7  1  0
  6 15  1  0
  7  6  1  0
  7  2  1  0
  9 10  1  0
  9  5  2  0
 10 13  2  0
 11  9  1  0
 12  4  1  0
 13  6  1  0
 13  1  1  0
 16 14  1  0
 17 10  1  0
  2 18  1  0
  2 19  1  0
  2 20  1  0
  4 21  1  0
  4 22  1  0
  7 23  1  1
  8 24  1  0
  8 25  1  0
  8 26  1  0
 11 27  1  0
 12 28  1  0
 12 29  1  0
 14 30  1  0
 14 31  1  0
 15 32  1  0
 15 33  1  0
 16 34  1  0
 16 35  1  0
 16 36  1  0
 17 37  1  0
 17 38  1  0
 17 39  1  0
M  CHG  1   4   1
M  END
>  <mol_id>  (9) 
2026-09-18-3war-s0-n100-refligand-0009

>  <rmsd_to_ref>  (9) 


$$$$

     RDKit          3D

 20 20  0  0  0  0  0  0  0  0999 V2000
    0.8337   20.9177   41.8685 O   0  0  0  0  0  0  0  0  0  0  0  0
    2.6304   17.7577   39.9095 O   0  0  0  0  0  0  0  0  0  0  0  0
    3.0165   20.4391   35.6802 O   0  0  0  0  0  0  0  0  0  0  0  0
    2.9903   19.1645   39.4182 C   0  0  1  0  0  0  0  0  0  0  0  0
    2.9276   20.1909   37.0759 C   0  0  0  0  0  0  0  0  0  0  0  0
    1.5087   21.1503   39.7055 C   0  0  0  0  0  0  0  0  0  0  0  0
    4.3961   19.1825   39.7536 C   0  0  0  0  0  0  0  0  0  0  0  0
    1.9943   20.8640   37.5926 O   0  0  0  0  0  0  0  0  0  0  0  0
    1.6710   21.1741   40.7794 C   0  0  2  0  0  0  0  0  0  0  0  0
    3.4175   18.6448   37.5981 S   0  0  0  0  0  0  0  0  0  0  0  0
    1.8593   20.0078   39.8699 C   0  0  2  0  0  0  0  0  0  0  0  0
    1.2239   21.3170   42.6860 H   0  0  0  0  0  0  0  0  0  0  0  0
    2.5848   17.7552   40.8984 H   0  0  0  0  0  0  0  0  0  0  0  0
    0.4708   21.2937   39.3704 H   0  0  0  0  0  0  0  0  0  0  0  0
    1.9525   21.8508   38.9826 H   0  0  0  0  0  0  0  0  0  0  0  0
    4.5148   19.4079   40.8237 H   0  0  0  0  0  0  0  0  0  0  0  0
    4.8379   18.1992   39.5348 H   0  0  0  0  0  0  0  0  0  0  0  0
    4.9054   19.9541   39.1577 H   0  0  0  0  0  0  0  0  0  0  0  0
    2.1510   21.9358   41.4113 H   0  0  0  0  0  0  0  0  0  0  0  0
    1.5473   18.9640   39.7179 H   0  0  0  0  0  0  0  0  0  0  0  0
  3  5  2  0
  4  2  1  1
  4  7  1  0
  5 10  1  0
  5  8  1  0
  6  9  1  0
  9  1  1  0
 10  4  1  0
 11  4  1  0
 11  6  1  0
 11  9  1  0
  1 12  1  0
  2 13  1  0
  6 14  1  0
  6 15  1  0
  7 16  1  0
  7 17  1  0
  7 18  1  0
  9 19  1  1
 11 20  1  1
M  CHG  1   8  -1
M  END
>  <mol_id>  (10) 
2026-09-18-3war-s0-n100-refligand-0010

>  <rmsd_to_ref>  (10) 


$$$$

     RDKit          3D

 31 33  0  0  0  0  0  0  0  0999 V2000
    1.7380   21.1664   39.1983 C   0  0  0  0  0  0  0  0  0  0  0  0
    1.0654   21.0034   40.4566 C   0  0  0  0  0  0  0  0  0  0  0  0
    4.7935   15.9464   37.2385 S   0  0  0  0  0  0  0  0  0  0  0  0
    1.0206   17.4139   41.5470 N   0  0  0  0  0  0  0  0  0  0  0  0
    0.4960   16.4980   42.4268 C   0  0  0  0  0  0  0  0  0  0  0  0
    3.4446   18.0033   38.4540 N   0  0  0  0  0  0  0  0  0  0  0  0
    0.0126   19.2721   42.6586 C   0  0  0  0  0  0  0  0  0  0  0  0
    3.3221   19.4735   36.8792 C   0  0  0  0  0  0  0  0  0  0  0  0
    1.2653   19.6875   40.6968 C   0  0  1  0  0  0  0  0  0  0  0  0
   -0.3321   17.0330   43.4492 C   0  0  0  0  0  0  0  0  0  0  0  0
    2.1393   19.9139   38.9296 C   0  0  1  0  0  0  0  0  0  0  0  0
   -0.5109   18.3707   43.5344 C   0  0  0  0  0  0  0  0  0  0  0  0
    2.9536   19.1695   38.2105 C   0  0  0  0  0  0  0  0  0  0  0  0
    3.0284   20.4886   36.1759 O   0  0  0  0  0  0  0  0  0  0  0  0
    0.7873   18.7118   41.6528 C   0  0  0  0  0  0  0  0  0  0  0  0
    2.1555   19.1835   39.8295 N   0  0  0  0  0  0  0  0  0  0  0  0
    4.0704   17.6712   37.3675 C   0  0  0  0  0  0  0  0  0  0  0  0
    4.0910   18.5091   36.4342 N   0  0  0  0  0  0  0  0  0  0  0  0
    1.0517   21.5406   38.4243 H   0  0  0  0  0  0  0  0  0  0  0  0
    2.5592   21.8977   39.2269 H   0  0  0  0  0  0  0  0  0  0  0  0
    1.5192   21.6289   41.2395 H   0  0  0  0  0  0  0  0  0  0  0  0
    0.0070   21.3027   40.4432 H   0  0  0  0  0  0  0  0  0  0  0  0
    0.7038   15.4210   42.3446 H   0  0  0  0  0  0  0  0  0  0  0  0
   -0.1638   20.3547   42.7415 H   0  0  0  0  0  0  0  0  0  0  0  0
    2.0998   19.9369   41.3686 H   0  0  0  0  0  0  0  0  0  0  0  0
   -0.8255   16.3625   44.1682 H   0  0  0  0  0  0  0  0  0  0  0  0
    1.5325   20.3912   38.1460 H   0  0  0  0  0  0  0  0  0  0  0  0
   -1.1194   18.7559   44.3659 H   0  0  0  0  0  0  0  0  0  0  0  0
    1.8777   18.2370   39.5336 H   0  0  0  0  0  0  0  0  0  0  0  0
    3.0949   19.0975   40.2431 H   0  0  0  0  0  0  0  0  0  0  0  0
    4.5910   18.4531   35.5354 H   0  0  0  0  0  0  0  0  0  0  0  0
  1  2  1  0
  3 17  2  0
  4 15  1  0
  4  5  2  0
  5 10  1  0
  6 13  2  0
  7 12  1  0
  8 13  1  0
  9  2  1  0
  9 15  1  0
 10 12  2  0
 11 13  1  0
 11  1  1  0
 11 16  1  0
 14  8  2  0
 15  7  2  0
 16  9  1  0
 17  6  1  0
 18  8  1  0
 18 17  1  0
  1 19  1  0
  1 20  1  0
  2 21  1  0
  2 22  1  0
  5 23  1  0
  7 24  1  0
  9 25  1  1
 10 26  1  0
 11 27  1  6
 12 28  1  0
 16 29  1  0
 16 30  1  0
 18 31  1  0
M  CHG  1  16   1
M  END
>  <mol_id>  (11) 
2026-09-18-3war-s0-n100-refligand-0011

>  <rmsd_to_ref>  (11) 


$$$$

     RDKit          3D

 52 55  0  0  0  0  0  0  0  0999 V2000
    2.3077   16.3414   40.2803 C   0  0  2  0  0  0  0  0  0  0  0  0
    0.1858   21.0271   42.6465 C   0  0  0  0  0  0  0  0  0  0  0  0
    0.4928   21.8069   41.4833 C   0  0  0  0  0  0  0  0  0  0  0  0
    3.4202   17.5663   38.3508 C   0  0  0  0  0  0  0  0  0  0  0  0
    1.2616   19.8586   40.4289 C   0  0  2  0  0  0  0  0  0  0  0  0
    2.3312   20.5518   38.0789 C   0  0  0  0  0  0  0  0  0  0  0  0
    3.0301   17.3407   39.6408 C   0  0  0  0  0  0  0  0  0  0  0  0
    3.5156   18.1456   37.4240 C   0  0  0  0  0  0  0  0  0  0  0  0
    1.4972   21.2169   40.7136 C   0  0  0  0  0  0  0  0  0  0  0  0
    3.1952   20.2010   36.5286 C   0  0  0  0  0  0  0  0  0  0  0  0
    1.0550   19.0347   41.5289 C   0  0  0  0  0  0  0  0  0  0  0  0
    2.4021   20.4512   37.6080 C   0  0  1  0  0  0  0  0  0  0  0  0
   -0.4151   21.4731   43.5806 O   0  0  0  0  0  0  0  0  0  0  0  0
    2.8951   15.1020   39.7999 C   0  0  0  0  0  0  0  0  0  0  0  0
    3.6935   18.9360   36.3778 C   0  0  0  0  0  0  0  0  0  0  0  0
    2.1680   19.9859   37.8742 C   0  0  1  0  0  0  0  0  0  0  0  0
    0.4765   19.6702   42.5160 C   0  0  0  0  0  0  0  0  0  0  0  0
    3.5983   16.5777   37.7348 O   0  0  0  0  0  0  0  0  0  0  0  0
    3.2830   20.9617   35.5529 O   0  0  0  0  0  0  0  0  0  0  0  0
    1.6126   14.1779   41.3458 O   0  0  0  0  0  0  0  0  0  0  0  0
    0.7655   17.7263   43.1318 C   0  0  0  0  0  0  0  0  0  0  0  0
    1.0802   17.6867   41.7497 C   0  0  2  0  0  0  0  0  0  0  0  0
    2.4203   14.2993   40.5350 C   0  0  0  0  0  0  0  0  0  0  0  0
    2.1582   19.5232   39.2586 O   0  0  0  0  0  0  0  0  0  0  0  0
    0.2234   18.8031   43.5277 N   0  0  0  0  0  0  0  0  0  0  0  0
    1.2671   16.5761   40.9304 C   0  0  0  0  0  0  0  0  0  0  0  0
    1.9624   16.1358   41.3043 H   0  0  0  0  0  0  0  0  0  0  0  0
   -0.4152   21.9040   40.8700 H   0  0  0  0  0  0  0  0  0  0  0  0
    0.8518   22.7918   41.8170 H   0  0  0  0  0  0  0  0  0  0  0  0
    0.2529   19.6110   40.0665 H   0  0  0  0  0  0  0  0  0  0  0  0
    3.1973   20.6590   38.7485 H   0  0  0  0  0  0  0  0  0  0  0  0
    1.8034   21.3515   38.6191 H   0  0  0  0  0  0  0  0  0  0  0  0
    3.9836   17.3433   40.1893 H   0  0  0  0  0  0  0  0  0  0  0  0
    2.2015   18.0640   39.6211 H   0  0  0  0  0  0  0  0  0  0  0  0
    3.9975   17.3018   36.9085 H   0  0  0  0  0  0  0  0  0  0  0  0
    2.5556   18.6398   37.6340 H   0  0  0  0  0  0  0  0  0  0  0  0
    2.4482   21.2981   41.2606 H   0  0  0  0  0  0  0  0  0  0  0  0
    1.5227   21.7495   39.7515 H   0  0  0  0  0  0  0  0  0  0  0  0
    2.3624   21.3028   36.9130 H   0  0  0  0  0  0  0  0  0  0  0  0
    2.6110   14.9041   38.7558 H   0  0  0  0  0  0  0  0  0  0  0  0
    3.9951   15.1050   39.7994 H   0  0  0  0  0  0  0  0  0  0  0  0
    3.1994   18.4738   35.5106 H   0  0  0  0  0  0  0  0  0  0  0  0
    4.7807   19.0426   36.2489 H   0  0  0  0  0  0  0  0  0  0  0  0
    1.7534   19.1094   37.3546 H   0  0  0  0  0  0  0  0  0  0  0  0
    1.6978   17.5853   43.6982 H   0  0  0  0  0  0  0  0  0  0  0  0
    0.0265   16.9295   43.3017 H   0  0  0  0  0  0  0  0  0  0  0  0
   -0.0039   17.6370   41.5697 H   0  0  0  0  0  0  0  0  0  0  0  0
    2.9305   13.3355   40.3907 H   0  0  0  0  0  0  0  0  0  0  0  0
    0.6488   19.1285   44.4076 H   0  0  0  0  0  0  0  0  0  0  0  0
   -0.7817   18.6988   43.7272 H   0  0  0  0  0  0  0  0  0  0  0  0
    0.4576   16.6181   40.1868 H   0  0  0  0  0  0  0  0  0  0  0  0
    1.3129   15.7747   41.6825 H   0  0  0  0  0  0  0  0  0  0  0  0
  1 14  1  0
  1 26  1  0
  2 13  2  0
  3  2  1  0
  4  7  1  0
  5  9  1  0
  5 11  1  0
  7  1  1  0
  8  4  1  0
  9  3  1  0
 10 12  1  0
 11 22  1  0
 11 17  2  0
 12 16  1  0
 12  6  1  0
 14 23  1  0
 15 10  1  0
 15  8  1  0
 16  6  1  0
 16 24  1  0
 17  2  1  0
 17 25  1  0
 18  4  2  0
 19 10  2  0
 21 25  1  0
 22 26  1  0
 22 21  1  0
 23 20  2  0
 24  5  1  0
  1 27  1  1
  3 28  1  0
  3 29  1  0
  5 30  1  6
  6 31  1  0
  6 32  1  0
  7 33  1  0
  7 34  1  0
  8 35  1  0
  8 36  1  0
  9 37  1  0
  9 38  1  0
 12 39  1  6
 14 40  1  0
 14 41  1  0
 15 42  1  0
 15 43  1  0
 16 44  1  6
 21 45  1  0
 21 46  1  0
 22 47  1  1
 23 48  1  0
 25 49  1  0
 25 50  1  0
 26 51  1  0
 26 52  1  0
M  CHG  1  25   1
M  END
>  <mol_id>  (12) 
2026-09-18-3war-s0-n100-refligand-0012

>  <rmsd_to_ref>  (12) 


$$$$

     RDKit          3D

 23 24  0  0  0  0  0  0  0  0999 V2000
    3.5731   19.0342   37.3743 C   0  0  0  0  0  0  0  0  0  0  0  0
    2.3912   19.7769   39.6323 C   0  0  0  0  0  0  0  0  0  0  0  0
    2.8968   18.3665   39.4863 C   0  0  0  0  0  0  0  0  0  0  0  0
    3.6394   17.9101   38.2835 C   0  0  0  0  0  0  0  0  0  0  0  0
    1.9958   17.7935   41.6701 C   0  0  0  0  0  0  0  0  0  0  0  0
    2.6302   17.4045   40.4131 C   0  0  0  0  0  0  0  0  0  0  0  0
    1.8442   20.0810   40.9582 C   0  0  0  0  0  0  0  0  0  0  0  0
    2.2055   21.0213   38.9674 C   0  0  0  0  0  0  0  0  0  0  0  0
    1.6382   19.0777   41.9005 C   0  0  0  0  0  0  0  0  0  0  0  0
    2.5743   21.3377   37.6939 C   0  0  0  0  0  0  0  0  0  0  0  0
    3.1491   20.2351   37.1639 C   0  0  0  0  0  0  0  0  0  0  0  0
    4.1228   18.7354   36.4695 H   0  0  0  0  0  0  0  0  0  0  0  0
    3.1601   17.0236   37.8427 H   0  0  0  0  0  0  0  0  0  0  0  0
    4.6742   17.6170   38.5146 H   0  0  0  0  0  0  0  0  0  0  0  0
    1.8062   17.0314   42.4403 H   0  0  0  0  0  0  0  0  0  0  0  0
    2.8880   16.3530   40.2183 H   0  0  0  0  0  0  0  0  0  0  0  0
    1.5921   21.1210   41.2129 H   0  0  0  0  0  0  0  0  0  0  0  0
    1.1206   21.1999   38.9998 H   0  0  0  0  0  0  0  0  0  0  0  0
    2.9417   21.6254   39.5178 H   0  0  0  0  0  0  0  0  0  0  0  0
    1.1704   19.3367   42.8618 H   0  0  0  0  0  0  0  0  0  0  0  0
    1.6906   21.6235   37.1045 H   0  0  0  0  0  0  0  0  0  0  0  0
    3.2735   22.1868   37.6870 H   0  0  0  0  0  0  0  0  0  0  0  0
    3.3341   20.4543   36.1020 H   0  0  0  0  0  0  0  0  0  0  0  0
  1  4  1  0
  2  3  1  0
  2  7  2  0
  3  6  2  0
  4  3  1  0
  6  5  1  0
  7  9  1  0
  8  2  1  0
  9  5  2  0
 10  8  1  0
 11 10  1  0
 11  1  2  0
  1 12  1  0
  4 13  1  0
  4 14  1  0
  5 15  1  0
  6 16  1  0
  7 17  1  0
  8 18  1  0
  8 19  1  0
  9 20  1  0
 10 21  1  0
 10 22  1  0
 11 23  1  0
M  END
>  <mol_id>  (13) 
2026-09-18-3war-s0-n100-refligand-0013

>  <rmsd_to_ref>  (13) 


$$$$

     RDKit          3D

 33 34  0  0  0  0  0  0  0  0999 V2000
    3.7432   19.0503   36.9841 N   0  0  0  0  0  0  0  0  0  0  0  0
    3.4330   17.8189   38.9813 C   0  0  0  0  0  0  0  0  0  0  0  0
    2.2168   21.5520   36.7710 O   0  0  0  0  0  0  0  0  0  0  0  0
    2.7210   16.8105   40.9860 O   0  0  0  0  0  0  0  0  0  0  0  0
    1.7862   20.9996   39.0385 N   0  0  0  0  0  0  0  0  0  0  0  0
    1.5326   18.5028   43.1145 C   0  0  0  0  0  0  0  0  0  0  0  0
    2.3512   20.8532   37.8028 C   0  0  0  0  0  0  0  0  0  0  0  0
    1.0865   18.9625   41.7837 C   0  0  0  0  0  0  0  0  0  0  0  0
    1.2759   21.4743   41.5218 C   0  0  0  0  0  0  0  0  0  0  0  0
    3.9524   17.8688   37.6738 C   0  0  0  0  0  0  0  0  0  0  0  0
    2.7887   19.0061   39.0799 N   0  0  0  0  0  0  0  0  0  0  0  0
    2.1329   19.9446   39.7841 C   0  0  0  0  0  0  0  0  0  0  0  0
    4.7684   16.9308   37.2084 N   0  0  0  0  0  0  0  0  0  0  0  0
   -0.1905   21.2229   41.7638 C   0  0  0  0  0  0  0  0  0  0  0  0
    3.4969   16.6666   39.8491 C   0  0  0  0  0  0  0  0  0  0  0  0
    3.0443   19.6526   37.8954 C   0  0  0  0  0  0  0  0  0  0  0  0
    1.9001   20.1223   41.2442 C   0  0  0  0  0  0  0  0  0  0  0  0
    3.3057   16.8277   41.7846 H   0  0  0  0  0  0  0  0  0  0  0  0
    1.0846   19.1395   43.8916 H   0  0  0  0  0  0  0  0  0  0  0  0
    1.2164   17.4603   43.2674 H   0  0  0  0  0  0  0  0  0  0  0  0
    2.6291   18.5660   43.1758 H   0  0  0  0  0  0  0  0  0  0  0  0
    1.1676   18.1219   41.0790 H   0  0  0  0  0  0  0  0  0  0  0  0
    0.0501   19.3151   41.8922 H   0  0  0  0  0  0  0  0  0  0  0  0
    1.4102   22.1405   40.6568 H   0  0  0  0  0  0  0  0  0  0  0  0
    1.7461   21.9608   42.3892 H   0  0  0  0  0  0  0  0  0  0  0  0
    4.9079   16.0596   37.7399 H   0  0  0  0  0  0  0  0  0  0  0  0
    5.2619   17.0743   36.3158 H   0  0  0  0  0  0  0  0  0  0  0  0
   -0.3964   21.2654   42.8435 H   0  0  0  0  0  0  0  0  0  0  0  0
   -0.7844   21.9909   41.2468 H   0  0  0  0  0  0  0  0  0  0  0  0
   -0.4606   20.2289   41.3779 H   0  0  0  0  0  0  0  0  0  0  0  0
    3.1445   15.7862   39.2916 H   0  0  0  0  0  0  0  0  0  0  0  0
    4.5420   16.5518   40.1725 H   0  0  0  0  0  0  0  0  0  0  0  0
    2.8611   20.1124   41.7793 H   0  0  0  0  0  0  0  0  0  0  0  0
  1 10  1  0
  1 16  2  0
  2 11  1  0
  2 15  1  0
  3  7  2  0
  5 12  2  0
  7 16  1  0
  7  5  1  0
  8  6  1  0
  9 14  1  0
 10  2  2  0
 11 12  1  0
 12 17  1  0
 13 10  1  0
 15  4  1  0
 16 11  1  0
 17  9  1  0
 17  8  1  0
  4 18  1  0
  6 19  1  0
  6 20  1  0
  6 21  1  0
  8 22  1  0
  8 23  1  0
  9 24  1  0
  9 25  1  0
 13 26  1  0
 13 27  1  0
 14 28  1  0
 14 29  1  0
 14 30  1  0
 15 31  1  0
 15 32  1  0
 17 33  1  0
M  END
>  <mol_id>  (14) 
2026-09-18-3war-s0-n100-refligand-0014

>  <rmsd_to_ref>  (14) 


$$$$

     RDKit          3D

 41 44  0  0  0  0  0  0  0  0999 V2000
    0.1611   21.1891   42.8205 O   0  0  0  0  0  0  0  0  0  0  0  0
    4.1237   17.9987   37.6145 C   0  0  0  0  0  0  0  0  0  0  0  0
    0.5931   20.1435   42.2729 C   0  0  0  0  0  0  0  0  0  0  0  0
    0.0717   18.1198   45.1928 C   0  0  0  0  0  0  0  0  0  0  0  0
    2.9717   19.6994   38.9103 C   0  0  0  0  0  0  0  0  0  0  0  0
    3.8894   17.0124   38.5699 C   0  0  0  0  0  0  0  0  0  0  0  0
    2.4971   18.6327   39.8451 C   0  0  1  0  0  0  0  0  0  0  0  0
    1.3585   18.0924   41.9207 C   0  0  0  0  0  0  0  0  0  0  0  0
    3.6321   19.3829   37.7297 C   0  0  0  0  0  0  0  0  0  0  0  0
    3.0894   17.3114   39.7121 C   0  0  0  0  0  0  0  0  0  0  0  0
    2.6727   16.3310   40.6643 N   0  0  0  0  0  0  0  0  0  0  0  0
    1.7915   18.9332   40.9673 C   0  0  0  0  0  0  0  0  0  0  0  0
    4.3847   14.6300   37.7943 C   0  0  0  0  0  0  0  0  0  0  0  0
    4.3389   15.7501   38.6880 O   0  0  0  0  0  0  0  0  0  0  0  0
    2.3903   21.0315   39.1724 C   0  0  0  0  0  0  0  0  0  0  0  0
    3.6746   20.1957   36.6878 C   0  0  0  0  0  0  0  0  0  0  0  0
    1.3028   20.2420   41.1570 C   0  0  0  0  0  0  0  0  0  0  0  0
    1.7825   16.6282   41.8126 C   0  0  0  0  0  0  0  0  0  0  0  0
    1.5428   21.2599   40.2438 C   0  0  0  0  0  0  0  0  0  0  0  0
    1.2533   15.6733   42.9278 C   0  0  0  0  0  0  0  0  0  0  0  0
    0.3965   18.8929   42.7862 N   0  0  0  0  0  0  0  0  0  0  0  0
    3.6059   20.8635   35.7722 N   0  0  0  0  0  0  0  0  0  0  0  0
    0.6249   14.4381   42.3596 C   0  0  0  0  0  0  0  0  0  0  0  0
   -0.5891   18.6501   43.9058 C   0  0  0  0  0  0  0  0  0  0  0  0
    4.7091   17.7287   36.7232 H   0  0  0  0  0  0  0  0  0  0  0  0
   -0.4335   18.5519   46.0692 H   0  0  0  0  0  0  0  0  0  0  0  0
   -0.0136   17.0236   45.2239 H   0  0  0  0  0  0  0  0  0  0  0  0
    1.1339   18.4054   45.2040 H   0  0  0  0  0  0  0  0  0  0  0  0
    1.5313   18.5126   39.3326 H   0  0  0  0  0  0  0  0  0  0  0  0
    4.3955   13.6966   38.3764 H   0  0  0  0  0  0  0  0  0  0  0  0
    3.4991   14.6450   37.1419 H   0  0  0  0  0  0  0  0  0  0  0  0
    5.2945   14.6889   37.1788 H   0  0  0  0  0  0  0  0  0  0  0  0
    2.6372   21.8649   38.4983 H   0  0  0  0  0  0  0  0  0  0  0  0
    1.0630   22.2416   40.3704 H   0  0  0  0  0  0  0  0  0  0  0  0
    2.0951   15.3791   43.5719 H   0  0  0  0  0  0  0  0  0  0  0  0
    0.4837   16.2131   43.4991 H   0  0  0  0  0  0  0  0  0  0  0  0
    0.2590   13.8025   43.1794 H   0  0  0  0  0  0  0  0  0  0  0  0
   -0.2172   14.7204   41.7107 H   0  0  0  0  0  0  0  0  0  0  0  0
    1.3714   13.8843   41.7715 H   0  0  0  0  0  0  0  0  0  0  0  0
   -1.0949   19.5990   44.1380 H   0  0  0  0  0  0  0  0  0  0  0  0
   -1.2938   17.8799   43.5592 H   0  0  0  0  0  0  0  0  0  0  0  0
  2  9  2  0
  2  6  1  0
  3 21  1  0
  3  1  2  0
  5 15  2  0
  6 14  1  0
  6 10  2  0
  7  5  1  0
  7 12  1  0
  8 21  1  0
  9  5  1  0
 10  7  1  0
 10 11  1  0
 11 18  2  0
 12 17  1  0
 12  8  2  0
 13 14  1  0
 15 19  1  0
 16  9  1  0
 17  3  1  0
 18  8  1  0
 18 20  1  0
 19 17  2  0
 21 24  1  0
 22 16  3  0
 23 20  1  0
 24  4  1  0
  2 25  1  0
  4 26  1  0
  4 27  1  0
  4 28  1  0
  7 29  1  6
 13 30  1  0
 13 31  1  0
 13 32  1  0
 15 33  1  0
 19 34  1  0
 20 35  1  0
 20 36  1  0
 23 37  1  0
 23 38  1  0
 23 39  1  0
 24 40  1  0
 24 41  1  0
M  END
>  <mol_id>  (15) 
2026-09-18-3war-s0-n100-refligand-0015

>  <rmsd_to_ref>  (15) 


$$$$

     RDKit          3D

 47 49  0  0  0  0  0  0  0  0999 V2000
   -0.4689   19.0083   43.2774 C   0  0  0  0  0  0  0  0  0  0  0  0
    2.8609   20.8373   38.1195 C   0  0  0  0  0  0  0  0  0  0  0  0
   -1.2935   18.4255   45.5359 N   0  0  0  0  0  0  0  0  0  0  0  0
    0.1517   18.1262   42.5376 N   0  0  0  0  0  0  0  0  0  0  0  0
    3.5022   18.6926   37.4634 C   0  0  0  0  0  0  0  0  0  0  0  0
    3.0573   20.0363   37.1129 C   0  0  0  0  0  0  0  0  0  0  0  0
    2.9940   16.5892   38.7470 C   0  0  0  0  0  0  0  0  0  0  0  0
    2.4095   18.7938   39.6317 C   0  0  0  0  0  0  0  0  0  0  0  0
    2.9597   18.0139   38.6806 C   0  0  0  0  0  0  0  0  0  0  0  0
    2.7094   21.9744   36.0777 C   0  0  0  0  0  0  0  0  0  0  0  0
    0.7745   21.7078   40.9571 Cl  0  0  0  0  0  0  0  0  0  0  0  0
    0.4058   20.2264   41.7316 C   0  0  0  0  0  0  0  0  0  0  0  0
   -1.0528   21.4347   43.0957 O   0  0  0  0  0  0  0  0  0  0  0  0
    1.3043   15.8172   41.8139 C   0  0  0  0  0  0  0  0  0  0  0  0
    1.8816   18.2839   40.7167 C   0  0  0  0  0  0  0  0  0  0  0  0
   -0.9097   18.4865   44.5663 C   0  0  0  0  0  0  0  0  0  0  0  0
    3.2911   14.4308   37.7935 N   0  0  0  0  0  0  0  0  0  0  0  0
   -0.4657   20.2921   42.7609 C   0  0  0  0  0  0  0  0  0  0  0  0
    4.2675   17.7811   36.6256 N   0  0  0  0  0  0  0  0  0  0  0  0
    2.3949   20.3401   39.3366 C   0  0  0  0  0  0  0  0  0  0  0  0
    4.2354   16.3938   36.7665 C   0  0  0  0  0  0  0  0  0  0  0  0
    3.4120   15.7704   37.7062 C   0  0  2  0  0  0  0  0  0  0  0  0
    3.1557   21.3320   36.0329 O   0  0  0  0  0  0  0  0  0  0  0  0
    1.9262   16.7252   40.8687 C   0  0  0  0  0  0  0  0  0  0  0  0
    2.5439   16.0100   39.9204 C   0  0  0  0  0  0  0  0  0  0  0  0
    3.2562   22.0061   35.0041 C   0  0  0  0  0  0  0  0  0  0  0  0
    0.9210   18.8144   41.5368 C   0  0  0  0  0  0  0  0  0  0  0  0
    3.0636   21.9129   38.0099 H   0  0  0  0  0  0  0  0  0  0  0  0
    0.0981   17.1041   42.6533 H   0  0  0  0  0  0  0  0  0  0  0  0
    2.8988   20.3508   36.0708 H   0  0  0  0  0  0  0  0  0  0  0  0
    1.6181   21.8369   36.0899 H   0  0  0  0  0  0  0  0  0  0  0  0
    2.6833   22.7442   36.8630 H   0  0  0  0  0  0  0  0  0  0  0  0
   -1.6887   21.4609   43.8539 H   0  0  0  0  0  0  0  0  0  0  0  0
    1.4943   16.1682   42.8389 H   0  0  0  0  0  0  0  0  0  0  0  0
    0.2198   15.7851   41.6324 H   0  0  0  0  0  0  0  0  0  0  0  0
    1.7272   14.8096   41.6871 H   0  0  0  0  0  0  0  0  0  0  0  0
    3.2144   14.1567   38.7835 H   0  0  0  0  0  0  0  0  0  0  0  0
    2.4466   14.1285   37.2872 H   0  0  0  0  0  0  0  0  0  0  0  0
    4.1200   13.9833   37.3767 H   0  0  0  0  0  0  0  0  0  0  0  0
    2.0132   21.0359   40.0983 H   0  0  0  0  0  0  0  0  0  0  0  0
    4.8753   15.7748   36.1206 H   0  0  0  0  0  0  0  0  0  0  0  0
    2.5282   15.5827   37.0787 H   0  0  0  0  0  0  0  0  0  0  0  0
    3.3252   20.9838   36.9440 H   0  0  0  0  0  0  0  0  0  0  0  0
    2.6979   14.9324   40.0783 H   0  0  0  0  0  0  0  0  0  0  0  0
    4.3468   21.9990   35.1478 H   0  0  0  0  0  0  0  0  0  0  0  0
    2.9583   21.1265   34.4147 H   0  0  0  0  0  0  0  0  0  0  0  0
    2.9627   22.9219   34.4701 H   0  0  0  0  0  0  0  0  0  0  0  0
  1 16  1  0
  2 20  1  0
  4  1  1  0
  5  9  2  0
  6  5  1  0
  6  2  2  0
  7 25  2  0
  8 15  1  0
  9  7  1  0
  9  8  1  0
 11 12  1  0
 12 18  1  0
 15 24  2  0
 15 27  1  0
 16  3  3  0
 18 13  1  0
 18  1  2  0
 19 21  2  0
 19  5  1  0
 20  8  2  0
 21 22  1  0
 22 17  1  0
 22  7  1  0
 23 10  1  0
 24 14  1  0
 25 24  1  0
 26 10  1  0
 27 12  2  0
 27  4  1  0
  2 28  1  0
  4 29  1  0
  6 30  1  0
 10 31  1  0
 10 32  1  0
 13 33  1  0
 14 34  1  0
 14 35  1  0
 14 36  1  0
 17 37  1  0
 17 38  1  0
 17 39  1  0
 20 40  1  0
 21 41  1  0
 22 42  1  6
 23 43  1  0
 25 44  1  0
 26 45  1  0
 26 46  1  0
 26 47  1  0
M  CHG  1  17   1
M  END
>  <mol_id>  (16) 
2026-09-18-3war-s0-n100-refligand-0016

>  <rmsd_to_ref>  (16) 


$$$$

     RDKit          3D

 16 15  0  0  0  0  0  0  0  0999 V2000
    2.6343   19.1016   38.9998 C   0  0  0  0  0  0  0  0  0  0  0  0
    3.6208   21.1869   36.0392 O   0  0  0  0  0  0  0  0  0  0  0  0
    2.5395   20.1650   38.0224 C   0  0  0  0  0  0  0  0  0  0  0  0
    1.9645   20.9003   40.2751 O   0  0  0  0  0  0  0  0  0  0  0  0
    3.0584   20.1515   36.8172 C   0  0  0  0  0  0  0  0  0  0  0  0
    2.6194   19.5121   40.4603 C   0  0  0  0  0  0  0  0  0  0  0  0
    3.5754   18.5626   38.8152 H   0  0  0  0  0  0  0  0  0  0  0  0
    1.7240   18.5001   38.8603 H   0  0  0  0  0  0  0  0  0  0  0  0
    4.3125   21.6582   36.5678 H   0  0  0  0  0  0  0  0  0  0  0  0
    1.4614   20.3226   37.8709 H   0  0  0  0  0  0  0  0  0  0  0  0
    3.1875   20.9160   38.4979 H   0  0  0  0  0  0  0  0  0  0  0  0
    1.7153   21.2683   41.1597 H   0  0  0  0  0  0  0  0  0  0  0  0
    2.2478   19.7584   36.1859 H   0  0  0  0  0  0  0  0  0  0  0  0
    4.0030   19.6545   37.0829 H   0  0  0  0  0  0  0  0  0  0  0  0
    2.0062   18.8392   41.0778 H   0  0  0  0  0  0  0  0  0  0  0  0
    3.5885   19.4965   40.9804 H   0  0  0  0  0  0  0  0  0  0  0  0
  1  6  1  0
  2  5  1  0
  3  1  1  0
  4  6  1  0
  5  3  1  0
  1  7  1  0
  1  8  1  0
  2  9  1  0
  3 10  1  0
  3 11  1  0
  4 12  1  0
  5 13  1  0
  5 14  1  0
  6 15  1  0
  6 16  1  0
M  END
>  <mol_id>  (17) 
2026-09-18-3war-s0-n100-refligand-0017

>  <rmsd_to_ref>  (17) 


$$$$

     RDKit          3D

 25 27  0  0  0  0  0  0  0  0999 V2000
    0.6000   20.3480   41.6880 C   0  0  0  0  0  0  0  0  0  0  0  0
    1.9510   18.5060   40.1370 C   0  0  0  0  0  0  0  0  0  0  0  0
    2.3560   20.4600   38.0600 C   0  0  0  0  0  0  0  0  0  0  0  0
   -0.1340   18.5820   43.2340 C   0  0  0  0  0  0  0  0  0  0  0  0
    0.6080   17.8000   42.4310 C   0  0  0  0  0  0  0  0  0  0  0  0
    2.7510   19.0340   37.8420 C   0  0  0  0  0  0  0  0  0  0  0  0
    1.8800   16.6380   41.1320 O   0  0  0  0  0  0  0  0  0  0  0  0
    3.0880   16.9230   38.4230 N   0  0  0  0  0  0  0  0  0  0  0  0
    2.5940   18.1000   38.9460 C   0  0  0  0  0  0  0  0  0  0  0  0
    1.4600   17.8620   41.2560 C   0  0  0  0  0  0  0  0  0  0  0  0
    0.0170   19.8550   42.8430 N   0  0  0  0  0  0  0  0  0  0  0  0
    2.5150   21.2120   36.9200 O   0  0  0  0  0  0  0  0  0  0  0  0
    3.3150   18.3800   36.7920 N   0  0  0  0  0  0  0  0  0  0  0  0
    1.7510   20.8870   39.2830 C   0  0  0  0  0  0  0  0  0  0  0  0
    3.5160   17.1060   37.1920 C   0  0  0  0  0  0  0  0  0  0  0  0
    1.4790   19.8830   40.4630 C   0  0  1  0  0  0  0  0  0  0  0  0
    0.3758   21.4207   41.5927 H   0  0  0  0  0  0  0  0  0  0  0  0
   -1.1928   18.2934   43.1584 H   0  0  0  0  0  0  0  0  0  0  0  0
    0.1908   18.4667   44.2786 H   0  0  0  0  0  0  0  0  0  0  0  0
    0.5505   16.7595   42.7833 H   0  0  0  0  0  0  0  0  0  0  0  0
    1.6549   15.9651   41.8224 H   0  0  0  0  0  0  0  0  0  0  0  0
    2.9502   20.8172   36.1233 H   0  0  0  0  0  0  0  0  0  0  0  0
    1.4688   21.9435   39.4017 H   0  0  0  0  0  0  0  0  0  0  0  0
    3.9769   16.3240   36.5706 H   0  0  0  0  0  0  0  0  0  0  0  0
    1.8442   19.8298   41.4992 H   0  0  0  0  0  0  0  0  0  0  0  0
  1 11  2  0
  2 16  1  0
  2 10  1  0
  3 14  2  0
  5  4  1  0
  6  3  1  0
  6  9  1  0
  7 10  1  0
  8  9  1  0
  9  2  2  0
 10  5  2  0
 11  4  1  0
 12  3  1  0
 13 15  1  0
 13  6  2  0
 15  8  2  0
 16 14  1  0
 16  1  1  0
  1 17  1  0
  4 18  1  0
  4 19  1  0
  5 20  1  0
  7 21  1  0
 12 22  1  0
 14 23  1  0
 15 24  1  0
 16 25  1  1
M  END
>  <mol_id>  (18) 
2026-09-18-3war-s0-n100-refligand-0018

>  <rmsd_to_ref>  (18) 


$$$$

     RDKit          3D

 42 45  0  0  0  0  0  0  0  0999 V2000
    1.3233   18.8885   41.4241 C   0  0  2  0  0  0  0  0  0  0  0  0
    0.7441   20.0632   41.8444 C   0  0  0  0  0  0  0  0  0  0  0  0
    0.1413   18.2992   42.8745 C   0  0  0  0  0  0  0  0  0  0  0  0
    2.8679   20.1246   36.7586 C   0  0  0  0  0  0  0  0  0  0  0  0
    3.5048   18.5265   38.2311 C   0  0  0  0  0  0  0  0  0  0  0  0
    2.9048   16.0248   39.6608 C   0  0  0  0  0  0  0  0  0  0  0  0
   -0.8664   18.7240   45.0763 C   0  0  0  0  0  0  0  0  0  0  0  0
    0.9517   17.8156   41.9797 N   0  0  0  0  0  0  0  0  0  0  0  0
    2.0243   20.2407   39.0285 C   0  0  0  0  0  0  0  0  0  0  0  0
    3.5225   19.0733   37.0739 N   0  0  0  0  0  0  0  0  0  0  0  0
    2.1485   20.8186   37.7281 C   0  0  0  0  0  0  0  0  0  0  0  0
    2.4210   17.0660   40.4710 C   0  0  1  0  0  0  0  0  0  0  0  0
    1.6429   15.2652   41.2198 C   0  0  0  0  0  0  0  0  0  0  0  0
    2.6837   19.0589   39.2882 C   0  0  0  0  0  0  0  0  0  0  0  0
   -0.2609   19.5431   42.8418 C   0  0  0  0  0  0  0  0  0  0  0  0
   -0.8577   19.7515   44.1518 C   0  0  0  0  0  0  0  0  0  0  0  0
    2.3645   18.4450   40.5809 N   0  0  0  0  0  0  0  0  0  0  0  0
    2.3979   14.8729   40.2063 N   0  0  0  0  0  0  0  0  0  0  0  0
    2.9719   20.6779   35.5544 O   0  0  0  0  0  0  0  0  0  0  0  0
   -0.3992   18.6477   44.9917 C   0  0  0  0  0  0  0  0  0  0  0  0
    1.0125   14.2786   42.1376 C   0  0  0  0  0  0  0  0  0  0  0  0
    1.5531   16.8310   41.4427 C   0  0  0  0  0  0  0  0  0  0  0  0
    0.5340   18.7700   40.6673 H   0  0  0  0  0  0  0  0  0  0  0  0
    1.4791   20.7292   42.3202 H   0  0  0  0  0  0  0  0  0  0  0  0
    0.3108   20.6713   41.0367 H   0  0  0  0  0  0  0  0  0  0  0  0
   -0.2161   17.6431   43.6819 H   0  0  0  0  0  0  0  0  0  0  0  0
    4.1249   17.6380   38.4210 H   0  0  0  0  0  0  0  0  0  0  0  0
    3.5529   16.1146   38.7765 H   0  0  0  0  0  0  0  0  0  0  0  0
   -1.0915   19.0448   46.1041 H   0  0  0  0  0  0  0  0  0  0  0  0
   -1.5921   17.9016   44.9920 H   0  0  0  0  0  0  0  0  0  0  0  0
    1.4162   20.7280   39.8049 H   0  0  0  0  0  0  0  0  0  0  0  0
    2.6332   21.7981   37.8529 H   0  0  0  0  0  0  0  0  0  0  0  0
    1.1191   20.8334   37.3405 H   0  0  0  0  0  0  0  0  0  0  0  0
    3.3187   16.8681   39.8670 H   0  0  0  0  0  0  0  0  0  0  0  0
   -0.3209   20.5921   44.6157 H   0  0  0  0  0  0  0  0  0  0  0  0
   -1.9240   19.8978   43.9247 H   0  0  0  0  0  0  0  0  0  0  0  0
    0.1586   18.7037   45.9381 H   0  0  0  0  0  0  0  0  0  0  0  0
   -0.2654   17.6511   44.5457 H   0  0  0  0  0  0  0  0  0  0  0  0
   -0.0222   19.4135   44.2980 H   0  0  0  0  0  0  0  0  0  0  0  0
    1.0176   14.6765   43.1632 H   0  0  0  0  0  0  0  0  0  0  0  0
   -0.0247   14.0940   41.8212 H   0  0  0  0  0  0  0  0  0  0  0  0
    1.5784   13.3358   42.1073 H   0  0  0  0  0  0  0  0  0  0  0  0
  1  8  1  0
  1  2  1  0
  2 15  1  0
  3 15  2  0
  4 10  1  0
  4 11  1  0
  5 14  1  0
  6 18  2  0
  8  3  1  0
  9 14  2  0
 10  5  2  0
 11  9  1  0
 12  6  1  0
 12 17  1  0
 12 22  1  0
 13 22  2  0
 13 21  1  0
 14 17  1  0
 15 16  1  0
 16  7  1  0
 17  1  1  0
 18 13  1  0
 19  4  2  0
 20  7  1  0
 22  8  1  0
  1 23  1  6
  2 24  1  0
  2 25  1  0
  3 26  1  0
  5 27  1  0
  6 28  1  0
  7 29  1  0
  7 30  1  0
  9 31  1  0
 11 32  1  0
 11 33  1  0
 12 34  1  1
 16 35  1  0
 16 36  1  0
 20 37  1  0
 20 38  1  0
 20 39  1  0
 21 40  1  0
 21 41  1  0
 21 42  1  0
M  END
>  <mol_id>  (19) 
2026-09-18-3war-s0-n100-refligand-0019

>  <rmsd_to_ref>  (19) 


$$$$

     RDKit          3D

 40 42  0  0  0  0  0  0  0  0999 V2000
    2.3343   19.7283   38.8922 C   0  0  1  0  0  0  0  0  0  0  0  0
    1.7395   16.1732   41.3784 C   0  0  0  0  0  0  0  0  0  0  0  0
    0.5168   21.1090   44.0031 N   0  0  0  0  0  0  0  0  0  0  0  0
    1.7509   20.3497   40.2627 C   0  0  0  0  0  0  0  0  0  0  0  0
    0.4800   19.5855   43.9562 C   0  0  1  0  0  0  0  0  0  0  0  0
    0.7993   21.5459   42.6254 C   0  0  0  0  0  0  0  0  0  0  0  0
    1.5931   19.3783   43.0499 C   0  0  0  0  0  0  0  0  0  0  0  0
    0.5623   19.0019   45.3568 C   0  0  0  0  0  0  0  0  0  0  0  0
    1.9009   22.0780   38.4792 C   0  0  0  0  0  0  0  0  0  0  0  0
    1.9696   18.0127   40.1630 O   0  0  0  0  0  0  0  0  0  0  0  0
    1.4032   20.3512   41.8568 C   0  0  1  0  0  0  0  0  0  0  0  0
    1.6990   21.5201   39.6190 C   0  0  0  0  0  0  0  0  0  0  0  0
    2.9598   14.9608   39.0039 O   0  0  0  0  0  0  0  0  0  0  0  0
    2.3132   21.5094   37.4040 N   0  0  0  0  0  0  0  0  0  0  0  0
    2.8669   16.3303   38.9777 C   0  0  0  0  0  0  0  0  0  0  0  0
    2.4519   20.3208   37.5913 C   0  0  0  0  0  0  0  0  0  0  0  0
    2.8459   19.3788   36.5727 O   0  0  0  0  0  0  0  0  0  0  0  0
    2.7077   18.4477   38.9478 C   0  0  1  0  0  0  0  0  0  0  0  0
    2.2548   16.8805   40.2051 C   0  0  0  0  0  0  0  0  0  0  0  0
    3.1555   17.5059   38.2069 C   0  0  0  0  0  0  0  0  0  0  0  0
    1.3512   15.7303   42.3459 C   0  0  0  0  0  0  0  0  0  0  0  0
    1.3053   19.4180   38.6578 H   0  0  0  0  0  0  0  0  0  0  0  0
   -0.3908   21.4802   44.3181 H   0  0  0  0  0  0  0  0  0  0  0  0
    1.2299   21.4509   44.6629 H   0  0  0  0  0  0  0  0  0  0  0  0
   -0.4298   19.0774   43.6040 H   0  0  0  0  0  0  0  0  0  0  0  0
   -0.1325   21.8696   42.1386 H   0  0  0  0  0  0  0  0  0  0  0  0
    1.5038   22.3907   42.6307 H   0  0  0  0  0  0  0  0  0  0  0  0
    2.5418   19.5931   43.5636 H   0  0  0  0  0  0  0  0  0  0  0  0
    1.6228   18.3354   42.7014 H   0  0  0  0  0  0  0  0  0  0  0  0
    1.3062   19.5606   45.9437 H   0  0  0  0  0  0  0  0  0  0  0  0
   -0.4211   19.0777   45.8440 H   0  0  0  0  0  0  0  0  0  0  0  0
    0.8612   17.9450   45.2967 H   0  0  0  0  0  0  0  0  0  0  0  0
    1.6993   23.1576   38.4179 H   0  0  0  0  0  0  0  0  0  0  0  0
    2.4155   20.7211   42.0772 H   0  0  0  0  0  0  0  0  0  0  0  0
    1.3571   22.2901   40.3262 H   0  0  0  0  0  0  0  0  0  0  0  0
    3.3537   14.4766   38.2355 H   0  0  0  0  0  0  0  0  0  0  0  0
    3.6958   18.6093   38.4922 H   0  0  0  0  0  0  0  0  0  0  0  0
    2.6347   17.4822   37.2383 H   0  0  0  0  0  0  0  0  0  0  0  0
    4.2222   17.6147   37.9616 H   0  0  0  0  0  0  0  0  0  0  0  0
    0.9742   15.3002   43.2855 H   0  0  0  0  0  0  0  0  0  0  0  0
  1 16  1  0
  1 18  1  0
  1  4  1  0
  2 21  3  0
  3  5  1  0
  5  8  1  0
  6  3  1  0
  7  5  1  0
  9 12  1  0
 10 19  1  0
 11  4  1  0
 11  6  1  0
 11  7  1  0
 12  4  2  0
 14 16  1  0
 14  9  2  0
 15 13  1  0
 15 19  2  0
 17 16  2  0
 18 20  1  0
 18 10  1  0
 19  2  1  0
 20 15  1  0
  1 22  1  1
  3 23  1  0
  3 24  1  0
  5 25  1  6
  6 26  1  0
  6 27  1  0
  7 28  1  0
  7 29  1  0
  8 30  1  0
  8 31  1  0
  8 32  1  0
  9 33  1  0
 11 34  1  6
 12 35  1  0
 13 36  1  0
 18 37  1  1
 20 38  1  0
 20 39  1  0
 21 40  1  0
M  CHG  1   3   1
M  END
>  <mol_id>  (20) 
2026-09-18-3war-s0-n100-refligand-0020

>  <rmsd_to_ref>  (20) 


$$$$

     RDKit          3D

 22 24  0  0  0  0  0  0  0  0999 V2000
    1.1995   19.2702   41.6693 C   0  0  0  0  0  0  0  0  0  0  0  0
    0.6800   21.5065   40.3062 C   0  0  0  0  0  0  0  0  0  0  0  0
    3.7432   16.9781   38.3040 C   0  0  0  0  0  0  0  0  0  0  0  0
    3.1373   19.3215   37.4322 C   0  0  0  0  0  0  0  0  0  0  0  0
    1.6492   19.3517   40.3745 C   0  0  0  0  0  0  0  0  0  0  0  0
    2.9388   20.2546   36.5859 N   0  0  0  0  0  0  0  0  0  0  0  0
    0.5806   20.2648   42.2737 N   0  0  0  0  0  0  0  0  0  0  0  0
    3.1209   18.2267   38.5780 C   0  0  0  0  0  0  0  0  0  0  0  0
    2.3897   18.2810   39.7890 C   0  0  0  0  0  0  0  0  0  0  0  0
    2.7949   15.9516   40.2759 C   0  0  0  0  0  0  0  0  0  0  0  0
    3.4050   19.3067   36.5213 O   0  0  0  0  0  0  0  0  0  0  0  0
    2.2700   17.1614   40.6145 N   0  0  0  0  0  0  0  0  0  0  0  0
    0.3085   21.3628   41.6273 C   0  0  0  0  0  0  0  0  0  0  0  0
    3.5980   15.8164   39.1679 C   0  0  0  0  0  0  0  0  0  0  0  0
    1.2986   20.4296   39.5572 C   0  0  0  0  0  0  0  0  0  0  0  0
    1.3626   18.3354   42.2257 H   0  0  0  0  0  0  0  0  0  0  0  0
    0.5012   22.4692   39.8048 H   0  0  0  0  0  0  0  0  0  0  0  0
    4.3616   16.8863   37.3989 H   0  0  0  0  0  0  0  0  0  0  0  0
    2.5736   15.0709   40.8967 H   0  0  0  0  0  0  0  0  0  0  0  0
   -0.2207   22.1807   42.1381 H   0  0  0  0  0  0  0  0  0  0  0  0
    4.1096   14.8688   38.9438 H   0  0  0  0  0  0  0  0  0  0  0  0
    1.4717   20.4580   38.4713 H   0  0  0  0  0  0  0  0  0  0  0  0
  1  7  1  0
  2 13  1  0
  3  8  1  0
  3 14  2  0
  4  8  1  0
  5  1  2  0
  6  4  2  0
  8  9  2  0
  9  5  1  0
  9 12  1  0
 10 12  2  0
 11  6  1  0
 11  4  1  0
 13  7  2  0
 14 10  1  0
 15  5  1  0
 15  2  2  0
  1 16  1  0
  2 17  1  0
  3 18  1  0
 10 19  1  0
 13 20  1  0
 14 21  1  0
 15 22  1  0
M  END
>  <mol_id>  (21) 
2026-09-18-3war-s0-n100-refligand-0021

>  <rmsd_to_ref>  (21) 


$$$$

     RDKit          3D

 18 19  0  0  0  0  0  0  0  0999 V2000
    2.8153   18.9749   38.7942 C   0  0  0  0  0  0  0  0  0  0  0  0
    3.5610   17.5827   38.9501 S   0  0  0  0  0  0  0  0  0  0  0  0
    2.2498   18.3989   40.9858 N   0  0  0  0  0  0  0  0  0  0  0  0
    1.6761   21.4857   39.0826 C   0  0  0  0  0  0  0  0  0  0  0  0
    3.3371   19.4396   36.5700 O   0  0  0  0  0  0  0  0  0  0  0  0
    2.2333   19.3393   40.0304 C   0  0  0  0  0  0  0  0  0  0  0  0
    2.8142   19.8381   37.6791 C   0  0  0  0  0  0  0  0  0  0  0  0
    2.2151   21.0966   37.8220 C   0  0  0  0  0  0  0  0  0  0  0  0
    1.7375   20.5847   40.1458 C   0  0  0  0  0  0  0  0  0  0  0  0
    2.9763   17.3924   40.4891 C   0  0  0  0  0  0  0  0  0  0  0  0
    1.1504   20.8498   41.5932 C   0  0  0  0  0  0  0  0  0  0  0  0
    1.2203   22.4781   39.2148 H   0  0  0  0  0  0  0  0  0  0  0  0
    3.3413   20.0382   35.7815 H   0  0  0  0  0  0  0  0  0  0  0  0
    2.1609   21.7824   36.9636 H   0  0  0  0  0  0  0  0  0  0  0  0
    3.1762   16.4823   41.0736 H   0  0  0  0  0  0  0  0  0  0  0  0
    1.7805   20.3477   42.3421 H   0  0  0  0  0  0  0  0  0  0  0  0
    1.1373   21.9318   41.7911 H   0  0  0  0  0  0  0  0  0  0  0  0
    0.1257   20.4540   41.6514 H   0  0  0  0  0  0  0  0  0  0  0  0
  1  2  1  0
  1  6  1  0
  2 10  1  0
  4  9  1  0
  5  7  1  0
  6  3  1  0
  7  1  2  0
  8  7  1  0
  8  4  2  0
  9  6  2  0
  9 11  1  0
 10  3  2  0
  4 12  1  0
  5 13  1  0
  8 14  1  0
 10 15  1  0
 11 16  1  0
 11 17  1  0
 11 18  1  0
M  END
>  <mol_id>  (22) 
2026-09-18-3war-s0-n100-refligand-0022

>  <rmsd_to_ref>  (22) 


$$$$

     RDKit          3D

 18 19  0  0  0  0  0  0  0  0999 V2000
    2.5610   20.5650   37.4060 O   0  0  0  0  0  0  0  0  0  0  0  0
    2.9170   19.2740   37.5290 C   0  0  0  0  0  0  0  0  0  0  0  0
    3.5130   18.7030   36.5810 O   0  0  0  0  0  0  0  0  0  0  0  0
    2.9390   15.2260   38.4930 N   0  0  0  0  0  0  0  0  0  0  0  0
    2.5380   18.7800   38.7860 C   0  0  1  0  0  0  0  0  0  0  0  0
    2.2110   16.6520   40.0390 N   0  0  0  0  0  0  0  0  0  0  0  0
    2.9200   16.4800   38.0950 C   0  0  0  0  0  0  0  0  0  0  0  0
    2.0050   19.9050   39.4610 C   0  0  0  0  0  0  0  0  0  0  0  0
    2.4880   17.4230   38.9790 C   0  0  0  0  0  0  0  0  0  0  0  0
    1.9200   21.0330   38.4800 C   0  0  0  0  0  0  0  0  0  0  0  0
    1.5610   20.5620   40.6760 C   0  0  0  0  0  0  0  0  0  0  0  0
    1.0540   21.3550   41.5680 C   0  0  0  0  0  0  0  0  0  0  0  0
    2.6490   15.4390   39.5280 N   0  0  0  0  0  0  0  0  0  0  0  0
    2.9859   18.2864   39.6611 H   0  0  0  0  0  0  0  0  0  0  0  0
    3.2426   16.7584   37.0809 H   0  0  0  0  0  0  0  0  0  0  0  0
    1.4425   22.0150   38.6126 H   0  0  0  0  0  0  0  0  0  0  0  0
    0.6239   22.0277   42.3247 H   0  0  0  0  0  0  0  0  0  0  0  0
    2.7079   14.6544   40.1927 H   0  0  0  0  0  0  0  0  0  0  0  0
  1  2  1  0
  1 10  1  0
  2  5  1  0
  3  2  2  0
  4 13  1  0
  5  9  1  0
  5  8  1  0
  7  4  2  0
  7  9  1  0
  8 11  1  0
  9  6  2  0
 10  8  2  0
 11 12  3  0
 13  6  1  0
  5 14  1  1
  7 15  1  0
 10 16  1  0
 12 17  1  0
 13 18  1  0
M  END
>  <mol_id>  (23) 
2026-09-18-3war-s0-n100-refligand-0023

>  <rmsd_to_ref>  (23) 


$$$$

     RDKit          3D

 19 21  0  0  0  0  0  0  0  0999 V2000
    1.5817   19.0992   40.5280 C   0  0  0  0  0  0  0  0  0  0  0  0
    2.5676   19.4575   38.5336 N   0  0  0  0  0  0  0  0  0  0  0  0
    0.0149   20.6557   41.5050 C   0  0  0  0  0  0  0  0  0  0  0  0
    2.6610   17.8327   40.3000 S   0  0  0  0  0  0  0  0  0  0  0  0
    3.0128   20.2593   36.3806 O   0  0  0  0  0  0  0  0  0  0  0  0
    3.0367   18.0851   38.6865 C   0  0  1  0  0  0  0  0  0  0  0  0
    0.7026   19.4072   41.5587 C   0  0  0  0  0  0  0  0  0  0  0  0
    2.9950   19.4587   37.3344 C   0  0  0  0  0  0  0  0  0  0  0  0
    0.1980   21.5051   40.4207 C   0  0  0  0  0  0  0  0  0  0  0  0
    1.0925   21.1665   39.3711 C   0  0  0  0  0  0  0  0  0  0  0  0
    1.7326   19.9259   39.4855 C   0  0  0  0  0  0  0  0  0  0  0  0
    3.5580   18.1049   37.3605 C   0  0  0  0  0  0  0  0  0  0  0  0
   -0.6610   20.9464   42.3228 H   0  0  0  0  0  0  0  0  0  0  0  0
    3.9984   18.4566   39.0702 H   0  0  0  0  0  0  0  0  0  0  0  0
    0.5414   18.7081   42.3925 H   0  0  0  0  0  0  0  0  0  0  0  0
   -0.3579   22.4531   40.3746 H   0  0  0  0  0  0  0  0  0  0  0  0
    1.2721   21.8386   38.5189 H   0  0  0  0  0  0  0  0  0  0  0  0
    4.6535   18.0462   37.2817 H   0  0  0  0  0  0  0  0  0  0  0  0
    3.3368   17.3364   36.6053 H   0  0  0  0  0  0  0  0  0  0  0  0
  1  7  2  0
  2 11  1  0
  4  1  1  0
  5  8  2  0
  6 12  1  0
  6  2  1  0
  6  4  1  0
  7  3  1  0
  8  2  1  0
  9  3  2  0
 10  9  1  0
 11 10  2  0
 11  1  1  0
 12  8  1  0
  3 13  1  0
  6 14  1  6
  7 15  1  0
  9 16  1  0
 10 17  1  0
 12 18  1  0
 12 19  1  0
M  END
>  <mol_id>  (24) 
2026-09-18-3war-s0-n100-refligand-0024

>  <rmsd_to_ref>  (24) 


$$$$

     RDKit          3D

 30 31  0  0  0  0  0  0  0  0999 V2000
    0.6049   18.9089   42.8688 C   0  0  0  0  0  0  0  0  0  0  0  0
    4.2614   17.2277   36.9567 N   0  0  0  0  0  0  0  0  0  0  0  0
    2.6816   18.4168   38.5409 C   0  0  0  0  0  0  0  0  0  0  0  0
    1.9925   20.5910   37.5570 C   0  0  0  0  0  0  0  0  0  0  0  0
    1.3516   19.0152   41.7323 C   0  0  0  0  0  0  0  0  0  0  0  0
   -0.3450   20.9772   42.5349 C   0  0  0  0  0  0  0  0  0  0  0  0
    1.9249   19.7230   38.5599 C   0  0  0  0  0  0  0  0  0  0  0  0
    3.2184   19.1300   36.5257 N   0  0  0  0  0  0  0  0  0  0  0  0
    2.7093   20.2692   36.5490 N   0  0  0  0  0  0  0  0  0  0  0  0
    0.3354   21.1483   41.3760 C   0  0  0  0  0  0  0  0  0  0  0  0
    1.0695   20.0591   40.8812 C   0  0  0  0  0  0  0  0  0  0  0  0
   -0.2407   19.8823   43.3037 C   0  0  0  0  0  0  0  0  0  0  0  0
    1.3633   20.1500   39.6851 O   0  0  0  0  0  0  0  0  0  0  0  0
    4.0838   16.2875   37.9437 C   0  0  0  0  0  0  0  0  0  0  0  0
    2.4064   17.9929   41.4851 C   0  0  0  0  0  0  0  0  0  0  0  0
    0.2464   22.2679   40.6275 O   0  0  0  0  0  0  0  0  0  0  0  0
    3.1934   18.0675   37.3585 C   0  0  0  0  0  0  0  0  0  0  0  0
    0.6907   17.9884   43.4648 H   0  0  0  0  0  0  0  0  0  0  0  0
    4.9409   17.2978   36.1859 H   0  0  0  0  0  0  0  0  0  0  0  0
    2.8030   17.7951   39.4402 H   0  0  0  0  0  0  0  0  0  0  0  0
    1.4531   21.5491   37.5925 H   0  0  0  0  0  0  0  0  0  0  0  0
   -1.0206   21.7804   42.8640 H   0  0  0  0  0  0  0  0  0  0  0  0
   -0.8103   19.7770   44.2388 H   0  0  0  0  0  0  0  0  0  0  0  0
    4.2182   16.7595   38.9281 H   0  0  0  0  0  0  0  0  0  0  0  0
    3.0690   15.8690   37.8731 H   0  0  0  0  0  0  0  0  0  0  0  0
    4.8222   15.4816   37.8195 H   0  0  0  0  0  0  0  0  0  0  0  0
    2.8832   17.7202   42.4382 H   0  0  0  0  0  0  0  0  0  0  0  0
    1.9518   17.0988   41.0335 H   0  0  0  0  0  0  0  0  0  0  0  0
    3.1631   18.4048   40.8011 H   0  0  0  0  0  0  0  0  0  0  0  0
    0.7646   22.3442   39.7875 H   0  0  0  0  0  0  0  0  0  0  0  0
  1 12  1  0
  2 17  1  0
  2 14  1  0
  3  7  1  0
  4  7  2  0
  5  1  2  0
  6 12  2  0
  7 13  1  0
  8  9  2  0
  8 17  1  0
  9  4  1  0
 10  6  1  0
 11 10  2  0
 11  5  1  0
 13 11  1  0
 15  5  1  0
 16 10  1  0
 17  3  2  0
  1 18  1  0
  2 19  1  0
  3 20  1  0
  4 21  1  0
  6 22  1  0
 12 23  1  0
 14 24  1  0
 14 25  1  0
 14 26  1  0
 15 27  1  0
 15 28  1  0
 15 29  1  0
 16 30  1  0
M  END
>  <mol_id>  (25) 
2026-09-18-3war-s0-n100-refligand-0025

>  <rmsd_to_ref>  (25) 


$$$$

     RDKit          3D

 30 32  0  0  0  0  0  0  0  0999 V2000
    3.0335   17.3622   41.1816 N   0  0  0  0  0  0  0  0  0  0  0  0
    1.0132   19.6632   43.7517 C   0  0  0  0  0  0  0  0  0  0  0  0
    3.1306   18.0056   40.1549 C   0  0  0  0  0  0  0  0  0  0  0  0
    1.9590   21.2133   38.8911 C   0  0  0  0  0  0  0  0  0  0  0  0
    2.7530   19.3591   40.4125 C   0  0  1  0  0  0  0  0  0  0  0  0
    2.6085   20.0014   39.0055 C   0  0  0  0  0  0  0  0  0  0  0  0
    0.5212   21.6542   42.4304 C   0  0  0  0  0  0  0  0  0  0  0  0
    1.9301   21.8029   37.6260 C   0  0  0  0  0  0  0  0  0  0  0  0
    1.9067   19.8784   41.4952 C   0  0  0  0  0  0  0  0  0  0  0  0
    3.8437   18.2470   37.8498 N   0  0  0  0  0  0  0  0  0  0  0  0
    3.2392   19.3687   37.8229 C   0  0  0  0  0  0  0  0  0  0  0  0
    0.3972   20.8886   43.6214 C   0  0  0  0  0  0  0  0  0  0  0  0
    3.1605   20.0879   36.6366 N   0  0  0  0  0  0  0  0  0  0  0  0
    3.7576   17.5715   38.9528 C   0  0  0  0  0  0  0  0  0  0  0  0
    1.3017   21.1231   41.4028 C   0  0  0  0  0  0  0  0  0  0  0  0
    2.5144   21.2172   36.4900 C   0  0  0  0  0  0  0  0  0  0  0  0
    1.7458   19.1270   42.6659 C   0  0  0  0  0  0  0  0  0  0  0  0
    3.2667   16.3589   41.1847 H   0  0  0  0  0  0  0  0  0  0  0  0
    0.9361   19.1039   44.6957 H   0  0  0  0  0  0  0  0  0  0  0  0
    1.4845   21.6942   39.7592 H   0  0  0  0  0  0  0  0  0  0  0  0
    3.5424   19.7110   41.0930 H   0  0  0  0  0  0  0  0  0  0  0  0
    0.0211   22.6281   42.3227 H   0  0  0  0  0  0  0  0  0  0  0  0
    0.8665   21.9407   37.3814 H   0  0  0  0  0  0  0  0  0  0  0  0
    2.5797   22.6774   37.7785 H   0  0  0  0  0  0  0  0  0  0  0  0
   -0.2022   21.2823   44.4555 H   0  0  0  0  0  0  0  0  0  0  0  0
    3.2422   16.6388   38.6797 H   0  0  0  0  0  0  0  0  0  0  0  0
    4.8101   17.5987   39.2710 H   0  0  0  0  0  0  0  0  0  0  0  0
    1.4423   21.7135   40.4855 H   0  0  0  0  0  0  0  0  0  0  0  0
    2.4312   21.6955   35.5029 H   0  0  0  0  0  0  0  0  0  0  0  0
    2.1876   18.1224   42.7414 H   0  0  0  0  0  0  0  0  0  0  0  0
  3  5  1  0
  3  1  2  3
  4  6  2  0
  5  9  1  0
  6  5  1  0
  7 12  1  0
  8  4  1  0
  9 17  2  0
 10 11  2  0
 10 14  1  0
 11  6  1  0
 12  2  2  0
 13 11  1  0
 14  3  1  0
 15  9  1  0
 15  7  2  0
 16 13  2  0
 16  8  1  0
 17  2  1  0
  1 18  1  0
  2 19  1  0
  4 20  1  0
  5 21  1  1
  7 22  1  0
  8 23  1  0
  8 24  1  0
 12 25  1  0
 14 26  1  0
 14 27  1  0
 15 28  1  0
 16 29  1  0
 17 30  1  0
M  END
>  <mol_id>  (26) 
2026-09-18-3war-s0-n100-refligand-0026

>  <rmsd_to_ref>  (26) 


$$$$

     RDKit          3D

 35 36  0  0  0  0  0  0  0  0999 V2000
    2.3440   19.4500   38.7380 C   0  0  0  0  0  0  0  0  0  0  0  0
    3.3720   21.5000   35.2190 C   0  0  0  0  0  0  0  0  0  0  0  0
    1.5860   16.2730   40.1130 N   0  0  0  0  0  0  0  0  0  0  0  0
    1.6260   15.1010   42.0080 C   0  0  0  0  0  0  0  0  0  0  0  0
    1.2510   18.7460   40.9770 C   0  0  0  0  0  0  0  0  0  0  0  0
    3.5020   19.5600   36.6720 N   0  0  0  0  0  0  0  0  0  0  0  0
    1.3200   20.2160   41.5570 C   0  0  0  0  0  0  0  0  0  0  0  0
    2.0530   18.5560   39.7150 C   0  0  1  0  0  0  0  0  0  0  0  0
    2.1510   17.3560   39.4980 C   0  0  2  0  0  0  0  0  0  0  0  0
    2.2130   21.3190   37.7170 S   0  0  0  0  0  0  0  0  0  0  0  0
    2.3180   15.2960   40.7770 C   0  0  0  0  0  0  0  0  0  0  0  0
    0.8050   21.4200   40.8600 C   0  0  0  0  0  0  0  0  0  0  0  0
    3.1440   17.3800   38.1490 S   0  0  0  0  0  0  0  0  0  0  0  0
    3.0690   20.9140   36.4210 C   0  0  0  0  0  0  0  0  0  0  0  0
    0.5200   14.2130   41.6110 O   0  0  0  0  0  0  0  0  0  0  0  0
    3.0600   18.9300   37.7480 C   0  0  0  0  0  0  0  0  0  0  0  0
    3.8706   22.4643   35.3965 H   0  0  0  0  0  0  0  0  0  0  0  0
    4.0420   20.8404   34.6481 H   0  0  0  0  0  0  0  0  0  0  0  0
    2.4464   21.6654   34.6481 H   0  0  0  0  0  0  0  0  0  0  0  0
    1.0571   15.7784   39.3805 H   0  0  0  0  0  0  0  0  0  0  0  0
    1.0955   16.7233   40.8988 H   0  0  0  0  0  0  0  0  0  0  0  0
    2.2731   14.6206   42.7567 H   0  0  0  0  0  0  0  0  0  0  0  0
    1.2911   16.0377   42.4774 H   0  0  0  0  0  0  0  0  0  0  0  0
    1.6345   18.0529   41.7402 H   0  0  0  0  0  0  0  0  0  0  0  0
    0.1990   18.5489   40.7229 H   0  0  0  0  0  0  0  0  0  0  0  0
    0.7862   20.1799   42.5181 H   0  0  0  0  0  0  0  0  0  0  0  0
    2.4032   20.4021   41.5110 H   0  0  0  0  0  0  0  0  0  0  0  0
    2.8860   19.2421   39.9279 H   0  0  0  0  0  0  0  0  0  0  0  0
    3.0064   17.3012   40.1874 H   0  0  0  0  0  0  0  0  0  0  0  0
    2.3410   14.3642   40.1929 H   0  0  0  0  0  0  0  0  0  0  0  0
    3.3660   15.5929   40.9306 H   0  0  0  0  0  0  0  0  0  0  0  0
    0.4861   22.1656   41.6032 H   0  0  0  0  0  0  0  0  0  0  0  0
    1.5993   21.8468   40.2300 H   0  0  0  0  0  0  0  0  0  0  0  0
   -0.0523   21.1404   40.2300 H   0  0  0  0  0  0  0  0  0  0  0  0
    0.0760   13.8565   42.4209 H   0  0  0  0  0  0  0  0  0  0  0  0
  1  8  1  0
  2 14  1  0
  3 11  1  0
  5  7  1  0
  6 16  1  0
  8  5  1  0
  9  8  1  0
  9  3  1  0
 10  1  1  0
 11  4  1  0
 12  7  1  0
 13  9  1  0
 14  6  2  0
 14 10  1  0
 15  4  1  0
 16 13  1  0
 16  1  2  0
  2 17  1  0
  2 18  1  0
  2 19  1  0
  3 20  1  0
  3 21  1  0
  4 22  1  0
  4 23  1  0
  5 24  1  0
  5 25  1  0
  7 26  1  0
  7 27  1  0
  8 28  1  1
  9 29  1  1
 11 30  1  0
 11 31  1  0
 12 32  1  0
 12 33  1  0
 12 34  1  0
 15 35  1  0
M  CHG  1   3   1
M  END
>  <mol_id>  (27) 
2026-09-18-3war-s0-n100-refligand-0027

>  <rmsd_to_ref>  (27) 


$$$$

     RDKit          3D

 55 59  0  0  0  0  0  0  0  0999 V2000
   -1.3090   20.2190   44.5810 N   0  0  0  0  0  0  0  0  0  0  0  0
    3.6060   19.6280   35.1150 S   0  0  0  0  0  0  0  0  0  0  0  0
   -0.1090   19.6080   42.8170 C   0  0  0  0  0  0  0  0  0  0  0  0
    1.5570   20.9430   39.9950 C   0  0  0  0  0  0  0  0  0  0  0  0
    2.8510   17.1530   38.0760 O   0  0  0  0  0  0  0  0  0  0  0  0
    3.2000   21.0910   35.8510 C   0  0  0  0  0  0  0  0  0  0  0  0
    2.2990   19.9150   39.6730 C   0  0  0  0  0  0  0  0  0  0  0  0
    0.8250   20.8470   41.0660 C   0  0  0  0  0  0  0  0  0  0  0  0
    1.7290   18.6100   41.4040 C   0  0  0  0  0  0  0  0  0  0  0  0
   -1.5330   17.4590   47.0080 C   0  0  0  0  0  0  0  0  0  0  0  0
   -0.3300   18.5390   43.6540 C   0  0  1  0  0  0  0  0  0  0  0  0
   -1.0400   18.9870   44.8650 C   0  0  0  0  0  0  0  0  0  0  0  0
    2.6000   20.2170   38.0130 C   0  0  2  0  0  0  0  0  0  0  0  0
   -0.2700   17.0910   43.6240 C   0  0  0  0  0  0  0  0  0  0  0  0
    3.2930   17.7370   36.9500 N   0  0  0  0  0  0  0  0  0  0  0  0
    3.3300   20.0470   36.8240 C   0  0  2  0  0  0  0  0  0  0  0  0
    2.4720   18.8350   40.3680 C   0  0  0  0  0  0  0  0  0  0  0  0
    4.0370   19.7180   37.9560 O   0  0  0  0  0  0  0  0  0  0  0  0
    3.8570   15.5100   37.2880 C   0  0  0  0  0  0  0  0  0  0  0  0
    3.9990   16.6810   36.5010 C   0  0  0  0  0  0  0  0  0  0  0  0
   -1.2810   17.3580   48.4310 C   0  0  0  0  0  0  0  0  0  0  0  0
    2.1700   20.6640   36.7690 C   0  0  1  0  0  0  0  0  0  0  0  0
    3.5200   18.9810   36.1710 C   0  0  0  0  0  0  0  0  0  0  0  0
    1.7760   21.5610   36.0030 S   0  0  0  0  0  0  0  0  0  0  0  0
   -0.7410   18.4750   46.2640 N   0  0  0  0  0  0  0  0  0  0  0  0
    3.0460   15.8060   38.2290 C   0  0  0  0  0  0  0  0  0  0  0  0
    4.6800   21.3780   35.7580 F   0  0  0  0  0  0  0  0  0  0  0  0
    0.8610   19.6410   41.7170 C   0  0  0  0  0  0  0  0  0  0  0  0
   -1.0220   21.9530   42.9660 N   0  0  0  0  0  0  0  0  0  0  0  0
   -0.7980   20.6460   43.2070 C   0  0  0  0  0  0  0  0  0  0  0  0
    2.0150   21.5150   37.7590 C   0  0  0  0  0  0  0  0  0  0  0  0
    0.0490   16.7170   43.1560 N   0  0  0  0  0  0  0  0  0  0  0  0
    1.5522   21.8563   39.3819 H   0  0  0  0  0  0  0  0  0  0  0  0
    3.2264   20.3846   36.6938 H   0  0  0  0  0  0  0  0  0  0  0  0
    3.1207   21.2793   34.7701 H   0  0  0  0  0  0  0  0  0  0  0  0
    2.8316   19.9733   38.7123 H   0  0  0  0  0  0  0  0  0  0  0  0
    0.2122   21.6855   41.4286 H   0  0  0  0  0  0  0  0  0  0  0  0
    1.7832   17.6782   41.9861 H   0  0  0  0  0  0  0  0  0  0  0  0
   -2.2713   16.8180   46.5040 H   0  0  0  0  0  0  0  0  0  0  0  0
    0.5505   18.2802   43.0477 H   0  0  0  0  0  0  0  0  0  0  0  0
   -0.7870   16.5508   44.4308 H   0  0  0  0  0  0  0  0  0  0  0  0
    3.2482   18.1113   40.0784 H   0  0  0  0  0  0  0  0  0  0  0  0
    4.3477   14.5398   37.1212 H   0  0  0  0  0  0  0  0  0  0  0  0
    3.6646   16.4521   35.4784 H   0  0  0  0  0  0  0  0  0  0  0  0
    5.0601   16.9670   36.5483 H   0  0  0  0  0  0  0  0  0  0  0  0
   -2.1628   17.7114   48.9855 H   0  0  0  0  0  0  0  0  0  0  0  0
   -1.0786   16.3093   48.6940 H   0  0  0  0  0  0  0  0  0  0  0  0
   -0.4103   17.9766   48.6940 H   0  0  0  0  0  0  0  0  0  0  0  0
    2.6075   15.1370   38.9842 H   0  0  0  0  0  0  0  0  0  0  0  0
   -1.1084   22.4571   43.8601 H   0  0  0  0  0  0  0  0  0  0  0  0
   -0.2355   22.3424   42.4269 H   0  0  0  0  0  0  0  0  0  0  0  0
   -1.8933   22.0583   42.4269 H   0  0  0  0  0  0  0  0  0  0  0  0
    1.0063   21.7455   38.1324 H   0  0  0  0  0  0  0  0  0  0  0  0
    2.3223   22.5548   37.9443 H   0  0  0  0  0  0  0  0  0  0  0  0
    0.0348   15.6891   43.2208 H   0  0  0  0  0  0  0  0  0  0  0  0
  1 12  2  0
  2 23  2  0
  3 30  2  0
  3 11  1  0
  4  8  1  0
  5 26  1  0
  6 24  1  0
  7  4  2  0
  7 17  1  0
  8 28  2  0
  9 28  1  0
 10 21  1  0
 11 14  1  0
 11 12  1  0
 12 25  1  0
 13 31  1  0
 15  5  1  0
 16 23  1  6
 16 18  1  0
 16 13  1  0
 17  9  2  0
 13 18  1  1
 19 26  2  0
 20 15  1  0
 20 19  1  0
 22 24  1  6
 22 16  1  0
 22 31  1  0
 22 13  1  0
 23 15  1  0
 25 10  2  3
 27  6  1  0
 28  3  1  0
 29 30  1  0
 30  1  1  0
 32 14  2  3
  4 33  1  0
  6 34  1  0
  6 35  1  0
  7 36  1  0
  8 37  1  0
  9 38  1  0
 10 39  1  0
 11 40  1  1
 14 41  1  0
 17 42  1  0
 19 43  1  0
 20 44  1  0
 20 45  1  0
 21 46  1  0
 21 47  1  0
 21 48  1  0
 26 49  1  0
 29 50  1  0
 29 51  1  0
 29 52  1  0
 31 53  1  0
 31 54  1  0
 32 55  1  0
M  CHG  1  29   1
M  END
>  <mol_id>  (28) 
2026-09-18-3war-s0-n100-refligand-0028

>  <rmsd_to_ref>  (28) 


$$$$

     RDKit          3D

 38 42  0  0  0  0  0  0  0  0999 V2000
    1.6523   18.5071   42.3587 S   0  0  0  0  0  0  0  0  0  0  0  0
    2.9236   20.6638   36.2591 C   0  0  0  0  0  0  0  0  0  0  0  0
    4.5175   14.8846   38.3993 N   0  0  0  0  0  0  0  0  0  0  0  0
    1.9581   20.4359   40.1930 C   0  0  0  0  0  0  0  0  0  0  0  0
    2.3746   16.8407   40.5935 C   0  0  0  0  0  0  0  0  0  0  0  0
    3.0657   18.7947   38.5182 C   0  0  0  0  0  0  0  0  0  0  0  0
    4.8654   20.7208   35.0982 O   0  0  0  0  0  0  0  0  0  0  0  0
    1.1751   22.5332   40.3209 O   0  0  0  0  0  0  0  0  0  0  0  0
    4.7702   15.7086   37.3383 N   0  0  0  0  0  0  0  0  0  0  0  0
    3.2273   16.5376   39.5276 C   0  0  0  0  0  0  0  0  0  0  0  0
    3.5187   17.4391   38.5031 C   0  0  0  0  0  0  0  0  0  0  0  0
    1.9198   21.2847   36.4245 O   0  0  0  0  0  0  0  0  0  0  0  0
    1.2126   20.6179   41.3563 C   0  0  0  0  0  0  0  0  0  0  0  0
    3.5091   14.3449   40.3317 O   0  0  0  0  0  0  0  0  0  0  0  0
    3.7766   15.2088   39.4237 C   0  0  0  0  0  0  0  0  0  0  0  0
    0.0318   22.2830   42.4906 N   0  0  0  0  0  0  0  0  0  0  0  0
    4.2468   16.9680   37.4015 C   0  0  0  0  0  0  0  0  0  0  0  0
    2.4378   19.1591   39.8079 C   0  0  0  0  0  0  0  0  0  0  0  0
    3.6611   20.9128   34.9930 C   0  0  0  0  0  0  0  0  0  0  0  0
   -0.2900   21.4128   43.4758 C   0  0  0  0  0  0  0  0  0  0  0  0
    1.4428   15.8109   41.1786 C   0  0  0  0  0  0  0  0  0  0  0  0
    3.3768   19.6270   37.2067 C   0  0  0  0  0  0  0  0  0  0  0  0
    1.0254   19.7754   42.4172 C   0  0  0  0  0  0  0  0  0  0  0  0
    1.9661   21.6962   39.4933 C   0  0  0  0  0  0  0  0  0  0  0  0
    0.1994   20.1060   43.4969 C   0  0  0  0  0  0  0  0  0  0  0  0
    2.1457   18.1587   40.8492 C   0  0  0  0  0  0  0  0  0  0  0  0
    3.0830   21.3537   34.1025 O   0  0  0  0  0  0  0  0  0  0  0  0
    0.7701   21.8559   41.4452 C   0  0  0  0  0  0  0  0  0  0  0  0
    4.9398   13.9452   38.3897 H   0  0  0  0  0  0  0  0  0  0  0  0
    4.4036   17.6445   36.5485 H   0  0  0  0  0  0  0  0  0  0  0  0
   -0.9575   21.7455   44.2844 H   0  0  0  0  0  0  0  0  0  0  0  0
    1.4466   15.8941   42.2754 H   0  0  0  0  0  0  0  0  0  0  0  0
    0.4237   15.9822   40.8014 H   0  0  0  0  0  0  0  0  0  0  0  0
    1.7779   14.8049   40.8860 H   0  0  0  0  0  0  0  0  0  0  0  0
    3.5380   18.7979   36.5019 H   0  0  0  0  0  0  0  0  0  0  0  0
    3.8578   20.4038   37.8193 H   0  0  0  0  0  0  0  0  0  0  0  0
    2.4654   21.9480   38.5460 H   0  0  0  0  0  0  0  0  0  0  0  0
   -0.0448   19.3930   44.2983 H   0  0  0  0  0  0  0  0  0  0  0  0
  1 23  1  0
  2 12  2  0
  2 22  1  0
  3 15  1  0
  4 13  1  0
  5 21  1  0
  5 26  1  0
  6 18  1  0
  8 28  1  0
  9 17  2  0
  9  3  1  0
 10  5  2  0
 11  6  2  0
 11 10  1  0
 13 28  2  0
 13 23  1  0
 15 10  1  0
 15 14  2  0
 16 20  2  0
 17 11  1  0
 18  4  1  0
 18 26  2  0
 19  7  1  0
 19  2  1  0
 22  6  1  0
 23 25  2  0
 24  4  2  0
 24  8  1  0
 25 20  1  0
 26  1  1  0
 27 19  2  0
 28 16  1  0
  3 29  1  0
 17 30  1  0
 20 31  1  0
 21 32  1  0
 21 33  1  0
 21 34  1  0
 22 35  1  0
 22 36  1  0
 24 37  1  0
 25 38  1  0
M  CHG  1   7  -1
M  END
>  <mol_id>  (29) 
2026-09-18-3war-s0-n100-refligand-0029

>  <rmsd_to_ref>  (29) 


$$$$

     RDKit          3D

 67 72  0  0  0  0  0  0  0  0999 V2000
    2.6885   19.6856   41.6229 O   0  0  0  0  0  0  0  0  0  0  0  0
    2.2207   21.1588   38.6811 C   0  0  2  0  0  0  0  0  0  0  0  0
   -0.7031   20.9951   43.8921 C   0  0  0  0  0  0  0  0  0  0  0  0
    3.7292   17.8354   39.3020 C   0  0  0  0  0  0  0  0  0  0  0  0
    2.5437   15.7485   40.2642 C   0  0  0  0  0  0  0  0  0  0  0  0
    4.6911   19.3157   36.4693 C   0  0  0  0  0  0  0  0  0  0  0  0
    2.4647   21.3667   37.8373 C   0  0  0  0  0  0  0  0  0  0  0  0
    3.0276   12.8306   40.5066 O   0  0  0  0  0  0  0  0  0  0  0  0
    4.5879   12.9966   38.8676 C   0  0  0  0  0  0  0  0  0  0  0  0
    2.6723   20.4199   39.6250 C   0  0  2  0  0  0  0  0  0  0  0  0
    2.9106   19.3195   37.8665 N   0  0  0  0  0  0  0  0  0  0  0  0
   -0.3378   16.6826   43.3856 N   0  0  0  0  0  0  0  0  0  0  0  0
   -0.5174   18.7569   43.8729 C   0  0  0  0  0  0  0  0  0  0  0  0
    3.5500   13.6185   39.5011 C   0  0  0  0  0  0  0  0  0  0  0  0
    2.6150   17.3327   40.1042 C   0  0  2  0  0  0  0  0  0  0  0  0
    0.1161   21.0185   42.6978 C   0  0  0  0  0  0  0  0  0  0  0  0
    1.1172   20.9720   39.5394 C   0  0  0  0  0  0  0  0  0  0  0  0
   -0.8146   17.4790   44.2864 C   0  0  0  0  0  0  0  0  0  0  0  0
    3.2421   11.4420   40.2980 C   0  0  0  0  0  0  0  0  0  0  0  0
    1.7203   15.2802   40.9987 O   0  0  0  0  0  0  0  0  0  0  0  0
    1.5795   18.3798   39.9935 C   0  0  0  0  0  0  0  0  0  0  0  0
    0.6677   17.3943   42.5617 C   0  0  0  0  0  0  0  0  0  0  0  0
   -1.0265   19.7923   44.4936 C   0  0  0  0  0  0  0  0  0  0  0  0
    3.4169   20.9991   35.5970 O   0  0  0  0  0  0  0  0  0  0  0  0
    1.6621   19.4428   40.8522 C   0  0  1  0  0  0  0  0  0  0  0  0
    3.3532   20.3805   36.8233 C   0  0  2  0  0  0  0  0  0  0  0  0
    0.4178   18.9055   42.7554 C   0  0  0  0  0  0  0  0  0  0  0  0
   -1.5354   17.3253   45.3701 C   0  0  0  0  0  0  0  0  0  0  0  0
    3.4323   14.9883   39.5750 N   0  0  0  0  0  0  0  0  0  0  0  0
   -1.7274   19.6767   45.6526 N   0  0  0  0  0  0  0  0  0  0  0  0
   -1.9462   18.4146   46.0061 C   0  0  0  0  0  0  0  0  0  0  0  0
   -0.7699   15.3135   43.0185 C   0  0  0  0  0  0  0  0  0  0  0  0
    0.6973   19.8692   42.0744 C   0  0  0  0  0  0  0  0  0  0  0  0
    3.3022   19.3784   39.1476 C   0  0  2  0  0  0  0  0  0  0  0  0
    2.4079   19.6373   42.5711 H   0  0  0  0  0  0  0  0  0  0  0  0
    2.4904   21.9683   37.9869 H   0  0  0  0  0  0  0  0  0  0  0  0
   -1.0698   21.9385   44.3228 H   0  0  0  0  0  0  0  0  0  0  0  0
    4.6893   17.7299   39.8283 H   0  0  0  0  0  0  0  0  0  0  0  0
    3.8871   17.3050   38.3513 H   0  0  0  0  0  0  0  0  0  0  0  0
    5.0803   18.8918   37.4068 H   0  0  0  0  0  0  0  0  0  0  0  0
    4.3483   18.5018   35.8134 H   0  0  0  0  0  0  0  0  0  0  0  0
    5.4874   19.8827   35.9647 H   0  0  0  0  0  0  0  0  0  0  0  0
    1.5250   21.5665   37.3017 H   0  0  0  0  0  0  0  0  0  0  0  0
    3.2006   22.1601   38.0349 H   0  0  0  0  0  0  0  0  0  0  0  0
    4.6349   11.8980   38.8372 H   0  0  0  0  0  0  0  0  0  0  0  0
    5.3769   13.5943   38.3876 H   0  0  0  0  0  0  0  0  0  0  0  0
    3.2334   18.4096   37.5075 H   0  0  0  0  0  0  0  0  0  0  0  0
    1.8987   19.4967   37.9404 H   0  0  0  0  0  0  0  0  0  0  0  0
    2.5813   17.2095   41.1967 H   0  0  0  0  0  0  0  0  0  0  0  0
    0.3064   21.9972   42.2333 H   0  0  0  0  0  0  0  0  0  0  0  0
    0.7515   21.7758   40.1953 H   0  0  0  0  0  0  0  0  0  0  0  0
    0.0894   20.5810   39.5103 H   0  0  0  0  0  0  0  0  0  0  0  0
    3.1975   10.9152   41.2626 H   0  0  0  0  0  0  0  0  0  0  0  0
    2.4640   11.0473   39.6282 H   0  0  0  0  0  0  0  0  0  0  0  0
    4.2312   11.2883   39.8417 H   0  0  0  0  0  0  0  0  0  0  0  0
    1.6227   18.7792   38.9695 H   0  0  0  0  0  0  0  0  0  0  0  0
    0.6399   17.8747   40.2618 H   0  0  0  0  0  0  0  0  0  0  0  0
    0.5485   17.1238   41.5022 H   0  0  0  0  0  0  0  0  0  0  0  0
    1.6893   17.1220   42.8653 H   0  0  0  0  0  0  0  0  0  0  0  0
    3.2706   21.9717   35.7101 H   0  0  0  0  0  0  0  0  0  0  0  0
   -1.7921   16.3223   45.7415 H   0  0  0  0  0  0  0  0  0  0  0  0
    4.1236   15.5164   39.0235 H   0  0  0  0  0  0  0  0  0  0  0  0
   -2.5306   18.2561   46.9244 H   0  0  0  0  0  0  0  0  0  0  0  0
   -1.0642   14.7662   43.9262 H   0  0  0  0  0  0  0  0  0  0  0  0
   -1.6267   15.3713   42.3312 H   0  0  0  0  0  0  0  0  0  0  0  0
    0.0606   14.7867   42.5258 H   0  0  0  0  0  0  0  0  0  0  0  0
    4.0594   19.6862   39.8838 H   0  0  0  0  0  0  0  0  0  0  0  0
  2  7  1  0
  2 10  1  0
  2 17  1  0
  3 23  2  0
  4 15  1  0
  5 20  2  0
  9 14  2  3
 10 17  1  1
 10 25  1  0
 11 34  1  0
 12 18  1  0
 13 18  1  0
 13 23  1  0
 14 29  1  0
 14  8  1  0
 15 21  1  0
 15  5  1  0
 16  3  1  0
 18 28  2  0
 19  8  1  0
 21 25  1  0
 22 27  1  0
 22 12  1  0
 23 30  1  0
 26 24  1  6
 25  1  1  1
 25 33  1  0
 26  6  1  0
 26 11  1  0
 26  7  1  0
 27 13  2  0
 28 31  1  0
 29  5  1  0
 30 31  2  0
 32 12  1  0
 33 16  2  0
 33 27  1  0
 34  4  1  0
 34 10  1  0
  1 35  1  0
  2 36  1  1
  3 37  1  0
  4 38  1  0
  4 39  1  0
  6 40  1  0
  6 41  1  0
  6 42  1  0
  7 43  1  0
  7 44  1  0
  9 45  1  0
  9 46  1  0
 11 47  1  0
 11 48  1  0
 15 49  1  1
 16 50  1  0
 17 51  1  0
 17 52  1  0
 19 53  1  0
 19 54  1  0
 19 55  1  0
 21 56  1  0
 21 57  1  0
 22 58  1  0
 22 59  1  0
 24 60  1  0
 28 61  1  0
 29 62  1  0
 31 63  1  0
 32 64  1  0
 32 65  1  0
 32 66  1  0
 34 67  1  6
M  CHG  1  11   1
M  END
>  <mol_id>  (30) 
2026-09-18-3war-s0-n100-refligand-0030

>  <rmsd_to_ref>  (30) 


$$$$

     RDKit          3D

 22 23  0  0  0  0  0  0  0  0999 V2000
    2.0301   20.6525   37.6211 O   0  0  0  0  0  0  0  0  0  0  0  0
    2.6689   19.5726   39.3742 C   0  0  0  0  0  0  0  0  0  0  0  0
    1.7862   19.4288   40.3109 C   0  0  2  0  0  0  0  0  0  0  0  0
    3.6003   18.6159   37.2504 O   0  0  0  0  0  0  0  0  0  0  0  0
    0.6273   20.0733   40.4450 C   0  0  0  0  0  0  0  0  0  0  0  0
    3.4984   18.0219   40.7983 C   0  0  0  0  0  0  0  0  0  0  0  0
   -0.0875   19.7021   41.6885 C   0  0  0  0  0  0  0  0  0  0  0  0
    1.6325   18.1258   42.4625 C   0  0  0  0  0  0  0  0  0  0  0  0
    3.9107   18.7103   39.7463 N   0  0  0  0  0  0  0  0  0  0  0  0
    3.2616   20.0248   37.7440 S   0  0  0  0  0  4  0  0  0  0  0  0
    0.3463   18.7912   42.6153 C   0  0  0  0  0  0  0  0  0  0  0  0
    4.3077   20.9217   37.7330 O   0  0  0  0  0  0  0  0  0  0  0  0
    2.2578   18.4251   41.2837 C   0  0  0  0  0  0  0  0  0  0  0  0
    1.7030   20.9158   38.5177 H   0  0  0  0  0  0  0  0  0  0  0  0
    1.2973   18.6342   39.7282 H   0  0  0  0  0  0  0  0  0  0  0  0
    3.4487   17.9650   37.9808 H   0  0  0  0  0  0  0  0  0  0  0  0
    0.2440   20.8000   39.7135 H   0  0  0  0  0  0  0  0  0  0  0  0
    4.0826   17.2056   41.2482 H   0  0  0  0  0  0  0  0  0  0  0  0
   -1.0483   20.2005   41.8844 H   0  0  0  0  0  0  0  0  0  0  0  0
    2.0582   17.4502   43.2191 H   0  0  0  0  0  0  0  0  0  0  0  0
   -0.2851   18.5595   43.4858 H   0  0  0  0  0  0  0  0  0  0  0  0
    4.3121   21.4340   38.5802 H   0  0  0  0  0  0  0  0  0  0  0  0
  2  3  1  0
  3 13  1  0
  3  5  1  0
  4 10  1  0
  5  7  2  0
  6 13  2  0
  7 11  1  0
  8 11  2  0
  9  2  2  0
  9  6  1  0
 10  1  1  0
 10  2  1  0
 12 10  1  0
 13  8  1  0
  1 14  1  0
  3 15  1  6
  4 16  1  0
  5 17  1  0
  6 18  1  0
  7 19  1  0
  8 20  1  0
 11 21  1  0
 12 22  1  0
M  END
>  <mol_id>  (31) 
2026-09-18-3war-s0-n100-refligand-0031

>  <rmsd_to_ref>  (31) 


$$$$

     RDKit          3D

 27 29  0  0  0  0  0  0  0  0999 V2000
   -0.0119   21.0377   41.7526 C   0  0  0  0  0  0  0  0  0  0  0  0
    3.6845   19.4717   37.3321 C   0  0  0  0  0  0  0  0  0  0  0  0
    1.9410   21.1051   38.2847 S   0  0  0  0  0  0  0  0  0  0  0  0
    3.7226   20.2911   36.4002 O   0  0  0  0  0  0  0  0  0  0  0  0
    0.4754   21.5667   40.6292 C   0  0  0  0  0  0  0  0  0  0  0  0
    4.4546   18.3241   37.4450 N   0  0  0  0  0  0  0  0  0  0  0  0
    4.4072   17.5165   38.6495 C   0  0  0  0  0  0  0  0  0  0  0  0
    2.8600   19.1411   39.6040 N   0  0  0  0  0  0  0  0  0  0  0  0
    1.2458   19.0961   41.4902 C   0  0  0  0  0  0  0  0  0  0  0  0
    3.2132   16.9256   40.7776 C   0  0  0  0  0  0  0  0  0  0  0  0
    3.8391   18.0849   39.9158 C   0  0  1  0  0  0  0  0  0  0  0  0
    0.3304   19.8059   42.2092 C   0  0  0  0  0  0  0  0  0  0  0  0
    2.9156   19.8399   38.4406 C   0  0  1  0  0  0  0  0  0  0  0  0
    1.3150   20.8037   39.9316 C   0  0  0  0  0  0  0  0  0  0  0  0
    1.8531   19.6275   40.3706 C   0  0  0  0  0  0  0  0  0  0  0  0
   -0.7286   21.6306   42.3397 H   0  0  0  0  0  0  0  0  0  0  0  0
    0.1989   22.5782   40.2970 H   0  0  0  0  0  0  0  0  0  0  0  0
    5.0665   18.0421   36.6660 H   0  0  0  0  0  0  0  0  0  0  0  0
    3.8126   16.6230   38.4086 H   0  0  0  0  0  0  0  0  0  0  0  0
    5.4693   17.3689   38.8947 H   0  0  0  0  0  0  0  0  0  0  0  0
    1.5063   18.0764   41.8099 H   0  0  0  0  0  0  0  0  0  0  0  0
    3.1714   17.2345   41.8325 H   0  0  0  0  0  0  0  0  0  0  0  0
    2.1963   16.7096   40.4182 H   0  0  0  0  0  0  0  0  0  0  0  0
    3.8347   16.0228   40.6842 H   0  0  0  0  0  0  0  0  0  0  0  0
    4.6383   18.5512   40.5107 H   0  0  0  0  0  0  0  0  0  0  0  0
   -0.1152   19.3949   43.1271 H   0  0  0  0  0  0  0  0  0  0  0  0
    3.7238   20.5043   38.7804 H   0  0  0  0  0  0  0  0  0  0  0  0
  1 12  2  0
  3 14  1  0
  4  2  2  0
  5  1  1  0
  6  2  1  0
  6  7  1  0
  7 11  1  0
  8 11  1  0
  8 15  1  0
  9 12  1  0
 11 10  1  0
 13  2  1  0
 13  3  1  0
 13  8  1  0
 14 15  1  0
 14  5  2  0
 15  9  2  0
  1 16  1  0
  5 17  1  0
  6 18  1  0
  7 19  1  0
  7 20  1  0
  9 21  1  0
 10 22  1  0
 10 23  1  0
 10 24  1  0
 11 25  1  1
 12 26  1  0
 13 27  1  1
M  END
>  <mol_id>  (32) 
2026-09-18-3war-s0-n100-refligand-0032

>  <rmsd_to_ref>  (32) 


$$$$

     RDKit          3D

 28 29  0  0  0  0  0  0  0  0999 V2000
    0.5510   18.6010   42.6090 C   0  0  0  0  0  0  0  0  0  0  0  0
    2.3640   19.0900   38.4280 C   0  0  1  0  0  0  0  0  0  0  0  0
    3.5790   18.3270   38.6190 C   0  0  0  0  0  0  0  0  0  0  0  0
    1.7770   18.0400   40.6210 C   0  0  0  0  0  0  0  0  0  0  0  0
    1.0790   16.3370   42.0390 O   0  0  0  0  0  0  0  0  0  0  0  0
    0.8580   20.8580   41.3640 C   0  0  0  0  0  0  0  0  0  0  0  0
    2.0210   21.2990   38.0950 O   0  0  0  0  0  0  0  0  0  0  0  0
    1.0480   17.6280   41.7490 C   0  0  0  0  0  0  0  0  0  0  0  0
    1.7890   19.1520   39.8560 C   0  0  0  0  0  0  0  0  0  0  0  0
    3.3300   16.9760   39.0750 C   0  0  0  0  0  0  0  0  0  0  0  0
    2.4570   20.2760   37.5940 C   0  0  0  0  0  0  0  0  0  0  0  0
    1.4080   20.3840   40.1800 C   0  0  0  0  0  0  0  0  0  0  0  0
    0.4440   19.9380   42.3410 C   0  0  0  0  0  0  0  0  0  0  0  0
    2.1680   16.8370   39.8520 C   0  0  0  0  0  0  0  0  0  0  0  0
    3.0900   20.2580   36.5310 O   0  0  0  0  0  0  0  0  0  0  0  0
    0.2115   18.2633   43.5993 H   0  0  0  0  0  0  0  0  0  0  0  0
    1.6260   18.6316   37.7533 H   0  0  0  0  0  0  0  0  0  0  0  0
    4.1184   18.2804   37.6614 H   0  0  0  0  0  0  0  0  0  0  0  0
    4.1686   18.8345   39.3967 H   0  0  0  0  0  0  0  0  0  0  0  0
    0.5823   15.9939   42.8236 H   0  0  0  0  0  0  0  0  0  0  0  0
    0.7482   21.9392   41.5342 H   0  0  0  0  0  0  0  0  0  0  0  0
    3.2353   16.3258   38.1928 H   0  0  0  0  0  0  0  0  0  0  0  0
    4.1771   16.6980   39.7194 H   0  0  0  0  0  0  0  0  0  0  0  0
    1.5494   21.1400   39.3936 H   0  0  0  0  0  0  0  0  0  0  0  0
    0.8603   20.3829   43.2568 H   0  0  0  0  0  0  0  0  0  0  0  0
   -0.5568   19.8287   41.8977 H   0  0  0  0  0  0  0  0  0  0  0  0
    1.3373   16.5784   39.1789 H   0  0  0  0  0  0  0  0  0  0  0  0
    2.3893   16.0575   40.5959 H   0  0  0  0  0  0  0  0  0  0  0  0
  2 11  1  0
  2  3  1  0
  2  9  1  0
  3 10  1  0
  4  8  1  0
  6 13  1  0
  8  5  1  0
  8  1  2  0
  9 12  1  0
  9  4  2  0
 10 14  1  0
 11  7  1  0
 12  6  2  0
 13  1  1  0
 14  4  1  0
 15 11  2  0
  1 16  1  0
  2 17  1  6
  3 18  1  0
  3 19  1  0
  5 20  1  0
  6 21  1  0
 10 22  1  0
 10 23  1  0
 12 24  1  0
 13 25  1  0
 13 26  1  0
 14 27  1  0
 14 28  1  0
M  CHG  1   7  -1
M  END
>  <mol_id>  (33) 
2026-09-18-3war-s0-n100-refligand-0033

>  <rmsd_to_ref>  (33) 


$$$$

     RDKit          3D

 26 28  0  0  0  0  0  0  0  0999 V2000
    2.2171   19.9137   39.1819 C   0  0  0  0  0  0  0  0  0  0  0  0
    3.5820   19.1254   37.4246 C   0  0  0  0  0  0  0  0  0  0  0  0
    4.3690   18.1284   36.8586 C   0  0  0  0  0  0  0  0  0  0  0  0
    3.7629   16.8155   38.8094 C   0  0  0  0  0  0  0  0  0  0  0  0
    0.8239   21.2782   40.3547 C   0  0  0  0  0  0  0  0  0  0  0  0
    2.4005   18.0741   40.3384 C   0  0  0  0  0  0  0  0  0  0  0  0
    3.4931   20.2119   36.7036 O   0  0  0  0  0  0  0  0  0  0  0  0
    1.0205   19.9039   41.1239 C   0  0  0  0  0  0  0  0  0  0  0  0
    1.8474   19.2687   40.2515 C   0  0  0  0  0  0  0  0  0  0  0  0
    3.7954   15.7023   39.5652 N   0  0  0  0  0  0  0  0  0  0  0  0
    1.6308   21.2184   39.0815 C   0  0  0  0  0  0  0  0  0  0  0  0
    3.0033   19.0763   38.5811 C   0  0  0  0  0  0  0  0  0  0  0  0
    2.2550   17.1066   41.3438 C   0  0  0  0  0  0  0  0  0  0  0  0
    4.5117   16.8750   37.5991 C   0  0  0  0  0  0  0  0  0  0  0  0
    3.1221   17.9111   39.2465 C   0  0  0  0  0  0  0  0  0  0  0  0
    4.8665   18.2771   35.8889 H   0  0  0  0  0  0  0  0  0  0  0  0
    0.2077   22.1253   40.6907 H   0  0  0  0  0  0  0  0  0  0  0  0
    3.9336   20.2558   35.8180 H   0  0  0  0  0  0  0  0  0  0  0  0
    0.6074   19.5638   42.0849 H   0  0  0  0  0  0  0  0  0  0  0  0
    4.2882   14.8637   39.2261 H   0  0  0  0  0  0  0  0  0  0  0  0
    3.3275   15.6888   40.4827 H   0  0  0  0  0  0  0  0  0  0  0  0
    1.7401   21.9731   38.2889 H   0  0  0  0  0  0  0  0  0  0  0  0
    2.2312   17.5998   42.3267 H   0  0  0  0  0  0  0  0  0  0  0  0
    1.3166   16.5541   41.1879 H   0  0  0  0  0  0  0  0  0  0  0  0
    3.1031   16.4071   41.3050 H   0  0  0  0  0  0  0  0  0  0  0  0
    5.1452   16.0463   37.2499 H   0  0  0  0  0  0  0  0  0  0  0  0
  1 11  1  0
  1  9  1  0
  2 12  1  0
  3 14  1  0
  3  2  2  0
  4 15  1  0
  4 10  1  0
  5  8  1  0
  6  9  1  0
  6 13  1  0
  7  2  1  0
  9  8  2  0
 11  5  2  0
 12 15  1  0
 12  1  2  0
 14  4  2  0
 15  6  2  0
  3 16  1  0
  5 17  1  0
  7 18  1  0
  8 19  1  0
 10 20  1  0
 10 21  1  0
 11 22  1  0
 13 23  1  0
 13 24  1  0
 13 25  1  0
 14 26  1  0
M  END
>  <mol_id>  (34) 
2026-09-18-3war-s0-n100-refligand-0034

>  <rmsd_to_ref>  (34) 


$$$$

     RDKit          3D

 47 50  0  0  0  0  0  0  0  0999 V2000
    2.8950   15.2170   39.2410 C   0  0  0  0  0  0  0  0  0  0  0  0
    3.9640   18.3790   38.4310 C   0  0  0  0  0  0  0  0  0  0  0  0
    3.0320   13.8830   39.8270 C   0  0  0  0  0  0  0  0  0  0  0  0
    1.6170   17.0750   40.9290 C   0  0  0  0  0  0  0  0  0  0  0  0
    3.7570   19.2100   37.2680 C   0  0  0  0  0  0  0  0  0  0  0  0
    0.0820   20.7720   42.0740 C   0  0  0  0  0  0  0  0  0  0  0  0
    3.7160   12.8050   39.0440 C   0  0  0  0  0  0  0  0  0  0  0  0
    2.1270   20.7920   38.0520 C   0  0  0  0  0  0  0  0  0  0  0  0
    2.1520   12.3720   41.6390 O   0  0  0  0  0  0  0  0  0  0  0  0
    2.9880   20.3540   37.1240 C   0  0  0  0  0  0  0  0  0  0  0  0
   -0.5090   18.5010   42.2910 C   0  0  0  0  0  0  0  0  0  0  0  0
    2.8190   11.1870   41.0510 C   0  0  0  0  0  0  0  0  0  0  0  0
    2.3740   19.4570   39.9520 C   0  0  0  0  0  0  0  0  0  0  0  0
    2.2010   21.8850   35.6230 O   0  0  0  0  0  0  0  0  0  0  0  0
    3.4600   20.2080   35.0230 O   0  0  0  0  0  0  0  0  0  0  0  0
    3.8420   18.7920   39.8730 C   0  0  0  0  0  0  0  0  0  0  0  0
    1.3160   16.0710   41.9460 C   0  0  0  0  0  0  0  0  0  0  0  0
    2.2720   13.6060   41.0910 C   0  0  0  0  0  0  0  0  0  0  0  0
    2.8210   20.8470   35.8150 C   0  0  0  0  0  0  0  0  0  0  0  0
    1.1360   21.7270   40.1010 C   0  0  0  0  0  0  0  0  0  0  0  0
   -0.4920   21.1620   43.2260 O   0  0  0  0  0  0  0  0  0  0  0  0
    0.4040   21.8510   41.2080 C   0  0  0  0  0  0  0  0  0  0  0  0
    1.6910   14.7280   41.9170 C   0  0  0  0  0  0  0  0  0  0  0  0
    0.3180   19.2930   41.8510 C   0  0  0  0  0  0  0  0  0  0  0  0
    1.5100   18.5620   41.1210 C   0  0  0  0  0  0  0  0  0  0  0  0
    2.1880   16.2240   39.6220 C   0  0  0  0  0  0  0  0  0  0  0  0
    3.6600   11.3600   39.7190 C   0  0  0  0  0  0  0  0  0  0  0  0
    1.8650   20.5750   39.4380 C   0  0  0  0  0  0  0  0  0  0  0  0
    3.4898   15.3865   38.3314 H   0  0  0  0  0  0  0  0  0  0  0  0
    4.9924   18.0020   38.3303 H   0  0  0  0  0  0  0  0  0  0  0  0
    3.0708   17.7416   38.3538 H   0  0  0  0  0  0  0  0  0  0  0  0
    4.2891   18.8867   36.3612 H   0  0  0  0  0  0  0  0  0  0  0  0
    4.2160   12.9938   38.0825 H   0  0  0  0  0  0  0  0  0  0  0  0
    1.1560   20.5499   37.5953 H   0  0  0  0  0  0  0  0  0  0  0  0
    2.6891   21.7199   38.2336 H   0  0  0  0  0  0  0  0  0  0  0  0
   -0.3668   17.4199   42.1458 H   0  0  0  0  0  0  0  0  0  0  0  0
   -1.3928   18.8719   42.8308 H   0  0  0  0  0  0  0  0  0  0  0  0
    2.7318   10.2015   41.5319 H   0  0  0  0  0  0  0  0  0  0  0  0
    3.9148   17.9197   40.5392 H   0  0  0  0  0  0  0  0  0  0  0  0
    4.6407   19.4783   40.1909 H   0  0  0  0  0  0  0  0  0  0  0  0
    0.7375   16.4065   42.8194 H   0  0  0  0  0  0  0  0  0  0  0  0
    1.2327   22.6709   39.5445 H   0  0  0  0  0  0  0  0  0  0  0  0
   -0.7561   20.4873   43.9007 H   0  0  0  0  0  0  0  0  0  0  0  0
    0.0258   22.8509   41.4670 H   0  0  0  0  0  0  0  0  0  0  0  0
    1.4718   14.3128   42.9118 H   0  0  0  0  0  0  0  0  0  0  0  0
    1.8098   16.7208   38.7164 H   0  0  0  0  0  0  0  0  0  0  0  0
    4.1910   10.5068   39.2716 H   0  0  0  0  0  0  0  0  0  0  0  0
  1 26  2  0
  1  3  1  0
  2 16  1  0
  3 18  1  0
  4 25  1  0
  4 17  2  0
  5  2  1  0
  6 21  1  0
  7 27  1  0
  7  3  2  0
  8 28  1  0
 10  5  2  0
 10  8  1  0
 12  9  1  0
 13 25  2  0
 14 19  1  0
 15 19  2  0
 16 13  1  0
 18  9  1  0
 18 23  2  0
 19 10  1  0
 20 22  1  0
 22  6  2  0
 23 17  1  0
 24  6  1  0
 24 11  2  3
 25 24  1  0
 26  4  1  0
 27 12  2  0
 28 13  1  0
 28 20  2  0
  1 29  1  0
  2 30  1  0
  2 31  1  0
  5 32  1  0
  7 33  1  0
  8 34  1  0
  8 35  1  0
 11 36  1  0
 11 37  1  0
 12 38  1  0
 16 39  1  0
 16 40  1  0
 17 41  1  0
 20 42  1  0
 21 43  1  0
 22 44  1  0
 23 45  1  0
 26 46  1  0
 27 47  1  0
M  CHG  1  14  -1
M  END
>  <mol_id>  (35) 
2026-09-18-3war-s0-n100-refligand-0035

>  <rmsd_to_ref>  (35) 


$$$$

     RDKit          3D

 41 43  0  0  0  0  0  0  0  0999 V2000
    3.6020   18.5978   37.7593 C   0  0  0  0  0  0  0  0  0  0  0  0
    3.7774   15.1438   39.1575 O   0  0  0  0  0  0  0  0  0  0  0  0
    0.2763   21.3530   42.5022 C   0  0  0  0  0  0  0  0  0  0  0  0
    3.5309   17.5154   38.5314 C   0  0  0  0  0  0  0  0  0  0  0  0
    0.5681   20.0440   42.6738 C   0  0  0  0  0  0  0  0  0  0  0  0
    3.3820   20.7748   36.3813 O   0  0  0  0  0  0  0  0  0  0  0  0
    0.6119   17.5406   43.3370 C   0  0  0  0  0  0  0  0  0  0  0  0
    1.6529   16.3515   41.7857 C   0  0  0  0  0  0  0  0  0  0  0  0
    0.5943   16.1227   43.7480 C   0  0  0  0  0  0  0  0  0  0  0  0
    1.8503   19.9357   40.5937 C   0  0  1  0  0  0  0  0  0  0  0  0
    3.9563   16.0821   38.2277 C   0  0  0  0  0  0  0  0  0  0  0  0
   -0.4460   22.0316   43.2551 O   0  0  0  0  0  0  0  0  0  0  0  0
    1.1827   15.4910   42.7498 C   0  0  0  0  0  0  0  0  0  0  0  0
    1.6146   21.3095   40.4726 C   0  0  0  0  0  0  0  0  0  0  0  0
    2.5362   19.2496   39.5135 C   0  0  0  0  0  0  0  0  0  0  0  0
    0.8713   22.0407   41.3696 C   0  0  0  0  0  0  0  0  0  0  0  0
    1.3573   17.7488   42.0181 C   0  0  0  0  0  0  0  0  0  0  0  0
    1.7444   21.7262   37.3918 N   0  0  0  0  0  0  0  0  0  0  0  0
    2.9222   19.6303   38.3165 C   0  0  0  0  0  0  0  0  0  0  0  0
    1.3656   19.2769   41.7737 C   0  0  0  0  0  0  0  0  0  0  0  0
    2.1470   15.5769   40.6923 N   0  0  0  0  0  0  0  0  0  0  0  0
    4.6434   15.8906   37.1974 O   0  0  0  0  0  0  0  0  0  0  0  0
    2.6660   20.8308   37.3090 C   0  0  0  0  0  0  0  0  0  0  0  0
    1.4111   22.6244   36.1968 C   0  0  0  0  0  0  0  0  0  0  0  0
    2.7670   17.8285   39.6595 O   0  0  0  0  0  0  0  0  0  0  0  0
    4.1388   18.6476   36.8005 H   0  0  0  0  0  0  0  0  0  0  0  0
    0.1649   19.5387   43.5638 H   0  0  0  0  0  0  0  0  0  0  0  0
    0.1433   18.3527   43.9124 H   0  0  0  0  0  0  0  0  0  0  0  0
    1.1541   15.9805   44.6842 H   0  0  0  0  0  0  0  0  0  0  0  0
   -0.4231   15.7518   43.9413 H   0  0  0  0  0  0  0  0  0  0  0  0
    0.8859   19.7545   40.0964 H   0  0  0  0  0  0  0  0  0  0  0  0
    1.2857   14.3972   42.6951 H   0  0  0  0  0  0  0  0  0  0  0  0
    2.0490   21.8355   39.6097 H   0  0  0  0  0  0  0  0  0  0  0  0
    0.7305   23.1230   41.2322 H   0  0  0  0  0  0  0  0  0  0  0  0
    1.2243   21.8400   38.2736 H   0  0  0  0  0  0  0  0  0  0  0  0
    2.7410   14.8159   41.0514 H   0  0  0  0  0  0  0  0  0  0  0  0
    1.3550   15.1766   40.1694 H   0  0  0  0  0  0  0  0  0  0  0  0
    2.7015   16.1794   40.0675 H   0  0  0  0  0  0  0  0  0  0  0  0
    1.1557   23.6324   36.5557 H   0  0  0  0  0  0  0  0  0  0  0  0
    2.2825   22.6831   35.5280 H   0  0  0  0  0  0  0  0  0  0  0  0
    0.5558   22.2027   35.6485 H   0  0  0  0  0  0  0  0  0  0  0  0
  1 19  1  0
  1  4  2  0
  3  5  1  0
  3 12  2  0
  4 25  1  0
  6 23  2  0
  7  9  1  0
  8 17  1  0
  8 13  2  0
 10 15  1  0
 10 20  1  0
 11  4  1  0
 11  2  1  0
 13  9  1  0
 14 10  1  0
 14 16  2  0
 15 25  1  0
 16  3  1  0
 17  7  2  0
 19 15  2  0
 20 17  1  0
 20  5  2  0
 21  8  1  0
 22 11  2  0
 23 18  1  0
 23 19  1  0
 24 18  1  0
  1 26  1  0
  5 27  1  0
  7 28  1  0
  9 29  1  0
  9 30  1  0
 10 31  1  6
 13 32  1  0
 14 33  1  0
 16 34  1  0
 18 35  1  0
 21 36  1  0
 21 37  1  0
 21 38  1  0
 24 39  1  0
 24 40  1  0
 24 41  1  0
M  CHG  2   2  -1  21   1
M  END
>  <mol_id>  (36) 
2026-09-18-3war-s0-n100-refligand-0036

>  <rmsd_to_ref>  (36) 


$$$$

     RDKit          3D

 20 22  0  0  0  0  0  0  0  0999 V2000
    2.9500   18.1810   40.4710 C   0  0  0  0  0  0  0  0  0  0  0  0
    2.5580   17.0510   39.6430 N   0  0  0  0  0  0  0  0  0  0  0  0
    0.6700   20.8520   41.4530 C   0  0  0  0  0  0  0  0  0  0  0  0
    2.9380   19.1000   37.1210 C   0  0  1  0  0  0  0  0  0  0  0  0
    2.4650   20.8770   37.1780 N   0  0  0  0  0  0  0  0  0  0  0  0
    1.9400   20.1000   39.4600 C   0  0  0  0  0  0  0  0  0  0  0  0
    3.5010   20.2140   36.4790 O   0  0  0  0  0  0  0  0  0  0  0  0
    1.1730   19.6170   41.6170 C   0  0  0  0  0  0  0  0  0  0  0  0
    1.1480   21.4640   39.9600 S   0  0  0  0  0  0  0  0  0  0  0  0
    2.4450   19.8660   38.1810 C   0  0  1  0  0  0  0  0  0  0  0  0
    1.8600   19.1850   40.5320 C   0  0  0  0  0  0  0  0  0  0  0  0
    3.8489   18.6486   40.0428 H   0  0  0  0  0  0  0  0  0  0  0  0
    3.1578   17.8201   41.4891 H   0  0  0  0  0  0  0  0  0  0  0  0
    2.2843   16.2621   40.2460 H   0  0  0  0  0  0  0  0  0  0  0  0
    1.7615   17.3210   39.0484 H   0  0  0  0  0  0  0  0  0  0  0  0
    3.3506   16.7698   39.0484 H   0  0  0  0  0  0  0  0  0  0  0  0
    0.0414   21.3824   42.1835 H   0  0  0  0  0  0  0  0  0  0  0  0
    3.0361   18.0155   36.9650 H   0  0  0  0  0  0  0  0  0  0  0  0
    1.0414   19.0215   42.5324 H   0  0  0  0  0  0  0  0  0  0  0  0
    3.4734   20.1305   38.4681 H   0  0  0  0  0  0  0  0  0  0  0  0
  1 11  1  0
  2  1  1  0
  3  8  2  0
  4  7  1  0
  4  5  1  0
  4 10  1  0
  5  7  1  0
  5 10  1  0
  6  9  1  0
  6 11  2  0
  9  3  1  0
 10  6  1  0
 11  8  1  0
  1 12  1  0
  1 13  1  0
  2 14  1  0
  2 15  1  0
  2 16  1  0
  3 17  1  0
  4 18  1  6
  8 19  1  0
 10 20  1  1
M  CHG  1   2   1
M  END
>  <mol_id>  (37) 
2026-09-18-3war-s0-n100-refligand-0037

>  <rmsd_to_ref>  (37) 


$$$$

     RDKit          3D

 32 35  0  0  0  0  0  0  0  0999 V2000
   -0.0281   22.0177   40.3305 O   0  0  0  0  0  0  0  0  0  0  0  0
    0.4539   18.7787   41.7907 C   0  0  0  0  0  0  0  0  0  0  0  0
   -0.8803   21.0903   42.3086 C   0  0  0  0  0  0  0  0  0  0  0  0
    2.5414   19.0423   39.3044 C   0  0  0  0  0  0  0  0  0  0  0  0
    3.7282   15.5817   40.7537 C   0  0  0  0  0  0  0  0  0  0  0  0
    3.8014   17.2263   38.5095 C   0  0  0  0  0  0  0  0  0  0  0  0
    3.9106   18.3302   37.6739 O   0  0  0  0  0  0  0  0  0  0  0  0
    4.4171   16.0024   38.4804 C   0  0  0  0  0  0  0  0  0  0  0  0
    2.8691   20.5306   37.3459 C   0  0  0  0  0  0  0  0  0  0  0  0
    4.4146   15.1266   39.6250 C   0  0  0  0  0  0  0  0  0  0  0  0
    1.6731   19.9709   39.8453 C   0  0  1  0  0  0  0  0  0  0  0  0
    0.7162   19.8163   40.9028 C   0  0  0  0  0  0  0  0  0  0  0  0
   -0.0488   20.9962   41.1750 C   0  0  0  0  0  0  0  0  0  0  0  0
    3.1154   19.3332   38.0528 C   0  0  0  0  0  0  0  0  0  0  0  0
    1.7121   21.2675   39.2573 O   0  0  0  0  0  0  0  0  0  0  0  0
   -1.0498   20.0444   43.1219 N   0  0  0  0  0  0  0  0  0  0  0  0
   -0.3483   18.9051   42.8404 C   0  0  0  0  0  0  0  0  0  0  0  0
    3.0631   16.8644   40.7988 C   0  0  0  0  0  0  0  0  0  0  0  0
    3.0799   17.6742   39.6561 C   0  0  0  0  0  0  0  0  0  0  0  0
    3.3210   20.8844   36.2191 O   0  0  0  0  0  0  0  0  0  0  0  0
    1.9048   21.4354   37.9007 C   0  0  0  0  0  0  0  0  0  0  0  0
   -0.5589   22.8306   40.5239 H   0  0  0  0  0  0  0  0  0  0  0  0
    0.9349   17.8053   41.6144 H   0  0  0  0  0  0  0  0  0  0  0  0
   -1.3963   22.0370   42.5266 H   0  0  0  0  0  0  0  0  0  0  0  0
    3.6924   14.9374   41.6445 H   0  0  0  0  0  0  0  0  0  0  0  0
    4.9262   15.6803   37.5600 H   0  0  0  0  0  0  0  0  0  0  0  0
    4.9254   14.1526   39.6108 H   0  0  0  0  0  0  0  0  0  0  0  0
    0.9072   19.6829   39.1102 H   0  0  0  0  0  0  0  0  0  0  0  0
   -0.4545   18.0471   43.5206 H   0  0  0  0  0  0  0  0  0  0  0  0
    2.5530   17.1985   41.7142 H   0  0  0  0  0  0  0  0  0  0  0  0
    2.2496   22.4647   37.7222 H   0  0  0  0  0  0  0  0  0  0  0  0
    0.9435   21.2276   37.4080 H   0  0  0  0  0  0  0  0  0  0  0  0
  1 13  1  0
  2 17  1  0
  3 16  1  0
  4 19  1  0
  4 11  1  0
  6  8  2  0
  6 19  1  0
  7 14  1  0
  7  6  1  0
  8 10  1  0
  9 21  1  0
  9 14  1  0
 10  5  2  0
 11 12  1  0
 12 13  1  0
 12  2  2  0
 13  3  2  0
 14  4  2  0
 15 11  1  0
 17 16  2  0
 18  5  1  0
 19 18  2  0
 20  9  2  0
 21 15  1  0
  1 22  1  0
  2 23  1  0
  3 24  1  0
  5 25  1  0
  8 26  1  0
 10 27  1  0
 11 28  1  6
 17 29  1  0
 18 30  1  0
 21 31  1  0
 21 32  1  0
M  END
>  <mol_id>  (38) 
2026-09-18-3war-s0-n100-refligand-0039

>  <rmsd_to_ref>  (38) 


$$$$

     RDKit          3D

 46 55  0  0  0  0  0  0  0  0999 V2000
    1.9130   14.6210   40.8440 C   0  0  0  0  0  0  0  0  0  0  0  0
    1.5210   16.1270   40.9180 C   0  0  2  0  0  0  0  0  0  0  0  0
    2.8130   19.5490   38.7410 C   0  0  0  0  0  0  0  0  0  0  0  0
    3.7310   15.8240   37.8210 C   0  0  0  0  0  0  0  0  0  0  0  0
    3.0280   15.6240   38.9960 C   0  0  1  0  0  0  0  0  0  0  0  0
    0.9040   16.4460   42.0220 C   0  0  0  0  0  0  0  0  0  0  0  0
    2.5960   16.8390   39.1860 O   0  0  0  0  0  0  0  0  0  0  0  0
    0.6200   19.5330   41.2100 C   0  0  1  0  0  0  0  0  0  0  0  0
    1.2260   21.7860   40.4460 N   0  0  0  0  0  0  0  0  0  0  0  0
    2.5160   21.0160   36.4320 C   0  0  0  0  0  0  0  0  0  0  0  0
    3.4920   19.2770   37.5950 C   0  0  0  0  0  0  0  0  0  0  0  0
   -0.0720   18.6510   43.0090 C   0  0  0  0  0  0  0  0  0  0  0  0
    2.8100   18.5710   40.0440 S   0  0  1  0  0  4  0  0  0  0  0  0
    1.6340   18.4170   40.9670 C   0  0  2  0  0  0  0  0  0  0  0  0
    1.1580   20.6400   40.9240 C   0  0  2  0  0  0  0  0  0  0  0  0
    1.8360   21.4650   37.5130 C   0  0  0  0  0  0  0  0  0  0  0  0
    2.8240   14.4490   39.8220 C   0  0  0  0  0  0  0  0  0  0  0  0
    2.0040   20.8260   38.6740 C   0  0  0  0  0  0  0  0  0  0  0  0
    1.4650   20.9810   39.8570 N   0  0  0  0  0  0  0  0  0  0  0  0
    2.3620   17.1030   40.2560 C   0  0  2  0  0  0  0  0  0  0  0  0
    0.1570   20.9850   41.8440 N   0  0  0  0  0  0  0  0  0  0  0  0
    3.4140   13.4160   39.8560 O   0  0  0  0  0  0  0  0  0  0  0  0
    1.4690   17.3800   41.1840 C   0  0  2  0  0  0  0  0  0  0  0  0
   -0.9220   19.6200   43.3930 N   0  0  0  0  0  0  0  0  0  0  0  0
    3.3580   20.1000   36.5060 C   0  0  0  0  0  0  0  0  0  0  0  0
   -0.7890   20.7600   42.7380 C   0  0  0  0  0  0  0  0  0  0  0  0
    0.7840   18.5760   41.9680 C   0  0  0  0  0  0  0  0  0  0  0  0
    2.3637   14.3089   41.7976 H   0  0  0  0  0  0  0  0  0  0  0  0
    1.0180   14.0104   40.6539 H   0  0  0  0  0  0  0  0  0  0  0  0
    4.7643   16.1180   38.0574 H   0  0  0  0  0  0  0  0  0  0  0  0
    3.7395   14.8926   37.2358 H   0  0  0  0  0  0  0  0  0  0  0  0
    3.2480   16.6204   37.2358 H   0  0  0  0  0  0  0  0  0  0  0  0
    3.9331   15.8550   39.5769 H   0  0  0  0  0  0  0  0  0  0  0  0
   -0.1895   16.3527   42.0970 H   0  0  0  0  0  0  0  0  0  0  0  0
    0.9887   16.1782   43.0855 H   0  0  0  0  0  0  0  0  0  0  0  0
    0.3631   22.3178   40.2629 H   0  0  0  0  0  0  0  0  0  0  0  0
    2.3183   21.4763   35.4527 H   0  0  0  0  0  0  0  0  0  0  0  0
    4.1491   18.3965   37.5411 H   0  0  0  0  0  0  0  0  0  0  0  0
   -0.0749   17.7627   43.6578 H   0  0  0  0  0  0  0  0  0  0  0  0
    4.0719   19.1014   40.1016 H   0  0  0  0  0  0  0  0  0  0  0  0
    1.1636   22.3322   37.4374 H   0  0  0  0  0  0  0  0  0  0  0  0
   -1.8834   19.2786   43.2516 H   0  0  0  0  0  0  0  0  0  0  0  0
   -0.7064   19.8233   44.3794 H   0  0  0  0  0  0  0  0  0  0  0  0
    4.0311   19.9429   35.6503 H   0  0  0  0  0  0  0  0  0  0  0  0
   -0.6641   21.5354   43.5082 H   0  0  0  0  0  0  0  0  0  0  0  0
   -1.6850   20.7445   42.1001 H   0  0  0  0  0  0  0  0  0  0  0  0
  2  1  1  1
  2 23  1  0
  2  6  1  0
  5  4  1  0
  5  7  1  0
  5 17  1  0
  8 21  1  1
  8 27  1  0
 10 25  2  0
 10 16  1  0
 11  3  2  0
 12 24  1  0
 13  3  1  0
 13 20  1  0
 13 14  1  0
 14 23  1  0
 14  8  1  0
 14 27  1  1
 15  9  1  6
 15  8  1  0
 15 21  1  0
 16 18  2  0
 17 22  2  0
 17  1  1  0
 18  3  1  0
 18 19  1  0
 19  9  1  0
 19 15  1  0
 20  7  1  1
 20  2  1  0
 20 23  1  0
 21 26  1  0
 23  6  1  1
 25 11  1  0
 26 24  1  0
 27 12  2  0
  1 28  1  0
  1 29  1  0
  4 30  1  0
  4 31  1  0
  4 32  1  0
  5 33  1  1
  6 34  1  0
  6 35  1  0
  9 36  1  0
 10 37  1  0
 11 38  1  0
 12 39  1  0
 13 40  1  1
 16 41  1  0
 24 42  1  0
 24 43  1  0
 25 44  1  0
 26 45  1  0
 26 46  1  0
M  CHG  1  24   1
M  END
>  <mol_id>  (39) 
2026-09-18-3war-s0-n100-refligand-0040

>  <rmsd_to_ref>  (39) 


$$$$

     RDKit          3D

 40 43  0  0  0  0  0  0  0  0999 V2000
    0.4804   21.7297   42.1601 C   0  0  0  0  0  0  0  0  0  0  0  0
    0.4067   20.1713   43.9846 C   0  0  0  0  0  0  0  0  0  0  0  0
    3.3457   15.7009   39.2000 C   0  0  0  0  0  0  0  0  0  0  0  0
    2.3430   19.0171   40.7110 N   0  0  0  0  0  0  0  0  0  0  0  0
    2.8813   17.0217   39.3111 C   0  0  0  0  0  0  0  0  0  0  0  0
    1.7241   20.9322   40.0846 C   0  0  0  0  0  0  0  0  0  0  0  0
    4.4962   16.3857   37.2493 C   0  0  0  0  0  0  0  0  0  0  0  0
    1.9472   21.1074   37.1580 N   0  0  0  0  0  0  0  0  0  0  0  0
    1.5384   19.5700   41.8681 C   0  0  0  0  0  0  0  0  0  0  0  0
    1.7236   20.1638   37.6997 C   0  0  1  0  0  0  0  0  0  0  0  0
    2.5593   20.8976   36.2627 C   0  0  0  0  0  0  0  0  0  0  0  0
    1.0458   20.7281   41.3595 C   0  0  0  0  0  0  0  0  0  0  0  0
    1.2413   17.7675   45.0889 C   0  0  0  0  0  0  0  0  0  0  0  0
    4.0516   17.7159   37.4531 C   0  0  0  0  0  0  0  0  0  0  0  0
    1.3549   17.9972   43.6617 O   0  0  0  0  0  0  0  0  0  0  0  0
    3.1328   20.3027   36.6509 O   0  0  0  0  0  0  0  0  0  0  0  0
    4.1691   15.3991   38.1454 C   0  0  0  0  0  0  0  0  0  0  0  0
    3.1735   18.0193   38.4735 C   0  0  0  0  0  0  0  0  0  0  0  0
    1.6003   22.1950   39.6444 O   0  0  0  0  0  0  0  0  0  0  0  0
    2.2633   19.7776   39.8409 N   0  0  0  0  0  0  0  0  0  0  0  0
    0.1334   21.4437   43.4732 C   0  0  0  0  0  0  0  0  0  0  0  0
    1.0996   19.2110   43.2469 C   0  0  0  0  0  0  0  0  0  0  0  0
    5.2537   16.1126   36.2114 F   0  0  0  0  0  0  0  0  0  0  0  0
    2.3219   21.2407   35.2903 N   0  0  0  0  0  0  0  0  0  0  0  0
    2.6342   19.3594   38.5063 C   0  0  2  0  0  0  0  0  0  0  0  0
    0.3124   22.7366   41.7503 H   0  0  0  0  0  0  0  0  0  0  0  0
    0.0651   19.9198   44.9995 H   0  0  0  0  0  0  0  0  0  0  0  0
    3.0586   14.9340   39.9344 H   0  0  0  0  0  0  0  0  0  0  0  0
    2.8648   18.1290   40.6996 H   0  0  0  0  0  0  0  0  0  0  0  0
    2.2211   17.2537   40.1598 H   0  0  0  0  0  0  0  0  0  0  0  0
    0.7023   19.9270   38.0327 H   0  0  0  0  0  0  0  0  0  0  0  0
    1.8476   18.5095   45.6291 H   0  0  0  0  0  0  0  0  0  0  0  0
    0.1885   17.8629   45.3929 H   0  0  0  0  0  0  0  0  0  0  0  0
    1.6016   16.7559   45.3273 H   0  0  0  0  0  0  0  0  0  0  0  0
    4.4109   18.5164   36.7897 H   0  0  0  0  0  0  0  0  0  0  0  0
    4.5623   14.3795   38.0196 H   0  0  0  0  0  0  0  0  0  0  0  0
   -0.3492   22.2063   44.1020 H   0  0  0  0  0  0  0  0  0  0  0  0
    1.5914   21.9550   35.1603 H   0  0  0  0  0  0  0  0  0  0  0  0
    2.8213   20.8602   34.4738 H   0  0  0  0  0  0  0  0  0  0  0  0
    3.5336   19.5133   37.8920 H   0  0  0  0  0  0  0  0  0  0  0  0
  1 21  1  0
  3  5  1  0
  4  9  1  0
  6 12  1  0
  7 14  2  0
  7 17  1  0
  8 10  1  0
  9 22  2  0
 10 25  1  0
 11 16  1  0
 11  8  2  0
 12  9  1  0
 12  1  2  0
 14 18  1  0
 15 13  1  0
 16 10  1  0
 17  3  2  0
 18  5  2  0
 19  6  2  0
 20  6  1  0
 20  4  1  0
 21  2  2  0
 22 15  1  0
 22  2  1  0
 23  7  1  0
 24 11  1  0
 25 18  1  0
 25 20  1  0
  1 26  1  0
  2 27  1  0
  3 28  1  0
  4 29  1  0
  5 30  1  0
 10 31  1  6
 13 32  1  0
 13 33  1  0
 13 34  1  0
 14 35  1  0
 17 36  1  0
 21 37  1  0
 24 38  1  0
 24 39  1  0
 25 40  1  6
M  END
>  <mol_id>  (40) 
2026-09-18-3war-s0-n100-refligand-0041

>  <rmsd_to_ref>  (40) 


$$$$

     RDKit          3D

 36 40  0  0  0  0  0  0  0  0999 V2000
    1.8211   20.5920   38.8981 C   0  0  0  0  0  0  0  0  0  0  0  0
    1.1887   21.5602   39.6324 O   0  0  0  0  0  0  0  0  0  0  0  0
    1.9474   13.7103   40.5238 N   0  0  0  0  0  0  0  0  0  0  0  0
    3.5942   17.0375   39.3689 S   0  0  0  0  0  0  0  0  0  0  0  0
    0.7865   15.6692   42.1752 C   0  0  0  0  0  0  0  0  0  0  0  0
    2.1538   20.9908   37.6443 C   0  0  0  0  0  0  0  0  0  0  0  0
    1.3658   18.9890   40.6811 C   0  0  0  0  0  0  0  0  0  0  0  0
    1.0293   17.8820   41.4653 C   0  0  0  0  0  0  0  0  0  0  0  0
    0.0595   19.6184   42.3883 N   0  0  0  0  0  0  0  0  0  0  0  0
    0.7547   20.0252   41.2848 C   0  0  0  0  0  0  0  0  0  0  0  0
    0.7085   21.2824   40.8618 C   0  0  0  0  0  0  0  0  0  0  0  0
    2.9614   18.4854   38.7838 C   0  0  0  0  0  0  0  0  0  0  0  0
    0.2322   18.3402   42.4824 C   0  0  0  0  0  0  0  0  0  0  0  0
    1.3370   16.5946   41.2276 C   0  0  0  0  0  0  0  0  0  0  0  0
    3.0845   20.6943   35.6390 O   0  0  0  0  0  0  0  0  0  0  0  0
   -0.3159   17.3970   43.3915 C   0  0  0  0  0  0  0  0  0  0  0  0
    3.4918   18.9323   37.3642 C   0  0  0  0  0  0  0  0  0  0  0  0
   -0.0473   16.0951   43.2282 C   0  0  0  0  0  0  0  0  0  0  0  0
    2.1478   16.2504   40.1207 C   0  0  2  0  0  0  0  0  0  0  0  0
    3.6601   14.5901   39.4785 O   0  0  0  0  0  0  0  0  0  0  0  0
    2.9692   20.2639   36.7306 C   0  0  0  0  0  0  0  0  0  0  0  0
    2.5602   14.8630   40.0582 C   0  0  0  0  0  0  0  0  0  0  0  0
    2.0397   19.3201   39.4549 C   0  0  0  0  0  0  0  0  0  0  0  0
    2.6786   12.4738   40.4215 C   0  0  0  0  0  0  0  0  0  0  0  0
    1.0009   13.7372   40.9293 H   0  0  0  0  0  0  0  0  0  0  0  0
    1.0214   14.5991   42.0773 H   0  0  0  0  0  0  0  0  0  0  0  0
    1.1962   21.1393   37.1236 H   0  0  0  0  0  0  0  0  0  0  0  0
    2.8305   21.8249   37.8823 H   0  0  0  0  0  0  0  0  0  0  0  0
    0.2897   22.0768   41.4970 H   0  0  0  0  0  0  0  0  0  0  0  0
   -0.9549   17.7323   44.2216 H   0  0  0  0  0  0  0  0  0  0  0  0
    4.2230   18.3118   36.8254 H   0  0  0  0  0  0  0  0  0  0  0  0
   -0.4792   15.3557   43.9187 H   0  0  0  0  0  0  0  0  0  0  0  0
    1.3048   16.7119   39.5857 H   0  0  0  0  0  0  0  0  0  0  0  0
    2.8746   12.0792   41.4294 H   0  0  0  0  0  0  0  0  0  0  0  0
    2.0862   11.7436   39.8506 H   0  0  0  0  0  0  0  0  0  0  0  0
    3.6337   12.6541   39.9062 H   0  0  0  0  0  0  0  0  0  0  0  0
  1 23  2  0
  1  2  1  0
  2 11  1  0
  4 19  1  0
  5 18  1  0
  6  1  1  0
  7 10  1  0
  7  8  2  0
  8 13  1  0
  9 13  2  0
 10  9  1  0
 11 10  2  0
 12  4  1  0
 12 23  1  0
 13 16  1  0
 14  8  1  0
 14  5  2  0
 15 21  2  0
 17 12  2  0
 18 16  2  0
 19 22  1  0
 19 14  1  0
 20 22  2  0
 21 17  1  0
 21  6  1  0
 22  3  1  0
 23  7  1  0
 24  3  1  0
  3 25  1  0
  5 26  1  0
  6 27  1  0
  6 28  1  0
 11 29  1  0
 16 30  1  0
 17 31  1  0
 18 32  1  0
 19 33  1  6
 24 34  1  0
 24 35  1  0
 24 36  1  0
M  END
>  <mol_id>  (41) 
2026-09-18-3war-s0-n100-refligand-0042

>  <rmsd_to_ref>  (41) 


$$$$

     RDKit          3D

 49 54  0  0  0  0  0  0  0  0999 V2000
    2.4592   15.1307   39.5010 C   0  0  0  0  0  0  0  0  0  0  0  0
    2.8976   21.2596   34.5750 C   0  0  0  0  0  0  0  0  0  0  0  0
    1.0358   17.8027   41.9936 C   0  0  0  0  0  0  0  0  0  0  0  0
    2.2716   18.3271   39.8207 C   0  0  1  0  0  0  0  0  0  0  0  0
    0.6051   16.8859   42.9395 C   0  0  0  0  0  0  0  0  0  0  0  0
    1.9810   20.8462   36.7132 C   0  0  0  0  0  0  0  0  0  0  0  0
    2.7766   17.5545   38.5690 C   0  0  0  0  0  0  0  0  0  0  0  0
    2.0077   21.5911   35.5769 C   0  0  0  0  0  0  0  0  0  0  0  0
    3.7055   14.3959   36.9236 C   0  0  0  0  0  0  0  0  0  0  0  0
    2.0545   20.8109   40.0578 C   0  0  0  0  0  0  0  0  0  0  0  0
    1.2864   21.4156   37.5999 O   0  0  0  0  0  0  0  0  0  0  0  0
    3.0110   21.9180   33.5554 O   0  0  0  0  0  0  0  0  0  0  0  0
    3.5184   20.0991   34.5523 N   0  0  0  0  0  0  0  0  0  0  0  0
    3.4929   15.9264   37.3457 C   0  0  0  0  0  0  0  0  0  0  0  0
   -0.3839   21.7840   42.7279 C   0  0  0  0  0  0  0  0  0  0  0  0
   -0.0248   17.2563   44.1362 C   0  0  0  0  0  0  0  0  0  0  0  0
    2.9784   16.2375   38.5296 C   0  0  0  0  0  0  0  0  0  0  0  0
    1.0516   20.4716   41.1953 C   0  0  0  0  0  0  0  0  0  0  0  0
    4.7839   13.9544   37.2355 O   0  0  0  0  0  0  0  0  0  0  0  0
    1.2292   14.9205   41.3169 O   0  0  0  0  0  0  0  0  0  0  0  0
   -0.3207   18.5579   44.2771 C   0  0  0  0  0  0  0  0  0  0  0  0
   -1.0445   18.9661   45.4755 N   0  0  0  0  0  0  0  0  0  0  0  0
    3.1488   18.1354   37.3385 C   0  0  0  0  0  0  0  0  0  0  0  0
    3.5946   19.3603   35.6245 C   0  0  0  0  0  0  0  0  0  0  0  0
   -0.6422   20.7129   43.4402 N   0  0  0  0  0  0  0  0  0  0  0  0
    2.7465   13.7684   36.2765 O   0  0  0  0  0  0  0  0  0  0  0  0
    3.6489   17.1494   36.6332 N   0  0  0  0  0  0  0  0  0  0  0  0
    0.7108   19.2439   42.1303 C   0  0  0  0  0  0  0  0  0  0  0  0
    0.4244   21.6769   41.6443 C   0  0  0  0  0  0  0  0  0  0  0  0
   -0.0796   19.5165   43.2723 C   0  0  0  0  0  0  0  0  0  0  0  0
    2.7805   19.4618   36.7596 C   0  0  0  0  0  0  0  0  0  0  0  0
    2.3809   19.7094   39.2724 O   0  0  0  0  0  0  0  0  0  0  0  0
    1.7091   17.2682   40.7898 C   0  0  1  0  0  0  0  0  0  0  0  0
    1.7415   15.7316   40.5747 C   0  0  0  0  0  0  0  0  0  0  0  0
    2.6229   14.0502   39.3752 H   0  0  0  0  0  0  0  0  0  0  0  0
    2.2111   18.7956   40.8141 H   0  0  0  0  0  0  0  0  0  0  0  0
    0.7651   15.8157   42.7418 H   0  0  0  0  0  0  0  0  0  0  0  0
    2.2315   22.6257   35.8760 H   0  0  0  0  0  0  0  0  0  0  0  0
    1.0227   21.4099   35.1222 H   0  0  0  0  0  0  0  0  0  0  0  0
    1.6053   21.5803   39.4126 H   0  0  0  0  0  0  0  0  0  0  0  0
    2.9825   21.1625   40.5322 H   0  0  0  0  0  0  0  0  0  0  0  0
    3.9495   19.7702   33.6766 H   0  0  0  0  0  0  0  0  0  0  0  0
   -0.8174   22.7560   43.0060 H   0  0  0  0  0  0  0  0  0  0  0  0
   -0.2636   16.5197   44.9175 H   0  0  0  0  0  0  0  0  0  0  0  0
   -1.2887   19.9566   45.6174 H   0  0  0  0  0  0  0  0  0  0  0  0
   -1.3117   18.2638   46.1800 H   0  0  0  0  0  0  0  0  0  0  0  0
    4.3729   18.5830   35.6385 H   0  0  0  0  0  0  0  0  0  0  0  0
    0.6133   22.5914   41.0629 H   0  0  0  0  0  0  0  0  0  0  0  0
    0.7356   17.3190   40.2803 H   0  0  0  0  0  0  0  0  0  0  0  0
  1 34  1  0
  2  8  1  0
  3 28  2  0
  3  5  1  0
  4  7  1  0
  4 33  1  0
  5 16  2  0
  6 11  2  0
  8  6  1  0
  9 19  1  0
  9 14  1  0
 10 18  1  0
 12  2  2  0
 13  2  1  0
 13 24  1  0
 14 17  1  0
 15 25  2  0
 16 21  1  0
 17  7  1  0
 17  1  2  0
 18 29  2  0
 18 28  1  0
 21 22  1  0
 23  7  2  0
 24 31  2  0
 26  9  2  0
 27 14  2  0
 27 23  1  0
 28 30  1  0
 29 15  1  0
 30 25  1  0
 30 21  2  0
 31  6  1  0
 31 23  1  0
 32  4  1  0
 32 10  1  0
 33 34  1  0
 33  3  1  0
 34 20  2  0
  1 35  1  0
  4 36  1  1
  5 37  1  0
  8 38  1  0
  8 39  1  0
 10 40  1  0
 10 41  1  0
 13 42  1  0
 15 43  1  0
 16 44  1  0
 22 45  1  0
 22 46  1  0
 24 47  1  0
 29 48  1  0
 33 49  1  1
M  CHG  1  19  -1
M  END
>  <mol_id>  (42) 
2026-09-18-3war-s0-n100-refligand-0043

>  <rmsd_to_ref>  (42) 


$$$$

     RDKit          3D

 14 14  0  0  0  0  0  0  0  0999 V2000
    3.2340   20.3570   36.6710 O   0  0  0  0  0  0  0  0  0  0  0  0
    1.8310   20.5120   39.1780 C   0  0  0  0  0  0  0  0  0  0  0  0
    2.6160   19.4280   38.6680 C   0  0  0  0  0  0  0  0  0  0  0  0
    1.3200   20.3530   40.5760 C   0  0  0  0  0  0  0  0  0  0  0  0
    3.1930   19.2900   37.4040 C   0  0  0  0  0  0  0  0  0  0  0  0
    2.8810   18.3320   39.4890 C   0  0  0  0  0  0  0  0  0  0  0  0
    1.0610   18.9340   40.8940 O   0  0  0  0  0  0  0  0  0  0  0  0
    2.0870   17.9960   40.5690 C   0  0  0  0  0  0  0  0  0  0  0  0
    3.5890   18.1380   36.8940 O   0  0  0  0  0  0  0  0  0  0  0  0
    1.6163   21.4085   38.5778 H   0  0  0  0  0  0  0  0  0  0  0  0
    2.0693   20.7468   41.2785 H   0  0  0  0  0  0  0  0  0  0  0  0
    0.3741   20.9073   40.6653 H   0  0  0  0  0  0  0  0  0  0  0  0
    3.7596   17.7084   39.2673 H   0  0  0  0  0  0  0  0  0  0  0  0
    2.2356   17.0677   41.1402 H   0  0  0  0  0  0  0  0  0  0  0  0
  1  5  2  0
  2  4  1  0
  3  2  2  0
  3  6  1  0
  4  7  1  0
  5  3  1  0
  6  8  2  0
  8  7  1  0
  9  5  1  0
  2 10  1  0
  4 11  1  0
  4 12  1  0
  6 13  1  0
  8 14  1  0
M  CHG  1   9  -1
M  END
>  <mol_id>  (43) 
2026-09-18-3war-s0-n100-refligand-0044

>  <rmsd_to_ref>  (43) 


$$$$

     RDKit          3D

 52 55  0  0  0  0  0  0  0  0999 V2000
    1.7049   20.6541   40.6656 C   0  0  0  0  0  0  0  0  0  0  0  0
    5.0622   22.3869   34.6206 C   0  0  0  0  0  0  0  0  0  0  0  0
    3.5356   16.6589   38.7673 C   0  0  0  0  0  0  0  0  0  0  0  0
    3.5202   18.4900   36.7034 C   0  0  0  0  0  0  0  0  0  0  0  0
    0.3999   21.6613   43.9112 N   0  0  0  0  0  0  0  0  0  0  0  0
    3.9201   23.0390   34.4544 C   0  0  0  0  0  0  0  0  0  0  0  0
    1.2500   19.5055   43.0745 C   0  0  0  0  0  0  0  0  0  0  0  0
    1.1091   21.3480   41.6209 C   0  0  0  0  0  0  0  0  0  0  0  0
    0.9465   20.8492   42.8894 C   0  0  0  0  0  0  0  0  0  0  0  0
    4.8743   16.5498   36.8166 C   0  0  0  0  0  0  0  0  0  0  0  0
    0.7955   22.6560   41.4396 O   0  0  0  0  0  0  0  0  0  0  0  0
    5.1760   21.2989   35.4717 C   0  0  0  0  0  0  0  0  0  0  0  0
    4.5889   14.7051   37.9720 C   0  0  0  0  0  0  0  0  0  0  0  0
    3.3020   14.5704   39.8470 O   0  0  0  0  0  0  0  0  0  0  0  0
   -0.0771   19.8956   45.6434 N   0  0  0  0  0  0  0  0  0  0  0  0
    2.9655   21.5751   35.9614 C   0  0  0  0  0  0  0  0  0  0  0  0
    4.0156   20.8328   36.1129 C   0  0  0  0  0  0  0  0  0  0  0  0
    1.7501   18.7735   42.1019 C   0  0  0  0  0  0  0  0  0  0  0  0
    0.5078   21.1908   45.3387 C   0  0  0  0  0  0  0  0  0  0  0  0
    2.4221   16.5769   40.6430 O   0  0  0  0  0  0  0  0  0  0  0  0
    2.9098   17.3099   39.8821 C   0  0  0  0  0  0  0  0  0  0  0  0
    2.7038   18.6182   39.9273 C   0  0  2  0  0  0  0  0  0  0  0  0
    2.8432   22.6202   35.1059 C   0  0  0  0  0  0  0  0  0  0  0  0
    3.2203   19.2028   38.9620 O   0  0  0  0  0  0  0  0  0  0  0  0
    3.7684   15.3365   38.9119 C   0  0  0  0  0  0  0  0  0  0  0  0
    2.0639   19.2392   40.9020 C   0  0  0  0  0  0  0  0  0  0  0  0
    4.1506   19.6796   36.8963 N   0  0  0  0  0  0  0  0  0  0  0  0
    3.8753   20.0725   38.2192 N   0  0  0  0  0  0  0  0  0  0  0  0
    5.1413   15.3340   36.9366 N   0  0  0  0  0  0  0  0  0  0  0  0
    3.9931   17.3699   37.6146 C   0  0  0  0  0  0  0  0  0  0  0  0
    1.9324   21.1275   39.6991 H   0  0  0  0  0  0  0  0  0  0  0  0
    5.9502   22.7207   34.0638 H   0  0  0  0  0  0  0  0  0  0  0  0
    2.4440   18.6402   36.8741 H   0  0  0  0  0  0  0  0  0  0  0  0
    3.7536   18.1759   35.6754 H   0  0  0  0  0  0  0  0  0  0  0  0
   -0.0613   22.5539   43.6843 H   0  0  0  0  0  0  0  0  0  0  0  0
    3.8664   23.9123   33.7877 H   0  0  0  0  0  0  0  0  0  0  0  0
    1.0680   19.0436   44.0560 H   0  0  0  0  0  0  0  0  0  0  0  0
    5.3810   17.0664   35.9881 H   0  0  0  0  0  0  0  0  0  0  0  0
    0.3495   23.1630   42.1636 H   0  0  0  0  0  0  0  0  0  0  0  0
    6.1485   20.8134   35.6407 H   0  0  0  0  0  0  0  0  0  0  0  0
    4.7889   13.6304   38.0947 H   0  0  0  0  0  0  0  0  0  0  0  0
    2.7134   14.9473   40.5482 H   0  0  0  0  0  0  0  0  0  0  0  0
   -0.1609   19.7884   46.6643 H   0  0  0  0  0  0  0  0  0  0  0  0
   -1.0109   19.8309   45.2136 H   0  0  0  0  0  0  0  0  0  0  0  0
    0.5259   19.1497   45.2682 H   0  0  0  0  0  0  0  0  0  0  0  0
    2.0912   21.3357   36.5846 H   0  0  0  0  0  0  0  0  0  0  0  0
    1.9187   17.7044   42.2982 H   0  0  0  0  0  0  0  0  0  0  0  0
    1.5767   21.1427   45.5942 H   0  0  0  0  0  0  0  0  0  0  0  0
   -0.0721   21.9166   45.9277 H   0  0  0  0  0  0  0  0  0  0  0  0
    1.7544   18.4874   39.3873 H   0  0  0  0  0  0  0  0  0  0  0  0
    1.8704   23.1109   34.9552 H   0  0  0  0  0  0  0  0  0  0  0  0
    4.7745   20.2666   38.6826 H   0  0  0  0  0  0  0  0  0  0  0  0
  1 26  2  0
  1  8  1  0
  2 12  1  0
  3 21  1  0
  4 27  1  0
  4 30  1  0
  5 19  1  0
  6  2  2  0
  6 23  1  0
  8  9  2  0
  9  7  1  0
  9  5  1  0
 10 30  2  0
 11  8  1  0
 12 17  2  0
 13 25  1  0
 16 17  1  0
 17 27  1  0
 18  7  2  0
 19 15  1  0
 21 22  1  0
 21 20  2  0
 22 26  1  0
 23 16  2  0
 24 22  1  0
 25  3  2  0
 25 14  1  0
 26 18  1  0
 27 28  1  0
 28 24  1  0
 29 10  1  0
 29 13  2  0
 30  3  1  0
  1 31  1  0
  2 32  1  0
  4 33  1  0
  4 34  1  0
  5 35  1  0
  6 36  1  0
  7 37  1  0
 10 38  1  0
 11 39  1  0
 12 40  1  0
 13 41  1  0
 14 42  1  0
 15 43  1  0
 15 44  1  0
 15 45  1  0
 16 46  1  0
 18 47  1  0
 19 48  1  0
 19 49  1  0
 22 50  1  6
 23 51  1  0
 28 52  1  0
M  CHG  1  15   1
M  END
>  <mol_id>  (44) 
2026-09-18-3war-s0-n100-refligand-0045

>  <rmsd_to_ref>  (44) 


$$$$

     RDKit          3D

 27 28  0  0  0  0  0  0  0  0999 V2000
    0.7628   19.6028   41.6406 C   0  0  0  0  0  0  0  0  0  0  0  0
    1.3515   18.5219   42.0254 C   0  0  0  0  0  0  0  0  0  0  0  0
    5.1438   17.2411   37.4656 C   0  0  0  0  0  0  0  0  0  0  0  0
    2.1153   17.5834   41.4503 C   0  0  0  0  0  0  0  0  0  0  0  0
    3.8547   17.7289   37.8432 O   0  0  0  0  0  0  0  0  0  0  0  0
    1.6130   21.0978   38.2799 C   0  0  0  0  0  0  0  0  0  0  0  0
    2.3935   19.0111   39.2488 C   0  0  0  0  0  0  0  0  0  0  0  0
    3.0452   19.7054   36.9881 N   0  0  0  0  0  0  0  0  0  0  0  0
    2.3324   20.8385   37.1169 C   0  0  0  0  0  0  0  0  0  0  0  0
    1.5978   20.1574   39.3310 C   0  0  0  0  0  0  0  0  0  0  0  0
    3.1351   18.8772   37.9776 C   0  0  0  0  0  0  0  0  0  0  0  0
    2.5363   17.9752   40.2083 C   0  0  0  0  0  0  0  0  0  0  0  0
    0.0973   21.5261   40.5596 N   0  0  0  0  0  0  0  0  0  0  0  0
    0.8389   20.4097   40.5562 C   0  0  0  0  0  0  0  0  0  0  0  0
    0.0185   19.9545   42.3703 H   0  0  0  0  0  0  0  0  0  0  0  0
    1.1847   18.3196   43.0937 H   0  0  0  0  0  0  0  0  0  0  0  0
    5.7453   17.0578   38.3682 H   0  0  0  0  0  0  0  0  0  0  0  0
    5.0305   16.3022   36.9037 H   0  0  0  0  0  0  0  0  0  0  0  0
    5.6479   17.9877   36.8344 H   0  0  0  0  0  0  0  0  0  0  0  0
    2.9948   17.3991   42.0848 H   0  0  0  0  0  0  0  0  0  0  0  0
    1.5154   16.6680   41.3400 H   0  0  0  0  0  0  0  0  0  0  0  0
    1.0541   22.0400   38.3798 H   0  0  0  0  0  0  0  0  0  0  0  0
    2.3176   21.5684   36.2940 H   0  0  0  0  0  0  0  0  0  0  0  0
    3.2317   17.2195   39.8142 H   0  0  0  0  0  0  0  0  0  0  0  0
   -0.1072   21.7994   41.5314 H   0  0  0  0  0  0  0  0  0  0  0  0
    0.6149   22.2836   40.0915 H   0  0  0  0  0  0  0  0  0  0  0  0
   -0.7858   21.3531   40.0586 H   0  0  0  0  0  0  0  0  0  0  0  0
  1  2  2  0
  3  5  1  0
  4  2  1  0
  5 11  1  0
  6 10  1  0
  7 10  1  0
  7 12  2  0
  8  9  1  0
  8 11  2  0
  9  6  2  0
 10 14  2  0
 11  7  1  0
 12  4  1  0
 14 13  1  0
 14  1  1  0
  1 15  1  0
  2 16  1  0
  3 17  1  0
  3 18  1  0
  3 19  1  0
  4 20  1  0
  4 21  1  0
  6 22  1  0
  9 23  1  0
 12 24  1  0
 13 25  1  0
 13 26  1  0
 13 27  1  0
M  CHG  1  13   1
M  END
>  <mol_id>  (45) 
2026-09-18-3war-s0-n100-refligand-0046

>  <rmsd_to_ref>  (45) 


$$$$

     RDKit          3D

 15 15  0  0  0  0  0  0  0  0999 V2000
    2.1380   18.6460   39.7590 C   0  0  0  0  0  0  0  0  0  0  0  0
    2.3430   19.6230   38.7790 C   0  0  0  0  0  0  0  0  0  0  0  0
    1.0070   20.2280   41.2020 C   0  0  0  0  0  0  0  0  0  0  0  0
    1.1360   21.2340   40.2000 C   0  0  0  0  0  0  0  0  0  0  0  0
    1.4990   18.9650   40.9230 C   0  0  0  0  0  0  0  0  0  0  0  0
    1.8160   20.9560   39.0160 C   0  0  0  0  0  0  0  0  0  0  0  0
    1.3530   17.9640   41.8680 O   0  0  0  0  0  0  0  0  0  0  0  0
    3.3930   20.1230   36.6460 O   0  0  0  0  0  0  0  0  0  0  0  0
    2.9550   18.0440   37.1880 O   0  0  0  0  0  0  0  0  0  0  0  0
    2.9150   19.2960   37.3930 C   0  0  0  0  0  0  0  0  0  0  0  0
    2.4924   17.6182   39.5916 H   0  0  0  0  0  0  0  0  0  0  0  0
    0.5304   20.4492   42.1684 H   0  0  0  0  0  0  0  0  0  0  0  0
    0.6985   22.2302   40.3617 H   0  0  0  0  0  0  0  0  0  0  0  0
    1.9536   21.7448   38.2617 H   0  0  0  0  0  0  0  0  0  0  0  0
    0.8955   18.1551   42.7249 H   0  0  0  0  0  0  0  0  0  0  0  0
  1  5  2  0
  2  6  2  0
  2  1  1  0
  4  3  2  0
  5  3  1  0
  5  7  1  0
  6  4  1  0
  8 10  2  0
  9 10  1  0
 10  2  1  0
  1 11  1  0
  3 12  1  0
  4 13  1  0
  6 14  1  0
  7 15  1  0
M  CHG  1   9  -1
M  END
>  <mol_id>  (46) 
2026-09-18-3war-s0-n100-refligand-0047

>  <rmsd_to_ref>  (46) 


$$$$

     RDKit          3D

 25 27  0  0  0  0  0  0  0  0999 V2000
    0.6583   17.5063   42.9233 C   0  0  0  0  0  0  0  0  0  0  0  0
    2.5532   20.3222   37.6465 C   0  0  0  0  0  0  0  0  0  0  0  0
    2.0760   17.7389   40.5069 N   0  0  0  0  0  0  0  0  0  0  0  0
    0.4675   19.0956   41.6179 C   0  0  0  0  0  0  0  0  0  0  0  0
    3.3754   19.1927   37.7207 C   0  0  0  0  0  0  0  0  0  0  0  0
    1.1761   17.6821   41.4608 C   0  0  0  0  0  0  0  0  0  0  0  0
    0.2657   19.6811   40.2411 C   0  0  0  0  0  0  0  0  0  0  0  0
    3.2588   18.3097   38.6779 C   0  0  0  0  0  0  0  0  0  0  0  0
    1.3051   19.5583   39.5909 C   0  0  0  0  0  0  0  0  0  0  0  0
    1.5211   20.4798   38.5511 C   0  0  0  0  0  0  0  0  0  0  0  0
    2.2798   18.6130   39.6218 C   0  0  0  0  0  0  0  0  0  0  0  0
    1.6185   17.0979   42.2970 C   0  0  0  0  0  0  0  0  0  0  0  0
    0.7450   18.3037   43.6760 H   0  0  0  0  0  0  0  0  0  0  0  0
   -0.2157   17.1406   43.4822 H   0  0  0  0  0  0  0  0  0  0  0  0
    2.7281   21.0822   36.8707 H   0  0  0  0  0  0  0  0  0  0  0  0
    2.7220   16.9373   40.4766 H   0  0  0  0  0  0  0  0  0  0  0  0
   -0.5057   18.9703   42.1150 H   0  0  0  0  0  0  0  0  0  0  0  0
    1.0913   19.7663   42.2270 H   0  0  0  0  0  0  0  0  0  0  0  0
    4.1447   19.0426   36.9488 H   0  0  0  0  0  0  0  0  0  0  0  0
   -0.5516   19.1495   39.7317 H   0  0  0  0  0  0  0  0  0  0  0  0
    0.0084   20.7470   40.3276 H   0  0  0  0  0  0  0  0  0  0  0  0
    3.8808   17.4041   38.7333 H   0  0  0  0  0  0  0  0  0  0  0  0
    0.8518   21.3475   38.4557 H   0  0  0  0  0  0  0  0  0  0  0  0
    1.6538   16.0090   42.1448 H   0  0  0  0  0  0  0  0  0  0  0  0
    2.6586   17.2140   42.6356 H   0  0  0  0  0  0  0  0  0  0  0  0
  2  5  2  0
  2 10  1  0
  3  6  1  0
  5  8  1  0
  6  4  1  0
  6 12  1  0
  6  1  1  0
  7  4  1  0
  8 11  2  0
  9 11  1  0
  9  7  1  0
 10  9  2  0
 11  3  1  0
 12  1  1  0
  1 13  1  0
  1 14  1  0
  2 15  1  0
  3 16  1  0
  4 17  1  0
  4 18  1  0
  5 19  1  0
  7 20  1  0
  7 21  1  0
  8 22  1  0
 10 23  1  0
 12 24  1  0
 12 25  1  0
M  END
>  <mol_id>  (47) 
2026-09-18-3war-s0-n100-refligand-0048

>  <rmsd_to_ref>  (47) 


$$$$

     RDKit          3D

 36 38  0  0  0  0  0  0  0  0999 V2000
    2.4450   21.0507   36.8226 N   0  0  0  0  0  0  0  0  0  0  0  0
    1.9940   20.5355   39.2427 C   0  0  0  0  0  0  0  0  0  0  0  0
    3.8656   17.1608   38.9701 C   0  0  0  0  0  0  0  0  0  0  0  0
    1.8311   16.6889   40.5052 C   0  0  1  0  0  0  0  0  0  0  0  0
    2.9570   20.6992   35.5940 O   0  0  0  0  0  0  0  0  0  0  0  0
    3.6495   15.8827   39.3595 C   0  0  0  0  0  0  0  0  0  0  0  0
    2.4144   20.1363   37.8522 C   0  0  0  0  0  0  0  0  0  0  0  0
   -0.3818   18.4430   42.8571 C   0  0  0  0  0  0  0  0  0  0  0  0
    2.0375   22.0911   37.0335 O   0  0  0  0  0  0  0  0  0  0  0  0
    0.8254   15.3316   42.7345 O   0  0  0  0  0  0  0  0  0  0  0  0
    3.0887   18.2902   39.3331 C   0  0  0  0  0  0  0  0  0  0  0  0
   -0.4670   19.7495   42.2433 C   0  0  0  0  0  0  0  0  0  0  0  0
   -0.1017   16.0525   42.3864 C   0  0  0  0  0  0  0  0  0  0  0  0
    0.3526   20.0755   41.1724 C   0  0  0  0  0  0  0  0  0  0  0  0
    1.9908   18.0241   40.2100 C   0  0  2  0  0  0  0  0  0  0  0  0
    0.2899   17.4502   42.0657 C   0  0  0  0  0  0  0  0  0  0  0  0
   -1.4124   15.5985   42.2037 O   0  0  0  0  0  0  0  0  0  0  0  0
    2.6236   15.5932   40.2327 C   0  0  0  0  0  0  0  0  0  0  0  0
    1.1028   17.4904   41.1106 C   0  0  0  0  0  0  0  0  0  0  0  0
    1.2992   19.6687   40.2480 C   0  0  0  0  0  0  0  0  0  0  0  0
    1.3287   21.4002   39.1028 H   0  0  0  0  0  0  0  0  0  0  0  0
    2.9835   20.6075   39.7180 H   0  0  0  0  0  0  0  0  0  0  0  0
    4.7261   17.3406   38.3088 H   0  0  0  0  0  0  0  0  0  0  0  0
    1.6943   15.6021   40.4047 H   0  0  0  0  0  0  0  0  0  0  0  0
    4.2924   15.0754   38.9790 H   0  0  0  0  0  0  0  0  0  0  0  0
    1.7283   19.3362   37.5375 H   0  0  0  0  0  0  0  0  0  0  0  0
    3.4787   19.8928   37.9860 H   0  0  0  0  0  0  0  0  0  0  0  0
    0.1598   18.5463   43.8089 H   0  0  0  0  0  0  0  0  0  0  0  0
   -1.4164   18.0913   42.9837 H   0  0  0  0  0  0  0  0  0  0  0  0
    3.7525   19.0129   39.8302 H   0  0  0  0  0  0  0  0  0  0  0  0
    2.6459   18.6659   38.3989 H   0  0  0  0  0  0  0  0  0  0  0  0
   -1.5037   19.8681   41.8953 H   0  0  0  0  0  0  0  0  0  0  0  0
   -0.1157   20.4222   43.0396 H   0  0  0  0  0  0  0  0  0  0  0  0
    0.1655   21.1391   40.9632 H   0  0  0  0  0  0  0  0  0  0  0  0
    3.0567   15.2289   41.1760 H   0  0  0  0  0  0  0  0  0  0  0  0
    1.9869   14.8328   39.7569 H   0  0  0  0  0  0  0  0  0  0  0  0
  1  9  1  0
  1  7  1  0
  2 20  1  0
  3  6  2  0
  3 11  1  0
  4 18  1  0
  4 19  1  0
  5  1  2  0
  6 18  1  0
  7  2  1  0
 10 13  2  0
 12  8  1  0
 13 17  1  0
 14 12  1  0
 15 11  1  1
 15  4  1  0
 15 20  1  0
 15 19  1  0
 16 13  1  0
 16  8  1  0
 19 16  2  0
 20 14  2  0
  2 21  1  0
  2 22  1  0
  3 23  1  0
  4 24  1  6
  6 25  1  0
  7 26  1  0
  7 27  1  0
  8 28  1  0
  8 29  1  0
 11 30  1  0
 11 31  1  0
 12 32  1  0
 12 33  1  0
 14 34  1  0
 18 35  1  0
 18 36  1  0
M  CHG  3   1   1   9  -1  17  -1
M  END
>  <mol_id>  (48) 
2026-09-18-3war-s0-n100-refligand-0049

>  <rmsd_to_ref>  (48) 


$$$$

     RDKit          3D

 16 17  0  0  0  0  0  0  0  0999 V2000
    2.1362   20.7018   36.8275 C   0  0  0  0  0  0  0  0  0  0  0  0
    1.4827   19.2587   42.3807 C   0  0  0  0  0  0  0  0  0  0  0  0
    1.7321   19.3624   40.9562 C   0  0  0  0  0  0  0  0  0  0  0  0
    1.4821   20.4666   40.3313 N   0  0  0  0  0  0  0  0  0  0  0  0
    2.9698   18.5734   37.7811 C   0  0  0  0  0  0  0  0  0  0  0  0
    1.8051   20.1886   39.1028 C   0  0  0  0  0  0  0  0  0  0  0  0
    2.7779   19.4792   36.6664 C   0  0  0  0  0  0  0  0  0  0  0  0
    2.4737   18.9363   38.9533 C   0  0  0  0  0  0  0  0  0  0  0  0
    2.3445   18.3933   40.1903 N   0  0  0  0  0  0  0  0  0  0  0  0
    1.6510   21.0836   38.0686 C   0  0  0  0  0  0  0  0  0  0  0  0
    1.2524   19.0850   43.4627 N   0  0  0  0  0  0  0  0  0  0  0  0
    2.0125   21.3714   35.9635 H   0  0  0  0  0  0  0  0  0  0  0  0
    3.5069   17.6214   37.6579 H   0  0  0  0  0  0  0  0  0  0  0  0
    3.1481   19.1932   35.6709 H   0  0  0  0  0  0  0  0  0  0  0  0
    2.6414   17.4547   40.4931 H   0  0  0  0  0  0  0  0  0  0  0  0
    1.1645   22.0585   38.2202 H   0  0  0  0  0  0  0  0  0  0  0  0
  1  7  2  0
  1 10  1  0
  2 11  3  0
  3  2  1  0
  4  3  2  0
  5  8  2  0
  6  8  1  0
  6  4  1  0
  7  5  1  0
  8  9  1  0
  9  3  1  0
 10  6  2  0
  1 12  1  0
  5 13  1  0
  7 14  1  0
  9 15  1  0
 10 16  1  0
M  END
>  <mol_id>  (49) 
2026-09-18-3war-s0-n100-refligand-0050

>  <rmsd_to_ref>  (49) 


$$$$

     RDKit          3D

 14 14  0  0  0  0  0  0  0  0999 V2000
    2.5554   18.8387   40.5691 N   0  0  0  0  0  0  0  0  0  0  0  0
    3.1846   17.7392   40.2181 C   0  0  0  0  0  0  0  0  0  0  0  0
    2.3589   19.7950   39.6860 C   0  0  0  0  0  0  0  0  0  0  0  0
    3.5791   17.4150   39.0321 C   0  0  0  0  0  0  0  0  0  0  0  0
    3.3743   18.3655   38.0066 C   0  0  0  0  0  0  0  0  0  0  0  0
    1.9243   21.5848   37.5193 O   0  0  0  0  0  0  0  0  0  0  0  0
    1.5023   21.2270   40.2902 S   0  0  0  0  0  0  0  0  0  0  0  0
    2.5612   20.4656   37.3050 C   0  0  0  0  0  0  0  0  0  0  0  0
    2.7308   19.5907   38.3176 C   0  0  0  0  0  0  0  0  0  0  0  0
    2.8619   20.2060   36.1192 O   0  0  0  0  0  0  0  0  0  0  0  0
    2.2161   18.9520   41.5350 H   0  0  0  0  0  0  0  0  0  0  0  0
    3.3978   17.0179   41.0208 H   0  0  0  0  0  0  0  0  0  0  0  0
    4.0530   16.4433   38.8293 H   0  0  0  0  0  0  0  0  0  0  0  0
    3.7098   18.1577   36.9798 H   0  0  0  0  0  0  0  0  0  0  0  0
  2  1  1  0
  3  1  1  0
  3  7  2  0
  4  2  2  0
  5  4  1  0
  5  9  2  0
  8  6  1  0
  8  9  1  0
  9  3  1  0
 10  8  2  0
  1 11  1  0
  2 12  1  0
  4 13  1  0
  5 14  1  0
M  CHG  1   6  -1
M  END
>  <mol_id>  (50) 
2026-09-18-3war-s0-n100-refligand-0051

>  <rmsd_to_ref>  (50) 


$$$$

     RDKit          3D

 13 13  0  0  0  0  0  0  0  0999 V2000
    0.9610   21.5840   40.8530 Cl  0  0  0  0  0  0  0  0  0  0  0  0
    2.3690   19.4390   40.6250 C   0  0  0  0  0  0  0  0  0  0  0  0
    2.4150   17.9470   39.7970 S   0  0  0  0  0  0  0  0  0  0  0  0
    3.1580   20.0780   36.5460 O   0  0  0  0  0  0  0  0  0  0  0  0
    1.8210   20.5600   39.9940 C   0  0  0  0  0  0  0  0  0  0  0  0
    2.0900   20.8120   38.5390 C   0  0  0  0  0  0  0  0  0  0  0  0
    2.9360   18.3710   38.2070 C   0  0  0  0  0  0  0  0  0  0  0  0
    2.7010   19.8050   37.7010 C   0  0  0  0  0  0  0  0  0  0  0  0
    1.7907   19.2759   41.5464 H   0  0  0  0  0  0  0  0  0  0  0  0
    3.4306   19.7020   40.7427 H   0  0  0  0  0  0  0  0  0  0  0  0
    1.8165   21.7833   38.1012 H   0  0  0  0  0  0  0  0  0  0  0  0
    4.0198   18.1878   38.1637 H   0  0  0  0  0  0  0  0  0  0  0  0
    2.3056   17.7536   37.5502 H   0  0  0  0  0  0  0  0  0  0  0  0
  3  2  1  0
  4  8  2  0
  5  2  1  0
  5  1  1  0
  6  5  2  0
  7  3  1  0
  8  7  1  0
  8  6  1  0
  2  9  1  0
  2 10  1  0
  6 11  1  0
  7 12  1  0
  7 13  1  0
M  END
>  <mol_id>  (51) 
2026-09-18-3war-s0-n100-refligand-0052

>  <rmsd_to_ref>  (51) 


$$$$

     RDKit          3D

 37 40  0  0  0  0  0  0  0  0999 V2000
    4.0407   16.6115   39.1918 C   0  0  0  0  0  0  0  0  0  0  0  0
    0.9500   17.4615   42.9414 O   0  0  0  0  0  0  0  0  0  0  0  0
    3.2638   20.3312   35.1701 O   0  0  0  0  0  0  0  0  0  0  0  0
    1.6773   15.1530   41.9933 F   0  0  0  0  0  0  0  0  0  0  0  0
    2.3640   15.6556   41.0300 C   0  0  0  0  0  0  0  0  0  0  0  0
    2.2980   20.0117   39.5911 C   0  0  0  0  0  0  0  0  0  0  0  0
    2.1832   21.0023   35.3862 C   0  0  0  0  0  0  0  0  0  0  0  0
    3.2696   14.8149   40.1735 C   0  0  0  0  0  0  0  0  0  0  0  0
    2.1690   20.7331   38.4116 C   0  0  0  0  0  0  0  0  0  0  0  0
    3.4382   19.1086   37.9317 N   0  0  0  0  0  0  0  0  0  0  0  0
    0.5457   19.5880   43.2083 N   0  0  0  0  0  0  0  0  0  0  0  0
    1.6139   18.7347   41.3660 C   0  0  0  0  0  0  0  0  0  0  0  0
    0.6139   20.8916   42.7674 C   0  0  0  0  0  0  0  0  0  0  0  0
    1.7271   19.9130   40.8270 C   0  0  0  0  0  0  0  0  0  0  0  0
    2.9339   18.8066   39.2661 C   0  0  0  0  0  0  0  0  0  0  0  0
    0.9408   18.6194   42.5218 C   0  0  0  0  0  0  0  0  0  0  0  0
    1.5989   21.6538   35.6890 O   0  0  0  0  0  0  0  0  0  0  0  0
    3.1723   17.4900   39.7910 C   0  0  0  0  0  0  0  0  0  0  0  0
    3.2078   20.1609   36.0074 C   0  0  0  0  0  0  0  0  0  0  0  0
    2.3818   17.2287   40.8750 C   0  0  0  0  0  0  0  0  0  0  0  0
    2.9559   20.0560   37.4540 C   0  0  2  0  0  0  0  0  0  0  0  0
    4.1757   15.2793   39.4573 N   0  0  0  0  0  0  0  0  0  0  0  0
    1.2152   20.9538   41.5667 C   0  0  0  0  0  0  0  0  0  0  0  0
    4.6987   17.0259   38.4137 H   0  0  0  0  0  0  0  0  0  0  0  0
    1.9210   21.1170   34.3240 H   0  0  0  0  0  0  0  0  0  0  0  0
    2.2240   20.6330   36.4215 H   0  0  0  0  0  0  0  0  0  0  0  0
    3.1228   13.7248   40.1802 H   0  0  0  0  0  0  0  0  0  0  0  0
    1.1167   20.7591   38.0924 H   0  0  0  0  0  0  0  0  0  0  0  0
    2.4967   21.7755   38.5386 H   0  0  0  0  0  0  0  0  0  0  0  0
    4.1526   18.5389   37.4565 H   0  0  0  0  0  0  0  0  0  0  0  0
    0.1529   19.4031   44.1423 H   0  0  0  0  0  0  0  0  0  0  0  0
    0.2296   21.7609   43.3211 H   0  0  0  0  0  0  0  0  0  0  0  0
    1.7031   21.7615   36.6676 H   0  0  0  0  0  0  0  0  0  0  0  0
    2.9293   19.1117   35.8292 H   0  0  0  0  0  0  0  0  0  0  0  0
    3.6397   21.1547   36.1965 H   0  0  0  0  0  0  0  0  0  0  0  0
    2.0366   19.4865   37.2526 H   0  0  0  0  0  0  0  0  0  0  0  0
    1.3091   21.9560   41.1231 H   0  0  0  0  0  0  0  0  0  0  0  0
  1 22  1  0
  1 18  2  0
  3  7  1  0
  3 19  1  0
  5 20  2  0
  5  4  1  0
  6 14  1  0
  7 17  1  0
  8  5  1  0
  9  6  1  0
 10 15  1  0
 12 16  1  0
 13 11  1  0
 14 12  2  0
 14 23  1  0
 15 18  1  0
 15  6  2  0
 16  2  2  0
 16 11  1  0
 18 20  1  0
 20 12  1  0
 21 19  1  0
 21 10  1  0
 21  9  1  0
 22  8  2  0
 23 13  2  0
  1 24  1  0
  7 25  1  0
  7 26  1  0
  8 27  1  0
  9 28  1  0
  9 29  1  0
 10 30  1  0
 11 31  1  0
 13 32  1  0
 17 33  1  0
 19 34  1  0
 19 35  1  0
 21 36  1  1
 23 37  1  0
M  END
>  <mol_id>  (52) 
2026-09-18-3war-s0-n100-refligand-0053

>  <rmsd_to_ref>  (52) 


$$$$

     RDKit          3D

 17 17  0  0  0  0  0  0  0  0999 V2000
    3.5579   17.0122   38.2399 C   0  0  0  0  0  0  0  0  0  0  0  0
    0.8162   20.2375   40.5855 O   0  0  0  0  0  0  0  0  0  0  0  0
    2.4364   21.4008   36.4290 O   0  0  0  0  0  0  0  0  0  0  0  0
    3.0228   19.2945   37.3575 C   0  0  0  0  0  0  0  0  0  0  0  0
    4.2487   16.8249   37.2696 O   0  0  0  0  0  0  0  0  0  0  0  0
    2.9367   18.3680   38.4116 C   0  0  0  0  0  0  0  0  0  0  0  0
    3.4366   16.1064   39.0387 O   0  0  0  0  0  0  0  0  0  0  0  0
    2.3962   18.0912   40.6687 O   0  0  0  0  0  0  0  0  0  0  0  0
    1.5009   20.8075   38.4637 C   0  0  0  0  0  0  0  0  0  0  0  0
    2.3275   18.8057   39.5587 C   0  0  0  0  0  0  0  0  0  0  0  0
    2.3754   20.4720   37.4425 C   0  0  0  0  0  0  0  0  0  0  0  0
    1.5001   19.9085   39.5046 C   0  0  0  0  0  0  0  0  0  0  0  0
    0.7873   19.6213   41.3597 H   0  0  0  0  0  0  0  0  0  0  0  0
    1.9515   22.2597   36.5149 H   0  0  0  0  0  0  0  0  0  0  0  0
    3.6188   19.0574   36.4639 H   0  0  0  0  0  0  0  0  0  0  0  0
    1.9535   18.4140   41.4933 H   0  0  0  0  0  0  0  0  0  0  0  0
    0.8679   21.7069   38.4437 H   0  0  0  0  0  0  0  0  0  0  0  0
  1  7  1  0
  3 11  1  0
  4  6  2  0
  5  1  2  0
  6  1  1  0
  6 10  1  0
  9 12  1  0
 10  8  1  0
 11  4  1  0
 11  9  2  0
 12 10  2  0
 12  2  1  0
  2 13  1  0
  3 14  1  0
  4 15  1  0
  8 16  1  0
  9 17  1  0
M  CHG  1   7  -1
M  END
>  <mol_id>  (53) 
2026-09-18-3war-s0-n100-refligand-0054

>  <rmsd_to_ref>  (53) 


$$$$

     RDKit          3D

 22 22  0  0  0  0  0  0  0  0999 V2000
    1.8827   18.2651   40.9908 C   0  0  0  0  0  0  0  0  0  0  0  0
    2.0243   20.6762   39.7661 C   0  0  0  0  0  0  0  0  0  0  0  0
    0.8854   18.8484   42.9329 C   0  0  0  0  0  0  0  0  0  0  0  0
    1.4185   20.6646   40.9172 C   0  0  0  0  0  0  0  0  0  0  0  0
    3.7609   20.0078   38.3606 O   0  0  0  0  0  0  0  0  0  0  0  0
    1.6358   19.1647   41.6855 C   0  0  2  0  0  0  0  0  0  0  0  0
    2.9029   19.6659   39.3827 C   0  0  0  0  0  0  0  0  0  0  0  0
    2.4416   20.5665   36.7163 O   0  0  0  0  0  0  0  0  0  0  0  0
    3.3022   19.6736   37.1612 C   0  0  0  0  0  0  0  0  0  0  0  0
    3.7217   18.5986   36.8270 O   0  0  0  0  0  0  0  0  0  0  0  0
    2.7601   18.5350   40.0902 C   0  0  0  0  0  0  0  0  0  0  0  0
    2.2640   17.4409   41.6116 H   0  0  0  0  0  0  0  0  0  0  0  0
    0.9535   17.9988   40.4659 H   0  0  0  0  0  0  0  0  0  0  0  0
    1.2330   20.7018   39.0025 H   0  0  0  0  0  0  0  0  0  0  0  0
    2.6975   21.5400   39.8690 H   0  0  0  0  0  0  0  0  0  0  0  0
    1.3604   19.3561   43.7853 H   0  0  0  0  0  0  0  0  0  0  0  0
   -0.1541   19.1942   42.8331 H   0  0  0  0  0  0  0  0  0  0  0  0
    0.8956   17.7615   43.1013 H   0  0  0  0  0  0  0  0  0  0  0  0
    1.8330   21.4609   41.5529 H   0  0  0  0  0  0  0  0  0  0  0  0
    0.3432   20.8307   40.7562 H   0  0  0  0  0  0  0  0  0  0  0  0
    2.5945   19.4005   42.1705 H   0  0  0  0  0  0  0  0  0  0  0  0
    3.4856   17.7374   39.8723 H   0  0  0  0  0  0  0  0  0  0  0  0
  1  6  1  0
  2  4  1  0
  4  6  1  0
  5  7  1  0
  6  3  1  0
  7 11  2  0
  7  2  1  0
  8  9  1  0
  9  5  1  0
 10  9  2  0
 11  1  1  0
  1 12  1  0
  1 13  1  0
  2 14  1  0
  2 15  1  0
  3 16  1  0
  3 17  1  0
  3 18  1  0
  4 19  1  0
  4 20  1  0
  6 21  1  1
 11 22  1  0
M  CHG  1   8  -1
M  END
>  <mol_id>  (54) 
2026-09-18-3war-s0-n100-refligand-0055

>  <rmsd_to_ref>  (54) 


$$$$

     RDKit          3D

 17 17  0  0  0  0  0  0  0  0999 V2000
    1.7180   20.6940   39.9000 C   0  0  0  0  0  0  0  0  0  0  0  0
    2.2730   20.5330   38.6340 C   0  0  1  0  0  0  0  0  0  0  0  0
    2.6590   19.2070   38.0540 C   0  0  0  0  0  0  0  0  0  0  0  0
    1.9240   19.6650   40.7570 C   0  0  0  0  0  0  0  0  0  0  0  0
    2.4550   18.4150   40.3600 C   0  0  0  0  0  0  0  0  0  0  0  0
    3.0130   19.0450   36.8630 O   0  0  0  0  0  0  0  0  0  0  0  0
    2.8130   18.2690   39.1950 C   0  0  2  0  0  0  0  0  0  0  0  0
    1.9790   21.4310   37.6290 O   0  0  0  0  0  0  0  0  0  0  0  0
    3.6880   17.4290   38.6560 O   0  0  0  0  0  0  0  0  0  0  0  0
    0.6324   20.8252   39.7811 H   0  0  0  0  0  0  0  0  0  0  0  0
    2.2209   21.5656   40.3443 H   0  0  0  0  0  0  0  0  0  0  0  0
    3.1864   20.8387   39.1653 H   0  0  0  0  0  0  0  0  0  0  0  0
    1.6650   19.8088   41.8164 H   0  0  0  0  0  0  0  0  0  0  0  0
    2.5453   17.5897   41.0817 H   0  0  0  0  0  0  0  0  0  0  0  0
    2.0208   17.9156   39.8714 H   0  0  0  0  0  0  0  0  0  0  0  0
    1.6971   22.2921   38.0279 H   0  0  0  0  0  0  0  0  0  0  0  0
    4.1790   16.9577   39.3750 H   0  0  0  0  0  0  0  0  0  0  0  0
  1  4  1  0
  2  8  1  0
  2  1  1  0
  3  2  1  0
  3  7  1  0
  5  4  2  0
  6  3  2  0
  7  9  1  0
  7  5  1  0
  1 10  1  0
  1 11  1  0
  2 12  1  1
  4 13  1  0
  5 14  1  0
  7 15  1  6
  8 16  1  0
  9 17  1  0
M  END
>  <mol_id>  (55) 
2026-09-18-3war-s0-n100-refligand-0056

>  <rmsd_to_ref>  (55) 


$$$$

     RDKit          3D

 40 42  0  0  0  0  0  0  0  0999 V2000
    3.1915   18.9941   37.5746 N   0  0  0  0  0  0  0  0  0  0  0  0
    3.9414   14.3398   36.7940 C   0  0  0  0  0  0  0  0  0  0  0  0
    4.0492   16.8031   37.1250 N   0  0  0  0  0  0  0  0  0  0  0  0
    3.9151   15.6022   37.4921 N   0  0  0  0  0  0  0  0  0  0  0  0
    3.1613   19.4426   36.5671 C   0  0  0  0  0  0  0  0  0  0  0  0
    1.0919   20.7114   40.5530 C   0  0  0  0  0  0  0  0  0  0  0  0
    0.2459   19.1670   43.3427 C   0  0  0  0  0  0  0  0  0  0  0  0
    2.9254   20.6943   36.4040 O   0  0  0  0  0  0  0  0  0  0  0  0
   -0.0113   20.4467   42.8125 C   0  0  0  0  0  0  0  0  0  0  0  0
   -0.3001   18.7045   44.6444 C   0  0  0  0  0  0  0  0  0  0  0  0
    1.6547   19.5189   40.4326 C   0  0  0  0  0  0  0  0  0  0  0  0
    1.5874   18.4411   41.3713 C   0  0  0  0  0  0  0  0  0  0  0  0
   -0.7925   21.2087   43.5666 O   0  0  0  0  0  0  0  0  0  0  0  0
    0.9565   18.1600   42.6712 C   0  0  0  0  0  0  0  0  0  0  0  0
    2.2245   20.5847   38.5628 C   0  0  0  0  0  0  0  0  0  0  0  0
    3.5230   17.7544   37.9143 C   0  0  0  0  0  0  0  0  0  0  0  0
    2.5115   21.2113   37.4511 C   0  0  0  0  0  0  0  0  0  0  0  0
    3.2520   17.0011   39.0261 C   0  0  0  0  0  0  0  0  0  0  0  0
    3.5955   15.8559   38.6716 C   0  0  0  0  0  0  0  0  0  0  0  0
    1.4885   21.3495   39.4570 C   0  0  0  0  0  0  0  0  0  0  0  0
    2.3237   19.4912   39.2515 N   0  0  0  0  0  0  0  0  0  0  0  0
    0.4211   21.1426   41.6853 C   0  0  0  0  0  0  0  0  0  0  0  0
    4.0123   13.5191   37.5230 H   0  0  0  0  0  0  0  0  0  0  0  0
    3.0197   14.2276   36.2042 H   0  0  0  0  0  0  0  0  0  0  0  0
    4.8123   14.3101   36.1226 H   0  0  0  0  0  0  0  0  0  0  0  0
    3.3363   18.8064   35.6869 H   0  0  0  0  0  0  0  0  0  0  0  0
    0.2493   19.1885   45.4652 H   0  0  0  0  0  0  0  0  0  0  0  0
   -1.3657   18.9696   44.7100 H   0  0  0  0  0  0  0  0  0  0  0  0
   -0.1884   17.6129   44.7218 H   0  0  0  0  0  0  0  0  0  0  0  0
    2.1732   17.5779   41.0227 H   0  0  0  0  0  0  0  0  0  0  0  0
   -1.0256   22.1242   43.2707 H   0  0  0  0  0  0  0  0  0  0  0  0
    1.0420   17.1582   43.1174 H   0  0  0  0  0  0  0  0  0  0  0  0
    3.2771   21.9510   37.7281 H   0  0  0  0  0  0  0  0  0  0  0  0
    1.4973   21.4915   37.1301 H   0  0  0  0  0  0  0  0  0  0  0  0
    3.8413   17.3424   39.8900 H   0  0  0  0  0  0  0  0  0  0  0  0
    2.2023   17.0616   39.3492 H   0  0  0  0  0  0  0  0  0  0  0  0
    2.7527   15.1915   38.9133 H   0  0  0  0  0  0  0  0  0  0  0  0
    4.5474   15.7211   39.2061 H   0  0  0  0  0  0  0  0  0  0  0  0
    1.2506   22.4074   39.2719 H   0  0  0  0  0  0  0  0  0  0  0  0
    0.1902   22.2180   41.6969 H   0  0  0  0  0  0  0  0  0  0  0  0
  1 16  1  0
  2  4  1  0
  3  4  1  0
  3 16  2  0
  4 19  1  0
  5  1  2  3
  6 22  2  0
  7 10  1  0
  8  5  1  0
  8 17  1  0
  9  7  2  0
  9 13  1  0
 11  6  1  0
 11 12  1  0
 12 14  2  0
 14  7  1  0
 15 21  1  0
 15 20  2  0
 16 18  1  0
 17 15  1  0
 19 18  1  0
 20  6  1  0
 21 11  2  0
 22  9  1  0
  2 23  1  0
  2 24  1  0
  2 25  1  0
  5 26  1  0
 10 27  1  0
 10 28  1  0
 10 29  1  0
 12 30  1  0
 13 31  1  0
 14 32  1  0
 17 33  1  0
 17 34  1  0
 18 35  1  0
 18 36  1  0
 19 37  1  0
 19 38  1  0
 20 39  1  0
 22 40  1  0
M  END
>  <mol_id>  (56) 
2026-09-18-3war-s0-n100-refligand-0057

>  <rmsd_to_ref>  (56) 


$$$$

     RDKit          3D

 43 47  0  0  0  0  0  0  0  0999 V2000
    1.6640   17.3030   40.9260 C   0  0  0  0  0  0  0  0  0  0  0  0
    1.8590   21.3170   36.8930 C   0  0  0  0  0  0  0  0  0  0  0  0
    1.7360   19.5330   40.1590 C   0  0  0  0  0  0  0  0  0  0  0  0
    3.9170   20.9020   35.0740 C   0  0  0  0  0  0  0  0  0  0  0  0
    2.6630   14.9890   39.7750 C   0  0  0  0  0  0  0  0  0  0  0  0
    1.5110   20.8170   40.0600 N   0  0  0  0  0  0  0  0  0  0  0  0
    3.4730   16.3300   37.9000 C   0  0  0  0  0  0  0  0  0  0  0  0
    3.4400   13.9390   37.8570 N   0  0  0  0  0  0  0  0  0  0  0  0
    2.4440   18.7730   39.1920 N   0  0  0  0  0  0  0  0  0  0  0  0
    0.3330   20.7040   42.0820 C   0  0  0  0  0  0  0  0  0  0  0  0
    2.1260   14.9880   41.0390 N   0  0  0  0  0  0  0  0  0  0  0  0
   -0.3240   21.4240   43.0690 N   0  0  0  0  0  0  0  0  0  0  0  0
    1.1810   18.7900   41.1690 C   0  0  0  0  0  0  0  0  0  0  0  0
    0.8160   21.3690   40.9570 C   0  0  0  0  0  0  0  0  0  0  0  0
    3.0510   13.9150   39.1260 N   0  0  0  0  0  0  0  0  0  0  0  0
    1.8470   21.9880   35.6570 C   0  0  0  0  0  0  0  0  0  0  0  0
    2.3570   17.4580   39.7090 C   0  0  0  0  0  0  0  0  0  0  0  0
    1.6200   16.1060   41.5660 C   0  0  0  0  0  0  0  0  0  0  0  0
    3.0320   19.8360   38.5350 C   0  0  0  0  0  0  0  0  0  0  0  0
    3.6490   15.1320   37.2250 C   0  0  0  0  0  0  0  0  0  0  0  0
    2.9160   21.8320   34.7950 C   0  0  0  0  0  0  0  0  0  0  0  0
    0.4820   19.3440   42.1470 C   0  0  0  0  0  0  0  0  0  0  0  0
    2.8060   16.1820   39.1400 C   0  0  1  0  0  0  0  0  0  0  0  0
    3.8700   20.2240   36.3420 C   0  0  0  0  0  0  0  0  0  0  0  0
    2.8880   20.3950   37.1700 C   0  0  0  0  0  0  0  0  0  0  0  0
    1.0721   21.5102   37.6369 H   0  0  0  0  0  0  0  0  0  0  0  0
    4.7167   20.6936   34.3480 H   0  0  0  0  0  0  0  0  0  0  0  0
    4.4619   16.7741   38.0865 H   0  0  0  0  0  0  0  0  0  0  0  0
    2.8431   16.9714   37.2660 H   0  0  0  0  0  0  0  0  0  0  0  0
   -0.4164   22.4464   42.9854 H   0  0  0  0  0  0  0  0  0  0  0  0
   -0.7195   20.9362   43.8854 H   0  0  0  0  0  0  0  0  0  0  0  0
    0.5777   22.4369   40.8442 H   0  0  0  0  0  0  0  0  0  0  0  0
    3.0536   13.0135   39.6242 H   0  0  0  0  0  0  0  0  0  0  0  0
    0.9972   22.6291   35.3798 H   0  0  0  0  0  0  0  0  0  0  0  0
    2.1397   16.2535   42.5242 H   0  0  0  0  0  0  0  0  0  0  0  0
    0.5418   15.8883   41.5596 H   0  0  0  0  0  0  0  0  0  0  0  0
    2.7973   20.6930   39.1835 H   0  0  0  0  0  0  0  0  0  0  0  0
    3.9916   19.3322   38.3471 H   0  0  0  0  0  0  0  0  0  0  0  0
    3.9601   15.1421   36.1699 H   0  0  0  0  0  0  0  0  0  0  0  0
    2.9776   22.4449   33.8837 H   0  0  0  0  0  0  0  0  0  0  0  0
    0.0470   18.7481   42.9628 H   0  0  0  0  0  0  0  0  0  0  0  0
    3.7654   16.2840   39.6683 H   0  0  0  0  0  0  0  0  0  0  0  0
    4.6890   19.5427   36.6158 H   0  0  0  0  0  0  0  0  0  0  0  0
  1 13  1  0
  1 18  1  0
  2 25  1  0
  3 13  2  0
  4 24  1  0
  5 11  2  0
  6  3  1  0
  6 14  2  0
  8 15  1  0
  9 17  1  0
  9  3  1  0
 10 22  2  0
 10 12  1  0
 11 18  1  0
 13 22  1  0
 14 10  1  0
 15  5  1  0
 16  2  2  0
 17  1  2  0
 19  9  1  0
 20  8  2  0
 20  7  1  0
 21  4  2  0
 21 16  1  0
 23  7  1  0
 23 17  1  0
 23  5  1  0
 24 25  2  0
 25 19  1  0
  2 26  1  0
  4 27  1  0
  7 28  1  0
  7 29  1  0
 12 30  1  0
 12 31  1  0
 14 32  1  0
 15 33  1  0
 16 34  1  0
 18 35  1  0
 18 36  1  0
 19 37  1  0
 19 38  1  0
 20 39  1  0
 21 40  1  0
 22 41  1  0
 23 42  1  6
 24 43  1  0
M  END
>  <mol_id>  (57) 
2026-09-18-3war-s0-n100-refligand-0058

>  <rmsd_to_ref>  (57) 


$$$$

     RDKit          3D

 32 33  0  0  0  0  0  0  0  0999 V2000
    1.0920   18.6910   41.3600 C   0  0  0  0  0  0  0  0  0  0  0  0
    3.1740   21.0410   36.1670 O   0  0  0  0  0  0  0  0  0  0  0  0
    0.4430   20.9500   41.8990 C   0  0  0  0  0  0  0  0  0  0  0  0
    2.8600   20.2470   37.1050 C   0  0  0  0  0  0  0  0  0  0  0  0
    0.1100   21.8250   42.4940 N   0  0  0  0  0  0  0  0  0  0  0  0
    3.0250   16.5460   38.8080 C   0  0  0  0  0  0  0  0  0  0  0  0
    3.6100   17.8100   36.8920 N   0  0  0  0  0  0  0  0  0  0  0  0
    2.2900   20.2570   38.2860 O   0  0  0  0  0  0  0  0  0  0  0  0
    1.2920   19.5540   40.2800 C   0  0  2  0  0  0  0  0  0  0  0  0
    3.5230   16.7070   37.6260 C   0  0  0  0  0  0  0  0  0  0  0  0
    3.2260   19.0230   37.3140 C   0  0  0  0  0  0  0  0  0  0  0  0
    2.5800   17.8850   39.1640 C   0  0  0  0  0  0  0  0  0  0  0  0
    2.2500   19.1410   39.1610 C   0  0  0  0  0  0  0  0  0  0  0  0
    1.4380   15.1620   39.6210 O   0  0  0  0  0  0  0  0  0  0  0  0
    3.2380   13.7760   40.0370 C   0  0  0  0  0  0  0  0  0  0  0  0
    2.8420   15.2560   39.6390 C   0  0  1  0  0  0  0  0  0  0  0  0
    0.2310   19.5700   42.2140 C   0  0  0  0  0  0  0  0  0  0  0  0
    1.1760   21.0260   40.4330 S   0  0  0  0  0  0  0  0  0  0  0  0
    2.0370   18.4307   41.8591 H   0  0  0  0  0  0  0  0  0  0  0  0
    0.6596   17.7119   41.1063 H   0  0  0  0  0  0  0  0  0  0  0  0
    0.3200   22.7793   42.1683 H   0  0  0  0  0  0  0  0  0  0  0  0
    0.2852   19.2958   39.9199 H   0  0  0  0  0  0  0  0  0  0  0  0
    3.9342   15.7988   37.1610 H   0  0  0  0  0  0  0  0  0  0  0  0
    4.0797   19.2308   37.9758 H   0  0  0  0  0  0  0  0  0  0  0  0
    2.1831   18.7161   37.1463 H   0  0  0  0  0  0  0  0  0  0  0  0
    1.0969   15.1392   40.5501 H   0  0  0  0  0  0  0  0  0  0  0  0
    3.2623   13.6851   41.1330 H   0  0  0  0  0  0  0  0  0  0  0  0
    2.4958   13.0751   39.6273 H   0  0  0  0  0  0  0  0  0  0  0  0
    4.2311   13.5394   39.6273 H   0  0  0  0  0  0  0  0  0  0  0  0
    3.8081   15.5125   40.0983 H   0  0  0  0  0  0  0  0  0  0  0  0
   -0.8256   19.3186   42.0399 H   0  0  0  0  0  0  0  0  0  0  0  0
    0.4952   19.4046   43.2689 H   0  0  0  0  0  0  0  0  0  0  0  0
  1 17  1  0
  2  4  2  0
  3 17  1  0
  3  5  2  3
  4 11  1  0
  4  8  1  0
  6 12  2  0
  6 16  1  0
  7 11  1  0
  7 10  2  0
  8 13  1  0
  9 13  1  0
  9 18  1  0
  9  1  1  0
 10  6  1  0
 13 12  2  0
 14 16  1  0
 16 15  1  0
 18  3  1  0
  1 19  1  0
  1 20  1  0
  5 21  1  0
  9 22  1  6
 10 23  1  0
 11 24  1  0
 11 25  1  0
 14 26  1  0
 15 27  1  0
 15 28  1  0
 15 29  1  0
 16 30  1  1
 17 31  1  0
 17 32  1  0
M  END
>  <mol_id>  (58) 
2026-09-18-3war-s0-n100-refligand-0059

>  <rmsd_to_ref>  (58) 


$$$$

     RDKit          3D

 47 49  0  0  0  0  0  0  0  0999 V2000
    2.1233   15.5098   40.9912 C   0  0  0  0  0  0  0  0  0  0  0  0
    2.7430   16.4308   40.3057 C   0  0  1  0  0  0  0  0  0  0  0  0
    3.6518   16.3411   38.9049 S   0  0  0  0  0  0  0  0  0  0  0  0
    4.0483   17.8606   38.5980 C   0  0  0  0  0  0  0  0  0  0  0  0
    4.2664   20.6627   34.8712 C   0  0  0  0  0  0  0  0  0  0  0  0
   -0.1757   18.7929   42.5841 C   0  0  0  0  0  0  0  0  0  0  0  0
    4.5934   18.1037   37.5986 O   0  0  0  0  0  0  0  0  0  0  0  0
    3.4548   22.2562   33.1392 O   0  0  0  0  0  0  0  0  0  0  0  0
    1.2775   16.0764   41.9165 O   0  0  0  0  0  0  0  0  0  0  0  0
    2.0885   21.8765   35.0707 C   0  0  0  0  0  0  0  0  0  0  0  0
    2.9385   20.0860   38.3557 C   0  0  2  0  0  0  0  0  0  0  0  0
    2.2029   14.2808   41.2436 O   0  0  0  0  0  0  0  0  0  0  0  0
    4.1455   20.0943   36.1218 C   0  0  0  0  0  0  0  0  0  0  0  0
    1.7336   20.1703   38.8660 C   0  0  0  0  0  0  0  0  0  0  0  0
    0.1545   20.1888   40.4209 C   0  0  0  0  0  0  0  0  0  0  0  0
    3.7026   20.7302   39.2616 C   0  0  0  0  0  0  0  0  0  0  0  0
    3.2815   21.5947   34.3392 C   0  0  0  0  0  0  0  0  0  0  0  0
    3.0204   20.5387   37.0130 C   0  0  0  0  0  0  0  0  0  0  0  0
    3.6615   18.0004   39.8342 C   0  0  0  0  0  0  0  0  0  0  0  0
    1.9776   21.4103   36.4110 C   0  0  0  0  0  0  0  0  0  0  0  0
    0.7988   21.0350   38.5052 C   0  0  0  0  0  0  0  0  0  0  0  0
   -0.7703   21.1293   42.3078 O   0  0  0  0  0  0  0  0  0  0  0  0
   -0.2793   21.2017   39.4339 C   0  0  0  0  0  0  0  0  0  0  0  0
    1.1156   19.5518   40.2113 N   0  0  0  0  0  0  0  0  0  0  0  0
    0.7876   21.8090   37.2062 O   0  0  0  0  0  0  0  0  0  0  0  0
   -0.7034   19.8929   41.6598 C   0  0  2  0  0  0  0  0  0  0  0  0
    2.8691   17.6733   40.5185 N   0  0  0  0  0  0  0  0  0  0  0  0
    3.6619   16.2393   40.8791 H   0  0  0  0  0  0  0  0  0  0  0  0
    5.1383   20.4028   34.2530 H   0  0  0  0  0  0  0  0  0  0  0  0
   -0.3908   19.0581   43.6297 H   0  0  0  0  0  0  0  0  0  0  0  0
   -0.6680   17.8403   42.3388 H   0  0  0  0  0  0  0  0  0  0  0  0
    0.9110   18.6896   42.4481 H   0  0  0  0  0  0  0  0  0  0  0  0
    2.7598   22.8818   32.8140 H   0  0  0  0  0  0  0  0  0  0  0  0
    1.2688   22.4444   34.6065 H   0  0  0  0  0  0  0  0  0  0  0  0
    3.2921   19.0535   38.2180 H   0  0  0  0  0  0  0  0  0  0  0  0
    4.8597   19.3295   36.4608 H   0  0  0  0  0  0  0  0  0  0  0  0
    3.2098   20.7002   40.2446 H   0  0  0  0  0  0  0  0  0  0  0  0
    4.6845   20.2390   39.3286 H   0  0  0  0  0  0  0  0  0  0  0  0
    3.8365   21.7767   38.9504 H   0  0  0  0  0  0  0  0  0  0  0  0
    4.5607   17.6736   40.3772 H   0  0  0  0  0  0  0  0  0  0  0  0
    3.1371   18.9407   39.6084 H   0  0  0  0  0  0  0  0  0  0  0  0
   -0.9295   20.9870   43.2745 H   0  0  0  0  0  0  0  0  0  0  0  0
   -1.1524   21.8706   39.4181 H   0  0  0  0  0  0  0  0  0  0  0  0
    1.4830   18.7672   40.7685 H   0  0  0  0  0  0  0  0  0  0  0  0
   -1.6800   19.4835   41.3620 H   0  0  0  0  0  0  0  0  0  0  0  0
    1.9883   18.1666   40.3144 H   0  0  0  0  0  0  0  0  0  0  0  0
    3.0998   17.8755   41.5018 H   0  0  0  0  0  0  0  0  0  0  0  0
  1 12  2  0
  1  9  1  0
  2 27  1  0
  2  1  1  0
  3  2  1  0
  4  3  1  0
  4 19  1  0
  5 13  2  0
  7  4  2  0
  8 17  1  0
 10 20  1  0
 11 14  1  0
 11 16  1  0
 13 18  1  0
 14 24  1  0
 15 26  1  0
 17  5  1  0
 17 10  2  0
 18 11  1  0
 19 27  1  0
 20 18  2  0
 20 25  1  0
 21 14  2  0
 21 23  1  0
 23 15  2  0
 24 15  1  0
 25 21  1  0
 26  6  1  0
 26 22  1  0
  2 28  1  1
  5 29  1  0
  6 30  1  0
  6 31  1  0
  6 32  1  0
  8 33  1  0
 10 34  1  0
 11 35  1  6
 13 36  1  0
 16 37  1  0
 16 38  1  0
 16 39  1  0
 19 40  1  0
 19 41  1  0
 22 42  1  0
 23 43  1  0
 24 44  1  0
 26 45  1  6
 27 46  1  0
 27 47  1  0
M  CHG  2   9  -1  27   1
M  END
>  <mol_id>  (59) 
2026-09-18-3war-s0-n100-refligand-0060

>  <rmsd_to_ref>  (59) 


$$$$

     RDKit          3D

 29 30  0  0  0  0  0  0  0  0999 V2000
    0.1704   18.7202   41.8635 C   0  0  0  0  0  0  0  0  0  0  0  0
    3.8103   17.5473   37.9421 C   0  0  0  0  0  0  0  0  0  0  0  0
   -0.4663   17.6726   42.3690 N   0  0  0  0  0  0  0  0  0  0  0  0
    0.9663   17.1135   40.1818 C   0  0  0  0  0  0  0  0  0  0  0  0
    1.6221   20.7698   40.6129 C   0  0  0  0  0  0  0  0  0  0  0  0
    2.5588   20.7856   37.3313 N   0  0  0  0  0  0  0  0  0  0  0  0
    0.9226   18.4419   40.6880 C   0  0  0  0  0  0  0  0  0  0  0  0
    2.5188   18.9534   39.2752 N   0  0  0  0  0  0  0  0  0  0  0  0
    1.6607   19.3961   40.1480 C   0  0  0  0  0  0  0  0  0  0  0  0
    2.5518   16.8836   37.7019 C   0  0  0  0  0  0  0  0  0  0  0  0
    3.5974   18.9265   38.5747 C   0  0  2  0  0  0  0  0  0  0  0  0
    3.6315   19.9237   37.4734 O   0  0  0  0  0  0  0  0  0  0  0  0
    2.5543   21.8033   36.4962 N   0  0  0  0  0  0  0  0  0  0  0  0
    1.6327   16.7733   38.8716 C   0  0  0  0  0  0  0  0  0  0  0  0
    0.1694   19.9831   42.3292 N   0  0  0  0  0  0  0  0  0  0  0  0
    0.8228   20.9909   41.6939 C   0  0  0  0  0  0  0  0  0  0  0  0
    4.3401   17.6691   36.9857 H   0  0  0  0  0  0  0  0  0  0  0  0
    4.4012   16.9327   38.6371 H   0  0  0  0  0  0  0  0  0  0  0  0
   -0.3838   16.7516   41.9153 H   0  0  0  0  0  0  0  0  0  0  0  0
   -1.0432   17.7798   43.2156 H   0  0  0  0  0  0  0  0  0  0  0  0
    0.4984   16.3069   40.7652 H   0  0  0  0  0  0  0  0  0  0  0  0
    2.1958   21.5735   40.1284 H   0  0  0  0  0  0  0  0  0  0  0  0
    1.7573   20.1969   37.0632 H   0  0  0  0  0  0  0  0  0  0  0  0
    2.0420   18.1042   38.9399 H   0  0  0  0  0  0  0  0  0  0  0  0
    2.2855   16.4820   36.7131 H   0  0  0  0  0  0  0  0  0  0  0  0
    4.3941   19.1717   39.2925 H   0  0  0  0  0  0  0  0  0  0  0  0
    2.4446   22.6806   37.0246 H   0  0  0  0  0  0  0  0  0  0  0  0
    3.4431   21.8245   35.9761 H   0  0  0  0  0  0  0  0  0  0  0  0
    0.7025   22.0196   42.0646 H   0  0  0  0  0  0  0  0  0  0  0  0
  1 15  1  0
  1  3  1  0
  2 11  1  0
  4  7  1  0
  5 16  1  0
  6 12  1  0
  7  1  2  0
  8  9  1  0
  9  5  2  0
  9  7  1  0
 10  2  1  0
 10 14  2  0
 11 12  1  0
 11  8  1  0
 13  6  1  0
 14  4  2  0
 16 15  2  0
  2 17  1  0
  2 18  1  0
  3 19  1  0
  3 20  1  0
  4 21  1  0
  5 22  1  0
  6 23  1  0
  8 24  1  0
 10 25  1  0
 11 26  1  1
 13 27  1  0
 13 28  1  0
 16 29  1  0
M  END
>  <mol_id>  (60) 
2026-09-18-3war-s0-n100-refligand-0061

>  <rmsd_to_ref>  (60) 


$$$$

     RDKit          3D

 39 42  0  0  0  0  0  0  0  0999 V2000
    3.2237   19.4423   37.6829 C   0  0  0  0  0  0  0  0  0  0  0  0
   -0.1194   20.0210   42.1333 C   0  0  0  0  0  0  0  0  0  0  0  0
    3.8386   17.2058   38.2673 C   0  0  0  0  0  0  0  0  0  0  0  0
    3.7409   18.2916   37.3671 C   0  0  0  0  0  0  0  0  0  0  0  0
    1.1855   15.5749   42.0796 C   0  0  0  0  0  0  0  0  0  0  0  0
    1.5578   18.8851   40.7482 C   0  0  0  0  0  0  0  0  0  0  0  0
    2.7025   19.5827   38.9544 N   0  0  0  0  0  0  0  0  0  0  0  0
   -1.0432   21.0550   42.4208 N   0  0  0  0  0  0  0  0  0  0  0  0
    2.4146   18.6373   39.7603 C   0  0  0  0  0  0  0  0  0  0  0  0
    1.4399   22.2100   37.5890 C   0  0  0  0  0  0  0  0  0  0  0  0
   -0.2397   18.9143   42.8669 N   0  0  0  0  0  0  0  0  0  0  0  0
    3.0578   20.5726   36.9248 C   0  0  0  0  0  0  0  0  0  0  0  0
    2.6946   22.1993   35.5123 C   0  0  2  0  0  0  0  0  0  0  0  0
    0.8844   20.0575   41.1376 C   0  0  0  0  0  0  0  0  0  0  0  0
    0.4035   17.8653   42.5235 C   0  0  0  0  0  0  0  0  0  0  0  0
    1.2349   21.3882   40.5681 C   0  0  0  0  0  0  0  0  0  0  0  0
    3.9721   14.9800   37.7547 O   0  0  0  0  0  0  0  0  0  0  0  0
    1.6445   22.7259   36.2988 C   0  0  0  0  0  0  0  0  0  0  0  0
    4.4789   16.0818   37.7137 C   0  0  0  0  0  0  0  0  0  0  0  0
    0.1405   16.2504   43.2221 S   0  0  0  0  0  0  0  0  0  0  0  0
    3.0221   17.3751   39.4094 C   0  0  0  0  0  0  0  0  0  0  0  0
    3.4415   21.1471   35.8017 N   0  0  0  0  0  0  0  0  0  0  0  0
    2.9632   22.8852   34.4015 F   0  0  0  0  0  0  0  0  0  0  0  0
    1.7452   16.4700   41.3328 O   0  0  0  0  0  0  0  0  0  0  0  0
    2.1783   21.3527   37.6194 O   0  0  0  0  0  0  0  0  0  0  0  0
    1.2379   17.6905   41.5181 C   0  0  0  0  0  0  0  0  0  0  0  0
    5.4747   16.3903   36.9077 O   0  0  0  0  0  0  0  0  0  0  0  0
    4.1228   18.1557   36.3446 H   0  0  0  0  0  0  0  0  0  0  0  0
    1.9709   15.0139   42.6073 H   0  0  0  0  0  0  0  0  0  0  0  0
    0.5903   14.9188   41.4274 H   0  0  0  0  0  0  0  0  0  0  0  0
   -1.0081   21.9385   41.8925 H   0  0  0  0  0  0  0  0  0  0  0  0
   -1.7502   20.9236   43.1583 H   0  0  0  0  0  0  0  0  0  0  0  0
    0.7425   22.5510   38.3683 H   0  0  0  0  0  0  0  0  0  0  0  0
    2.0052   21.5545   34.9475 H   0  0  0  0  0  0  0  0  0  0  0  0
    1.3454   22.1184   41.3833 H   0  0  0  0  0  0  0  0  0  0  0  0
    2.1817   21.3117   40.0134 H   0  0  0  0  0  0  0  0  0  0  0  0
    0.4364   21.7173   39.8868 H   0  0  0  0  0  0  0  0  0  0  0  0
    0.9989   23.5257   35.9070 H   0  0  0  0  0  0  0  0  0  0  0  0
    2.8416   16.5064   40.0596 H   0  0  0  0  0  0  0  0  0  0  0  0
  1  7  2  0
  2  8  1  0
  2 11  1  0
  3 21  1  0
  4  1  1  0
  4  3  2  0
  5 20  1  0
  6 14  1  0
  6 26  2  0
  7  9  1  0
  9  6  1  0
 12 25  1  0
 12  1  1  0
 13 23  1  0
 13 22  1  0
 13 18  1  0
 14  2  2  0
 15 11  2  0
 15 20  1  0
 16 14  1  0
 18 10  2  0
 19 17  1  0
 19  3  1  0
 21  9  2  0
 22 12  2  0
 24 26  1  0
 24  5  1  0
 25 10  1  0
 26 15  1  0
 27 19  2  0
  4 28  1  0
  5 29  1  0
  5 30  1  0
  8 31  1  0
  8 32  1  0
 10 33  1  0
 13 34  1  6
 16 35  1  0
 16 36  1  0
 16 37  1  0
 18 38  1  0
 21 39  1  0
M  CHG  1  17  -1
M  END
>  <mol_id>  (61) 
2026-09-18-3war-s0-n100-refligand-0062

>  <rmsd_to_ref>  (61) 


$$$$

     RDKit          3D

 48 50  0  0  0  0  0  0  0  0999 V2000
    4.1170   12.9290   37.1660 N   0  0  0  0  0  0  0  0  0  0  0  0
   -0.3740   18.9940   43.5590 C   0  0  0  0  0  0  0  0  0  0  0  0
    3.7620   14.1880   37.6500 C   0  0  0  0  0  0  0  0  0  0  0  0
    3.0110   14.3350   38.7650 C   0  0  0  0  0  0  0  0  0  0  0  0
    3.8670   20.8050   36.0660 N   0  0  0  0  0  0  0  0  0  0  0  0
    0.8170   19.6780   41.3830 C   0  0  1  0  0  0  0  0  0  0  0  0
   -0.4670   21.0050   42.9110 N   0  0  0  0  0  0  0  0  0  0  0  0
    2.8230   21.4410   36.4310 C   0  0  0  0  0  0  0  0  0  0  0  0
    3.0690   16.6650   38.5020 C   0  0  0  0  0  0  0  0  0  0  0  0
    2.7790   18.1240   38.8040 N   0  0  0  0  0  0  0  0  0  0  0  0
   -1.1150   20.8370   44.2100 N   0  0  0  0  0  0  0  0  0  0  0  0
    1.2950   18.4540   41.2580 N   0  0  0  0  0  0  0  0  0  0  0  0
    2.1800   20.3270   38.6130 C   0  0  2  0  0  0  0  0  0  0  0  0
    3.9290   12.8190   35.8710 O   0  0  0  0  0  0  0  0  0  0  0  0
   -0.2960   17.8010   43.5400 N   0  0  0  0  0  0  0  0  0  0  0  0
    1.9220   18.6830   40.2050 C   0  0  0  0  0  0  0  0  0  0  0  0
    2.3520   19.1040   39.1260 C   0  0  2  0  0  0  0  0  0  0  0  0
   -0.9640   19.6120   44.5230 N   0  0  0  0  0  0  0  0  0  0  0  0
    0.9350   20.7020   40.5410 C   0  0  0  0  0  0  0  0  0  0  0  0
    1.5000   21.0870   39.4650 C   0  0  0  0  0  0  0  0  0  0  0  0
    4.2200   15.2590   36.9310 C   0  0  0  0  0  0  0  0  0  0  0  0
    3.8260   16.4960   37.3360 C   0  0  0  0  0  0  0  0  0  0  0  0
    2.7450   15.6060   39.2150 C   0  0  0  0  0  0  0  0  0  0  0  0
    2.3390   22.3440   35.7680 O   0  0  0  0  0  0  0  0  0  0  0  0
    2.0880   20.7270   37.3650 O   0  0  0  0  0  0  0  0  0  0  0  0
    3.9340   17.5780   36.5140 O   0  0  0  0  0  0  0  0  0  0  0  0
    0.0820   19.8760   42.5790 C   0  0  0  0  0  0  0  0  0  0  0  0
    4.4853   12.1707   37.7578 H   0  0  0  0  0  0  0  0  0  0  0  0
    2.6215   13.4564   39.3001 H   0  0  0  0  0  0  0  0  0  0  0  0
    4.5068   21.2197   35.3735 H   0  0  0  0  0  0  0  0  0  0  0  0
    4.0700   19.8769   36.4638 H   0  0  0  0  0  0  0  0  0  0  0  0
    1.7388   19.9853   41.8986 H   0  0  0  0  0  0  0  0  0  0  0  0
    3.6469   18.5022   38.3984 H   0  0  0  0  0  0  0  0  0  0  0  0
    1.9090   18.1819   42.0389 H   0  0  0  0  0  0  0  0  0  0  0  0
    0.6189   17.6770   41.2504 H   0  0  0  0  0  0  0  0  0  0  0  0
    3.2616   20.4180   38.4345 H   0  0  0  0  0  0  0  0  0  0  0  0
    3.0873   12.3265   35.7004 H   0  0  0  0  0  0  0  0  0  0  0  0
    0.1806   17.3284   42.7587 H   0  0  0  0  0  0  0  0  0  0  0  0
   -0.7054   17.2459   44.3049 H   0  0  0  0  0  0  0  0  0  0  0  0
    2.8817   18.8247   40.7236 H   0  0  0  0  0  0  0  0  0  0  0  0
    1.0354   18.3298   39.6580 H   0  0  0  0  0  0  0  0  0  0  0  0
    1.3679   18.8028   38.7378 H   0  0  0  0  0  0  0  0  0  0  0  0
   -1.2665   19.1823   45.4089 H   0  0  0  0  0  0  0  0  0  0  0  0
    0.3096   21.5265   40.9139 H   0  0  0  0  0  0  0  0  0  0  0  0
    1.4162   22.1554   39.2170 H   0  0  0  0  0  0  0  0  0  0  0  0
    4.8798   15.1246   36.0612 H   0  0  0  0  0  0  0  0  0  0  0  0
    2.2522   15.7415   40.1891 H   0  0  0  0  0  0  0  0  0  0  0  0
    3.6412   18.4698   36.8286 H   0  0  0  0  0  0  0  0  0  0  0  0
  1  3  1  0
  2 18  1  0
  3  4  1  0
  4 23  2  0
  5  8  1  0
  6 27  1  0
  7 11  2  0
  8 25  1  0
  9 10  1  0
  9 23  1  0
 11 18  1  0
 12  6  1  0
 13 25  1  0
 13 17  1  0
 13 20  1  0
 14  1  1  0
 15  2  1  0
 16 12  1  0
 17 10  1  0
 17 16  1  0
 19  6  1  0
 20 19  2  0
 21 22  1  0
 21  3  2  0
 22  9  2  0
 24  8  2  0
 26 22  1  0
 27  7  1  0
 27  2  2  0
  1 28  1  0
  4 29  1  0
  5 30  1  0
  5 31  1  0
  6 32  1  1
 10 33  1  0
 12 34  1  0
 12 35  1  0
 13 36  1  1
 14 37  1  0
 15 38  1  0
 15 39  1  0
 16 40  1  0
 16 41  1  0
 17 42  1  1
 18 43  1  0
 19 44  1  0
 20 45  1  0
 21 46  1  0
 23 47  1  0
 26 48  1  0
M  CHG  1  12   1
M  END
>  <mol_id>  (62) 
2026-09-18-3war-s0-n100-refligand-0063

>  <rmsd_to_ref>  (62) 


$$$$

     RDKit          3D

 55 59  0  0  0  0  0  0  0  0999 V2000
    2.5622   14.1699   38.7816 C   0  0  0  0  0  0  0  0  0  0  0  0
    3.2660   19.1223   40.0959 O   0  0  0  0  0  0  0  0  0  0  0  0
    0.0939   20.7228   42.7240 C   0  0  0  0  0  0  0  0  0  0  0  0
    2.5531   13.2198   37.8395 C   0  0  0  0  0  0  0  0  0  0  0  0
    2.3087   19.9826   40.0353 C   0  0  0  0  0  0  0  0  0  0  0  0
    2.9900   20.6438   37.8047 C   0  0  1  0  0  0  0  0  0  0  0  0
    2.2186   16.2948   40.6914 N   0  0  0  0  0  0  0  0  0  0  0  0
    2.9368   16.5667   39.6195 C   0  0  2  0  0  0  0  0  0  0  0  0
    3.8013   15.6800   37.5951 F   0  0  0  0  0  0  0  0  0  0  0  0
    3.0500   18.0222   39.5223 C   0  0  2  0  0  0  0  0  0  0  0  0
    0.4404   16.1995   42.2770 C   0  0  0  0  0  0  0  0  0  0  0  0
   -0.2653   18.3752   42.9625 C   0  0  0  0  0  0  0  0  0  0  0  0
    0.5351   17.7197   42.0106 C   0  0  0  0  0  0  0  0  0  0  0  0
    3.4783   18.1918   37.1767 C   0  0  0  0  0  0  0  0  0  0  0  0
   -0.8085   17.2969   43.7935 N   0  0  0  0  0  0  0  0  0  0  0  0
    3.0889   15.6037   38.6696 C   0  0  0  0  0  0  0  0  0  0  0  0
    2.2647   20.6232   38.9231 C   0  0  0  0  0  0  0  0  0  0  0  0
    3.2032   19.6082   37.1025 C   0  0  1  0  0  0  0  0  0  0  0  0
   -0.3356   15.9838   43.3850 C   0  0  0  0  0  0  0  0  0  0  0  0
   -1.4549   19.9693   44.2968 N   0  0  0  0  0  0  0  0  0  0  0  0
    1.6620   15.1948   40.8695 C   0  0  0  0  0  0  0  0  0  0  0  0
    0.8922   15.1581   41.9604 N   0  0  0  0  0  0  0  0  0  0  0  0
   -1.3318   17.4955   44.8410 O   0  0  0  0  0  0  0  0  0  0  0  0
    4.5072   18.0242   36.2539 F   0  0  0  0  0  0  0  0  0  0  0  0
    3.9508   18.1942   38.5694 C   0  0  0  0  0  0  0  0  0  0  0  0
   -0.4524   19.6232   43.3729 C   0  0  0  0  0  0  0  0  0  0  0  0
    2.9420   20.0170   35.8187 O   0  0  0  0  0  0  0  0  0  0  0  0
    2.1127   17.6219   37.2339 F   0  0  0  0  0  0  0  0  0  0  0  0
    3.6070   21.7019   37.2691 F   0  0  0  0  0  0  0  0  0  0  0  0
    1.0585   20.8792   41.7516 C   0  0  0  0  0  0  0  0  0  0  0  0
    1.9501   14.1535   40.0231 C   0  0  0  0  0  0  0  0  0  0  0  0
    1.5233   19.8588   41.0516 N   0  0  0  0  0  0  0  0  0  0  0  0
    1.2549   18.6474   41.3180 C   0  0  0  0  0  0  0  0  0  0  0  0
   -0.3374   21.6776   43.0591 H   0  0  0  0  0  0  0  0  0  0  0  0
    2.3840   12.2395   38.3090 H   0  0  0  0  0  0  0  0  0  0  0  0
    1.7476   13.4253   37.1192 H   0  0  0  0  0  0  0  0  0  0  0  0
    3.5204   13.2136   37.3158 H   0  0  0  0  0  0  0  0  0  0  0  0
    3.8940   20.4113   38.3867 H   0  0  0  0  0  0  0  0  0  0  0  0
    3.9999   16.3242   39.4744 H   0  0  0  0  0  0  0  0  0  0  0  0
    1.9845   18.0101   39.7952 H   0  0  0  0  0  0  0  0  0  0  0  0
    1.4212   21.3281   38.8836 H   0  0  0  0  0  0  0  0  0  0  0  0
    4.2738   19.8080   36.9484 H   0  0  0  0  0  0  0  0  0  0  0  0
   -0.5552   15.0189   43.8654 H   0  0  0  0  0  0  0  0  0  0  0  0
   -1.0792   19.8995   45.2533 H   0  0  0  0  0  0  0  0  0  0  0  0
   -1.7663   20.9350   44.1199 H   0  0  0  0  0  0  0  0  0  0  0  0
   -2.2534   19.3268   44.1938 H   0  0  0  0  0  0  0  0  0  0  0  0
    0.7082   14.2896   42.4827 H   0  0  0  0  0  0  0  0  0  0  0  0
   -1.6848   16.7366   45.3698 H   0  0  0  0  0  0  0  0  0  0  0  0
    4.4392   19.1633   38.7494 H   0  0  0  0  0  0  0  0  0  0  0  0
    4.6066   17.3142   38.6432 H   0  0  0  0  0  0  0  0  0  0  0  0
    2.3367   20.8001   35.8385 H   0  0  0  0  0  0  0  0  0  0  0  0
    1.4544   21.8859   41.5517 H   0  0  0  0  0  0  0  0  0  0  0  0
    0.9757   13.6777   39.8381 H   0  0  0  0  0  0  0  0  0  0  0  0
    2.7844   13.7220   40.5954 H   0  0  0  0  0  0  0  0  0  0  0  0
    1.9325   18.0609   40.6800 H   0  0  0  0  0  0  0  0  0  0  0  0
  1 31  1  0
  2  5  1  0
  3 26  1  0
  4  1  1  0
  5 32  1  0
  6 29  1  0
  6 17  1  0
  7 21  2  0
  8 16  1  0
  8 10  1  0
  8  7  1  0
  9 16  1  0
 10 25  1  0
 10  2  1  0
 11 19  2  0
 12 26  2  0
 12 15  1  0
 13 11  1  0
 13 12  1  0
 14 18  1  0
 14 28  1  0
 14 25  1  0
 15 23  1  0
 16  1  2  0
 17  5  2  0
 18 27  1  0
 18  6  1  0
 19 15  1  0
 21 22  1  0
 22 11  1  0
 24 14  1  0
 26 20  1  0
 30  3  2  0
 31 21  1  0
 32 33  1  0
 32 30  1  0
 33 13  2  0
  3 34  1  0
  4 35  1  0
  4 36  1  0
  4 37  1  0
  6 38  1  1
  8 39  1  1
 10 40  1  6
 17 41  1  0
 18 42  1  6
 19 43  1  0
 20 44  1  0
 20 45  1  0
 20 46  1  0
 22 47  1  0
 23 48  1  0
 25 49  1  0
 25 50  1  0
 27 51  1  0
 30 52  1  0
 31 53  1  0
 31 54  1  0
 33 55  1  0
M  CHG  1  20   1
M  END
>  <mol_id>  (63) 
2026-09-18-3war-s0-n100-refligand-0064

>  <rmsd_to_ref>  (63) 


$$$$

     RDKit          3D

 34 35  0  0  0  0  0  0  0  0999 V2000
    1.4440   19.4090   40.6630 C   0  0  0  0  0  0  0  0  0  0  0  0
    2.7350   18.0060   39.0610 C   0  0  2  0  0  0  0  0  0  0  0  0
    1.7750   15.4190   41.2250 C   0  0  0  0  0  0  0  0  0  0  0  0
   -0.3960   20.0250   43.2890 C   0  0  0  0  0  0  0  0  0  0  0  0
    3.5160   19.8070   36.6770 N   0  0  0  0  0  0  0  0  0  0  0  0
    0.4720   17.9670   42.5100 C   0  0  0  0  0  0  0  0  0  0  0  0
    0.8300   21.6180   40.2930 O   0  0  0  0  0  0  0  0  0  0  0  0
    3.5410   17.4700   37.8690 C   0  0  0  0  0  0  0  0  0  0  0  0
    2.4100   19.3230   39.0790 C   0  0  1  0  0  0  0  0  0  0  0  0
   -1.0720   20.5400   44.1620 O   0  0  0  0  0  0  0  0  0  0  0  0
    1.5460   16.7530   40.5670 C   0  0  2  0  0  0  0  0  0  0  0  0
    0.8150   20.6060   41.0640 C   0  0  0  0  0  0  0  0  0  0  0  0
   -0.2260   18.7290   43.4220 C   0  0  0  0  0  0  0  0  0  0  0  0
    2.7580   17.2450   40.1140 O   0  0  0  0  0  0  0  0  0  0  0  0
    2.7240   20.0610   37.6780 C   0  0  0  0  0  0  0  0  0  0  0  0
    1.1300   18.2860   41.3880 C   0  0  0  0  0  0  0  0  0  0  0  0
    2.0780   21.0970   37.7940 O   0  0  0  0  0  0  0  0  0  0  0  0
    3.5890   20.7790   35.7510 O   0  0  0  0  0  0  0  0  0  0  0  0
    0.0550   20.8260   42.3140 C   0  0  0  0  0  0  0  0  0  0  0  0
    1.6556   17.8775   38.8924 H   0  0  0  0  0  0  0  0  0  0  0  0
    1.7541   15.5409   42.3180 H   0  0  0  0  0  0  0  0  0  0  0  0
    0.9840   14.7186   40.9190 H   0  0  0  0  0  0  0  0  0  0  0  0
    2.7543   15.0225   40.9190 H   0  0  0  0  0  0  0  0  0  0  0  0
    4.0468   18.9277   36.6000 H   0  0  0  0  0  0  0  0  0  0  0  0
    0.4925   16.8935   42.7489 H   0  0  0  0  0  0  0  0  0  0  0  0
    4.4038   16.8962   38.2381 H   0  0  0  0  0  0  0  0  0  0  0  0
    2.9009   16.8170   37.2575 H   0  0  0  0  0  0  0  0  0  0  0  0
    3.8956   18.3128   37.2575 H   0  0  0  0  0  0  0  0  0  0  0  0
    2.6088   20.4029   39.1443 H   0  0  0  0  0  0  0  0  0  0  0  0
    0.6976   16.4047   39.9597 H   0  0  0  0  0  0  0  0  0  0  0  0
   -0.6603   18.2297   44.3007 H   0  0  0  0  0  0  0  0  0  0  0  0
    3.6551   21.6586   36.2004 H   0  0  0  0  0  0  0  0  0  0  0  0
    0.6801   21.5491   42.8585 H   0  0  0  0  0  0  0  0  0  0  0  0
   -0.9207   20.9427   41.8197 H   0  0  0  0  0  0  0  0  0  0  0  0
  1 12  1  0
  1 16  2  0
  2  8  1  0
  2  9  1  0
  2 14  1  0
  4 13  1  0
  4 10  2  0
  5 15  1  0
  6 13  2  0
  7 12  2  0
  9 15  1  0
  9  1  1  0
 11  3  1  0
 11 16  1  0
 12 19  1  0
 14 11  1  0
 15 17  2  0
 16  6  1  0
 18  5  1  0
 19  4  1  0
  2 20  1  6
  3 21  1  0
  3 22  1  0
  3 23  1  0
  5 24  1  0
  6 25  1  0
  8 26  1  0
  8 27  1  0
  8 28  1  0
  9 29  1  1
 11 30  1  6
 13 31  1  0
 18 32  1  0
 19 33  1  0
 19 34  1  0
M  END
>  <mol_id>  (64) 
2026-09-18-3war-s0-n100-refligand-0065

>  <rmsd_to_ref>  (64) 


$$$$

     RDKit          3D

 23 25  0  0  0  0  0  0  0  0999 V2000
    2.8923   21.0615   37.0827 C   0  0  0  0  0  0  0  0  0  0  0  0
    3.9236   18.8040   36.9586 C   0  0  0  0  0  0  0  0  0  0  0  0
   -0.0208   20.5633   41.1425 C   0  0  0  0  0  0  0  0  0  0  0  0
    1.8342   18.4318   41.1244 C   0  0  0  0  0  0  0  0  0  0  0  0
    2.2014   20.7282   38.2564 C   0  0  0  0  0  0  0  0  0  0  0  0
    3.7024   20.1222   36.3794 C   0  0  0  0  0  0  0  0  0  0  0  0
    3.2325   18.4354   38.1235 C   0  0  0  0  0  0  0  0  0  0  0  0
    0.7959   18.3532   42.0731 C   0  0  0  0  0  0  0  0  0  0  0  0
    2.4741   19.4291   38.7993 C   0  0  0  0  0  0  0  0  0  0  0  0
    1.8254   19.3406   40.0407 C   0  0  0  0  0  0  0  0  0  0  0  0
    0.9147   20.5388   40.1653 C   0  0  0  0  0  0  0  0  0  0  0  0
   -0.1619   19.5773   42.0755 C   0  0  0  0  0  0  0  0  0  0  0  0
    1.2076   21.4543   39.0956 C   0  0  0  0  0  0  0  0  0  0  0  0
    2.8063   22.0854   36.6899 H   0  0  0  0  0  0  0  0  0  0  0  0
    4.6271   18.1025   36.4864 H   0  0  0  0  0  0  0  0  0  0  0  0
   -0.7043   21.4240   41.1873 H   0  0  0  0  0  0  0  0  0  0  0  0
    2.6934   17.7534   41.2316 H   0  0  0  0  0  0  0  0  0  0  0  0
    4.1540   20.3893   35.4126 H   0  0  0  0  0  0  0  0  0  0  0  0
    3.2769   17.4041   38.5034 H   0  0  0  0  0  0  0  0  0  0  0  0
    0.6734   17.4983   42.7544 H   0  0  0  0  0  0  0  0  0  0  0  0
   -0.0598   20.0569   43.0601 H   0  0  0  0  0  0  0  0  0  0  0  0
   -1.1360   19.1328   41.8236 H   0  0  0  0  0  0  0  0  0  0  0  0
    0.7928   22.4603   38.9340 H   0  0  0  0  0  0  0  0  0  0  0  0
  1  5  1  0
  2  7  2  0
  3 12  1  0
  4  8  2  0
  5  9  1  0
  5 13  2  0
  6  2  1  0
  6  1  2  0
  7  9  1  0
  8 12  1  0
  9 10  2  0
 10 11  1  0
 10  4  1  0
 11  3  2  0
 13 11  1  0
  1 14  1  0
  2 15  1  0
  3 16  1  0
  4 17  1  0
  6 18  1  0
  7 19  1  0
  8 20  1  0
 12 21  1  0
 12 22  1  0
 13 23  1  0
M  END
>  <mol_id>  (65) 
2026-09-18-3war-s0-n100-refligand-0066

>  <rmsd_to_ref>  (65) 


$$$$

     RDKit          3D

 42 45  0  0  0  0  0  0  0  0999 V2000
    1.8064   20.6357   39.4070 C   0  0  0  0  0  0  0  0  0  0  0  0
   -0.7675   18.9948   43.8757 C   0  0  0  0  0  0  0  0  0  0  0  0
    2.4447   22.0765   35.5577 O   0  0  0  0  0  0  0  0  0  0  0  0
    0.6026   20.1267   41.7263 C   0  0  0  0  0  0  0  0  0  0  0  0
    3.0270   21.0123   36.0242 C   0  0  0  0  0  0  0  0  0  0  0  0
    2.7847   15.9402   39.0989 C   0  0  0  0  0  0  0  0  0  0  0  0
    0.0579   16.8017   43.1137 N   0  0  0  0  0  0  0  0  0  0  0  0
    1.9919   21.4258   38.2943 C   0  0  0  0  0  0  0  0  0  0  0  0
    0.7050   15.9532   42.2107 C   0  0  0  0  0  0  0  0  0  0  0  0
    3.3600   15.0273   38.2398 N   0  0  0  0  0  0  0  0  0  0  0  0
   -0.5314   16.0401   44.1904 C   0  0  0  0  0  0  0  0  0  0  0  0
    0.7110   18.7751   41.8810 C   0  0  0  0  0  0  0  0  0  0  0  0
    1.3242   16.3541   41.0946 C   0  0  0  0  0  0  0  0  0  0  0  0
    2.3050   18.1533   39.7284 C   0  0  0  0  0  0  0  0  0  0  0  0
    3.8909   20.3556   35.3655 O   0  0  0  0  0  0  0  0  0  0  0  0
   -0.7585   20.3723   43.7451 C   0  0  0  0  0  0  0  0  0  0  0  0
    4.3848   15.4171   37.2342 C   0  0  0  0  0  0  0  0  0  0  0  0
    1.7385   14.0573   40.0783 O   0  0  0  0  0  0  0  0  0  0  0  0
    1.9745   15.3262   40.0653 C   0  0  0  0  0  0  0  0  0  0  0  0
    0.0148   18.1230   43.0200 C   0  0  0  0  0  0  0  0  0  0  0  0
    1.4457   17.8004   40.8982 C   0  0  0  0  0  0  0  0  0  0  0  0
    2.9726   17.2491   38.9797 O   0  0  0  0  0  0  0  0  0  0  0  0
    2.9866   19.4063   37.8757 N   0  0  0  0  0  0  0  0  0  0  0  0
    2.3514   19.4256   39.0601 N   0  0  0  0  0  0  0  0  0  0  0  0
    2.7023   20.6236   37.3597 C   0  0  0  0  0  0  0  0  0  0  0  0
   -0.0592   20.9286   42.5942 C   0  0  0  0  0  0  0  0  0  0  0  0
    1.3290   20.9124   40.3586 H   0  0  0  0  0  0  0  0  0  0  0  0
   -1.3929   18.5427   44.6596 H   0  0  0  0  0  0  0  0  0  0  0  0
    1.0785   20.5899   40.8494 H   0  0  0  0  0  0  0  0  0  0  0  0
    1.6586   22.4650   38.1568 H   0  0  0  0  0  0  0  0  0  0  0  0
    0.7052   14.8761   42.4344 H   0  0  0  0  0  0  0  0  0  0  0  0
    3.8002   14.3113   38.8352 H   0  0  0  0  0  0  0  0  0  0  0  0
    2.5631   14.7665   37.6416 H   0  0  0  0  0  0  0  0  0  0  0  0
   -0.2288   16.4741   45.1548 H   0  0  0  0  0  0  0  0  0  0  0  0
   -1.6275   16.0693   44.1031 H   0  0  0  0  0  0  0  0  0  0  0  0
   -0.1867   14.9971   44.1334 H   0  0  0  0  0  0  0  0  0  0  0  0
   -1.2586   21.0206   44.4797 H   0  0  0  0  0  0  0  0  0  0  0  0
    5.2816   15.7904   37.7504 H   0  0  0  0  0  0  0  0  0  0  0  0
    4.6509   14.5418   36.6236 H   0  0  0  0  0  0  0  0  0  0  0  0
    3.9796   16.2074   36.5852 H   0  0  0  0  0  0  0  0  0  0  0  0
    1.1597   13.6687   40.7812 H   0  0  0  0  0  0  0  0  0  0  0  0
   -0.0689   22.0159   42.4278 H   0  0  0  0  0  0  0  0  0  0  0  0
  3  5  1  0
  4 12  2  0
  4 26  1  0
  5 25  1  0
  6 19  2  0
  7 11  1  0
  8  1  2  0
  9  7  1  0
 10  6  1  0
 12 20  1  0
 13  9  2  0
 14 21  2  0
 15  5  2  0
 16  2  1  0
 17 10  1  0
 18 19  1  0
 19 13  1  0
 20  7  1  0
 20  2  2  0
 21 13  1  0
 21 12  1  0
 22  6  1  0
 22 14  1  0
 23 24  1  0
 24  1  1  0
 24 14  1  0
 25 23  2  0
 25  8  1  0
 26 16  2  0
  1 27  1  0
  2 28  1  0
  4 29  1  0
  8 30  1  0
  9 31  1  0
 10 32  1  0
 10 33  1  0
 11 34  1  0
 11 35  1  0
 11 36  1  0
 16 37  1  0
 17 38  1  0
 17 39  1  0
 17 40  1  0
 18 41  1  0
 26 42  1  0
M  CHG  2   3  -1  10   1
M  END
>  <mol_id>  (66) 
2026-09-18-3war-s0-n100-refligand-0067

>  <rmsd_to_ref>  (66) 


$$$$

     RDKit          3D

 22 23  0  0  0  0  0  0  0  0999 V2000
    1.6853   18.3390   40.6188 N   0  0  0  0  0  0  0  0  0  0  0  0
    1.6236   17.0219   40.7387 C   0  0  0  0  0  0  0  0  0  0  0  0
    2.8996   22.1335   36.7956 F   0  0  0  0  0  0  0  0  0  0  0  0
    2.3778   16.1862   38.4355 C   0  0  0  0  0  0  0  0  0  0  0  0
    2.7527   19.8572   37.3175 C   0  0  0  0  0  0  0  0  0  0  0  0
    2.4349   18.7832   38.2221 C   0  0  2  0  0  0  0  0  0  0  0  0
    1.9233   19.2148   39.5605 C   0  0  0  0  0  0  0  0  0  0  0  0
    1.4291   14.7847   40.0510 O   0  0  0  0  0  0  0  0  0  0  0  0
    3.2824   19.6148   36.2088 O   0  0  0  0  0  0  0  0  0  0  0  0
    1.6284   20.6049   39.7909 C   0  0  1  0  0  0  0  0  0  0  0  0
    1.0467   20.9820   41.0105 C   0  0  0  0  0  0  0  0  0  0  0  0
    0.5954   21.1753   42.0157 N   0  0  0  0  0  0  0  0  0  0  0  0
    1.7792   15.9791   39.7674 C   0  0  0  0  0  0  0  0  0  0  0  0
    2.4854   21.2713   37.6590 C   0  0  0  0  0  0  0  0  0  0  0  0
    1.1954   16.6162   41.9805 O   0  0  0  0  0  0  0  0  0  0  0  0
    1.9578   21.6163   38.8528 C   0  0  0  0  0  0  0  0  0  0  0  0
    2.6062   17.3673   37.8841 C   0  0  0  0  0  0  0  0  0  0  0  0
    2.6549   15.2923   37.8574 H   0  0  0  0  0  0  0  0  0  0  0  0
    1.4090   18.7535   37.8264 H   0  0  0  0  0  0  0  0  0  0  0  0
    0.6274   20.4645   39.3569 H   0  0  0  0  0  0  0  0  0  0  0  0
    1.7845   22.6749   39.0963 H   0  0  0  0  0  0  0  0  0  0  0  0
    3.0529   17.2539   36.8853 H   0  0  0  0  0  0  0  0  0  0  0  0
  1  2  1  0
  2 15  2  0
  3 14  1  0
  4 13  1  0
  5  6  1  0
  6 17  1  0
  6  7  1  0
  7  1  2  0
  9  5  2  0
 10  7  1  0
 10 11  1  0
 11 12  3  0
 13  8  2  0
 13  2  1  0
 14  5  1  0
 14 16  2  0
 16 10  1  0
 17  4  2  0
  4 18  1  0
  6 19  1  6
 10 20  1  6
 16 21  1  0
 17 22  1  0
M  END
>  <mol_id>  (67) 
2026-09-18-3war-s0-n100-refligand-0068

>  <rmsd_to_ref>  (67) 


$$$$

     RDKit          3D

 30 33  0  0  0  0  0  0  0  0999 V2000
    3.7899   18.9936   37.6048 C   0  0  0  0  0  0  0  0  0  0  0  0
    3.2203   18.2059   39.5713 N   0  0  0  0  0  0  0  0  0  0  0  0
    2.4202   17.4966   41.8100 C   0  0  0  0  0  0  0  0  0  0  0  0
    0.6181   20.9891   39.1419 C   0  0  0  0  0  0  0  0  0  0  0  0
    1.5051   19.3788   40.4042 C   0  0  0  0  0  0  0  0  0  0  0  0
   -0.3097   21.3468   40.1036 C   0  0  0  0  0  0  0  0  0  0  0  0
    3.3231   20.6693   35.7047 C   0  0  0  0  0  0  0  0  0  0  0  0
    0.5429   18.7401   42.3280 N   0  0  0  0  0  0  0  0  0  0  0  0
    0.5071   19.5446   41.3227 C   0  0  0  0  0  0  0  0  0  0  0  0
    1.7136   21.1381   37.1694 O   0  0  0  0  0  0  0  0  0  0  0  0
    4.6063   18.0334   38.0871 N   0  0  0  0  0  0  0  0  0  0  0  0
   -0.4227   20.4967   41.1980 N   0  0  0  0  0  0  0  0  0  0  0  0
    2.0310   21.0554   36.1109 C   0  0  0  0  0  0  0  0  0  0  0  0
    4.2092   17.6674   39.1532 N   0  0  0  0  0  0  0  0  0  0  0  0
    2.9305   19.1623   38.6559 C   0  0  0  0  0  0  0  0  0  0  0  0
    1.6377   19.9612   39.1332 C   0  0  0  0  0  0  0  0  0  0  0  0
    3.9213   19.6036   36.3857 C   0  0  0  0  0  0  0  0  0  0  0  0
    2.5436   18.3102   40.7284 C   0  0  0  0  0  0  0  0  0  0  0  0
    1.3923   17.6937   42.7375 C   0  0  0  0  0  0  0  0  0  0  0  0
    3.1362   16.6746   41.9574 H   0  0  0  0  0  0  0  0  0  0  0  0
    0.5733   21.5912   38.2224 H   0  0  0  0  0  0  0  0  0  0  0  0
   -0.9244   22.2540   40.0077 H   0  0  0  0  0  0  0  0  0  0  0  0
    3.9799   21.5442   35.8193 H   0  0  0  0  0  0  0  0  0  0  0  0
    3.1971   20.3082   34.6733 H   0  0  0  0  0  0  0  0  0  0  0  0
   -1.1873   20.5960   41.8810 H   0  0  0  0  0  0  0  0  0  0  0  0
    1.2922   21.2891   35.3301 H   0  0  0  0  0  0  0  0  0  0  0  0
    4.6900   16.9285   39.6859 H   0  0  0  0  0  0  0  0  0  0  0  0
    3.7674   18.7665   35.6889 H   0  0  0  0  0  0  0  0  0  0  0  0
    4.7992   20.1921   36.6902 H   0  0  0  0  0  0  0  0  0  0  0  0
    1.2644   17.1107   43.6614 H   0  0  0  0  0  0  0  0  0  0  0  0
  1 11  2  0
  1 15  1  0
  2 18  1  0
  3 19  1  0
  4  6  2  0
  5 18  1  0
  5  9  2  0
  6 12  1  0
  7 17  1  0
  7 13  1  0
  8 19  2  0
  9 12  1  0
  9  8  1  0
 11 14  1  0
 13 10  2  0
 14  2  1  0
 15  2  1  0
 15 16  2  0
 16  4  1  0
 16  5  1  0
 17  1  1  0
 18  3  2  0
  3 20  1  0
  4 21  1  0
  6 22  1  0
  7 23  1  0
  7 24  1  0
 12 25  1  0
 13 26  1  0
 14 27  1  0
 17 28  1  0
 17 29  1  0
 19 30  1  0
M  END
>  <mol_id>  (68) 
2026-09-18-3war-s0-n100-refligand-0069

>  <rmsd_to_ref>  (68) 


$$$$

     RDKit          3D

 21 23  0  0  0  0  0  0  0  0999 V2000
    3.1624   17.1776   39.3060 C   0  0  0  0  0  0  0  0  0  0  0  0
    1.9461   20.1974   39.9372 C   0  0  0  0  0  0  0  0  0  0  0  0
    3.8640   15.9498   37.3394 C   0  0  0  0  0  0  0  0  0  0  0  0
    2.2580   19.5342   38.6505 C   0  0  0  0  0  0  0  0  0  0  0  0
    3.7091   15.9933   38.6611 C   0  0  0  0  0  0  0  0  0  0  0  0
    2.7869   18.2440   38.5258 C   0  0  0  0  0  0  0  0  0  0  0  0
    2.9218   18.0722   37.0758 C   0  0  0  0  0  0  0  0  0  0  0  0
    2.5815   19.2350   36.4806 N   0  0  0  0  0  0  0  0  0  0  0  0
    1.4852   20.3936   42.0176 N   0  0  0  0  0  0  0  0  0  0  0  0
    1.5935   21.5021   40.1242 N   0  0  0  0  0  0  0  0  0  0  0  0
    1.7846   19.6094   40.8867 N   0  0  0  0  0  0  0  0  0  0  0  0
    2.0099   20.1837   37.3927 C   0  0  0  0  0  0  0  0  0  0  0  0
    3.4990   16.9685   36.5220 N   0  0  0  0  0  0  0  0  0  0  0  0
    1.4088   21.5077   41.4554 C   0  0  0  0  0  0  0  0  0  0  0  0
    3.0518   17.2183   40.3996 H   0  0  0  0  0  0  0  0  0  0  0  0
    4.3072   15.0485   36.8909 H   0  0  0  0  0  0  0  0  0  0  0  0
    3.9975   15.1249   39.2718 H   0  0  0  0  0  0  0  0  0  0  0  0
    1.8509   18.5822   40.9234 H   0  0  0  0  0  0  0  0  0  0  0  0
    2.5172   21.1580   37.3336 H   0  0  0  0  0  0  0  0  0  0  0  0
    0.9519   20.4169   37.2023 H   0  0  0  0  0  0  0  0  0  0  0  0
    1.2037   22.4327   42.0142 H   0  0  0  0  0  0  0  0  0  0  0  0
  2 10  2  0
  2 11  1  0
  3  5  1  0
  4  2  1  0
  5  1  2  0
  6  4  2  0
  6  1  1  0
  7  6  1  0
  8  7  2  0
  8 12  1  0
 10 14  1  0
 11  9  1  0
 12  4  1  0
 13  7  1  0
 13  3  2  0
 14  9  2  0
  1 15  1  0
  3 16  1  0
  5 17  1  0
 11 18  1  0
 12 19  1  0
 12 20  1  0
 14 21  1  0
M  END
>  <mol_id>  (69) 
2026-09-18-3war-s0-n100-refligand-0071

>  <rmsd_to_ref>  (69) 


$$$$

     RDKit          3D

 41 43  0  0  0  0  0  0  0  0999 V2000
    0.3814   18.4401   42.9622 O   0  0  0  0  0  0  0  0  0  0  0  0
   -1.0348   20.6662   41.9277 F   0  0  0  0  0  0  0  0  0  0  0  0
    1.2266   21.1822   39.8629 C   0  0  0  0  0  0  0  0  0  0  0  0
    2.7400   19.7179   37.2556 C   0  0  2  0  0  0  0  0  0  0  0  0
    3.5926   19.3848   38.4435 C   0  0  0  0  0  0  0  0  0  0  0  0
    0.5149   22.1866   42.1403 F   0  0  0  0  0  0  0  0  0  0  0  0
    2.4670   15.3400   40.5553 C   0  0  0  0  0  0  0  0  0  0  0  0
    1.8352   17.7221   41.2890 N   0  0  0  0  0  0  0  0  0  0  0  0
    3.1607   20.1058   35.8312 O   0  0  0  0  0  0  0  0  0  0  0  0
    0.1907   20.8763   42.2470 C   0  0  0  0  0  0  0  0  0  0  0  0
    1.0105   20.2383   41.0748 C   0  0  0  0  0  0  0  0  0  0  0  0
    1.6042   18.9044   40.6428 C   0  0  0  0  0  0  0  0  0  0  0  0
    0.3911   20.6140   43.4410 F   0  0  0  0  0  0  0  0  0  0  0  0
    3.5561   15.1493   38.4318 C   0  0  0  0  0  0  0  0  0  0  0  0
    2.1354   21.1278   37.5423 C   0  0  0  0  0  0  0  0  0  0  0  0
    3.3697   16.5622   38.2026 C   0  0  0  0  0  0  0  0  0  0  0  0
    3.2842   14.5940   39.7039 C   0  0  0  0  0  0  0  0  0  0  0  0
    2.4254   16.7172   40.3622 C   0  0  0  0  0  0  0  0  0  0  0  0
    1.0492   17.4263   42.2390 N   0  0  0  0  0  0  0  0  0  0  0  0
    2.8169   17.3233   39.3797 C   0  0  0  0  0  0  0  0  0  0  0  0
    2.7179   18.8684   39.4874 C   0  0  0  0  0  0  0  0  0  0  0  0
    1.6033   21.0373   38.9311 C   0  0  0  0  0  0  0  0  0  0  0  0
    0.5397   18.3132   43.9311 H   0  0  0  0  0  0  0  0  0  0  0  0
    0.9073   22.2178   40.0510 H   0  0  0  0  0  0  0  0  0  0  0  0
    2.2587   18.7301   37.2050 H   0  0  0  0  0  0  0  0  0  0  0  0
    4.3371   18.6232   38.1682 H   0  0  0  0  0  0  0  0  0  0  0  0
    4.1266   20.2792   38.7967 H   0  0  0  0  0  0  0  0  0  0  0  0
    1.4407   14.9605   40.4431 H   0  0  0  0  0  0  0  0  0  0  0  0
    2.9101   15.2103   41.5537 H   0  0  0  0  0  0  0  0  0  0  0  0
    3.9405   20.7142   35.8716 H   0  0  0  0  0  0  0  0  0  0  0  0
    4.6103   14.9285   38.2085 H   0  0  0  0  0  0  0  0  0  0  0  0
    2.7931   14.6876   37.7879 H   0  0  0  0  0  0  0  0  0  0  0  0
    2.9120   21.9038   37.4745 H   0  0  0  0  0  0  0  0  0  0  0  0
    1.3562   21.4014   36.8158 H   0  0  0  0  0  0  0  0  0  0  0  0
    4.3448   16.9984   37.9399 H   0  0  0  0  0  0  0  0  0  0  0  0
    2.6252   16.6509   37.3978 H   0  0  0  0  0  0  0  0  0  0  0  0
    2.7978   13.6203   39.5448 H   0  0  0  0  0  0  0  0  0  0  0  0
    4.2591   14.5452   40.2109 H   0  0  0  0  0  0  0  0  0  0  0  0
    0.8962   16.4381   42.4858 H   0  0  0  0  0  0  0  0  0  0  0  0
    0.8128   20.3253   38.6516 H   0  0  0  0  0  0  0  0  0  0  0  0
    2.5009   21.5812   39.2603 H   0  0  0  0  0  0  0  0  0  0  0  0
  2 10  1  0
  3 11  2  0
  4  9  1  0
  4 15  1  0
  4  5  1  0
  5 21  1  0
  6 10  1  0
  8 19  1  0
 10 13  1  0
 11 10  1  0
 12 11  1  0
 12  8  1  0
 14 17  1  0
 15 22  1  0
 16 14  1  0
 16 20  1  0
 17  7  1  0
 18  7  1  0
 18  8  1  0
 19  1  1  0
 20 21  1  0
 20 18  2  0
 21 12  2  0
 22  3  1  0
  1 23  1  0
  3 24  1  0
  4 25  1  6
  5 26  1  0
  5 27  1  0
  7 28  1  0
  7 29  1  0
  9 30  1  0
 14 31  1  0
 14 32  1  0
 15 33  1  0
 15 34  1  0
 16 35  1  0
 16 36  1  0
 17 37  1  0
 17 38  1  0
 19 39  1  0
 22 40  1  0
 22 41  1  0
M  END
>  <mol_id>  (70) 
2026-09-18-3war-s0-n100-refligand-0072

>  <rmsd_to_ref>  (70) 


$$$$

     RDKit          3D

 21 21  0  0  0  0  0  0  0  0999 V2000
    2.3571   17.7376   39.8219 C   0  0  0  0  0  0  0  0  0  0  0  0
    1.7822   18.3722   41.8329 C   0  0  0  0  0  0  0  0  0  0  0  0
    3.0320   19.4030   36.6643 N   0  0  0  0  0  0  0  0  0  0  0  0
    0.7870   21.0468   40.8335 C   0  0  0  0  0  0  0  0  0  0  0  0
    2.4049   16.5707   40.1512 F   0  0  0  0  0  0  0  0  0  0  0  0
    2.0001   20.3069   38.7378 C   0  0  0  0  0  0  0  0  0  0  0  0
    1.9756   18.8126   40.6090 C   0  0  0  0  0  0  0  0  0  0  0  0
    1.3710   18.7479   42.9209 C   0  0  0  0  0  0  0  0  0  0  0  0
    2.7670   18.0925   38.5539 C   0  0  0  0  0  0  0  0  0  0  0  0
    3.0897   20.4885   36.0372 O   0  0  0  0  0  0  0  0  0  0  0  0
    2.6094   19.3301   38.0318 C   0  0  0  0  0  0  0  0  0  0  0  0
    3.3791   18.3094   36.2114 O   0  0  0  0  0  0  0  0  0  0  0  0
    1.6284   20.0681   40.0603 C   0  0  0  0  0  0  0  0  0  0  0  0
    2.0927   17.3191   41.8994 H   0  0  0  0  0  0  0  0  0  0  0  0
    1.0022   20.9469   41.9076 H   0  0  0  0  0  0  0  0  0  0  0  0
    1.0213   22.0705   40.5062 H   0  0  0  0  0  0  0  0  0  0  0  0
   -0.2778   20.8386   40.6519 H   0  0  0  0  0  0  0  0  0  0  0  0
    1.7987   21.2834   38.2731 H   0  0  0  0  0  0  0  0  0  0  0  0
    1.3574   18.0529   43.7735 H   0  0  0  0  0  0  0  0  0  0  0  0
    1.0147   19.7808   43.0475 H   0  0  0  0  0  0  0  0  0  0  0  0
    3.2500   17.3249   37.9313 H   0  0  0  0  0  0  0  0  0  0  0  0
  1  5  1  0
  1  7  1  0
  2  8  2  3
  3 11  1  0
  6 13  1  0
  7  2  1  0
  9  1  2  0
 10  3  1  0
 11  9  1  0
 11  6  2  0
 12  3  2  0
 13  7  2  0
 13  4  1  0
  2 14  1  0
  4 15  1  0
  4 16  1  0
  4 17  1  0
  6 18  1  0
  8 19  1  0
  8 20  1  0
  9 21  1  0
M  CHG  2   3   1  10  -1
M  END
>  <mol_id>  (71) 
2026-09-18-3war-s0-n100-refligand-0073

>  <rmsd_to_ref>  (71) 


$$$$

     RDKit          3D

 50 53  0  0  0  0  0  0  0  0999 V2000
    2.3231   14.9000   40.6323 O   0  0  0  0  0  0  0  0  0  0  0  0
    3.1603   20.9221   35.7452 O   0  0  0  0  0  0  0  0  0  0  0  0
    1.6242   19.3763   40.4154 C   0  0  2  0  0  0  0  0  0  0  0  0
    1.6200   18.0330   40.6495 N   0  0  0  0  0  0  0  0  0  0  0  0
    2.1719   15.8782   39.5721 C   0  0  1  0  0  0  0  0  0  0  0  0
    4.6127   14.1277   37.6707 O   0  0  0  0  0  0  0  0  0  0  0  0
    2.2507   19.8398   39.3347 C   0  0  0  0  0  0  0  0  0  0  0  0
    2.7460   14.0512   37.2275 O   0  0  0  0  0  0  0  0  0  0  0  0
    0.2251   20.0584   43.2258 C   0  0  0  0  0  0  0  0  0  0  0  0
    0.8364   19.5868   42.6423 C   0  0  1  0  0  0  0  0  0  0  0  0
    2.7603   22.1314   35.1377 C   0  0  0  0  0  0  0  0  0  0  0  0
    3.2993   20.4407   37.6565 N   0  0  0  0  0  0  0  0  0  0  0  0
    0.1486   22.0293   42.1210 C   0  0  0  0  0  0  0  0  0  0  0  0
   -0.2606   21.3322   43.3209 N   0  0  0  0  0  0  0  0  0  0  0  0
    1.0728   18.4771   43.2982 F   0  0  0  0  0  0  0  0  0  0  0  0
    3.4881   19.3125   39.3819 C   0  0  2  0  0  0  0  0  0  0  0  0
    0.8834   20.1373   41.1904 C   0  0  1  0  0  0  0  0  0  0  0  0
    3.8913   16.9555   38.0731 O   0  0  0  0  0  0  0  0  0  0  0  0
    4.4431   18.6424   39.6474 C   0  0  0  0  0  0  0  0  0  0  0  0
    1.7578   22.1405   37.2139 O   0  0  0  0  0  0  0  0  0  0  0  0
    0.7437   21.3640   41.2448 C   0  0  0  0  0  0  0  0  0  0  0  0
    2.6834   17.2776   40.1787 C   0  0  1  0  0  0  0  0  0  0  0  0
    3.8953   19.6527   37.8019 O   0  0  0  0  0  0  0  0  0  0  0  0
    3.5432   17.7942   39.2113 C   0  0  1  0  0  0  0  0  0  0  0  0
    2.6450   21.2153   36.9916 C   0  0  0  0  0  0  0  0  0  0  0  0
    3.2671   15.8232   38.5577 C   0  0  2  0  0  0  0  0  0  0  0  0
    3.5993   14.7676   37.7877 C   0  0  0  0  0  0  0  0  0  0  0  0
    2.2977   15.3577   41.5097 H   0  0  0  0  0  0  0  0  0  0  0  0
    0.6952   19.2781   39.8348 H   0  0  0  0  0  0  0  0  0  0  0  0
    1.5820   17.9021   41.6704 H   0  0  0  0  0  0  0  0  0  0  0  0
    0.8086   17.6863   40.1182 H   0  0  0  0  0  0  0  0  0  0  0  0
    1.1491   15.7377   39.1925 H   0  0  0  0  0  0  0  0  0  0  0  0
    1.7302   19.5174   38.4208 H   0  0  0  0  0  0  0  0  0  0  0  0
    2.2762   20.9394   39.3183 H   0  0  0  0  0  0  0  0  0  0  0  0
    0.6746   19.9013   44.2174 H   0  0  0  0  0  0  0  0  0  0  0  0
   -0.6782   19.6603   42.7406 H   0  0  0  0  0  0  0  0  0  0  0  0
    1.8572   19.5990   42.2328 H   0  0  0  0  0  0  0  0  0  0  0  0
    2.5592   22.8832   35.9150 H   0  0  0  0  0  0  0  0  0  0  0  0
    3.5621   22.4926   34.4769 H   0  0  0  0  0  0  0  0  0  0  0  0
    1.8478   21.9610   34.5475 H   0  0  0  0  0  0  0  0  0  0  0  0
    3.1635   20.7976   38.6131 H   0  0  0  0  0  0  0  0  0  0  0  0
   -0.0555   23.1015   41.9847 H   0  0  0  0  0  0  0  0  0  0  0  0
   -1.2883   21.3152   43.3874 H   0  0  0  0  0  0  0  0  0  0  0  0
    0.1019   21.8029   44.1623 H   0  0  0  0  0  0  0  0  0  0  0  0
    0.0806   20.0239   40.4470 H   0  0  0  0  0  0  0  0  0  0  0  0
    5.3438   18.7824   39.0316 H   0  0  0  0  0  0  0  0  0  0  0  0
    5.0070   18.6081   40.5913 H   0  0  0  0  0  0  0  0  0  0  0  0
    1.1971   21.9398   40.4244 H   0  0  0  0  0  0  0  0  0  0  0  0
    3.2750   17.2199   41.1042 H   0  0  0  0  0  0  0  0  0  0  0  0
    3.4155   15.5063   39.6005 H   0  0  0  0  0  0  0  0  0  0  0  0
  2 25  1  0
  3  7  1  0
  3  4  1  0
  3 17  1  0
  5 22  1  0
  5  1  1  0
  6 27  1  0
  7 16  1  0
  8 27  2  0
  9 14  1  0
 10  9  1  0
 10 15  1  0
 11  2  1  0
 12 23  1  0
 13 14  1  0
 16 23  1  1
 16 19  1  0
 17 21  1  0
 17 10  1  0
 18 26  1  0
 24 18  1  6
 21 13  2  0
 22  4  1  0
 24 16  1  0
 24 19  1  0
 24 22  1  0
 25 20  2  0
 25 12  1  0
 26 27  1  0
 26  5  1  0
  1 28  1  0
  3 29  1  1
  4 30  1  0
  4 31  1  0
  5 32  1  6
  7 33  1  0
  7 34  1  0
  9 35  1  0
  9 36  1  0
 10 37  1  1
 11 38  1  0
 11 39  1  0
 11 40  1  0
 12 41  1  0
 13 42  1  0
 14 43  1  0
 14 44  1  0
 17 45  1  6
 19 46  1  0
 19 47  1  0
 21 48  1  0
 22 49  1  1
 26 50  1  1
M  CHG  3   4   1   6  -1  14   1
M  END
>  <mol_id>  (72) 
2026-09-18-3war-s0-n100-refligand-0074

>  <rmsd_to_ref>  (72) 


$$$$

     RDKit          3D

 14 14  0  0  0  0  0  0  0  0999 V2000
    3.0794   19.9152   38.4925 C   0  0  0  0  0  0  0  0  0  0  0  0
    2.2579   22.0406   38.1783 O   0  0  0  0  0  0  0  0  0  0  0  0
    3.3217   20.9727   36.3840 O   0  0  0  0  0  0  0  0  0  0  0  0
    2.5386   19.8905   39.7736 C   0  0  0  0  0  0  0  0  0  0  0  0
    3.6252   17.8619   40.1257 C   0  0  0  0  0  0  0  0  0  0  0  0
    3.7940   18.7318   38.0584 C   0  0  0  0  0  0  0  0  0  0  0  0
    3.9630   17.7439   38.8569 C   0  0  0  0  0  0  0  0  0  0  0  0
    2.7680   18.8446   40.4734 C   0  0  0  0  0  0  0  0  0  0  0  0
    2.9667   21.0715   37.5578 C   0  0  0  0  0  0  0  0  0  0  0  0
    1.9433   20.7284   40.1655 H   0  0  0  0  0  0  0  0  0  0  0  0
    4.0322   17.1756   40.8829 H   0  0  0  0  0  0  0  0  0  0  0  0
    4.1946   18.6811   37.0353 H   0  0  0  0  0  0  0  0  0  0  0  0
    4.3887   16.8004   38.4848 H   0  0  0  0  0  0  0  0  0  0  0  0
    2.2284   18.7387   41.4261 H   0  0  0  0  0  0  0  0  0  0  0  0
  1  4  1  0
  3  9  2  0
  4  8  2  0
  5  8  1  0
  6  7  1  0
  6  1  2  0
  7  5  2  0
  9  1  1  0
  9  2  1  0
  4 10  1  0
  5 11  1  0
  6 12  1  0
  7 13  1  0
  8 14  1  0
M  CHG  1   2  -1
M  END
>  <mol_id>  (73) 
2026-09-18-3war-s0-n100-refligand-0076

>  <rmsd_to_ref>  (73) 


$$$$

     RDKit          3D

 15 15  0  0  0  0  0  0  0  0999 V2000
    1.9010   18.5930   39.7000 N   0  0  0  0  0  0  0  0  0  0  0  0
    3.5030   20.3750   36.3380 O   0  0  0  0  0  0  0  0  0  0  0  0
    3.1500   19.7580   37.3560 C   0  0  0  0  0  0  0  0  0  0  0  0
    1.4100   20.7100   40.4480 C   0  0  0  0  0  0  0  0  0  0  0  0
    1.4800   18.5650   41.0120 C   0  0  0  0  0  0  0  0  0  0  0  0
    1.8120   19.9080   39.4180 C   0  0  0  0  0  0  0  0  0  0  0  0
    3.4920   18.6670   37.7900 O   0  0  0  0  0  0  0  0  0  0  0  0
    2.1040   20.5670   38.0680 C   0  0  0  0  0  0  0  0  0  0  0  0
    1.2680   19.8090   41.5190 C   0  0  0  0  0  0  0  0  0  0  0  0
    1.2388   21.7966   40.4416 H   0  0  0  0  0  0  0  0  0  0  0  0
    0.5400   17.9964   41.0685 H   0  0  0  0  0  0  0  0  0  0  0  0
    2.2754   18.0932   41.6076 H   0  0  0  0  0  0  0  0  0  0  0  0
    2.4726   21.5911   38.2276 H   0  0  0  0  0  0  0  0  0  0  0  0
    1.1857   20.6089   37.4639 H   0  0  0  0  0  0  0  0  0  0  0  0
    1.0315   20.0615   42.5632 H   0  0  0  0  0  0  0  0  0  0  0  0
  1  5  1  0
  2  3  2  0
  3  7  1  0
  3  8  1  0
  4  9  2  0
  5  9  1  0
  6  1  2  0
  6  4  1  0
  8  6  1  0
  4 10  1  0
  5 11  1  0
  5 12  1  0
  8 13  1  0
  8 14  1  0
  9 15  1  0
M  CHG  1   7  -1
M  END
>  <mol_id>  (74) 
2026-09-18-3war-s0-n100-refligand-0077

>  <rmsd_to_ref>  (74) 


$$$$

     RDKit          3D

 27 28  0  0  0  0  0  0  0  0999 V2000
    0.4205   20.3969   42.3749 C   0  0  0  0  0  0  0  0  0  0  0  0
    0.8370   21.1792   41.3319 C   0  0  0  0  0  0  0  0  0  0  0  0
    2.7806   18.6259   38.3479 C   0  0  1  0  0  0  0  0  0  0  0  0
    0.8996   19.1120   42.5622 C   0  0  0  0  0  0  0  0  0  0  0  0
    1.3836   17.0200   43.1330 C   0  0  0  0  0  0  0  0  0  0  0  0
    1.8790   20.1955   36.7006 C   0  0  0  0  0  0  0  0  0  0  0  0
    1.7378   18.5358   41.5567 C   0  0  0  0  0  0  0  0  0  0  0  0
    4.6554   17.4233   37.6768 O   0  0  0  0  0  0  0  0  0  0  0  0
    1.6980   20.6608   40.3599 C   0  0  0  0  0  0  0  0  0  0  0  0
    2.2181   19.3605   40.5740 C   0  0  0  0  0  0  0  0  0  0  0  0
    3.0917   18.7930   39.6820 O   0  0  0  0  0  0  0  0  0  0  0  0
    2.6972   16.6220   37.4288 O   0  0  0  0  0  0  0  0  0  0  0  0
    2.0350   17.2282   41.9815 C   0  0  0  0  0  0  0  0  0  0  0  0
    3.0927   19.8406   37.4488 C   0  0  0  0  0  0  0  0  0  0  0  0
    3.4155   17.4202   37.8308 N   0  0  0  0  0  0  0  0  0  0  0  0
    0.7716   18.1853   43.5332 N   0  0  0  0  0  0  0  0  0  0  0  0
    1.2449   21.1711   36.8205 O   0  0  0  0  0  0  0  0  0  0  0  0
   -0.3162   20.8011   43.0848 H   0  0  0  0  0  0  0  0  0  0  0  0
    0.4926   22.2213   41.2580 H   0  0  0  0  0  0  0  0  0  0  0  0
    1.6860   18.5232   38.3108 H   0  0  0  0  0  0  0  0  0  0  0  0
    1.3440   16.0640   43.6756 H   0  0  0  0  0  0  0  0  0  0  0  0
    1.5312   19.4695   35.9510 H   0  0  0  0  0  0  0  0  0  0  0  0
    1.9616   21.2405   39.4630 H   0  0  0  0  0  0  0  0  0  0  0  0
    2.6841   16.5077   41.4623 H   0  0  0  0  0  0  0  0  0  0  0  0
    3.4061   20.6915   38.0715 H   0  0  0  0  0  0  0  0  0  0  0  0
    3.9050   19.5915   36.7501 H   0  0  0  0  0  0  0  0  0  0  0  0
    0.2910   18.3275   44.4331 H   0  0  0  0  0  0  0  0  0  0  0  0
  1  4  2  0
  2  1  1  0
  3 14  1  0
  3 11  1  0
  4 16  1  0
  5 16  1  0
  6 17  2  0
  6 14  1  0
  7 13  1  0
  7  4  1  0
  9 10  1  0
  9  2  2  0
 10  7  2  0
 11 10  1  0
 12 15  1  0
 13  5  2  0
 15  8  2  0
 15  3  1  0
  1 18  1  0
  2 19  1  0
  3 20  1  1
  5 21  1  0
  6 22  1  0
  9 23  1  0
 13 24  1  0
 14 25  1  0
 14 26  1  0
 16 27  1  0
M  CHG  2  12  -1  15   1
M  END
>  <mol_id>  (75) 
2026-09-18-3war-s0-n100-refligand-0078

>  <rmsd_to_ref>  (75) 


$$$$

     RDKit          3D

 31 32  0  0  0  0  0  0  0  0999 V2000
    1.5584   21.0522   41.1496 S   0  0  0  0  0  0  0  0  0  0  0  0
    2.8332   17.9425   40.2098 C   0  0  0  0  0  0  0  0  0  0  0  0
    3.2661   15.2768   40.2578 C   0  0  0  0  0  0  0  0  0  0  0  0
    4.1938   15.8085   37.7078 O   0  0  0  0  0  0  0  0  0  0  0  0
    2.3364   22.2265   36.4014 O   0  0  0  0  0  0  0  0  0  0  0  0
    3.2973   20.1502   37.1374 C   0  0  0  0  0  0  0  0  0  0  0  0
    2.5782   18.0745   43.5059 C   0  0  0  0  0  0  0  0  0  0  0  0
    2.1052   20.5837   39.6026 C   0  0  0  0  0  0  0  0  0  0  0  0
    4.2657   14.5944   40.2908 O   0  0  0  0  0  0  0  0  0  0  0  0
    1.9633   21.5080   38.6390 C   0  0  0  0  0  0  0  0  0  0  0  0
    3.3057   16.7056   39.7016 C   0  0  0  0  0  0  0  0  0  0  0  0
    3.0601   22.0790   35.2371 C   0  0  0  0  0  0  0  0  0  0  0  0
    4.0284   18.0181   37.7827 O   0  0  0  0  0  0  0  0  0  0  0  0
    3.8293   16.7218   38.4068 C   0  0  0  0  0  0  0  0  0  0  0  0
    2.2134   14.7752   40.6714 O   0  0  0  0  0  0  0  0  0  0  0  0
    3.3392   19.1786   38.1321 C   0  0  0  0  0  0  0  0  0  0  0  0
    1.8052   17.4127   42.3480 C   0  0  0  0  0  0  0  0  0  0  0  0
    2.5778   21.3385   37.4001 C   0  0  0  0  0  0  0  0  0  0  0  0
    2.7464   19.2806   39.3430 C   0  0  0  0  0  0  0  0  0  0  0  0
    2.3236   18.2363   41.3507 O   0  0  0  0  0  0  0  0  0  0  0  0
    2.8492   19.6867   36.2461 H   0  0  0  0  0  0  0  0  0  0  0  0
    4.3415   20.4792   37.0307 H   0  0  0  0  0  0  0  0  0  0  0  0
    2.3095   17.5845   44.4534 H   0  0  0  0  0  0  0  0  0  0  0  0
    3.6593   17.9695   43.3325 H   0  0  0  0  0  0  0  0  0  0  0  0
    2.3172   19.1418   43.5582 H   0  0  0  0  0  0  0  0  0  0  0  0
    1.3571   22.4060   38.8293 H   0  0  0  0  0  0  0  0  0  0  0  0
    4.1049   21.8384   35.4828 H   0  0  0  0  0  0  0  0  0  0  0  0
    2.6276   21.2647   34.6372 H   0  0  0  0  0  0  0  0  0  0  0  0
    3.0251   23.0163   34.6623 H   0  0  0  0  0  0  0  0  0  0  0  0
    2.0704   16.3543   42.2079 H   0  0  0  0  0  0  0  0  0  0  0  0
    0.7104   17.3553   42.4383 H   0  0  0  0  0  0  0  0  0  0  0  0
  2 20  1  0
  3  9  2  0
  3 15  1  0
  4 14  2  0
  5 18  1  0
  6 18  1  0
  6 16  1  0
  8  1  2  0
 10  8  1  0
 11  2  2  0
 11  3  1  0
 12  5  1  0
 13 16  1  0
 13 14  1  0
 14 11  1  0
 16 19  2  0
 17  7  1  0
 18 10  2  0
 19  8  1  0
 19  2  1  0
 20 17  1  0
  6 21  1  0
  6 22  1  0
  7 23  1  0
  7 24  1  0
  7 25  1  0
 10 26  1  0
 12 27  1  0
 12 28  1  0
 12 29  1  0
 17 30  1  0
 17 31  1  0
M  CHG  1  15  -1
M  END
>  <mol_id>  (76) 
2026-09-18-3war-s0-n100-refligand-0079

>  <rmsd_to_ref>  (76) 


$$$$

     RDKit          3D

 20 21  0  0  0  0  0  0  0  0999 V2000
    0.9401   19.6071   40.9683 C   0  0  0  0  0  0  0  0  0  0  0  0
    3.4971   17.7139   38.7269 C   0  0  0  0  0  0  0  0  0  0  0  0
   -0.5497   19.1706   42.6621 C   0  0  0  0  0  0  0  0  0  0  0  0
    2.0692   20.0725   38.9324 N   0  0  0  0  0  0  0  0  0  0  0  0
    3.5013   18.5777   37.7301 C   0  0  0  0  0  0  0  0  0  0  0  0
    1.5996   21.4847   36.6370 O   0  0  0  0  0  0  0  0  0  0  0  0
    3.6608   20.9640   35.9590 O   0  0  0  0  0  0  0  0  0  0  0  0
    2.0066   19.2218   39.9581 C   0  0  0  0  0  0  0  0  0  0  0  0
    2.6926   18.0333   39.8927 C   0  0  0  0  0  0  0  0  0  0  0  0
    2.6492   20.8015   36.7546 C   0  0  0  0  0  0  0  0  0  0  0  0
    0.3039   20.7924   40.9098 C   0  0  0  0  0  0  0  0  0  0  0  0
    2.7878   19.7877   37.8263 C   0  0  0  0  0  0  0  0  0  0  0  0
    0.4721   18.6381   41.9276 C   0  0  0  0  0  0  0  0  0  0  0  0
   -0.9309   20.7881   42.0588 S   0  0  0  0  0  0  0  0  0  0  0  0
    4.0827   16.7841   38.6768 H   0  0  0  0  0  0  0  0  0  0  0  0
   -1.0572   18.6700   43.4999 H   0  0  0  0  0  0  0  0  0  0  0  0
    4.0677   18.3506   36.8150 H   0  0  0  0  0  0  0  0  0  0  0  0
    2.6320   17.3199   40.7278 H   0  0  0  0  0  0  0  0  0  0  0  0
    0.5477   21.6216   40.2293 H   0  0  0  0  0  0  0  0  0  0  0  0
    0.8769   17.6225   42.0498 H   0  0  0  0  0  0  0  0  0  0  0  0
  1 11  2  0
  1 13  1  0
  2  9  1  0
  4  8  1  0
  5 12  1  0
  5  2  2  0
  6 10  1  0
  7 10  2  0
  8  1  1  0
  9  8  2  0
 10 12  1  0
 11 14  1  0
 12  4  2  0
 13  3  2  0
 14  3  1  0
  2 15  1  0
  3 16  1  0
  5 17  1  0
  9 18  1  0
 11 19  1  0
 13 20  1  0
M  CHG  1   6  -1
M  END
>  <mol_id>  (77) 
2026-09-18-3war-s0-n100-refligand-0080

>  <rmsd_to_ref>  (77) 


$$$$

     RDKit          3D

 15 15  0  0  0  0  0  0  0  0999 V2000
    1.3380   20.0050   40.7750 C   0  0  0  0  0  0  0  0  0  0  0  0
    2.7370   18.2660   39.7500 C   0  0  0  0  0  0  0  0  0  0  0  0
    2.3260   20.9890   37.3100 C   0  0  0  0  0  0  0  0  0  0  0  0
    1.5210   20.7910   39.6060 C   0  0  0  0  0  0  0  0  0  0  0  0
    2.3040   20.3840   38.5050 C   0  0  0  0  0  0  0  0  0  0  0  0
    3.6720   18.6780   37.6560 O   0  0  0  0  0  0  0  0  0  0  0  0
    2.7290   20.9780   36.2800 O   0  0  0  0  0  0  0  0  0  0  0  0
    2.9120   19.0400   38.5950 C   0  0  0  0  0  0  0  0  0  0  0  0
    1.8690   18.7090   40.7330 C   0  0  0  0  0  0  0  0  0  0  0  0
    1.8109   20.5354   41.6147 H   0  0  0  0  0  0  0  0  0  0  0  0
    0.2505   19.8767   40.8789 H   0  0  0  0  0  0  0  0  0  0  0  0
    3.2823   17.3187   39.8738 H   0  0  0  0  0  0  0  0  0  0  0  0
    1.6654   21.8654   37.3843 H   0  0  0  0  0  0  0  0  0  0  0  0
    1.0247   21.7714   39.5563 H   0  0  0  0  0  0  0  0  0  0  0  0
    1.5797   18.0038   41.5261 H   0  0  0  0  0  0  0  0  0  0  0  0
  2  9  2  0
  3  5  1  0
  4  1  1  0
  5  8  1  0
  5  4  2  0
  6  8  2  0
  7  3  2  0
  8  2  1  0
  9  1  1  0
  1 10  1  0
  1 11  1  0
  2 12  1  0
  3 13  1  0
  4 14  1  0
  9 15  1  0
M  END
>  <mol_id>  (78) 
2026-09-18-3war-s0-n100-refligand-0081

>  <rmsd_to_ref>  (78) 


$$$$

     RDKit          3D

 48 49  0  0  0  0  0  0  0  0999 V2000
   -0.0729   20.8015   42.3728 C   0  0  0  0  0  0  0  0  0  0  0  0
    3.9999   18.0161   36.9378 C   0  0  0  0  0  0  0  0  0  0  0  0
    0.6629   19.7960   41.9697 C   0  0  0  0  0  0  0  0  0  0  0  0
   -0.2708   17.0572   47.8919 C   0  0  0  0  0  0  0  0  0  0  0  0
    3.2908   21.4804   35.8075 C   0  0  0  0  0  0  0  0  0  0  0  0
    2.2095   22.0632   35.6352 O   0  0  0  0  0  0  0  0  0  0  0  0
    1.5167   19.9245   40.7083 C   0  0  0  0  0  0  0  0  0  0  0  0
   -1.0471   19.7821   44.3210 C   0  0  0  0  0  0  0  0  0  0  0  0
    4.4127   21.8469   35.3256 O   0  0  0  0  0  0  0  0  0  0  0  0
    0.7386   18.6576   42.6352 C   0  0  0  0  0  0  0  0  0  0  0  0
    0.2620   18.0187   43.7109 C   0  0  0  0  0  0  0  0  0  0  0  0
    2.7650   20.2365   37.8606 C   0  0  0  0  0  0  0  0  0  0  0  0
    3.6208   15.3399   38.0592 C   0  0  0  0  0  0  0  0  0  0  0  0
    2.8107   19.0886   38.6221 C   0  0  0  0  0  0  0  0  0  0  0  0
   -0.5490   18.4874   44.6019 C   0  0  0  0  0  0  0  0  0  0  0  0
    4.1552   19.2160   36.2019 C   0  0  0  0  0  0  0  0  0  0  0  0
    2.2663   18.5438   40.4327 N   0  0  0  0  0  0  0  0  0  0  0  0
    4.1795   14.4692   38.7306 O   0  0  0  0  0  0  0  0  0  0  0  0
    2.9210   16.5344   38.6484 C   0  0  0  0  0  0  0  0  0  0  0  0
    2.5629   18.8366   39.7455 C   0  0  0  0  0  0  0  0  0  0  0  0
    3.3450   20.2673   36.6706 C   0  0  0  0  0  0  0  0  0  0  0  0
    0.0577   17.1363   46.4321 C   0  0  0  0  0  0  0  0  0  0  0  0
    3.2965   17.8765   38.0886 C   0  0  0  0  0  0  0  0  0  0  0  0
    1.5491   21.0907   40.1206 O   0  0  0  0  0  0  0  0  0  0  0  0
    3.7232   15.2872   36.7385 O   0  0  0  0  0  0  0  0  0  0  0  0
   -0.8986   17.8678   45.7823 N   0  0  0  0  0  0  0  0  0  0  0  0
   -0.8328   20.6730   43.4629 N   0  0  0  0  0  0  0  0  0  0  0  0
   -0.0648   21.7494   41.8148 H   0  0  0  0  0  0  0  0  0  0  0  0
    4.4940   17.1172   36.5404 H   0  0  0  0  0  0  0  0  0  0  0  0
    0.6381   17.2429   48.4828 H   0  0  0  0  0  0  0  0  0  0  0  0
   -1.0296   17.8144   48.1385 H   0  0  0  0  0  0  0  0  0  0  0  0
   -0.6622   16.0562   48.1260 H   0  0  0  0  0  0  0  0  0  0  0  0
   -1.8220   20.0862   45.0402 H   0  0  0  0  0  0  0  0  0  0  0  0
    1.4498   17.9956   42.1195 H   0  0  0  0  0  0  0  0  0  0  0  0
    0.5974   16.9806   43.8522 H   0  0  0  0  0  0  0  0  0  0  0  0
    2.2460   21.1283   38.2419 H   0  0  0  0  0  0  0  0  0  0  0  0
    4.8414   19.3167   35.3480 H   0  0  0  0  0  0  0  0  0  0  0  0
    2.3400   17.6454   40.9310 H   0  0  0  0  0  0  0  0  0  0  0  0
    1.8405   16.3983   38.4935 H   0  0  0  0  0  0  0  0  0  0  0  0
    3.2322   16.5623   39.7031 H   0  0  0  0  0  0  0  0  0  0  0  0
    3.6035   18.5858   39.9987 H   0  0  0  0  0  0  0  0  0  0  0  0
    1.5823   19.3076   39.5819 H   0  0  0  0  0  0  0  0  0  0  0  0
    1.0375   17.6194   46.3037 H   0  0  0  0  0  0  0  0  0  0  0  0
    0.0879   16.1208   46.0104 H   0  0  0  0  0  0  0  0  0  0  0  0
   -1.2158   18.6020   46.4312 H   0  0  0  0  0  0  0  0  0  0  0  0
   -1.6098   17.1750   45.5081 H   0  0  0  0  0  0  0  0  0  0  0  0
   -0.5256   21.4680   44.0414 H   0  0  0  0  0  0  0  0  0  0  0  0
   -1.6940   20.4774   42.9329 H   0  0  0  0  0  0  0  0  0  0  0  0
  1 27  1  0
  2 23  1  0
  3  1  2  0
  3 10  1  0
  5 21  1  0
  6  5  1  0
  7  3  1  0
  8 15  2  0
  9  5  2  0
 10 11  2  0
 11 15  1  0
 12 14  1  0
 13 19  1  0
 13 18  1  0
 14 20  1  0
 15 26  1  0
 16 21  1  0
 16  2  2  0
 17  7  1  0
 20 17  1  0
 21 12  2  0
 22  4  1  0
 23 14  2  0
 23 19  1  0
 24  7  2  0
 25 13  2  0
 26 22  1  0
 27  8  1  0
  1 28  1  0
  2 29  1  0
  4 30  1  0
  4 31  1  0
  4 32  1  0
  8 33  1  0
 10 34  1  0
 11 35  1  0
 12 36  1  0
 16 37  1  0
 17 38  1  0
 19 39  1  0
 19 40  1  0
 20 41  1  0
 20 42  1  0
 22 43  1  0
 22 44  1  0
 26 45  1  0
 26 46  1  0
 27 47  1  0
 27 48  1  0
M  CHG  4   6  -1  18  -1  26   1  27   1
M  END
>  <mol_id>  (79) 
2026-09-18-3war-s0-n100-refligand-0082

>  <rmsd_to_ref>  (79) 


$$$$

     RDKit          3D

 67 72  0  0  0  0  0  0  0  0999 V2000
    2.3930   16.7600   41.2560 C   0  0  0  0  0  0  0  0  0  0  0  0
    0.5630   21.3470   41.8560 C   0  0  0  0  0  0  0  0  0  0  0  0
   -1.1280   22.5630   45.1500 F   0  0  0  0  0  0  0  0  0  0  0  0
    2.2000   14.1870   40.3930 C   0  0  0  0  0  0  0  0  0  0  0  0
   -1.1710   23.9610   43.1620 C   0  0  0  0  0  0  0  0  0  0  0  0
    0.8640   23.3120   44.2270 F   0  0  0  0  0  0  0  0  0  0  0  0
    2.7930   18.0790   37.7240 C   0  0  0  0  0  0  0  0  0  0  0  0
    2.6450   19.2970   37.2730 C   0  0  0  0  0  0  0  0  0  0  0  0
    5.3800   13.0890   37.8950 O   0  0  0  0  0  0  0  0  0  0  0  0
    2.7740   23.1430   36.8490 C   0  0  0  0  0  0  0  0  0  0  0  0
    4.0670   13.6420   37.4760 S   0  0  0  0  0  6  0  0  0  0  0  0
    3.8680   15.9180   37.3620 C   0  0  1  0  0  0  0  0  0  0  0  0
    3.2510   14.6270   38.5060 C   0  0  2  0  0  0  0  0  0  0  0  0
    2.1530   22.8200   37.1300 C   0  0  0  0  0  0  0  0  0  0  0  0
    2.6170   15.2380   39.2740 C   0  0  2  0  0  0  0  0  0  0  0  0
    2.1520   21.4240   36.5090 C   0  0  1  0  0  0  0  0  0  0  0  0
    4.6050   14.8830   36.5130 C   0  0  0  0  0  0  0  0  0  0  0  0
    3.1740   12.7340   36.7740 O   0  0  0  0  0  0  0  0  0  0  0  0
    2.0400   19.4420   39.9900 C   0  0  0  0  0  0  0  0  0  0  0  0
    2.5650   16.5980   39.9650 C   0  0  0  0  0  0  0  0  0  0  0  0
    0.5420   20.1190   45.1110 C   0  0  0  0  0  0  0  0  0  0  0  0
   -1.3370   22.4590   42.9550 C   0  0  2  0  0  0  0  0  0  0  0  0
    1.9540   19.2320   41.2690 C   0  0  0  0  0  0  0  0  0  0  0  0
    1.6350   20.6440   38.9160 C   0  0  0  0  0  0  0  0  0  0  0  0
    3.1550   19.4870   35.9810 N   0  0  0  0  0  0  0  0  0  0  0  0
    3.1470   20.9570   35.6530 O   0  0  0  0  0  0  0  0  0  0  0  0
    1.9030   17.9280   41.8270 C   0  0  0  0  0  0  0  0  0  0  0  0
    2.7950   16.8830   36.9890 C   0  0  0  0  0  0  0  0  0  0  0  0
   -0.3110   20.8980   40.8760 F   0  0  0  0  0  0  0  0  0  0  0  0
    2.3930   17.8810   39.3340 C   0  0  0  0  0  0  0  0  0  0  0  0
    2.0760   20.5000   37.5270 C   0  0  0  0  0  0  0  0  0  0  0  0
   -0.4100   22.8280   43.8510 C   0  0  0  0  0  0  0  0  0  0  0  0
    1.3090   22.3900   41.3970 F   0  0  0  0  0  0  0  0  0  0  0  0
   -0.5180   20.3620   43.9460 C   0  0  0  0  0  0  0  0  0  0  0  0
   -0.2160   21.4910   43.0510 C   0  0  1  0  0  0  0  0  0  0  0  0
    1.6280   20.2780   41.9780 C   0  0  0  0  0  0  0  0  0  0  0  0
    2.6512   15.9244   41.9232 H   0  0  0  0  0  0  0  0  0  0  0  0
    2.3729   14.6228   41.3881 H   0  0  0  0  0  0  0  0  0  0  0  0
    1.1345   13.9369   40.2824 H   0  0  0  0  0  0  0  0  0  0  0  0
    2.8042   13.2745   40.2824 H   0  0  0  0  0  0  0  0  0  0  0  0
   -1.9281   24.5499   43.7005 H   0  0  0  0  0  0  0  0  0  0  0  0
   -0.9466   24.8532   42.5591 H   0  0  0  0  0  0  0  0  0  0  0  0
    3.4186   23.4783   37.6748 H   0  0  0  0  0  0  0  0  0  0  0  0
    3.3189   22.4141   36.2312 H   0  0  0  0  0  0  0  0  0  0  0  0
    2.4901   24.0077   36.2312 H   0  0  0  0  0  0  0  0  0  0  0  0
    4.5331   16.7686   37.5720 H   0  0  0  0  0  0  0  0  0  0  0  0
    2.3444   14.5170   37.8929 H   0  0  0  0  0  0  0  0  0  0  0  0
    2.2051   22.7603   38.2271 H   0  0  0  0  0  0  0  0  0  0  0  0
    1.2388   23.3871   36.9005 H   0  0  0  0  0  0  0  0  0  0  0  0
    2.1858   15.7500   38.4012 H   0  0  0  0  0  0  0  0  0  0  0  0
    1.3004   21.5435   35.8231 H   0  0  0  0  0  0  0  0  0  0  0  0
    4.2462   14.8254   35.4748 H   0  0  0  0  0  0  0  0  0  0  0  0
    5.6835   14.9997   36.3304 H   0  0  0  0  0  0  0  0  0  0  0  0
    0.0469   20.2325   46.0867 H   0  0  0  0  0  0  0  0  0  0  0  0
    0.9547   19.1030   45.0252 H   0  0  0  0  0  0  0  0  0  0  0  0
    1.3560   20.8538   45.0252 H   0  0  0  0  0  0  0  0  0  0  0  0
   -2.2460   22.1038   42.4474 H   0  0  0  0  0  0  0  0  0  0  0  0
    1.0538   21.5205   39.2385 H   0  0  0  0  0  0  0  0  0  0  0  0
    3.4837   18.7386   35.3543 H   0  0  0  0  0  0  0  0  0  0  0  0
    1.4262   17.8322   42.8136 H   0  0  0  0  0  0  0  0  0  0  0  0
    2.9177   17.1359   35.9255 H   0  0  0  0  0  0  0  0  0  0  0  0
    1.8405   16.3834   37.2109 H   0  0  0  0  0  0  0  0  0  0  0  0
   -0.5691   19.4481   43.3360 H   0  0  0  0  0  0  0  0  0  0  0  0
   -1.4671   20.6112   44.4432 H   0  0  0  0  0  0  0  0  0  0  0  0
    0.6155   21.9200   43.6294 H   0  0  0  0  0  0  0  0  0  0  0  0
    2.5608   20.8605   42.0018 H   0  0  0  0  0  0  0  0  0  0  0  0
    1.1120   19.7099   42.7660 H   0  0  0  0  0  0  0  0  0  0  0  0
  1 27  2  0
  2 36  1  0
  2 35  1  0
  5 32  1  0
  7 30  1  0
  8 31  1  0
  8  7  2  0
 10 14  1  0
 11  9  2  0
 12 17  1  0
 12 13  1  0
 13 11  1  0
 13 15  1  0
 15 20  1  0
 15  4  1  0
 16 14  1  0
 16 31  1  0
 17 11  1  0
 18 11  2  0
 19 23  2  0
 20  1  1  0
 22 35  1  0
 22  5  1  0
 22 32  1  0
 23 27  1  0
 23 36  1  0
 24 19  1  0
 25  8  1  0
 26 25  1  0
 26 16  1  0
 28 12  1  0
 28  7  1  0
 29  2  1  0
 30 20  2  0
 30 19  1  0
 31 24  2  0
 32  6  1  0
 32  3  1  0
 33  2  1  0
 34 21  1  0
 35 34  1  0
  1 37  1  0
  4 38  1  0
  4 39  1  0
  4 40  1  0
  5 41  1  0
  5 42  1  0
 10 43  1  0
 10 44  1  0
 10 45  1  0
 12 46  1  1
 13 47  1  6
 14 48  1  0
 14 49  1  0
 15 50  1  6
 16 51  1  6
 17 52  1  0
 17 53  1  0
 21 54  1  0
 21 55  1  0
 21 56  1  0
 22 57  1  1
 24 58  1  0
 25 59  1  0
 27 60  1  0
 28 61  1  0
 28 62  1  0
 34 63  1  0
 34 64  1  0
 35 65  1  1
 36 66  1  0
 36 67  1  0
M  END
>  <mol_id>  (80) 
2026-09-18-3war-s0-n100-refligand-0083

>  <rmsd_to_ref>  (80) 


$$$$

     RDKit          3D

 52 57  0  0  0  0  0  0  0  0999 V2000
    1.1178   20.7857   37.8697 C   0  0  0  0  0  0  0  0  0  0  0  0
    1.5341   21.5639   39.1600 C   0  0  2  0  0  0  0  0  0  0  0  0
    3.6150   18.8762   41.2995 F   0  0  0  0  0  0  0  0  0  0  0  0
    2.1936   17.3201   40.0360 C   0  0  0  0  0  0  0  0  0  0  0  0
    2.6329   14.0690   40.3344 O   0  0  0  0  0  0  0  0  0  0  0  0
   -0.4226   21.5852   43.0926 C   0  0  2  0  0  0  0  0  0  0  0  0
    3.5693   13.7788   39.8530 C   0  0  0  0  0  0  0  0  0  0  0  0
    2.9464   21.8871   37.2480 F   0  0  0  0  0  0  0  0  0  0  0  0
    3.5742   19.4487   36.5339 O   0  0  0  0  0  0  0  0  0  0  0  0
    2.0616   16.0433   40.6713 C   0  0  0  0  0  0  0  0  0  0  0  0
    0.8972   21.4350   42.5970 C   0  0  0  0  0  0  0  0  0  0  0  0
    2.7249   19.1845   38.8046 C   0  0  2  0  0  0  0  0  0  0  0  0
    3.0368   19.6316   40.2331 C   0  0  1  0  0  0  0  0  0  0  0  0
   -1.0938   20.7216   44.1305 C   0  0  1  0  0  0  0  0  0  0  0  0
    0.8653   22.7273   39.7279 F   0  0  0  0  0  0  0  0  0  0  0  0
    1.0432   19.9172   42.8715 O   0  0  0  0  0  0  0  0  0  0  0  0
    1.2228   22.7211   37.1461 F   0  0  0  0  0  0  0  0  0  0  0  0
    0.9733   20.3988   41.5480 C   0  0  1  0  0  0  0  0  0  0  0  0
    3.1985   15.1904   39.8552 C   0  0  2  0  0  0  0  0  0  0  0  0
    1.7607   21.6754   37.7098 C   0  0  0  0  0  0  0  0  0  0  0  0
   -1.1097   20.4660   42.8595 C   0  0  2  0  0  0  0  0  0  0  0  0
    0.0772   19.1095   42.9359 O   0  0  0  0  0  0  0  0  0  0  0  0
    3.5123   16.9885   38.3479 C   0  0  0  0  0  0  0  0  0  0  0  0
    1.0958   20.8510   40.3488 C   0  0  2  0  0  0  0  0  0  0  0  0
   -0.8599   19.2848   45.0592 O   0  0  0  0  0  0  0  0  0  0  0  0
    1.6059   19.3742   40.7408 C   0  0  1  0  0  0  0  0  0  0  0  0
    2.8288   17.7137   39.0042 C   0  0  0  0  0  0  0  0  0  0  0  0
    1.2241   18.1106   40.7401 O   0  0  0  0  0  0  0  0  0  0  0  0
    3.2231   19.5876   37.5148 C   0  0  0  0  0  0  0  0  0  0  0  0
    3.6475   15.7988   38.7184 C   0  0  0  0  0  0  0  0  0  0  0  0
    1.1704   20.4803   38.9252 H   0  0  0  0  0  0  0  0  0  0  0  0
    0.0778   21.0337   37.6112 H   0  0  0  0  0  0  0  0  0  0  0  0
    1.4677   19.9609   37.2315 H   0  0  0  0  0  0  0  0  0  0  0  0
    2.4220   21.0021   38.8346 H   0  0  0  0  0  0  0  0  0  0  0  0
   -0.4015   22.6786   42.9744 H   0  0  0  0  0  0  0  0  0  0  0  0
    4.4151   13.4360   40.4672 H   0  0  0  0  0  0  0  0  0  0  0  0
    3.8381   13.0563   39.0682 H   0  0  0  0  0  0  0  0  0  0  0  0
    4.3683   18.8577   36.5482 H   0  0  0  0  0  0  0  0  0  0  0  0
    1.3870   15.7248   41.4797 H   0  0  0  0  0  0  0  0  0  0  0  0
    1.2306   22.3944   42.1749 H   0  0  0  0  0  0  0  0  0  0  0  0
    1.5432   21.1251   43.4318 H   0  0  0  0  0  0  0  0  0  0  0  0
    1.8352   19.7819   38.5564 H   0  0  0  0  0  0  0  0  0  0  0  0
    3.6852   20.5112   40.1071 H   0  0  0  0  0  0  0  0  0  0  0  0
   -1.5584   21.0948   45.0551 H   0  0  0  0  0  0  0  0  0  0  0  0
   -1.8728   20.2831   42.0886 H   0  0  0  0  0  0  0  0  0  0  0  0
    4.0118   17.3554   37.4392 H   0  0  0  0  0  0  0  0  0  0  0  0
    0.5222   21.7039   39.9572 H   0  0  0  0  0  0  0  0  0  0  0  0
   -0.7967   19.5189   46.0190 H   0  0  0  0  0  0  0  0  0  0  0  0
    4.0832   20.1672   37.8815 H   0  0  0  0  0  0  0  0  0  0  0  0
    2.2060   19.4358   37.1244 H   0  0  0  0  0  0  0  0  0  0  0  0
    4.7361   15.6423   38.7382 H   0  0  0  0  0  0  0  0  0  0  0  0
    2.9426   15.3380   38.0107 H   0  0  0  0  0  0  0  0  0  0  0  0
  2 15  1  0
  4 28  1  0
  4 10  2  0
  6 11  1  0
  6 14  1  0
  7  5  1  0
  8 20  1  0
  9 29  1  0
 12 29  1  0
 12 27  1  0
 12 13  1  0
 13 26  1  0
 13  3  1  0
 14 25  1  0
 16 22  1  0
 17 20  1  0
 18 11  1  0
 18 16  1  1
 19 30  1  0
 19  7  1  0
 19 10  1  0
 19  5  1  1
 20  1  1  0
 20  2  1  0
 21  6  1  0
 21 22  1  0
 21 14  1  0
 23 27  2  0
 23 30  1  0
 24  2  1  0
 24 26  1  0
 24 18  1  0
 26 28  1  6
 26 18  1  0
 27  4  1  0
  1 31  1  0
  1 32  1  0
  1 33  1  0
  2 34  1  1
  6 35  1  6
  7 36  1  0
  7 37  1  0
  9 38  1  0
 10 39  1  0
 11 40  1  0
 11 41  1  0
 12 42  1  6
 13 43  1  6
 14 44  1  1
 21 45  1  6
 23 46  1  0
 24 47  1  6
 25 48  1  0
 29 49  1  0
 29 50  1  0
 30 51  1  0
 30 52  1  0
M  END
>  <mol_id>  (81) 
2026-09-18-3war-s0-n100-refligand-0084

>  <rmsd_to_ref>  (81) 


$$$$

     RDKit          3D

 18 17  0  0  0  0  0  0  0  0999 V2000
    0.7828   20.7870   40.7266 C   0  0  0  0  0  0  0  0  0  0  0  0
    2.6913   19.8967   39.1434 C   0  0  0  0  0  0  0  0  0  0  0  0
    4.0751   18.2977   37.9624 C   0  0  0  0  0  0  0  0  0  0  0  0
    2.7931   19.1628   37.7568 C   0  0  0  0  0  0  0  0  0  0  0  0
    4.1290   17.1098   37.1627 O   0  0  0  0  0  0  0  0  0  0  0  0
    1.3315   20.6974   39.1004 C   0  0  0  0  0  0  0  0  0  0  0  0
    1.6473   20.8775   41.4007 H   0  0  0  0  0  0  0  0  0  0  0  0
    0.1313   21.6652   40.8459 H   0  0  0  0  0  0  0  0  0  0  0  0
    0.2188   19.8756   40.9740 H   0  0  0  0  0  0  0  0  0  0  0  0
    3.5386   20.5854   39.2766 H   0  0  0  0  0  0  0  0  0  0  0  0
    2.7194   19.1866   39.9831 H   0  0  0  0  0  0  0  0  0  0  0  0
    4.9500   18.9172   37.7156 H   0  0  0  0  0  0  0  0  0  0  0  0
    4.0621   17.9665   39.0113 H   0  0  0  0  0  0  0  0  0  0  0  0
    2.9183   19.8783   36.9307 H   0  0  0  0  0  0  0  0  0  0  0  0
    1.8976   18.5841   37.4866 H   0  0  0  0  0  0  0  0  0  0  0  0
    4.1313   16.3147   37.7526 H   0  0  0  0  0  0  0  0  0  0  0  0
    1.4951   21.7072   38.6961 H   0  0  0  0  0  0  0  0  0  0  0  0
    0.5928   20.2026   38.4527 H   0  0  0  0  0  0  0  0  0  0  0  0
  2  6  1  0
  4  3  1  0
  4  2  1  0
  5  3  1  0
  6  1  1  0
  1  7  1  0
  1  8  1  0
  1  9  1  0
  2 10  1  0
  2 11  1  0
  3 12  1  0
  3 13  1  0
  4 14  1  0
  4 15  1  0
  5 16  1  0
  6 17  1  0
  6 18  1  0
M  END
>  <mol_id>  (82) 
2026-09-18-3war-s0-n100-refligand-0085

>  <rmsd_to_ref>  (82) 


$$$$

     RDKit          3D

 46 50  0  0  0  0  0  0  0  0999 V2000
    2.7344   14.5648   39.2729 C   0  0  0  0  0  0  0  0  0  0  0  0
   -0.6916   20.1432   43.6002 N   0  0  0  0  0  0  0  0  0  0  0  0
    2.3108   19.0145   38.6696 O   0  0  0  0  0  0  0  0  0  0  0  0
    1.5446   17.0070   41.5113 C   0  0  0  0  0  0  0  0  0  0  0  0
    3.2723   14.2895   38.0862 C   0  0  0  0  0  0  0  0  0  0  0  0
    1.5330   20.9222   37.7081 O   0  0  0  0  0  0  0  0  0  0  0  0
    3.4846   12.8041   38.0017 O   0  0  0  0  0  0  0  0  0  0  0  0
    3.1809   16.6911   37.7527 C   0  0  0  0  0  0  0  0  0  0  0  0
    0.3897   20.9095   40.4317 C   0  0  0  0  0  0  0  0  0  0  0  0
    0.9025   17.9172   42.2501 C   0  0  0  0  0  0  0  0  0  0  0  0
    2.2596   15.6663   39.7409 C   0  0  0  0  0  0  0  0  0  0  0  0
   -0.3150   19.2973   44.6583 N   0  0  0  0  0  0  0  0  0  0  0  0
    3.6978   12.1286   36.8416 C   0  0  0  0  0  0  0  0  0  0  0  0
    2.0884   19.8892   37.6207 C   0  0  0  0  0  0  0  0  0  0  0  0
    2.6440   19.1710   36.3451 C   0  0  0  0  0  0  0  0  0  0  0  0
   -0.2328   21.1623   41.4826 N   0  0  0  0  0  0  0  0  0  0  0  0
    3.3181   17.8538   36.7605 N   0  0  0  0  0  0  0  0  0  0  0  0
   -0.1500   20.1395   42.3385 C   0  0  0  0  0  0  0  0  0  0  0  0
    3.5301   15.4763   37.3152 C   0  0  0  0  0  0  0  0  0  0  0  0
    2.6249   16.8019   39.1011 C   0  0  0  0  0  0  0  0  0  0  0  0
    1.8706   17.4163   40.1365 C   0  0  2  0  0  0  0  0  0  0  0  0
    5.1468   11.7281   36.8093 C   0  0  0  0  0  0  0  0  0  0  0  0
    1.6987   18.6910   39.8745 C   0  0  2  0  0  0  0  0  0  0  0  0
    0.5103   19.1168   41.7748 C   0  0  1  0  0  0  0  0  0  0  0  0
    1.5353   15.6991   42.1601 C   0  0  0  0  0  0  0  0  0  0  0  0
    0.8601   19.5708   40.5539 C   0  0  0  0  0  0  0  0  0  0  0  0
    2.6881   13.7122   39.9663 H   0  0  0  0  0  0  0  0  0  0  0  0
   -1.4396   20.8259   43.7882 H   0  0  0  0  0  0  0  0  0  0  0  0
    0.5446   21.5868   39.5788 H   0  0  0  0  0  0  0  0  0  0  0  0
    0.6825   17.6754   43.3004 H   0  0  0  0  0  0  0  0  0  0  0  0
   -0.4484   19.7878   45.5541 H   0  0  0  0  0  0  0  0  0  0  0  0
   -0.8968   18.4475   44.6422 H   0  0  0  0  0  0  0  0  0  0  0  0
    3.0601   11.2330   36.8063 H   0  0  0  0  0  0  0  0  0  0  0  0
    3.4520   12.7605   35.9755 H   0  0  0  0  0  0  0  0  0  0  0  0
    3.3800   19.8203   35.8483 H   0  0  0  0  0  0  0  0  0  0  0  0
    1.8178   18.9603   35.6500 H   0  0  0  0  0  0  0  0  0  0  0  0
    4.1472   17.6977   36.1696 H   0  0  0  0  0  0  0  0  0  0  0  0
    4.0281   15.3822   36.3389 H   0  0  0  0  0  0  0  0  0  0  0  0
    5.5481   11.7210   37.8335 H   0  0  0  0  0  0  0  0  0  0  0  0
    5.2398   10.7230   36.3722 H   0  0  0  0  0  0  0  0  0  0  0  0
    5.7125   12.4472   36.1988 H   0  0  0  0  0  0  0  0  0  0  0  0
    1.8593   19.2462   40.8104 H   0  0  0  0  0  0  0  0  0  0  0  0
   -0.4454   18.6769   41.4533 H   0  0  0  0  0  0  0  0  0  0  0  0
    1.5584   15.8312   43.2518 H   0  0  0  0  0  0  0  0  0  0  0  0
    0.6223   15.1554   41.8758 H   0  0  0  0  0  0  0  0  0  0  0  0
    2.4180   15.1254   41.8413 H   0  0  0  0  0  0  0  0  0  0  0  0
  1 11  2  0
  2 12  1  0
  4 25  1  0
  4 10  2  0
  5  1  1  0
  7  5  1  0
  8 20  2  0
  9 26  2  0
  9 16  1  0
 11 21  1  0
 13  7  1  0
 14  6  2  0
 14  3  1  0
 15 17  1  0
 15 14  1  0
 16 18  2  0
 17  8  1  0
 18  2  1  0
 19  8  1  0
 19  5  2  0
 20 11  1  0
 21 20  1  0
 21  4  1  1
 22 13  1  0
 23  3  1  0
 23 21  1  0
 23 26  1  0
 24 10  1  0
 24 18  1  0
 26 24  1  0
  1 27  1  0
  2 28  1  0
  9 29  1  0
 10 30  1  0
 12 31  1  0
 12 32  1  0
 13 33  1  0
 13 34  1  0
 15 35  1  0
 15 36  1  0
 17 37  1  0
 19 38  1  0
 22 39  1  0
 22 40  1  0
 22 41  1  0
 23 42  1  1
 24 43  1  6
 25 44  1  0
 25 45  1  0
 25 46  1  0
M  END
>  <mol_id>  (83) 
2026-09-18-3war-s0-n100-refligand-0086

>  <rmsd_to_ref>  (83) 


$$$$

     RDKit          3D

 49 54  0  0  0  0  0  0  0  0999 V2000
    0.9740   17.1990   42.2770 C   0  0  0  0  0  0  0  0  0  0  0  0
    0.6840   21.0920   41.3480 C   0  0  0  0  0  0  0  0  0  0  0  0
    3.4920   19.1710   36.1630 C   0  0  0  0  0  0  0  0  0  0  0  0
    0.1760   20.6770   42.5600 C   0  0  0  0  0  0  0  0  0  0  0  0
    1.9920   17.8410   39.7010 C   0  0  0  0  0  0  0  0  0  0  0  0
    3.4690   13.4060   38.9610 C   0  0  0  0  0  0  0  0  0  0  0  0
   -1.1540   20.8320   44.8370 O   0  0  0  0  0  0  0  0  0  0  0  0
    3.8010   15.3450   37.3950 C   0  0  0  0  0  0  0  0  0  0  0  0
    3.1760   16.2120   38.3300 C   0  0  2  0  0  0  0  0  0  0  0  0
    3.0080   21.5160   36.9420 C   0  0  0  0  0  0  0  0  0  0  0  0
    1.4510   18.8600   40.6870 C   0  0  0  0  0  0  0  0  0  0  0  0
    0.9960   18.5160   41.8330 C   0  0  0  0  0  0  0  0  0  0  0  0
    2.0830   16.5240   40.2700 C   0  0  0  0  0  0  0  0  0  0  0  0
    4.5630   13.1040   36.7070 O   0  0  0  0  0  0  0  0  0  0  0  0
    4.0030   13.9700   37.7110 C   0  0  0  0  0  0  0  0  0  0  0  0
   -1.1740   22.4120   43.7400 N   0  0  0  0  0  0  0  0  0  0  0  0
    2.3960   20.4120   39.2210 C   0  0  2  0  0  0  0  0  0  0  0  0
    2.7970   14.3060   39.8810 C   0  0  0  0  0  0  0  0  0  0  0  0
    2.3700   19.6320   38.2800 C   0  0  2  0  0  0  0  0  0  0  0  0
    0.5000   19.2460   42.7000 O   0  0  0  0  0  0  0  0  0  0  0  0
    2.6230   15.5650   39.4590 C   0  0  0  0  0  0  0  0  0  0  0  0
    1.5090   16.2230   41.5550 C   0  0  0  0  0  0  0  0  0  0  0  0
    1.4000   21.1490   40.3540 C   0  0  0  0  0  0  0  0  0  0  0  0
   -0.8040   21.0540   43.5940 C   0  0  0  0  0  0  0  0  0  0  0  0
    3.4950   21.1020   34.9440 F   0  0  0  0  0  0  0  0  0  0  0  0
    3.3900   20.5910   36.0060 C   0  0  2  0  0  0  0  0  0  0  0  0
    2.9880   18.5010   37.2470 C   0  0  2  0  0  0  0  0  0  0  0  0
    2.7390   17.7460   38.3420 C   0  0  0  0  0  0  0  0  0  0  0  0
    2.3670   20.6370   37.9160 C   0  0  2  0  0  0  0  0  0  0  0  0
    0.5050   16.9620   43.2434 H   0  0  0  0  0  0  0  0  0  0  0  0
    4.5671   18.9399   36.1372 H   0  0  0  0  0  0  0  0  0  0  0  0
    2.8333   18.8132   35.3580 H   0  0  0  0  0  0  0  0  0  0  0  0
    3.5757   12.3357   39.1912 H   0  0  0  0  0  0  0  0  0  0  0  0
    4.1310   15.7368   36.4216 H   0  0  0  0  0  0  0  0  0  0  0  0
    4.0312   16.6166   37.7689 H   0  0  0  0  0  0  0  0  0  0  0  0
    2.3017   22.2499   36.5268 H   0  0  0  0  0  0  0  0  0  0  0  0
    3.8238   22.1360   37.3421 H   0  0  0  0  0  0  0  0  0  0  0  0
    1.4498   19.9243   40.4090 H   0  0  0  0  0  0  0  0  0  0  0  0
    4.7112   12.1457   36.9066 H   0  0  0  0  0  0  0  0  0  0  0  0
   -1.8582   22.6848   44.4600 H   0  0  0  0  0  0  0  0  0  0  0  0
   -0.7591   23.1277   43.1263 H   0  0  0  0  0  0  0  0  0  0  0  0
    2.9542   20.4376   40.1685 H   0  0  0  0  0  0  0  0  0  0  0  0
    2.4500   13.9722   40.8700 H   0  0  0  0  0  0  0  0  0  0  0  0
    1.9362   18.6447   38.4968 H   0  0  0  0  0  0  0  0  0  0  0  0
    1.5138   15.1910   41.9358 H   0  0  0  0  0  0  0  0  0  0  0  0
    1.3795   22.2082   40.0579 H   0  0  0  0  0  0  0  0  0  0  0  0
    4.0565   19.9431   36.5942 H   0  0  0  0  0  0  0  0  0  0  0  0
    3.2179   17.7574   36.4697 H   0  0  0  0  0  0  0  0  0  0  0  0
    1.8315   21.2239   37.1552 H   0  0  0  0  0  0  0  0  0  0  0  0
  2  4  2  0
  3 27  1  0
  4 20  1  0
  4 24  1  0
  5 13  1  0
  5 11  1  0
  6 18  2  0
  8 15  2  0
  9  8  1  0
  9 28  1  0
  9 21  1  0
 10 29  1  0
 11 12  2  0
 12  1  1  0
 12 20  1  0
 13 22  1  0
 14 15  1  0
 15  6  1  0
 17 23  1  0
 19 17  1  0
 21 18  1  0
 21 13  2  0
 22  1  2  0
 23  2  2  0
 24 16  1  0
 24  7  2  0
 25 26  1  0
 26  3  1  0
 26 10  1  0
 27 19  1  0
 27 28  1  0
 28  5  2  0
 29 19  1  0
 29 17  1  0
  1 30  1  0
  3 31  1  0
  3 32  1  0
  6 33  1  0
  8 34  1  0
  9 35  1  1
 10 36  1  0
 10 37  1  0
 11 38  1  0
 14 39  1  0
 16 40  1  0
 16 41  1  0
 17 42  1  1
 18 43  1  0
 19 44  1  1
 22 45  1  0
 23 46  1  0
 26 47  1  1
 27 48  1  6
 29 49  1  1
M  END
>  <mol_id>  (84) 
2026-09-18-3war-s0-n100-refligand-0087

>  <rmsd_to_ref>  (84) 


$$$$

     RDKit          3D

 28 30  0  0  0  0  0  0  0  0999 V2000
    3.1442   17.4012   38.2063 C   0  0  0  0  0  0  0  0  0  0  0  0
    3.7322   15.8924   38.4255 S   0  0  0  0  0  0  0  0  0  0  0  0
    2.9284   15.8046   39.9159 C   0  0  0  0  0  0  0  0  0  0  0  0
   -0.5858   21.5857   41.7301 C   0  0  0  0  0  0  0  0  0  0  0  0
    0.3771   21.1702   40.8120 C   0  0  0  0  0  0  0  0  0  0  0  0
    2.2313   19.1503   39.2956 C   0  0  0  0  0  0  0  0  0  0  0  0
    2.2998   20.0597   38.2519 C   0  0  0  0  0  0  0  0  0  0  0  0
    2.4524   17.8551   39.2334 C   0  0  0  0  0  0  0  0  0  0  0  0
    2.2824   16.8453   40.1945 N   0  0  0  0  0  0  0  0  0  0  0  0
    0.9663   19.9065   41.0152 C   0  0  0  0  0  0  0  0  0  0  0  0
    3.4045   18.2954   37.2170 C   0  0  0  0  0  0  0  0  0  0  0  0
    2.9606   19.4743   37.1788 C   0  0  0  0  0  0  0  0  0  0  0  0
   -0.4026   19.4894   42.8458 C   0  0  0  0  0  0  0  0  0  0  0  0
   -1.0013   20.7257   42.7382 C   0  0  0  0  0  0  0  0  0  0  0  0
    1.8734   19.4435   40.4803 O   0  0  0  0  0  0  0  0  0  0  0  0
    3.0375   14.7413   40.7380 N   0  0  0  0  0  0  0  0  0  0  0  0
    2.9987   20.1915   36.0875 O   0  0  0  0  0  0  0  0  0  0  0  0
    0.5173   19.0598   41.9775 C   0  0  0  0  0  0  0  0  0  0  0  0
   -1.0167   22.5951   41.6560 H   0  0  0  0  0  0  0  0  0  0  0  0
    0.6661   21.8047   39.9612 H   0  0  0  0  0  0  0  0  0  0  0  0
    1.8953   21.0824   38.2701 H   0  0  0  0  0  0  0  0  0  0  0  0
    4.0499   17.9665   36.3892 H   0  0  0  0  0  0  0  0  0  0  0  0
   -0.6929   18.8314   43.6782 H   0  0  0  0  0  0  0  0  0  0  0  0
   -1.7946   21.0262   43.4386 H   0  0  0  0  0  0  0  0  0  0  0  0
    2.5313   14.7297   41.6350 H   0  0  0  0  0  0  0  0  0  0  0  0
    3.6270   13.9407   40.4689 H   0  0  0  0  0  0  0  0  0  0  0  0
    2.6418   21.1149   36.0894 H   0  0  0  0  0  0  0  0  0  0  0  0
    0.9063   18.0328   42.0411 H   0  0  0  0  0  0  0  0  0  0  0  0
  1  8  1  0
  2  1  1  0
  2  3  1  0
  3  9  2  0
  3 16  1  0
  4 14  2  0
  5  4  1  0
  6 15  1  0
  7  6  1  0
  8  6  2  0
  8  9  1  0
 10  5  2  0
 10 18  1  0
 11 12  1  0
 11  1  2  0
 12  7  2  0
 13 14  1  0
 15 10  1  0
 17 12  1  0
 18 13  2  0
  4 19  1  0
  5 20  1  0
  7 21  1  0
 11 22  1  0
 13 23  1  0
 14 24  1  0
 16 25  1  0
 16 26  1  0
 17 27  1  0
 18 28  1  0
M  END
>  <mol_id>  (85) 
2026-09-18-3war-s0-n100-refligand-0088

>  <rmsd_to_ref>  (85) 


$$$$

     RDKit          3D

 21 21  0  0  0  0  0  0  0  0999 V2000
    2.9740   16.4730   39.3630 O   0  0  0  0  0  0  0  0  0  0  0  0
    2.2810   20.4160   38.5970 C   0  0  0  0  0  0  0  0  0  0  0  0
    3.2490   18.3210   37.9340 C   0  0  0  0  0  0  0  0  0  0  0  0
    1.9230   18.4500   40.0320 C   0  0  0  0  0  0  0  0  0  0  0  0
    2.8080   17.6850   39.1520 C   0  0  0  0  0  0  0  0  0  0  0  0
    1.7150   19.8060   39.7810 C   0  0  0  0  0  0  0  0  0  0  0  0
    1.1540   17.7900   41.2160 C   0  0  0  0  0  0  0  0  0  0  0  0
    3.0020   19.7010   37.7180 C   0  0  0  0  0  0  0  0  0  0  0  0
    1.6790   18.2620   42.4330 O   0  0  0  0  0  0  0  0  0  0  0  0
    0.8780   20.7140   40.6560 C   0  0  0  0  0  0  0  0  0  0  0  0
    3.2790   20.2740   36.5700 O   0  0  0  0  0  0  0  0  0  0  0  0
    2.1172   21.4881   38.4131 H   0  0  0  0  0  0  0  0  0  0  0  0
    4.3390   18.1829   37.8819 H   0  0  0  0  0  0  0  0  0  0  0  0
    2.6361   17.8335   37.1615 H   0  0  0  0  0  0  0  0  0  0  0  0
    0.0870   18.0494   41.1511 H   0  0  0  0  0  0  0  0  0  0  0  0
    1.2676   16.6971   41.1652 H   0  0  0  0  0  0  0  0  0  0  0  0
    1.2017   17.8329   43.1868 H   0  0  0  0  0  0  0  0  0  0  0  0
    1.0816   20.4931   41.7142 H   0  0  0  0  0  0  0  0  0  0  0  0
    1.1324   21.7631   40.4449 H   0  0  0  0  0  0  0  0  0  0  0  0
   -0.1883   20.5457   40.4449 H   0  0  0  0  0  0  0  0  0  0  0  0
    3.0981   21.2389   36.4420 H   0  0  0  0  0  0  0  0  0  0  0  0
  2  6  1  0
  3  5  1  0
  4  7  1  0
  5  1  2  0
  5  4  1  0
  6  4  2  0
  6 10  1  0
  7  9  1  0
  8  3  1  0
  8  2  2  0
 11  8  1  0
  2 12  1  0
  3 13  1  0
  3 14  1  0
  7 15  1  0
  7 16  1  0
  9 17  1  0
 10 18  1  0
 10 19  1  0
 10 20  1  0
 11 21  1  0
M  END
>  <mol_id>  (86) 
2026-09-18-3war-s0-n100-refligand-0089

>  <rmsd_to_ref>  (86) 


$$$$

     RDKit          3D

 11 10  0  0  0  0  0  0  0  0999 V2000
    2.6740   20.0540   37.7050 C   0  0  0  0  0  0  0  0  0  0  0  0
    2.5630   18.6390   39.8060 C   0  0  0  0  0  0  0  0  0  0  0  0
    1.2260   20.9680   41.1130 O   0  0  0  0  0  0  0  0  0  0  0  0
    1.5700   20.9390   39.7750 C   0  0  0  0  0  0  0  0  0  0  0  0
    3.5360   19.2590   37.2350 O   0  0  0  0  0  0  0  0  0  0  0  0
    2.1330   20.9720   37.0610 O   0  0  0  0  0  0  0  0  0  0  0  0
    3.0800   17.6580   39.2460 O   0  0  0  0  0  0  0  0  0  0  0  0
    2.2290   19.9460   39.1280 C   0  0  0  0  0  0  0  0  0  0  0  0
    2.2000   18.5540   40.9760 O   0  0  0  0  0  0  0  0  0  0  0  0
    0.7422   21.7485   41.4829 H   0  0  0  0  0  0  0  0  0  0  0  0
    1.2791   21.8119   39.1722 H   0  0  0  0  0  0  0  0  0  0  0  0
  1  8  1  0
  2  9  1  0
  4  3  1  0
  5  1  1  0
  6  1  2  0
  7  2  2  0
  8  4  2  3
  8  2  1  0
  3 10  1  0
  4 11  1  0
M  CHG  2   5  -1   9  -1
M  END
>  <mol_id>  (87) 
2026-09-18-3war-s0-n100-refligand-0090

>  <rmsd_to_ref>  (87) 


$$$$

     RDKit          3D

 29 32  0  0  0  0  0  0  0  0999 V2000
    1.3500   19.2170   41.0550 C   0  0  0  0  0  0  0  0  0  0  0  0
    2.0890   14.6660   40.7830 C   0  0  0  0  0  0  0  0  0  0  0  0
    3.2490   14.5950   38.6650 C   0  0  0  0  0  0  0  0  0  0  0  0
    2.4360   16.7080   39.6310 C   0  0  0  0  0  0  0  0  0  0  0  0
    3.1440   19.2090   37.1460 N   0  0  0  0  0  0  0  0  0  0  0  0
    1.8800   19.1290   39.7660 C   0  0  0  0  0  0  0  0  0  0  0  0
    3.0230   15.9520   38.5250 C   0  0  0  0  0  0  0  0  0  0  0  0
    1.4370   21.5100   39.4910 C   0  0  0  0  0  0  0  0  0  0  0  0
    2.0050   20.3480   38.9580 C   0  0  0  0  0  0  0  0  0  0  0  0
    3.3720   16.7870   37.5410 N   0  0  0  0  0  0  0  0  0  0  0  0
    0.8770   20.3710   41.5140 C   0  0  0  0  0  0  0  0  0  0  0  0
    1.8430   16.0310   40.7540 C   0  0  0  0  0  0  0  0  0  0  0  0
    3.0100   18.0490   37.8570 C   0  0  0  0  0  0  0  0  0  0  0  0
    0.8910   21.5270   40.7210 C   0  0  0  0  0  0  0  0  0  0  0  0
    2.3670   17.9700   39.2110 C   0  0  1  0  0  0  0  0  0  0  0  0
    2.6960   13.9870   39.8250 C   0  0  0  0  0  0  0  0  0  0  0  0
    2.6380   20.2770   37.6590 C   0  0  0  0  0  0  0  0  0  0  0  0
    1.3238   18.3234   41.6960 H   0  0  0  0  0  0  0  0  0  0  0  0
    1.7540   14.1071   41.6692 H   0  0  0  0  0  0  0  0  0  0  0  0
    3.8225   14.0202   37.9230 H   0  0  0  0  0  0  0  0  0  0  0  0
    1.4366   22.4317   38.8906 H   0  0  0  0  0  0  0  0  0  0  0  0
    3.8469   16.5088   36.6704 H   0  0  0  0  0  0  0  0  0  0  0  0
    0.4674   20.4200   42.5337 H   0  0  0  0  0  0  0  0  0  0  0  0
    1.2481   16.5493   41.5205 H   0  0  0  0  0  0  0  0  0  0  0  0
    0.4510   22.4579   41.1082 H   0  0  0  0  0  0  0  0  0  0  0  0
    1.3965   17.7595   38.7379 H   0  0  0  0  0  0  0  0  0  0  0  0
    2.7775   12.8951   39.9308 H   0  0  0  0  0  0  0  0  0  0  0  0
    3.4609   21.0062   37.6922 H   0  0  0  0  0  0  0  0  0  0  0  0
    1.7671   20.4219   37.0029 H   0  0  0  0  0  0  0  0  0  0  0  0
  1 11  1  0
  3 16  1  0
  4 12  2  0
  5 17  1  0
  5 13  2  0
  6  1  2  0
  7  3  2  0
  7  4  1  0
  8 14  1  0
  9  8  2  0
  9  6  1  0
 10 13  1  0
 10  7  1  0
 12  2  1  0
 14 11  2  0
 15 13  1  0
 15  4  1  0
 15  6  1  0
 16  2  2  0
 17  9  1  0
  1 18  1  0
  2 19  1  0
  3 20  1  0
  8 21  1  0
 10 22  1  0
 11 23  1  0
 12 24  1  0
 14 25  1  0
 15 26  1  6
 16 27  1  0
 17 28  1  0
 17 29  1  0
M  END
>  <mol_id>  (88) 
2026-09-18-3war-s0-n100-refligand-0091

>  <rmsd_to_ref>  (88) 


$$$$

     RDKit          3D

 43 45  0  0  0  0  0  0  0  0999 V2000
    3.0520   15.7080   38.2820 C   0  0  0  0  0  0  0  0  0  0  0  0
    0.6810   21.5960   41.2910 N   0  0  0  0  0  0  0  0  0  0  0  0
    2.2250   15.0810   41.0440 C   0  0  0  0  0  0  0  0  0  0  0  0
    1.9490   16.3920   40.6490 O   0  0  0  0  0  0  0  0  0  0  0  0
    4.4360   12.4320   40.7170 O   0  0  0  0  0  0  0  0  0  0  0  0
    1.1810   18.0180   41.8090 C   0  0  0  0  0  0  0  0  0  0  0  0
    2.2640   11.9240   41.0530 O   0  0  0  0  0  0  0  0  0  0  0  0
    3.2350   12.8620   40.7150 C   0  0  0  0  0  0  0  0  0  0  0  0
    3.7130   21.3110   34.8820 N   0  0  0  0  0  0  0  0  0  0  0  0
    1.6510   14.8650   42.2060 O   0  0  0  0  0  0  0  0  0  0  0  0
    3.3470   14.4560   38.8190 C   0  0  0  0  0  0  0  0  0  0  0  0
    1.7220   20.3860   39.7560 C   0  0  1  0  0  0  0  0  0  0  0  0
    0.3160   17.7910   42.8580 C   0  0  0  0  0  0  0  0  0  0  0  0
   -0.1870   20.1470   42.9040 N   0  0  0  0  0  0  0  0  0  0  0  0
    3.3670   18.3780   37.0930 C   0  0  2  0  0  0  0  0  0  0  0  0
    3.3990   20.3340   35.8440 C   0  0  1  0  0  0  0  0  0  0  0  0
    2.8410   19.4880   37.7580 C   0  0  2  0  0  0  0  0  0  0  0  0
   -0.3110   18.8730   43.4040 C   0  0  0  0  0  0  0  0  0  0  0  0
    3.1970   16.7990   37.5560 C   0  0  0  0  0  0  0  0  0  0  0  0
    2.7340   20.5400   36.9390 N   0  0  0  0  0  0  0  0  0  0  0  0
    2.4950   19.4860   39.0740 C   0  0  0  0  0  0  0  0  0  0  0  0
    1.3110   19.3310   41.1190 C   0  0  2  0  0  0  0  0  0  0  0  0
    2.9050   14.1550   40.1900 C   0  0  0  0  0  0  0  0  0  0  0  0
    2.5140   18.6170   39.6720 O   0  0  0  0  0  0  0  0  0  0  0  0
    0.6240   20.3450   41.8330 C   0  0  0  0  0  0  0  0  0  0  0  0
    1.3220   21.5750   40.1030 C   0  0  0  0  0  0  0  0  0  0  0  0
    4.0640   18.7930   35.7220 S   0  0  0  0  0  0  0  0  0  0  0  0
    1.8092   17.1840   41.4629 H   0  0  0  0  0  0  0  0  0  0  0  0
    3.9929   22.1818   35.3557 H   0  0  0  0  0  0  0  0  0  0  0  0
    4.4887   20.9760   34.2930 H   0  0  0  0  0  0  0  0  0  0  0  0
    2.8874   21.4907   34.2930 H   0  0  0  0  0  0  0  0  0  0  0  0
    3.8988   13.7084   38.2302 H   0  0  0  0  0  0  0  0  0  0  0  0
    1.6777   20.9731   38.8268 H   0  0  0  0  0  0  0  0  0  0  0  0
    0.1378   16.7753   43.2408 H   0  0  0  0  0  0  0  0  0  0  0  0
    2.4477   18.3013   36.4939 H   0  0  0  0  0  0  0  0  0  0  0  0
    4.3381   20.5532   36.3731 H   0  0  0  0  0  0  0  0  0  0  0  0
    1.8237   19.1665   37.4901 H   0  0  0  0  0  0  0  0  0  0  0  0
   -0.9470   18.7178   44.2879 H   0  0  0  0  0  0  0  0  0  0  0  0
    3.1082   21.3758   37.4105 H   0  0  0  0  0  0  0  0  0  0  0  0
    1.7409   20.6790   36.7040 H   0  0  0  0  0  0  0  0  0  0  0  0
    0.2869   19.2284   40.7308 H   0  0  0  0  0  0  0  0  0  0  0  0
    2.2004   22.2339   40.1683 H   0  0  0  0  0  0  0  0  0  0  0  0
    0.6061   21.9141   39.3398 H   0  0  0  0  0  0  0  0  0  0  0  0
  1 11  1  0
  2 25  2  0
  3 10  1  0
  4  3  2  0
  6 13  2  0
  8  5  2  0
  8  7  1  0
 11 23  2  3
 12 21  1  0
 12 26  1  0
 12 22  1  0
 13 18  1  0
 14 18  2  0
 15 19  1  0
 15 17  1  0
 16  9  1  0
 16 20  1  0
 17 21  1  0
 19  1  3  0
 20 17  1  0
 21 24  2  0
 22  6  1  0
 22 25  1  0
 23  8  1  0
 23  3  1  0
 25 14  1  0
 26  2  1  0
 27 16  1  0
 27 15  1  0
  6 28  1  0
  9 29  1  0
  9 30  1  0
  9 31  1  0
 11 32  1  0
 12 33  1  6
 13 34  1  0
 15 35  1  1
 16 36  1  6
 17 37  1  6
 18 38  1  0
 20 39  1  0
 20 40  1  0
 22 41  1  1
 26 42  1  0
 26 43  1  0
M  CHG  4   7  -1   9   1  10  -1  20   1
M  END
>  <mol_id>  (89) 
2026-09-18-3war-s0-n100-refligand-0092

>  <rmsd_to_ref>  (89) 


$$$$

     RDKit          3D

 24 25  0  0  0  0  0  0  0  0999 V2000
    2.8603   18.8608   39.4281 C   0  0  1  0  0  0  0  0  0  0  0  0
    1.7522   21.2612   40.0934 C   0  0  0  0  0  0  0  0  0  0  0  0
    2.7042   19.1169   40.6426 C   0  0  1  0  0  0  0  0  0  0  0  0
    3.1455   19.2360   36.8934 O   0  0  0  0  0  0  0  0  0  0  0  0
    1.9115   20.7951   38.8212 C   0  0  1  0  0  0  0  0  0  0  0  0
    2.0984   20.4577   41.2558 C   0  0  0  0  0  0  0  0  0  0  0  0
    2.6516   21.3107   36.6243 O   0  0  0  0  0  0  0  0  0  0  0  0
    2.3095   18.4027   40.0056 C   0  0  0  0  0  0  0  0  0  0  0  0
    2.0465   21.6510   37.6885 N   0  0  0  0  0  0  0  0  0  0  0  0
    2.6214   19.4969   38.1094 C   0  0  2  0  0  0  0  0  0  0  0  0
    3.2472   17.4836   38.9973 C   0  0  0  0  0  0  0  0  0  0  0  0
    1.3503   22.2740   40.2447 H   0  0  0  0  0  0  0  0  0  0  0  0
    3.2189   19.1600   41.6138 H   0  0  0  0  0  0  0  0  0  0  0  0
    4.0450   18.8367   37.0006 H   0  0  0  0  0  0  0  0  0  0  0  0
    1.0560   20.4799   39.4368 H   0  0  0  0  0  0  0  0  0  0  0  0
    1.9709   20.7168   42.3173 H   0  0  0  0  0  0  0  0  0  0  0  0
    3.5051   20.8665   36.8576 H   0  0  0  0  0  0  0  0  0  0  0  0
    1.2296   18.4682   39.8068 H   0  0  0  0  0  0  0  0  0  0  0  0
    2.3111   17.3156   40.1739 H   0  0  0  0  0  0  0  0  0  0  0  0
    1.0874   21.8939   37.4023 H   0  0  0  0  0  0  0  0  0  0  0  0
    2.3465   19.1012   37.1205 H   0  0  0  0  0  0  0  0  0  0  0  0
    3.4142   16.8552   39.8846 H   0  0  0  0  0  0  0  0  0  0  0  0
    2.4409   17.0501   38.3874 H   0  0  0  0  0  0  0  0  0  0  0  0
    4.1715   17.5315   38.4028 H   0  0  0  0  0  0  0  0  0  0  0  0
  1 11  1  1
  1  8  1  0
  1  3  1  0
  2  6  2  0
  3  8  1  0
  3  6  1  0
  5  9  1  0
  5  2  1  0
  7  9  1  0
 10  4  1  0
 10  5  1  0
 10  1  1  0
  2 12  1  0
  3 13  1  1
  4 14  1  0
  5 15  1  6
  6 16  1  0
  7 17  1  0
  8 18  1  0
  8 19  1  0
  9 20  1  0
 10 21  1  6
 11 22  1  0
 11 23  1  0
 11 24  1  0
M  END
>  <mol_id>  (90) 
2026-09-18-3war-s0-n100-refligand-0093

>  <rmsd_to_ref>  (90) 


$$$$

     RDKit          3D

 18 18  0  0  0  0  0  0  0  0999 V2000
    2.2722   20.1812   39.1805 C   0  0  1  0  0  0  0  0  0  0  0  0
    1.2772   21.1308   39.2311 C   0  0  0  0  0  0  0  0  0  0  0  0
    2.5339   20.4315   36.7527 O   0  0  0  0  0  0  0  0  0  0  0  0
    2.4189   19.3109   40.3061 C   0  0  0  0  0  0  0  0  0  0  0  0
    0.8736   21.4120   40.5358 C   0  0  0  0  0  0  0  0  0  0  0  0
    3.0129   20.1204   37.8039 C   0  0  0  0  0  0  0  0  0  0  0  0
    4.1721   19.6039   37.8584 O   0  0  0  0  0  0  0  0  0  0  0  0
    1.6334   19.5762   41.4978 C   0  0  0  0  0  0  0  0  0  0  0  0
    0.8011   20.6643   41.5673 C   0  0  0  0  0  0  0  0  0  0  0  0
    2.9997   20.9244   39.5391 H   0  0  0  0  0  0  0  0  0  0  0  0
    1.6498   22.0572   38.7696 H   0  0  0  0  0  0  0  0  0  0  0  0
    0.4064   20.7317   38.6904 H   0  0  0  0  0  0  0  0  0  0  0  0
    3.1127   18.4580   40.2696 H   0  0  0  0  0  0  0  0  0  0  0  0
    1.5409   22.2288   40.8482 H   0  0  0  0  0  0  0  0  0  0  0  0
   -0.2062   21.4701   40.3342 H   0  0  0  0  0  0  0  0  0  0  0  0
    1.7067   18.8945   42.3580 H   0  0  0  0  0  0  0  0  0  0  0  0
    1.0740   21.2590   42.4515 H   0  0  0  0  0  0  0  0  0  0  0  0
   -0.2304   20.2873   41.6296 H   0  0  0  0  0  0  0  0  0  0  0  0
  1  6  1  0
  1  2  1  0
  1  4  1  0
  2  5  1  0
  3  6  2  0
  4  8  2  0
  5  9  1  0
  7  6  1  0
  8  9  1  0
  1 10  1  1
  2 11  1  0
  2 12  1  0
  4 13  1  0
  5 14  1  0
  5 15  1  0
  8 16  1  0
  9 17  1  0
  9 18  1  0
M  CHG  1   7  -1
M  END
>  <mol_id>  (91) 
2026-09-18-3war-s0-n100-refligand-0094

>  <rmsd_to_ref>  (91) 


$$$$

     RDKit          3D

 34 36  0  0  0  0  0  0  0  0999 V2000
    1.2900   15.1370   42.4340 O   0  0  0  0  0  0  0  0  0  0  0  0
    0.1070   18.1770   43.2250 C   0  0  0  0  0  0  0  0  0  0  0  0
    2.8010   20.0170   37.5090 C   0  0  0  0  0  0  0  0  0  0  0  0
   -0.4960   19.4800   43.6520 C   0  0  0  0  0  0  0  0  0  0  0  0
    2.9020   18.2450   39.1860 C   0  0  0  0  0  0  0  0  0  0  0  0
    1.6230   15.5820   41.3660 C   0  0  0  0  0  0  0  0  0  0  0  0
    1.8430   18.6780   39.8730 C   0  0  0  0  0  0  0  0  0  0  0  0
    3.2860   18.8700   37.9740 C   0  0  0  0  0  0  0  0  0  0  0  0
    3.0520   20.4760   36.2790 O   0  0  0  0  0  0  0  0  0  0  0  0
    0.9180   20.8690   40.6910 C   0  0  0  0  0  0  0  0  0  0  0  0
    1.5850   20.1710   39.6480 C   0  0  0  0  0  0  0  0  0  0  0  0
    1.9820   20.7240   38.4140 C   0  0  0  0  0  0  0  0  0  0  0  0
    2.4900   15.1220   40.6270 O   0  0  0  0  0  0  0  0  0  0  0  0
    0.8880   16.6600   40.8460 N   0  0  0  0  0  0  0  0  0  0  0  0
    0.0690   20.5680   42.9520 O   0  0  0  0  0  0  0  0  0  0  0  0
    0.6060   20.0690   41.7780 C   0  0  0  0  0  0  0  0  0  0  0  0
    3.9860   17.9640   37.1340 O   0  0  0  0  0  0  0  0  0  0  0  0
    1.0980   17.9910   40.8750 C   0  0  1  0  0  0  0  0  0  0  0  0
    0.6050   18.6870   41.9680 C   0  0  0  0  0  0  0  0  0  0  0  0
    3.9140   16.6110   37.6640 C   0  0  0  0  0  0  0  0  0  0  0  0
    0.9065   17.8316   43.8969 H   0  0  0  0  0  0  0  0  0  0  0  0
   -0.5449   17.2913   43.1997 H   0  0  0  0  0  0  0  0  0  0  0  0
   -1.5783   19.4534   43.4572 H   0  0  0  0  0  0  0  0  0  0  0  0
   -0.2933   19.6181   44.7243 H   0  0  0  0  0  0  0  0  0  0  0  0
    3.4840   17.3922   39.5655 H   0  0  0  0  0  0  0  0  0  0  0  0
    2.6646   21.3378   35.9836 H   0  0  0  0  0  0  0  0  0  0  0  0
   -0.0155   21.2888   40.2879 H   0  0  0  0  0  0  0  0  0  0  0  0
    1.6050   21.6497   41.0496 H   0  0  0  0  0  0  0  0  0  0  0  0
    1.6433   21.7364   38.1489 H   0  0  0  0  0  0  0  0  0  0  0  0
    0.0290   16.3817   40.3505 H   0  0  0  0  0  0  0  0  0  0  0  0
    0.1753   18.1492   40.2974 H   0  0  0  0  0  0  0  0  0  0  0  0
    3.9159   16.6473   38.7634 H   0  0  0  0  0  0  0  0  0  0  0  0
    2.9889   16.1291   37.3147 H   0  0  0  0  0  0  0  0  0  0  0  0
    4.7827   16.0336   37.3147 H   0  0  0  0  0  0  0  0  0  0  0  0
  2  4  1  0
  3  8  1  0
  3 12  2  0
  5  7  1  0
  6  1  1  0
  7 18  1  0
  8  5  2  0
  9  3  1  0
 10 16  1  0
 11  7  2  0
 11 10  1  0
 12 11  1  0
 13  6  2  0
 14  6  1  0
 15  4  1  0
 16 19  2  0
 16 15  1  0
 17 20  1  0
 17  8  1  0
 18 14  1  0
 18 19  1  0
 19  2  1  0
  2 21  1  0
  2 22  1  0
  4 23  1  0
  4 24  1  0
  5 25  1  0
  9 26  1  0
 10 27  1  0
 10 28  1  0
 12 29  1  0
 14 30  1  0
 18 31  1  6
 20 32  1  0
 20 33  1  0
 20 34  1  0
M  CHG  1   1  -1
M  END
>  <mol_id>  (92) 
2026-09-18-3war-s0-n100-refligand-0095

>  <rmsd_to_ref>  (92) 


$$$$

     RDKit          3D

 30 34  0  0  0  0  0  0  0  0999 V2000
    1.9890   20.2620   39.2310 C   0  0  0  0  0  0  0  0  0  0  0  0
    0.3470   18.7230   42.8420 C   0  0  0  0  0  0  0  0  0  0  0  0
    0.9450   15.1880   41.2460 N   0  0  0  0  0  0  0  0  0  0  0  0
    1.8340   15.0250   40.1900 N   0  0  0  0  0  0  0  0  0  0  0  0
    0.3510   17.3050   42.8800 C   0  0  0  0  0  0  0  0  0  0  0  0
    3.1670   19.5560   37.0520 C   0  0  0  0  0  0  0  0  0  0  0  0
    0.9540   19.3400   41.7670 C   0  0  0  0  0  0  0  0  0  0  0  0
    1.6750   18.5760   40.8680 C   0  0  0  0  0  0  0  0  0  0  0  0
    2.4710   20.4350   37.8300 C   0  0  2  0  0  0  0  0  0  0  0  0
    2.4520   19.1360   39.9060 N   0  0  0  0  0  0  0  0  0  0  0  0
    2.2680   21.5070   37.0040 N   0  0  0  0  0  0  0  0  0  0  0  0
    0.8500   20.8010   41.3810 C   0  0  0  0  0  0  0  0  0  0  0  0
    2.3520   16.2880   40.0820 C   0  0  0  0  0  0  0  0  0  0  0  0
    1.3810   21.1850   40.1070 C   0  0  0  0  0  0  0  0  0  0  0  0
    3.5950   18.5350   39.7640 C   0  0  0  0  0  0  0  0  0  0  0  0
    3.3840   20.1200   35.8060 N   0  0  0  0  0  0  0  0  0  0  0  0
    0.8740   16.4660   41.8540 C   0  0  0  0  0  0  0  0  0  0  0  0
    1.6890   17.1940   40.9610 C   0  0  0  0  0  0  0  0  0  0  0  0
    2.8860   21.2700   35.7920 N   0  0  0  0  0  0  0  0  0  0  0  0
    3.4450   17.0470   39.2150 C   0  0  0  0  0  0  0  0  0  0  0  0
   -0.1244   19.3115   43.6430 H   0  0  0  0  0  0  0  0  0  0  0  0
   -0.0812   16.8175   43.7663 H   0  0  0  0  0  0  0  0  0  0  0  0
    3.5029   18.5565   37.3654 H   0  0  0  0  0  0  0  0  0  0  0  0
    1.5248   20.0194   37.4532 H   0  0  0  0  0  0  0  0  0  0  0  0
    0.3851   21.5380   42.0523 H   0  0  0  0  0  0  0  0  0  0  0  0
    1.3119   22.2392   39.8006 H   0  0  0  0  0  0  0  0  0  0  0  0
    4.2094   19.1107   39.0561 H   0  0  0  0  0  0  0  0  0  0  0  0
    4.0644   18.4763   40.7571 H   0  0  0  0  0  0  0  0  0  0  0  0
    3.1291   17.0719   38.1616 H   0  0  0  0  0  0  0  0  0  0  0  0
    4.4094   16.5231   39.2884 H   0  0  0  0  0  0  0  0  0  0  0  0
  1 10  1  0
  1 14  2  0
  2  5  2  0
  3 17  2  0
  4  3  1  0
  6  9  1  0
  7  2  1  0
  8 18  2  0
  8  7  1  0
  9  1  1  0
 10  8  1  0
 11  9  1  0
 12  7  2  0
 13  4  2  0
 13 18  1  0
 14 12  1  0
 15 10  1  0
 16  6  2  0
 17  5  1  0
 18 17  1  0
 19 16  1  0
 19 11  2  0
 20 15  1  0
 20 13  1  0
  2 21  1  0
  5 22  1  0
  6 23  1  0
  9 24  1  6
 12 25  1  0
 14 26  1  0
 15 27  1  0
 15 28  1  0
 20 29  1  0
 20 30  1  0
M  END
>  <mol_id>  (93) 
2026-09-18-3war-s0-n100-refligand-0096

>  <rmsd_to_ref>  (93) 


$$$$

     RDKit          3D

 40 41  0  0  0  0  0  0  0  0999 V2000
    0.7837   21.0094   39.9914 C   0  0  0  0  0  0  0  0  0  0  0  0
    1.9611   18.0821   40.4190 O   0  0  0  0  0  0  0  0  0  0  0  0
   -0.6027   18.1971   43.9017 C   0  0  0  0  0  0  0  0  0  0  0  0
    0.2966   16.9603   42.0847 C   0  0  0  0  0  0  0  0  0  0  0  0
   -1.2764   19.4600   43.8400 O   0  0  0  0  0  0  0  0  0  0  0  0
    1.4903   20.5634   38.7244 C   0  0  0  0  0  0  0  0  0  0  0  0
    3.6336   17.7999   37.4735 O   0  0  0  0  0  0  0  0  0  0  0  0
    1.3705   17.0772   41.1625 C   0  0  1  0  0  0  0  0  0  0  0  0
    0.0553   18.2714   42.5966 C   0  0  0  0  0  0  0  0  0  0  0  0
    3.4605   16.4661   37.4987 C   0  0  0  0  0  0  0  0  0  0  0  0
    1.5313   21.2727   37.6089 C   0  0  0  0  0  0  0  0  0  0  0  0
    2.1741   20.9697   36.3336 C   0  0  0  0  0  0  0  0  0  0  0  0
    2.7243   18.5885   38.0428 C   0  0  1  0  0  0  0  0  0  0  0  0
    2.6656   16.2304   38.6043 N   0  0  0  0  0  0  0  0  0  0  0  0
    1.2862   16.0286   40.3212 N   0  0  0  0  0  0  0  0  0  0  0  0
    2.4381   19.3560   38.4871 C   0  0  0  0  0  0  0  0  0  0  0  0
    2.2471   21.8243   35.3160 O   0  0  0  0  0  0  0  0  0  0  0  0
    2.8782   19.7949   36.5286 C   0  0  0  0  0  0  0  0  0  0  0  0
    2.4525   17.5201   39.1122 C   0  0  0  0  0  0  0  0  0  0  0  0
    1.3081   20.5998   40.8673 H   0  0  0  0  0  0  0  0  0  0  0  0
    0.7844   22.1081   40.0443 H   0  0  0  0  0  0  0  0  0  0  0  0
   -0.2536   20.6436   39.9809 H   0  0  0  0  0  0  0  0  0  0  0  0
    0.1172   18.1460   44.7319 H   0  0  0  0  0  0  0  0  0  0  0  0
   -1.2341   17.3144   44.0813 H   0  0  0  0  0  0  0  0  0  0  0  0
    0.5710   16.2779   42.9026 H   0  0  0  0  0  0  0  0  0  0  0  0
   -0.6017   16.5522   41.5984 H   0  0  0  0  0  0  0  0  0  0  0  0
   -1.4766   19.7724   44.7578 H   0  0  0  0  0  0  0  0  0  0  0  0
    2.0239   17.3005   42.0188 H   0  0  0  0  0  0  0  0  0  0  0  0
    1.0136   18.8007   42.7036 H   0  0  0  0  0  0  0  0  0  0  0  0
   -0.5995   18.8122   41.8975 H   0  0  0  0  0  0  0  0  0  0  0  0
    2.9589   16.1237   36.5815 H   0  0  0  0  0  0  0  0  0  0  0  0
    4.4172   15.9259   37.5544 H   0  0  0  0  0  0  0  0  0  0  0  0
    1.0013   22.2358   37.6478 H   0  0  0  0  0  0  0  0  0  0  0  0
    1.1941   15.1587   40.8649 H   0  0  0  0  0  0  0  0  0  0  0  0
    0.4630   16.1420   39.7128 H   0  0  0  0  0  0  0  0  0  0  0  0
    2.1372   15.9834   39.7427 H   0  0  0  0  0  0  0  0  0  0  0  0
    2.3637   18.9177   39.4933 H   0  0  0  0  0  0  0  0  0  0  0  0
    2.9311   19.9474   37.7017 H   0  0  0  0  0  0  0  0  0  0  0  0
    1.6775   22.6340   35.3078 H   0  0  0  0  0  0  0  0  0  0  0  0
    3.5989   19.5156   35.7459 H   0  0  0  0  0  0  0  0  0  0  0  0
  2  8  1  0
  4  9  1  0
  5  3  1  0
  6  1  1  0
  7 10  1  0
 13  7  1  1
  8 15  1  0
  8  4  1  0
  9  3  1  0
 10 14  1  0
 11  6  2  0
 12 18  2  0
 12 11  1  0
 13 18  1  0
 13 16  1  0
 13 19  1  0
 14 19  2  0
 16  6  1  0
 17 12  1  0
 19  2  1  0
  1 20  1  0
  1 21  1  0
  1 22  1  0
  3 23  1  0
  3 24  1  0
  4 25  1  0
  4 26  1  0
  5 27  1  0
  8 28  1  1
  9 29  1  0
  9 30  1  0
 10 31  1  0
 10 32  1  0
 11 33  1  0
 15 34  1  0
 15 35  1  0
 15 36  1  0
 16 37  1  0
 16 38  1  0
 17 39  1  0
 18 40  1  0
M  CHG  1  15   1
M  END
>  <mol_id>  (94) 
2026-09-18-3war-s0-n100-refligand-0097

>  <rmsd_to_ref>  (94) 


$$$$

     RDKit          3D

 26 28  0  0  0  0  0  0  0  0999 V2000
    0.4945   18.1182   43.7821 C   0  0  0  0  0  0  0  0  0  0  0  0
    3.0723   17.2977   39.2891 C   0  0  0  0  0  0  0  0  0  0  0  0
    2.5796   20.6216   38.0887 C   0  0  0  0  0  0  0  0  0  0  0  0
    3.4334   16.5954   38.4075 C   0  0  0  0  0  0  0  0  0  0  0  0
    2.7273   18.5855   39.2557 C   0  0  0  0  0  0  0  0  0  0  0  0
    2.6802   21.3599   36.9830 O   0  0  0  0  0  0  0  0  0  0  0  0
    0.6574   20.3515   42.5683 C   0  0  0  0  0  0  0  0  0  0  0  0
    3.5026   18.6176   37.0519 N   0  0  0  0  0  0  0  0  0  0  0  0
    2.0094   19.0818   40.3539 C   0  0  0  0  0  0  0  0  0  0  0  0
    1.6370   18.3185   41.5133 C   0  0  0  0  0  0  0  0  0  0  0  0
    1.0880   21.1311   41.4356 C   0  0  0  0  0  0  0  0  0  0  0  0
    2.9493   19.2863   38.1472 C   0  0  0  0  0  0  0  0  0  0  0  0
    0.9448   18.9502   42.6170 C   0  0  0  0  0  0  0  0  0  0  0  0
    1.7294   20.4891   40.3703 C   0  0  0  0  0  0  0  0  0  0  0  0
    3.8601   17.3430   37.0329 C   0  0  0  0  0  0  0  0  0  0  0  0
    2.0180   21.2103   39.1585 N   0  0  0  0  0  0  0  0  0  0  0  0
    0.9068   18.5362   44.7123 H   0  0  0  0  0  0  0  0  0  0  0  0
   -0.6043   18.1231   43.8333 H   0  0  0  0  0  0  0  0  0  0  0  0
    0.8509   17.0853   43.6547 H   0  0  0  0  0  0  0  0  0  0  0  0
    3.0127   16.8196   40.2780 H   0  0  0  0  0  0  0  0  0  0  0  0
    3.4770   15.5015   38.5141 H   0  0  0  0  0  0  0  0  0  0  0  0
    0.1096   20.8315   43.3927 H   0  0  0  0  0  0  0  0  0  0  0  0
    1.8795   17.2467   41.5624 H   0  0  0  0  0  0  0  0  0  0  0  0
    0.9149   22.2171   41.4086 H   0  0  0  0  0  0  0  0  0  0  0  0
    4.3787   16.8548   36.1945 H   0  0  0  0  0  0  0  0  0  0  0  0
    1.7860   22.2127   39.1094 H   0  0  0  0  0  0  0  0  0  0  0  0
  3 12  1  0
  3 16  1  0
  4  2  2  0
  5  2  1  0
  5  9  1  0
  6  3  2  0
  7 13  2  0
  8 15  2  0
  8 12  1  0
  9 10  2  0
 10 13  1  0
 11  7  1  0
 12  5  2  0
 13  1  1  0
 14  9  1  0
 14 11  2  0
 15  4  1  0
 16 14  1  0
  1 17  1  0
  1 18  1  0
  1 19  1  0
  2 20  1  0
  4 21  1  0
  7 22  1  0
 10 23  1  0
 11 24  1  0
 15 25  1  0
 16 26  1  0
M  END
>  <mol_id>  (95) 
2026-09-18-3war-s0-n100-refligand-0098

>  <rmsd_to_ref>  (95) 


$$$$

     RDKit          3D

 41 41  0  0  0  0  0  0  0  0999 V2000
    2.0245   21.3509   37.7191 C   0  0  0  0  0  0  0  0  0  0  0  0
    3.4257   18.8093   38.1522 C   0  0  0  0  0  0  0  0  0  0  0  0
    0.0604   19.8893   42.2366 C   0  0  0  0  0  0  0  0  0  0  0  0
    2.9116   20.0924   37.5454 C   0  0  1  0  0  0  0  0  0  0  0  0
    3.0554   17.6486   37.2512 N   0  0  0  0  0  0  0  0  0  0  0  0
    3.5227   20.2115   36.2500 O   0  0  0  0  0  0  0  0  0  0  0  0
    0.9411   18.9770   41.7660 C   0  0  1  0  0  0  0  0  0  0  0  0
    4.0291   14.3833   36.5936 C   0  0  0  0  0  0  0  0  0  0  0  0
    0.6397   21.4064   40.6084 C   0  0  0  0  0  0  0  0  0  0  0  0
    1.1709   17.4507   42.4982 S   0  0  0  0  0  0  0  0  0  0  0  0
   -0.2735   17.8771   43.3022 C   0  0  0  0  0  0  0  0  0  0  0  0
   -0.1547   21.0415   41.7199 C   0  0  0  0  0  0  0  0  0  0  0  0
    3.6096   15.4921   37.5492 C   0  0  0  0  0  0  0  0  0  0  0  0
    2.2943   21.0209   38.9280 N   0  0  0  0  0  0  0  0  0  0  0  0
    1.5180   20.5242   40.0289 C   0  0  0  0  0  0  0  0  0  0  0  0
    4.2478   16.8160   37.2431 C   0  0  0  0  0  0  0  0  0  0  0  0
    1.6653   19.3028   40.6552 N   0  0  0  0  0  0  0  0  0  0  0  0
    0.9742   21.2658   37.4034 H   0  0  0  0  0  0  0  0  0  0  0  0
    2.1722   22.3358   37.2519 H   0  0  0  0  0  0  0  0  0  0  0  0
    4.5198   18.8625   38.2527 H   0  0  0  0  0  0  0  0  0  0  0  0
    2.9762   18.6641   39.1456 H   0  0  0  0  0  0  0  0  0  0  0  0
   -0.5165   19.6206   43.1337 H   0  0  0  0  0  0  0  0  0  0  0  0
    3.7603   20.6286   37.9951 H   0  0  0  0  0  0  0  0  0  0  0  0
    2.8329   17.9788   36.3013 H   0  0  0  0  0  0  0  0  0  0  0  0
    2.2204   17.1426   37.5793 H   0  0  0  0  0  0  0  0  0  0  0  0
    4.5078   20.2158   36.3490 H   0  0  0  0  0  0  0  0  0  0  0  0
    1.7258   19.4032   42.4083 H   0  0  0  0  0  0  0  0  0  0  0  0
    4.2758   13.4781   37.1679 H   0  0  0  0  0  0  0  0  0  0  0  0
    3.2032   14.1642   35.9008 H   0  0  0  0  0  0  0  0  0  0  0  0
    4.9115   14.7065   36.0217 H   0  0  0  0  0  0  0  0  0  0  0  0
   -0.0590   21.7130   39.8160 H   0  0  0  0  0  0  0  0  0  0  0  0
    1.3150   22.1598   41.0403 H   0  0  0  0  0  0  0  0  0  0  0  0
   -0.1498   17.7236   44.3843 H   0  0  0  0  0  0  0  0  0  0  0  0
   -0.5040   18.9346   43.1058 H   0  0  0  0  0  0  0  0  0  0  0  0
   -1.0973   17.2478   42.9344 H   0  0  0  0  0  0  0  0  0  0  0  0
   -0.9234   21.7172   42.1230 H   0  0  0  0  0  0  0  0  0  0  0  0
    2.5174   15.6093   37.4893 H   0  0  0  0  0  0  0  0  0  0  0  0
    3.9414   15.1965   38.5554 H   0  0  0  0  0  0  0  0  0  0  0  0
    3.2905   21.1384   39.1618 H   0  0  0  0  0  0  0  0  0  0  0  0
    4.7454   16.8174   36.2622 H   0  0  0  0  0  0  0  0  0  0  0  0
    5.0474   17.1269   37.9316 H   0  0  0  0  0  0  0  0  0  0  0  0
  1 14  1  0
  4  6  1  0
  4  1  1  0
  4  2  1  0
  5 16  1  0
  5  2  1  0
  7  3  1  0
  7 10  1  0
  8 13  1  0
  9 12  1  0
 10 11  1  0
 12  3  2  0
 14 15  1  0
 15  9  1  0
 15 17  2  0
 16 13  1  0
 17  7  1  0
  1 18  1  0
  1 19  1  0
  2 20  1  0
  2 21  1  0
  3 22  1  0
  4 23  1  1
  5 24  1  0
  5 25  1  0
  6 26  1  0
  7 27  1  1
  8 28  1  0
  8 29  1  0
  8 30  1  0
  9 31  1  0
  9 32  1  0
 11 33  1  0
 11 34  1  0
 11 35  1  0
 12 36  1  0
 13 37  1  0
 13 38  1  0
 14 39  1  0
 16 40  1  0
 16 41  1  0
M  CHG  1   5   1
M  END
>  <mol_id>  (96) 
2026-09-18-3war-s0-n100-refligand-0099

>  <rmsd_to_ref>  (96) 


$$$$

     RDKit          3D

 20 22  0  0  0  0  0  0  0  0999 V2000
    3.2577   19.4176   37.4202 C   0  0  0  0  0  0  0  0  0  0  0  0
    0.9789   20.8069   41.4221 C   0  0  0  0  0  0  0  0  0  0  0  0
    2.8225   19.2095   38.7749 C   0  0  0  0  0  0  0  0  0  0  0  0
    1.6832   19.8857   40.7246 C   0  0  0  0  0  0  0  0  0  0  0  0
    2.1629   20.2706   39.4999 O   0  0  0  0  0  0  0  0  0  0  0  0
    3.2428   20.4174   36.7292 O   0  0  0  0  0  0  0  0  0  0  0  0
    3.8545   17.2129   38.2805 C   0  0  0  0  0  0  0  0  0  0  0  0
    1.2086   18.1762   42.3807 C   0  0  0  0  0  0  0  0  0  0  0  0
    2.5824   17.5665   40.4546 O   0  0  0  0  0  0  0  0  0  0  0  0
    3.0280   17.9967   39.2286 C   0  0  0  0  0  0  0  0  0  0  0  0
    1.8330   18.5684   41.1765 C   0  0  0  0  0  0  0  0  0  0  0  0
    3.9015   18.0865   37.0526 C   0  0  0  0  0  0  0  0  0  0  0  0
    0.4341   20.4515   42.6406 C   0  0  0  0  0  0  0  0  0  0  0  0
    0.5137   19.1216   43.0770 C   0  0  0  0  0  0  0  0  0  0  0  0
    0.8423   21.8234   41.0248 H   0  0  0  0  0  0  0  0  0  0  0  0
    4.3218   16.2293   38.4356 H   0  0  0  0  0  0  0  0  0  0  0  0
    1.2800   17.1410   42.7458 H   0  0  0  0  0  0  0  0  0  0  0  0
    4.3223   17.8137   36.0735 H   0  0  0  0  0  0  0  0  0  0  0  0
   -0.0604   21.2091   43.2662 H   0  0  0  0  0  0  0  0  0  0  0  0
    0.0017   18.8324   44.0067 H   0  0  0  0  0  0  0  0  0  0  0  0
  1  3  1  0
  2 13  1  0
  3 10  2  0
  3  5  1  0
  4 11  1  0
  4  2  2  0
  5  4  1  0
  6  1  2  0
  7 10  1  0
  8 14  1  0
  9 11  1  0
 10  9  1  0
 11  8  2  0
 12  1  1  0
 12  7  2  0
 13 14  2  0
  2 15  1  0
  7 16  1  0
  8 17  1  0
 12 18  1  0
 13 19  1  0
 14 20  1  0
M  END
>  <mol_id>  (97) 
2026-09-18-3war-s0-n100-refligand-0100

>  <rmsd_to_ref>  (97) 


$$$$
