
     RDKit          3D

 27 29  0  0  0  0  0  0  0  0999 V2000
    2.4229   20.5180   37.9404 C   0  0  0  0  0  0  0  0  0  0  0  0
    1.5409   17.0198   40.8652 N   0  0  0  0  0  0  0  0  0  0  0  0
    1.5450   21.4486   40.2424 C   0  0  0  0  0  0  0  0  0  0  0  0
    2.1109   17.7421   38.9221 C   0  0  0  0  0  0  0  0  0  0  0  0
    1.8737   16.6513   39.6079 N   0  0  0  0  0  0  0  0  0  0  0  0
    2.7071   19.3959   37.0499 C   0  0  0  0  0  0  0  0  0  0  0  0
    1.0564   19.1251   42.3786 C   0  0  0  0  0  0  0  0  0  0  0  0
    1.1845   15.9509   41.9612 C   0  0  0  0  0  0  0  0  0  0  0  0
    0.6437   18.3864   43.3076 O   0  0  0  0  0  0  0  0  0  0  0  0
    1.0587   20.6020   42.6344 C   0  0  0  0  0  0  0  0  0  0  0  0
    2.0355   20.2883   39.2803 C   0  0  0  0  0  0  0  0  0  0  0  0
    1.8563   18.9283   39.7708 C   0  0  0  0  0  0  0  0  0  0  0  0
    2.5173   18.0447   37.5284 C   0  0  0  0  0  0  0  0  0  0  0  0
    1.4670   18.4078   41.0526 C   0  0  0  0  0  0  0  0  0  0  0  0
    2.0155   21.3809   41.6532 C   0  0  0  0  0  0  0  0  0  0  0  0
    2.5108   21.5485   37.5661 H   0  0  0  0  0  0  0  0  0  0  0  0
    0.4452   21.4308   40.2549 H   0  0  0  0  0  0  0  0  0  0  0  0
    1.9806   22.3719   39.8328 H   0  0  0  0  0  0  0  0  0  0  0  0
    3.0624   19.5770   36.0247 H   0  0  0  0  0  0  0  0  0  0  0  0
    1.7710   16.1486   42.8705 H   0  0  0  0  0  0  0  0  0  0  0  0
    0.1116   16.0108   42.1966 H   0  0  0  0  0  0  0  0  0  0  0  0
    1.4214   14.9454   41.5834 H   0  0  0  0  0  0  0  0  0  0  0  0
    0.0352   20.9841   42.5070 H   0  0  0  0  0  0  0  0  0  0  0  0
    1.4252   20.7641   43.6589 H   0  0  0  0  0  0  0  0  0  0  0  0
    2.6806   17.2091   36.8318 H   0  0  0  0  0  0  0  0  0  0  0  0
    2.9955   20.8814   41.6632 H   0  0  0  0  0  0  0  0  0  0  0  0
    2.0524   22.4185   42.0167 H   0  0  0  0  0  0  0  0  0  0  0  0
  1 11  2  0
  2  8  1  0
  3 15  1  0
  4 12  1  0
  4  5  2  0
  5  2  1  0
  6  1  1  0
  6 13  2  0
  7  9  2  0
 10  7  1  0
 11  3  1  0
 11 12  1  0
 12 14  2  0
 13  4  1  0
 14  2  1  0
 14  7  1  0
 15 10  1  0
  1 16  1  0
  3 17  1  0
  3 18  1  0
  6 19  1  0
  8 20  1  0
  8 21  1  0
  8 22  1  0
 10 23  1  0
 10 24  1  0
 13 25  1  0
 15 26  1  0
 15 27  1  0
M  END
>  <mol_id>  (1) 
2026-08-24-6tgu-s0-n100-seed1-0001

>  <rmsd_to_ref>  (1) 


$$$$

     RDKit          3D

 26 27  0  0  0  0  0  0  0  0999 V2000
    2.8323   20.0631   36.9246 C   0  0  0  0  0  0  0  0  0  0  0  0
    0.9347   20.5248   40.0514 C   0  0  0  0  0  0  0  0  0  0  0  0
    1.2628   19.1134   40.0681 C   0  0  0  0  0  0  0  0  0  0  0  0
    2.2037   18.9365   39.0378 C   0  0  0  0  0  0  0  0  0  0  0  0
    0.5475   18.5776   41.2336 C   0  0  0  0  0  0  0  0  0  0  0  0
    3.3677   19.9029   35.9327 N   0  0  0  0  0  0  0  0  0  0  0  0
    2.1491   20.0526   38.1897 C   0  0  0  0  0  0  0  0  0  0  0  0
    2.8834   17.9491   38.5458 O   0  0  0  0  0  0  0  0  0  0  0  0
    1.7417   16.5691   41.7175 C   0  0  0  0  0  0  0  0  0  0  0  0
    1.0826   15.4934   39.6583 O   0  0  0  0  0  0  0  0  0  0  0  0
    0.1015   20.7427   41.1666 C   0  0  0  0  0  0  0  0  0  0  0  0
    0.4202   17.2654   41.6627 C   0  0  0  0  0  0  0  0  0  0  0  0
    1.4678   20.9972   38.8526 N   0  0  0  0  0  0  0  0  0  0  0  0
   -0.0217   19.6003   41.8329 N   0  0  0  0  0  0  0  0  0  0  0  0
    2.1701   15.9330   40.4076 C   0  0  0  0  0  0  0  0  0  0  0  0
    3.5025   18.1030   37.7887 H   0  0  0  0  0  0  0  0  0  0  0  0
    2.5062   17.3044   42.0091 H   0  0  0  0  0  0  0  0  0  0  0  0
    1.6352   15.7502   42.4441 H   0  0  0  0  0  0  0  0  0  0  0  0
    0.3347   15.2643   40.2651 H   0  0  0  0  0  0  0  0  0  0  0  0
    0.5488   21.5063   41.8199 H   0  0  0  0  0  0  0  0  0  0  0  0
   -0.8871   21.0927   40.8346 H   0  0  0  0  0  0  0  0  0  0  0  0
   -0.0266   17.2612   42.6679 H   0  0  0  0  0  0  0  0  0  0  0  0
   -0.2185   16.7309   40.9442 H   0  0  0  0  0  0  0  0  0  0  0  0
    1.3511   21.9632   38.5147 H   0  0  0  0  0  0  0  0  0  0  0  0
    2.8204   15.0733   40.6269 H   0  0  0  0  0  0  0  0  0  0  0  0
    2.7010   16.6954   39.8188 H   0  0  0  0  0  0  0  0  0  0  0  0
  1  7  1  0
  2 11  1  0
  3  2  2  0
  3  5  1  0
  4  3  1  0
  5 12  1  0
  5 14  2  0
  6  1  3  0
  7 13  1  0
  7  4  2  0
  8  4  1  0
  9 12  1  0
 10 15  1  0
 11 14  1  0
 13  2  1  0
 15  9  1  0
  8 16  1  0
  9 17  1  0
  9 18  1  0
 10 19  1  0
 11 20  1  0
 11 21  1  0
 12 22  1  0
 12 23  1  0
 13 24  1  0
 15 25  1  0
 15 26  1  0
M  END
>  <mol_id>  (2) 
2026-08-24-6tgu-s0-n100-seed1-0003

>  <rmsd_to_ref>  (2) 


$$$$

     RDKit          3D

 32 33  0  0  0  0  0  0  0  0999 V2000
    3.7019   17.4392   38.0714 C   0  0  0  0  0  0  0  0  0  0  0  0
    2.7425   20.1816   38.1224 C   0  0  0  0  0  0  0  0  0  0  0  0
    2.3618   16.6417   40.2295 C   0  0  0  0  0  0  0  0  0  0  0  0
    3.6308   20.3119   35.9660 O   0  0  0  0  0  0  0  0  0  0  0  0
    2.7800   17.8804   39.1428 C   0  0  0  0  0  0  0  0  0  0  0  0
    1.5723   17.0560   41.2160 C   0  0  0  0  0  0  0  0  0  0  0  0
    2.3515   14.3658   41.1931 C   0  0  0  0  0  0  0  0  0  0  0  0
    2.7261   15.2971   40.2122 C   0  0  0  0  0  0  0  0  0  0  0  0
    2.3405   19.1894   39.0742 C   0  0  0  0  0  0  0  0  0  0  0  0
    1.5827   14.8473   42.3111 C   0  0  0  0  0  0  0  0  0  0  0  0
    0.7620   20.1255   40.5639 C   0  0  0  0  0  0  0  0  0  0  0  0
    1.7155   19.4098   40.0943 O   0  0  0  0  0  0  0  0  0  0  0  0
    0.3614   19.2978   42.5626 O   0  0  0  0  0  0  0  0  0  0  0  0
    0.5039   20.1370   41.6158 C   0  0  0  0  0  0  0  0  0  0  0  0
    3.8817   18.2924   36.9417 N   0  0  0  0  0  0  0  0  0  0  0  0
    3.4682   19.5969   36.9968 C   0  0  0  0  0  0  0  0  0  0  0  0
    1.2086   16.1589   42.3152 C   0  0  0  0  0  0  0  0  0  0  0  0
    3.9958   16.1854   38.0000 O   0  0  0  0  0  0  0  0  0  0  0  0
    1.2653   13.8808   43.4034 C   0  0  0  0  0  0  0  0  0  0  0  0
    1.8458   20.6917   37.7406 H   0  0  0  0  0  0  0  0  0  0  0  0
    3.4153   20.8879   38.6309 H   0  0  0  0  0  0  0  0  0  0  0  0
    1.1872   18.0863   41.2064 H   0  0  0  0  0  0  0  0  0  0  0  0
    2.6350   13.3061   41.1107 H   0  0  0  0  0  0  0  0  0  0  0  0
    3.3471   14.9427   39.3763 H   0  0  0  0  0  0  0  0  0  0  0  0
   -0.1470   19.8104   40.0304 H   0  0  0  0  0  0  0  0  0  0  0  0
    1.1529   21.1432   40.4179 H   0  0  0  0  0  0  0  0  0  0  0  0
    0.3107   21.1624   41.9641 H   0  0  0  0  0  0  0  0  0  0  0  0
    4.3223   17.9273   36.0852 H   0  0  0  0  0  0  0  0  0  0  0  0
    0.6226   16.5503   43.1598 H   0  0  0  0  0  0  0  0  0  0  0  0
    1.4510   14.3553   44.3783 H   0  0  0  0  0  0  0  0  0  0  0  0
    0.2082   13.5846   43.3352 H   0  0  0  0  0  0  0  0  0  0  0  0
    1.9030   12.9902   43.3017 H   0  0  0  0  0  0  0  0  0  0  0  0
  1  5  1  0
  2  9  1  0
  3  8  2  0
  3  6  1  0
  4 16  2  0
  5  3  1  0
  6 17  2  0
  7 10  2  0
  8  7  1  0
  9  5  2  0
  9 12  1  0
 10 19  1  0
 11 14  1  0
 12 11  1  0
 14 13  2  0
 15 16  1  0
 15  1  1  0
 16  2  1  0
 17 10  1  0
 18  1  2  0
  2 20  1  0
  2 21  1  0
  6 22  1  0
  7 23  1  0
  8 24  1  0
 11 25  1  0
 11 26  1  0
 14 27  1  0
 15 28  1  0
 17 29  1  0
 19 30  1  0
 19 31  1  0
 19 32  1  0
M  END
>  <mol_id>  (3) 
2026-08-24-6tgu-s0-n100-seed1-0004

>  <rmsd_to_ref>  (3) 


$$$$

     RDKit          3D

 47 48  0  0  0  0  0  0  0  0999 V2000
    1.4653   19.9104   39.0440 C   0  0  0  0  0  0  0  0  0  0  0  0
   -0.3773   18.3065   43.1762 C   0  0  0  0  0  0  0  0  0  0  0  0
    0.7523   20.1995   40.2627 O   0  0  0  0  0  0  0  0  0  0  0  0
    3.2598   21.7238   34.8460 C   0  0  0  0  0  0  0  0  0  0  0  0
    1.3893   15.1379   40.8190 O   0  0  0  0  0  0  0  0  0  0  0  0
   -0.1348   20.0010   41.4186 C   0  0  0  0  0  0  0  0  0  0  0  0
    0.9946   14.7212   43.0709 N   0  0  0  0  0  0  0  0  0  0  0  0
    2.7829   20.1669   36.5318 C   0  0  0  0  0  0  0  0  0  0  0  0
   -1.4459   19.0608   43.6867 C   0  0  0  0  0  0  0  0  0  0  0  0
    0.6908   12.3390   44.8731 C   0  0  0  0  0  0  0  0  0  0  0  0
    3.1548   19.0785   37.2218 C   0  0  0  0  0  0  0  0  0  0  0  0
    1.3408   13.3676   42.8198 C   0  0  0  0  0  0  0  0  0  0  0  0
    1.2663   15.5612   41.9639 C   0  0  0  0  0  0  0  0  0  0  0  0
   -0.2435   14.7402   43.8600 C   0  0  0  0  0  0  0  0  0  0  0  0
    1.4773   16.7866   42.2179 N   0  0  0  0  0  0  0  0  0  0  0  0
    1.8945   21.1539   36.9839 C   0  0  0  0  0  0  0  0  0  0  0  0
    0.4095   12.3404   43.3948 C   0  0  0  0  0  0  0  0  0  0  0  0
    1.1926   20.9635   38.1719 C   0  0  0  0  0  0  0  0  0  0  0  0
   -1.8308   20.2958   43.0740 N   0  0  0  0  0  0  0  0  0  0  0  0
    0.2510   18.7460   41.9632 C   0  0  0  0  0  0  0  0  0  0  0  0
    1.2044   17.9318   41.4434 N   0  0  0  0  0  0  0  0  0  0  0  0
    4.0389   18.2019   36.6719 O   0  0  0  0  0  0  0  0  0  0  0  0
    2.4730   18.7455   38.4510 C   0  0  0  0  0  0  0  0  0  0  0  0
    3.3724   20.4304   35.3249 O   0  0  0  0  0  0  0  0  0  0  0  0
   -1.1568   20.7632   42.0842 C   0  0  0  0  0  0  0  0  0  0  0  0
   -0.0299   17.4001   43.6938 H   0  0  0  0  0  0  0  0  0  0  0  0
    3.1542   22.4198   35.6913 H   0  0  0  0  0  0  0  0  0  0  0  0
    4.1606   21.9810   34.2696 H   0  0  0  0  0  0  0  0  0  0  0  0
    2.3751   21.7986   34.1967 H   0  0  0  0  0  0  0  0  0  0  0  0
   -1.9942   18.6981   44.5686 H   0  0  0  0  0  0  0  0  0  0  0  0
   -0.2356   12.5612   45.4228 H   0  0  0  0  0  0  0  0  0  0  0  0
    1.0673   11.3501   45.1738 H   0  0  0  0  0  0  0  0  0  0  0  0
    1.4465   13.1046   45.1034 H   0  0  0  0  0  0  0  0  0  0  0  0
    1.3718   13.2233   41.7297 H   0  0  0  0  0  0  0  0  0  0  0  0
    2.3082   13.2080   43.3185 H   0  0  0  0  0  0  0  0  0  0  0  0
    0.0045   14.7989   44.9301 H   0  0  0  0  0  0  0  0  0  0  0  0
   -0.8466   15.6149   43.5749 H   0  0  0  0  0  0  0  0  0  0  0  0
   -0.8161   13.8212   43.6661 H   0  0  0  0  0  0  0  0  0  0  0  0
    1.9158   16.9729   43.1311 H   0  0  0  0  0  0  0  0  0  0  0  0
    1.7525   22.0762   36.4014 H   0  0  0  0  0  0  0  0  0  0  0  0
   -0.6374   12.6171   43.2012 H   0  0  0  0  0  0  0  0  0  0  0  0
    0.5628   11.3482   42.9454 H   0  0  0  0  0  0  0  0  0  0  0  0
    0.3921   21.6717   38.4322 H   0  0  0  0  0  0  0  0  0  0  0  0
    1.6881   18.1340   40.5568 H   0  0  0  0  0  0  0  0  0  0  0  0
    4.3168   17.3969   37.1767 H   0  0  0  0  0  0  0  0  0  0  0  0
    2.6159   17.7799   38.9581 H   0  0  0  0  0  0  0  0  0  0  0  0
   -1.3695   21.7838   41.7334 H   0  0  0  0  0  0  0  0  0  0  0  0
  1  3  1  0
  2  9  1  0
  3  6  1  0
  4 24  1  0
  5 13  2  0
  6 20  1  0
  6 25  2  0
  7 14  1  0
  8 16  1  0
  8 11  2  0
 11 23  1  0
 12  7  1  0
 12 17  1  0
 13 15  1  0
 13  7  1  0
 16 18  2  0
 17 10  1  0
 18  1  1  0
 19  9  2  0
 20  2  2  0
 21 20  1  0
 21 15  1  0
 22 11  1  0
 23  1  2  0
 24  8  1  0
 25 19  1  0
  2 26  1  0
  4 27  1  0
  4 28  1  0
  4 29  1  0
  9 30  1  0
 10 31  1  0
 10 32  1  0
 10 33  1  0
 12 34  1  0
 12 35  1  0
 14 36  1  0
 14 37  1  0
 14 38  1  0
 15 39  1  0
 16 40  1  0
 17 41  1  0
 17 42  1  0
 18 43  1  0
 21 44  1  0
 22 45  1  0
 23 46  1  0
 25 47  1  0
M  END
>  <mol_id>  (4) 
2026-08-24-6tgu-s0-n100-seed1-0005

>  <rmsd_to_ref>  (4) 


$$$$

     RDKit          3D

 27 28  0  0  0  0  0  0  0  0999 V2000
    2.8049   17.8396   38.0623 C   0  0  0  0  0  0  0  0  0  0  0  0
    2.1186   16.6953   39.9257 O   0  0  0  0  0  0  0  0  0  0  0  0
    0.5981   16.0966   42.0780 C   0  0  0  0  0  0  0  0  0  0  0  0
   -0.5091   17.1858   44.7532 N   0  0  0  0  0  0  0  0  0  0  0  0
   -0.8029   18.1581   44.0730 C   0  0  0  0  0  0  0  0  0  0  0  0
    0.8764   18.7791   41.1908 C   0  0  2  0  0  0  0  0  0  0  0  0
    1.7708   18.9718   39.8474 C   0  0  0  0  0  0  0  0  0  0  0  0
    1.9331   20.1705   39.1536 C   0  0  1  0  0  0  0  0  0  0  0  0
    3.4711   16.5259   37.3653 Cl  0  0  0  0  0  0  0  0  0  0  0  0
    3.0444   19.1207   37.3005 C   0  0  0  0  0  0  0  0  0  0  0  0
    0.4435   17.6042   42.0479 C   0  0  0  0  0  0  0  0  0  0  0  0
    2.2495   18.0051   39.3216 C   0  0  0  0  0  0  0  0  0  0  0  0
    2.5361   20.2466   37.8486 C   0  0  0  0  0  0  0  0  0  0  0  0
   -0.0922   18.3112   42.9321 C   0  0  0  0  0  0  0  0  0  0  0  0
    2.6592   21.3368   37.2668 O   0  0  0  0  0  0  0  0  0  0  0  0
   -1.6554   18.9569   44.4097 O   0  0  0  0  0  0  0  0  0  0  0  0
    1.5220   21.6752   39.8667 Cl  0  0  0  0  0  0  0  0  0  0  0  0
    0.2290   19.9416   42.1817 S   0  0  0  0  0  0  0  0  0  0  0  0
    1.7379   16.6054   40.8351 H   0  0  0  0  0  0  0  0  0  0  0  0
    0.6735   15.7564   43.1214 H   0  0  0  0  0  0  0  0  0  0  0  0
   -0.2764   15.6287   41.6021 H   0  0  0  0  0  0  0  0  0  0  0  0
    1.5093   15.8104   41.5323 H   0  0  0  0  0  0  0  0  0  0  0  0
    0.2196   16.5331   44.4310 H   0  0  0  0  0  0  0  0  0  0  0  0
   -0.9902   17.0193   45.6486 H   0  0  0  0  0  0  0  0  0  0  0  0
    1.7926   18.7704   41.7996 H   0  0  0  0  0  0  0  0  0  0  0  0
    2.9551   20.2617   39.5504 H   0  0  0  0  0  0  0  0  0  0  0  0
    3.6016   19.1369   36.3522 H   0  0  0  0  0  0  0  0  0  0  0  0
  1 12  1  0
  5 16  2  0
  5  4  1  0
  6  7  1  0
  6 18  1  0
  6 11  1  0
  8 17  1  0
  8  7  1  0
  9  1  1  0
 10 13  1  0
 10  1  2  0
 11  3  1  0
 11 14  2  0
 12  7  2  0
 12  2  1  0
 13  8  1  0
 14  5  1  0
 15 13  2  0
 18 14  1  0
  2 19  1  0
  3 20  1  0
  3 21  1  0
  3 22  1  0
  4 23  1  0
  4 24  1  0
  6 25  1  6
  8 26  1  6
 10 27  1  0
M  END
>  <mol_id>  (5) 
2026-08-24-6tgu-s0-n100-seed1-0006

>  <rmsd_to_ref>  (5) 


$$$$

     RDKit          3D

 47 50  0  0  0  0  0  0  0  0999 V2000
    1.3825   18.9570   40.9632 C   0  0  1  0  0  0  0  0  0  0  0  0
    0.8813   18.6680   42.1909 C   0  0  0  0  0  0  0  0  0  0  0  0
    1.7363   22.0174   37.2369 C   0  0  0  0  0  0  0  0  0  0  0  0
    1.3640   20.5092   41.2686 N   0  0  0  0  0  0  0  0  0  0  0  0
   -0.4487   15.8906   46.1646 C   0  0  0  0  0  0  0  0  0  0  0  0
   -0.4472   17.5393   46.7777 C   0  0  0  0  0  0  0  0  0  0  0  0
    1.8152   20.4512   39.0728 C   0  0  0  0  0  0  0  0  0  0  0  0
    2.7737   19.6758   37.0960 C   0  0  0  0  0  0  0  0  0  0  0  0
    0.3028   19.7405   42.7897 C   0  0  0  0  0  0  0  0  0  0  0  0
    2.6412   16.8455   39.4986 C   0  0  0  0  0  0  0  0  0  0  0  0
    3.0589   20.0295   35.9145 O   0  0  0  0  0  0  0  0  0  0  0  0
   -0.0194   17.3500   44.0736 C   0  0  0  0  0  0  0  0  0  0  0  0
   -0.6917   15.3319   47.1599 O   0  0  0  0  0  0  0  0  0  0  0  0
    2.0167   19.1942   39.7861 C   0  0  2  0  0  0  0  0  0  0  0  0
   -0.3826   18.6572   44.7028 C   0  0  0  0  0  0  0  0  0  0  0  0
   -0.5831   18.5008   46.1400 C   0  0  0  0  0  0  0  0  0  0  0  0
    2.0951   20.7514   37.8770 C   0  0  0  0  0  0  0  0  0  0  0  0
    3.4823   15.8286   38.6716 O   0  0  0  0  0  0  0  0  0  0  0  0
    0.5346   17.4269   42.8757 N   0  0  0  0  0  0  0  0  0  0  0  0
    2.5199   18.1699   38.9534 C   0  0  1  0  0  0  0  0  0  0  0  0
    3.1269   18.3932   37.5941 C   0  0  0  0  0  0  0  0  0  0  0  0
   -0.4625   19.7625   43.9154 C   0  0  0  0  0  0  0  0  0  0  0  0
    2.0205   16.4201   40.5423 O   0  0  0  0  0  0  0  0  0  0  0  0
    2.6116   16.0796   37.1692 C   0  0  0  0  0  0  0  0  0  0  0  0
    0.6627   22.0253   42.5677 O   0  0  0  0  0  0  0  0  0  0  0  0
   -0.1929   16.0771   44.7239 C   0  0  0  0  0  0  0  0  0  0  0  0
    0.6462   21.0112   42.1308 C   0  0  0  0  0  0  0  0  0  0  0  0
    1.2853   17.8928   40.7026 H   0  0  0  0  0  0  0  0  0  0  0  0
    1.6082   22.7936   38.0056 H   0  0  0  0  0  0  0  0  0  0  0  0
    2.5356   22.3169   36.5430 H   0  0  0  0  0  0  0  0  0  0  0  0
    0.7955   21.8934   36.6806 H   0  0  0  0  0  0  0  0  0  0  0  0
    1.9805   21.1262   40.7209 H   0  0  0  0  0  0  0  0  0  0  0  0
   -1.2538   17.5710   47.5249 H   0  0  0  0  0  0  0  0  0  0  0  0
    0.6139   17.6400   47.0497 H   0  0  0  0  0  0  0  0  0  0  0  0
    1.3515   21.2559   39.6623 H   0  0  0  0  0  0  0  0  0  0  0  0
    2.8494   19.3223   40.4934 H   0  0  0  0  0  0  0  0  0  0  0  0
    0.0929   19.2377   46.5982 H   0  0  0  0  0  0  0  0  0  0  0  0
   -1.6810   18.5645   46.1643 H   0  0  0  0  0  0  0  0  0  0  0  0
    1.5851   18.5120   38.4853 H   0  0  0  0  0  0  0  0  0  0  0  0
    2.7582   17.6219   36.9018 H   0  0  0  0  0  0  0  0  0  0  0  0
    4.2220   18.3338   37.6793 H   0  0  0  0  0  0  0  0  0  0  0  0
   -1.1037   20.6189   44.1712 H   0  0  0  0  0  0  0  0  0  0  0  0
    1.5620   16.3237   37.3901 H   0  0  0  0  0  0  0  0  0  0  0  0
    3.0718   16.9096   36.6129 H   0  0  0  0  0  0  0  0  0  0  0  0
    2.6550   15.1630   36.5627 H   0  0  0  0  0  0  0  0  0  0  0  0
   -1.0406   15.5991   44.2112 H   0  0  0  0  0  0  0  0  0  0  0  0
    0.8289   15.6763   44.6506 H   0  0  0  0  0  0  0  0  0  0  0  0
  1  4  1  0
  1  2  1  0
  2  9  2  0
  2 19  1  0
  3 17  1  0
  4 27  1  0
  5  6  1  0
  5 13  2  0
  8 21  1  0
  8 17  1  0
  9 22  1  0
 10 23  2  0
 11  8  2  0
 12 15  1  0
 12 26  1  0
 14  7  1  0
 14  1  1  0
 15 16  1  0
 16  6  1  0
 17  7  2  0
 18 10  1  0
 19 12  2  0
 20 10  1  0
 20 14  1  0
 21 20  1  0
 22 15  2  0
 24 18  1  0
 26  5  1  0
 27 25  2  0
 27  9  1  0
  1 28  1  6
  3 29  1  0
  3 30  1  0
  3 31  1  0
  4 32  1  0
  6 33  1  0
  6 34  1  0
  7 35  1  0
 14 36  1  1
 16 37  1  0
 16 38  1  0
 20 39  1  6
 21 40  1  0
 21 41  1  0
 22 42  1  0
 24 43  1  0
 24 44  1  0
 24 45  1  0
 26 46  1  0
 26 47  1  0
M  END
>  <mol_id>  (6) 
2026-08-24-6tgu-s0-n100-seed1-0007

>  <rmsd_to_ref>  (6) 


$$$$

     RDKit          3D

 64 67  0  0  0  0  0  0  0  0999 V2000
   -0.0990   20.9355   41.2796 C   0  0  0  0  0  0  0  0  0  0  0  0
    6.2487   13.6099   35.4599 C   0  0  0  0  0  0  0  0  0  0  0  0
   -1.5442   14.6955   46.4473 C   0  0  0  0  0  0  0  0  0  0  0  0
    2.5703   19.4193   37.7492 C   0  0  0  0  0  0  0  0  0  0  0  0
   -2.2083   15.5032   48.6404 C   0  0  0  0  0  0  0  0  0  0  0  0
    2.3142   20.4165   36.8837 N   0  0  0  0  0  0  0  0  0  0  0  0
    3.9302   17.5150   36.5345 N   0  0  0  0  0  0  0  0  0  0  0  0
    2.5158   18.1868   39.5967 C   0  0  0  0  0  0  0  0  0  0  0  0
    3.7282   16.2474   38.4403 C   0  0  0  0  0  0  0  0  0  0  0  0
    0.5586   20.0696   40.6096 N   0  0  0  0  0  0  0  0  0  0  0  0
    3.1663   17.4148   38.6524 C   0  0  0  0  0  0  0  0  0  0  0  0
    3.2846   20.5050   36.0215 O   0  0  0  0  0  0  0  0  0  0  0  0
   -0.7376   16.5818   42.8080 C   0  0  0  0  0  0  0  0  0  0  0  0
    5.7530   13.3615   37.9474 C   0  0  0  0  0  0  0  0  0  0  0  0
   -1.4851   18.5951   43.8996 O   0  0  0  0  0  0  0  0  0  0  0  0
   -0.4886   15.1889   42.8785 C   0  0  0  0  0  0  0  0  0  0  0  0
   -0.7010   14.5775   44.1435 C   0  0  0  0  0  0  0  0  0  0  0  0
   -1.1358   17.3237   43.9219 C   0  0  0  0  0  0  0  0  0  0  0  0
    0.3094   18.8791   40.9365 N   0  0  0  0  0  0  0  0  0  0  0  0
    5.5065   14.0832   36.6898 C   0  0  0  0  0  0  0  0  0  0  0  0
    4.7659   15.1259   36.5612 N   0  0  0  0  0  0  0  0  0  0  0  0
   -1.7646   13.4044   46.8562 C   0  0  0  0  0  0  0  0  0  0  0  0
    1.5269   20.4169   39.8032 C   0  0  0  0  0  0  0  0  0  0  0  0
   -2.4137   13.1660   48.0571 C   0  0  0  0  0  0  0  0  0  0  0  0
   -1.0755   20.2179   41.9783 C   0  0  0  0  0  0  0  0  0  0  0  0
   -1.3870   16.6248   45.1437 C   0  0  0  0  0  0  0  0  0  0  0  0
    2.1408   19.3686   39.0834 C   0  0  1  0  0  0  0  0  0  0  0  0
   -1.7341   15.8171   47.4231 C   0  0  0  0  0  0  0  0  0  0  0  0
   -3.0229   13.9475   50.2035 F   0  0  0  0  0  0  0  0  0  0  0  0
   -0.6952   18.8592   41.8094 N   0  0  0  0  0  0  0  0  0  0  0  0
    4.1410   16.2679   37.1138 C   0  0  0  0  0  0  0  0  0  0  0  0
   -1.1600   15.3074   45.2030 C   0  0  0  0  0  0  0  0  0  0  0  0
   -2.5643   14.1931   48.9566 C   0  0  0  0  0  0  0  0  0  0  0  0
   -1.9100   20.6509   42.6815 O   0  0  0  0  0  0  0  0  0  0  0  0
    3.2635   18.1735   37.5228 C   0  0  0  0  0  0  0  0  0  0  0  0
   -0.5699   21.6648   40.6041 H   0  0  0  0  0  0  0  0  0  0  0  0
    0.5539   21.4993   41.9621 H   0  0  0  0  0  0  0  0  0  0  0  0
    7.0606   12.9311   35.7602 H   0  0  0  0  0  0  0  0  0  0  0  0
    5.5533   13.0779   34.7940 H   0  0  0  0  0  0  0  0  0  0  0  0
    6.6721   14.4764   34.9310 H   0  0  0  0  0  0  0  0  0  0  0  0
   -2.3174   16.2922   49.3991 H   0  0  0  0  0  0  0  0  0  0  0  0
    1.4783   21.0180   36.9010 H   0  0  0  0  0  0  0  0  0  0  0  0
    2.3297   17.8731   40.6344 H   0  0  0  0  0  0  0  0  0  0  0  0
    4.5907   16.1090   39.1088 H   0  0  0  0  0  0  0  0  0  0  0  0
    3.0325   15.4185   38.6378 H   0  0  0  0  0  0  0  0  0  0  0  0
    4.1496   20.5475   36.5013 H   0  0  0  0  0  0  0  0  0  0  0  0
   -0.6131   17.0959   41.8436 H   0  0  0  0  0  0  0  0  0  0  0  0
    5.3688   13.9534   38.7912 H   0  0  0  0  0  0  0  0  0  0  0  0
    5.2402   12.3887   37.9185 H   0  0  0  0  0  0  0  0  0  0  0  0
    6.8341   13.2025   38.0732 H   0  0  0  0  0  0  0  0  0  0  0  0
   -1.7556   19.0489   44.7369 H   0  0  0  0  0  0  0  0  0  0  0  0
   -0.1502   14.6137   42.0041 H   0  0  0  0  0  0  0  0  0  0  0  0
   -0.4936   13.5048   44.2710 H   0  0  0  0  0  0  0  0  0  0  0  0
    0.0467   18.3409   40.0984 H   0  0  0  0  0  0  0  0  0  0  0  0
    4.6809   13.3947   36.4565 H   0  0  0  0  0  0  0  0  0  0  0  0
    4.4941   15.1334   35.5677 H   0  0  0  0  0  0  0  0  0  0  0  0
   -1.4275   12.5624   46.2337 H   0  0  0  0  0  0  0  0  0  0  0  0
    1.1170   21.1309   39.0736 H   0  0  0  0  0  0  0  0  0  0  0  0
    2.3143   20.8335   40.4486 H   0  0  0  0  0  0  0  0  0  0  0  0
   -2.8046   12.1641   48.2878 H   0  0  0  0  0  0  0  0  0  0  0  0
   -1.7629   17.1644   46.0255 H   0  0  0  0  0  0  0  0  0  0  0  0
    1.1875   18.9255   38.7597 H   0  0  0  0  0  0  0  0  0  0  0  0
   -1.4946   16.8563   47.1534 H   0  0  0  0  0  0  0  0  0  0  0  0
   -1.1091   18.0338   42.2658 H   0  0  0  0  0  0  0  0  0  0  0  0
  1 25  1  0
  2 20  1  0
  3 22  2  0
  3 28  1  0
  4 27  1  0
  5 33  1  0
  6  4  1  0
  7 31  2  0
  7 35  1  0
  9 11  1  0
 10 19  1  0
 10  1  1  0
 11  8  2  0
 12  6  1  0
 13 16  2  0
 13 18  1  0
 15 18  1  0
 16 17  1  0
 17 32  2  0
 18 26  2  0
 19 30  1  0
 20 14  1  0
 21 20  1  0
 21 31  1  0
 22 24  1  0
 23 10  1  0
 24 33  2  0
 25 34  2  0
 26 32  1  0
 27  8  1  0
 27 23  1  0
 28  5  2  0
 30 25  1  0
 31  9  1  0
 32  3  1  0
 33 29  1  0
 35  4  2  0
 35 11  1  0
  1 36  1  0
  1 37  1  0
  2 38  1  0
  2 39  1  0
  2 40  1  0
  5 41  1  0
  6 42  1  0
  8 43  1  0
  9 44  1  0
  9 45  1  0
 12 46  1  0
 13 47  1  0
 14 48  1  0
 14 49  1  0
 14 50  1  0
 15 51  1  0
 16 52  1  0
 17 53  1  0
 19 54  1  0
 20 55  1  0
 21 56  1  0
 22 57  1  0
 23 58  1  0
 23 59  1  0
 24 60  1  0
 26 61  1  0
 27 62  1  6
 28 63  1  0
 30 64  1  0
M  END
>  <mol_id>  (7) 
2026-08-24-6tgu-s0-n100-seed1-0008

>  <rmsd_to_ref>  (7) 


$$$$

     RDKit          3D

 40 43  0  0  0  0  0  0  0  0999 V2000
    1.9349   17.8220   40.4467 C   0  0  0  0  0  0  0  0  0  0  0  0
   -1.6193   19.8930   43.9982 N   0  0  0  0  0  0  0  0  0  0  0  0
    0.2053   18.1582   42.4712 C   0  0  0  0  0  0  0  0  0  0  0  0
    3.5367   17.2911   38.6927 C   0  0  0  0  0  0  0  0  0  0  0  0
    3.1347   15.6724   40.3515 C   0  0  0  0  0  0  0  0  0  0  0  0
    3.3619   18.5709   38.0511 C   0  0  0  0  0  0  0  0  0  0  0  0
    4.4619   13.4571   40.3311 C   0  0  0  0  0  0  0  0  0  0  0  0
   -1.0660   20.2667   42.8107 C   0  0  0  0  0  0  0  0  0  0  0  0
    4.0491   14.7957   39.7035 C   0  0  0  0  0  0  0  0  0  0  0  0
   -2.7972   17.4740   46.1363 N   0  0  0  0  0  0  0  0  0  0  0  0
    5.0519   12.7712   39.2499 O   0  0  0  0  0  0  0  0  0  0  0  0
    2.8553   16.9415   39.8730 C   0  0  0  0  0  0  0  0  0  0  0  0
    4.6523   15.2790   38.5984 N   0  0  0  0  0  0  0  0  0  0  0  0
    2.4581   19.5273   38.6850 C   0  0  0  0  0  0  0  0  0  0  0  0
   -0.1905   19.4897   42.0351 C   0  0  0  0  0  0  0  0  0  0  0  0
   -0.5246   17.6923   43.6358 C   0  0  0  0  0  0  0  0  0  0  0  0
    1.7837   19.0829   39.8149 C   0  0  0  0  0  0  0  0  0  0  0  0
    4.4199   16.4252   38.1213 N   0  0  0  0  0  0  0  0  0  0  0  0
   -1.8578   18.4015   45.7914 C   0  0  2  0  0  0  0  0  0  0  0  0
   -1.3707   18.5505   44.3712 C   0  0  0  0  0  0  0  0  0  0  0  0
   -1.6213   17.8188   47.0646 C   0  0  0  0  0  0  0  0  0  0  0  0
    4.0957   18.7982   37.0178 O   0  0  0  0  0  0  0  0  0  0  0  0
    1.2256   17.3625   41.7179 C   0  0  0  0  0  0  0  0  0  0  0  0
    2.6307   15.3291   41.2670 H   0  0  0  0  0  0  0  0  0  0  0  0
    5.1852   13.6084   41.1459 H   0  0  0  0  0  0  0  0  0  0  0  0
    3.6208   12.9122   40.7844 H   0  0  0  0  0  0  0  0  0  0  0  0
   -1.3279   21.2635   42.4261 H   0  0  0  0  0  0  0  0  0  0  0  0
   -2.8297   16.5639   45.6552 H   0  0  0  0  0  0  0  0  0  0  0  0
   -3.8237   17.4593   46.2201 H   0  0  0  0  0  0  0  0  0  0  0  0
    5.6781   12.0868   39.5955 H   0  0  0  0  0  0  0  0  0  0  0  0
    2.3191   20.5441   38.2891 H   0  0  0  0  0  0  0  0  0  0  0  0
    0.2003   19.8911   41.0885 H   0  0  0  0  0  0  0  0  0  0  0  0
   -0.4160   16.6447   43.9534 H   0  0  0  0  0  0  0  0  0  0  0  0
    1.0601   19.7784   40.2649 H   0  0  0  0  0  0  0  0  0  0  0  0
   -1.6458   19.4579   45.5697 H   0  0  0  0  0  0  0  0  0  0  0  0
   -1.7816   18.3956   47.9873 H   0  0  0  0  0  0  0  0  0  0  0  0
   -0.8042   17.2798   47.5663 H   0  0  0  0  0  0  0  0  0  0  0  0
    4.0192   19.6598   36.5362 H   0  0  0  0  0  0  0  0  0  0  0  0
    0.7226   16.4221   41.4486 H   0  0  0  0  0  0  0  0  0  0  0  0
    2.0626   17.3902   42.4312 H   0  0  0  0  0  0  0  0  0  0  0  0
  1 23  1  0
  2 20  1  0
  3 16  1  0
  4 12  1  0
  6  4  2  0
  6 14  1  0
  8  2  2  0
  9  7  1  0
  9  5  2  0
 10 21  1  0
 11  7  1  0
 12  5  1  0
 12  1  2  0
 13  9  1  0
 14 17  2  0
 15  3  2  0
 15  8  1  0
 16 20  2  0
 17  1  1  0
 18 13  2  0
 18  4  1  0
 19 20  1  0
 19 10  1  0
 19 21  1  0
 22  6  1  0
 23  3  1  0
  5 24  1  0
  7 25  1  0
  7 26  1  0
  8 27  1  0
 10 28  1  0
 10 29  1  0
 11 30  1  0
 14 31  1  0
 15 32  1  0
 16 33  1  0
 17 34  1  0
 19 35  1  1
 21 36  1  0
 21 37  1  0
 22 38  1  0
 23 39  1  0
 23 40  1  0
M  CHG  1  10   1
M  END
>  <mol_id>  (8) 
2026-08-24-6tgu-s0-n100-seed1-0009

>  <rmsd_to_ref>  (8) 


$$$$

     RDKit          3D

 38 41  0  0  0  0  0  0  0  0999 V2000
    3.5374   17.6348   38.3601 F   0  0  0  0  0  0  0  0  0  0  0  0
   -0.2841   16.2701   43.1976 C   0  0  0  0  0  0  0  0  0  0  0  0
    2.2842   20.3583   38.8271 C   0  0  0  0  0  0  0  0  0  0  0  0
    1.8954   18.6014   39.6743 N   0  0  0  0  0  0  0  0  0  0  0  0
    0.4147   19.5634   41.8033 C   0  0  0  0  0  0  0  0  0  0  0  0
    2.0825   21.2356   37.8167 C   0  0  0  0  0  0  0  0  0  0  0  0
    3.5139   19.2266   37.0963 C   0  0  0  0  0  0  0  0  0  0  0  0
    1.9080   19.8373   39.8389 C   0  0  2  0  0  0  0  0  0  0  0  0
    3.0995   18.9022   38.1808 C   0  0  0  0  0  0  0  0  0  0  0  0
    1.1689   20.4686   40.9237 C   0  0  0  0  0  0  0  0  0  0  0  0
    4.2570   19.1165   36.3175 C   0  0  0  0  0  0  0  0  0  0  0  0
    1.5615   16.3997   39.6879 O   0  0  0  0  0  0  0  0  0  0  0  0
    2.7644   21.3093   36.6611 C   0  0  0  0  0  0  0  0  0  0  0  0
   -0.6669   18.4424   43.1961 C   0  0  0  0  0  0  0  0  0  0  0  0
    0.4158   16.1576   42.0415 C   0  0  0  0  0  0  0  0  0  0  0  0
   -0.8057   17.3565   43.7913 C   0  0  0  0  0  0  0  0  0  0  0  0
    0.7903   17.4719   41.3893 C   0  0  0  0  0  0  0  0  0  0  0  0
    1.4269   17.5902   40.0880 C   0  0  0  0  0  0  0  0  0  0  0  0
    3.5526   20.2059   36.3059 C   0  0  0  0  0  0  0  0  0  0  0  0
   -0.9755   14.8558   45.0694 C   0  0  0  0  0  0  0  0  0  0  0  0
    0.3207   18.5694   42.1298 C   0  0  0  0  0  0  0  0  0  0  0  0
   -0.3590   14.9398   43.8468 C   0  0  0  0  0  0  0  0  0  0  0  0
    2.5226   18.3718   38.8902 H   0  0  0  0  0  0  0  0  0  0  0  0
   -0.6066   19.7442   41.4370 H   0  0  0  0  0  0  0  0  0  0  0  0
    1.0948   19.7871   42.6384 H   0  0  0  0  0  0  0  0  0  0  0  0
    1.2730   21.9672   37.9563 H   0  0  0  0  0  0  0  0  0  0  0  0
    2.5828   20.2454   40.6057 H   0  0  0  0  0  0  0  0  0  0  0  0
    1.8897   21.0192   41.5460 H   0  0  0  0  0  0  0  0  0  0  0  0
    0.4150   21.1051   40.4373 H   0  0  0  0  0  0  0  0  0  0  0  0
    5.3247   19.1652   36.5776 H   0  0  0  0  0  0  0  0  0  0  0  0
    4.4618   18.3372   35.5687 H   0  0  0  0  0  0  0  0  0  0  0  0
    2.7063   22.2006   36.0190 H   0  0  0  0  0  0  0  0  0  0  0  0
   -1.2892   19.3056   43.4748 H   0  0  0  0  0  0  0  0  0  0  0  0
    0.6910   15.1841   41.6096 H   0  0  0  0  0  0  0  0  0  0  0  0
   -1.3299   17.2908   44.7561 H   0  0  0  0  0  0  0  0  0  0  0  0
   -1.0504   13.8856   45.5821 H   0  0  0  0  0  0  0  0  0  0  0  0
   -1.3949   15.7588   45.5370 H   0  0  0  0  0  0  0  0  0  0  0  0
    0.0663   14.0479   43.3635 H   0  0  0  0  0  0  0  0  0  0  0  0
  2 16  1  0
  2 22  1  0
  4 18  1  0
  5 21  1  0
  6  3  1  0
  7  9  1  0
  8  3  1  0
  8  4  1  0
  8 10  1  0
  9  3  2  0
  9  1  1  0
 10  5  1  0
 11  7  1  0
 13 19  1  0
 13  6  2  0
 14 16  2  0
 15  2  2  0
 17 21  2  0
 17 15  1  0
 18 12  2  0
 18 17  1  0
 19 11  1  0
 19  7  2  0
 21 14  1  0
 22 20  2  3
  4 23  1  0
  5 24  1  0
  5 25  1  0
  6 26  1  0
  8 27  1  1
 10 28  1  0
 10 29  1  0
 11 30  1  0
 11 31  1  0
 13 32  1  0
 14 33  1  0
 15 34  1  0
 16 35  1  0
 20 36  1  0
 20 37  1  0
 22 38  1  0
M  END
>  <mol_id>  (9) 
2026-08-24-6tgu-s0-n100-seed1-0010

>  <rmsd_to_ref>  (9) 


$$$$

     RDKit          3D

 56 58  0  0  0  0  0  0  0  0999 V2000
    1.0628   20.2590   41.6859 N   0  0  0  0  0  0  0  0  0  0  0  0
    3.2850   16.4090   39.7293 C   0  0  0  0  0  0  0  0  0  0  0  0
    2.7149   17.7262   40.1355 C   0  0  1  0  0  0  0  0  0  0  0  0
    3.3753   14.0410   39.9033 C   0  0  0  0  0  0  0  0  0  0  0  0
    1.8964   17.8335   41.4251 C   0  0  1  0  0  0  0  0  0  0  0  0
    4.4675   15.1834   38.0367 C   0  0  0  0  0  0  0  0  0  0  0  0
    0.4830   17.4792   43.1167 C   0  0  2  0  0  0  0  0  0  0  0  0
    4.2115   12.8575   37.9654 O   0  0  0  0  0  0  0  0  0  0  0  0
    1.8241   20.8349   40.5256 C   0  0  0  0  0  0  0  0  0  0  0  0
    4.4826   18.8239   37.1127 O   0  0  0  0  0  0  0  0  0  0  0  0
   -0.2527   16.6315   43.8721 N   0  0  0  0  0  0  0  0  0  0  0  0
   -0.9538   19.4000   42.8394 O   0  0  0  0  0  0  0  0  0  0  0  0
    1.0498   18.9943   41.8780 N   0  0  0  0  0  0  0  0  0  0  0  0
   -0.9432   14.0331   44.0061 O   0  0  0  0  0  0  0  0  0  0  0  0
    3.5024   18.7596   39.6756 O   0  0  0  0  0  0  0  0  0  0  0  0
   -0.0205   18.6748   42.7132 C   0  0  0  0  0  0  0  0  0  0  0  0
   -1.3484   15.7683   45.6649 N   0  0  0  0  0  0  0  0  0  0  0  0
   -1.4313   12.7327   43.6311 C   0  0  0  0  0  0  0  0  0  0  0  0
    3.6856   19.7085   37.3468 C   0  0  0  0  0  0  0  0  0  0  0  0
    4.1176   16.3325   38.5923 C   0  0  0  0  0  0  0  0  0  0  0  0
    3.0751   19.7806   38.7859 C   0  0  1  0  0  0  0  0  0  0  0  0
   -1.2034   14.4560   45.3113 C   0  0  0  0  0  0  0  0  0  0  0  0
    1.6923   20.0337   39.2626 C   0  0  0  0  0  0  0  0  0  0  0  0
   -1.4529   16.0599   47.0873 C   0  0  0  0  0  0  0  0  0  0  0  0
    3.3488   20.6663   36.5517 N   0  0  0  0  0  0  0  0  0  0  0  0
    1.6195   16.9719   42.3245 C   0  0  0  0  0  0  0  0  0  0  0  0
    2.9970   15.1871   40.3430 C   0  0  0  0  0  0  0  0  0  0  0  0
   -1.3649   13.5825   46.1500 O   0  0  0  0  0  0  0  0  0  0  0  0
    4.0429   13.9845   38.6362 C   0  0  0  0  0  0  0  0  0  0  0  0
   -1.0450   16.8290   44.8390 C   0  0  0  0  0  0  0  0  0  0  0  0
   -1.3344   18.0258   45.1271 O   0  0  0  0  0  0  0  0  0  0  0  0
    0.0819   20.5528   41.5732 H   0  0  0  0  0  0  0  0  0  0  0  0
    1.7649   17.8695   39.6000 H   0  0  0  0  0  0  0  0  0  0  0  0
    3.1916   13.1255   40.4849 H   0  0  0  0  0  0  0  0  0  0  0  0
    2.7661   18.2665   41.9410 H   0  0  0  0  0  0  0  0  0  0  0  0
    5.0792   15.1666   37.1227 H   0  0  0  0  0  0  0  0  0  0  0  0
    0.9723   17.7864   44.0528 H   0  0  0  0  0  0  0  0  0  0  0  0
    3.9224   11.9976   38.3617 H   0  0  0  0  0  0  0  0  0  0  0  0
    1.4490   21.8509   40.3336 H   0  0  0  0  0  0  0  0  0  0  0  0
    2.8886   20.8270   40.8027 H   0  0  0  0  0  0  0  0  0  0  0  0
   -0.1486   15.6404   43.6115 H   0  0  0  0  0  0  0  0  0  0  0  0
   -1.7851   12.2014   44.5270 H   0  0  0  0  0  0  0  0  0  0  0  0
   -2.2622   12.8443   42.9190 H   0  0  0  0  0  0  0  0  0  0  0  0
   -0.6198   12.1581   43.1606 H   0  0  0  0  0  0  0  0  0  0  0  0
    4.4916   17.2674   38.1493 H   0  0  0  0  0  0  0  0  0  0  0  0
    3.4872   20.7993   38.7378 H   0  0  0  0  0  0  0  0  0  0  0  0
    1.1269   20.6010   38.5086 H   0  0  0  0  0  0  0  0  0  0  0  0
    1.1511   19.0925   39.4399 H   0  0  0  0  0  0  0  0  0  0  0  0
   -1.8404   15.1761   47.6153 H   0  0  0  0  0  0  0  0  0  0  0  0
   -0.4592   16.3169   47.4829 H   0  0  0  0  0  0  0  0  0  0  0  0
   -2.1381   16.9071   47.2385 H   0  0  0  0  0  0  0  0  0  0  0  0
    2.6580   21.3678   36.8543 H   0  0  0  0  0  0  0  0  0  0  0  0
    3.7705   20.7297   35.6142 H   0  0  0  0  0  0  0  0  0  0  0  0
    1.3472   16.0161   41.8530 H   0  0  0  0  0  0  0  0  0  0  0  0
    2.4919   16.8081   42.9744 H   0  0  0  0  0  0  0  0  0  0  0  0
    2.4037   15.2082   41.2690 H   0  0  0  0  0  0  0  0  0  0  0  0
  1 13  1  0
  2 27  1  0
  3  2  1  0
  3  5  1  0
  4 27  2  0
  5 13  1  0
  5 26  1  0
  6 29  2  0
  6 20  1  0
  7 11  1  0
  8 29  1  0
  9  1  1  0
 10 19  2  0
 11 30  1  0
 13 16  1  0
 14 22  1  0
 15  3  1  0
 16 12  2  0
 16  7  1  0
 17 24  1  0
 18 14  1  0
 20  2  2  0
 21 19  1  0
 21 23  1  0
 21 15  1  0
 22 17  1  0
 22 28  2  0
 23  9  1  0
 25 19  1  0
 26  7  1  0
 29  4  1  0
 30 31  2  0
 30 17  1  0
  1 32  1  0
  3 33  1  6
  4 34  1  0
  5 35  1  1
  6 36  1  0
  7 37  1  1
  8 38  1  0
  9 39  1  0
  9 40  1  0
 11 41  1  0
 18 42  1  0
 18 43  1  0
 18 44  1  0
 20 45  1  0
 21 46  1  1
 23 47  1  0
 23 48  1  0
 24 49  1  0
 24 50  1  0
 24 51  1  0
 25 52  1  0
 25 53  1  0
 26 54  1  0
 26 55  1  0
 27 56  1  0
M  END
>  <mol_id>  (10) 
2026-08-24-6tgu-s0-n100-seed1-0011

>  <rmsd_to_ref>  (10) 


$$$$

     RDKit          3D

 26 27  0  0  0  0  0  0  0  0999 V2000
    0.1841   19.7034   42.8287 C   0  0  0  0  0  0  0  0  0  0  0  0
    2.2090   20.7227   39.9084 S   0  0  0  0  0  0  0  0  0  0  0  0
    0.4491   14.8525   41.4665 O   0  0  0  0  0  0  0  0  0  0  0  0
   -1.2372   14.9309   43.0389 N   0  0  0  0  0  0  0  0  0  0  0  0
    0.4605   17.8065   41.2364 C   0  0  0  0  0  0  0  0  0  0  0  0
   -0.6138   17.6597   43.3895 C   0  0  0  0  0  0  0  0  0  0  0  0
    3.2335   19.4683   38.3213 N   0  0  0  0  0  0  0  0  0  0  0  0
    2.6440   19.5557   39.4300 C   0  0  2  0  0  0  0  0  0  0  0  0
   -0.4725   18.9601   43.7336 N   0  0  0  0  0  0  0  0  0  0  0  0
   -0.2305   15.4518   42.1210 C   0  0  0  0  0  0  0  0  0  0  0  0
    3.1378   19.9820   37.1457 C   0  0  0  0  0  0  0  0  0  0  0  0
    3.2964   18.9437   36.3069 O   0  0  0  0  0  0  0  0  0  0  0  0
    2.9890   21.1127   36.8916 O   0  0  0  0  0  0  0  0  0  0  0  0
   -0.1468   16.9519   42.2516 C   0  0  0  0  0  0  0  0  0  0  0  0
    0.5873   19.2418   41.5405 C   0  0  0  0  0  0  0  0  0  0  0  0
    2.7529   18.3529   39.3721 N   0  0  0  0  0  0  0  0  0  0  0  0
    1.3510   20.1010   40.9649 C   0  0  0  0  0  0  0  0  0  0  0  0
    0.4283   20.7413   43.0995 H   0  0  0  0  0  0  0  0  0  0  0  0
   -1.8107   15.5798   43.5965 H   0  0  0  0  0  0  0  0  0  0  0  0
   -1.3748   13.9142   43.1294 H   0  0  0  0  0  0  0  0  0  0  0  0
    0.8107   17.3936   40.2790 H   0  0  0  0  0  0  0  0  0  0  0  0
   -1.1832   17.0522   44.1083 H   0  0  0  0  0  0  0  0  0  0  0  0
    3.6105   19.7102   39.9318 H   0  0  0  0  0  0  0  0  0  0  0  0
    1.9411   17.7485   39.1804 H   0  0  0  0  0  0  0  0  0  0  0  0
    2.1080   20.1344   41.7622 H   0  0  0  0  0  0  0  0  0  0  0  0
    0.4812   20.3910   40.3572 H   0  0  0  0  0  0  0  0  0  0  0  0
  1  9  1  0
  2 17  1  0
  3 10  2  0
  5 14  2  0
  7  8  1  0
  7 16  1  0
  8  2  1  0
  8 16  1  0
  9  6  2  0
 10  4  1  0
 11  7  1  0
 12 11  1  0
 13 11  2  0
 14 10  1  0
 14  6  1  0
 15  5  1  0
 15  1  2  0
 17 15  1  0
  1 18  1  0
  4 19  1  0
  4 20  1  0
  5 21  1  0
  6 22  1  0
  8 23  1  1
 16 24  1  0
 17 25  1  0
 17 26  1  0
M  CHG  1  12  -1
M  END
>  <mol_id>  (11) 
2026-08-24-6tgu-s0-n100-seed1-0012

>  <rmsd_to_ref>  (11) 


$$$$

     RDKit          3D

 54 59  0  0  0  0  0  0  0  0999 V2000
    1.6637   15.9053   41.5919 C   0  0  0  0  0  0  0  0  0  0  0  0
    2.7552   23.0153   34.2540 C   0  0  0  0  0  0  0  0  0  0  0  0
    2.4154   21.2068   38.2495 C   0  0  0  0  0  0  0  0  0  0  0  0
   -1.3526   20.8208   43.8245 N   0  0  0  0  0  0  0  0  0  0  0  0
    0.3404   15.4781   43.4758 C   0  0  0  0  0  0  0  0  0  0  0  0
   -1.5862   19.0540   45.2372 N   0  0  0  0  0  0  0  0  0  0  0  0
    3.3400   17.2068   38.5029 C   0  0  0  0  0  0  0  0  0  0  0  0
    0.4289   17.7426   42.5188 C   0  0  0  0  0  0  0  0  0  0  0  0
    3.0184   20.5312   37.1166 C   0  0  0  0  0  0  0  0  0  0  0  0
    0.7813   14.2210   43.5515 N   0  0  0  0  0  0  0  0  0  0  0  0
    0.2843   19.7808   41.4465 C   0  0  0  0  0  0  0  0  0  0  0  0
   -0.6716   21.4446   42.6721 C   0  0  0  0  0  0  0  0  0  0  0  0
    2.2649   22.1502   35.5133 C   0  0  0  0  0  0  0  0  0  0  0  0
    0.1598   21.4665   40.7913 C   0  0  0  0  0  0  0  0  0  0  0  0
    2.9446   18.5373   38.4212 C   0  0  0  0  0  0  0  0  0  0  0  0
    0.8049   16.3829   42.5397 C   0  0  0  0  0  0  0  0  0  0  0  0
    2.0680   16.7700   40.5150 C   0  0  0  0  0  0  0  0  0  0  0  0
    3.2940   19.2312   37.2422 C   0  0  0  0  0  0  0  0  0  0  0  0
   -0.7868   15.9073   44.6454 C   0  0  0  0  0  0  0  0  0  0  0  0
   -0.3107   18.6257   43.3918 C   0  0  0  0  0  0  0  0  0  0  0  0
    2.1213   18.9492   39.4336 C   0  0  0  0  0  0  0  0  0  0  0  0
    0.8454   18.5086   41.4847 C   0  0  0  0  0  0  0  0  0  0  0  0
    2.9513   16.3289   39.5377 C   0  0  0  0  0  0  0  0  0  0  0  0
    1.8235   20.6107   39.3250 C   0  0  0  0  0  0  0  0  0  0  0  0
   -0.1243   20.8161   41.7028 C   0  0  0  0  0  0  0  0  0  0  0  0
    1.6416   13.7589   42.6372 C   0  0  0  0  0  0  0  0  0  0  0  0
    1.0045   21.7943   39.7505 O   0  0  0  0  0  0  0  0  0  0  0  0
    2.1024   14.6241   41.6193 C   0  0  0  0  0  0  0  0  0  0  0  0
    1.6771   18.0862   40.4950 C   0  0  0  0  0  0  0  0  0  0  0  0
   -1.1442   19.5705   44.0523 C   0  0  0  0  0  0  0  0  0  0  0  0
    3.2120   21.2730   35.9195 N   0  0  0  0  0  0  0  0  0  0  0  0
    1.1558   22.3307   35.9491 O   0  0  0  0  0  0  0  0  0  0  0  0
    3.2014   23.9565   34.6073 H   0  0  0  0  0  0  0  0  0  0  0  0
    3.5048   22.4444   33.6865 H   0  0  0  0  0  0  0  0  0  0  0  0
    1.8954   23.2379   33.6050 H   0  0  0  0  0  0  0  0  0  0  0  0
    2.4373   22.3065   38.2410 H   0  0  0  0  0  0  0  0  0  0  0  0
   -2.3656   20.9402   43.6815 H   0  0  0  0  0  0  0  0  0  0  0  0
   -0.9540   21.2990   44.6451 H   0  0  0  0  0  0  0  0  0  0  0  0
   -1.2222   19.6212   46.0161 H   0  0  0  0  0  0  0  0  0  0  0  0
   -2.6160   19.0673   45.2547 H   0  0  0  0  0  0  0  0  0  0  0  0
   -1.2537   18.0839   45.3343 H   0  0  0  0  0  0  0  0  0  0  0  0
    3.9963   16.8141   37.7123 H   0  0  0  0  0  0  0  0  0  0  0  0
   -1.4258   22.0962   42.2068 H   0  0  0  0  0  0  0  0  0  0  0  0
    0.2232   21.8450   43.1711 H   0  0  0  0  0  0  0  0  0  0  0  0
   -0.7611   21.3261   40.2064 H   0  0  0  0  0  0  0  0  0  0  0  0
    0.7909   22.0734   41.4571 H   0  0  0  0  0  0  0  0  0  0  0  0
    3.7964   18.6972   36.4221 H   0  0  0  0  0  0  0  0  0  0  0  0
   -0.3479   15.7719   45.6449 H   0  0  0  0  0  0  0  0  0  0  0  0
   -1.0726   16.9608   44.5101 H   0  0  0  0  0  0  0  0  0  0  0  0
   -1.6780   15.2700   44.5471 H   0  0  0  0  0  0  0  0  0  0  0  0
    3.3452   15.3023   39.5701 H   0  0  0  0  0  0  0  0  0  0  0  0
    1.9871   12.7153   42.6774 H   0  0  0  0  0  0  0  0  0  0  0  0
    2.8088   14.2614   40.8581 H   0  0  0  0  0  0  0  0  0  0  0  0
    4.0695   21.1434   35.3638 H   0  0  0  0  0  0  0  0  0  0  0  0
  1 16  1  0
  2 13  1  0
  3 24  2  0
  4 30  1  0
  5 10  1  0
  5 19  1  0
  7 23  1  0
  8 20  2  0
  9 18  2  0
  9  3  1  0
 11 25  2  0
 12  4  1  0
 13 31  1  0
 13 32  2  0
 14 25  1  0
 15  7  2  0
 15 21  1  0
 16  8  1  0
 16  5  2  0
 17 29  1  0
 17  1  1  0
 18 15  1  0
 20 30  2  0
 21 29  2  0
 22 11  2  0
 22  8  1  0
 23 17  2  0
 24 21  1  0
 24 27  1  0
 25 12  1  0
 26 10  2  0
 27 14  1  0
 28  1  2  0
 28 26  1  0
 29 22  1  0
 30  6  1  0
 31  9  1  0
  2 33  1  0
  2 34  1  0
  2 35  1  0
  3 36  1  0
  4 37  1  0
  4 38  1  0
  6 39  1  0
  6 40  1  0
  6 41  1  0
  7 42  1  0
 12 43  1  0
 12 44  1  0
 14 45  1  0
 14 46  1  0
 18 47  1  0
 19 48  1  0
 19 49  1  0
 19 50  1  0
 23 51  1  0
 26 52  1  0
 28 53  1  0
 31 54  1  0
M  CHG  2   4   1   6   1
M  END
>  <mol_id>  (12) 
2026-08-24-6tgu-s0-n100-seed1-0013

>  <rmsd_to_ref>  (12) 


$$$$

     RDKit          3D

 38 40  0  0  0  0  0  0  0  0999 V2000
    0.9880   22.0840   40.7130 F   0  0  0  0  0  0  0  0  0  0  0  0
    1.4520   17.4950   41.0790 C   0  0  0  0  0  0  0  0  0  0  0  0
   -0.7060   19.9740   42.5150 O   0  0  0  0  0  0  0  0  0  0  0  0
    0.1820   19.2780   41.8910 C   0  0  0  0  0  0  0  0  0  0  0  0
    2.0510   20.9740   39.0100 C   0  0  0  0  0  0  0  0  0  0  0  0
    1.3350   20.9350   40.1860 C   0  0  0  0  0  0  0  0  0  0  0  0
    3.7730   18.7230   36.7480 O   0  0  0  0  0  0  0  0  0  0  0  0
    2.4060   18.5830   39.1160 C   0  0  0  0  0  0  0  0  0  0  0  0
    2.5590   19.8170   38.4240 C   0  0  0  0  0  0  0  0  0  0  0  0
    2.4700   13.9680   41.8490 C   0  0  0  0  0  0  0  0  0  0  0  0
    3.2500   19.8070   37.0890 C   0  0  0  0  0  0  0  0  0  0  0  0
    2.0300   16.2890   41.0580 C   0  0  0  0  0  0  0  0  0  0  0  0
    1.7310   15.2440   42.0170 C   0  0  0  0  0  0  0  0  0  0  0  0
    3.2790   20.8150   36.4800 O   0  0  0  0  0  0  0  0  0  0  0  0
    0.7990   15.5770   43.0730 C   0  0  0  0  0  0  0  0  0  0  0  0
   -1.0480   18.1550   44.7300 N   0  0  0  0  0  0  0  0  0  0  0  0
    1.0620   19.7680   40.8490 C   0  0  0  0  0  0  0  0  0  0  0  0
   -0.9300   16.8490   44.1330 C   0  0  0  0  0  0  0  0  0  0  0  0
    0.1830   16.7920   43.1230 C   0  0  0  0  0  0  0  0  0  0  0  0
    0.5040   17.8580   42.1980 C   0  0  0  0  0  0  0  0  0  0  0  0
   -0.7450   17.9230   46.1220 C   0  0  0  0  0  0  0  0  0  0  0  0
    1.6950   18.5990   40.2780 C   0  0  0  0  0  0  0  0  0  0  0  0
   -0.8680   20.9159   42.2567 H   0  0  0  0  0  0  0  0  0  0  0  0
    2.2261   21.9437   38.5211 H   0  0  0  0  0  0  0  0  0  0  0  0
    2.8449   17.6521   38.7277 H   0  0  0  0  0  0  0  0  0  0  0  0
    2.7114   13.5512   42.8379 H   0  0  0  0  0  0  0  0  0  0  0  0
    1.8460   13.2534   41.2923 H   0  0  0  0  0  0  0  0  0  0  0  0
    3.4004   14.1537   41.2923 H   0  0  0  0  0  0  0  0  0  0  0  0
    1.8037   15.8638   40.0691 H   0  0  0  0  0  0  0  0  0  0  0  0
    3.0655   16.5414   41.3300 H   0  0  0  0  0  0  0  0  0  0  0  0
    0.5827   14.8324   43.8533 H   0  0  0  0  0  0  0  0  0  0  0  0
   -2.0028   18.5250   44.6186 H   0  0  0  0  0  0  0  0  0  0  0  0
   -0.4242   18.8503   44.2960 H   0  0  0  0  0  0  0  0  0  0  0  0
   -0.7292   16.1128   44.9252 H   0  0  0  0  0  0  0  0  0  0  0  0
   -1.8734   16.6254   43.6134 H   0  0  0  0  0  0  0  0  0  0  0  0
   -1.4622   18.4721   46.7498 H   0  0  0  0  0  0  0  0  0  0  0  0
   -0.8170   16.8469   46.3385 H   0  0  0  0  0  0  0  0  0  0  0  0
    0.2751   18.2732   46.3385 H   0  0  0  0  0  0  0  0  0  0  0  0
  2 20  1  0
  4 20  1  0
  4  3  1  0
  5  6  2  0
  6  1  1  0
  6 17  1  0
  7 11  1  0
  8 22  1  0
  9  5  1  0
  9  8  2  0
 10 13  1  0
 11  9  1  0
 12  2  1  0
 12 13  1  0
 13 15  2  0
 14 11  2  0
 15 19  1  0
 16 21  1  0
 17  4  2  0
 18 16  1  0
 19 18  1  0
 20 19  2  0
 22 17  1  0
 22  2  2  0
  3 23  1  0
  5 24  1  0
  8 25  1  0
 10 26  1  0
 10 27  1  0
 10 28  1  0
 12 29  1  0
 12 30  1  0
 15 31  1  0
 16 32  1  0
 16 33  1  0
 18 34  1  0
 18 35  1  0
 21 36  1  0
 21 37  1  0
 21 38  1  0
M  CHG  2   7  -1  16   1
M  END
>  <mol_id>  (13) 
2026-08-24-6tgu-s0-n100-seed1-0014

>  <rmsd_to_ref>  (13) 


$$$$

     RDKit          3D

 41 43  0  0  0  0  0  0  0  0999 V2000
    2.4660   15.0120   40.5139 C   0  0  0  0  0  0  0  0  0  0  0  0
    2.1048   20.4066   38.7425 N   0  0  0  0  0  0  0  0  0  0  0  0
    0.9749   17.4605   41.6485 C   0  0  0  0  0  0  0  0  0  0  0  0
    4.1672   20.7874   35.1982 O   0  0  0  0  0  0  0  0  0  0  0  0
   -0.3173   18.3816   45.8945 C   0  0  0  0  0  0  0  0  0  0  0  0
   -0.7993   17.4793   44.8847 O   0  0  0  0  0  0  0  0  0  0  0  0
    1.8890   18.6193   40.0450 C   0  0  0  0  0  0  0  0  0  0  0  0
   -0.7442   20.7440   43.8459 F   0  0  0  0  0  0  0  0  0  0  0  0
    2.3624   16.2160   39.8693 C   0  0  0  0  0  0  0  0  0  0  0  0
    0.4885   18.7926   41.8093 C   0  0  0  0  0  0  0  0  0  0  0  0
    3.2905   15.0479   37.9332 C   0  0  0  0  0  0  0  0  0  0  0  0
    1.7645   17.2935   40.5013 N   0  0  0  0  0  0  0  0  0  0  0  0
    3.4308   13.8674   38.6510 C   0  0  0  0  0  0  0  0  0  0  0  0
   -2.4104   19.0340   44.0923 F   0  0  0  0  0  0  0  0  0  0  0  0
    0.4568   16.6964   42.8317 C   0  0  0  0  0  0  0  0  0  0  0  0
    3.2237   19.5517   36.8753 C   0  0  0  0  0  0  0  0  0  0  0  0
   -2.0848   20.3340   42.4945 F   0  0  0  0  0  0  0  0  0  0  0  0
   -0.3959   17.6877   43.6237 C   0  0  0  0  0  0  0  0  0  0  0  0
    2.0527   21.3946   35.8756 O   0  0  0  0  0  0  0  0  0  0  0  0
   -0.4540   18.9288   42.9321 C   0  0  0  0  0  0  0  0  0  0  0  0
    3.9775   18.5618   36.6452 O   0  0  0  0  0  0  0  0  0  0  0  0
    3.0394   13.8446   39.9582 C   0  0  0  0  0  0  0  0  0  0  0  0
    2.5791   19.7485   38.0080 C   0  0  0  0  0  0  0  0  0  0  0  0
   -1.4355   19.7852   43.4573 C   0  0  0  0  0  0  0  0  0  0  0  0
    1.0368   19.4254   40.9158 N   0  0  0  0  0  0  0  0  0  0  0  0
    2.4663   19.0026   39.1369 C   0  0  0  0  0  0  0  0  0  0  0  0
    2.7961   16.1810   38.5562 C   0  0  0  0  0  0  0  0  0  0  0  0
    4.0528   12.5349   38.0107 Cl  0  0  0  0  0  0  0  0  0  0  0  0
    3.0446   20.6901   35.9392 C   0  0  0  0  0  0  0  0  0  0  0  0
    2.0743   14.9482   41.5398 H   0  0  0  0  0  0  0  0  0  0  0  0
    1.6794   20.0083   39.5918 H   0  0  0  0  0  0  0  0  0  0  0  0
   -0.5466   17.9740   46.8901 H   0  0  0  0  0  0  0  0  0  0  0  0
    0.7710   18.5020   45.7893 H   0  0  0  0  0  0  0  0  0  0  0  0
   -0.8075   19.3593   45.7768 H   0  0  0  0  0  0  0  0  0  0  0  0
    3.5720   15.0827   36.8704 H   0  0  0  0  0  0  0  0  0  0  0  0
   -0.1545   15.8442   42.5000 H   0  0  0  0  0  0  0  0  0  0  0  0
    1.2763   16.2881   43.4415 H   0  0  0  0  0  0  0  0  0  0  0  0
    3.1672   12.9373   40.5668 H   0  0  0  0  0  0  0  0  0  0  0  0
    2.7242   18.0269   38.6993 H   0  0  0  0  0  0  0  0  0  0  0  0
    2.7175   19.9026   39.7174 H   0  0  0  0  0  0  0  0  0  0  0  0
    2.7449   17.1109   37.9709 H   0  0  0  0  0  0  0  0  0  0  0  0
  3 10  2  0
  3 15  1  0
  4 29  2  0
  6  5  1  0
  7 12  1  0
  7 25  2  0
  9  1  2  0
  9 12  1  0
 10 20  1  0
 11 13  1  0
 11 27  2  0
 12  3  1  0
 13 22  2  0
 15 18  1  0
 16 23  1  0
 17 24  1  0
 18  6  1  0
 19 29  1  0
 20 24  1  0
 20 18  2  0
 21 16  2  0
 22  1  1  0
 23  2  2  3
 23 26  1  0
 24  8  1  0
 24 14  1  0
 25 10  1  0
 26  7  1  0
 27  9  1  0
 28 13  1  0
 29 16  1  0
  1 30  1  0
  2 31  1  0
  5 32  1  0
  5 33  1  0
  5 34  1  0
 11 35  1  0
 15 36  1  0
 15 37  1  0
 22 38  1  0
 26 39  1  0
 26 40  1  0
 27 41  1  0
M  CHG  1  19  -1
M  END
>  <mol_id>  (14) 
2026-08-24-6tgu-s0-n100-seed1-0015

>  <rmsd_to_ref>  (14) 


$$$$

     RDKit          3D

 39 40  0  0  0  0  0  0  0  0999 V2000
    3.1883   19.5078   38.9812 O   0  0  0  0  0  0  0  0  0  0  0  0
    2.3112   20.2772   36.8201 O   0  0  0  0  0  0  0  0  0  0  0  0
   -0.9327   19.2620   41.1402 C   0  0  0  0  0  0  0  0  0  0  0  0
    4.2048   17.0277   38.6917 O   0  0  0  0  0  0  0  0  0  0  0  0
    0.1212   17.1892   42.5912 C   0  0  0  0  0  0  0  0  0  0  0  0
    0.3840   19.4733   41.0003 O   0  0  0  0  0  0  0  0  0  0  0  0
    1.2409   17.4507   41.5191 C   0  0  0  0  0  0  0  0  0  0  0  0
    1.5544   18.6733   40.6169 C   0  0  0  0  0  0  0  0  0  0  0  0
    0.3263   14.9451   43.8207 C   0  0  0  0  0  0  0  0  0  0  0  0
    0.5196   16.0072   43.1443 C   0  0  0  0  0  0  0  0  0  0  0  0
    2.6588   18.4481   39.7657 C   0  0  0  0  0  0  0  0  0  0  0  0
    2.4926   20.6964   40.9541 F   0  0  0  0  0  0  0  0  0  0  0  0
   -1.3482   16.2716   45.2836 C   0  0  0  0  0  0  0  0  0  0  0  0
   -1.5343   17.2334   44.4284 C   0  0  0  0  0  0  0  0  0  0  0  0
    4.1845   19.0828   36.9488 O   0  0  0  0  0  0  0  0  0  0  0  0
   -1.0558   17.8808   43.3194 C   0  0  2  0  0  0  0  0  0  0  0  0
   -1.4093   20.0081   42.3142 C   0  0  0  0  0  0  0  0  0  0  0  0
   -1.7381   19.0980   43.2604 O   0  0  0  0  0  0  0  0  0  0  0  0
    3.2311   19.6778   37.5390 C   0  0  0  0  0  0  0  0  0  0  0  0
    2.9220   16.1732   40.5058 C   0  0  0  0  0  0  0  0  0  0  0  0
   -0.6757   14.8994   44.8965 C   0  0  0  0  0  0  0  0  0  0  0  0
    3.7103   14.8564   40.5160 C   0  0  0  0  0  0  0  0  0  0  0  0
    3.2817   17.2274   39.6456 C   0  0  0  0  0  0  0  0  0  0  0  0
    1.9761   16.3506   41.4592 N   0  0  0  0  0  0  0  0  0  0  0  0
   -1.1218   18.1878   41.2828 H   0  0  0  0  0  0  0  0  0  0  0  0
   -1.4641   19.6026   40.2393 H   0  0  0  0  0  0  0  0  0  0  0  0
    4.6497   16.1470   38.6101 H   0  0  0  0  0  0  0  0  0  0  0  0
    0.9192   14.0462   43.5961 H   0  0  0  0  0  0  0  0  0  0  0  0
    1.5754   15.9298   42.8457 H   0  0  0  0  0  0  0  0  0  0  0  0
    2.2727   20.8226   41.8603 H   0  0  0  0  0  0  0  0  0  0  0  0
   -1.6746   16.4221   46.3232 H   0  0  0  0  0  0  0  0  0  0  0  0
   -2.4672   17.7402   44.7160 H   0  0  0  0  0  0  0  0  0  0  0  0
   -0.3526   18.3103   44.0481 H   0  0  0  0  0  0  0  0  0  0  0  0
   -0.6145   20.6701   42.6881 H   0  0  0  0  0  0  0  0  0  0  0  0
   -2.2772   20.6321   42.0543 H   0  0  0  0  0  0  0  0  0  0  0  0
   -0.9412   13.9597   45.4029 H   0  0  0  0  0  0  0  0  0  0  0  0
    3.7748   14.4757   41.5460 H   0  0  0  0  0  0  0  0  0  0  0  0
    3.1974   14.1171   39.8833 H   0  0  0  0  0  0  0  0  0  0  0  0
    4.7236   15.0326   40.1260 H   0  0  0  0  0  0  0  0  0  0  0  0
  1 11  1  0
  2 19  1  0
  3 17  1  0
  4 23  1  0
  5 10  2  0
  5 16  1  0
  6  3  1  0
  7  5  1  0
  8  6  1  0
  8  7  1  0
  9 21  2  0
 10  9  1  0
 11  8  2  0
 14 13  2  0
 15 19  2  0
 16 18  1  0
 16 14  1  0
 17 18  1  0
 19  1  1  0
 20 24  1  0
 21 13  1  0
 22 20  1  0
 23 11  1  0
 23 20  2  0
 24  7  2  0
  3 25  1  0
  3 26  1  0
  4 27  1  0
  9 28  1  0
 10 29  1  0
 12 30  1  0
 13 31  1  0
 14 32  1  0
 16 33  1  6
 17 34  1  0
 17 35  1  0
 21 36  1  0
 22 37  1  0
 22 38  1  0
 22 39  1  0
M  CHG  1   2  -1
M  END
>  <mol_id>  (15) 
2026-08-24-6tgu-s0-n100-seed1-0016

>  <rmsd_to_ref>  (15) 


$$$$

     RDKit          3D

 48 52  0  0  0  0  0  0  0  0999 V2000
    6.3133   12.9278   39.6101 N   0  0  0  0  0  0  0  0  0  0  0  0
    0.0566   19.5399   41.8879 C   0  0  0  0  0  0  0  0  0  0  0  0
    4.9406   20.3531   36.1311 C   0  0  0  0  0  0  0  0  0  0  0  0
   -1.2833   15.7379   45.4553 C   0  0  0  0  0  0  0  0  0  0  0  0
    6.0791   13.8792   37.5630 C   0  0  0  0  0  0  0  0  0  0  0  0
   -1.5528   18.7249   43.5255 C   0  0  0  0  0  0  0  0  0  0  0  0
    4.0287   15.0535   38.9708 C   0  0  0  0  0  0  0  0  0  0  0  0
    2.6936   19.0905   38.6194 C   0  0  0  0  0  0  0  0  0  0  0  0
    2.3702   16.8504   40.5225 C   0  0  0  0  0  0  0  0  0  0  0  0
    3.2141   17.9412   38.3666 C   0  0  0  0  0  0  0  0  0  0  0  0
    1.7611   18.1275   40.7055 C   0  0  0  0  0  0  0  0  0  0  0  0
    4.0744   19.6172   37.0797 C   0  0  1  0  0  0  0  0  0  0  0  0
    0.4401   20.6550   41.1593 C   0  0  0  0  0  0  0  0  0  0  0  0
   -1.0502   16.5541   44.6692 C   0  0  0  0  0  0  0  0  0  0  0  0
    1.9827   19.3020   39.8477 C   0  0  0  0  0  0  0  0  0  0  0  0
    7.2413   13.2676   37.5352 N   0  0  0  0  0  0  0  0  0  0  0  0
   -0.7559   17.4354   43.6366 C   0  0  0  0  0  0  0  0  0  0  0  0
    0.6430   18.2405   41.6864 C   0  0  0  0  0  0  0  0  0  0  0  0
    4.1222   18.2408   37.3644 O   0  0  0  0  0  0  0  0  0  0  0  0
   -1.0832   19.7131   42.6023 N   0  0  0  0  0  0  0  0  0  0  0  0
    3.2310   16.6604   39.1922 C   0  0  0  0  0  0  0  0  0  0  0  0
    5.4590   13.7112   38.7446 N   0  0  0  0  0  0  0  0  0  0  0  0
    5.5350   14.6893   36.5279 N   0  0  0  0  0  0  0  0  0  0  0  0
    1.4393   20.4937   40.1850 C   0  0  0  0  0  0  0  0  0  0  0  0
    7.2961   12.6741   38.8796 N   0  0  0  0  0  0  0  0  0  0  0  0
    2.0811   15.7469   41.2704 C   0  0  0  0  0  0  0  0  0  0  0  0
    0.3669   17.1579   42.7111 C   0  0  0  0  0  0  0  0  0  0  0  0
    3.5345   14.1828   40.0109 C   0  0  0  0  0  0  0  0  0  0  0  0
    2.6470   14.3999   41.0562 C   0  0  0  0  0  0  0  0  0  0  0  0
    3.0156   20.1710   37.7453 C   0  0  0  0  0  0  0  0  0  0  0  0
    5.6052   21.0285   36.6897 H   0  0  0  0  0  0  0  0  0  0  0  0
    5.5455   19.6369   35.5555 H   0  0  0  0  0  0  0  0  0  0  0  0
    4.3149   20.9406   35.4432 H   0  0  0  0  0  0  0  0  0  0  0  0
   -1.5050   14.9618   46.2027 H   0  0  0  0  0  0  0  0  0  0  0  0
   -2.4557   18.8923   44.1311 H   0  0  0  0  0  0  0  0  0  0  0  0
    4.7556   14.7884   38.1889 H   0  0  0  0  0  0  0  0  0  0  0  0
    3.3530   19.4251   36.2719 H   0  0  0  0  0  0  0  0  0  0  0  0
   -0.0237   21.6362   41.3386 H   0  0  0  0  0  0  0  0  0  0  0  0
    4.5295   14.0794   38.9923 H   0  0  0  0  0  0  0  0  0  0  0  0
    6.0400   14.7935   35.6363 H   0  0  0  0  0  0  0  0  0  0  0  0
    4.6361   15.1717   36.6701 H   0  0  0  0  0  0  0  0  0  0  0  0
    1.8021   21.3922   39.6642 H   0  0  0  0  0  0  0  0  0  0  0  0
    1.3692   15.8703   42.0998 H   0  0  0  0  0  0  0  0  0  0  0  0
    0.9584   16.2319   42.7636 H   0  0  0  0  0  0  0  0  0  0  0  0
    3.9348   13.1591   39.9670 H   0  0  0  0  0  0  0  0  0  0  0  0
    2.3663   13.5711   41.7227 H   0  0  0  0  0  0  0  0  0  0  0  0
    3.3074   21.0746   38.3005 H   0  0  0  0  0  0  0  0  0  0  0  0
    2.1902   20.5166   37.1054 H   0  0  0  0  0  0  0  0  0  0  0  0
  2 20  1  0
  5 22  1  0
  6 17  1  0
  7 21  2  0
  7 28  1  0
  8 15  1  0
  9 11  1  0
  9 26  2  0
 10  8  2  0
 10 21  1  0
 11 18  2  0
 12  3  1  0
 12 19  1  0
 12 30  1  0
 13  2  2  0
 14  4  3  0
 15 24  2  0
 15 11  1  0
 16  5  2  0
 16 25  1  0
 17 14  1  0
 18  2  1  0
 18 27  1  0
 19 10  1  0
 20  6  2  0
 21  9  1  0
 22  1  1  0
 23  5  1  0
 24 13  1  0
 25  1  2  0
 27 17  2  0
 28 29  2  0
 29 26  1  0
 30  8  1  0
  3 31  1  0
  3 32  1  0
  3 33  1  0
  4 34  1  0
  6 35  1  0
  7 36  1  0
 12 37  1  1
 13 38  1  0
 22 39  1  0
 23 40  1  0
 23 41  1  0
 24 42  1  0
 26 43  1  0
 27 44  1  0
 28 45  1  0
 29 46  1  0
 30 47  1  0
 30 48  1  0
M  END
>  <mol_id>  (16) 
2026-08-24-6tgu-s0-n100-seed1-0017

>  <rmsd_to_ref>  (16) 


$$$$

     RDKit          3D

 30 32  0  0  0  0  0  0  0  0999 V2000
    5.1118   14.9558   38.3841 C   0  0  0  0  0  0  0  0  0  0  0  0
   -0.9132   21.6321   42.3976 N   0  0  0  0  0  0  0  0  0  0  0  0
    2.8646   18.0073   38.8207 C   0  0  0  0  0  0  0  0  0  0  0  0
   -0.5360   20.3598   42.6168 C   0  0  0  0  0  0  0  0  0  0  0  0
    1.8155   17.8259   41.0512 C   0  0  0  0  0  0  0  0  0  0  0  0
    2.1063   18.5563   39.8782 C   0  0  0  0  0  0  0  0  0  0  0  0
    2.9286   20.2714   36.9765 Cl  0  0  0  0  0  0  0  0  0  0  0  0
    0.9905   18.3692   42.0118 C   0  0  0  0  0  0  0  0  0  0  0  0
    4.1300   17.9191   36.8915 O   0  0  0  0  0  0  0  0  0  0  0  0
    5.2694   13.6296   38.1796 C   0  0  0  0  0  0  0  0  0  0  0  0
    5.1705   15.8771   37.3905 N   0  0  0  0  0  0  0  0  0  0  0  0
    0.4490   21.6946   40.4355 C   0  0  0  0  0  0  0  0  0  0  0  0
    0.8056   20.3994   40.6410 C   0  0  0  0  0  0  0  0  0  0  0  0
    3.4930   16.8608   38.7748 N   0  0  0  0  0  0  0  0  0  0  0  0
   -1.1887   19.7441   43.6642 N   0  0  0  0  0  0  0  0  0  0  0  0
    3.3152   18.6977   37.5743 C   0  0  0  0  0  0  0  0  0  0  0  0
    0.3952   19.6687   41.7771 C   0  0  0  0  0  0  0  0  0  0  0  0
    4.2207   16.8438   37.6219 C   0  0  0  0  0  0  0  0  0  0  0  0
    1.6826   19.7491   39.6716 N   0  0  0  0  0  0  0  0  0  0  0  0
   -0.4448   22.2530   41.3063 C   0  0  0  0  0  0  0  0  0  0  0  0
    4.9262   15.3067   39.4101 H   0  0  0  0  0  0  0  0  0  0  0  0
    2.2470   16.8248   41.1980 H   0  0  0  0  0  0  0  0  0  0  0  0
    0.7864   17.8231   42.9446 H   0  0  0  0  0  0  0  0  0  0  0  0
    5.2108   12.9315   39.0276 H   0  0  0  0  0  0  0  0  0  0  0  0
    5.4563   13.2480   37.1649 H   0  0  0  0  0  0  0  0  0  0  0  0
    5.8211   15.8559   36.5922 H   0  0  0  0  0  0  0  0  0  0  0  0
    0.8649   22.2734   39.5977 H   0  0  0  0  0  0  0  0  0  0  0  0
   -0.9661   18.7683   43.9075 H   0  0  0  0  0  0  0  0  0  0  0  0
   -1.8988   20.2601   44.2032 H   0  0  0  0  0  0  0  0  0  0  0  0
   -0.8007   23.2728   41.0989 H   0  0  0  0  0  0  0  0  0  0  0  0
  3  6  1  0
  4  2  1  0
  4 15  1  0
  5  8  2  0
  6 19  2  0
  6  5  1  0
  7 16  1  0
  8 17  1  0
  9 18  1  0
  9 16  1  0
 10  1  2  3
 11 18  1  0
 11  1  1  0
 12 20  1  0
 13 12  2  0
 13 17  1  0
 14  3  1  0
 16  3  2  0
 17  4  2  0
 18 14  2  0
 19 13  1  0
 20  2  2  0
  1 21  1  0
  5 22  1  0
  8 23  1  0
 10 24  1  0
 10 25  1  0
 11 26  1  0
 12 27  1  0
 15 28  1  0
 15 29  1  0
 20 30  1  0
M  END
>  <mol_id>  (17) 
2026-08-24-6tgu-s0-n100-seed1-0018

>  <rmsd_to_ref>  (17) 


$$$$

     RDKit          3D

 52 54  0  0  0  0  0  0  0  0999 V2000
    1.1598   18.7405   40.9767 C   0  0  2  0  0  0  0  0  0  0  0  0
   -0.3159   19.3707   44.1753 O   0  0  0  0  0  0  0  0  0  0  0  0
   -0.4235   17.0957   42.7633 C   0  0  2  0  0  0  0  0  0  0  0  0
   -0.9071   19.5994   42.8247 C   0  0  0  0  0  0  0  0  0  0  0  0
    3.1455   15.6965   39.4376 C   0  0  0  0  0  0  0  0  0  0  0  0
    3.7322   17.2207   37.7071 C   0  0  0  0  0  0  0  0  0  0  0  0
    0.8916   22.2272   41.3781 O   0  0  0  0  0  0  0  0  0  0  0  0
    2.6214   14.3999   41.4142 C   0  0  0  0  0  0  0  0  0  0  0  0
   -1.6261   18.2542   42.3594 C   0  0  0  0  0  0  0  0  0  0  0  0
    0.3518   16.3513   44.0084 C   0  0  0  0  0  0  0  0  0  0  0  0
    1.6488   20.2396   40.7607 C   0  0  0  0  0  0  0  0  0  0  0  0
    2.8776   16.8058   39.9408 C   0  0  1  0  0  0  0  0  0  0  0  0
    4.3395   17.4175   36.6256 O   0  0  0  0  0  0  0  0  0  0  0  0
    3.5893   15.9072   38.1502 C   0  0  0  0  0  0  0  0  0  0  0  0
    0.8072   17.6980   41.9363 C   0  0  1  0  0  0  0  0  0  0  0  0
   -0.1252   14.7730   44.0345 C   0  0  0  0  0  0  0  0  0  0  0  0
    3.3377   19.6210   38.1260 C   0  0  0  0  0  0  0  0  0  0  0  0
    0.6157   21.1075   41.3916 C   0  0  0  0  0  0  0  0  0  0  0  0
    3.7952   19.9672   36.8589 C   0  0  0  0  0  0  0  0  0  0  0  0
    2.3306   18.1400   39.9454 C   0  0  1  0  0  0  0  0  0  0  0  0
    1.3015   16.2569   41.7336 C   0  0  0  0  0  0  0  0  0  0  0  0
   -0.5619   20.4787   41.8526 N   0  0  0  0  0  0  0  0  0  0  0  0
    2.7547   15.8288   41.2706 C   0  0  1  0  0  0  0  0  0  0  0  0
    3.0807   18.3551   38.6183 C   0  0  1  0  0  0  0  0  0  0  0  0
    3.9331   20.4797   35.9025 O   0  0  0  0  0  0  0  0  0  0  0  0
    0.0837   18.9248   41.1105 H   0  0  0  0  0  0  0  0  0  0  0  0
   -1.1609   16.2795   42.7564 H   0  0  0  0  0  0  0  0  0  0  0  0
    3.9307   15.1996   40.0263 H   0  0  0  0  0  0  0  0  0  0  0  0
    2.2524   15.0542   39.4328 H   0  0  0  0  0  0  0  0  0  0  0  0
    2.5671   14.1422   42.4822 H   0  0  0  0  0  0  0  0  0  0  0  0
    1.7036   14.0646   40.9089 H   0  0  0  0  0  0  0  0  0  0  0  0
    3.4919   13.9030   40.9610 H   0  0  0  0  0  0  0  0  0  0  0  0
   -1.8375   18.2598   41.2799 H   0  0  0  0  0  0  0  0  0  0  0  0
   -2.6070   18.0758   42.8243 H   0  0  0  0  0  0  0  0  0  0  0  0
    1.4401   16.4100   43.8591 H   0  0  0  0  0  0  0  0  0  0  0  0
    0.1034   16.8415   44.9612 H   0  0  0  0  0  0  0  0  0  0  0  0
    2.6248   20.3957   41.2434 H   0  0  0  0  0  0  0  0  0  0  0  0
    1.7703   20.4721   39.6925 H   0  0  0  0  0  0  0  0  0  0  0  0
    3.2395   17.6460   39.3300 H   0  0  0  0  0  0  0  0  0  0  0  0
    2.8767   15.4114   37.4748 H   0  0  0  0  0  0  0  0  0  0  0  0
    4.6140   15.5071   38.1475 H   0  0  0  0  0  0  0  0  0  0  0  0
    1.1352   18.6541   42.3704 H   0  0  0  0  0  0  0  0  0  0  0  0
   -0.2514   14.4453   45.0769 H   0  0  0  0  0  0  0  0  0  0  0  0
   -1.0808   14.6699   43.4994 H   0  0  0  0  0  0  0  0  0  0  0  0
    0.6384   14.1509   43.5445 H   0  0  0  0  0  0  0  0  0  0  0  0
    3.1588   20.4553   38.8202 H   0  0  0  0  0  0  0  0  0  0  0  0
    1.9795   19.0409   40.4700 H   0  0  0  0  0  0  0  0  0  0  0  0
    1.1498   15.7606   42.7035 H   0  0  0  0  0  0  0  0  0  0  0  0
    0.7302   15.9871   40.8332 H   0  0  0  0  0  0  0  0  0  0  0  0
   -1.3816   20.7668   41.2995 H   0  0  0  0  0  0  0  0  0  0  0  0
    3.7535   15.9675   41.7102 H   0  0  0  0  0  0  0  0  0  0  0  0
    4.0013   18.4016   39.2186 H   0  0  0  0  0  0  0  0  0  0  0  0
  1 11  1  0
  1 15  1  0
  3 10  1  0
  4  2  2  0
  6 14  1  0
  6 24  1  0
  7 18  2  0
  9  3  1  0
  9  4  1  0
 10 16  1  0
 11 18  1  0
 12  5  1  0
 12 20  1  0
 12 23  1  0
 13  6  2  0
 14  5  1  0
 15 21  1  0
 15  3  1  0
 17 24  1  0
 18 22  1  0
 19 17  2  0
 20  1  1  0
 22  4  1  0
 23  8  1  0
 23 21  1  0
 24 20  1  0
 25 19  2  0
  1 26  1  6
  3 27  1  6
  5 28  1  0
  5 29  1  0
  8 30  1  0
  8 31  1  0
  8 32  1  0
  9 33  1  0
  9 34  1  0
 10 35  1  0
 10 36  1  0
 11 37  1  0
 11 38  1  0
 12 39  1  1
 14 40  1  0
 14 41  1  0
 15 42  1  1
 16 43  1  0
 16 44  1  0
 16 45  1  0
 17 46  1  0
 20 47  1  1
 21 48  1  0
 21 49  1  0
 22 50  1  0
 23 51  1  1
 24 52  1  6
M  END
>  <mol_id>  (18) 
2026-08-24-6tgu-s0-n100-seed1-0019

>  <rmsd_to_ref>  (18) 


$$$$

     RDKit          3D

 30 30  0  0  0  0  0  0  0  0999 V2000
    1.2680   20.7410   40.6320 C   0  0  0  0  0  0  0  0  0  0  0  0
    3.9270   17.3430   37.1060 C   0  0  0  0  0  0  0  0  0  0  0  0
    1.1460   17.9750   41.8370 C   0  0  0  0  0  0  0  0  0  0  0  0
    3.2670   20.0550   39.6550 C   0  0  0  0  0  0  0  0  0  0  0  0
    0.0370   20.0210   42.7030 C   0  0  0  0  0  0  0  0  0  0  0  0
   -0.3580   17.5520   44.0140 Cl  0  0  0  0  0  0  0  0  0  0  0  0
    2.1190   19.6520   40.3540 C   0  0  2  0  0  0  0  0  0  0  0  0
    0.3340   18.6510   42.7550 C   0  0  1  0  0  0  0  0  0  0  0  0
    3.3580   19.4910   37.2950 C   0  0  0  0  0  0  0  0  0  0  0  0
    0.4890   21.0250   41.7220 C   0  0  0  0  0  0  0  0  0  0  0  0
    3.6160   18.5370   36.4860 O   0  0  0  0  0  0  0  0  0  0  0  0
    3.7240   19.1500   38.6080 C   0  0  0  0  0  0  0  0  0  0  0  0
   -0.7580   20.4510   43.5670 O   0  0  0  0  0  0  0  0  0  0  0  0
    2.8870   20.6150   36.9760 O   0  0  0  0  0  0  0  0  0  0  0  0
    1.8800   18.3370   40.7210 C   0  0  0  0  0  0  0  0  0  0  0  0
    0.5546   20.7360   39.7947 H   0  0  0  0  0  0  0  0  0  0  0  0
    2.0594   21.4756   40.8415 H   0  0  0  0  0  0  0  0  0  0  0  0
    3.8922   17.4766   38.1973 H   0  0  0  0  0  0  0  0  0  0  0  0
    3.1991   16.5743   36.8073 H   0  0  0  0  0  0  0  0  0  0  0  0
    4.9374   17.0270   36.8073 H   0  0  0  0  0  0  0  0  0  0  0  0
    1.2179   16.8991   42.0545 H   0  0  0  0  0  0  0  0  0  0  0  0
    3.0541   21.0288   39.1898 H   0  0  0  0  0  0  0  0  0  0  0  0
    4.0758   20.0815   40.4001 H   0  0  0  0  0  0  0  0  0  0  0  0
    2.6417   19.8170   41.3077 H   0  0  0  0  0  0  0  0  0  0  0  0
    1.2157   18.8657   43.3767 H   0  0  0  0  0  0  0  0  0  0  0  0
    1.0494   21.7742   42.3005 H   0  0  0  0  0  0  0  0  0  0  0  0
   -0.4633   21.2806   41.2343 H   0  0  0  0  0  0  0  0  0  0  0  0
    3.3139   18.1523   38.8232 H   0  0  0  0  0  0  0  0  0  0  0  0
    4.8226   19.2003   38.6318 H   0  0  0  0  0  0  0  0  0  0  0  0
    2.2965   17.5374   40.0908 H   0  0  0  0  0  0  0  0  0  0  0  0
  1 10  1  0
  3  8  1  0
  5  8  1  0
  5 13  2  0
  7  4  1  0
  7  1  1  0
  7 15  1  0
  8  6  1  0
  9 12  1  0
 10  5  1  0
 11  2  1  0
 11  9  1  0
 12  4  1  0
 14  9  2  0
 15  3  2  0
  1 16  1  0
  1 17  1  0
  2 18  1  0
  2 19  1  0
  2 20  1  0
  3 21  1  0
  4 22  1  0
  4 23  1  0
  7 24  1  1
  8 25  1  1
 10 26  1  0
 10 27  1  0
 12 28  1  0
 12 29  1  0
 15 30  1  0
M  END
>  <mol_id>  (19) 
2026-08-24-6tgu-s0-n100-seed1-0020

>  <rmsd_to_ref>  (19) 


$$$$

     RDKit          3D

 28 29  0  0  0  0  0  0  0  0999 V2000
    1.9133   16.9091   40.9713 C   0  0  0  0  0  0  0  0  0  0  0  0
    2.3777   18.4272   38.6263 N   0  0  0  0  0  0  0  0  0  0  0  0
    1.0924   19.4468   40.4751 C   0  0  0  0  0  0  0  0  0  0  0  0
    3.0838   19.0066   37.6790 C   0  0  0  0  0  0  0  0  0  0  0  0
    2.7546   14.4674   41.0581 C   0  0  0  0  0  0  0  0  0  0  0  0
    0.3398   18.8657   41.5100 C   0  0  0  0  0  0  0  0  0  0  0  0
    1.1397   15.6476   42.6488 N   0  0  0  0  0  0  0  0  0  0  0  0
    2.6126   17.3993   39.5860 C   0  0  0  0  0  0  0  0  0  0  0  0
   -1.0242   20.7724   41.6557 C   0  0  0  0  0  0  0  0  0  0  0  0
    3.5539   16.6803   39.2822 O   0  0  0  0  0  0  0  0  0  0  0  0
    0.9454   17.6742   41.7470 C   0  0  1  0  0  0  0  0  0  0  0  0
    0.8775   20.7947   40.0629 C   0  0  0  0  0  0  0  0  0  0  0  0
   -0.2685   21.4062   40.6623 C   0  0  0  0  0  0  0  0  0  0  0  0
    4.0857   18.5658   36.7568 O   0  0  0  0  0  0  0  0  0  0  0  0
    1.9342   15.6434   41.5420 C   0  0  0  0  0  0  0  0  0  0  0  0
    0.5995   16.7697   42.7769 N   0  0  0  0  0  0  0  0  0  0  0  0
   -0.7505   19.5162   42.0714 C   0  0  0  0  0  0  0  0  0  0  0  0
    2.6600   20.0874   37.5439 O   0  0  0  0  0  0  0  0  0  0  0  0
    1.4233   18.8092   38.6899 H   0  0  0  0  0  0  0  0  0  0  0  0
    1.8652   18.8478   39.9713 H   0  0  0  0  0  0  0  0  0  0  0  0
    3.1677   13.9278   41.9231 H   0  0  0  0  0  0  0  0  0  0  0  0
    2.1147   13.7893   40.4744 H   0  0  0  0  0  0  0  0  0  0  0  0
    3.5778   14.8302   40.4251 H   0  0  0  0  0  0  0  0  0  0  0  0
   -1.8664   21.3134   42.1117 H   0  0  0  0  0  0  0  0  0  0  0  0
    1.0468   18.7664   41.6644 H   0  0  0  0  0  0  0  0  0  0  0  0
    1.5326   21.3163   39.3497 H   0  0  0  0  0  0  0  0  0  0  0  0
   -0.5669   22.4116   40.3302 H   0  0  0  0  0  0  0  0  0  0  0  0
   -1.3734   19.0234   42.8323 H   0  0  0  0  0  0  0  0  0  0  0  0
  1 15  2  0
  1 11  1  0
  2  8  1  0
  3 12  2  0
  3  6  1  0
  4 18  1  0
  4  2  1  0
  5 15  1  0
  6 17  2  0
  7 16  2  0
  8  1  1  0
 10  8  2  0
 11  6  1  0
 11 16  1  0
 12 13  1  0
 13  9  2  0
 14  4  2  0
 15  7  1  0
 17  9  1  0
  2 19  1  0
  3 20  1  0
  5 21  1  0
  5 22  1  0
  5 23  1  0
  9 24  1  0
 11 25  1  1
 12 26  1  0
 13 27  1  0
 17 28  1  0
M  CHG  1  18  -1
M  END
>  <mol_id>  (20) 
2026-08-24-6tgu-s0-n100-seed1-0021

>  <rmsd_to_ref>  (20) 


$$$$

     RDKit          3D

 48 50  0  0  0  0  0  0  0  0999 V2000
    1.3406   14.6267   41.6727 C   0  0  0  0  0  0  0  0  0  0  0  0
    1.8720   15.9175   42.2551 C   0  0  0  0  0  0  0  0  0  0  0  0
    2.7694   17.6186   38.8990 N   0  0  0  0  0  0  0  0  0  0  0  0
    0.5556   18.0942   42.7123 C   0  0  0  0  0  0  0  0  0  0  0  0
    1.0870   20.8516   41.5021 C   0  0  0  0  0  0  0  0  0  0  0  0
    1.9152   21.1120   38.5999 C   0  0  0  0  0  0  0  0  0  0  0  0
    2.2981   13.5529   41.4245 C   0  0  0  0  0  0  0  0  0  0  0  0
    4.7629   15.7686   37.5964 S   0  0  0  0  0  0  0  0  0  0  0  0
   -0.8146   14.5370   43.6621 N   0  0  0  0  0  0  0  0  0  0  0  0
   -0.1539   15.5695   43.4903 C   0  0  0  0  0  0  0  0  0  0  0  0
    3.7278   18.0202   36.7875 O   0  0  0  0  0  0  0  0  0  0  0  0
    3.5587   17.0826   37.7366 C   0  0  0  0  0  0  0  0  0  0  0  0
    0.7119   16.6340   42.9615 C   0  0  1  0  0  0  0  0  0  0  0  0
    3.2305   19.2909   37.3950 C   0  0  1  0  0  0  0  0  0  0  0  0
    2.0106   19.9518   39.4399 C   0  0  0  0  0  0  0  0  0  0  0  0
    3.4155   20.2747   36.5078 C   0  0  0  0  0  0  0  0  0  0  0  0
    4.9419   15.8344   35.8430 C   0  0  0  0  0  0  0  0  0  0  0  0
    2.8316   19.0440   38.7451 C   0  0  1  0  0  0  0  0  0  0  0  0
    0.0043   18.8531   43.7008 C   0  0  0  0  0  0  0  0  0  0  0  0
    2.9707   22.2061   35.3908 O   0  0  0  0  0  0  0  0  0  0  0  0
    2.0404   21.8086   37.4896 C   0  0  0  0  0  0  0  0  0  0  0  0
   -0.1925   20.2347   43.5768 C   0  0  0  0  0  0  0  0  0  0  0  0
    2.8078   21.5547   36.3857 C   0  0  0  0  0  0  0  0  0  0  0  0
    0.4048   21.0346   42.6807 C   0  0  0  0  0  0  0  0  0  0  0  0
    1.2088   18.4442   41.5154 C   0  0  0  0  0  0  0  0  0  0  0  0
    1.3934   19.7231   40.8251 C   0  0  0  0  0  0  0  0  0  0  0  0
    0.5836   14.2380   42.3698 H   0  0  0  0  0  0  0  0  0  0  0  0
    0.9661   14.9030   40.6760 H   0  0  0  0  0  0  0  0  0  0  0  0
    2.6715   15.6992   42.9785 H   0  0  0  0  0  0  0  0  0  0  0  0
    2.2852   16.5538   41.4586 H   0  0  0  0  0  0  0  0  0  0  0  0
    1.4434   21.7793   41.0307 H   0  0  0  0  0  0  0  0  0  0  0  0
    2.6553   13.1511   42.3842 H   0  0  0  0  0  0  0  0  0  0  0  0
    1.8097   12.7516   40.8505 H   0  0  0  0  0  0  0  0  0  0  0  0
    3.1505   13.9469   40.8518 H   0  0  0  0  0  0  0  0  0  0  0  0
    0.5159   17.3024   43.8130 H   0  0  0  0  0  0  0  0  0  0  0  0
    4.2295   19.4812   37.8144 H   0  0  0  0  0  0  0  0  0  0  0  0
    4.4890   20.5009   36.5875 H   0  0  0  0  0  0  0  0  0  0  0  0
    2.8863   19.7974   35.6699 H   0  0  0  0  0  0  0  0  0  0  0  0
    5.9800   15.5924   35.5711 H   0  0  0  0  0  0  0  0  0  0  0  0
    4.2617   15.1060   35.3774 H   0  0  0  0  0  0  0  0  0  0  0  0
    4.6958   16.8456   35.4869 H   0  0  0  0  0  0  0  0  0  0  0  0
    3.5679   19.4159   39.4729 H   0  0  0  0  0  0  0  0  0  0  0  0
   -0.9879   18.4211   43.8980 H   0  0  0  0  0  0  0  0  0  0  0  0
    0.7836   18.8085   44.4758 H   0  0  0  0  0  0  0  0  0  0  0  0
    1.4404   22.7293   37.4427 H   0  0  0  0  0  0  0  0  0  0  0  0
   -0.8993   20.7051   44.2762 H   0  0  0  0  0  0  0  0  0  0  0  0
    0.3302   22.0967   42.9571 H   0  0  0  0  0  0  0  0  0  0  0  0
    1.6707   17.5909   40.9974 H   0  0  0  0  0  0  0  0  0  0  0  0
  1  2  1  0
  4 13  1  0
  4 19  1  0
  5 24  1  0
  6 15  2  0
  7  1  1  0
 10  9  3  0
 11 14  1  0
 11 12  1  0
 12  8  1  0
 12  3  2  0
 13  2  1  0
 13 10  1  0
 14 16  1  0
 14 18  1  0
 15 26  1  0
 17  8  1  0
 18  3  1  0
 18 15  1  0
 20 23  2  0
 21  6  2  0
 22 19  1  0
 23 16  1  0
 23 21  1  0
 24 22  2  0
 25  4  2  0
 26  5  2  0
 26 25  1  0
  1 27  1  0
  1 28  1  0
  2 29  1  0
  2 30  1  0
  5 31  1  0
  7 32  1  0
  7 33  1  0
  7 34  1  0
 13 35  1  1
 14 36  1  6
 16 37  1  0
 16 38  1  0
 17 39  1  0
 17 40  1  0
 17 41  1  0
 18 42  1  1
 19 43  1  0
 19 44  1  0
 21 45  1  0
 22 46  1  0
 24 47  1  0
 25 48  1  0
M  END
>  <mol_id>  (21) 
2026-08-24-6tgu-s0-n100-seed1-0022

>  <rmsd_to_ref>  (21) 


$$$$

     RDKit          3D

 44 46  0  0  0  0  0  0  0  0999 V2000
    3.4662   17.0743   37.7945 C   0  0  0  0  0  0  0  0  0  0  0  0
    2.8951   15.2758   39.8590 C   0  0  1  0  0  0  0  0  0  0  0  0
    2.9177   18.5841   37.7695 C   0  0  2  0  0  0  0  0  0  0  0  0
    3.3560   14.6778   38.7793 C   0  0  0  0  0  0  0  0  0  0  0  0
   -1.1717   19.6608   43.8739 N   0  0  0  0  0  0  0  0  0  0  0  0
    2.6899   16.7620   39.9318 C   0  0  0  0  0  0  0  0  0  0  0  0
    3.8253   14.9156   37.5822 C   0  0  0  0  0  0  0  0  0  0  0  0
    0.3710   18.2217   42.7657 C   0  0  0  0  0  0  0  0  0  0  0  0
    3.9555   16.1355   36.9387 C   0  0  0  0  0  0  0  0  0  0  0  0
   -0.4662   18.4838   43.8968 C   0  0  2  0  0  0  0  0  0  0  0  0
    4.1333   18.8483   35.6917 O   0  0  0  0  0  0  0  0  0  0  0  0
    3.1769   19.1938   36.3329 C   0  0  0  0  0  0  0  0  0  0  0  0
    2.3642   20.0661   36.0824 O   0  0  0  0  0  0  0  0  0  0  0  0
   -0.2462   20.2331   41.8068 C   0  0  0  0  0  0  0  0  0  0  0  0
    1.3109   17.0472   42.4151 C   0  0  0  0  0  0  0  0  0  0  0  0
    3.0817   19.5119   38.8296 C   0  0  0  0  0  0  0  0  0  0  0  0
    1.4787   18.6998   40.8004 N   0  0  0  0  0  0  0  0  0  0  0  0
    0.5424   19.0717   41.8083 C   0  0  0  0  0  0  0  0  0  0  0  0
    2.4919   14.3850   41.0292 C   0  0  0  0  0  0  0  0  0  0  0  0
    2.1339   17.4490   41.2377 C   0  0  0  0  0  0  0  0  0  0  0  0
   -0.9994   20.4687   42.8619 C   0  0  0  0  0  0  0  0  0  0  0  0
   -0.6582   17.5855   45.1087 C   0  0  0  0  0  0  0  0  0  0  0  0
    3.0132   17.4734   38.5964 C   0  0  0  0  0  0  0  0  0  0  0  0
    2.8490   17.5948   37.0474 H   0  0  0  0  0  0  0  0  0  0  0  0
    4.3138   16.8392   38.4549 H   0  0  0  0  0  0  0  0  0  0  0  0
    3.8986   15.3931   40.2941 H   0  0  0  0  0  0  0  0  0  0  0  0
    2.2861   18.1501   36.9803 H   0  0  0  0  0  0  0  0  0  0  0  0
    3.3405   13.5903   38.9435 H   0  0  0  0  0  0  0  0  0  0  0  0
    4.1591   14.0350   37.0138 H   0  0  0  0  0  0  0  0  0  0  0  0
    5.0137   16.3376   36.7165 H   0  0  0  0  0  0  0  0  0  0  0  0
    3.4102   16.1432   35.9834 H   0  0  0  0  0  0  0  0  0  0  0  0
    0.3697   18.9944   44.3972 H   0  0  0  0  0  0  0  0  0  0  0  0
   -0.2356   20.9247   40.9515 H   0  0  0  0  0  0  0  0  0  0  0  0
    1.3641   16.0829   42.9416 H   0  0  0  0  0  0  0  0  0  0  0  0
    2.8715   19.0145   39.7879 H   0  0  0  0  0  0  0  0  0  0  0  0
    4.1153   19.8884   38.8308 H   0  0  0  0  0  0  0  0  0  0  0  0
    2.3855   20.3524   38.6923 H   0  0  0  0  0  0  0  0  0  0  0  0
    2.5929   14.9468   41.9695 H   0  0  0  0  0  0  0  0  0  0  0  0
    1.4469   14.0653   40.9034 H   0  0  0  0  0  0  0  0  0  0  0  0
    3.1449   13.5004   41.0585 H   0  0  0  0  0  0  0  0  0  0  0  0
   -1.5305   21.4315   42.8935 H   0  0  0  0  0  0  0  0  0  0  0  0
   -0.6274   18.1939   46.0246 H   0  0  0  0  0  0  0  0  0  0  0  0
   -1.6316   17.0779   45.0384 H   0  0  0  0  0  0  0  0  0  0  0  0
    0.1453   16.8350   45.1398 H   0  0  0  0  0  0  0  0  0  0  0  0
  1 23  1  0
  2  6  1  0
  2 19  1  0
  3 23  1  0
  3 16  1  0
  4  2  1  0
  6 20  1  0
  7  4  2  0
  8 10  1  0
  9  7  1  0
  9  1  1  0
 10  5  1  0
 10 22  1  0
 11 12  2  0
 12  3  1  0
 13 12  1  0
 14 21  1  0
 15  8  2  0
 17 20  2  0
 17 18  1  0
 18 14  2  0
 18  8  1  0
 20 15  1  0
 21  5  2  0
 23  6  2  0
  1 24  1  0
  1 25  1  0
  2 26  1  1
  3 27  1  6
  4 28  1  0
  7 29  1  0
  9 30  1  0
  9 31  1  0
 10 32  1  1
 14 33  1  0
 15 34  1  0
 16 35  1  0
 16 36  1  0
 16 37  1  0
 19 38  1  0
 19 39  1  0
 19 40  1  0
 21 41  1  0
 22 42  1  0
 22 43  1  0
 22 44  1  0
M  CHG  1  13  -1
M  END
>  <mol_id>  (22) 
2026-08-24-6tgu-s0-n100-seed1-0023

>  <rmsd_to_ref>  (22) 


$$$$

     RDKit          3D

 55 58  0  0  0  0  0  0  0  0999 V2000
    6.0731   12.2998   36.6997 C   0  0  0  0  0  0  0  0  0  0  0  0
    2.9447   18.5471   40.8999 C   0  0  0  0  0  0  0  0  0  0  0  0
    2.7947   19.5091   39.9149 C   0  0  0  0  0  0  0  0  0  0  0  0
    4.1191   17.0762   39.5869 C   0  0  0  0  0  0  0  0  0  0  0  0
   -0.7327   18.1428   44.4785 C   0  0  0  0  0  0  0  0  0  0  0  0
   -0.5908   15.0955   46.0510 C   0  0  0  0  0  0  0  0  0  0  0  0
    4.6949   20.4555   36.8369 C   0  0  0  0  0  0  0  0  0  0  0  0
   -1.4535   17.0515   47.0363 C   0  0  0  0  0  0  0  0  0  0  0  0
   -0.4199   15.8582   45.3599 N   0  0  0  0  0  0  0  0  0  0  0  0
   -1.5788   19.1171   43.9568 N   0  0  0  0  0  0  0  0  0  0  0  0
    0.6710   18.4519   42.6288 C   0  0  0  0  0  0  0  0  0  0  0  0
    3.6780   20.3272   37.7526 C   0  0  0  0  0  0  0  0  0  0  0  0
    2.6616   21.1452   37.3449 C   0  0  0  0  0  0  0  0  0  0  0  0
    6.2813   13.5865   37.2381 N   0  0  0  0  0  0  0  0  0  0  0  0
   -1.1898   19.7928   42.9351 C   0  0  0  0  0  0  0  0  0  0  0  0
   -2.7023   16.2661   47.5624 C   0  0  0  0  0  0  0  0  0  0  0  0
    0.6379   20.4011   41.1561 C   0  0  0  0  0  0  0  0  0  0  0  0
    3.7153   17.4488   40.8428 C   0  0  0  0  0  0  0  0  0  0  0  0
    4.1914   18.0210   38.6173 C   0  0  0  0  0  0  0  0  0  0  0  0
    0.1146   19.5958   42.1971 C   0  0  0  0  0  0  0  0  0  0  0  0
    5.5378   13.9748   38.3324 C   0  0  0  0  0  0  0  0  0  0  0  0
   -0.9632   17.0860   45.6850 C   0  0  2  0  0  0  0  0  0  0  0  0
    3.0603   21.6590   36.0964 N   0  0  0  0  0  0  0  0  0  0  0  0
    5.1712   15.2664   38.4356 N   0  0  0  0  0  0  0  0  0  0  0  0
    1.7852   20.8224   40.1090 S   0  0  0  0  0  0  0  0  0  0  0  0
    4.4184   15.6548   39.4499 C   0  0  0  0  0  0  0  0  0  0  0  0
    3.9490   14.8552   40.2368 O   0  0  0  0  0  0  0  0  0  0  0  0
   -0.1486   14.8349   44.9375 O   0  0  0  0  0  0  0  0  0  0  0  0
   -0.7134   17.5753   47.7837 O   0  0  0  0  0  0  0  0  0  0  0  0
    0.2987   17.6727   43.6569 C   0  0  0  0  0  0  0  0  0  0  0  0
    4.2809   21.3111   35.8345 N   0  0  0  0  0  0  0  0  0  0  0  0
    5.2747   13.1159   39.1808 O   0  0  0  0  0  0  0  0  0  0  0  0
    3.6413   19.3218   38.8000 C   0  0  0  0  0  0  0  0  0  0  0  0
    5.7535   11.6151   37.4991 H   0  0  0  0  0  0  0  0  0  0  0  0
    5.2938   12.3481   35.9249 H   0  0  0  0  0  0  0  0  0  0  0  0
    7.0098   11.9324   36.2551 H   0  0  0  0  0  0  0  0  0  0  0  0
    2.3722   18.6987   41.8269 H   0  0  0  0  0  0  0  0  0  0  0  0
    0.0548   14.9995   46.9364 H   0  0  0  0  0  0  0  0  0  0  0  0
   -1.4536   14.7606   46.6453 H   0  0  0  0  0  0  0  0  0  0  0  0
    5.6752   19.9597   36.8931 H   0  0  0  0  0  0  0  0  0  0  0  0
    1.5497   18.1072   42.0641 H   0  0  0  0  0  0  0  0  0  0  0  0
    3.8077   20.3289   38.8450 H   0  0  0  0  0  0  0  0  0  0  0  0
    1.7253   21.3582   37.8816 H   0  0  0  0  0  0  0  0  0  0  0  0
    6.9751   14.2239   36.8219 H   0  0  0  0  0  0  0  0  0  0  0  0
   -1.8628   20.5810   42.5666 H   0  0  0  0  0  0  0  0  0  0  0  0
   -2.7882   16.4006   48.6507 H   0  0  0  0  0  0  0  0  0  0  0  0
   -3.6096   16.6495   47.0728 H   0  0  0  0  0  0  0  0  0  0  0  0
   -2.5860   15.1965   47.3331 H   0  0  0  0  0  0  0  0  0  0  0  0
   -0.1781   20.2576   40.4326 H   0  0  0  0  0  0  0  0  0  0  0  0
    1.1700   20.9848   41.9216 H   0  0  0  0  0  0  0  0  0  0  0  0
    4.0031   16.8861   41.7431 H   0  0  0  0  0  0  0  0  0  0  0  0
    4.6871   17.7769   37.6662 H   0  0  0  0  0  0  0  0  0  0  0  0
   -1.9199   16.7816   45.2356 H   0  0  0  0  0  0  0  0  0  0  0  0
    5.4763   15.9489   37.7270 H   0  0  0  0  0  0  0  0  0  0  0  0
    0.7845   16.7040   43.8460 H   0  0  0  0  0  0  0  0  0  0  0  0
  1 14  1  0
  3 25  1  0
  3  2  1  0
  4 18  1  0
  5 22  1  0
  7 12  1  0
  8 29  2  0
  8 16  1  0
  9 22  1  0
  9  6  1  0
 10  5  1  0
 11 30  1  0
 12 33  1  0
 13 12  1  0
 14 21  1  0
 15 10  2  0
 17 20  1  0
 18  2  2  0
 19 33  1  0
 19  4  2  0
 20 11  2  0
 20 15  1  0
 21 24  1  0
 21 32  2  0
 22  8  1  0
 23 13  2  0
 24 26  1  0
 25 17  1  0
 26  4  1  0
 26 27  2  0
 28  9  1  0
 28  6  1  0
 30  5  2  0
 31 23  1  0
 31  7  2  0
 33  3  2  0
  1 34  1  0
  1 35  1  0
  1 36  1  0
  2 37  1  0
  6 38  1  0
  6 39  1  0
  7 40  1  0
 11 41  1  0
 12 42  1  0
 13 43  1  0
 14 44  1  0
 15 45  1  0
 16 46  1  0
 16 47  1  0
 16 48  1  0
 17 49  1  0
 17 50  1  0
 18 51  1  0
 19 52  1  0
 22 53  1  6
 24 54  1  0
 30 55  1  0
M  END
>  <mol_id>  (23) 
2026-08-24-6tgu-s0-n100-seed1-0024

>  <rmsd_to_ref>  (23) 


$$$$

     RDKit          3D

 39 41  0  0  0  0  0  0  0  0999 V2000
    2.4351   20.6250   39.3181 C   0  0  0  0  0  0  0  0  0  0  0  0
    3.2146   16.6822   40.2272 C   0  0  0  0  0  0  0  0  0  0  0  0
    2.8380   18.3164   39.8045 C   0  0  0  0  0  0  0  0  0  0  0  0
    2.8715   15.7052   41.0884 N   0  0  0  0  0  0  0  0  0  0  0  0
    1.3730   18.0965   41.6097 N   0  0  0  0  0  0  0  0  0  0  0  0
    1.9868   18.7968   40.6934 N   0  0  0  0  0  0  0  0  0  0  0  0
   -0.1276   19.8429   42.6457 C   0  0  0  0  0  0  0  0  0  0  0  0
    4.0572   18.9775   37.6885 C   0  0  0  0  0  0  0  0  0  0  0  0
   -0.0761   17.4101   43.3902 C   0  0  0  0  0  0  0  0  0  0  0  0
   -1.0510   17.8158   44.2835 C   0  0  0  0  0  0  0  0  0  0  0  0
    4.3052   17.7142   38.1532 C   0  0  0  0  0  0  0  0  0  0  0  0
   -1.6734   16.5798   45.1500 C   0  0  0  0  0  0  0  0  0  0  0  0
   -1.1042   20.0964   43.5633 N   0  0  0  0  0  0  0  0  0  0  0  0
    3.5392   17.4829   39.3899 C   0  0  1  0  0  0  0  0  0  0  0  0
    3.2258   13.4859   41.2133 O   0  0  0  0  0  0  0  0  0  0  0  0
    0.4553   15.8221   43.5442 Cl  0  0  0  0  0  0  0  0  0  0  0  0
    3.3321   14.5960   40.5829 C   0  0  0  0  0  0  0  0  0  0  0  0
   -1.5744   19.0929   44.3283 C   0  0  0  0  0  0  0  0  0  0  0  0
    4.0187   14.5656   39.2227 C   0  0  0  0  0  0  0  0  0  0  0  0
    0.3432   18.5068   42.4600 C   0  0  0  0  0  0  0  0  0  0  0  0
    3.1662   19.6989   38.5986 C   0  0  0  0  0  0  0  0  0  0  0  0
    1.5241   20.0996   40.5693 C   0  0  0  0  0  0  0  0  0  0  0  0
    2.4657   21.6924   39.0544 H   0  0  0  0  0  0  0  0  0  0  0  0
    2.2490   17.1881   40.3748 H   0  0  0  0  0  0  0  0  0  0  0  0
    4.2575   16.6194   40.5714 H   0  0  0  0  0  0  0  0  0  0  0  0
    2.3497   15.8132   41.9698 H   0  0  0  0  0  0  0  0  0  0  0  0
    1.6870   17.1216   41.7186 H   0  0  0  0  0  0  0  0  0  0  0  0
    0.2965   20.6649   42.0503 H   0  0  0  0  0  0  0  0  0  0  0  0
    4.4708   19.3937   36.7581 H   0  0  0  0  0  0  0  0  0  0  0  0
    4.9745   16.9833   37.6761 H   0  0  0  0  0  0  0  0  0  0  0  0
   -1.8643   16.9140   46.1805 H   0  0  0  0  0  0  0  0  0  0  0  0
   -2.6166   16.2487   44.6912 H   0  0  0  0  0  0  0  0  0  0  0  0
   -0.9583   15.7439   45.1622 H   0  0  0  0  0  0  0  0  0  0  0  0
    2.6550   17.2164   38.7923 H   0  0  0  0  0  0  0  0  0  0  0  0
   -2.4080   19.2986   45.0159 H   0  0  0  0  0  0  0  0  0  0  0  0
    4.8807   15.2489   39.2318 H   0  0  0  0  0  0  0  0  0  0  0  0
    4.3635   13.5432   39.0089 H   0  0  0  0  0  0  0  0  0  0  0  0
    3.3075   14.8828   38.4459 H   0  0  0  0  0  0  0  0  0  0  0  0
    0.7569   20.6311   41.1516 H   0  0  0  0  0  0  0  0  0  0  0  0
  1 22  2  0
  2  4  1  0
  3  6  1  0
  5 20  1  0
  6 22  1  0
  6  5  1  0
  7 13  2  0
  8 11  2  0
  8 21  1  0
  9 10  1  0
 10 18  2  0
 10 12  1  0
 11 14  1  0
 13 18  1  0
 14  2  1  0
 14  3  1  0
 16  9  1  0
 17 15  2  0
 17  4  1  0
 19 17  1  0
 20  7  1  0
 20  9  2  0
 21  3  2  0
 21  1  1  0
  1 23  1  0
  2 24  1  0
  2 25  1  0
  4 26  1  0
  5 27  1  0
  7 28  1  0
  8 29  1  0
 11 30  1  0
 12 31  1  0
 12 32  1  0
 12 33  1  0
 14 34  1  1
 18 35  1  0
 19 36  1  0
 19 37  1  0
 19 38  1  0
 22 39  1  0
M  END
>  <mol_id>  (24) 
2026-08-24-6tgu-s0-n100-seed1-0025

>  <rmsd_to_ref>  (24) 


$$$$

     RDKit          3D

 34 36  0  0  0  0  0  0  0  0999 V2000
    0.1150   17.8208   42.5352 C   0  0  0  0  0  0  0  0  0  0  0  0
    3.7626   18.1212   36.7761 N   0  0  0  0  0  0  0  0  0  0  0  0
    1.5318   17.7744   40.6076 C   0  0  2  0  0  0  0  0  0  0  0  0
    2.3721   19.9171   37.7041 C   0  0  0  0  0  0  0  0  0  0  0  0
    1.4334   20.7796   40.2994 Cl  0  0  0  0  0  0  0  0  0  0  0  0
    0.9841   17.0692   41.8003 C   0  0  1  0  0  0  0  0  0  0  0  0
    1.5330   15.8838   42.1340 N   0  0  0  0  0  0  0  0  0  0  0  0
    2.8599   17.9239   38.9629 C   0  0  0  0  0  0  0  0  0  0  0  0
   -0.7676   19.7957   42.0473 C   0  0  0  0  0  0  0  0  0  0  0  0
    2.5160   17.1229   39.9859 O   0  0  0  0  0  0  0  0  0  0  0  0
   -0.4684   17.7359   43.6852 C   0  0  0  0  0  0  0  0  0  0  0  0
    1.9306   14.8653   42.3712 N   0  0  0  0  0  0  0  0  0  0  0  0
   -1.3092   18.7364   44.1377 C   0  0  0  0  0  0  0  0  0  0  0  0
    1.5011   19.1045   40.1694 C   0  0  1  0  0  0  0  0  0  0  0  0
    2.2290   19.1085   38.9076 C   0  0  0  0  0  0  0  0  0  0  0  0
    3.6083   17.4795   37.9466 C   0  0  0  0  0  0  0  0  0  0  0  0
   -0.0584   18.9479   41.6825 N   0  0  0  0  0  0  0  0  0  0  0  0
   -0.3614   16.7110   44.5708 O   0  0  0  0  0  0  0  0  0  0  0  0
    3.2874   20.0188   35.4890 O   0  0  0  0  0  0  0  0  0  0  0  0
    3.1197   19.3367   36.6581 C   0  0  0  0  0  0  0  0  0  0  0  0
   -1.4189   19.7472   43.3937 C   0  0  0  0  0  0  0  0  0  0  0  0
    0.4346   17.8128   40.5394 H   0  0  0  0  0  0  0  0  0  0  0  0
    1.3639   20.1310   37.3197 H   0  0  0  0  0  0  0  0  0  0  0  0
    2.9338   20.8116   38.0111 H   0  0  0  0  0  0  0  0  0  0  0  0
    0.2294   16.2728   41.8784 H   0  0  0  0  0  0  0  0  0  0  0  0
    2.4396   16.1680   41.7365 H   0  0  0  0  0  0  0  0  0  0  0  0
   -0.9637   20.6531   41.3866 H   0  0  0  0  0  0  0  0  0  0  0  0
    2.0326   14.7656   43.3913 H   0  0  0  0  0  0  0  0  0  0  0  0
    1.2768   14.1511   42.0201 H   0  0  0  0  0  0  0  0  0  0  0  0
   -1.8505   18.6545   45.0917 H   0  0  0  0  0  0  0  0  0  0  0  0
    0.7210   19.0245   40.9408 H   0  0  0  0  0  0  0  0  0  0  0  0
    4.1338   16.5222   38.0785 H   0  0  0  0  0  0  0  0  0  0  0  0
   -0.8534   16.7451   45.4292 H   0  0  0  0  0  0  0  0  0  0  0  0
   -2.0050   20.6110   43.7407 H   0  0  0  0  0  0  0  0  0  0  0  0
  1 11  2  0
  2 20  1  0
  2 16  2  0
  3  6  1  0
  4 15  1  0
  6  7  1  0
  6  1  1  0
  8 15  2  0
  8 10  1  0
  9 21  1  0
 10  3  1  0
 11 18  1  0
 11 13  1  0
 12  7  1  0
 14  3  1  0
 14  5  1  0
 15 14  1  0
 16  8  1  0
 17  9  2  0
 17  1  1  0
 19 20  2  0
 20  4  1  0
 21 13  2  0
  3 22  1  6
  4 23  1  0
  4 24  1  0
  6 25  1  6
  7 26  1  0
  9 27  1  0
 12 28  1  0
 12 29  1  0
 13 30  1  0
 14 31  1  6
 16 32  1  0
 18 33  1  0
 21 34  1  0
M  END
>  <mol_id>  (25) 
2026-08-24-6tgu-s0-n100-seed1-0026

>  <rmsd_to_ref>  (25) 


$$$$

     RDKit          3D

 21 21  0  0  0  0  0  0  0  0999 V2000
    2.1469   20.5061   37.6392 O   0  0  0  0  0  0  0  0  0  0  0  0
    1.8992   19.3006   40.5609 C   0  0  0  0  0  0  0  0  0  0  0  0
    4.0034   18.4910   39.7864 O   0  0  0  0  0  0  0  0  0  0  0  0
    2.9766   19.6412   38.1196 C   0  0  1  0  0  0  0  0  0  0  0  0
    1.0693   18.9014   42.7861 C   0  0  0  0  0  0  0  0  0  0  0  0
    4.0650   19.2068   37.1931 C   0  0  0  0  0  0  0  0  0  0  0  0
   -0.0553   19.6028   42.5266 C   0  0  0  0  0  0  0  0  0  0  0  0
    2.0444   18.6382   41.8077 C   0  0  0  0  0  0  0  0  0  0  0  0
    2.9877   19.0316   39.4701 C   0  0  0  0  0  0  0  0  0  0  0  0
   -0.2132   20.2443   41.3111 C   0  0  0  0  0  0  0  0  0  0  0  0
    0.7975   20.1399   40.3081 C   0  0  0  0  0  0  0  0  0  0  0  0
    1.7405   21.0209   38.3809 H   0  0  0  0  0  0  0  0  0  0  0  0
    2.3379   18.8244   37.7522 H   0  0  0  0  0  0  0  0  0  0  0  0
    1.2291   18.5202   43.8055 H   0  0  0  0  0  0  0  0  0  0  0  0
    5.0072   19.1123   37.7530 H   0  0  0  0  0  0  0  0  0  0  0  0
    3.8030   18.2349   36.7497 H   0  0  0  0  0  0  0  0  0  0  0  0
    4.1864   19.9535   36.3945 H   0  0  0  0  0  0  0  0  0  0  0  0
   -0.8494   19.6642   43.2853 H   0  0  0  0  0  0  0  0  0  0  0  0
    2.8812   17.9505   41.9998 H   0  0  0  0  0  0  0  0  0  0  0  0
   -1.1198   20.8363   41.1168 H   0  0  0  0  0  0  0  0  0  0  0  0
    0.7177   20.6995   39.3644 H   0  0  0  0  0  0  0  0  0  0  0  0
  1  4  1  0
  2 11  1  0
  2  8  2  0
  4  6  1  0
  4  9  1  0
  5  7  2  0
  8  5  1  0
  9  3  2  0
  9  2  1  0
 10  7  1  0
 11 10  2  0
  1 12  1  0
  4 13  1  6
  5 14  1  0
  6 15  1  0
  6 16  1  0
  6 17  1  0
  7 18  1  0
  8 19  1  0
 10 20  1  0
 11 21  1  0
M  END
>  <mol_id>  (26) 
2026-08-24-6tgu-s0-n100-seed1-0027

>  <rmsd_to_ref>  (26) 


$$$$

     RDKit          3D

 38 40  0  0  0  0  0  0  0  0999 V2000
    2.9219   20.8280   35.8289 F   0  0  0  0  0  0  0  0  0  0  0  0
    1.4198   13.9517   42.4558 C   0  0  0  0  0  0  0  0  0  0  0  0
    1.4027   17.1229   41.3099 C   0  0  0  0  0  0  0  0  0  0  0  0
    2.9244   19.9266   37.6985 C   0  0  1  0  0  0  0  0  0  0  0  0
   -0.4179   16.3905   45.0328 C   0  0  0  0  0  0  0  0  0  0  0  0
    4.0312   19.3692   36.1979 F   0  0  0  0  0  0  0  0  0  0  0  0
    1.4690   20.5743   39.4396 C   0  0  0  0  0  0  0  0  0  0  0  0
    1.2404   18.2504   40.5404 C   0  0  2  0  0  0  0  0  0  0  0  0
    0.5905   20.4244   40.4760 C   0  0  0  0  0  0  0  0  0  0  0  0
    0.8780   13.3954   44.5892 C   0  0  0  0  0  0  0  0  0  0  0  0
    2.3823   16.2744   40.5938 C   0  0  0  0  0  0  0  0  0  0  0  0
    0.0937   15.4502   44.1683 C   0  0  0  0  0  0  0  0  0  0  0  0
    4.7559   20.3701   37.0687 F   0  0  0  0  0  0  0  0  0  0  0  0
    2.2316   18.2015   39.3410 C   0  0  0  0  0  0  0  0  0  0  0  0
    1.1749   13.0804   43.1358 C   0  0  0  0  0  0  0  0  0  0  0  0
    0.6311   15.7046   42.8366 C   0  0  0  0  0  0  0  0  0  0  0  0
    2.3828   20.3557   38.5248 C   0  0  0  0  0  0  0  0  0  0  0  0
    2.7715   18.6460   38.0083 O   0  0  0  0  0  0  0  0  0  0  0  0
    1.4667   15.0932   42.2500 N   0  0  0  0  0  0  0  0  0  0  0  0
    0.4830   19.3582   40.9827 C   0  0  0  0  0  0  0  0  0  0  0  0
    3.3673   20.2625   36.4079 C   0  0  0  0  0  0  0  0  0  0  0  0
    0.0663   14.3319   44.7990 C   0  0  0  0  0  0  0  0  0  0  0  0
    0.6675   16.9766   42.2912 N   0  0  0  0  0  0  0  0  0  0  0  0
    2.8689   16.9368   39.5151 N   0  0  0  0  0  0  0  0  0  0  0  0
    1.8026   13.4871   41.5352 H   0  0  0  0  0  0  0  0  0  0  0  0
    3.6582   20.7214   37.4992 H   0  0  0  0  0  0  0  0  0  0  0  0
   -0.4986   17.4413   44.7176 H   0  0  0  0  0  0  0  0  0  0  0  0
   -0.7464   16.0914   46.0391 H   0  0  0  0  0  0  0  0  0  0  0  0
    0.2810   18.5470   40.0916 H   0  0  0  0  0  0  0  0  0  0  0  0
   -0.0056   21.2772   40.8331 H   0  0  0  0  0  0  0  0  0  0  0  0
    1.8283   13.6592   45.0764 H   0  0  0  0  0  0  0  0  0  0  0  0
    0.3973   12.4926   44.9941 H   0  0  0  0  0  0  0  0  0  0  0  0
    3.2115   16.0238   41.2718 H   0  0  0  0  0  0  0  0  0  0  0  0
    1.8841   15.3532   40.2573 H   0  0  0  0  0  0  0  0  0  0  0  0
    1.1531   12.0476   42.7577 H   0  0  0  0  0  0  0  0  0  0  0  0
   -0.2226   19.2282   41.8165 H   0  0  0  0  0  0  0  0  0  0  0  0
   -0.9330   13.9093   44.6177 H   0  0  0  0  0  0  0  0  0  0  0  0
    0.3628   14.6492   45.8096 H   0  0  0  0  0  0  0  0  0  0  0  0
  1 21  1  0
  2 15  2  0
  3 23  2  3
  4 21  1  0
  4 18  1  0
  4 17  1  0
  6 21  1  0
  7  9  1  0
  8 20  1  0
  8  3  1  0
  9 20  2  0
 10 22  1  0
 11  3  1  0
 12 22  1  0
 12  5  2  3
 14 24  2  0
 14  8  1  0
 15 10  1  0
 16 12  1  0
 17  7  3  0
 18 14  1  0
 19  2  1  0
 19 16  2  0
 21 13  1  0
 23 16  1  0
 24 11  1  0
  2 25  1  0
  4 26  1  1
  5 27  1  0
  5 28  1  0
  8 29  1  6
  9 30  1  0
 10 31  1  0
 10 32  1  0
 11 33  1  0
 11 34  1  0
 15 35  1  0
 20 36  1  0
 22 37  1  0
 22 38  1  0
M  END
>  <mol_id>  (27) 
2026-08-24-6tgu-s0-n100-seed1-0028

>  <rmsd_to_ref>  (27) 


$$$$

     RDKit          3D

 31 33  0  0  0  0  0  0  0  0999 V2000
   -1.7052   19.8351   44.7845 N   0  0  0  0  0  0  0  0  0  0  0  0
    0.8654   18.3293   41.9943 C   0  0  0  0  0  0  0  0  0  0  0  0
    2.9353   19.1474   38.0653 C   0  0  0  0  0  0  0  0  0  0  0  0
    0.0109   18.6612   43.0190 C   0  0  1  0  0  0  0  0  0  0  0  0
    1.1316   20.9706   39.1642 C   0  0  0  0  0  0  0  0  0  0  0  0
   -1.5255   20.4528   43.6070 C   0  0  0  0  0  0  0  0  0  0  0  0
   -0.2213   20.3363   41.5558 N   0  0  0  0  0  0  0  0  0  0  0  0
   -1.5905   17.9206   46.2665 N   0  0  0  0  0  0  0  0  0  0  0  0
    2.5394   17.6991   39.8618 O   0  0  0  0  0  0  0  0  0  0  0  0
    3.3688   20.6375   36.3384 O   0  0  0  0  0  0  0  0  0  0  0  0
    0.7148   19.4796   41.0621 C   0  0  0  0  0  0  0  0  0  0  0  0
    2.2595   18.9128   39.2642 C   0  0  0  0  0  0  0  0  0  0  0  0
    1.3757   19.7957   39.8377 C   0  0  0  0  0  0  0  0  0  0  0  0
    3.7286   18.1798   37.4491 C   0  0  0  0  0  0  0  0  0  0  0  0
    2.7272   20.3085   37.4239 C   0  0  0  0  0  0  0  0  0  0  0  0
    1.8246   21.3006   37.9514 C   0  0  0  0  0  0  0  0  0  0  0  0
    4.3473   17.4105   36.9629 N   0  0  0  0  0  0  0  0  0  0  0  0
   -1.1682   18.6228   45.0805 C   0  0  0  0  0  0  0  0  0  0  0  0
   -0.2436   18.0068   44.1623 C   0  0  0  0  0  0  0  0  0  0  0  0
   -0.6302   19.9005   42.7427 C   0  0  0  0  0  0  0  0  0  0  0  0
    1.5008   17.4376   41.8898 H   0  0  0  0  0  0  0  0  0  0  0  0
   -0.7999   18.1083   42.5220 H   0  0  0  0  0  0  0  0  0  0  0  0
    0.3871   21.6741   39.5651 H   0  0  0  0  0  0  0  0  0  0  0  0
   -2.0789   21.3683   43.3504 H   0  0  0  0  0  0  0  0  0  0  0  0
   -1.3636   18.4842   47.0983 H   0  0  0  0  0  0  0  0  0  0  0  0
   -2.6071   17.7606   46.2271 H   0  0  0  0  0  0  0  0  0  0  0  0
   -1.1023   17.0153   46.3216 H   0  0  0  0  0  0  0  0  0  0  0  0
    2.1015   17.4550   40.7155 H   0  0  0  0  0  0  0  0  0  0  0  0
    3.1838   21.5044   35.8976 H   0  0  0  0  0  0  0  0  0  0  0  0
    1.6738   22.2667   37.4476 H   0  0  0  0  0  0  0  0  0  0  0  0
    0.2329   17.0415   44.3890 H   0  0  0  0  0  0  0  0  0  0  0  0
  1 18  1  0
  3 12  1  0
  4  2  1  0
  4 19  1  0
  5 13  1  0
  6  1  2  0
  7 20  2  0
 10 15  1  0
 11  7  1  0
 11  2  2  0
 12  9  1  0
 12 13  2  0
 13 11  1  0
 14  3  1  0
 15  3  2  0
 15 16  1  0
 16  5  2  0
 17 14  3  0
 18  8  1  0
 19 18  2  0
 20  4  1  0
 20  6  1  0
  2 21  1  0
  4 22  1  6
  5 23  1  0
  6 24  1  0
  8 25  1  0
  8 26  1  0
  8 27  1  0
  9 28  1  0
 10 29  1  0
 16 30  1  0
 19 31  1  0
M  CHG  1   8   1
M  END
>  <mol_id>  (28) 
2026-08-24-6tgu-s0-n100-seed1-0029

>  <rmsd_to_ref>  (28) 


$$$$

     RDKit          3D

 58 63  0  0  0  0  0  0  0  0999 V2000
    3.0554   18.5733   38.5581 C   0  0  0  0  0  0  0  0  0  0  0  0
   -0.8611   21.0483   42.8835 N   0  0  0  0  0  0  0  0  0  0  0  0
    2.2336   17.7931   40.3851 C   0  0  2  0  0  0  0  0  0  0  0  0
   -2.4184   16.8836   46.8957 C   0  0  0  0  0  0  0  0  0  0  0  0
    0.7644   18.9049   42.0948 C   0  0  0  0  0  0  0  0  0  0  0  0
    4.2531   16.9966   36.5396 C   0  0  0  0  0  0  0  0  0  0  0  0
   -1.3990   17.6459   46.3729 C   0  0  0  0  0  0  0  0  0  0  0  0
    2.3955   18.9449   39.7077 O   0  0  0  0  0  0  0  0  0  0  0  0
    3.2279   17.1598   38.6487 C   0  0  2  0  0  0  0  0  0  0  0  0
    3.3297   19.6224   37.6728 C   0  0  0  0  0  0  0  0  0  0  0  0
   -1.3569   16.1813   46.2601 C   0  0  0  0  0  0  0  0  0  0  0  0
   -0.8973   19.9662   43.5996 C   0  0  0  0  0  0  0  0  0  0  0  0
    3.2025   14.0147   36.4344 C   0  0  0  0  0  0  0  0  0  0  0  0
    1.4637   17.6276   41.7258 C   0  0  0  0  0  0  0  0  0  0  0  0
    3.7362   19.4932   36.4296 C   0  0  0  0  0  0  0  0  0  0  0  0
    4.2584   12.2796   38.1961 C   0  0  0  0  0  0  0  0  0  0  0  0
    4.5412   20.7020   34.4031 C   0  0  0  0  0  0  0  0  0  0  0  0
    0.0293   21.2056   41.9365 C   0  0  0  0  0  0  0  0  0  0  0  0
    4.3727   13.2188   35.8536 C   0  0  0  0  0  0  0  0  0  0  0  0
    4.3114   13.7988   38.5774 C   0  0  0  0  0  0  0  0  0  0  0  0
    3.7360   20.5810   35.5686 O   0  0  0  0  0  0  0  0  0  0  0  0
    0.8110   20.1437   41.4809 C   0  0  0  0  0  0  0  0  0  0  0  0
    3.6027   14.7192   37.6793 C   0  0  0  0  0  0  0  0  0  0  0  0
    4.7423   12.0793   36.7505 C   0  0  0  0  0  0  0  0  0  0  0  0
    4.1209   18.1886   36.0476 C   0  0  0  0  0  0  0  0  0  0  0  0
   -1.1385   18.3054   45.0785 C   0  0  0  0  0  0  0  0  0  0  0  0
   -1.5266   19.5762   44.7233 N   0  0  0  0  0  0  0  0  0  0  0  0
   -0.4223   17.7973   44.0177 N   0  0  0  0  0  0  0  0  0  0  0  0
    3.8289   16.2709   37.6769 C   0  0  0  0  0  0  0  0  0  0  0  0
    2.6759   16.7058   39.7688 O   0  0  0  0  0  0  0  0  0  0  0  0
   -0.1528   18.8454   43.2169 C   0  0  0  0  0  0  0  0  0  0  0  0
    1.3058   17.5959   39.8280 H   0  0  0  0  0  0  0  0  0  0  0  0
   -2.5358   16.8134   47.9872 H   0  0  0  0  0  0  0  0  0  0  0  0
   -3.5105   16.8864   46.7647 H   0  0  0  0  0  0  0  0  0  0  0  0
    4.8741   16.3689   35.8837 H   0  0  0  0  0  0  0  0  0  0  0  0
   -0.9640   18.5423   46.8390 H   0  0  0  0  0  0  0  0  0  0  0  0
    4.2107   17.3098   39.1193 H   0  0  0  0  0  0  0  0  0  0  0  0
    3.1929   20.6460   38.0514 H   0  0  0  0  0  0  0  0  0  0  0  0
   -1.5144   15.6911   45.2881 H   0  0  0  0  0  0  0  0  0  0  0  0
   -0.6539   15.3814   46.5359 H   0  0  0  0  0  0  0  0  0  0  0  0
    2.3761   13.3251   36.6612 H   0  0  0  0  0  0  0  0  0  0  0  0
    2.8872   14.7643   35.6937 H   0  0  0  0  0  0  0  0  0  0  0  0
    0.7186   16.8255   41.6183 H   0  0  0  0  0  0  0  0  0  0  0  0
    2.1828   17.3749   42.5189 H   0  0  0  0  0  0  0  0  0  0  0  0
    4.9067   11.7106   38.8787 H   0  0  0  0  0  0  0  0  0  0  0  0
    3.2211   11.9236   38.2807 H   0  0  0  0  0  0  0  0  0  0  0  0
    5.5374   21.0753   34.6828 H   0  0  0  0  0  0  0  0  0  0  0  0
    4.6402   19.7176   33.9221 H   0  0  0  0  0  0  0  0  0  0  0  0
    4.0689   21.4065   33.7028 H   0  0  0  0  0  0  0  0  0  0  0  0
    0.1645   22.2011   41.4884 H   0  0  0  0  0  0  0  0  0  0  0  0
    4.0851   12.8229   34.8685 H   0  0  0  0  0  0  0  0  0  0  0  0
    5.2407   13.8882   35.7608 H   0  0  0  0  0  0  0  0  0  0  0  0
    4.8495   14.1557   39.4680 H   0  0  0  0  0  0  0  0  0  0  0  0
    1.4764   20.2941   40.6179 H   0  0  0  0  0  0  0  0  0  0  0  0
    4.2911   11.1582   36.3530 H   0  0  0  0  0  0  0  0  0  0  0  0
    5.8403   12.0178   36.7736 H   0  0  0  0  0  0  0  0  0  0  0  0
    4.3997   18.1822   34.9836 H   0  0  0  0  0  0  0  0  0  0  0  0
   -0.1486   16.8157   43.8676 H   0  0  0  0  0  0  0  0  0  0  0  0
  1  8  1  0
  2 12  1  0
  3 14  1  0
  5 31  1  0
  6 29  2  0
  7  4  1  0
  8  3  1  0
  9 29  1  0
  9  1  1  0
  9 30  1  0
 10  1  2  0
 11  7  1  0
 11  4  1  0
 12 27  1  0
 13 23  1  0
 14  5  1  0
 15 10  1  0
 16 20  1  0
 17 21  1  0
 18  2  2  0
 19 13  1  0
 19 24  1  0
 21 15  1  0
 22  5  2  0
 22 18  1  0
 23 29  1  0
 23 20  2  0
 24 16  1  0
 25  6  1  0
 25 15  2  0
 26  7  1  0
 27 26  2  0
 28 26  1  0
 30  3  1  0
 31 12  2  0
 31 28  1  0
  3 32  1  1
  4 33  1  0
  4 34  1  0
  6 35  1  0
  7 36  1  0
  9 37  1  1
 10 38  1  0
 11 39  1  0
 11 40  1  0
 13 41  1  0
 13 42  1  0
 14 43  1  0
 14 44  1  0
 16 45  1  0
 16 46  1  0
 17 47  1  0
 17 48  1  0
 17 49  1  0
 18 50  1  0
 19 51  1  0
 19 52  1  0
 20 53  1  0
 22 54  1  0
 24 55  1  0
 24 56  1  0
 25 57  1  0
 28 58  1  0
M  END
>  <mol_id>  (29) 
2026-08-24-6tgu-s0-n100-seed1-0030

>  <rmsd_to_ref>  (29) 


$$$$

     RDKit          3D

 63 67  0  0  0  0  0  0  0  0999 V2000
    4.0221   20.8674   34.5596 C   0  0  0  0  0  0  0  0  0  0  0  0
   -0.1795   13.8892   44.3766 C   0  0  0  0  0  0  0  0  0  0  0  0
    0.5688   17.4859   43.3494 C   0  0  0  0  0  0  0  0  0  0  0  0
   -0.0391   18.6079   43.8709 C   0  0  0  0  0  0  0  0  0  0  0  0
    1.4805   17.6237   42.3478 O   0  0  0  0  0  0  0  0  0  0  0  0
    1.6911   14.0622   42.8868 C   0  0  0  0  0  0  0  0  0  0  0  0
    3.9790   19.4429   35.0587 C   0  0  0  0  0  0  0  0  0  0  0  0
   -0.7346   21.9058   42.5586 N   0  0  0  0  0  0  0  0  0  0  0  0
   -0.4026   15.3563   44.3005 C   0  0  0  0  0  0  0  0  0  0  0  0
    0.5073   16.0577   43.5421 C   0  0  0  0  0  0  0  0  0  0  0  0
    3.6305   17.2096   39.0083 C   0  0  0  0  0  0  0  0  0  0  0  0
    3.6387   17.3978   36.7792 C   0  0  0  0  0  0  0  0  0  0  0  0
    3.3072   18.7543   36.9674 C   0  0  0  0  0  0  0  0  0  0  0  0
   -0.5333   20.7576   43.1503 C   0  0  0  0  0  0  0  0  0  0  0  0
    0.8716   13.2891   43.6976 C   0  0  0  0  0  0  0  0  0  0  0  0
    2.5630   20.3379   38.1294 C   0  0  2  0  0  0  0  0  0  0  0  0
    3.2325   19.3849   38.5719 C   0  0  2  0  0  0  0  0  0  0  0  0
    0.9771   21.3094   41.0040 C   0  0  0  0  0  0  0  0  0  0  0  0
    3.4771   19.6149   37.2934 C   0  0  1  0  0  0  0  0  0  0  0  0
    1.5249   15.4159   42.7839 C   0  0  0  0  0  0  0  0  0  0  0  0
    0.3692   19.7131   42.8624 C   0  0  0  0  0  0  0  0  0  0  0  0
    1.1166   20.0997   41.6200 C   0  0  0  0  0  0  0  0  0  0  0  0
    3.7797   16.6964   37.8029 C   0  0  0  0  0  0  0  0  0  0  0  0
    3.2494   19.9755   36.5431 N   0  0  0  0  0  0  0  0  0  0  0  0
    3.0644   20.8560   35.7581 C   0  0  0  0  0  0  0  0  0  0  0  0
    1.0457   11.8860   43.7590 C   0  0  0  0  0  0  0  0  0  0  0  0
   -0.0678   22.1238   41.4972 C   0  0  0  0  0  0  0  0  0  0  0  0
    2.1167   16.3528   42.1106 C   0  0  0  0  0  0  0  0  0  0  0  0
    3.3368   18.4138   39.2670 C   0  0  0  0  0  0  0  0  0  0  0  0
    1.7485   21.8863   39.9772 C   0  0  0  0  0  0  0  0  0  0  0  0
    1.9970   21.4231   38.6845 C   0  0  0  0  0  0  0  0  0  0  0  0
    4.9688   21.4166   34.6702 H   0  0  0  0  0  0  0  0  0  0  0  0
    3.8478   21.2465   33.5419 H   0  0  0  0  0  0  0  0  0  0  0  0
   -0.8582   13.2690   44.9805 H   0  0  0  0  0  0  0  0  0  0  0  0
   -1.1319   18.4870   43.9068 H   0  0  0  0  0  0  0  0  0  0  0  0
    0.2614   18.8272   44.9060 H   0  0  0  0  0  0  0  0  0  0  0  0
    2.4932   13.5746   42.3134 H   0  0  0  0  0  0  0  0  0  0  0  0
    3.3403   18.7775   34.4593 H   0  0  0  0  0  0  0  0  0  0  0  0
    4.8954   18.8348   35.0787 H   0  0  0  0  0  0  0  0  0  0  0  0
   -1.2397   15.8495   44.8162 H   0  0  0  0  0  0  0  0  0  0  0  0
    3.7735   16.5328   39.8635 H   0  0  0  0  0  0  0  0  0  0  0  0
    3.7677   16.9493   35.7831 H   0  0  0  0  0  0  0  0  0  0  0  0
    3.3854   18.4640   36.8737 H   0  0  0  0  0  0  0  0  0  0  0  0
    3.1629   18.0642   37.8117 H   0  0  0  0  0  0  0  0  0  0  0  0
    2.3990   18.7698   36.3471 H   0  0  0  0  0  0  0  0  0  0  0  0
    4.1602   18.4173   36.3600 H   0  0  0  0  0  0  0  0  0  0  0  0
   -1.1785   20.5749   44.0223 H   0  0  0  0  0  0  0  0  0  0  0  0
    1.6448   20.9001   37.9037 H   0  0  0  0  0  0  0  0  0  0  0  0
    3.5979   19.2077   39.5942 H   0  0  0  0  0  0  0  0  0  0  0  0
    1.8135   19.3696   41.1826 H   0  0  0  0  0  0  0  0  0  0  0  0
    4.0331   15.6312   37.6970 H   0  0  0  0  0  0  0  0  0  0  0  0
    3.1700   21.8139   36.2885 H   0  0  0  0  0  0  0  0  0  0  0  0
    2.0577   20.6939   35.3457 H   0  0  0  0  0  0  0  0  0  0  0  0
    1.1336   11.5731   44.8099 H   0  0  0  0  0  0  0  0  0  0  0  0
    0.1788   11.3886   43.2997 H   0  0  0  0  0  0  0  0  0  0  0  0
    1.9599   11.6058   43.2153 H   0  0  0  0  0  0  0  0  0  0  0  0
   -0.3259   23.0205   40.9149 H   0  0  0  0  0  0  0  0  0  0  0  0
    2.9831   16.1990   41.4506 H   0  0  0  0  0  0  0  0  0  0  0  0
    3.1399   18.6053   40.3321 H   0  0  0  0  0  0  0  0  0  0  0  0
    1.2999   22.8794   39.8271 H   0  0  0  0  0  0  0  0  0  0  0  0
    2.7417   21.6807   40.4030 H   0  0  0  0  0  0  0  0  0  0  0  0
    2.5860   22.2440   38.2496 H   0  0  0  0  0  0  0  0  0  0  0  0
    0.9685   21.0653   38.5288 H   0  0  0  0  0  0  0  0  0  0  0  0
  1  7  1  0
  1 25  1  0
  2  9  2  0
  3  4  1  0
  5  3  1  0
  6 20  1  0
  6 15  2  0
  7 24  1  0
  8 14  2  0
 10  3  2  0
 10  9  1  0
 11 29  2  3
 12 23  2  3
 15  2  1  0
 16 17  1  0
 16 31  1  0
 17 29  1  0
 18 22  1  0
 18 27  2  0
 19 13  1  6
 19 16  1  0
 19 17  1  0
 20 10  1  0
 21 14  1  0
 21  4  1  0
 22 21  2  0
 23 11  1  0
 24 19  1  0
 25 24  1  0
 26 15  1  0
 27  8  1  0
 28  5  1  0
 28 20  2  0
 30 18  1  0
 31 30  1  0
  1 32  1  0
  1 33  1  0
  2 34  1  0
  4 35  1  0
  4 36  1  0
  6 37  1  0
  7 38  1  0
  7 39  1  0
  9 40  1  0
 11 41  1  0
 12 42  1  0
 12 43  1  0
 13 44  1  0
 13 45  1  0
 13 46  1  0
 14 47  1  0
 16 48  1  6
 17 49  1  1
 22 50  1  0
 23 51  1  0
 25 52  1  0
 25 53  1  0
 26 54  1  0
 26 55  1  0
 26 56  1  0
 27 57  1  0
 28 58  1  0
 29 59  1  0
 30 60  1  0
 30 61  1  0
 31 62  1  0
 31 63  1  0
M  END
>  <mol_id>  (30) 
2026-08-24-6tgu-s0-n100-seed1-0031

>  <rmsd_to_ref>  (30) 


$$$$

     RDKit          3D

 30 33  0  0  0  0  0  0  0  0999 V2000
    0.8735   18.0635   41.0756 C   0  0  0  0  0  0  0  0  0  0  0  0
    1.9367   17.8741   40.3385 N   0  0  0  0  0  0  0  0  0  0  0  0
    0.9573   17.1200   41.9961 C   0  0  0  0  0  0  0  0  0  0  0  0
    2.3403   20.5911   37.9723 C   0  0  0  0  0  0  0  0  0  0  0  0
    3.5393   18.0620   38.5492 C   0  0  0  0  0  0  0  0  0  0  0  0
    3.6063   16.1670   40.0338 C   0  0  0  0  0  0  0  0  0  0  0  0
    2.5497   16.6385   40.7562 C   0  0  0  0  0  0  0  0  0  0  0  0
   -0.9522   18.8344   42.4742 C   0  0  0  0  0  0  0  0  0  0  0  0
   -0.8243   17.6599   43.3554 C   0  0  0  0  0  0  0  0  0  0  0  0
   -0.1641   18.9030   41.3295 C   0  0  0  0  0  0  0  0  0  0  0  0
    4.0930   16.7643   38.8921 N   0  0  0  0  0  0  0  0  0  0  0  0
    3.4428   20.1475   37.1936 C   0  0  0  0  0  0  0  0  0  0  0  0
    4.1866   19.0022   37.4139 C   0  0  0  0  0  0  0  0  0  0  0  0
    4.1797   14.8854   40.6475 C   0  0  0  0  0  0  0  0  0  0  0  0
    1.7857   19.8897   38.9928 C   0  0  0  0  0  0  0  0  0  0  0  0
    0.2742   16.8516   43.1057 C   0  0  0  0  0  0  0  0  0  0  0  0
    1.9194   16.2255   41.7306 N   0  0  0  0  0  0  0  0  0  0  0  0
   -1.8394   19.7597   42.7607 O   0  0  0  0  0  0  0  0  0  0  0  0
    2.4522   18.4384   39.2957 C   0  0  0  0  0  0  0  0  0  0  0  0
    1.9056   21.5723   37.7307 H   0  0  0  0  0  0  0  0  0  0  0  0
   -1.5483   17.4404   44.1538 H   0  0  0  0  0  0  0  0  0  0  0  0
   -0.3944   19.6817   40.5875 H   0  0  0  0  0  0  0  0  0  0  0  0
    3.7317   20.7728   36.3360 H   0  0  0  0  0  0  0  0  0  0  0  0
    5.1148   18.7613   36.8748 H   0  0  0  0  0  0  0  0  0  0  0  0
    4.0102   14.8916   41.7344 H   0  0  0  0  0  0  0  0  0  0  0  0
    3.6810   14.0112   40.2036 H   0  0  0  0  0  0  0  0  0  0  0  0
    5.2597   14.8333   40.4452 H   0  0  0  0  0  0  0  0  0  0  0  0
    0.9392   20.2784   39.5779 H   0  0  0  0  0  0  0  0  0  0  0  0
    0.5639   16.0364   43.7851 H   0  0  0  0  0  0  0  0  0  0  0  0
   -1.9340   20.5529   42.1757 H   0  0  0  0  0  0  0  0  0  0  0  0
  1 10  2  0
  1  3  1  0
  2  7  1  0
  2  1  1  0
  3 16  2  0
  4 15  1  0
  5 11  1  0
  5 19  1  0
  6 14  1  0
  6  7  1  0
  7 17  2  0
  8 18  1  0
  8  9  2  0
 10  8  1  0
 11  6  2  0
 12 13  1  0
 12  4  2  0
 13  5  2  0
 15 19  2  0
 16  9  1  0
 17  3  1  0
 19  2  1  0
  4 20  1  0
  9 21  1  0
 10 22  1  0
 12 23  1  0
 13 24  1  0
 14 25  1  0
 14 26  1  0
 14 27  1  0
 15 28  1  0
 16 29  1  0
 18 30  1  0
M  END
>  <mol_id>  (31) 
2026-08-24-6tgu-s0-n100-seed1-0032

>  <rmsd_to_ref>  (31) 


$$$$

     RDKit          3D

 20 22  0  0  0  0  0  0  0  0999 V2000
   -0.9204   18.7997   43.6462 N   0  0  0  0  0  0  0  0  0  0  0  0
    2.9660   20.4154   37.3155 C   0  0  0  0  0  0  0  0  0  0  0  0
    1.5917   17.7422   41.3058 C   0  0  0  0  0  0  0  0  0  0  0  0
    0.1973   16.8859   43.2519 N   0  0  0  0  0  0  0  0  0  0  0  0
    2.2488   18.9090   39.2822 N   0  0  0  0  0  0  0  0  0  0  0  0
    1.6612   18.8269   40.4161 C   0  0  0  0  0  0  0  0  0  0  0  0
    3.7493   19.5312   36.7748 O   0  0  0  0  0  0  0  0  0  0  0  0
    1.3556   21.1516   39.5043 S   0  0  0  0  0  0  0  0  0  0  0  0
   -0.0955   18.9857   42.5564 C   0  0  0  0  0  0  0  0  0  0  0  0
    2.2997   20.0058   38.5985 C   0  0  0  0  0  0  0  0  0  0  0  0
   -0.7146   17.5110   44.0357 C   0  0  0  0  0  0  0  0  0  0  0  0
    0.5921   17.8548   42.4063 C   0  0  0  0  0  0  0  0  0  0  0  0
    2.2762   16.7279   41.0996 O   0  0  0  0  0  0  0  0  0  0  0  0
    2.5828   21.4829   36.7491 O   0  0  0  0  0  0  0  0  0  0  0  0
    0.9871   20.0555   40.7011 C   0  0  0  0  0  0  0  0  0  0  0  0
    0.1373   20.1326   41.7721 C   0  0  0  0  0  0  0  0  0  0  0  0
   -0.3531   17.5069   45.0746 H   0  0  0  0  0  0  0  0  0  0  0  0
   -1.6687   16.9710   43.9458 H   0  0  0  0  0  0  0  0  0  0  0  0
    0.5397   20.9042   42.4450 H   0  0  0  0  0  0  0  0  0  0  0  0
   -0.8413   20.3340   41.3118 H   0  0  0  0  0  0  0  0  0  0  0  0
  1 11  1  0
  2 10  1  0
  3 12  1  0
  4 11  1  0
  5  6  1  0
  6 15  2  0
  6  3  1  0
  7  2  1  0
  8 15  1  0
  9  1  2  0
 10  5  2  0
 10  8  1  0
 12  9  1  0
 12  4  2  0
 13  3  2  0
 14  2  2  0
 15 16  1  0
 16  9  1  0
 11 17  1  0
 11 18  1  0
 16 19  1  0
 16 20  1  0
M  CHG  1   7  -1
M  END
>  <mol_id>  (32) 
2026-08-24-6tgu-s0-n100-seed1-0033

>  <rmsd_to_ref>  (32) 


$$$$

     RDKit          3D

 52 54  0  0  0  0  0  0  0  0999 V2000
    2.6934   21.3836   36.6326 O   0  0  0  0  0  0  0  0  0  0  0  0
    1.4603   20.1142   41.0447 C   0  0  0  0  0  0  0  0  0  0  0  0
   -0.3196   17.2963   44.1271 S   0  0  0  0  0  6  0  0  0  0  0  0
    1.0464   16.0582   42.6877 C   0  0  0  0  0  0  0  0  0  0  0  0
    0.5938   21.7019   37.1094 O   0  0  0  0  0  0  0  0  0  0  0  0
    2.9120   16.4557   40.5907 N   0  0  0  0  0  0  0  0  0  0  0  0
    5.0248   16.1203   36.5124 C   0  0  0  0  0  0  0  0  0  0  0  0
    1.5460   20.7172   39.7432 O   0  0  0  0  0  0  0  0  0  0  0  0
    1.1584   11.5462   43.7394 C   0  0  0  0  0  0  0  0  0  0  0  0
   -1.7509   17.6929   43.9646 O   0  0  0  0  0  0  0  0  0  0  0  0
    1.2925   13.9664   43.7237 C   0  0  1  0  0  0  0  0  0  0  0  0
    0.4655   16.0701   43.8134 N   0  0  0  0  0  0  0  0  0  0  0  0
    3.7866   16.7031   38.5144 C   0  0  0  0  0  0  0  0  0  0  0  0
    1.6988   14.7759   42.3828 C   0  0  0  0  0  0  0  0  0  0  0  0
    3.8273   18.1468   36.8454 N   0  0  0  0  0  0  0  0  0  0  0  0
    0.6138   15.0233   44.5940 C   0  0  0  0  0  0  0  0  0  0  0  0
    2.5993   19.1378   38.6133 C   0  0  1  0  0  0  0  0  0  0  0  0
    3.2809   15.3591   40.7179 O   0  0  0  0  0  0  0  0  0  0  0  0
    0.9159   17.1484   42.1027 N   0  0  0  0  0  0  0  0  0  0  0  0
   -0.1688   19.1990   42.6645 C   0  0  0  0  0  0  0  0  0  0  0  0
    4.1978   17.0247   37.3872 C   0  0  0  0  0  0  0  0  0  0  0  0
    0.2233   17.9302   42.8084 C   0  0  0  0  0  0  0  0  0  0  0  0
   -0.0134   17.6069   45.4931 O   0  0  0  0  0  0  0  0  0  0  0  0
    2.9203   18.9251   37.3705 C   0  0  0  0  0  0  0  0  0  0  0  0
    1.8533   20.4245   38.5292 C   0  0  1  0  0  0  0  0  0  0  0  0
    1.6767   21.2046   37.3417 C   0  0  0  0  0  0  0  0  0  0  0  0
    2.5784   18.4628   39.5865 N   0  0  0  0  0  0  0  0  0  0  0  0
    0.1599   19.9911   41.3829 C   0  0  0  0  0  0  0  0  0  0  0  0
    0.5887   12.7152   43.5919 C   0  0  0  0  0  0  0  0  0  0  0  0
    3.1508   17.2490   39.4723 C   0  0  0  0  0  0  0  0  0  0  0  0
    1.9751   20.7492   41.7808 H   0  0  0  0  0  0  0  0  0  0  0  0
    1.9376   19.1233   41.0294 H   0  0  0  0  0  0  0  0  0  0  0  0
    5.6045   15.4301   37.1429 H   0  0  0  0  0  0  0  0  0  0  0  0
    4.3618   15.5436   35.8507 H   0  0  0  0  0  0  0  0  0  0  0  0
    5.7123   16.7267   35.9044 H   0  0  0  0  0  0  0  0  0  0  0  0
    0.5650   10.6270   43.6257 H   0  0  0  0  0  0  0  0  0  0  0  0
    2.2305   11.4830   43.9770 H   0  0  0  0  0  0  0  0  0  0  0  0
    2.1933   13.5379   44.1873 H   0  0  0  0  0  0  0  0  0  0  0  0
    4.7107   16.3720   39.0107 H   0  0  0  0  0  0  0  0  0  0  0  0
    2.8963   16.1903   38.1214 H   0  0  0  0  0  0  0  0  0  0  0  0
    1.2869   14.3077   41.4766 H   0  0  0  0  0  0  0  0  0  0  0  0
    2.7765   14.8302   42.1689 H   0  0  0  0  0  0  0  0  0  0  0  0
   -0.3641   14.6631   44.9459 H   0  0  0  0  0  0  0  0  0  0  0  0
    1.2063   15.2598   45.4901 H   0  0  0  0  0  0  0  0  0  0  0  0
    3.4382   18.7351   39.2000 H   0  0  0  0  0  0  0  0  0  0  0  0
   -0.7346   19.6860   43.4722 H   0  0  0  0  0  0  0  0  0  0  0  0
    3.1761   19.9244   36.9886 H   0  0  0  0  0  0  0  0  0  0  0  0
    2.0452   18.3133   37.1059 H   0  0  0  0  0  0  0  0  0  0  0  0
    2.7785   20.9756   38.7536 H   0  0  0  0  0  0  0  0  0  0  0  0
   -0.2455   21.0058   41.5092 H   0  0  0  0  0  0  0  0  0  0  0  0
   -0.2883   19.4046   40.5673 H   0  0  0  0  0  0  0  0  0  0  0  0
   -0.4850   12.7445   43.3546 H   0  0  0  0  0  0  0  0  0  0  0  0
  1 26  2  0
  2 28  1  0
  3 23  2  0
  4 12  1  0
  5 26  1  0
  6 18  2  0
  7 21  1  0
  8  2  1  0
 10  3  2  0
 11 29  1  0
 11 16  1  0
 12  3  1  0
 12 16  1  0
 13 30  1  0
 14  4  1  0
 14 11  1  0
 15 24  1  0
 15 21  2  0
 17 25  1  0
 17 27  1  0
 19 22  1  0
 19  4  2  0
 20 22  2  3
 21 13  1  0
 22  3  1  0
 24 17  1  0
 25 26  1  0
 25  8  1  0
 27 30  2  0
 28 20  1  0
 29  9  2  3
 30  6  1  0
  2 31  1  0
  2 32  1  0
  7 33  1  0
  7 34  1  0
  7 35  1  0
  9 36  1  0
  9 37  1  0
 11 38  1  1
 13 39  1  0
 13 40  1  0
 14 41  1  0
 14 42  1  0
 16 43  1  0
 16 44  1  0
 17 45  1  1
 20 46  1  0
 24 47  1  0
 24 48  1  0
 25 49  1  6
 28 50  1  0
 28 51  1  0
 29 52  1  0
M  CHG  1   5  -1
M  END
>  <mol_id>  (33) 
2026-08-24-6tgu-s0-n100-seed1-0034

>  <rmsd_to_ref>  (33) 


$$$$

     RDKit          3D

 25 25  0  0  0  0  0  0  0  0999 V2000
   -0.0945   19.5476   42.7866 N   0  0  0  0  0  0  0  0  0  0  0  0
    0.5502   20.4828   42.0435 C   0  0  0  0  0  0  0  0  0  0  0  0
    3.2815   19.3266   37.7436 C   0  0  0  0  0  0  0  0  0  0  0  0
   -0.7059   17.2428   43.2185 C   0  0  0  0  0  0  0  0  0  0  0  0
    1.7606   18.8558   40.7668 C   0  0  0  0  0  0  0  0  0  0  0  0
    3.6762   18.7161   36.7116 O   0  0  0  0  0  0  0  0  0  0  0  0
    2.0027   21.1911   40.3554 N   0  0  0  0  0  0  0  0  0  0  0  0
    1.0095   16.3205   40.9664 C   0  0  0  0  0  0  0  0  0  0  0  0
    3.1408   20.5408   37.7769 O   0  0  0  0  0  0  0  0  0  0  0  0
    3.1174   18.3816   38.9229 C   0  0  0  0  0  0  0  0  0  0  0  0
    2.9309   18.6547   40.1113 O   0  0  0  0  0  0  0  0  0  0  0  0
    1.4220   20.1728   41.0197 C   0  0  0  0  0  0  0  0  0  0  0  0
    0.0426   18.2094   42.3969 C   0  0  0  0  0  0  0  0  0  0  0  0
    0.9359   17.8395   41.3829 C   0  0  0  0  0  0  0  0  0  0  0  0
    0.3680   21.5438   42.2693 H   0  0  0  0  0  0  0  0  0  0  0  0
   -0.6438   17.5357   44.2770 H   0  0  0  0  0  0  0  0  0  0  0  0
   -1.7594   17.2312   42.9025 H   0  0  0  0  0  0  0  0  0  0  0  0
   -0.2733   16.2396   43.0898 H   0  0  0  0  0  0  0  0  0  0  0  0
    1.7318   22.1628   40.5635 H   0  0  0  0  0  0  0  0  0  0  0  0
    2.7176   20.9978   39.6395 H   0  0  0  0  0  0  0  0  0  0  0  0
    1.0238   15.6929   41.8697 H   0  0  0  0  0  0  0  0  0  0  0  0
    0.1310   16.0646   40.3560 H   0  0  0  0  0  0  0  0  0  0  0  0
    1.9253   16.1442   40.3831 H   0  0  0  0  0  0  0  0  0  0  0  0
    2.2615   17.7471   38.6494 H   0  0  0  0  0  0  0  0  0  0  0  0
    4.1613   18.0433   39.0006 H   0  0  0  0  0  0  0  0  0  0  0  0
  2  1  2  0
  3  9  1  0
  3 10  1  0
  5 12  2  0
  5 14  1  0
  6  3  2  0
  7 12  1  0
  8 14  1  0
 10 11  1  0
 11  5  1  0
 12  2  1  0
 13  1  1  0
 13  4  1  0
 14 13  2  0
  2 15  1  0
  4 16  1  0
  4 17  1  0
  4 18  1  0
  7 19  1  0
  7 20  1  0
  8 21  1  0
  8 22  1  0
  8 23  1  0
 10 24  1  0
 10 25  1  0
M  CHG  1   9  -1
M  END
>  <mol_id>  (34) 
2026-08-24-6tgu-s0-n100-seed1-0035

>  <rmsd_to_ref>  (34) 


$$$$

     RDKit          3D

 56 60  0  0  0  0  0  0  0  0999 V2000
    2.3903   15.7232   41.3529 C   0  0  0  0  0  0  0  0  0  0  0  0
   -0.1330   16.6363   46.0880 C   0  0  0  0  0  0  0  0  0  0  0  0
    1.0010   17.4878   42.6160 N   0  0  0  0  0  0  0  0  0  0  0  0
    2.9597   18.7904   39.5271 C   0  0  1  0  0  0  0  0  0  0  0  0
    4.1343   12.9904   36.0120 C   0  0  0  0  0  0  0  0  0  0  0  0
    3.2566   19.6290   36.5803 O   0  0  0  0  0  0  0  0  0  0  0  0
    3.8666   17.3974   36.2556 N   0  0  0  0  0  0  0  0  0  0  0  0
    5.1533   13.8805   35.9674 N   0  0  0  0  0  0  0  0  0  0  0  0
    3.7807   18.1149   38.4770 C   0  0  2  0  0  0  0  0  0  0  0  0
    4.9011   11.9603   33.9729 O   0  0  0  0  0  0  0  0  0  0  0  0
    3.9192   15.9504   36.9255 C   0  0  0  0  0  0  0  0  0  0  0  0
   -0.3119   15.3355   46.0694 C   0  0  0  0  0  0  0  0  0  0  0  0
    4.1754   11.7201   35.2019 C   0  0  0  0  0  0  0  0  0  0  0  0
    0.8977   18.8546   42.5463 C   0  0  0  0  0  0  0  0  0  0  0  0
    0.2900   19.5218   43.6644 C   0  0  1  0  0  0  0  0  0  0  0  0
    0.1243   21.4017   42.5375 C   0  0  0  0  0  0  0  0  0  0  0  0
    2.0638   20.5162   40.5501 C   0  0  0  0  0  0  0  0  0  0  0  0
    2.2402   18.2184   40.7280 C   0  0  0  0  0  0  0  0  0  0  0  0
    1.8745   17.0609   41.5194 C   0  0  0  0  0  0  0  0  0  0  0  0
    1.6111   19.4102   41.3791 C   0  0  0  0  0  0  0  0  0  0  0  0
    3.8343   10.6605   35.5354 O   0  0  0  0  0  0  0  0  0  0  0  0
   -0.2634   14.6302   44.7895 C   0  0  0  0  0  0  0  0  0  0  0  0
    5.0001   15.2329   36.4218 C   0  0  0  0  0  0  0  0  0  0  0  0
    2.8613   14.6662   37.2461 C   0  0  0  0  0  0  0  0  0  0  0  0
    0.1529   15.2856   43.6272 C   0  0  0  0  0  0  0  0  0  0  0  0
    2.9700   20.1096   39.5834 C   0  0  0  0  0  0  0  0  0  0  0  0
    0.4166   16.6656   43.6774 C   0  0  0  0  0  0  0  0  0  0  0  0
    2.9726   13.4902   36.7871 C   0  0  0  0  0  0  0  0  0  0  0  0
   -0.8740   12.9960   44.7677 Cl  0  0  0  0  0  0  0  0  0  0  0  0
    0.4360   20.7816   43.6691 O   0  0  0  0  0  0  0  0  0  0  0  0
   -0.6502   21.6905   41.9184 O   0  0  0  0  0  0  0  0  0  0  0  0
    3.6458   18.4806   36.9168 C   0  0  0  0  0  0  0  0  0  0  0  0
    3.3284   16.8796   38.4700 O   0  0  0  0  0  0  0  0  0  0  0  0
   -0.0279   17.4070   44.8641 C   0  0  0  0  0  0  0  0  0  0  0  0
   -0.4267   18.8687   44.8397 C   0  0  0  0  0  0  0  0  0  0  0  0
    2.6533   15.3066   42.3364 H   0  0  0  0  0  0  0  0  0  0  0  0
    1.6244   15.0912   40.8798 H   0  0  0  0  0  0  0  0  0  0  0  0
    3.2864   15.7525   40.7155 H   0  0  0  0  0  0  0  0  0  0  0  0
   -0.0611   17.1542   47.0559 H   0  0  0  0  0  0  0  0  0  0  0  0
    2.5711   17.9846   38.8871 H   0  0  0  0  0  0  0  0  0  0  0  0
    4.0174   17.4694   35.2393 H   0  0  0  0  0  0  0  0  0  0  0  0
    4.8071   18.3875   38.7635 H   0  0  0  0  0  0  0  0  0  0  0  0
   -0.4956   14.7842   47.0034 H   0  0  0  0  0  0  0  0  0  0  0  0
    1.2225   19.4115   44.2371 H   0  0  0  0  0  0  0  0  0  0  0  0
    1.0629   21.7434   42.0767 H   0  0  0  0  0  0  0  0  0  0  0  0
    1.1920   20.9653   40.0518 H   0  0  0  0  0  0  0  0  0  0  0  0
    2.5700   21.2424   41.2031 H   0  0  0  0  0  0  0  0  0  0  0  0
    5.9261   15.8232   36.3593 H   0  0  0  0  0  0  0  0  0  0  0  0
    2.0067   14.8704   37.9078 H   0  0  0  0  0  0  0  0  0  0  0  0
    0.2727   14.7291   42.6859 H   0  0  0  0  0  0  0  0  0  0  0  0
    3.9779   20.4618   39.8483 H   0  0  0  0  0  0  0  0  0  0  0  0
    2.6919   20.5305   38.6058 H   0  0  0  0  0  0  0  0  0  0  0  0
    2.1471   12.7886   36.9775 H   0  0  0  0  0  0  0  0  0  0  0  0
    3.2498   16.5517   39.4008 H   0  0  0  0  0  0  0  0  0  0  0  0
   -0.1265   19.3552   45.7795 H   0  0  0  0  0  0  0  0  0  0  0  0
   -1.5168   18.9701   44.7324 H   0  0  0  0  0  0  0  0  0  0  0  0
  1 19  1  0
  3 14  1  0
  3 27  1  0
  4  9  1  0
  4 26  1  0
  4 18  1  0
  5  8  1  0
  5 28  2  0
  6 32  2  0
  7 11  1  0
  7 32  1  0
  8 23  2  0
  9 33  1  0
 10 13  2  0
 11 24  2  0
 12  2  2  0
 13 21  1  0
 13  5  1  0
 14 15  1  0
 15 30  1  0
 15 35  1  0
 16 30  1  0
 17 20  1  0
 18 19  2  0
 18 20  1  0
 19  3  1  0
 20 14  2  0
 22 12  1  0
 23 11  1  0
 25 27  1  0
 25 22  2  0
 26 17  1  0
 27 34  2  0
 28 24  1  0
 29 22  1  0
 31 16  2  0
 32  9  1  0
 34 35  1  0
 34  2  1  0
  1 36  1  0
  1 37  1  0
  1 38  1  0
  2 39  1  0
  4 40  1  6
  7 41  1  0
  9 42  1  1
 12 43  1  0
 15 44  1  6
 16 45  1  0
 17 46  1  0
 17 47  1  0
 23 48  1  0
 24 49  1  0
 25 50  1  0
 26 51  1  0
 26 52  1  0
 28 53  1  0
 33 54  1  0
 35 55  1  0
 35 56  1  0
M  CHG  1  21  -1
M  END
>  <mol_id>  (35) 
2026-08-24-6tgu-s0-n100-seed1-0036

>  <rmsd_to_ref>  (35) 


$$$$

     RDKit          3D

 41 42  0  0  0  0  0  0  0  0999 V2000
    0.1177   14.4927   44.6941 C   0  0  0  0  0  0  0  0  0  0  0  0
    1.4985   12.5929   43.0250 C   0  0  0  0  0  0  0  0  0  0  0  0
    2.4946   20.7792   39.3625 C   0  0  0  0  0  0  0  0  0  0  0  0
    2.5276   19.2175   41.3778 C   0  0  2  0  0  0  0  0  0  0  0  0
    3.8760   20.7831   37.4591 C   0  0  0  0  0  0  0  0  0  0  0  0
    0.7336   14.9525   43.4911 C   0  0  0  0  0  0  0  0  0  0  0  0
    2.6360   16.8447   41.2264 O   0  0  0  0  0  0  0  0  0  0  0  0
    1.4247   13.9710   42.6041 C   0  0  0  0  0  0  0  0  0  0  0  0
    2.9796   19.5608   39.9398 C   0  0  0  0  0  0  0  0  0  0  0  0
    0.5670   16.4884   43.1569 C   0  0  0  0  0  0  0  0  0  0  0  0
    3.9246   18.8743   39.0480 C   0  0  0  0  0  0  0  0  0  0  0  0
    4.2977   17.4585   39.1272 C   0  0  0  0  0  0  0  0  0  0  0  0
   -0.3102   17.0598   44.3018 C   0  0  0  0  0  0  0  0  0  0  0  0
    2.8745   21.3683   38.1741 C   0  0  0  0  0  0  0  0  0  0  0  0
    0.9349   12.1570   44.2580 C   0  0  0  0  0  0  0  0  0  0  0  0
    2.0701   17.8417   41.6144 C   0  0  0  0  0  0  0  0  0  0  0  0
    3.0942   22.1319   36.0834 O   0  0  0  0  0  0  0  0  0  0  0  0
    1.0774   17.7167   42.4182 N   0  0  0  0  0  0  0  0  0  0  0  0
    4.2893   21.5897   36.3863 O   0  0  0  0  0  0  0  0  0  0  0  0
    4.3007   19.5277   37.8373 C   0  0  0  0  0  0  0  0  0  0  0  0
    0.2816   13.0958   45.1077 C   0  0  0  0  0  0  0  0  0  0  0  0
    1.4974   20.2940   41.8283 C   0  0  0  0  0  0  0  0  0  0  0  0
   -0.4778   15.1840   45.3084 H   0  0  0  0  0  0  0  0  0  0  0  0
    2.0026   11.8606   42.3772 H   0  0  0  0  0  0  0  0  0  0  0  0
    1.7233   21.3112   39.9386 H   0  0  0  0  0  0  0  0  0  0  0  0
    3.4265   19.2478   42.0111 H   0  0  0  0  0  0  0  0  0  0  0  0
    1.8682   14.2914   41.6499 H   0  0  0  0  0  0  0  0  0  0  0  0
    4.2609   17.1278   40.1757 H   0  0  0  0  0  0  0  0  0  0  0  0
    3.5947   16.8601   38.5291 H   0  0  0  0  0  0  0  0  0  0  0  0
    5.3172   17.3256   38.7363 H   0  0  0  0  0  0  0  0  0  0  0  0
    0.0168   16.6338   45.2618 H   0  0  0  0  0  0  0  0  0  0  0  0
   -0.2063   18.1545   44.3320 H   0  0  0  0  0  0  0  0  0  0  0  0
   -1.3632   16.7962   44.1234 H   0  0  0  0  0  0  0  0  0  0  0  0
    2.3829   22.2841   37.8142 H   0  0  0  0  0  0  0  0  0  0  0  0
    1.0037   11.0996   44.5534 H   0  0  0  0  0  0  0  0  0  0  0  0
    2.5714   22.2632   36.9137 H   0  0  0  0  0  0  0  0  0  0  0  0
    4.9781   18.9912   37.1567 H   0  0  0  0  0  0  0  0  0  0  0  0
   -0.1040   12.7688   46.0847 H   0  0  0  0  0  0  0  0  0  0  0  0
    1.3670   20.2426   42.9193 H   0  0  0  0  0  0  0  0  0  0  0  0
    1.8649   21.2926   41.5495 H   0  0  0  0  0  0  0  0  0  0  0  0
    0.5324   20.1073   41.3345 H   0  0  0  0  0  0  0  0  0  0  0  0
  1 21  2  0
  2 15  2  0
  3  9  1  0
  4 16  1  0
  4 22  1  0
  5 20  2  0
  5 14  1  0
  6  1  1  0
  7 16  2  0
  8  2  1  0
  8  6  2  0
  9  4  1  0
 10  6  1  0
 10 13  1  0
 11 12  1  0
 11  9  2  0
 14  3  2  0
 15 21  1  0
 16 18  1  0
 17 19  1  0
 18 10  2  3
 19  5  1  0
 20 11  1  0
  1 23  1  0
  2 24  1  0
  3 25  1  0
  4 26  1  1
  8 27  1  0
 12 28  1  0
 12 29  1  0
 12 30  1  0
 13 31  1  0
 13 32  1  0
 13 33  1  0
 14 34  1  0
 15 35  1  0
 17 36  1  0
 20 37  1  0
 21 38  1  0
 22 39  1  0
 22 40  1  0
 22 41  1  0
M  END
>  <mol_id>  (36) 
2026-08-24-6tgu-s0-n100-seed1-0037

>  <rmsd_to_ref>  (36) 


$$$$

     RDKit          3D

 50 53  0  0  0  0  0  0  0  0999 V2000
   -0.5128   17.2052   43.7038 C   0  0  0  0  0  0  0  0  0  0  0  0
    2.0592   20.8241   38.6871 C   0  0  0  0  0  0  0  0  0  0  0  0
    2.9905   18.2967   38.6902 N   0  0  0  0  0  0  0  0  0  0  0  0
   -0.8207   16.0160   44.2402 C   0  0  0  0  0  0  0  0  0  0  0  0
    1.3055   16.2197   40.5327 N   0  0  0  0  0  0  0  0  0  0  0  0
    3.5449   16.7088   36.5354 C   0  0  0  0  0  0  0  0  0  0  0  0
    3.3587   15.4819   37.6224 C   0  0  0  0  0  0  0  0  0  0  0  0
    2.4458   15.2719   38.4474 C   0  0  0  0  0  0  0  0  0  0  0  0
   -0.9135   20.3424   42.6221 C   0  0  0  0  0  0  0  0  0  0  0  0
    1.7789   13.0861   40.7668 C   0  0  0  0  0  0  0  0  0  0  0  0
    0.3360   17.3517   42.5794 C   0  0  0  0  0  0  0  0  0  0  0  0
    3.0528   18.9695   37.5661 C   0  0  0  0  0  0  0  0  0  0  0  0
    3.5185   21.8723   35.5349 N   0  0  0  0  0  0  0  0  0  0  0  0
   -0.2688   14.8158   43.6376 C   0  0  0  0  0  0  0  0  0  0  0  0
    1.3072   21.5389   41.4339 O   0  0  0  0  0  0  0  0  0  0  0  0
    0.8544   18.6033   42.3012 N   0  0  0  0  0  0  0  0  0  0  0  0
    0.7589   16.2032   41.8132 C   0  0  0  0  0  0  0  0  0  0  0  0
    1.9124   15.1890   39.7797 C   0  0  0  0  0  0  0  0  0  0  0  0
    1.1317   13.7304   41.7432 C   0  0  0  0  0  0  0  0  0  0  0  0
    2.2399   13.9144   39.7121 N   0  0  0  0  0  0  0  0  0  0  0  0
    2.6590   20.3871   37.5268 C   0  0  0  0  0  0  0  0  0  0  0  0
    0.5662   14.8813   42.3809 C   0  0  0  0  0  0  0  0  0  0  0  0
    1.1007   20.5298   41.0844 C   0  0  0  0  0  0  0  0  0  0  0  0
    3.4640   18.3256   36.5477 O   0  0  0  0  0  0  0  0  0  0  0  0
    3.0937   21.1438   36.3781 C   0  0  0  0  0  0  0  0  0  0  0  0
    2.4730   18.8774   39.7999 N   0  0  0  0  0  0  0  0  0  0  0  0
    0.2664   19.7548   42.0670 C   0  0  1  0  0  0  0  0  0  0  0  0
   -1.5314   15.9370   45.4529 N   0  0  0  0  0  0  0  0  0  0  0  0
    1.9408   20.0765   39.8581 C   0  0  0  0  0  0  0  0  0  0  0  0
   -0.9399   18.1110   44.1589 H   0  0  0  0  0  0  0  0  0  0  0  0
    1.6414   21.8416   38.6903 H   0  0  0  0  0  0  0  0  0  0  0  0
    4.5613   16.5298   36.1547 H   0  0  0  0  0  0  0  0  0  0  0  0
    2.5374   16.5866   36.1111 H   0  0  0  0  0  0  0  0  0  0  0  0
    3.3771   14.5716   37.0052 H   0  0  0  0  0  0  0  0  0  0  0  0
    4.1291   15.8047   38.3381 H   0  0  0  0  0  0  0  0  0  0  0  0
    1.7140   15.9854   38.0408 H   0  0  0  0  0  0  0  0  0  0  0  0
    2.8527   14.2594   38.5859 H   0  0  0  0  0  0  0  0  0  0  0  0
   -0.9416   20.1549   43.7056 H   0  0  0  0  0  0  0  0  0  0  0  0
   -0.9047   21.4268   42.4377 H   0  0  0  0  0  0  0  0  0  0  0  0
   -1.8018   19.8973   42.1499 H   0  0  0  0  0  0  0  0  0  0  0  0
    2.6492   12.5793   41.2094 H   0  0  0  0  0  0  0  0  0  0  0  0
    1.0530   12.3908   40.3201 H   0  0  0  0  0  0  0  0  0  0  0  0
   -0.4626   13.8394   44.1057 H   0  0  0  0  0  0  0  0  0  0  0  0
    1.8834   18.6391   42.2723 H   0  0  0  0  0  0  0  0  0  0  0  0
    0.2218   13.1123   41.7388 H   0  0  0  0  0  0  0  0  0  0  0  0
    2.1119   14.0495   42.1271 H   0  0  0  0  0  0  0  0  0  0  0  0
    2.8012   13.5395   38.9342 H   0  0  0  0  0  0  0  0  0  0  0  0
    0.8611   20.1658   42.8961 H   0  0  0  0  0  0  0  0  0  0  0  0
   -1.7624   15.0175   45.8555 H   0  0  0  0  0  0  0  0  0  0  0  0
   -1.8204   16.7987   45.9376 H   0  0  0  0  0  0  0  0  0  0  0  0
  1  4  2  0
  2 29  2  0
  3 26  2  0
  4 28  1  0
  5 17  1  0
  6  7  1  0
  7  8  1  0
  8 18  1  0
 10 19  1  0
 11  1  1  0
 12  3  1  0
 13 25  3  0
 14  4  1  0
 16 11  1  0
 17 11  2  0
 17 22  1  0
 18 20  1  0
 18  5  2  0
 19 22  1  0
 20 10  1  0
 21 12  2  0
 21  2  1  0
 22 14  2  0
 23 15  2  0
 23 27  1  0
 24  6  1  0
 24 12  1  0
 25 21  1  0
 27  9  1  0
 27 16  1  0
 29 26  1  0
 29 23  1  0
  1 30  1  0
  2 31  1  0
  6 32  1  0
  6 33  1  0
  7 34  1  0
  7 35  1  0
  8 36  1  0
  8 37  1  0
  9 38  1  0
  9 39  1  0
  9 40  1  0
 10 41  1  0
 10 42  1  0
 14 43  1  0
 16 44  1  0
 19 45  1  0
 19 46  1  0
 20 47  1  0
 27 48  1  6
 28 49  1  0
 28 50  1  0
M  END
>  <mol_id>  (37) 
2026-08-24-6tgu-s0-n100-seed1-0039

>  <rmsd_to_ref>  (37) 


$$$$

     RDKit          3D

 43 46  0  0  0  0  0  0  0  0999 V2000
   -0.6738   16.8778   44.1362 C   0  0  0  0  0  0  0  0  0  0  0  0
    0.4155   14.6942   44.0576 C   0  0  0  0  0  0  0  0  0  0  0  0
   -0.9153   18.0545   43.6486 C   0  0  0  0  0  0  0  0  0  0  0  0
    6.0762   16.5616   36.3639 N   0  0  0  0  0  0  0  0  0  0  0  0
    1.9509   14.2400   42.3209 C   0  0  0  0  0  0  0  0  0  0  0  0
    4.6137   16.0490   37.8407 C   0  0  0  0  0  0  0  0  0  0  0  0
    4.5519   17.3536   37.5470 C   0  0  0  0  0  0  0  0  0  0  0  0
    2.7681   20.6064   38.1901 C   0  0  0  0  0  0  0  0  0  0  0  0
    3.7285   19.6528   37.5991 C   0  0  0  0  0  0  0  0  0  0  0  0
    3.1423   18.0137   39.4640 C   0  0  0  0  0  0  0  0  0  0  0  0
   -0.1442   14.5195   45.2448 N   0  0  0  0  0  0  0  0  0  0  0  0
    0.9761   16.4304   42.5400 C   0  0  0  0  0  0  0  0  0  0  0  0
    3.8079   15.2640   38.7220 N   0  0  0  0  0  0  0  0  0  0  0  0
    1.8316   19.9631   40.2156 C   0  0  0  0  0  0  0  0  0  0  0  0
    1.1980   13.8315   43.3851 C   0  0  0  0  0  0  0  0  0  0  0  0
    3.8112   18.3493   38.1981 C   0  0  0  0  0  0  0  0  0  0  0  0
   -0.1071   18.4519   42.7182 C   0  0  0  0  0  0  0  0  0  0  0  0
    2.3085   18.7021   40.4226 C   0  0  0  0  0  0  0  0  0  0  0  0
    1.9659   18.2404   41.4149 N   0  0  0  0  0  0  0  0  0  0  0  0
    5.4931   17.6749   36.5795 O   0  0  0  0  0  0  0  0  0  0  0  0
    0.8894   17.6826   42.1153 C   0  0  0  0  0  0  0  0  0  0  0  0
    5.6389   15.6205   37.1496 N   0  0  0  0  0  0  0  0  0  0  0  0
    0.2098   16.0097   43.6008 C   0  0  0  0  0  0  0  0  0  0  0  0
    1.8650   15.5254   41.8759 C   0  0  0  0  0  0  0  0  0  0  0  0
    2.3886   21.5605   37.3078 F   0  0  0  0  0  0  0  0  0  0  0  0
    4.2755   20.0073   36.4057 O   0  0  0  0  0  0  0  0  0  0  0  0
    2.0119   20.4911   39.2115 C   0  0  0  0  0  0  0  0  0  0  0  0
   -1.2210   16.5690   45.0391 H   0  0  0  0  0  0  0  0  0  0  0  0
   -1.7520   18.6749   44.0022 H   0  0  0  0  0  0  0  0  0  0  0  0
    2.6277   13.5304   41.8224 H   0  0  0  0  0  0  0  0  0  0  0  0
    3.3234   16.9689   39.7568 H   0  0  0  0  0  0  0  0  0  0  0  0
   -0.7267   15.2639   45.6541 H   0  0  0  0  0  0  0  0  0  0  0  0
    0.0028   13.6392   45.7589 H   0  0  0  0  0  0  0  0  0  0  0  0
    3.9955   14.2572   38.8318 H   0  0  0  0  0  0  0  0  0  0  0  0
    3.0395   15.7050   39.2474 H   0  0  0  0  0  0  0  0  0  0  0  0
    1.2730   20.4759   41.0124 H   0  0  0  0  0  0  0  0  0  0  0  0
    1.2323   12.7774   43.6977 H   0  0  0  0  0  0  0  0  0  0  0  0
   -0.2157   19.4901   42.3714 H   0  0  0  0  0  0  0  0  0  0  0  0
    2.7793   18.2331   42.0467 H   0  0  0  0  0  0  0  0  0  0  0  0
    2.4688   15.8620   41.0203 H   0  0  0  0  0  0  0  0  0  0  0  0
    4.9260   19.4074   35.9617 H   0  0  0  0  0  0  0  0  0  0  0  0
    2.0019   21.5375   39.5507 H   0  0  0  0  0  0  0  0  0  0  0  0
    1.4370   19.7071   38.6967 H   0  0  0  0  0  0  0  0  0  0  0  0
  2 11  1  0
  3  1  1  0
  4 20  1  0
  4 22  2  0
  5 15  1  0
  6 13  1  0
  7  6  2  0
  7 16  1  0
  8 27  1  0
  9  8  2  0
  9 16  1  0
 10 18  1  0
 12 23  1  0
 14 18  2  0
 15  2  2  0
 16 10  2  0
 17  3  2  0
 18 19  1  0
 19 21  1  0
 20  7  1  0
 21 17  1  0
 21 12  2  0
 22  6  1  0
 23  1  2  0
 23  2  1  0
 24 12  1  0
 24  5  2  0
 25  8  1  0
 26  9  1  0
 27 14  1  0
  1 28  1  0
  3 29  1  0
  5 30  1  0
 10 31  1  0
 11 32  1  0
 11 33  1  0
 13 34  1  0
 13 35  1  0
 14 36  1  0
 15 37  1  0
 17 38  1  0
 19 39  1  0
 24 40  1  0
 26 41  1  0
 27 42  1  0
 27 43  1  0
M  END
>  <mol_id>  (38) 
2026-08-24-6tgu-s0-n100-seed1-0040

>  <rmsd_to_ref>  (38) 


$$$$

     RDKit          3D

 41 43  0  0  0  0  0  0  0  0999 V2000
    5.3229   15.5816   38.1528 C   0  0  0  0  0  0  0  0  0  0  0  0
   -0.5454   16.4692   44.4157 C   0  0  0  0  0  0  0  0  0  0  0  0
   -0.0563   17.0784   43.2734 C   0  0  0  0  0  0  0  0  0  0  0  0
   -0.2926   14.7490   44.5173 Cl  0  0  0  0  0  0  0  0  0  0  0  0
    3.2441   16.6167   39.0168 C   0  0  0  0  0  0  0  0  0  0  0  0
   -1.4549   16.6479   46.8291 C   0  0  0  0  0  0  0  0  0  0  0  0
    3.4980   14.1583   38.8984 C   0  0  0  0  0  0  0  0  0  0  0  0
    2.7008   15.2893   39.2034 C   0  0  0  0  0  0  0  0  0  0  0  0
    4.3373   19.4734   37.4595 O   0  0  0  0  0  0  0  0  0  0  0  0
    2.3390   19.3676   38.7264 C   0  0  0  0  0  0  0  0  0  0  0  0
   -1.6440   18.5562   45.1411 C   0  0  0  0  0  0  0  0  0  0  0  0
    3.1127   19.7363   37.4621 C   0  0  0  0  0  0  0  0  0  0  0  0
    0.9950   19.0444   41.0707 C   0  0  0  0  0  0  0  0  0  0  0  0
    1.5730   20.3738   39.1674 C   0  0  0  0  0  0  0  0  0  0  0  0
    1.8250   18.0258   40.7291 C   0  0  0  0  0  0  0  0  0  0  0  0
    0.8864   20.2551   40.3281 C   0  0  0  0  0  0  0  0  0  0  0  0
    2.4807   18.0256   39.3706 C   0  0  0  0  0  0  0  0  0  0  0  0
    5.6151   13.0884   37.9917 C   0  0  0  0  0  0  0  0  0  0  0  0
    4.7939   14.3278   38.3715 C   0  0  0  0  0  0  0  0  0  0  0  0
   -0.3624   18.4300   43.0360 C   0  0  0  0  0  0  0  0  0  0  0  0
    2.0197   16.9374   41.4867 F   0  0  0  0  0  0  0  0  0  0  0  0
    0.1444   18.9859   42.0416 O   0  0  0  0  0  0  0  0  0  0  0  0
   -1.1660   17.2099   45.4467 C   0  0  0  0  0  0  0  0  0  0  0  0
    2.5401   20.4435   36.5880 O   0  0  0  0  0  0  0  0  0  0  0  0
   -1.1825   19.1424   43.9514 C   0  0  0  0  0  0  0  0  0  0  0  0
    4.5733   16.7878   38.4598 C   0  0  0  0  0  0  0  0  0  0  0  0
    6.3368   15.6713   37.7358 H   0  0  0  0  0  0  0  0  0  0  0  0
    0.5630   16.5132   42.5613 H   0  0  0  0  0  0  0  0  0  0  0  0
   -1.4321   17.4625   47.5681 H   0  0  0  0  0  0  0  0  0  0  0  0
   -2.4490   16.1770   46.8332 H   0  0  0  0  0  0  0  0  0  0  0  0
   -0.6927   15.8978   47.0866 H   0  0  0  0  0  0  0  0  0  0  0  0
    3.1046   13.1461   39.0733 H   0  0  0  0  0  0  0  0  0  0  0  0
    1.6754   15.1586   39.5796 H   0  0  0  0  0  0  0  0  0  0  0  0
   -2.3346   19.0870   45.8129 H   0  0  0  0  0  0  0  0  0  0  0  0
    1.5014   21.3027   38.5827 H   0  0  0  0  0  0  0  0  0  0  0  0
    0.2555   21.0796   40.6915 H   0  0  0  0  0  0  0  0  0  0  0  0
    5.9490   12.5755   38.9058 H   0  0  0  0  0  0  0  0  0  0  0  0
    4.9932   12.4053   37.3944 H   0  0  0  0  0  0  0  0  0  0  0  0
    6.4917   13.3958   37.4026 H   0  0  0  0  0  0  0  0  0  0  0  0
   -1.4636   20.1809   43.7221 H   0  0  0  0  0  0  0  0  0  0  0  0
    4.9950   17.7874   38.2779 H   0  0  0  0  0  0  0  0  0  0  0  0
  1 19  2  0
  1 26  1  0
  2 23  2  0
  3 20  2  0
  3  2  1  0
  4  2  1  0
  5  8  1  0
  5 17  1  0
  7  8  2  0
  9 12  1  0
 10 17  2  0
 10 14  1  0
 11 23  1  0
 12 10  1  0
 13 22  1  0
 14 16  2  0
 15 21  1  0
 15 13  2  0
 16 13  1  0
 17 15  1  0
 18 19  1  0
 19  7  1  0
 20 25  1  0
 22 20  1  0
 23  6  1  0
 24 12  2  0
 25 11  2  0
 26  5  2  0
  1 27  1  0
  3 28  1  0
  6 29  1  0
  6 30  1  0
  6 31  1  0
  7 32  1  0
  8 33  1  0
 11 34  1  0
 14 35  1  0
 16 36  1  0
 18 37  1  0
 18 38  1  0
 18 39  1  0
 25 40  1  0
 26 41  1  0
M  CHG  1   9  -1
M  END
>  <mol_id>  (39) 
2026-08-24-6tgu-s0-n100-seed1-0041

>  <rmsd_to_ref>  (39) 


$$$$

     RDKit          3D

 25 26  0  0  0  0  0  0  0  0999 V2000
    0.1872   18.0423   41.2190 C   0  0  0  0  0  0  0  0  0  0  0  0
   -1.2078   14.9715   43.1907 C   0  0  0  0  0  0  0  0  0  0  0  0
    3.0869   19.9196   38.7610 C   0  0  0  0  0  0  0  0  0  0  0  0
    3.2085   21.2571   36.7296 O   0  0  0  0  0  0  0  0  0  0  0  0
   -1.6740   17.1282   42.1238 C   0  0  0  0  0  0  0  0  0  0  0  0
   -0.8952   16.1749   42.4193 C   0  0  0  0  0  0  0  0  0  0  0  0
    2.6119   16.7807   40.3769 O   0  0  0  0  0  0  0  0  0  0  0  0
    3.4230   18.5679   39.2602 C   0  0  0  0  0  0  0  0  0  0  0  0
    2.4239   18.0589   40.0382 C   0  0  0  0  0  0  0  0  0  0  0  0
    1.0220   20.0752   39.9874 C   0  0  0  0  0  0  0  0  0  0  0  0
   -1.0917   18.3577   41.5081 C   0  0  0  0  0  0  0  0  0  0  0  0
    2.1523   20.6428   39.2110 C   0  0  0  0  0  0  0  0  0  0  0  0
    4.8953   20.0365   37.2459 O   0  0  0  0  0  0  0  0  0  0  0  0
    0.6623   16.5649   41.8993 S   0  0  0  0  0  0  0  0  0  0  0  0
    3.7237   20.4665   37.5420 C   0  0  0  0  0  0  0  0  0  0  0  0
    1.2316   18.7626   40.4111 C   0  0  0  0  0  0  0  0  0  0  0  0
   -1.6259   15.2598   44.1665 H   0  0  0  0  0  0  0  0  0  0  0  0
   -1.9430   14.3647   42.6416 H   0  0  0  0  0  0  0  0  0  0  0  0
   -0.2897   14.3853   43.3437 H   0  0  0  0  0  0  0  0  0  0  0  0
   -2.7544   17.0526   42.3159 H   0  0  0  0  0  0  0  0  0  0  0  0
    1.9448   16.3148   40.9409 H   0  0  0  0  0  0  0  0  0  0  0  0
    4.3607   18.0396   39.0329 H   0  0  0  0  0  0  0  0  0  0  0  0
    0.1030   20.6379   40.2085 H   0  0  0  0  0  0  0  0  0  0  0  0
   -1.5985   19.3173   41.3285 H   0  0  0  0  0  0  0  0  0  0  0  0
    2.1778   21.7259   39.0212 H   0  0  0  0  0  0  0  0  0  0  0  0
  1 14  1  0
  1 11  2  0
  3  8  2  0
  3 12  1  0
  4 15  1  0
  6  5  2  0
  6  2  1  0
  8  9  1  0
  9  7  1  0
  9 16  2  0
 10 16  1  0
 11  5  1  0
 12 10  2  0
 13 15  2  0
 14  6  1  0
 15  3  1  0
 16  1  1  0
  2 17  1  0
  2 18  1  0
  2 19  1  0
  5 20  1  0
  7 21  1  0
  8 22  1  0
 10 23  1  0
 11 24  1  0
 12 25  1  0
M  CHG  1   4  -1
M  END
>  <mol_id>  (40) 
2026-08-24-6tgu-s0-n100-seed1-0042

>  <rmsd_to_ref>  (40) 


$$$$

     RDKit          3D

 28 30  0  0  0  0  0  0  0  0999 V2000
    1.4041   16.7410   40.9804 C   0  0  0  0  0  0  0  0  0  0  0  0
   -0.6560   17.1621   42.8409 C   0  0  0  0  0  0  0  0  0  0  0  0
    0.8068   15.6493   41.6455 C   0  0  0  0  0  0  0  0  0  0  0  0
    0.0414   18.2566   42.3163 C   0  0  0  0  0  0  0  0  0  0  0  0
    3.2086   18.9729   36.2644 C   0  0  0  0  0  0  0  0  0  0  0  0
    0.9920   18.1030   41.2598 C   0  0  0  0  0  0  0  0  0  0  0  0
    2.2478   20.9544   37.8090 C   0  0  0  0  0  0  0  0  0  0  0  0
   -0.6669   19.6137   43.9528 O   0  0  0  0  0  0  0  0  0  0  0  0
    2.8467   18.6218   37.5111 C   0  0  0  0  0  0  0  0  0  0  0  0
    3.1398   20.3223   35.9179 N   0  0  0  0  0  0  0  0  0  0  0  0
    2.7051   21.3208   36.6618 N   0  0  0  0  0  0  0  0  0  0  0  0
   -0.0918   15.9043   42.7951 C   0  0  0  0  0  0  0  0  0  0  0  0
    1.4475   19.2833   40.6079 C   0  0  2  0  0  0  0  0  0  0  0  0
    2.3247   19.6893   38.3848 C   0  0  0  0  0  0  0  0  0  0  0  0
   -0.0569   19.5996   42.9419 C   0  0  0  0  0  0  0  0  0  0  0  0
    1.4535   20.9091   41.1088 S   0  0  0  0  0  0  0  0  0  0  0  0
    1.7874   19.1952   39.3502 O   0  0  0  0  0  0  0  0  0  0  0  0
    0.7215   20.8632   42.5248 C   0  0  0  0  0  0  0  0  0  0  0  0
    2.1947   16.5560   40.2382 H   0  0  0  0  0  0  0  0  0  0  0  0
   -1.6508   17.3046   43.2883 H   0  0  0  0  0  0  0  0  0  0  0  0
    1.0064   14.6197   41.3137 H   0  0  0  0  0  0  0  0  0  0  0  0
    3.5487   18.2185   35.5397 H   0  0  0  0  0  0  0  0  0  0  0  0
    1.7386   21.7293   38.4009 H   0  0  0  0  0  0  0  0  0  0  0  0
    2.9361   17.5838   37.8638 H   0  0  0  0  0  0  0  0  0  0  0  0
   -0.2954   15.1415   43.5610 H   0  0  0  0  0  0  0  0  0  0  0  0
    1.7211   18.9962   41.6339 H   0  0  0  0  0  0  0  0  0  0  0  0
    1.4951   21.0280   43.2893 H   0  0  0  0  0  0  0  0  0  0  0  0
   -0.0633   21.6284   42.4322 H   0  0  0  0  0  0  0  0  0  0  0  0
  1  3  1  0
  2 12  1  0
  3 12  2  0
  4 15  1  0
  4  2  2  0
  5  9  2  0
  6  1  2  0
  6  4  1  0
  7 14  2  0
  9 14  1  0
 10 11  2  0
 10  5  1  0
 11  7  1  0
 13 17  1  0
 13 16  1  0
 13  6  1  0
 14 17  1  0
 15  8  2  0
 16 18  1  0
 18 15  1  0
  1 19  1  0
  2 20  1  0
  3 21  1  0
  5 22  1  0
  7 23  1  0
  9 24  1  0
 12 25  1  0
 13 26  1  1
 18 27  1  0
 18 28  1  0
M  END
>  <mol_id>  (41) 
2026-08-24-6tgu-s0-n100-seed1-0043

>  <rmsd_to_ref>  (41) 


$$$$

     RDKit          3D

 47 51  0  0  0  0  0  0  0  0999 V2000
    2.8080   14.9520   40.5380 N   0  0  0  0  0  0  0  0  0  0  0  0
   -1.2440   20.6530   43.6400 O   0  0  0  0  0  0  0  0  0  0  0  0
   -0.4800   21.2030   42.4080 C   0  0  0  0  0  0  0  0  0  0  0  0
   -0.9200   19.4490   43.7950 C   0  0  0  0  0  0  0  0  0  0  0  0
    2.2400   17.3810   40.1010 N   0  0  0  0  0  0  0  0  0  0  0  0
    1.3330   16.3670   41.9790 C   0  0  0  0  0  0  0  0  0  0  0  0
   -0.8130   17.4190   44.5870 C   0  0  1  0  0  0  0  0  0  0  0  0
   -0.0420   17.4410   43.5070 C   0  0  0  0  0  0  0  0  0  0  0  0
    1.0030   18.8720   41.8020 C   0  0  0  0  0  0  0  0  0  0  0  0
   -1.3180   18.6250   44.8250 N   0  0  0  0  0  0  0  0  0  0  0  0
    2.0740   21.4660   37.7450 C   0  0  0  0  0  0  0  0  0  0  0  0
    2.8070   22.0330   35.1560 O   0  0  0  0  0  0  0  0  0  0  0  0
    3.2080   13.8790   39.9240 C   0  0  0  0  0  0  0  0  0  0  0  0
    0.0700   18.7510   42.9260 C   0  0  0  0  0  0  0  0  0  0  0  0
    1.6910   21.1260   38.9650 C   0  0  0  0  0  0  0  0  0  0  0  0
    3.0450   19.2240   38.9720 C   0  0  0  0  0  0  0  0  0  0  0  0
    2.5810   15.9930   39.8140 C   0  0  0  0  0  0  0  0  0  0  0  0
    0.8440   20.7920   41.6360 C   0  0  0  0  0  0  0  0  0  0  0  0
    3.4980   21.0840   35.8260 O   0  0  0  0  0  0  0  0  0  0  0  0
    2.1270   20.0620   39.6540 C   0  0  0  0  0  0  0  0  0  0  0  0
    0.6410   16.3040   43.0320 C   0  0  0  0  0  0  0  0  0  0  0  0
    3.0320   15.6160   38.1360 S   0  0  0  0  0  0  0  0  0  0  0  0
    1.5260   17.5160   41.2960 C   0  0  0  0  0  0  0  0  0  0  0  0
    3.5700   13.9920   38.4790 C   0  0  0  0  0  0  0  0  0  0  0  0
   -0.9770   16.1570   45.4390 C   0  0  0  0  0  0  0  0  0  0  0  0
    3.5440   19.5110   37.7200 C   0  0  0  0  0  0  0  0  0  0  0  0
    3.0400   20.6670   37.0810 C   0  0  0  0  0  0  0  0  0  0  0  0
    1.7360   20.0400   41.1300 C   0  0  2  0  0  0  0  0  0  0  0  0
   -1.2427   21.1745   41.6158 H   0  0  0  0  0  0  0  0  0  0  0  0
   -0.0185   22.0424   42.9488 H   0  0  0  0  0  0  0  0  0  0  0  0
    2.4958   18.1721   39.4930 H   0  0  0  0  0  0  0  0  0  0  0  0
    1.7997   15.4456   41.6006 H   0  0  0  0  0  0  0  0  0  0  0  0
    0.0905   17.6852   45.1552 H   0  0  0  0  0  0  0  0  0  0  0  0
    1.6501   22.3541   37.2534 H   0  0  0  0  0  0  0  0  0  0  0  0
    2.3660   22.6387   35.8031 H   0  0  0  0  0  0  0  0  0  0  0  0
    3.2780   12.9166   40.4521 H   0  0  0  0  0  0  0  0  0  0  0  0
    0.9499   21.7731   39.4569 H   0  0  0  0  0  0  0  0  0  0  0  0
    3.3753   18.2988   39.4669 H   0  0  0  0  0  0  0  0  0  0  0  0
    0.6154   21.3414   40.7108 H   0  0  0  0  0  0  0  0  0  0  0  0
    1.2888   20.5738   42.6181 H   0  0  0  0  0  0  0  0  0  0  0  0
    0.5704   15.3546   43.5831 H   0  0  0  0  0  0  0  0  0  0  0  0
    4.0447   13.2549   37.8147 H   0  0  0  0  0  0  0  0  0  0  0  0
   -0.9419   16.4270   46.5048 H   0  0  0  0  0  0  0  0  0  0  0  0
   -1.9441   15.6845   45.2121 H   0  0  0  0  0  0  0  0  0  0  0  0
   -0.1628   15.4530   45.2121 H   0  0  0  0  0  0  0  0  0  0  0  0
    4.2990   18.8708   37.2403 H   0  0  0  0  0  0  0  0  0  0  0  0
    2.8103   20.2211   41.2820 H   0  0  0  0  0  0  0  0  0  0  0  0
  2  4  1  0
  3  2  1  0
  4 10  2  0
  5 23  1  0
  6 21  2  0
  7 10  1  0
  7 25  1  0
  8  7  1  0
  9 14  1  0
 11 15  2  0
 12 19  1  0
 13  1  1  0
 14  8  2  0
 14  4  1  0
 15 20  1  0
 16 20  2  0
 17  5  1  0
 17  1  2  0
 18  3  1  0
 19 27  1  0
 21  8  1  0
 22 24  1  0
 22 17  1  0
 23  9  2  0
 23  6  1  0
 24 13  2  0
 26 16  1  0
 27 26  2  0
 27 11  1  0
 28 20  1  0
 28 18  1  0
 28  9  1  0
  3 29  1  0
  3 30  1  0
  5 31  1  0
  6 32  1  0
  7 33  1  6
 11 34  1  0
 12 35  1  0
 13 36  1  0
 15 37  1  0
 16 38  1  0
 18 39  1  0
 18 40  1  0
 21 41  1  0
 24 42  1  0
 25 43  1  0
 25 44  1  0
 25 45  1  0
 26 46  1  0
 28 47  1  1
M  END
>  <mol_id>  (42) 
2026-08-24-6tgu-s0-n100-seed1-0044

>  <rmsd_to_ref>  (42) 


$$$$

     RDKit          3D

 50 50  0  0  0  0  0  0  0  0999 V2000
   -0.3415   17.1237   44.9635 C   0  0  0  0  0  0  0  0  0  0  0  0
    2.2923   20.9621   37.0519 O   0  0  0  0  0  0  0  0  0  0  0  0
    0.3500   16.2076   42.8850 C   0  0  0  0  0  0  0  0  0  0  0  0
    5.7089   16.7941   36.4449 N   0  0  0  0  0  0  0  0  0  0  0  0
    0.2775   14.1538   44.0973 C   0  0  0  0  0  0  0  0  0  0  0  0
    2.6723   14.4667   41.2606 C   0  0  0  0  0  0  0  0  0  0  0  0
   -0.1098   18.5344   42.0451 C   0  0  0  0  0  0  0  0  0  0  0  0
    0.8654   14.9089   42.9540 C   0  0  0  0  0  0  0  0  0  0  0  0
    1.2022   19.3969   40.1791 C   0  0  0  0  0  0  0  0  0  0  0  0
    1.6066   14.2368   42.2449 C   0  0  0  0  0  0  0  0  0  0  0  0
    4.2864   16.2304   38.1927 C   0  0  0  0  0  0  0  0  0  0  0  0
   -0.9698   14.7523   44.7152 C   0  0  0  0  0  0  0  0  0  0  0  0
   -1.0701   18.7132   42.9218 O   0  0  0  0  0  0  0  0  0  0  0  0
   -0.5850   16.5090   43.8999 C   0  0  0  0  0  0  0  0  0  0  0  0
    0.2655   19.5874   41.2418 N   0  0  0  0  0  0  0  0  0  0  0  0
    5.1384   15.0759   38.4230 O   0  0  0  0  0  0  0  0  0  0  0  0
    1.3516   20.3641   39.1683 C   0  0  0  0  0  0  0  0  0  0  0  0
    4.0030   18.5275   37.1544 C   0  0  0  0  0  0  0  0  0  0  0  0
    4.8780   17.3077   37.4548 C   0  0  2  0  0  0  0  0  0  0  0  0
    2.2033   20.0746   38.1906 C   0  0  0  0  0  0  0  0  0  0  0  0
    3.0292   18.8825   38.1753 C   0  0  0  0  0  0  0  0  0  0  0  0
    0.5470   12.9939   44.4320 O   0  0  0  0  0  0  0  0  0  0  0  0
    4.0768   19.2553   36.1628 O   0  0  0  0  0  0  0  0  0  0  0  0
    3.3852   14.5311   40.5928 N   0  0  0  0  0  0  0  0  0  0  0  0
   -1.9342   16.7682   43.5068 O   0  0  0  0  0  0  0  0  0  0  0  0
    0.4655   17.2838   42.0061 C   0  0  0  0  0  0  0  0  0  0  0  0
    2.8339   17.9257   39.1937 C   0  0  0  0  0  0  0  0  0  0  0  0
    1.8787   18.1905   40.1957 C   0  0  0  0  0  0  0  0  0  0  0  0
   -1.1470   17.3062   45.6900 H   0  0  0  0  0  0  0  0  0  0  0  0
    0.6779   17.4811   45.1712 H   0  0  0  0  0  0  0  0  0  0  0  0
    1.7452   21.7866   37.0230 H   0  0  0  0  0  0  0  0  0  0  0  0
    6.3933   16.1458   36.8600 H   0  0  0  0  0  0  0  0  0  0  0  0
    5.1363   16.2913   35.7518 H   0  0  0  0  0  0  0  0  0  0  0  0
    6.2061   17.5686   35.9824 H   0  0  0  0  0  0  0  0  0  0  0  0
    0.8883   13.6354   41.6684 H   0  0  0  0  0  0  0  0  0  0  0  0
    2.3121   14.0272   43.0624 H   0  0  0  0  0  0  0  0  0  0  0  0
    3.3994   15.8896   37.6387 H   0  0  0  0  0  0  0  0  0  0  0  0
    4.0634   16.6393   39.1892 H   0  0  0  0  0  0  0  0  0  0  0  0
   -0.9620   14.5760   45.8010 H   0  0  0  0  0  0  0  0  0  0  0  0
   -0.9928   15.8346   44.5196 H   0  0  0  0  0  0  0  0  0  0  0  0
   -1.8602   14.2809   44.2737 H   0  0  0  0  0  0  0  0  0  0  0  0
   -0.1330   20.5225   41.4082 H   0  0  0  0  0  0  0  0  0  0  0  0
    5.1448   14.8579   39.3887 H   0  0  0  0  0  0  0  0  0  0  0  0
    0.7922   21.3110   39.1866 H   0  0  0  0  0  0  0  0  0  0  0  0
    5.5470   17.8531   38.1365 H   0  0  0  0  0  0  0  0  0  0  0  0
   -2.6166   16.9828   44.1912 H   0  0  0  0  0  0  0  0  0  0  0  0
    0.1435   16.8726   41.0380 H   0  0  0  0  0  0  0  0  0  0  0  0
    1.4835   17.5886   42.2903 H   0  0  0  0  0  0  0  0  0  0  0  0
    3.4153   16.9919   39.2054 H   0  0  0  0  0  0  0  0  0  0  0  0
    1.6739   17.4475   40.9806 H   0  0  0  0  0  0  0  0  0  0  0  0
  2 20  1  0
  3  8  2  3
  3 14  1  0
  5 22  2  0
  5 12  1  0
  6 10  1  0
  7 26  1  0
  7 13  2  0
  8  5  1  0
  9 28  1  0
  9 15  1  0
 10  8  1  0
 11 16  1  0
 14  1  2  3
 15  7  1  0
 17  9  2  0
 18 19  1  0
 18 21  1  0
 19  4  1  0
 19 11  1  0
 20 21  2  0
 20 17  1  0
 21 27  1  0
 23 18  2  0
 24  6  3  0
 25 14  1  0
 26  3  1  0
 27 28  2  0
  1 29  1  0
  1 30  1  0
  2 31  1  0
  4 32  1  0
  4 33  1  0
  4 34  1  0
 10 35  1  0
 10 36  1  0
 11 37  1  0
 11 38  1  0
 12 39  1  0
 12 40  1  0
 12 41  1  0
 15 42  1  0
 16 43  1  0
 17 44  1  0
 19 45  1  1
 25 46  1  0
 26 47  1  0
 26 48  1  0
 27 49  1  0
 28 50  1  0
M  CHG  1   4   1
M  END
>  <mol_id>  (43) 
2026-08-24-6tgu-s0-n100-seed1-0045

>  <rmsd_to_ref>  (43) 


$$$$

     RDKit          3D

 37 38  0  0  0  0  0  0  0  0999 V2000
   -0.3169   19.0161   43.5527 C   0  0  0  0  0  0  0  0  0  0  0  0
   -0.2695   21.1831   43.0269 N   0  0  0  0  0  0  0  0  0  0  0  0
    3.1774   19.9581   38.2961 C   0  0  0  0  0  0  0  0  0  0  0  0
    0.6172   19.2290   42.4595 C   0  0  0  0  0  0  0  0  0  0  0  0
    2.6710   16.3417   41.2173 N   0  0  0  0  0  0  0  0  0  0  0  0
    1.6478   16.9334   41.9079 C   0  0  0  0  0  0  0  0  0  0  0  0
    0.5482   20.5809   42.1060 C   0  0  0  0  0  0  0  0  0  0  0  0
    1.0829   21.3512   41.0356 C   0  0  0  0  0  0  0  0  0  0  0  0
    3.9754   14.4165   40.5265 C   0  0  0  0  0  0  0  0  0  0  0  0
    1.4420   18.3698   41.5485 C   0  0  0  0  0  0  0  0  0  0  0  0
    2.7509   14.9652   41.2681 C   0  0  0  0  0  0  0  0  0  0  0  0
   -0.7823   17.8557   44.3564 C   0  0  0  0  0  0  0  0  0  0  0  0
   -0.7232   20.2041   43.8865 N   0  0  0  0  0  0  0  0  0  0  0  0
   -2.2602   17.7907   44.2530 N   0  0  0  0  0  0  0  0  0  0  0  0
    2.5863   18.0652   37.0868 O   0  0  0  0  0  0  0  0  0  0  0  0
    0.9924   16.3242   42.7277 O   0  0  0  0  0  0  0  0  0  0  0  0
    2.3973   19.9421   39.5531 C   0  0  0  0  0  0  0  0  0  0  0  0
    3.5351   18.7915   37.5024 C   0  0  0  0  0  0  0  0  0  0  0  0
    4.7002   18.4281   37.3186 O   0  0  0  0  0  0  0  0  0  0  0  0
    2.1743   18.8038   40.3679 C   0  0  0  0  0  0  0  0  0  0  0  0
    1.8021   21.1307   39.9020 C   0  0  0  0  0  0  0  0  0  0  0  0
    2.6133   20.6108   37.6135 H   0  0  0  0  0  0  0  0  0  0  0  0
    4.1674   20.2309   38.6902 H   0  0  0  0  0  0  0  0  0  0  0  0
    3.3519   16.9000   40.6828 H   0  0  0  0  0  0  0  0  0  0  0  0
    0.8506   22.4194   41.1587 H   0  0  0  0  0  0  0  0  0  0  0  0
    4.6839   13.9916   41.2528 H   0  0  0  0  0  0  0  0  0  0  0  0
    3.6574   13.6329   39.8231 H   0  0  0  0  0  0  0  0  0  0  0  0
    4.4636   15.2312   39.9716 H   0  0  0  0  0  0  0  0  0  0  0  0
    2.8090   14.6546   42.3217 H   0  0  0  0  0  0  0  0  0  0  0  0
    1.8546   14.5617   40.7743 H   0  0  0  0  0  0  0  0  0  0  0  0
   -0.3394   16.9282   43.9642 H   0  0  0  0  0  0  0  0  0  0  0  0
   -0.4771   17.9710   45.4069 H   0  0  0  0  0  0  0  0  0  0  0  0
   -2.6645   17.6575   45.1910 H   0  0  0  0  0  0  0  0  0  0  0  0
   -2.6149   18.6687   43.8478 H   0  0  0  0  0  0  0  0  0  0  0  0
   -2.5277   17.0009   43.6485 H   0  0  0  0  0  0  0  0  0  0  0  0
    2.7541   17.9572   39.9716 H   0  0  0  0  0  0  0  0  0  0  0  0
    1.9168   21.9748   39.2062 H   0  0  0  0  0  0  0  0  0  0  0  0
  1 13  1  0
  1 12  1  0
  2 13  2  0
  3 17  1  0
  4  1  2  0
  5 11  1  0
  5  6  1  0
  6 16  2  0
  7  4  1  0
  7  2  1  0
  8  7  2  0
  9 11  1  0
 10  6  1  0
 10  4  1  0
 14 12  1  0
 15 18  2  0
 17 21  2  0
 17 20  1  0
 18  3  1  0
 19 18  1  0
 20 10  2  0
 21  8  1  0
  3 22  1  0
  3 23  1  0
  5 24  1  0
  8 25  1  0
  9 26  1  0
  9 27  1  0
  9 28  1  0
 11 29  1  0
 11 30  1  0
 12 31  1  0
 12 32  1  0
 14 33  1  0
 14 34  1  0
 14 35  1  0
 20 36  1  0
 21 37  1  0
M  CHG  2  14   1  19  -1
M  END
>  <mol_id>  (44) 
2026-08-24-6tgu-s0-n100-seed1-0046

>  <rmsd_to_ref>  (44) 


$$$$

     RDKit          3D

 31 35  0  0  0  0  0  0  0  0999 V2000
    3.8245   19.2183   37.4030 N   0  0  0  0  0  0  0  0  0  0  0  0
   -1.4842   18.2293   43.6163 C   0  0  0  0  0  0  0  0  0  0  0  0
    2.5131   19.7765   39.1904 C   0  0  0  0  0  0  0  0  0  0  0  0
    0.1300   17.5565   41.9921 C   0  0  0  0  0  0  0  0  0  0  0  0
   -0.7700   16.9236   43.1520 C   0  0  0  0  0  0  0  0  0  0  0  0
   -0.4843   20.1293   42.3954 C   0  0  0  0  0  0  0  0  0  0  0  0
    1.0075   14.7850   41.4333 C   0  0  0  0  0  0  0  0  0  0  0  0
    4.0177   17.8483   37.7273 C   0  0  0  0  0  0  0  0  0  0  0  0
    0.8010   18.1966   41.3108 C   0  0  0  0  0  0  0  0  0  0  0  0
    0.5876   19.7819   41.3067 C   0  0  2  0  0  0  0  0  0  0  0  0
   -0.9335   15.4923   43.3305 N   0  0  0  0  0  0  0  0  0  0  0  0
    1.5731   20.4934   40.3666 S   0  0  0  0  0  0  0  0  0  0  0  0
    3.0689   20.0983   38.1219 C   0  0  0  0  0  0  0  0  0  0  0  0
    1.7125   17.5113   40.7099 C   0  0  0  0  0  0  0  0  0  0  0  0
    3.1780   17.3022   38.9079 C   0  0  0  0  0  0  0  0  0  0  0  0
    1.8349   15.8363   40.6495 C   0  0  0  0  0  0  0  0  0  0  0  0
    0.0259   14.7859   42.5288 C   0  0  0  0  0  0  0  0  0  0  0  0
    2.9241   16.0587   39.3536 N   0  0  0  0  0  0  0  0  0  0  0  0
   -1.2407   19.4813   43.1667 N   0  0  0  0  0  0  0  0  0  0  0  0
    2.3788   18.2221   39.6342 C   0  0  0  0  0  0  0  0  0  0  0  0
   -2.5525   18.0571   43.4187 H   0  0  0  0  0  0  0  0  0  0  0  0
   -1.0671   18.3150   44.6306 H   0  0  0  0  0  0  0  0  0  0  0  0
   -0.6079   21.2155   42.5172 H   0  0  0  0  0  0  0  0  0  0  0  0
    1.2086   13.7650   41.0738 H   0  0  0  0  0  0  0  0  0  0  0  0
    4.7228   17.2126   37.1717 H   0  0  0  0  0  0  0  0  0  0  0  0
   -0.2096   19.6726   40.5567 H   0  0  0  0  0  0  0  0  0  0  0  0
   -0.7913   15.2536   44.3223 H   0  0  0  0  0  0  0  0  0  0  0  0
   -1.8835   15.2211   43.0391 H   0  0  0  0  0  0  0  0  0  0  0  0
    2.9463   21.1250   37.7465 H   0  0  0  0  0  0  0  0  0  0  0  0
   -0.6216   13.9708   42.1733 H   0  0  0  0  0  0  0  0  0  0  0  0
    0.8183   15.1217   43.2139 H   0  0  0  0  0  0  0  0  0  0  0  0
  1  8  2  0
  1 13  1  0
  3 20  1  0
  3 12  1  0
  4  5  2  0
  5 11  1  0
  5  2  1  0
  6 19  2  0
  7 17  1  0
  8 15  1  0
  9  4  2  0
 10  9  1  0
 10  6  1  0
 12 10  1  0
 13  3  2  0
 14 16  1  0
 14  9  1  0
 15 18  2  0
 15 20  1  0
 16  7  2  0
 17 11  1  0
 18 16  1  0
 19  2  1  0
 20 14  2  0
  2 21  1  0
  2 22  1  0
  6 23  1  0
  7 24  1  0
  8 25  1  0
 10 26  1  6
 11 27  1  0
 11 28  1  0
 13 29  1  0
 17 30  1  0
 17 31  1  0
M  CHG  1  11   1
M  END
>  <mol_id>  (45) 
2026-08-24-6tgu-s0-n100-seed1-0047

>  <rmsd_to_ref>  (45) 


$$$$

     RDKit          3D

 26 27  0  0  0  0  0  0  0  0999 V2000
    2.7129   16.9417   41.4085 N   0  0  0  0  0  0  0  0  0  0  0  0
    3.6132   21.1629   35.0453 N   0  0  0  0  0  0  0  0  0  0  0  0
    3.2438   20.1524   37.4047 C   0  0  0  0  0  0  0  0  0  0  0  0
    3.4407   20.7456   36.1387 C   0  0  0  0  0  0  0  0  0  0  0  0
   -0.2667   16.5129   43.4335 C   0  0  0  0  0  0  0  0  0  0  0  0
    4.1977   19.3350   37.7886 C   0  0  0  0  0  0  0  0  0  0  0  0
    2.0657   19.5701   39.3366 C   0  0  0  0  0  0  0  0  0  0  0  0
    2.9180   17.7839   40.6206 N   0  0  0  0  0  0  0  0  0  0  0  0
    0.9050   18.1732   41.6706 C   0  0  0  0  0  0  0  0  0  0  0  0
    4.0777   18.5271   38.8801 C   0  0  0  0  0  0  0  0  0  0  0  0
   -0.3703   18.5214   42.2581 N   0  0  0  0  0  0  0  0  0  0  0  0
    2.1513   20.4077   38.2168 C   0  0  0  0  0  0  0  0  0  0  0  0
   -0.8864   17.6720   43.0491 C   0  0  0  0  0  0  0  0  0  0  0  0
    0.9410   16.1815   42.8861 C   0  0  0  0  0  0  0  0  0  0  0  0
    2.9632   18.6183   39.7098 C   0  0  0  0  0  0  0  0  0  0  0  0
    1.4569   17.0025   41.9464 C   0  0  0  0  0  0  0  0  0  0  0  0
    3.4080   16.2278   41.6697 H   0  0  0  0  0  0  0  0  0  0  0  0
   -0.7374   15.8534   44.1775 H   0  0  0  0  0  0  0  0  0  0  0  0
    5.1302   19.3009   37.2062 H   0  0  0  0  0  0  0  0  0  0  0  0
    1.1823   19.6950   39.9800 H   0  0  0  0  0  0  0  0  0  0  0  0
    3.8161   18.0686   41.0370 H   0  0  0  0  0  0  0  0  0  0  0  0
    1.4139   18.8787   40.9973 H   0  0  0  0  0  0  0  0  0  0  0  0
    4.8684   17.7970   39.1074 H   0  0  0  0  0  0  0  0  0  0  0  0
    1.4165   21.1975   38.0018 H   0  0  0  0  0  0  0  0  0  0  0  0
   -1.8900   17.8797   43.4488 H   0  0  0  0  0  0  0  0  0  0  0  0
    1.4763   15.2737   43.2014 H   0  0  0  0  0  0  0  0  0  0  0  0
  1 16  1  0
  2  4  3  0
  3 12  2  0
  4  3  1  0
  5 13  1  0
  6  3  1  0
  6 10  2  0
  8  1  1  0
  9 11  1  0
 10 15  1  0
 11 13  2  0
 12  7  1  0
 14  5  2  0
 15  7  2  0
 15  8  1  0
 16  9  2  0
 16 14  1  0
  1 17  1  0
  5 18  1  0
  6 19  1  0
  7 20  1  0
  8 21  1  0
  9 22  1  0
 10 23  1  0
 12 24  1  0
 13 25  1  0
 14 26  1  0
M  END
>  <mol_id>  (46) 
2026-08-24-6tgu-s0-n100-seed1-0048

>  <rmsd_to_ref>  (46) 


$$$$

     RDKit          3D

 60 62  0  0  0  0  0  0  0  0999 V2000
    3.9054   20.4900   35.4118 N   0  0  0  0  0  0  0  0  0  0  0  0
    0.5875   14.1625   42.0913 C   0  0  0  0  0  0  0  0  0  0  0  0
   -1.5467   16.8284   44.5093 C   0  0  0  0  0  0  0  0  0  0  0  0
    2.9118   17.6285   38.3418 C   0  0  1  0  0  0  0  0  0  0  0  0
    1.0017   18.6701   41.2531 C   0  0  0  0  0  0  0  0  0  0  0  0
    1.1049   19.9392   40.3103 C   0  0  0  0  0  0  0  0  0  0  0  0
   -0.1808   16.7251   42.3490 C   0  0  0  0  0  0  0  0  0  0  0  0
    3.2259   16.4018   38.2418 N   0  0  0  0  0  0  0  0  0  0  0  0
   -0.1690   13.4441   43.2860 C   0  0  0  0  0  0  0  0  0  0  0  0
    3.7077   13.7001   37.7880 C   0  0  0  0  0  0  0  0  0  0  0  0
   -1.1648   16.3448   43.1785 O   0  0  0  0  0  0  0  0  0  0  0  0
    3.5545   20.4638   39.9958 F   0  0  0  0  0  0  0  0  0  0  0  0
    0.9586   20.3239   39.1904 F   0  0  0  0  0  0  0  0  0  0  0  0
    0.7203   15.6161   41.7978 C   0  0  0  0  0  0  0  0  0  0  0  0
    3.1293   20.6844   36.0882 C   0  0  0  0  0  0  0  0  0  0  0  0
    1.7437   17.4815   40.6632 C   0  0  0  0  0  0  0  0  0  0  0  0
    3.4539   19.2096   39.8726 C   0  0  2  0  0  0  0  0  0  0  0  0
    3.9788   14.7195   36.7550 N   0  0  0  0  0  0  0  0  0  0  0  0
    1.2114   19.8991   41.1605 O   0  0  0  0  0  0  0  0  0  0  0  0
   -0.0516   18.0762   42.0837 C   0  0  0  0  0  0  0  0  0  0  0  0
    4.3080   17.0157   36.3490 N   0  0  0  0  0  0  0  0  0  0  0  0
    1.5055   13.1820   41.4289 C   0  0  0  0  0  0  0  0  0  0  0  0
    2.5548   18.1569   39.5766 C   0  0  1  0  0  0  0  0  0  0  0  0
    2.6924   19.8951   37.0750 C   0  0  0  0  0  0  0  0  0  0  0  0
    4.8301   18.6913   40.1881 C   0  0  0  0  0  0  0  0  0  0  0  0
    3.1800   18.7143   37.2986 C   0  0  0  0  0  0  0  0  0  0  0  0
    1.6113   16.1441   40.8945 C   0  0  0  0  0  0  0  0  0  0  0  0
    3.9194   16.1917   37.1549 C   0  0  0  0  0  0  0  0  0  0  0  0
    5.3935   14.6640   36.3495 C   0  0  0  0  0  0  0  0  0  0  0  0
    3.9372   18.3305   36.3354 C   0  0  0  0  0  0  0  0  0  0  0  0
    4.2602   19.6742   35.4190 N   0  0  0  0  0  0  0  0  0  0  0  0
   -0.2834   14.6703   41.6513 H   0  0  0  0  0  0  0  0  0  0  0  0
   -1.1885   16.1221   45.2727 H   0  0  0  0  0  0  0  0  0  0  0  0
   -1.0959   17.8165   44.6837 H   0  0  0  0  0  0  0  0  0  0  0  0
   -2.6420   16.9093   44.5696 H   0  0  0  0  0  0  0  0  0  0  0  0
    2.1627   17.0665   37.7646 H   0  0  0  0  0  0  0  0  0  0  0  0
    1.9928   19.3318   40.0806 H   0  0  0  0  0  0  0  0  0  0  0  0
    0.0811   20.2894   40.5082 H   0  0  0  0  0  0  0  0  0  0  0  0
    0.1832   13.8559   44.2433 H   0  0  0  0  0  0  0  0  0  0  0  0
   -1.2515   13.6144   43.1897 H   0  0  0  0  0  0  0  0  0  0  0  0
    0.0368   12.3640   43.2536 H   0  0  0  0  0  0  0  0  0  0  0  0
    3.7418   14.1681   38.7828 H   0  0  0  0  0  0  0  0  0  0  0  0
    2.7111   13.2652   37.6214 H   0  0  0  0  0  0  0  0  0  0  0  0
    4.4681   12.9074   37.7294 H   0  0  0  0  0  0  0  0  0  0  0  0
    2.6145   21.6497   35.9733 H   0  0  0  0  0  0  0  0  0  0  0  0
    3.7284   19.2920   38.8106 H   0  0  0  0  0  0  0  0  0  0  0  0
   -0.7935   18.7558   42.5284 H   0  0  0  0  0  0  0  0  0  0  0  0
    1.9935   12.5614   42.1949 H   0  0  0  0  0  0  0  0  0  0  0  0
    0.9266   12.5386   40.7500 H   0  0  0  0  0  0  0  0  0  0  0  0
    2.2706   13.7257   40.8553 H   0  0  0  0  0  0  0  0  0  0  0  0
    1.4888   18.4034   39.4634 H   0  0  0  0  0  0  0  0  0  0  0  0
    1.8848   20.2628   37.7249 H   0  0  0  0  0  0  0  0  0  0  0  0
    4.9484   18.6049   41.2783 H   0  0  0  0  0  0  0  0  0  0  0  0
    4.9644   17.7026   39.7252 H   0  0  0  0  0  0  0  0  0  0  0  0
    5.5839   19.3873   39.7914 H   0  0  0  0  0  0  0  0  0  0  0  0
    2.2513   15.4515   40.3282 H   0  0  0  0  0  0  0  0  0  0  0  0
    6.0302   14.6192   37.2454 H   0  0  0  0  0  0  0  0  0  0  0  0
    5.5635   13.7686   35.7337 H   0  0  0  0  0  0  0  0  0  0  0  0
    5.6434   15.5629   35.7667 H   0  0  0  0  0  0  0  0  0  0  0  0
    5.0127   19.5391   34.7289 H   0  0  0  0  0  0  0  0  0  0  0  0
  1 15  2  0
  2  9  1  0
  4 23  1  0
  5 20  1  0
  6 19  1  0
  7 11  1  0
  8  4  1  0
 11  3  1  0
 13  6  1  0
 14  2  1  0
 14  7  1  0
 15 24  1  0
 16 27  1  0
 16  5  2  0
 17 12  1  0
 17 25  1  0
 18 28  1  0
 18 10  1  0
 19  5  1  0
 20  7  2  0
 21 28  1  0
 22  2  1  0
 23 17  1  0
 23 16  1  0
 24 26  2  0
 26  4  1  0
 27 14  2  0
 28  8  2  0
 29 18  1  0
 30 21  2  0
 30 26  1  0
 31  1  1  0
 31 30  1  0
  2 32  1  0
  3 33  1  0
  3 34  1  0
  3 35  1  0
  4 36  1  6
  6 37  1  0
  6 38  1  0
  9 39  1  0
  9 40  1  0
  9 41  1  0
 10 42  1  0
 10 43  1  0
 10 44  1  0
 15 45  1  0
 17 46  1  6
 20 47  1  0
 22 48  1  0
 22 49  1  0
 22 50  1  0
 23 51  1  6
 24 52  1  0
 25 53  1  0
 25 54  1  0
 25 55  1  0
 27 56  1  0
 29 57  1  0
 29 58  1  0
 29 59  1  0
 31 60  1  0
M  END
>  <mol_id>  (47) 
2026-08-24-6tgu-s0-n100-seed1-0049

>  <rmsd_to_ref>  (47) 


$$$$

     RDKit          3D

 20 21  0  0  0  0  0  0  0  0999 V2000
   -0.5257   15.9493   42.9607 N   0  0  0  0  0  0  0  0  0  0  0  0
    1.9695   17.8608   40.8138 C   0  0  0  0  0  0  0  0  0  0  0  0
    0.6599   16.0405   42.3022 N   0  0  0  0  0  0  0  0  0  0  0  0
    3.9055   18.6886   37.6832 O   0  0  0  0  0  0  0  0  0  0  0  0
   -1.0985   17.1168   42.8188 C   0  0  0  0  0  0  0  0  0  0  0  0
    2.7778   19.7881   39.4817 C   0  0  0  0  0  0  0  0  0  0  0  0
   -0.2017   17.9836   42.0774 C   0  0  0  0  0  0  0  0  0  0  0  0
   -0.3424   19.3218   41.6432 C   0  0  0  0  0  0  0  0  0  0  0  0
    0.9782   17.2327   41.7116 C   0  0  2  0  0  0  0  0  0  0  0  0
    0.6580   19.9085   40.8096 C   0  0  0  0  0  0  0  0  0  0  0  0
    3.2384   19.6081   38.0851 C   0  0  0  0  0  0  0  0  0  0  0  0
    1.7229   19.1411   40.3698 C   0  0  0  0  0  0  0  0  0  0  0  0
    2.9865   20.5490   37.2707 O   0  0  0  0  0  0  0  0  0  0  0  0
    2.8783   17.3213   40.5087 H   0  0  0  0  0  0  0  0  0  0  0  0
   -2.0931   17.3947   43.1978 H   0  0  0  0  0  0  0  0  0  0  0  0
    2.4941   20.8506   39.5064 H   0  0  0  0  0  0  0  0  0  0  0  0
    3.6194   19.2359   39.9255 H   0  0  0  0  0  0  0  0  0  0  0  0
   -1.2209   19.9100   41.9469 H   0  0  0  0  0  0  0  0  0  0  0  0
    1.5090   17.6420   42.5838 H   0  0  0  0  0  0  0  0  0  0  0  0
    0.5826   20.9665   40.5182 H   0  0  0  0  0  0  0  0  0  0  0  0
  3  1  2  0
  4 11  1  0
  5  1  1  0
  6 12  1  0
  7  5  2  0
  8  7  1  0
  9  2  1  0
  9  7  1  0
  9  3  1  0
 10  8  2  0
 11  6  1  0
 12  2  2  0
 12 10  1  0
 13 11  2  0
  2 14  1  0
  5 15  1  0
  6 16  1  0
  6 17  1  0
  8 18  1  0
  9 19  1  1
 10 20  1  0
M  CHG  1   4  -1
M  END
>  <mol_id>  (48) 
2026-08-24-6tgu-s0-n100-seed1-0050

>  <rmsd_to_ref>  (48) 


$$$$

     RDKit          3D

 44 46  0  0  0  0  0  0  0  0999 V2000
    3.1530   19.8288   37.1372 C   0  0  0  0  0  0  0  0  0  0  0  0
    0.4249   13.0976   44.1244 C   0  0  0  0  0  0  0  0  0  0  0  0
   -1.1067   19.3270   41.7652 N   0  0  0  0  0  0  0  0  0  0  0  0
    0.0422   12.2036   44.9910 N   0  0  0  0  0  0  0  0  0  0  0  0
    4.6652   16.6275   37.4514 N   0  0  0  0  0  0  0  0  0  0  0  0
    1.4056   15.8040   42.1916 C   0  0  0  0  0  0  0  0  0  0  0  0
    1.2442   18.9835   40.0906 C   0  0  0  0  0  0  0  0  0  0  0  0
    2.3535   19.9368   38.1607 C   0  0  0  0  0  0  0  0  0  0  0  0
    3.9796   18.7646   36.8613 N   0  0  0  0  0  0  0  0  0  0  0  0
   -0.6911   17.3863   42.7882 C   0  0  0  0  0  0  0  0  0  0  0  0
   -0.8636   16.0783   43.1863 C   0  0  0  0  0  0  0  0  0  0  0  0
    1.6507   16.7375   41.3195 C   0  0  0  0  0  0  0  0  0  0  0  0
    0.2720   15.1248   42.9791 C   0  0  2  0  0  0  0  0  0  0  0  0
    0.9220   12.4895   43.0023 O   0  0  0  0  0  0  0  0  0  0  0  0
    0.9192   18.0636   41.0224 C   0  0  0  0  0  0  0  0  0  0  0  0
   -0.2239   18.2470   41.8590 C   0  0  0  0  0  0  0  0  0  0  0  0
    3.2742   20.7248   36.2769 C   0  0  0  0  0  0  0  0  0  0  0  0
    3.9895   17.8130   37.7036 C   0  0  0  0  0  0  0  0  0  0  0  0
    3.7972   21.2552   35.4180 N   0  0  0  0  0  0  0  0  0  0  0  0
    0.4931   14.3369   44.1804 N   0  0  0  0  0  0  0  0  0  0  0  0
    3.2061   17.8415   38.9291 C   0  0  0  0  0  0  0  0  0  0  0  0
   -0.6147   20.0802   41.0151 C   0  0  0  0  0  0  0  0  0  0  0  0
    0.3955   20.0226   40.2270 C   0  0  0  0  0  0  0  0  0  0  0  0
    2.2925   18.8850   39.0423 C   0  0  0  0  0  0  0  0  0  0  0  0
    0.0619   11.2041   44.7428 H   0  0  0  0  0  0  0  0  0  0  0  0
   -0.2801   12.4961   45.9245 H   0  0  0  0  0  0  0  0  0  0  0  0
    4.6575   15.8715   38.1510 H   0  0  0  0  0  0  0  0  0  0  0  0
    5.1743   16.5035   36.5647 H   0  0  0  0  0  0  0  0  0  0  0  0
    2.0615   16.1210   43.0157 H   0  0  0  0  0  0  0  0  0  0  0  0
    1.3412   15.0455   41.3975 H   0  0  0  0  0  0  0  0  0  0  0  0
    1.7468   20.8415   38.3138 H   0  0  0  0  0  0  0  0  0  0  0  0
   -1.7381   17.7211   42.8269 H   0  0  0  0  0  0  0  0  0  0  0  0
    0.2934   17.3961   43.2789 H   0  0  0  0  0  0  0  0  0  0  0  0
   -1.0876   16.0909   44.2632 H   0  0  0  0  0  0  0  0  0  0  0  0
   -1.6647   15.6968   42.5363 H   0  0  0  0  0  0  0  0  0  0  0  0
    2.6794   17.0506   41.5512 H   0  0  0  0  0  0  0  0  0  0  0  0
    1.2994   16.1889   40.4332 H   0  0  0  0  0  0  0  0  0  0  0  0
    0.0710   14.2985   42.2814 H   0  0  0  0  0  0  0  0  0  0  0  0
    2.3799   21.3442   36.4399 H   0  0  0  0  0  0  0  0  0  0  0  0
    3.3841   22.1061   35.0102 H   0  0  0  0  0  0  0  0  0  0  0  0
    0.7052   14.8037   45.0737 H   0  0  0  0  0  0  0  0  0  0  0  0
    3.3285   17.0846   39.7178 H   0  0  0  0  0  0  0  0  0  0  0  0
   -1.1328   21.0498   40.9787 H   0  0  0  0  0  0  0  0  0  0  0  0
    0.5884   20.9067   39.6016 H   0  0  0  0  0  0  0  0  0  0  0  0
  1  8  1  0
  2 20  1  0
  2  4  1  0
  3 16  1  0
  5 18  1  0
  6 13  1  0
  7 23  2  0
  7 15  1  0
  8 24  2  0
  9  1  2  0
  9 18  1  0
 10 11  1  0
 12  6  1  0
 13 11  1  0
 13 20  1  0
 14  2  2  0
 15 12  1  0
 15 16  2  0
 16 10  1  0
 17  1  1  0
 18 21  2  0
 19 17  2  3
 21 24  1  0
 22  3  2  0
 23 22  1  0
 24  7  1  0
  4 25  1  0
  4 26  1  0
  5 27  1  0
  5 28  1  0
  6 29  1  0
  6 30  1  0
  8 31  1  0
 10 32  1  0
 10 33  1  0
 11 34  1  0
 11 35  1  0
 12 36  1  0
 12 37  1  0
 13 38  1  6
 17 39  1  0
 19 40  1  0
 20 41  1  0
 21 42  1  0
 22 43  1  0
 23 44  1  0
M  END
>  <mol_id>  (49) 
2026-08-24-6tgu-s0-n100-seed1-0051

>  <rmsd_to_ref>  (49) 


$$$$

     RDKit          3D

 34 35  0  0  0  0  0  0  0  0999 V2000
   -0.2920   17.6354   42.9043 C   0  0  0  0  0  0  0  0  0  0  0  0
    1.8537   18.0538   40.8022 N   0  0  0  0  0  0  0  0  0  0  0  0
   -2.2135   18.5597   43.8570 C   0  0  0  0  0  0  0  0  0  0  0  0
   -2.1127   19.7171   43.0590 C   0  0  0  0  0  0  0  0  0  0  0  0
   -1.0260   19.8381   42.1838 C   0  0  0  0  0  0  0  0  0  0  0  0
    1.0069   18.9083   41.1384 C   0  0  0  0  0  0  0  0  0  0  0  0
    0.7930   16.3457   42.8353 Cl  0  0  0  0  0  0  0  0  0  0  0  0
    2.8772   20.1829   38.2082 C   0  0  0  0  0  0  0  0  0  0  0  0
    2.8878   18.8522   38.8549 C   0  0  0  0  0  0  0  0  0  0  0  0
    3.5173   18.0821   37.9362 C   0  0  0  0  0  0  0  0  0  0  0  0
   -1.3318   17.5287   43.7592 C   0  0  0  0  0  0  0  0  0  0  0  0
    3.4571   19.9782   36.9949 C   0  0  0  0  0  0  0  0  0  0  0  0
    3.5146   20.9166   36.0046 O   0  0  0  0  0  0  0  0  0  0  0  0
    2.7257   18.3296   40.0379 C   0  0  1  0  0  0  0  0  0  0  0  0
    3.8784   18.7542   36.8212 N   0  0  0  0  0  0  0  0  0  0  0  0
    2.5072   19.2003   40.1246 C   0  0  0  0  0  0  0  0  0  0  0  0
    1.4991   19.9942   40.6568 N   0  0  0  0  0  0  0  0  0  0  0  0
   -0.1243   18.8350   42.0545 C   0  0  0  0  0  0  0  0  0  0  0  0
   -3.0349   18.4876   44.5851 H   0  0  0  0  0  0  0  0  0  0  0  0
   -2.8726   20.5097   43.1223 H   0  0  0  0  0  0  0  0  0  0  0  0
   -0.9030   20.7586   41.5943 H   0  0  0  0  0  0  0  0  0  0  0  0
    3.6335   20.0729   38.9993 H   0  0  0  0  0  0  0  0  0  0  0  0
    2.4527   21.1970   38.2453 H   0  0  0  0  0  0  0  0  0  0  0  0
    2.0764   19.4443   38.3611 H   0  0  0  0  0  0  0  0  0  0  0  0
    3.4733   19.7757   38.9746 H   0  0  0  0  0  0  0  0  0  0  0  0
    1.8719   19.0037   38.4614 H   0  0  0  0  0  0  0  0  0  0  0  0
    4.4232   17.6617   38.3972 H   0  0  0  0  0  0  0  0  0  0  0  0
    2.8048   17.3036   37.6261 H   0  0  0  0  0  0  0  0  0  0  0  0
   -1.4638   16.6217   44.3673 H   0  0  0  0  0  0  0  0  0  0  0  0
    3.3801   17.4552   40.1690 H   0  0  0  0  0  0  0  0  0  0  0  0
    4.3814   18.3794   36.0042 H   0  0  0  0  0  0  0  0  0  0  0  0
    3.3930   19.5969   40.6422 H   0  0  0  0  0  0  0  0  0  0  0  0
    2.0772   19.2449   39.1131 H   0  0  0  0  0  0  0  0  0  0  0  0
    1.2566   20.9952   40.6629 H   0  0  0  0  0  0  0  0  0  0  0  0
  1 11  2  0
  2  6  2  0
  4  3  2  0
  5  4  1  0
  6 18  1  0
  7  1  1  0
 10  9  1  0
 11  3  1  0
 12  8  1  0
 13 12  2  0
 14  9  1  0
 14 16  1  0
 14  2  1  0
 15 12  1  0
 15 10  1  0
 16 17  1  0
 17  6  1  0
 18  5  2  0
 18  1  1  0
  3 19  1  0
  4 20  1  0
  5 21  1  0
  8 22  1  0
  8 23  1  0
  8 24  1  0
  9 25  1  0
  9 26  1  0
 10 27  1  0
 10 28  1  0
 11 29  1  0
 14 30  1  1
 15 31  1  0
 16 32  1  0
 16 33  1  0
 17 34  1  0
M  END
>  <mol_id>  (50) 
2026-08-24-6tgu-s0-n100-seed1-0052

>  <rmsd_to_ref>  (50) 


$$$$

     RDKit          3D

 24 25  0  0  0  0  0  0  0  0999 V2000
    3.4980   18.5010   37.8480 C   0  0  0  0  0  0  0  0  0  0  0  0
    0.7690   20.1330   41.4250 C   0  0  0  0  0  0  0  0  0  0  0  0
    3.0920   18.1120   39.1090 C   0  0  0  0  0  0  0  0  0  0  0  0
   -0.1970   18.1430   43.6830 C   0  0  0  0  0  0  0  0  0  0  0  0
    3.1230   20.4780   36.6770 O   0  0  0  0  0  0  0  0  0  0  0  0
    2.8650   19.8290   37.6000 C   0  0  0  0  0  0  0  0  0  0  0  0
   -0.1280   20.2450   42.4440 C   0  0  0  0  0  0  0  0  0  0  0  0
    2.0870   20.0180   38.7060 O   0  0  0  0  0  0  0  0  0  0  0  0
    2.2640   19.0980   39.7040 C   0  0  0  0  0  0  0  0  0  0  0  0
   -0.5000   19.4570   43.4090 C   0  0  0  0  0  0  0  0  0  0  0  0
    0.5950   17.4450   42.8170 C   0  0  0  0  0  0  0  0  0  0  0  0
    1.2540   17.8350   41.6280 C   0  0  0  0  0  0  0  0  0  0  0  0
    4.1510   17.9160   36.9280 O   0  0  0  0  0  0  0  0  0  0  0  0
    1.4200   18.9530   40.9370 C   0  0  0  0  0  0  0  0  0  0  0  0
   -0.7730   17.6870   44.8710 C   0  0  0  0  0  0  0  0  0  0  0  0
    1.1120   21.3060   40.8180 O   0  0  0  0  0  0  0  0  0  0  0  0
   -1.2210   17.4520   45.8950 N   0  0  0  0  0  0  0  0  0  0  0  0
    3.3734   17.1630   39.5887 H   0  0  0  0  0  0  0  0  0  0  0  0
    0.2113   21.1461   42.9758 H   0  0  0  0  0  0  0  0  0  0  0  0
   -1.0176   20.0739   41.8200 H   0  0  0  0  0  0  0  0  0  0  0  0
   -1.1789   19.9248   44.1372 H   0  0  0  0  0  0  0  0  0  0  0  0
    0.7477   16.3913   43.0935 H   0  0  0  0  0  0  0  0  0  0  0  0
    1.7636   16.9851   41.1506 H   0  0  0  0  0  0  0  0  0  0  0  0
    1.7590   21.3049   40.0687 H   0  0  0  0  0  0  0  0  0  0  0  0
  1  3  1  0
  2  7  1  0
  3  9  2  0
  4 15  1  0
  5  6  2  0
  6  1  1  0
  6  8  1  0
  7 10  1  0
  8  9  1  0
  9 14  1  0
 10  4  2  0
 11  4  1  0
 12 11  2  0
 13  1  2  0
 14  2  2  0
 14 12  1  0
 15 17  3  0
 16  2  1  0
  3 18  1  0
  7 19  1  0
  7 20  1  0
 10 21  1  0
 11 22  1  0
 12 23  1  0
 16 24  1  0
M  END
>  <mol_id>  (51) 
2026-08-24-6tgu-s0-n100-seed1-0053

>  <rmsd_to_ref>  (51) 


$$$$

     RDKit          3D

 41 44  0  0  0  0  0  0  0  0999 V2000
    5.0284   13.5860   37.2220 C   0  0  0  0  0  0  0  0  0  0  0  0
    2.8185   18.7016   39.1260 C   0  0  0  0  0  0  0  0  0  0  0  0
   -0.2857   19.9302   42.0279 C   0  0  0  0  0  0  0  0  0  0  0  0
    1.4497   20.3007   40.4117 C   0  0  0  0  0  0  0  0  0  0  0  0
   -2.8680   17.7726   43.8472 N   0  0  0  0  0  0  0  0  0  0  0  0
    4.3700   17.3818   37.3980 C   0  0  0  0  0  0  0  0  0  0  0  0
    1.0068   16.4073   41.3118 S   0  0  0  0  0  0  0  0  0  0  0  0
    2.2776   21.1822   39.6649 O   0  0  0  0  0  0  0  0  0  0  0  0
    0.4558   20.7821   41.2325 C   0  0  0  0  0  0  0  0  0  0  0  0
    3.3941   15.0933   38.6916 C   0  0  0  0  0  0  0  0  0  0  0  0
    3.4531   17.5307   38.5902 C   0  0  0  0  0  0  0  0  0  0  0  0
    5.6967   12.7013   38.2420 C   0  0  0  0  0  0  0  0  0  0  0  0
   -1.4432   17.9840   44.0983 C   0  0  0  0  0  0  0  0  0  0  0  0
   -1.2849   20.3733   42.7465 O   0  0  0  0  0  0  0  0  0  0  0  0
   -0.1695   16.3077   42.5581 C   0  0  0  0  0  0  0  0  0  0  0  0
   -0.6100   17.5831   42.8426 C   0  0  0  0  0  0  0  0  0  0  0  0
    2.7782   14.1253   39.1381 O   0  0  0  0  0  0  0  0  0  0  0  0
    4.4423   12.2223   37.5873 C   0  0  0  0  0  0  0  0  0  0  0  0
    4.4219   14.9185   37.7375 C   0  0  0  0  0  0  0  0  0  0  0  0
    4.7989   18.3691   36.7558 O   0  0  0  0  0  0  0  0  0  0  0  0
    3.0049   16.3306   39.0931 N   0  0  0  0  0  0  0  0  0  0  0  0
    0.9946   18.0214   41.1328 C   0  0  0  0  0  0  0  0  0  0  0  0
    4.8634   16.1335   37.1447 N   0  0  0  0  0  0  0  0  0  0  0  0
    1.7573   18.9055   40.1699 C   0  0  0  0  0  0  0  0  0  0  0  0
    0.0148   18.5590   42.0631 C   0  0  0  0  0  0  0  0  0  0  0  0
    5.2822   14.0627   36.2637 H   0  0  0  0  0  0  0  0  0  0  0  0
    2.3950   19.1897   38.2358 H   0  0  0  0  0  0  0  0  0  0  0  0
    3.6630   19.0089   39.7603 H   0  0  0  0  0  0  0  0  0  0  0  0
   -3.3716   17.7267   44.7446 H   0  0  0  0  0  0  0  0  0  0  0  0
   -3.2372   18.5532   43.2858 H   0  0  0  0  0  0  0  0  0  0  0  0
   -2.9989   16.8889   43.3345 H   0  0  0  0  0  0  0  0  0  0  0  0
    2.9878   20.8174   39.0795 H   0  0  0  0  0  0  0  0  0  0  0  0
    0.2485   21.8621   41.2557 H   0  0  0  0  0  0  0  0  0  0  0  0
    6.6563   12.2198   38.0028 H   0  0  0  0  0  0  0  0  0  0  0  0
    6.0183   12.8353   39.2854 H   0  0  0  0  0  0  0  0  0  0  0  0
   -1.2682   19.0456   44.3268 H   0  0  0  0  0  0  0  0  0  0  0  0
   -1.1323   17.3605   44.9495 H   0  0  0  0  0  0  0  0  0  0  0  0
   -1.8048   19.7475   43.3105 H   0  0  0  0  0  0  0  0  0  0  0  0
   -0.5133   15.3840   43.0466 H   0  0  0  0  0  0  0  0  0  0  0  0
    3.5083   12.1613   38.1650 H   0  0  0  0  0  0  0  0  0  0  0  0
    4.1519   11.3230   37.0242 H   0  0  0  0  0  0  0  0  0  0  0  0
  1 18  1  0
  1 19  1  0
  1 12  1  0
  2 24  1  0
  3 14  1  0
  4  9  2  0
  6 11  1  0
  7 15  1  0
  8  4  1  0
  9  3  1  0
 10 21  1  0
 10 17  2  0
 11 21  2  0
 11  2  1  0
 13  5  1  0
 15 16  2  0
 16 13  1  0
 18 12  1  0
 19 10  1  0
 20  6  2  0
 22  7  1  0
 22 25  1  0
 23  6  1  0
 23 19  2  0
 24  4  1  0
 24 22  2  0
 25  3  2  0
 25 16  1  0
  1 26  1  0
  2 27  1  0
  2 28  1  0
  5 29  1  0
  5 30  1  0
  5 31  1  0
  8 32  1  0
  9 33  1  0
 12 34  1  0
 12 35  1  0
 13 36  1  0
 13 37  1  0
 14 38  1  0
 15 39  1  0
 18 40  1  0
 18 41  1  0
M  CHG  1   5   1
M  END
>  <mol_id>  (52) 
2026-08-24-6tgu-s0-n100-seed1-0054

>  <rmsd_to_ref>  (52) 


$$$$

     RDKit          3D

 51 53  0  0  0  0  0  0  0  0999 V2000
   -0.7050   17.9616   44.2500 C   0  0  0  0  0  0  0  0  0  0  0  0
    2.0565   15.6370   41.4308 O   0  0  0  0  0  0  0  0  0  0  0  0
    0.7614   20.4787   42.1028 C   0  0  0  0  0  0  0  0  0  0  0  0
    2.6890   17.7373   40.4422 N   0  0  0  0  0  0  0  0  0  0  0  0
    0.1562   19.8405   43.1190 C   0  0  0  0  0  0  0  0  0  0  0  0
    1.5088   19.7771   41.1117 C   0  0  0  0  0  0  0  0  0  0  0  0
    3.0874   18.2919   39.2742 C   0  0  0  0  0  0  0  0  0  0  0  0
    3.0566   20.1451   37.6690 C   0  0  0  0  0  0  0  0  0  0  0  0
    0.0344   14.6980   44.0740 C   0  0  0  0  0  0  0  0  0  0  0  0
    1.0697   16.1247   42.3256 C   0  0  0  0  0  0  0  0  0  0  0  0
    4.2312   18.0602   37.1826 C   0  0  0  0  0  0  0  0  0  0  0  0
    0.0713   17.6011   45.4196 N   0  0  0  0  0  0  0  0  0  0  0  0
   -0.2124   15.9497   47.4429 C   0  0  0  0  0  0  0  0  0  0  0  0
    2.6059   14.3741   41.6590 C   0  0  0  0  0  0  0  0  0  0  0  0
    2.6794   21.3487   37.2959 N   0  0  0  0  0  0  0  0  0  0  0  0
    4.1773   21.6455   35.3492 N   0  0  0  0  0  0  0  0  0  0  0  0
    1.0364   17.6866   42.3869 C   0  0  0  0  0  0  0  0  0  0  0  0
   -0.0438   16.7680   46.4771 C   0  0  0  0  0  0  0  0  0  0  0  0
    0.1645   18.4500   43.2779 N   0  0  0  0  0  0  0  0  0  0  0  0
    2.7209   19.6472   38.9754 C   0  0  0  0  0  0  0  0  0  0  0  0
    3.8515   17.6071   38.4366 C   0  0  0  0  0  0  0  0  0  0  0  0
    1.9095   20.3991   39.9181 C   0  0  0  0  0  0  0  0  0  0  0  0
    1.8552   18.3847   41.3087 C   0  0  0  0  0  0  0  0  0  0  0  0
    2.8305   21.8032   35.9036 C   0  0  0  0  0  0  0  0  0  0  0  0
    3.7890   19.3026   36.7923 C   0  0  0  0  0  0  0  0  0  0  0  0
    1.1256   15.4889   43.6114 O   0  0  0  0  0  0  0  0  0  0  0  0
   -1.2314   17.0753   43.8660 H   0  0  0  0  0  0  0  0  0  0  0  0
   -1.4483   18.7290   44.5119 H   0  0  0  0  0  0  0  0  0  0  0  0
    0.6777   21.5733   42.0338 H   0  0  0  0  0  0  0  0  0  0  0  0
    0.6020   20.2496   44.0376 H   0  0  0  0  0  0  0  0  0  0  0  0
   -0.9028   20.0207   42.8822 H   0  0  0  0  0  0  0  0  0  0  0  0
    0.0778   14.6188   45.1703 H   0  0  0  0  0  0  0  0  0  0  0  0
   -0.9132   15.1717   43.7778 H   0  0  0  0  0  0  0  0  0  0  0  0
    0.0962   13.6931   43.6311 H   0  0  0  0  0  0  0  0  0  0  0  0
    0.0937   15.8343   41.9095 H   0  0  0  0  0  0  0  0  0  0  0  0
    4.8638   17.4477   36.5233 H   0  0  0  0  0  0  0  0  0  0  0  0
    0.9609   17.2946   45.0006 H   0  0  0  0  0  0  0  0  0  0  0  0
   -0.2305   18.4277   45.9550 H   0  0  0  0  0  0  0  0  0  0  0  0
   -0.3577   15.2449   48.2748 H   0  0  0  0  0  0  0  0  0  0  0  0
    2.6748   14.1944   42.7421 H   0  0  0  0  0  0  0  0  0  0  0  0
    1.9649   13.6069   41.2001 H   0  0  0  0  0  0  0  0  0  0  0  0
    3.6110   14.3257   41.2146 H   0  0  0  0  0  0  0  0  0  0  0  0
    2.2697   21.9870   37.9927 H   0  0  0  0  0  0  0  0  0  0  0  0
    4.8475   21.4866   36.1151 H   0  0  0  0  0  0  0  0  0  0  0  0
    4.1923   20.8400   34.7074 H   0  0  0  0  0  0  0  0  0  0  0  0
    4.4392   22.4988   34.8354 H   0  0  0  0  0  0  0  0  0  0  0  0
    4.2072   16.6165   38.7561 H   0  0  0  0  0  0  0  0  0  0  0  0
    1.6148   21.4362   39.7006 H   0  0  0  0  0  0  0  0  0  0  0  0
    2.5656   22.8699   35.8611 H   0  0  0  0  0  0  0  0  0  0  0  0
    2.1691   21.1675   35.2967 H   0  0  0  0  0  0  0  0  0  0  0  0
    4.0088   19.6528   35.7730 H   0  0  0  0  0  0  0  0  0  0  0  0
  1 12  1  0
  2 14  1  0
  2 10  1  0
  3  5  1  0
  4 23  1  0
  5 19  1  0
  6 23  1  0
  6  3  2  0
  7  4  2  0
  8 20  1  0
 10 26  1  0
 11 21  2  0
 12 18  1  0
 15  8  1  0
 16 24  1  0
 17 10  1  0
 17 19  1  0
 18 13  3  0
 19  1  1  0
 20  7  1  0
 20 22  2  0
 21  7  1  0
 22  6  1  0
 23 17  2  0
 24 15  1  0
 25 11  1  0
 25  8  2  0
 26  9  1  0
  1 27  1  0
  1 28  1  0
  3 29  1  0
  5 30  1  0
  5 31  1  0
  9 32  1  0
  9 33  1  0
  9 34  1  0
 10 35  1  0
 11 36  1  0
 12 37  1  0
 12 38  1  0
 13 39  1  0
 14 40  1  0
 14 41  1  0
 14 42  1  0
 15 43  1  0
 16 44  1  0
 16 45  1  0
 16 46  1  0
 21 47  1  0
 22 48  1  0
 24 49  1  0
 24 50  1  0
 25 51  1  0
M  CHG  2  12   1  16   1
M  END
>  <mol_id>  (53) 
2026-08-24-6tgu-s0-n100-seed1-0055

>  <rmsd_to_ref>  (53) 


$$$$

     RDKit          3D

 41 43  0  0  0  0  0  0  0  0999 V2000
    1.4290   21.0570   39.9350 C   0  0  0  0  0  0  0  0  0  0  0  0
    0.6230   18.8910   40.9860 O   0  0  0  0  0  0  0  0  0  0  0  0
    2.2640   13.9730   41.4790 C   0  0  0  0  0  0  0  0  0  0  0  0
    1.4060   14.8010   42.2400 C   0  0  0  0  0  0  0  0  0  0  0  0
    0.1860   20.8500   42.1970 C   0  0  0  0  0  0  0  0  0  0  0  0
    1.9260   16.7310   41.3880 O   0  0  0  0  0  0  0  0  0  0  0  0
    2.2070   20.0700   39.0980 C   0  0  0  0  0  0  0  0  0  0  0  0
    3.3410   20.1330   36.7870 C   0  0  0  0  0  0  0  0  0  0  0  0
    0.7540   14.3200   43.3190 C   0  0  0  0  0  0  0  0  0  0  0  0
    3.7680   18.8550   36.6770 N   0  0  0  0  0  0  0  0  0  0  0  0
    3.6140   17.9160   37.5700 C   0  0  0  0  0  0  0  0  0  0  0  0
   -0.9880   16.2130   45.8990 C   0  0  0  0  0  0  0  0  0  0  0  0
    3.5100   20.9630   35.8510 O   0  0  0  0  0  0  0  0  0  0  0  0
    2.3400   18.7550   39.4550 N   0  0  0  0  0  0  0  0  0  0  0  0
   -0.2140   16.4560   43.7320 C   0  0  0  0  0  0  0  0  0  0  0  0
    0.3690   17.0440   42.6500 C   0  0  1  0  0  0  0  0  0  0  0  0
   -0.0950   15.1690   44.0570 C   0  0  0  0  0  0  0  0  0  0  0  0
    1.3020   16.1990   42.0250 C   0  0  0  0  0  0  0  0  0  0  0  0
   -0.2120   19.6680   42.8510 N   0  0  0  0  0  0  0  0  0  0  0  0
    2.6190   20.6020   37.8970 C   0  0  0  0  0  0  0  0  0  0  0  0
    3.0560   13.1940   40.9030 N   0  0  0  0  0  0  0  0  0  0  0  0
   -1.0320   17.3170   44.5280 O   0  0  0  0  0  0  0  0  0  0  0  0
    0.1440   18.4590   42.1920 C   0  0  0  0  0  0  0  0  0  0  0  0
    3.0700   17.9670   38.7260 C   0  0  0  0  0  0  0  0  0  0  0  0
    1.1050   20.2250   41.1790 C   0  0  2  0  0  0  0  0  0  0  0  0
    2.0397   21.9360   40.1888 H   0  0  0  0  0  0  0  0  0  0  0  0
    0.5422   21.4679   39.4302 H   0  0  0  0  0  0  0  0  0  0  0  0
   -0.6610   21.3728   41.7287 H   0  0  0  0  0  0  0  0  0  0  0  0
    0.6292   21.6294   42.8343 H   0  0  0  0  0  0  0  0  0  0  0  0
    0.8845   13.2704   43.6211 H   0  0  0  0  0  0  0  0  0  0  0  0
    4.2599   18.5991   35.8090 H   0  0  0  0  0  0  0  0  0  0  0  0
    4.0127   16.9312   37.2850 H   0  0  0  0  0  0  0  0  0  0  0  0
   -1.0110   16.7900   46.8353 H   0  0  0  0  0  0  0  0  0  0  0  0
   -1.8602   15.5439   45.8591 H   0  0  0  0  0  0  0  0  0  0  0  0
   -0.0653   15.6154   45.8591 H   0  0  0  0  0  0  0  0  0  0  0  0
    1.2031   17.3814   43.2828 H   0  0  0  0  0  0  0  0  0  0  0  0
   -0.6639   14.7662   44.9080 H   0  0  0  0  0  0  0  0  0  0  0  0
    3.2042   21.4789   38.2110 H   0  0  0  0  0  0  0  0  0  0  0  0
    1.6363   20.5008   37.4131 H   0  0  0  0  0  0  0  0  0  0  0  0
    3.2925   17.0449   39.2830 H   0  0  0  0  0  0  0  0  0  0  0  0
    2.1361   20.1883   41.5603 H   0  0  0  0  0  0  0  0  0  0  0  0
  2 25  1  0
  2 23  1  0
  3  4  1  0
  4  9  2  0
  5 19  1  0
  6 18  2  0
  7 14  2  0
  7  1  1  0
  8 20  1  0
  9 17  1  0
 10  8  1  0
 10 11  1  0
 11 24  2  0
 13  8  2  0
 15 17  2  0
 15 22  1  0
 16 23  1  0
 16 15  1  0
 18  4  1  0
 18 16  1  0
 20  7  1  0
 21  3  3  0
 22 12  1  0
 23 19  2  0
 24 14  1  0
 25  1  1  0
 25  5  1  0
  1 26  1  0
  1 27  1  0
  5 28  1  0
  5 29  1  0
  9 30  1  0
 10 31  1  0
 11 32  1  0
 12 33  1  0
 12 34  1  0
 12 35  1  0
 16 36  1  6
 17 37  1  0
 20 38  1  0
 20 39  1  0
 24 40  1  0
 25 41  1  1
M  END
>  <mol_id>  (54) 
2026-08-24-6tgu-s0-n100-seed1-0056

>  <rmsd_to_ref>  (54) 


$$$$

     RDKit          3D

 21 21  0  0  0  0  0  0  0  0999 V2000
    3.5561   19.3790   37.2496 C   0  0  0  0  0  0  0  0  0  0  0  0
    1.7700   17.0926   39.8060 C   0  0  0  0  0  0  0  0  0  0  0  0
    0.7488   21.5419   41.9074 C   0  0  0  0  0  0  0  0  0  0  0  0
    2.9010   19.2207   38.2736 C   0  0  0  0  0  0  0  0  0  0  0  0
    2.0707   20.5061   39.9175 N   0  0  0  0  0  0  0  0  0  0  0  0
    2.1320   19.2784   39.4186 C   0  0  0  0  0  0  0  0  0  0  0  0
    1.1464   20.4054   41.0577 C   0  0  1  0  0  0  0  0  0  0  0  0
    0.6666   19.1249   41.1097 C   0  0  0  0  0  0  0  0  0  0  0  0
   -0.5664   21.3139   42.4429 N   0  0  0  0  0  0  0  0  0  0  0  0
    1.3627   18.3206   40.1906 C   0  0  0  0  0  0  0  0  0  0  0  0
    4.1439   19.5210   36.3307 H   0  0  0  0  0  0  0  0  0  0  0  0
    1.8217   16.4317   40.6838 H   0  0  0  0  0  0  0  0  0  0  0  0
    1.0554   16.6806   39.0783 H   0  0  0  0  0  0  0  0  0  0  0  0
    2.7649   17.1648   39.3422 H   0  0  0  0  0  0  0  0  0  0  0  0
    0.7434   22.4630   41.3060 H   0  0  0  0  0  0  0  0  0  0  0  0
    1.4652   21.6439   42.7358 H   0  0  0  0  0  0  0  0  0  0  0  0
    0.3093   20.6926   40.4045 H   0  0  0  0  0  0  0  0  0  0  0  0
   -0.1413   18.7776   41.7705 H   0  0  0  0  0  0  0  0  0  0  0  0
   -0.5294   21.3507   43.4716 H   0  0  0  0  0  0  0  0  0  0  0  0
   -1.2090   22.0404   42.0962 H   0  0  0  0  0  0  0  0  0  0  0  0
   -0.9027   20.3871   42.1444 H   0  0  0  0  0  0  0  0  0  0  0  0
  1  4  3  0
  2 10  1  0
  3  9  1  0
  4  6  1  0
  5  7  1  0
  6  5  2  0
  6 10  1  0
  7  8  1  0
  7  3  1  0
 10  8  2  0
  1 11  1  0
  2 12  1  0
  2 13  1  0
  2 14  1  0
  3 15  1  0
  3 16  1  0
  7 17  1  1
  8 18  1  0
  9 19  1  0
  9 20  1  0
  9 21  1  0
M  CHG  1   9   1
M  END
>  <mol_id>  (55) 
2026-08-24-6tgu-s0-n100-seed1-0057

>  <rmsd_to_ref>  (55) 


$$$$

     RDKit          3D

 49 50  0  0  0  0  0  0  0  0999 V2000
    3.1955   18.5667   38.7935 C   0  0  0  0  0  0  0  0  0  0  0  0
    4.4488   15.9630   36.9452 C   0  0  0  0  0  0  0  0  0  0  0  0
   -1.3744   14.1723   45.6040 C   0  0  0  0  0  0  0  0  0  0  0  0
   -0.7405   15.8110   43.9107 C   0  0  0  0  0  0  0  0  0  0  0  0
   -1.0025   18.9307   43.7712 C   0  0  0  0  0  0  0  0  0  0  0  0
    0.8333   18.8381   40.2756 N   0  0  0  0  0  0  0  0  0  0  0  0
    0.1721   17.5389   42.3370 C   0  0  0  0  0  0  0  0  0  0  0  0
    1.4297   20.1418   40.2887 C   0  0  0  0  0  0  0  0  0  0  0  0
    2.0733   20.6981   39.1614 N   0  0  0  0  0  0  0  0  0  0  0  0
    4.9373   15.3064   35.6671 O   0  0  0  0  0  0  0  0  0  0  0  0
   -1.3210   15.5027   45.2089 C   0  0  0  0  0  0  0  0  0  0  0  0
    3.5924   17.1179   36.7635 C   0  0  0  0  0  0  0  0  0  0  0  0
    3.6397   17.9547   35.8754 O   0  0  0  0  0  0  0  0  0  0  0  0
   -1.6389   18.0098   44.2638 N   0  0  0  0  0  0  0  0  0  0  0  0
    1.2965   16.9513   42.2387 O   0  0  0  0  0  0  0  0  0  0  0  0
    2.6934   19.9281   38.3066 C   0  0  2  0  0  0  0  0  0  0  0  0
   -0.2955   14.8511   43.1080 C   0  0  0  0  0  0  0  0  0  0  0  0
   -0.3895   13.4298   43.3800 C   0  0  0  0  0  0  0  0  0  0  0  0
    1.2649   20.7947   41.3090 O   0  0  0  0  0  0  0  0  0  0  0  0
   -0.2354   18.6502   41.4211 C   0  0  0  0  0  0  0  0  0  0  0  0
   -1.0265   20.2162   43.9700 N   0  0  0  0  0  0  0  0  0  0  0  0
    2.6023   17.2463   37.9102 C   0  0  0  0  0  0  0  0  0  0  0  0
   -1.0072   13.0780   44.7058 C   0  0  0  0  0  0  0  0  0  0  0  0
    3.0061   21.4393   36.8726 O   0  0  0  0  0  0  0  0  0  0  0  0
    2.8131   20.2792   37.1195 C   0  0  0  0  0  0  0  0  0  0  0  0
   -0.6427   17.3752   43.5988 C   0  0  1  0  0  0  0  0  0  0  0  0
   -1.1649   11.6282   45.0350 C   0  0  0  0  0  0  0  0  0  0  0  0
    4.2935   18.5605   38.7264 H   0  0  0  0  0  0  0  0  0  0  0  0
    2.8290   18.4461   39.8237 H   0  0  0  0  0  0  0  0  0  0  0  0
    3.8874   15.2113   37.5196 H   0  0  0  0  0  0  0  0  0  0  0  0
    5.3488   16.3313   37.4595 H   0  0  0  0  0  0  0  0  0  0  0  0
   -1.7037   13.9337   46.6261 H   0  0  0  0  0  0  0  0  0  0  0  0
    1.0757   18.1051   39.5938 H   0  0  0  0  0  0  0  0  0  0  0  0
    2.0538   21.7170   39.0119 H   0  0  0  0  0  0  0  0  0  0  0  0
    5.3672   14.4414   35.8839 H   0  0  0  0  0  0  0  0  0  0  0  0
   -1.7070   16.3013   45.8594 H   0  0  0  0  0  0  0  0  0  0  0  0
   -2.4640   17.8226   44.8511 H   0  0  0  0  0  0  0  0  0  0  0  0
    3.6445   20.4246   38.5493 H   0  0  0  0  0  0  0  0  0  0  0  0
    0.1806   15.1576   42.1649 H   0  0  0  0  0  0  0  0  0  0  0  0
   -0.0360   12.6669   42.6708 H   0  0  0  0  0  0  0  0  0  0  0  0
   -0.3170   19.5836   41.9974 H   0  0  0  0  0  0  0  0  0  0  0  0
   -1.2057   18.4009   40.9668 H   0  0  0  0  0  0  0  0  0  0  0  0
   -1.9100   20.7362   43.8706 H   0  0  0  0  0  0  0  0  0  0  0  0
    1.5883   17.4476   37.5343 H   0  0  0  0  0  0  0  0  0  0  0  0
    2.5194   16.3290   38.5115 H   0  0  0  0  0  0  0  0  0  0  0  0
    2.7433   19.5394   36.3084 H   0  0  0  0  0  0  0  0  0  0  0  0
   -1.1587   11.4975   46.1272 H   0  0  0  0  0  0  0  0  0  0  0  0
   -2.1184   11.2613   44.6273 H   0  0  0  0  0  0  0  0  0  0  0  0
   -0.3338   11.0593   44.5929 H   0  0  0  0  0  0  0  0  0  0  0  0
  4 11  1  0
  5 26  1  0
  5 14  1  0
  6 20  1  0
  7 15  2  0
  8  6  1  0
  8 19  2  0
  9  8  1  0
 10  2  1  0
 11  3  2  0
 12  2  1  0
 12 22  1  0
 13 12  2  0
 16 25  1  0
 16  9  1  0
 16  1  1  0
 17 18  1  0
 17  4  2  0
 18 23  2  0
 20  7  1  0
 21  5  2  3
 22  1  1  0
 23 27  1  0
 23  3  1  0
 24 25  2  0
 26  7  1  6
 26 14  1  0
 26  4  1  0
  1 28  1  0
  1 29  1  0
  2 30  1  0
  2 31  1  0
  3 32  1  0
  6 33  1  0
  9 34  1  0
 10 35  1  0
 11 36  1  0
 14 37  1  0
 16 38  1  1
 17 39  1  0
 18 40  1  0
 20 41  1  0
 20 42  1  0
 21 43  1  0
 22 44  1  0
 22 45  1  0
 25 46  1  0
 27 47  1  0
 27 48  1  0
 27 49  1  0
M  END
>  <mol_id>  (56) 
2026-08-24-6tgu-s0-n100-seed1-0058

>  <rmsd_to_ref>  (56) 


$$$$

     RDKit          3D

 33 35  0  0  0  0  0  0  0  0999 V2000
    1.1513   18.5506   40.6589 C   0  0  0  0  0  0  0  0  0  0  0  0
    2.3629   20.4382   37.6658 C   0  0  0  0  0  0  0  0  0  0  0  0
    1.5145   19.7090   39.9116 C   0  0  0  0  0  0  0  0  0  0  0  0
    0.8500   18.5798   41.9959 N   0  0  0  0  0  0  0  0  0  0  0  0
   -0.4568   17.1304   44.4610 C   0  0  0  0  0  0  0  0  0  0  0  0
    1.8866   18.3732   38.0624 C   0  0  0  0  0  0  0  0  0  0  0  0
    1.9360   17.3765   36.0500 O   0  0  0  0  0  0  0  0  0  0  0  0
    0.3996   17.5725   42.3029 O   0  0  0  0  0  0  0  0  0  0  0  0
   -0.4325   16.8738   43.0567 C   0  0  0  0  0  0  0  0  0  0  0  0
    2.9265   21.4456   35.4489 O   0  0  0  0  0  0  0  0  0  0  0  0
   -0.6806   15.5149   42.5585 C   0  0  0  0  0  0  0  0  0  0  0  0
    2.2496   18.4067   36.8208 N   0  0  0  0  0  0  0  0  0  0  0  0
    1.0891   17.4094   40.1581 N   0  0  0  0  0  0  0  0  0  0  0  0
   -0.9144   16.1468   45.3302 C   0  0  0  0  0  0  0  0  0  0  0  0
   -1.1943   14.6520   43.4926 C   0  0  0  0  0  0  0  0  0  0  0  0
   -1.0320   16.3214   46.6580 O   0  0  0  0  0  0  0  0  0  0  0  0
    3.2968   20.2277   35.5863 O   0  0  0  0  0  0  0  0  0  0  0  0
   -1.7667   13.9600   45.6765 F   0  0  0  0  0  0  0  0  0  0  0  0
   -1.3021   14.8863   44.8092 C   0  0  0  0  0  0  0  0  0  0  0  0
    2.7107   19.7115   36.6056 C   0  0  0  0  0  0  0  0  0  0  0  0
    1.8903   19.5337   38.6440 C   0  0  0  0  0  0  0  0  0  0  0  0
    1.6503   17.3610   38.7712 N   0  0  0  0  0  0  0  0  0  0  0  0
    2.4304   21.5320   37.7619 H   0  0  0  0  0  0  0  0  0  0  0  0
    0.6454   20.3833   39.9069 H   0  0  0  0  0  0  0  0  0  0  0  0
    2.4107   20.0977   40.4172 H   0  0  0  0  0  0  0  0  0  0  0  0
    1.0043   19.3808   42.6248 H   0  0  0  0  0  0  0  0  0  0  0  0
   -0.1155   18.1001   44.8526 H   0  0  0  0  0  0  0  0  0  0  0  0
    2.2003   17.3736   35.0960 H   0  0  0  0  0  0  0  0  0  0  0  0
    2.8514   21.8702   36.3400 H   0  0  0  0  0  0  0  0  0  0  0  0
   -0.4716   15.2138   41.5213 H   0  0  0  0  0  0  0  0  0  0  0  0
   -1.5511   13.6773   43.1285 H   0  0  0  0  0  0  0  0  0  0  0  0
   -1.3645   15.5825   47.2269 H   0  0  0  0  0  0  0  0  0  0  0  0
    1.8570   16.4353   38.3695 H   0  0  0  0  0  0  0  0  0  0  0  0
  1  4  1  0
  2 21  1  0
  3  1  1  0
  4  8  1  0
  5 14  1  0
  6 21  2  0
  6 22  1  0
  7 12  1  0
  8  9  1  0
  9  5  2  0
 10 17  1  0
 11  9  1  0
 11 15  2  0
 12  6  1  0
 13  1  2  0
 14 16  1  0
 15 19  1  0
 17 20  1  0
 19 14  2  0
 19 18  1  0
 20 12  1  0
 20  2  2  0
 21  3  1  0
 22 13  1  0
  2 23  1  0
  3 24  1  0
  3 25  1  0
  4 26  1  0
  5 27  1  0
  7 28  1  0
 10 29  1  0
 11 30  1  0
 15 31  1  0
 16 32  1  0
 22 33  1  0
M  END
>  <mol_id>  (57) 
2026-08-24-6tgu-s0-n100-seed1-0060

>  <rmsd_to_ref>  (57) 


$$$$

     RDKit          3D

 30 30  0  0  0  0  0  0  0  0999 V2000
    2.7748   20.2849   38.1801 C   0  0  0  0  0  0  0  0  0  0  0  0
   -0.8369   17.2384   45.5594 C   0  0  0  0  0  0  0  0  0  0  0  0
   -0.1123   18.0434   44.6186 O   0  0  0  0  0  0  0  0  0  0  0  0
    0.9283   16.7644   40.2366 C   0  0  0  0  0  0  0  0  0  0  0  0
    3.2400   20.4648   36.8530 C   0  0  0  0  0  0  0  0  0  0  0  0
    3.0452   21.4351   36.2545 O   0  0  0  0  0  0  0  0  0  0  0  0
    0.2488   18.2548   42.2786 N   0  0  0  0  0  0  0  0  0  0  0  0
    0.8932   18.9142   41.2612 C   0  0  0  0  0  0  0  0  0  0  0  0
   -1.7014   19.0410   43.4193 O   0  0  0  0  0  0  0  0  0  0  0  0
    2.2192   16.8254   38.4164 C   0  0  0  0  0  0  0  0  0  0  0  0
    2.8818   19.0139   38.5961 O   0  0  0  0  0  0  0  0  0  0  0  0
    3.6011   19.2664   36.3728 O   0  0  0  0  0  0  0  0  0  0  0  0
    2.8764   16.3913   37.3208 O   0  0  0  0  0  0  0  0  0  0  0  0
   -1.3245   15.8043   45.2388 C   0  0  0  0  0  0  0  0  0  0  0  0
    0.3163   16.1546   41.1313 O   0  0  0  0  0  0  0  0  0  0  0  0
    1.3713   18.0632   40.2196 C   0  0  0  0  0  0  0  0  0  0  0  0
    1.0859   20.2887   41.2474 C   0  0  0  0  0  0  0  0  0  0  0  0
    2.2381   18.0394   39.0734 C   0  0  0  0  0  0  0  0  0  0  0  0
   -0.5860   18.5104   43.3886 C   0  0  0  0  0  0  0  0  0  0  0  0
    1.4094   15.9660   39.1495 O   0  0  0  0  0  0  0  0  0  0  0  0
    1.7169   20.5829   38.2262 H   0  0  0  0  0  0  0  0  0  0  0  0
    3.3998   20.9051   38.8395 H   0  0  0  0  0  0  0  0  0  0  0  0
   -0.1892   17.1482   46.4439 H   0  0  0  0  0  0  0  0  0  0  0  0
   -1.7888   17.7848   45.6311 H   0  0  0  0  0  0  0  0  0  0  0  0
   -1.4393   15.2383   46.1750 H   0  0  0  0  0  0  0  0  0  0  0  0
   -2.2927   15.8538   44.7192 H   0  0  0  0  0  0  0  0  0  0  0  0
   -0.5879   15.3020   44.5945 H   0  0  0  0  0  0  0  0  0  0  0  0
    1.1793   20.6562   42.2799 H   0  0  0  0  0  0  0  0  0  0  0  0
    2.0044   20.5246   40.6898 H   0  0  0  0  0  0  0  0  0  0  0  0
    0.2270   20.7745   40.7615 H   0  0  0  0  0  0  0  0  0  0  0  0
  1 11  1  0
  3  2  1  0
  4 15  2  0
  5  1  1  0
  6  5  2  0
  7 19  1  0
  8  7  2  3
  9 19  2  0
 10 18  1  0
 10 20  1  0
 11 18  1  0
 12  5  1  0
 13 10  2  0
 14  2  1  0
 16  4  1  0
 16  8  1  0
 17  8  1  0
 18 16  2  0
 19  3  1  0
 20  4  1  0
  1 21  1  0
  1 22  1  0
  2 23  1  0
  2 24  1  0
 14 25  1  0
 14 26  1  0
 14 27  1  0
 17 28  1  0
 17 29  1  0
 17 30  1  0
M  CHG  1  12  -1
M  END
>  <mol_id>  (58) 
2026-08-24-6tgu-s0-n100-seed1-0061

>  <rmsd_to_ref>  (58) 


$$$$

     RDKit          3D

 21 21  0  0  0  0  0  0  0  0999 V2000
    2.7087   19.9969   36.8777 O   0  0  0  0  0  0  0  0  0  0  0  0
    0.8154   17.3993   42.8293 O   0  0  0  0  0  0  0  0  0  0  0  0
    4.1596   18.5022   36.4206 O   0  0  0  0  0  0  0  0  0  0  0  0
    0.1379   21.7043   40.8621 F   0  0  0  0  0  0  0  0  0  0  0  0
    1.9518   18.0460   40.7581 C   0  0  0  0  0  0  0  0  0  0  0  0
    0.6841   20.5235   40.8618 C   0  0  0  0  0  0  0  0  0  0  0  0
    1.0615   18.3364   41.8164 C   0  0  0  0  0  0  0  0  0  0  0  0
    3.3751   19.0223   37.2543 C   0  0  0  0  0  0  0  0  0  0  0  0
    1.5928   20.2297   39.8440 C   0  0  0  0  0  0  0  0  0  0  0  0
   -0.4698   17.2794   43.4038 C   0  0  0  0  0  0  0  0  0  0  0  0
    3.3649   18.5988   38.7112 C   0  0  0  0  0  0  0  0  0  0  0  0
    2.2526   18.9690   39.7510 C   0  0  0  0  0  0  0  0  0  0  0  0
    0.4353   19.5684   41.8522 C   0  0  0  0  0  0  0  0  0  0  0  0
    2.4273   17.0546   40.7250 H   0  0  0  0  0  0  0  0  0  0  0  0
    1.8077   20.9980   39.0867 H   0  0  0  0  0  0  0  0  0  0  0  0
   -0.4335   17.6034   44.4544 H   0  0  0  0  0  0  0  0  0  0  0  0
   -1.1796   17.9112   42.8496 H   0  0  0  0  0  0  0  0  0  0  0  0
   -0.7970   16.2304   43.3547 H   0  0  0  0  0  0  0  0  0  0  0  0
    3.3970   17.4994   38.6963 H   0  0  0  0  0  0  0  0  0  0  0  0
    4.2017   19.2000   39.0963 H   0  0  0  0  0  0  0  0  0  0  0  0
   -0.2657   19.7996   42.6679 H   0  0  0  0  0  0  0  0  0  0  0  0
  1  8  1  0
  2 10  1  0
  3  8  2  0
  5  7  2  0
  6  4  1  0
  6 13  2  0
  7 13  1  0
  7  2  1  0
  8 11  1  0
  9  6  1  0
 11 12  1  0
 12  9  2  0
 12  5  1  0
  5 14  1  0
  9 15  1  0
 10 16  1  0
 10 17  1  0
 10 18  1  0
 11 19  1  0
 11 20  1  0
 13 21  1  0
M  CHG  1   1  -1
M  END
>  <mol_id>  (59) 
2026-08-24-6tgu-s0-n100-seed1-0062

>  <rmsd_to_ref>  (59) 


$$$$

     RDKit          3D

 35 39  0  0  0  0  0  0  0  0999 V2000
   -0.6931   20.5778   44.5340 N   0  0  0  0  0  0  0  0  0  0  0  0
    2.8843   18.4903   37.2810 C   0  0  0  0  0  0  0  0  0  0  0  0
    1.4010   19.3588   40.6907 C   0  0  0  0  0  0  0  0  0  0  0  0
    0.1650   13.2710   43.1592 Cl  0  0  0  0  0  0  0  0  0  0  0  0
    2.2383   16.2337   39.3743 O   0  0  0  0  0  0  0  0  0  0  0  0
    1.9988   21.5302   39.4257 C   0  0  0  0  0  0  0  0  0  0  0  0
    4.1778   16.5975   36.3332 C   0  0  0  0  0  0  0  0  0  0  0  0
    0.4799   17.6802   42.2398 C   0  0  0  0  0  0  0  0  0  0  0  0
   -0.2961   15.9074   43.7089 C   0  0  0  0  0  0  0  0  0  0  0  0
    0.9475   15.2686   41.7213 C   0  0  0  0  0  0  0  0  0  0  0  0
    2.3190   19.0797   38.5541 C   0  0  0  0  0  0  0  0  0  0  0  0
    1.0216   16.6191   41.3808 C   0  0  0  0  0  0  0  0  0  0  0  0
    2.3415   20.5351   38.4002 C   0  0  0  0  0  0  0  0  0  0  0  0
    0.4681   20.2544   42.3983 C   0  0  0  0  0  0  0  0  0  0  0  0
    2.7957   20.7909   37.0451 N   0  0  0  0  0  0  0  0  0  0  0  0
    0.8992   21.2654   41.6973 N   0  0  0  0  0  0  0  0  0  0  0  0
    0.7289   19.0360   41.8089 C   0  0  2  0  0  0  0  0  0  0  0  0
    3.1482   17.1615   37.1396 N   0  0  0  0  0  0  0  0  0  0  0  0
    1.4867   20.7516   40.5827 C   0  0  0  0  0  0  0  0  0  0  0  0
    1.8578   18.4428   39.7370 C   0  0  0  0  0  0  0  0  0  0  0  0
    3.1422   19.5418   36.5056 N   0  0  0  0  0  0  0  0  0  0  0  0
   -0.2847   20.4481   43.5988 C   0  0  0  0  0  0  0  0  0  0  0  0
   -0.2135   17.2776   43.4083 C   0  0  0  0  0  0  0  0  0  0  0  0
    0.2749   14.9138   42.9026 C   0  0  0  0  0  0  0  0  0  0  0  0
    1.7577   17.0599   40.1176 C   0  0  0  0  0  0  0  0  0  0  0  0
    2.1003   22.6230   39.3521 H   0  0  0  0  0  0  0  0  0  0  0  0
    4.9044   16.0790   36.9761 H   0  0  0  0  0  0  0  0  0  0  0  0
    3.7374   15.8802   35.6250 H   0  0  0  0  0  0  0  0  0  0  0  0
    4.6868   17.3976   35.7758 H   0  0  0  0  0  0  0  0  0  0  0  0
   -0.8335   15.6009   44.6184 H   0  0  0  0  0  0  0  0  0  0  0  0
    1.4046   14.5002   41.0806 H   0  0  0  0  0  0  0  0  0  0  0  0
    2.8523   21.7052   36.5741 H   0  0  0  0  0  0  0  0  0  0  0  0
    1.6781   18.9721   42.3611 H   0  0  0  0  0  0  0  0  0  0  0  0
    2.5498   16.5061   37.6624 H   0  0  0  0  0  0  0  0  0  0  0  0
   -0.6788   18.0244   44.0684 H   0  0  0  0  0  0  0  0  0  0  0  0
  2 18  1  0
  2 11  1  0
  5 25  2  0
  6 19  1  0
  7 18  1  0
  8 23  1  0
 10 24  2  0
 11 20  2  0
 12 10  1  0
 12  8  2  0
 13 11  1  0
 13  6  2  0
 14 22  1  0
 15 13  1  0
 16 14  2  0
 17  3  1  0
 17 14  1  0
 17  8  1  0
 19  3  2  0
 19 16  1  0
 20 25  1  0
 20  3  1  0
 21 15  1  0
 21  2  2  0
 22  1  3  0
 23  9  2  0
 24  4  1  0
 24  9  1  0
 25 12  1  0
  6 26  1  0
  7 27  1  0
  7 28  1  0
  7 29  1  0
  9 30  1  0
 10 31  1  0
 15 32  1  0
 17 33  1  6
 18 34  1  0
 23 35  1  0
M  END
>  <mol_id>  (60) 
2026-08-24-6tgu-s0-n100-seed1-0063

>  <rmsd_to_ref>  (60) 


$$$$

     RDKit          3D

 47 48  0  0  0  0  0  0  0  0999 V2000
    0.2516   15.4281   42.9688 C   0  0  0  0  0  0  0  0  0  0  0  0
   -1.8234   15.1083   44.4254 N   0  0  0  0  0  0  0  0  0  0  0  0
   -1.2292   20.0458   43.2575 C   0  0  0  0  0  0  0  0  0  0  0  0
    3.3629   20.5946   37.0391 C   0  0  0  0  0  0  0  0  0  0  0  0
    2.4150   15.1521   40.3528 O   0  0  0  0  0  0  0  0  0  0  0  0
   -1.3455   21.3534   43.1885 O   0  0  0  0  0  0  0  0  0  0  0  0
    0.4552   20.8007   40.6158 C   0  0  0  0  0  0  0  0  0  0  0  0
    2.3138   19.0713   39.4568 C   0  0  0  0  0  0  0  0  0  0  0  0
   -1.9299   19.5119   44.2280 N   0  0  0  0  0  0  0  0  0  0  0  0
   -0.6689   14.5572   43.6205 C   0  0  1  0  0  0  0  0  0  0  0  0
    0.6255   19.5332   41.1302 C   0  0  0  0  0  0  0  0  0  0  0  0
    1.0817   15.7083   42.0510 C   0  0  1  0  0  0  0  0  0  0  0  0
    1.5708   18.6888   40.5386 C   0  0  0  0  0  0  0  0  0  0  0  0
    3.7042   19.3243   36.8738 O   0  0  0  0  0  0  0  0  0  0  0  0
    1.5550   13.5499   41.7806 C   0  0  0  0  0  0  0  0  0  0  0  0
    3.4189   21.3633   36.1025 O   0  0  0  0  0  0  0  0  0  0  0  0
   -0.4739   13.2673   43.3867 C   0  0  0  0  0  0  0  0  0  0  0  0
   -1.3336   17.0706   43.4144 O   0  0  0  0  0  0  0  0  0  0  0  0
   -0.3624   19.1770   42.3878 C   0  0  1  0  0  0  0  0  0  0  0  0
    2.1609   20.4517   38.9750 C   0  0  0  0  0  0  0  0  0  0  0  0
    0.4256   12.8052   42.5351 C   0  0  0  0  0  0  0  0  0  0  0  0
    3.1264   21.0066   38.2329 O   0  0  0  0  0  0  0  0  0  0  0  0
   -0.4062   17.6751   42.5039 C   0  0  0  0  0  0  0  0  0  0  0  0
    1.5332   14.7135   41.0356 C   0  0  2  0  0  0  0  0  0  0  0  0
    1.1853   21.2138   39.5376 C   0  0  0  0  0  0  0  0  0  0  0  0
    0.4467   16.9185   41.7175 N   0  0  0  0  0  0  0  0  0  0  0  0
   -0.4268   16.2816   42.8231 H   0  0  0  0  0  0  0  0  0  0  0  0
    1.0646   14.9129   43.5011 H   0  0  0  0  0  0  0  0  0  0  0  0
   -1.6481   14.9524   45.4283 H   0  0  0  0  0  0  0  0  0  0  0  0
   -1.9158   16.1183   44.2460 H   0  0  0  0  0  0  0  0  0  0  0  0
   -2.6930   14.6297   44.1504 H   0  0  0  0  0  0  0  0  0  0  0  0
    3.1061   15.5634   40.9303 H   0  0  0  0  0  0  0  0  0  0  0  0
   -0.2733   21.4840   41.0765 H   0  0  0  0  0  0  0  0  0  0  0  0
    3.0027   18.3698   38.9635 H   0  0  0  0  0  0  0  0  0  0  0  0
   -1.9132   18.4926   44.3748 H   0  0  0  0  0  0  0  0  0  0  0  0
   -2.4973   20.1117   44.8438 H   0  0  0  0  0  0  0  0  0  0  0  0
   -0.0377   14.5641   44.5213 H   0  0  0  0  0  0  0  0  0  0  0  0
    2.1502   15.7451   42.3098 H   0  0  0  0  0  0  0  0  0  0  0  0
    1.7215   17.6831   40.9580 H   0  0  0  0  0  0  0  0  0  0  0  0
    2.3049   13.7502   42.5601 H   0  0  0  0  0  0  0  0  0  0  0  0
    1.6363   12.8504   40.9355 H   0  0  0  0  0  0  0  0  0  0  0  0
   -1.0949   12.5409   43.9314 H   0  0  0  0  0  0  0  0  0  0  0  0
   -1.2233   19.1492   41.7036 H   0  0  0  0  0  0  0  0  0  0  0  0
    0.3623   11.7262   42.3310 H   0  0  0  0  0  0  0  0  0  0  0  0
    0.9258   14.4552   40.1557 H   0  0  0  0  0  0  0  0  0  0  0  0
    0.9752   22.2040   39.1068 H   0  0  0  0  0  0  0  0  0  0  0  0
    0.6391   17.2862   40.7748 H   0  0  0  0  0  0  0  0  0  0  0  0
  1 10  1  0
  3  9  1  0
  4 22  1  0
  6  3  2  0
  7 11  2  0
  8 13  2  0
 10  2  1  0
 11 19  1  0
 12 26  1  0
 12  1  1  0
 13 11  1  0
 14  4  1  0
 15 21  1  0
 16  4  2  0
 17 10  1  0
 19 23  1  0
 19  3  1  0
 20  8  1  0
 20 25  2  0
 21 17  2  0
 22 20  1  0
 23 18  2  0
 24  5  1  0
 24 15  1  0
 24 12  1  0
 25  7  1  0
 26 23  1  0
  1 27  1  0
  1 28  1  0
  2 29  1  0
  2 30  1  0
  2 31  1  0
  5 32  1  0
  7 33  1  0
  8 34  1  0
  9 35  1  0
  9 36  1  0
 10 37  1  1
 12 38  1  1
 13 39  1  0
 15 40  1  0
 15 41  1  0
 17 42  1  0
 19 43  1  1
 21 44  1  0
 24 45  1  6
 25 46  1  0
 26 47  1  0
M  CHG  2   2   1  14  -1
M  END
>  <mol_id>  (61) 
2026-08-24-6tgu-s0-n100-seed1-0064

>  <rmsd_to_ref>  (61) 


$$$$

     RDKit          3D

 55 60  0  0  0  0  0  0  0  0999 V2000
   -1.0156   13.5407   45.6070 O   0  0  0  0  0  0  0  0  0  0  0  0
    1.8162   14.0376   43.2384 C   0  0  0  0  0  0  0  0  0  0  0  0
    2.7138   11.9116   42.6824 C   0  0  0  0  0  0  0  0  0  0  0  0
    0.6722   19.3930   40.5532 C   0  0  0  0  0  0  0  0  0  0  0  0
    1.6805   20.1293   38.5109 C   0  0  0  0  0  0  0  0  0  0  0  0
    1.8739   17.6652   39.1107 C   0  0  0  0  0  0  0  0  0  0  0  0
    2.7642   20.2472   36.6474 C   0  0  0  0  0  0  0  0  0  0  0  0
    2.2323   18.8524   38.2224 C   0  0  0  0  0  0  0  0  0  0  0  0
   -0.8603   19.4374   42.6426 C   0  0  0  0  0  0  0  0  0  0  0  0
    3.0109   19.0064   37.1099 C   0  0  0  0  0  0  0  0  0  0  0  0
    2.2605   16.2712   38.8516 C   0  0  2  0  0  0  0  0  0  0  0  0
   -0.1329   19.8668   41.7301 N   0  0  0  0  0  0  0  0  0  0  0  0
    2.8267   15.2904   39.8713 C   0  0  2  0  0  0  0  0  0  0  0  0
    1.0053   20.3265   39.6672 C   0  0  0  0  0  0  0  0  0  0  0  0
   -0.3545   15.5851   44.3492 C   0  0  0  0  0  0  0  0  0  0  0  0
   -1.7735   18.2554   44.0550 C   0  0  0  0  0  0  0  0  0  0  0  0
    5.4141   15.8847   37.0247 C   0  0  0  0  0  0  0  0  0  0  0  0
    0.9202   13.3714   44.2134 C   0  0  0  0  0  0  0  0  0  0  0  0
    1.1560   18.0779   40.3156 C   0  0  0  0  0  0  0  0  0  0  0  0
   -0.5415   13.0188   46.8708 C   0  0  0  0  0  0  0  0  0  0  0  0
   -0.7028   18.0799   43.1702 C   0  0  0  0  0  0  0  0  0  0  0  0
    3.1114   20.7456   35.3599 C   0  0  0  0  0  0  0  0  0  0  0  0
    1.6287   15.3412   42.8858 C   0  0  0  0  0  0  0  0  0  0  0  0
    4.6604   16.3450   38.1156 O   0  0  0  0  0  0  0  0  0  0  0  0
    0.3345   17.2539   42.9026 N   0  0  0  0  0  0  0  0  0  0  0  0
    0.5088   16.1205   43.3727 C   0  0  0  0  0  0  0  0  0  0  0  0
   -0.1922   14.2126   44.7264 C   0  0  0  0  0  0  0  0  0  0  0  0
   -1.9796   19.4507   43.2859 N   0  0  0  0  0  0  0  0  0  0  0  0
    1.9528   20.9861   37.3861 O   0  0  0  0  0  0  0  0  0  0  0  0
    3.3315   21.0041   34.2527 N   0  0  0  0  0  0  0  0  0  0  0  0
    3.5442   15.4819   38.5317 C   0  0  2  0  0  0  0  0  0  0  0  0
    3.6336   14.0930   39.3407 C   0  0  0  0  0  0  0  0  0  0  0  0
    2.8607   13.3197   42.6962 O   0  0  0  0  0  0  0  0  0  0  0  0
    2.5790   11.5469   43.7114 H   0  0  0  0  0  0  0  0  0  0  0  0
    1.8349   11.6405   42.0791 H   0  0  0  0  0  0  0  0  0  0  0  0
    3.6135   11.4533   42.2459 H   0  0  0  0  0  0  0  0  0  0  0  0
    3.7005   18.2658   36.6788 H   0  0  0  0  0  0  0  0  0  0  0  0
    1.3644   16.4684   38.2448 H   0  0  0  0  0  0  0  0  0  0  0  0
   -0.0565   20.8911   41.8068 H   0  0  0  0  0  0  0  0  0  0  0  0
    2.4828   15.2958   40.9162 H   0  0  0  0  0  0  0  0  0  0  0  0
    0.7030   21.3591   39.8961 H   0  0  0  0  0  0  0  0  0  0  0  0
   -1.1354   16.2069   44.8115 H   0  0  0  0  0  0  0  0  0  0  0  0
   -2.5734   17.5032   43.9897 H   0  0  0  0  0  0  0  0  0  0  0  0
   -1.6787   18.2349   45.1508 H   0  0  0  0  0  0  0  0  0  0  0  0
    6.3468   15.4298   37.3894 H   0  0  0  0  0  0  0  0  0  0  0  0
    4.8333   15.1344   36.4683 H   0  0  0  0  0  0  0  0  0  0  0  0
    5.6528   16.7293   36.3616 H   0  0  0  0  0  0  0  0  0  0  0  0
    1.0681   12.3296   44.5339 H   0  0  0  0  0  0  0  0  0  0  0  0
    0.9783   17.3187   41.0915 H   0  0  0  0  0  0  0  0  0  0  0  0
   -1.0144   13.5711   47.6962 H   0  0  0  0  0  0  0  0  0  0  0  0
   -0.8004   11.9524   46.9474 H   0  0  0  0  0  0  0  0  0  0  0  0
    0.5507   13.1360   46.9294 H   0  0  0  0  0  0  0  0  0  0  0  0
    2.3526   15.8176   42.2084 H   0  0  0  0  0  0  0  0  0  0  0  0
    4.5725   13.7956   39.8307 H   0  0  0  0  0  0  0  0  0  0  0  0
    3.4229   13.0364   39.1188 H   0  0  0  0  0  0  0  0  0  0  0  0
  1 20  1  0
  2 18  1  0
  3 33  1  0
  4 12  1  0
  5 14  2  0
  6 19  1  0
  7 10  2  0
  7 29  1  0
  8  5  1  0
  8  6  2  0
  9 21  1  0
  9 28  2  0
 10  8  1  0
 11  6  1  0
 11 13  1  0
 12  9  1  0
 13 32  1  0
 14  4  1  0
 15 27  1  0
 17 24  1  0
 18 27  2  0
 19  4  2  0
 21 16  1  0
 22  7  1  0
 23  2  2  0
 23 26  1  0
 25 26  1  0
 25 21  2  3
 26 15  2  0
 27  1  1  0
 28 16  1  0
 29  5  1  0
 30 22  3  0
 31 24  1  6
 31 11  1  0
 31 32  1  0
 31 13  1  0
 33  2  1  0
  3 34  1  0
  3 35  1  0
  3 36  1  0
 10 37  1  0
 11 38  1  6
 12 39  1  0
 13 40  1  1
 14 41  1  0
 15 42  1  0
 16 43  1  0
 16 44  1  0
 17 45  1  0
 17 46  1  0
 17 47  1  0
 18 48  1  0
 19 49  1  0
 20 50  1  0
 20 51  1  0
 20 52  1  0
 23 53  1  0
 32 54  1  0
 32 55  1  0
M  END
>  <mol_id>  (62) 
2026-08-24-6tgu-s0-n100-seed1-0065

>  <rmsd_to_ref>  (62) 


$$$$

     RDKit          3D

 44 47  0  0  0  0  0  0  0  0999 V2000
   -1.2529   19.1584   42.6536 C   0  0  0  0  0  0  0  0  0  0  0  0
   -0.7550   16.5854   42.6792 C   0  0  0  0  0  0  0  0  0  0  0  0
    1.0854   15.6700   41.4048 C   0  0  0  0  0  0  0  0  0  0  0  0
   -0.7692   20.3703   42.3099 C   0  0  0  0  0  0  0  0  0  0  0  0
   -1.7524   12.1256   45.4012 C   0  0  0  0  0  0  0  0  0  0  0  0
   -0.9246   12.5360   44.1407 C   0  0  0  0  0  0  0  0  0  0  0  0
    0.5000   18.0468   41.1754 C   0  0  0  0  0  0  0  0  0  0  0  0
    3.4352   16.5863   38.5687 C   0  0  0  0  0  0  0  0  0  0  0  0
    3.1516   19.0059   38.4409 C   0  0  0  0  0  0  0  0  0  0  0  0
    0.0912   15.4577   42.3218 C   0  0  0  0  0  0  0  0  0  0  0  0
    1.2842   16.8756   40.7710 C   0  0  0  0  0  0  0  0  0  0  0  0
    0.5542   20.3889   40.4596 C   0  0  0  0  0  0  0  0  0  0  0  0
    4.4389   17.6940   36.8354 N   0  0  0  0  0  0  0  0  0  0  0  0
    3.9266   18.9299   37.2554 C   0  0  0  0  0  0  0  0  0  0  0  0
   -1.0565   13.8306   43.6773 N   0  0  0  0  0  0  0  0  0  0  0  0
   -2.1477   18.8674   43.5035 O   0  0  0  0  0  0  0  0  0  0  0  0
    1.0540   12.8067   42.5763 S   0  0  0  0  0  0  0  0  0  0  0  0
    4.1624   16.5141   37.4957 C   0  0  0  0  0  0  0  0  0  0  0  0
    0.1047   11.8239   43.6478 N   0  0  0  0  0  0  0  0  0  0  0  0
    2.9469   17.7926   39.1307 C   0  0  0  0  0  0  0  0  0  0  0  0
   -0.2117   20.9407   41.4178 C   0  0  0  0  0  0  0  0  0  0  0  0
    0.8448   19.1214   40.4567 C   0  0  0  0  0  0  0  0  0  0  0  0
   -0.4331   17.9609   42.1749 C   0  0  0  0  0  0  0  0  0  0  0  0
   -0.0535   14.0993   42.8400 C   0  0  1  0  0  0  0  0  0  0  0  0
    4.0712   19.9655   36.6467 O   0  0  0  0  0  0  0  0  0  0  0  0
    2.2556   17.1142   39.8094 N   0  0  0  0  0  0  0  0  0  0  0  0
   -1.6342   16.4290   43.3216 H   0  0  0  0  0  0  0  0  0  0  0  0
    1.7593   14.8351   41.1623 H   0  0  0  0  0  0  0  0  0  0  0  0
   -1.6679   20.9938   42.4263 H   0  0  0  0  0  0  0  0  0  0  0  0
    0.1823   20.1754   42.8262 H   0  0  0  0  0  0  0  0  0  0  0  0
   -1.3085   12.5848   46.2968 H   0  0  0  0  0  0  0  0  0  0  0  0
   -2.7901   12.4724   45.2872 H   0  0  0  0  0  0  0  0  0  0  0  0
   -1.7412   11.0307   45.5066 H   0  0  0  0  0  0  0  0  0  0  0  0
    3.1799   15.6451   39.0776 H   0  0  0  0  0  0  0  0  0  0  0  0
    2.1644   19.4091   38.1711 H   0  0  0  0  0  0  0  0  0  0  0  0
    3.7282   19.6416   39.1289 H   0  0  0  0  0  0  0  0  0  0  0  0
    0.9461   21.0284   39.6550 H   0  0  0  0  0  0  0  0  0  0  0  0
    4.5433   15.5502   37.1273 H   0  0  0  0  0  0  0  0  0  0  0  0
    0.3012   10.8383   43.8733 H   0  0  0  0  0  0  0  0  0  0  0  0
   -0.3391   22.0326   41.3770 H   0  0  0  0  0  0  0  0  0  0  0  0
    0.5720   18.8192   39.4348 H   0  0  0  0  0  0  0  0  0  0  0  0
    1.8074   19.2577   40.9713 H   0  0  0  0  0  0  0  0  0  0  0  0
    0.4979   14.3867   43.7473 H   0  0  0  0  0  0  0  0  0  0  0  0
    2.5297   16.1624   39.5272 H   0  0  0  0  0  0  0  0  0  0  0  0
  1 16  2  0
  3 10  2  0
  4  1  1  0
  6  5  1  0
  7 23  1  0
  8 20  2  0
  9 20  1  0
 10  2  1  0
 11  7  2  0
 11  3  1  0
 12 21  2  0
 13 14  1  0
 13 18  2  0
 14  9  1  0
 15  6  2  0
 17 24  1  0
 17 19  1  0
 18  8  1  0
 19  6  1  0
 20 26  1  0
 21  4  1  0
 22 12  1  0
 22  7  1  0
 23  2  2  0
 23  1  1  0
 24 10  1  0
 24 15  1  0
 25 14  2  0
 26 11  1  0
  2 27  1  0
  3 28  1  0
  4 29  1  0
  4 30  1  0
  5 31  1  0
  5 32  1  0
  5 33  1  0
  8 34  1  0
  9 35  1  0
  9 36  1  0
 12 37  1  0
 18 38  1  0
 19 39  1  0
 21 40  1  0
 22 41  1  0
 22 42  1  0
 24 43  1  6
 26 44  1  0
M  END
>  <mol_id>  (63) 
2026-08-24-6tgu-s0-n100-seed1-0066

>  <rmsd_to_ref>  (63) 


$$$$

     RDKit          3D

 37 39  0  0  0  0  0  0  0  0999 V2000
    0.0653   18.5792   41.8197 C   0  0  0  0  0  0  0  0  0  0  0  0
    3.5978   18.6076   36.7524 C   0  0  0  0  0  0  0  0  0  0  0  0
    0.7656   19.0876   40.7229 C   0  0  0  0  0  0  0  0  0  0  0  0
    1.6837   20.0622   38.0599 C   0  0  0  0  0  0  0  0  0  0  0  0
   -1.0960   18.8359   43.5549 N   0  0  0  0  0  0  0  0  0  0  0  0
    3.0110   18.0473   37.8790 C   0  0  0  0  0  0  0  0  0  0  0  0
    1.4648   18.2151   39.8913 C   0  0  0  0  0  0  0  0  0  0  0  0
   -0.6148   16.3391   43.2461 N   0  0  0  0  0  0  0  0  0  0  0  0
   -1.1248   16.4030   44.5726 C   0  0  0  0  0  0  0  0  0  0  0  0
    3.2812   19.8251   36.2192 C   0  0  0  0  0  0  0  0  0  0  0  0
    2.2360   20.5198   36.9119 C   0  0  0  0  0  0  0  0  0  0  0  0
    2.0613   18.7643   38.6186 C   0  0  0  0  0  0  0  0  0  0  0  0
    3.9587   20.3644   34.9929 C   0  0  0  0  0  0  0  0  0  0  0  0
    0.0598   17.2009   42.1344 C   0  0  0  0  0  0  0  0  0  0  0  0
    0.9069   16.4120   41.3022 C   0  0  0  0  0  0  0  0  0  0  0  0
   -0.7608   15.2651   45.4898 C   0  0  0  0  0  0  0  0  0  0  0  0
   -0.5788   19.5726   42.7129 N   0  0  0  0  0  0  0  0  0  0  0  0
    3.5170   21.3043   34.1747 N   0  0  0  0  0  0  0  0  0  0  0  0
   -0.2873   16.3974   45.7771 C   0  0  0  0  0  0  0  0  0  0  0  0
    1.6226   16.8824   40.2425 N   0  0  0  0  0  0  0  0  0  0  0  0
    4.3816   18.0237   36.2478 H   0  0  0  0  0  0  0  0  0  0  0  0
    0.7651   20.1683   40.5175 H   0  0  0  0  0  0  0  0  0  0  0  0
    0.9369   20.6781   38.5824 H   0  0  0  0  0  0  0  0  0  0  0  0
   -0.7887   19.1211   44.4957 H   0  0  0  0  0  0  0  0  0  0  0  0
   -2.1215   18.9093   43.4917 H   0  0  0  0  0  0  0  0  0  0  0  0
    3.2941   17.0320   38.1935 H   0  0  0  0  0  0  0  0  0  0  0  0
   -0.7337   15.3790   42.8928 H   0  0  0  0  0  0  0  0  0  0  0  0
   -1.9806   16.9906   44.2090 H   0  0  0  0  0  0  0  0  0  0  0  0
    1.8663   21.4668   36.4919 H   0  0  0  0  0  0  0  0  0  0  0  0
    4.9370   19.9263   34.7462 H   0  0  0  0  0  0  0  0  0  0  0  0
    0.9890   15.3397   41.5337 H   0  0  0  0  0  0  0  0  0  0  0  0
   -1.5338   14.8227   46.1354 H   0  0  0  0  0  0  0  0  0  0  0  0
   -0.3109   14.2747   45.3268 H   0  0  0  0  0  0  0  0  0  0  0  0
   -0.5906   20.6004   42.6472 H   0  0  0  0  0  0  0  0  0  0  0  0
    4.0825   21.5865   33.3614 H   0  0  0  0  0  0  0  0  0  0  0  0
    0.7951   16.5625   45.6720 H   0  0  0  0  0  0  0  0  0  0  0  0
   -0.3175   16.9969   46.6989 H   0  0  0  0  0  0  0  0  0  0  0  0
  1 14  2  0
  1 17  1  0
  2  6  2  0
  3  1  1  0
  4 12  2  0
  6 12  1  0
  7 20  1  0
  7  3  2  0
  8  9  1  0
  9 16  1  0
  9 19  1  0
 10 11  2  0
 10  2  1  0
 11  4  1  0
 12  7  1  0
 13 10  1  0
 14  8  1  0
 15 14  1  0
 16 19  1  0
 17  5  1  0
 18 13  2  3
 20 15  2  0
  2 21  1  0
  3 22  1  0
  4 23  1  0
  5 24  1  0
  5 25  1  0
  6 26  1  0
  8 27  1  0
  9 28  1  0
 11 29  1  0
 13 30  1  0
 15 31  1  0
 16 32  1  0
 16 33  1  0
 17 34  1  0
 18 35  1  0
 19 36  1  0
 19 37  1  0
M  END
>  <mol_id>  (64) 
2026-08-24-6tgu-s0-n100-seed1-0067

>  <rmsd_to_ref>  (64) 


$$$$

     RDKit          3D

 59 63  0  0  0  0  0  0  0  0999 V2000
   -1.3899   18.8461   43.6390 C   0  0  0  0  0  0  0  0  0  0  0  0
    0.9894   20.4365   40.1821 C   0  0  0  0  0  0  0  0  0  0  0  0
    2.7821   16.7920   37.7960 C   0  0  2  0  0  0  0  0  0  0  0  0
    5.2743   14.1542   38.1035 O   0  0  0  0  0  0  0  0  0  0  0  0
   -1.2052   19.9724   42.9074 N   0  0  0  0  0  0  0  0  0  0  0  0
    1.8713   21.1602   36.1794 O   0  0  0  0  0  0  0  0  0  0  0  0
    0.1117   15.4432   42.9422 C   0  0  0  0  0  0  0  0  0  0  0  0
    2.7489   20.2368   36.2818 C   0  0  0  0  0  0  0  0  0  0  0  0
    5.1295   14.3015   35.8666 O   0  0  0  0  0  0  0  0  0  0  0  0
   -1.7722   16.4485   46.1610 N   0  0  0  0  0  0  0  0  0  0  0  0
   -1.0078   14.2954   45.5775 S   0  0  0  0  0  0  0  0  0  0  0  0
   -0.6802   17.6940   43.3105 C   0  0  0  0  0  0  0  0  0  0  0  0
   -1.7294   15.4157   48.4138 C   0  0  0  0  0  0  0  0  0  0  0  0
   -0.3541   19.9576   41.8601 C   0  0  0  0  0  0  0  0  0  0  0  0
   -3.1348   15.1819   49.0172 C   0  0  0  0  0  0  0  0  0  0  0  0
    3.3293   18.8422   39.1048 C   0  0  0  0  0  0  0  0  0  0  0  0
    0.7084   16.2139   41.8312 C   0  0  0  0  0  0  0  0  0  0  0  0
    1.9638   16.9305   39.1597 C   0  0  0  0  0  0  0  0  0  0  0  0
    2.3590   18.2145   39.9354 C   0  0  2  0  0  0  0  0  0  0  0  0
    4.0788   16.2195   37.4781 N   0  0  0  0  0  0  0  0  0  0  0  0
    2.3753   19.0558   36.8995 N   0  0  0  0  0  0  0  0  0  0  0  0
    3.4211   13.4655   37.8015 O   0  0  0  0  0  0  0  0  0  0  0  0
   -0.7456   16.3606   43.8771 N   0  0  0  0  0  0  0  0  0  0  0  0
    0.1451   17.6746   42.2332 C   0  0  0  0  0  0  0  0  0  0  0  0
    1.2594   19.1059   40.5278 N   0  0  0  0  0  0  0  0  0  0  0  0
    3.9225   20.2685   35.7429 O   0  0  0  0  0  0  0  0  0  0  0  0
   -1.7125   15.3928   46.9903 C   0  0  1  0  0  0  0  0  0  0  0  0
    4.3881   14.6505   37.2748 P   0  0  0  0  0  5  0  0  0  0  0  0
    0.0437   20.9003   40.9930 N   0  0  0  0  0  0  0  0  0  0  0  0
    3.2866   18.2509   37.6554 C   0  0  2  0  0  0  0  0  0  0  0  0
   -1.2623   15.9204   44.9657 C   0  0  2  0  0  0  0  0  0  0  0  0
   -4.1137   15.7769   48.2032 O   0  0  0  0  0  0  0  0  0  0  0  0
    0.3847   18.7944   41.5545 C   0  0  1  0  0  0  0  0  0  0  0  0
   -1.1342   19.0942   44.6797 H   0  0  0  0  0  0  0  0  0  0  0  0
   -2.4361   18.5733   43.4359 H   0  0  0  0  0  0  0  0  0  0  0  0
    1.4780   21.0024   39.3752 H   0  0  0  0  0  0  0  0  0  0  0  0
    2.0726   16.1546   37.2482 H   0  0  0  0  0  0  0  0  0  0  0  0
    4.9691   14.2929   39.0350 H   0  0  0  0  0  0  0  0  0  0  0  0
    0.2522   14.3627   43.0930 H   0  0  0  0  0  0  0  0  0  0  0  0
   -2.7421   16.7739   46.0409 H   0  0  0  0  0  0  0  0  0  0  0  0
   -1.2538   17.2705   46.5024 H   0  0  0  0  0  0  0  0  0  0  0  0
   -1.3645   16.3972   48.7508 H   0  0  0  0  0  0  0  0  0  0  0  0
   -1.0875   14.5917   48.7587 H   0  0  0  0  0  0  0  0  0  0  0  0
   -3.3262   14.1009   49.0858 H   0  0  0  0  0  0  0  0  0  0  0  0
   -3.1764   15.6331   50.0195 H   0  0  0  0  0  0  0  0  0  0  0  0
    3.1218   19.9215   39.0602 H   0  0  0  0  0  0  0  0  0  0  0  0
    4.3275   18.6615   39.5301 H   0  0  0  0  0  0  0  0  0  0  0  0
    1.3407   15.8926   40.9903 H   0  0  0  0  0  0  0  0  0  0  0  0
    0.8890   16.9697   38.9286 H   0  0  0  0  0  0  0  0  0  0  0  0
    2.1984   16.0611   39.7914 H   0  0  0  0  0  0  0  0  0  0  0  0
    2.7674   17.9404   40.9194 H   0  0  0  0  0  0  0  0  0  0  0  0
    4.3659   16.6694   36.5972 H   0  0  0  0  0  0  0  0  0  0  0  0
    1.3982   18.7421   36.8114 H   0  0  0  0  0  0  0  0  0  0  0  0
    3.4002   13.4721   38.7913 H   0  0  0  0  0  0  0  0  0  0  0  0
   -2.3648   14.9072   47.7310 H   0  0  0  0  0  0  0  0  0  0  0  0
    4.2616   18.2523   37.1460 H   0  0  0  0  0  0  0  0  0  0  0  0
   -1.7148   16.4274   44.1008 H   0  0  0  0  0  0  0  0  0  0  0  0
   -4.8198   16.1735   48.7726 H   0  0  0  0  0  0  0  0  0  0  0  0
    1.1472   19.0849   42.2922 H   0  0  0  0  0  0  0  0  0  0  0  0
  2 25  1  0
  2 29  2  0
  3 20  1  0
  3 18  1  0
  5  1  1  0
  6  8  1  0
  7 23  1  0
  8 21  1  0
  9 28  2  0
 10 27  1  0
 11 27  1  0
 12  1  1  0
 12 23  1  0
 13 15  1  0
 14  5  2  0
 17 24  1  0
 17  7  2  0
 18 19  1  0
 19 16  1  0
 19 25  1  0
 24 12  2  0
 25 33  1  0
 26  8  2  0
 27 13  1  0
 28 20  1  0
 28 22  1  0
 28  4  1  0
 29 14  1  0
 30 21  1  0
 30  3  1  0
 30 16  1  0
 31 23  1  0
 31 11  1  0
 31 10  1  0
 32 15  1  0
 33 14  1  0
 33 24  1  0
  1 34  1  0
  1 35  1  0
  2 36  1  0
  3 37  1  6
  4 38  1  0
  7 39  1  0
 10 40  1  0
 10 41  1  0
 13 42  1  0
 13 43  1  0
 15 44  1  0
 15 45  1  0
 16 46  1  0
 16 47  1  0
 17 48  1  0
 18 49  1  0
 18 50  1  0
 19 51  1  1
 20 52  1  0
 21 53  1  0
 22 54  1  0
 27 55  1  6
 30 56  1  6
 31 57  1  6
 32 58  1  0
 33 59  1  1
M  CHG  2   6  -1  10   1
M  END
>  <mol_id>  (65) 
2026-08-24-6tgu-s0-n100-seed1-0068

>  <rmsd_to_ref>  (65) 


$$$$

     RDKit          3D

 17 18  0  0  0  0  0  0  0  0999 V2000
    3.2730   18.4540   38.2170 C   0  0  0  0  0  0  0  0  0  0  0  0
    2.1560   20.4440   38.8610 O   0  0  0  0  0  0  0  0  0  0  0  0
    0.8470   18.8030   42.3820 C   0  0  0  0  0  0  0  0  0  0  0  0
    1.7810   19.8320   39.9980 C   0  0  0  0  0  0  0  0  0  0  0  0
    2.8250   19.7340   37.9510 C   0  0  0  0  0  0  0  0  0  0  0  0
    2.9790   20.3730   36.8480 O   0  0  0  0  0  0  0  0  0  0  0  0
    2.0510   18.5010   40.2480 C   0  0  0  0  0  0  0  0  0  0  0  0
    2.8340   17.7920   39.3460 C   0  0  0  0  0  0  0  0  0  0  0  0
    0.6220   20.1500   42.0350 C   0  0  0  0  0  0  0  0  0  0  0  0
    1.5710   17.9280   41.4650 C   0  0  0  0  0  0  0  0  0  0  0  0
    1.0480   20.6510   40.8100 C   0  0  0  0  0  0  0  0  0  0  0  0
    3.9783   17.9634   37.5301 H   0  0  0  0  0  0  0  0  0  0  0  0
    0.4780   18.4118   43.3416 H   0  0  0  0  0  0  0  0  0  0  0  0
    3.0954   16.7387   39.5253 H   0  0  0  0  0  0  0  0  0  0  0  0
    0.1028   20.8135   42.7422 H   0  0  0  0  0  0  0  0  0  0  0  0
    1.7405   16.8674   41.7023 H   0  0  0  0  0  0  0  0  0  0  0  0
    0.8018   21.6782   40.5030 H   0  0  0  0  0  0  0  0  0  0  0  0
  1  8  2  0
  2  4  1  0
  4  7  1  0
  4 11  2  0
  5  1  1  0
  5  2  1  0
  6  5  2  0
  7 10  2  0
  8  7  1  0
  9  3  2  0
 10  3  1  0
 11  9  1  0
  1 12  1  0
  3 13  1  0
  8 14  1  0
  9 15  1  0
 10 16  1  0
 11 17  1  0
M  END
>  <mol_id>  (66) 
2026-08-24-6tgu-s0-n100-seed1-0069

>  <rmsd_to_ref>  (66) 


$$$$

     RDKit          3D

 24 26  0  0  0  0  0  0  0  0999 V2000
    1.7108   17.1320   40.2883 C   0  0  0  0  0  0  0  0  0  0  0  0
    2.8154   16.4595   36.9981 O   0  0  0  0  0  0  0  0  0  0  0  0
    1.7838   18.5739   40.3012 C   0  0  2  0  0  0  0  0  0  0  0  0
    2.4051   19.2734   39.0541 C   0  0  0  0  0  0  0  0  0  0  0  0
    2.6688   17.0960   38.0488 C   0  0  0  0  0  0  0  0  0  0  0  0
    3.3079   20.3162   36.4589 N   0  0  0  0  0  0  0  0  0  0  0  0
    0.2043   16.2359   43.4734 O   0  0  0  0  0  0  0  0  0  0  0  0
    1.1875   16.3616   41.3306 C   0  0  0  0  0  0  0  0  0  0  0  0
    2.1533   16.4662   39.1208 N   0  0  0  0  0  0  0  0  0  0  0  0
    2.7355   18.4508   37.9718 C   0  0  0  0  0  0  0  0  0  0  0  0
    0.6937   18.4629   42.5719 C   0  0  0  0  0  0  0  0  0  0  0  0
    1.2428   19.2107   41.4979 C   0  0  0  0  0  0  0  0  0  0  0  0
    3.2111   18.9783   36.6821 C   0  0  0  0  0  0  0  0  0  0  0  0
    0.6581   16.9932   42.5634 C   0  0  0  0  0  0  0  0  0  0  0  0
    2.4762   20.6487   38.8020 C   0  0  0  0  0  0  0  0  0  0  0  0
    2.9604   21.1228   37.5020 C   0  0  0  0  0  0  0  0  0  0  0  0
    0.7939   18.6283   39.8247 H   0  0  0  0  0  0  0  0  0  0  0  0
    0.3612   15.7764   40.9008 H   0  0  0  0  0  0  0  0  0  0  0  0
    2.0738   15.8242   41.6990 H   0  0  0  0  0  0  0  0  0  0  0  0
    0.2815   19.0003   43.4388 H   0  0  0  0  0  0  0  0  0  0  0  0
    1.2612   20.3082   41.5698 H   0  0  0  0  0  0  0  0  0  0  0  0
    3.4937   18.2764   35.8836 H   0  0  0  0  0  0  0  0  0  0  0  0
    2.1706   21.3693   39.5748 H   0  0  0  0  0  0  0  0  0  0  0  0
    3.0500   22.2096   37.3574 H   0  0  0  0  0  0  0  0  0  0  0  0
  1  8  1  0
  2  5  2  0
  3  1  1  0
  3 12  1  0
  4  3  1  0
  5  9  1  0
  6 13  1  0
  6 16  2  0
  8 14  1  0
  9  1  2  0
 10  5  1  0
 10  4  1  0
 11 14  1  0
 12 11  2  0
 13 10  2  0
 14  7  2  0
 15  4  2  0
 16 15  1  0
  3 17  1  6
  8 18  1  0
  8 19  1  0
 11 20  1  0
 12 21  1  0
 13 22  1  0
 15 23  1  0
 16 24  1  0
M  END
>  <mol_id>  (67) 
2026-08-24-6tgu-s0-n100-seed1-0070

>  <rmsd_to_ref>  (67) 


$$$$

     RDKit          3D

 47 51  0  0  0  0  0  0  0  0999 V2000
    3.3381   16.6812   40.0142 O   0  0  0  0  0  0  0  0  0  0  0  0
   -1.7137   17.6862   45.6846 N   0  0  0  0  0  0  0  0  0  0  0  0
    4.2100   15.4248   39.7311 C   0  0  0  0  0  0  0  0  0  0  0  0
   -0.0638   19.7980   41.6184 C   0  0  0  0  0  0  0  0  0  0  0  0
    2.2409   14.5692   42.1069 C   0  0  0  0  0  0  0  0  0  0  0  0
    4.5961   17.6243   36.8827 C   0  0  0  0  0  0  0  0  0  0  0  0
    1.3813   14.9339   43.2218 C   0  0  0  0  0  0  0  0  0  0  0  0
   -0.1118   15.5644   45.5762 C   0  0  0  0  0  0  0  0  0  0  0  0
    1.2484   14.0265   44.3523 C   0  0  0  0  0  0  0  0  0  0  0  0
    4.0108   17.3756   38.0061 N   0  0  0  0  0  0  0  0  0  0  0  0
   -0.8687   18.7996   43.6341 N   0  0  0  0  0  0  0  0  0  0  0  0
   -0.0398   16.5612   44.4766 C   0  0  0  0  0  0  0  0  0  0  0  0
    1.8562   20.6257   37.6825 C   0  0  0  0  0  0  0  0  0  0  0  0
    3.2839   17.6940   39.1073 C   0  0  0  0  0  0  0  0  0  0  0  0
   -0.7659   17.7365   44.4261 C   0  0  0  0  0  0  0  0  0  0  0  0
    0.8383   20.9405   38.7899 O   0  0  0  0  0  0  0  0  0  0  0  0
    1.7531   19.0292   40.3468 C   0  0  0  0  0  0  0  0  0  0  0  0
    0.7234   16.2660   43.2445 C   0  0  0  0  0  0  0  0  0  0  0  0
    0.5528   14.3438   45.5366 C   0  0  0  0  0  0  0  0  0  0  0  0
    3.0726   20.0942   38.2034 C   0  0  2  0  0  0  0  0  0  0  0  0
   -0.0948   18.6714   42.5580 C   0  0  0  0  0  0  0  0  0  0  0  0
    3.8867   20.2114   37.0745 C   0  0  0  0  0  0  0  0  0  0  0  0
    0.8058   17.6070   42.2810 C   0  0  0  0  0  0  0  0  0  0  0  0
    1.6219   17.9418   41.2652 N   0  0  0  0  0  0  0  0  0  0  0  0
    1.6428   20.9406   36.6130 O   0  0  0  0  0  0  0  0  0  0  0  0
    5.3856   16.4591   36.2904 C   0  0  0  0  0  0  0  0  0  0  0  0
    4.4834   18.9203   36.2757 N   0  0  0  0  0  0  0  0  0  0  0  0
    0.8288   20.1980   40.2697 C   0  0  0  0  0  0  0  0  0  0  0  0
    2.7075   19.0577   39.4532 N   0  0  0  0  0  0  0  0  0  0  0  0
   -1.6723   16.8836   46.3288 H   0  0  0  0  0  0  0  0  0  0  0  0
   -2.3746   18.4559   45.8628 H   0  0  0  0  0  0  0  0  0  0  0  0
    4.5213   14.9722   40.6841 H   0  0  0  0  0  0  0  0  0  0  0  0
    3.6246   14.6950   39.1525 H   0  0  0  0  0  0  0  0  0  0  0  0
    5.1008   15.7186   39.1565 H   0  0  0  0  0  0  0  0  0  0  0  0
   -0.8123   20.5656   41.8645 H   0  0  0  0  0  0  0  0  0  0  0  0
    3.1887   14.1649   42.4917 H   0  0  0  0  0  0  0  0  0  0  0  0
    1.7400   13.8071   41.4917 H   0  0  0  0  0  0  0  0  0  0  0  0
    2.4440   15.4597   41.4940 H   0  0  0  0  0  0  0  0  0  0  0  0
   -0.7187   15.8031   46.4621 H   0  0  0  0  0  0  0  0  0  0  0  0
    1.7184   13.0347   44.2779 H   0  0  0  0  0  0  0  0  0  0  0  0
    0.5366   13.6544   46.3937 H   0  0  0  0  0  0  0  0  0  0  0  0
    3.8791   20.3680   38.8995 H   0  0  0  0  0  0  0  0  0  0  0  0
    3.3029   20.7817   36.3370 H   0  0  0  0  0  0  0  0  0  0  0  0
    4.8004   20.6476   37.5046 H   0  0  0  0  0  0  0  0  0  0  0  0
    5.7986   15.8448   37.1041 H   0  0  0  0  0  0  0  0  0  0  0  0
    4.7193   15.8434   35.6682 H   0  0  0  0  0  0  0  0  0  0  0  0
    6.2074   16.8496   35.6723 H   0  0  0  0  0  0  0  0  0  0  0  0
  3  1  1  0
  4 21  2  0
  5  7  1  0
  6 10  1  0
  7 18  2  0
  7  9  1  0
  9 19  2  0
 10 14  2  0
 11 15  2  0
 12  8  2  0
 13 20  1  0
 13 16  1  0
 14 29  1  0
 14  1  1  0
 15 12  1  0
 15  2  1  0
 16 28  1  0
 17 24  1  0
 18 12  1  0
 19  8  1  0
 20 22  1  0
 20 29  1  0
 21 11  1  0
 23 21  1  0
 23 18  1  0
 24 23  2  0
 25 13  2  0
 26  6  1  0
 27  6  2  0
 27 22  1  0
 28 17  2  0
 28  4  1  0
 29 17  1  0
  2 30  1  0
  2 31  1  0
  3 32  1  0
  3 33  1  0
  3 34  1  0
  4 35  1  0
  5 36  1  0
  5 37  1  0
  5 38  1  0
  8 39  1  0
  9 40  1  0
 19 41  1  0
 20 42  1  1
 22 43  1  0
 22 44  1  0
 26 45  1  0
 26 46  1  0
 26 47  1  0
M  END
>  <mol_id>  (68) 
2026-08-24-6tgu-s0-n100-seed1-0071

>  <rmsd_to_ref>  (68) 


$$$$

     RDKit          3D

 39 40  0  0  0  0  0  0  0  0999 V2000
   -0.8268   18.0318   44.1804 C   0  0  0  0  0  0  0  0  0  0  0  0
    1.5153   21.1168   39.1934 C   0  0  0  0  0  0  0  0  0  0  0  0
    3.2190   19.5206   38.4438 C   0  0  0  0  0  0  0  0  0  0  0  0
    1.2716   14.1786   43.2165 C   0  0  0  0  0  0  0  0  0  0  0  0
    1.1063   19.3359   40.9301 C   0  0  0  0  0  0  0  0  0  0  0  0
    4.3399   16.4035   36.9666 N   0  0  0  0  0  0  0  0  0  0  0  0
   -0.1052   17.9870   43.1026 C   0  0  0  0  0  0  0  0  0  0  0  0
    3.0481   18.6272   39.4435 C   0  0  0  0  0  0  0  0  0  0  0  0
    2.3885   14.1782   42.3418 C   0  0  0  0  0  0  0  0  0  0  0  0
   -1.3263   19.2715   44.6103 N   0  0  0  0  0  0  0  0  0  0  0  0
    0.1492   19.1392   42.1754 C   0  0  0  0  0  0  0  0  0  0  0  0
    0.4805   16.6066   42.7387 C   0  0  0  0  0  0  0  0  0  0  0  0
    0.8754   13.1033   43.8462 O   0  0  0  0  0  0  0  0  0  0  0  0
    0.3329   15.3612   43.4926 C   0  0  0  0  0  0  0  0  0  0  0  0
    3.7760   18.9640   37.1668 C   0  0  0  0  0  0  0  0  0  0  0  0
    1.3677   16.5699   41.8584 O   0  0  0  0  0  0  0  0  0  0  0  0
    2.0853   18.4287   40.4856 C   0  0  0  0  0  0  0  0  0  0  0  0
   -0.9961   20.2146   43.8533 C   0  0  0  0  0  0  0  0  0  0  0  0
    4.0114   17.6786   37.2095 N   0  0  0  0  0  0  0  0  0  0  0  0
    2.4818   20.6349   38.2991 C   0  0  0  0  0  0  0  0  0  0  0  0
    3.9206   19.6321   36.2641 O   0  0  0  0  0  0  0  0  0  0  0  0
    0.9225   20.5175   40.2421 C   0  0  0  0  0  0  0  0  0  0  0  0
   -0.4013   20.2568   42.6144 N   0  0  0  0  0  0  0  0  0  0  0  0
   -1.0433   17.1143   44.7474 H   0  0  0  0  0  0  0  0  0  0  0  0
    1.1894   22.1509   39.0078 H   0  0  0  0  0  0  0  0  0  0  0  0
    4.4184   15.8935   37.8581 H   0  0  0  0  0  0  0  0  0  0  0  0
    3.6116   15.9664   36.3839 H   0  0  0  0  0  0  0  0  0  0  0  0
    3.8426   17.8666   39.4613 H   0  0  0  0  0  0  0  0  0  0  0  0
    3.3088   14.3407   42.9221 H   0  0  0  0  0  0  0  0  0  0  0  0
    2.4481   13.2098   41.8236 H   0  0  0  0  0  0  0  0  0  0  0  0
    2.2748   14.9839   41.6015 H   0  0  0  0  0  0  0  0  0  0  0  0
    1.3886   12.2612   43.7590 H   0  0  0  0  0  0  0  0  0  0  0  0
   -0.4519   15.2725   44.2584 H   0  0  0  0  0  0  0  0  0  0  0  0
    2.1151   17.4552   40.9968 H   0  0  0  0  0  0  0  0  0  0  0  0
   -1.2292   21.2086   44.2627 H   0  0  0  0  0  0  0  0  0  0  0  0
    3.7137   17.5382   38.1854 H   0  0  0  0  0  0  0  0  0  0  0  0
    2.6537   21.2277   37.3886 H   0  0  0  0  0  0  0  0  0  0  0  0
    1.0122   21.2747   41.0350 H   0  0  0  0  0  0  0  0  0  0  0  0
    0.0608   20.1531   39.6636 H   0  0  0  0  0  0  0  0  0  0  0  0
  1 10  1  0
  2 22  1  0
  3 20  1  0
  3  8  2  0
  4 14  2  3
  4 13  1  0
  5 11  1  0
  6 19  1  0
  7  1  2  0
  8 17  1  0
  9  4  1  0
 11 23  2  0
 11  7  1  0
 12  7  1  0
 12 14  1  0
 15  3  1  0
 16 12  2  0
 17  5  2  0
 18 10  2  0
 19 15  1  0
 20  2  2  0
 21 15  2  0
 22  5  1  0
 23 18  1  0
  1 24  1  0
  2 25  1  0
  6 26  1  0
  6 27  1  0
  8 28  1  0
  9 29  1  0
  9 30  1  0
  9 31  1  0
 13 32  1  0
 14 33  1  0
 17 34  1  0
 18 35  1  0
 19 36  1  0
 20 37  1  0
 22 38  1  0
 22 39  1  0
M  END
>  <mol_id>  (69) 
2026-08-24-6tgu-s0-n100-seed1-0072

>  <rmsd_to_ref>  (69) 


$$$$

     RDKit          3D

 28 28  0  0  0  0  0  0  0  0999 V2000
    3.7100   21.2816   35.7342 O   0  0  0  0  0  0  0  0  0  0  0  0
    0.6582   18.2584   42.4870 C   0  0  0  0  0  0  0  0  0  0  0  0
    3.0896   20.8518   36.7162 C   0  0  0  0  0  0  0  0  0  0  0  0
    0.0551   16.1570   41.4421 C   0  0  0  0  0  0  0  0  0  0  0  0
    2.8164   18.5564   36.2156 O   0  0  0  0  0  0  0  0  0  0  0  0
   -0.9837   16.7439   43.5414 C   0  0  0  0  0  0  0  0  0  0  0  0
    1.5698   17.7470   40.2802 C   0  0  0  0  0  0  0  0  0  0  0  0
    2.5583   19.8679   39.4760 C   0  0  0  0  0  0  0  0  0  0  0  0
    1.3767   19.2424   40.0807 C   0  0  0  0  0  0  0  0  0  0  0  0
    3.0295   19.4600   37.0741 C   0  0  0  0  0  0  0  0  0  0  0  0
    2.5688   21.7659   37.3470 O   0  0  0  0  0  0  0  0  0  0  0  0
   -0.2154   17.9621   43.5120 C   0  0  0  0  0  0  0  0  0  0  0  0
    0.7582   17.3632   41.4362 C   0  0  0  0  0  0  0  0  0  0  0  0
   -0.7780   15.8782   42.4502 C   0  0  0  0  0  0  0  0  0  0  0  0
    3.3769   19.0364   38.4526 C   0  0  0  0  0  0  0  0  0  0  0  0
    1.2584   19.1801   42.5039 H   0  0  0  0  0  0  0  0  0  0  0  0
    0.1861   15.4381   40.6199 H   0  0  0  0  0  0  0  0  0  0  0  0
   -1.6813   16.5069   44.3582 H   0  0  0  0  0  0  0  0  0  0  0  0
    2.6300   17.5248   40.4718 H   0  0  0  0  0  0  0  0  0  0  0  0
    1.2657   17.1879   39.3830 H   0  0  0  0  0  0  0  0  0  0  0  0
    2.2193   20.7790   38.9612 H   0  0  0  0  0  0  0  0  0  0  0  0
    3.2483   20.0255   40.3180 H   0  0  0  0  0  0  0  0  0  0  0  0
    1.1867   19.7105   41.0579 H   0  0  0  0  0  0  0  0  0  0  0  0
    0.5253   19.3898   39.4000 H   0  0  0  0  0  0  0  0  0  0  0  0
   -0.3296   18.6814   44.3364 H   0  0  0  0  0  0  0  0  0  0  0  0
   -1.3292   14.9266   42.4258 H   0  0  0  0  0  0  0  0  0  0  0  0
    3.1423   17.9690   38.5773 H   0  0  0  0  0  0  0  0  0  0  0  0
    4.4508   19.2005   38.6249 H   0  0  0  0  0  0  0  0  0  0  0  0
  1  3  2  0
  2 12  1  0
  3 10  1  0
  4 14  2  0
  5 10  2  0
  7 13  1  0
  8  9  1  0
  9  7  1  0
 10 15  1  0
 11  3  1  0
 12  6  2  0
 13  2  2  0
 13  4  1  0
 14  6  1  0
 15  8  1  0
  2 16  1  0
  4 17  1  0
  6 18  1  0
  7 19  1  0
  7 20  1  0
  8 21  1  0
  8 22  1  0
  9 23  1  0
  9 24  1  0
 12 25  1  0
 14 26  1  0
 15 27  1  0
 15 28  1  0
M  CHG  1  11  -1
M  END
>  <mol_id>  (70) 
2026-08-24-6tgu-s0-n100-seed1-0073

>  <rmsd_to_ref>  (70) 


$$$$

     RDKit          3D

 49 54  0  0  0  0  0  0  0  0999 V2000
    3.3383   19.0082   37.0555 C   0  0  0  0  0  0  0  0  0  0  0  0
    1.1722   15.4472   42.2421 C   0  0  0  0  0  0  0  0  0  0  0  0
   -0.0057   13.3765   45.4913 C   0  0  0  0  0  0  0  0  0  0  0  0
   -1.4058   19.7340   43.6340 C   0  0  0  0  0  0  0  0  0  0  0  0
    2.2295   22.0185   35.2395 N   0  0  0  0  0  0  0  0  0  0  0  0
    2.6235   19.1969   38.2994 C   0  0  0  0  0  0  0  0  0  0  0  0
    0.4071   12.1087   45.5904 C   0  0  0  0  0  0  0  0  0  0  0  0
    2.6020   18.1891   39.3174 C   0  0  0  0  0  0  0  0  0  0  0  0
    1.7794   20.2846   38.4432 C   0  0  0  0  0  0  0  0  0  0  0  0
    0.3686   14.1023   44.3891 C   0  0  0  0  0  0  0  0  0  0  0  0
   -0.6563   20.2295   42.3694 C   0  0  0  0  0  0  0  0  0  0  0  0
    1.4822   12.1663   43.4875 N   0  0  0  0  0  0  0  0  0  0  0  0
   -0.2525   17.5032   42.9902 C   0  0  0  0  0  0  0  0  0  0  0  0
    1.6507   18.4340   40.3356 C   0  0  0  0  0  0  0  0  0  0  0  0
    2.3466   21.0624   36.2806 C   0  0  0  0  0  0  0  0  0  0  0  0
   -1.5260   19.2188   44.2129 N   0  0  0  0  0  0  0  0  0  0  0  0
    1.5533   14.1886   42.2874 C   0  0  0  0  0  0  0  0  0  0  0  0
    1.1182   13.4455   43.3829 C   0  0  0  0  0  0  0  0  0  0  0  0
    3.4176   17.0871   39.2541 O   0  0  0  0  0  0  0  0  0  0  0  0
   -1.2435   17.8443   44.0437 C   0  0  0  0  0  0  0  0  0  0  0  0
    3.2048   19.9219   36.1210 C   0  0  0  0  0  0  0  0  0  0  0  0
    1.0015   19.5961   40.5624 C   0  0  0  0  0  0  0  0  0  0  0  0
   -0.0348   15.3652   44.2488 C   0  0  0  0  0  0  0  0  0  0  0  0
    1.0534   20.5712   39.6835 C   0  0  0  0  0  0  0  0  0  0  0  0
    0.3168   18.1348   41.9611 C   0  0  0  0  0  0  0  0  0  0  0  0
    1.3000   17.6143   41.2214 N   0  0  0  0  0  0  0  0  0  0  0  0
    0.2008   19.5305   41.7191 C   0  0  0  0  0  0  0  0  0  0  0  0
    1.6420   21.2232   37.4184 C   0  0  0  0  0  0  0  0  0  0  0  0
    0.3504   16.1151   43.1275 C   0  0  0  0  0  0  0  0  0  0  0  0
    1.1198   11.5177   44.5994 C   0  0  0  0  0  0  0  0  0  0  0  0
    3.9750   18.1252   36.8970 H   0  0  0  0  0  0  0  0  0  0  0  0
    1.5546   16.0383   41.3969 H   0  0  0  0  0  0  0  0  0  0  0  0
   -0.6313   13.8274   46.2758 H   0  0  0  0  0  0  0  0  0  0  0  0
   -2.1646   20.5105   43.8111 H   0  0  0  0  0  0  0  0  0  0  0  0
    2.7659   21.8997   34.3683 H   0  0  0  0  0  0  0  0  0  0  0  0
    1.6079   22.8317   35.3547 H   0  0  0  0  0  0  0  0  0  0  0  0
    0.1635   11.5326   46.4953 H   0  0  0  0  0  0  0  0  0  0  0  0
   -0.8736   21.2451   42.0070 H   0  0  0  0  0  0  0  0  0  0  0  0
   -0.9562   19.5375   45.0095 H   0  0  0  0  0  0  0  0  0  0  0  0
   -2.5516   19.2257   44.3083 H   0  0  0  0  0  0  0  0  0  0  0  0
    2.1826   13.7460   41.5013 H   0  0  0  0  0  0  0  0  0  0  0  0
    3.3838   16.4045   39.9705 H   0  0  0  0  0  0  0  0  0  0  0  0
   -1.7294   17.0712   44.6570 H   0  0  0  0  0  0  0  0  0  0  0  0
    3.7698   19.8095   35.1840 H   0  0  0  0  0  0  0  0  0  0  0  0
   -0.6744   15.8226   45.0180 H   0  0  0  0  0  0  0  0  0  0  0  0
    0.5792   21.5464   39.8680 H   0  0  0  0  0  0  0  0  0  0  0  0
    1.7102   16.6793   41.3570 H   0  0  0  0  0  0  0  0  0  0  0  0
    0.9669   22.0833   37.5383 H   0  0  0  0  0  0  0  0  0  0  0  0
    1.4113   10.4634   44.7149 H   0  0  0  0  0  0  0  0  0  0  0  0
  1  6  2  0
  2 17  1  0
  2 29  2  0
  3  7  2  0
  4 16  1  0
  5 15  1  0
  6  9  1  0
  6  8  1  0
  8 14  2  0
  9 24  1  0
 10  3  1  0
 11  4  2  0
 12 30  2  0
 13 29  1  0
 13 20  2  0
 14 22  1  0
 14 26  1  0
 15 28  1  0
 17 18  2  0
 18 12  1  0
 18 10  1  0
 19  8  1  0
 20 16  1  0
 21 15  2  0
 21  1  1  0
 22 27  1  0
 23 10  2  0
 24 22  2  0
 25 13  1  0
 26 25  1  0
 27 25  2  0
 27 11  1  0
 28  9  2  0
 29 23  1  0
 30  7  1  0
  1 31  1  0
  2 32  1  0
  3 33  1  0
  4 34  1  0
  5 35  1  0
  5 36  1  0
  7 37  1  0
 11 38  1  0
 16 39  1  0
 16 40  1  0
 17 41  1  0
 19 42  1  0
 20 43  1  0
 21 44  1  0
 23 45  1  0
 24 46  1  0
 26 47  1  0
 28 48  1  0
 30 49  1  0
M  CHG  1  16   1
M  END
>  <mol_id>  (71) 
2026-08-24-6tgu-s0-n100-seed1-0074

>  <rmsd_to_ref>  (71) 


$$$$

     RDKit          3D

 32 33  0  0  0  0  0  0  0  0999 V2000
    0.0263   17.9469   45.5633 N   0  0  0  0  0  0  0  0  0  0  0  0
    3.1075   17.0025   38.7899 O   0  0  0  0  0  0  0  0  0  0  0  0
    3.0798   22.0464   36.0585 O   0  0  0  0  0  0  0  0  0  0  0  0
    2.6713   20.8388   38.5492 C   0  0  0  0  0  0  0  0  0  0  0  0
   -0.6026   20.1433   43.6404 N   0  0  0  0  0  0  0  0  0  0  0  0
    2.9526   18.2398   38.5920 C   0  0  0  0  0  0  0  0  0  0  0  0
    4.1085   18.3764   36.5334 O   0  0  0  0  0  0  0  0  0  0  0  0
    0.8891   19.3225   41.4418 N   0  0  0  0  0  0  0  0  0  0  0  0
   -0.7460   17.9038   44.7064 C   0  0  0  0  0  0  0  0  0  0  0  0
    2.1125   20.2148   39.5357 C   0  0  0  0  0  0  0  0  0  0  0  0
   -1.6271   17.2600   44.5129 O   0  0  0  0  0  0  0  0  0  0  0  0
    0.1166   19.1693   41.9426 C   0  0  1  0  0  0  0  0  0  0  0  0
    2.1927   18.8315   39.4814 C   0  0  0  0  0  0  0  0  0  0  0  0
    3.8115   20.9900   36.3296 O   0  0  0  0  0  0  0  0  0  0  0  0
    3.3734   20.3094   37.4998 C   0  0  2  0  0  0  0  0  0  0  0  0
    0.4380   17.7029   42.4352 S   0  0  0  0  0  0  0  0  0  0  0  0
   -0.3474   18.8261   43.4030 C   0  0  1  0  0  0  0  0  0  0  0  0
    1.6204   18.4829   40.4266 C   0  0  0  0  0  0  0  0  0  0  0  0
    3.5374   18.9149   37.4777 C   0  0  0  0  0  0  0  0  0  0  0  0
    0.7837   18.6446   45.5393 H   0  0  0  0  0  0  0  0  0  0  0  0
   -0.0420   17.2878   46.3518 H   0  0  0  0  0  0  0  0  0  0  0  0
    2.7093   22.4157   36.8989 H   0  0  0  0  0  0  0  0  0  0  0  0
    2.5692   21.9340   38.5545 H   0  0  0  0  0  0  0  0  0  0  0  0
   -0.6846   20.2996   44.6552 H   0  0  0  0  0  0  0  0  0  0  0  0
    0.1680   20.7151   43.2661 H   0  0  0  0  0  0  0  0  0  0  0  0
   -1.4839   20.4107   43.1794 H   0  0  0  0  0  0  0  0  0  0  0  0
    0.6753   20.1895   40.9284 H   0  0  0  0  0  0  0  0  0  0  0  0
    1.5562   19.1766   42.2129 H   0  0  0  0  0  0  0  0  0  0  0  0
    1.6098   20.7441   40.3585 H   0  0  0  0  0  0  0  0  0  0  0  0
   -0.4550   19.9329   41.3946 H   0  0  0  0  0  0  0  0  0  0  0  0
    3.9392   21.1327   37.9602 H   0  0  0  0  0  0  0  0  0  0  0  0
    1.6096   17.3977   40.6062 H   0  0  0  0  0  0  0  0  0  0  0  0
  3 14  1  0
  4 10  2  0
  6  2  2  0
  6 13  1  0
  7 19  2  0
  9  1  1  0
 10 13  1  0
 11  9  2  0
 12  8  1  0
 12 16  1  0
 12 17  1  0
 13 18  2  3
 15 14  1  0
 15 19  1  0
 15  4  1  0
 16 17  1  0
 17  5  1  1
 17  9  1  0
 18  8  1  0
 19  6  1  0
  1 20  1  0
  1 21  1  0
  3 22  1  0
  4 23  1  0
  5 24  1  0
  5 25  1  0
  5 26  1  0
  8 27  1  0
  8 28  1  0
 10 29  1  0
 12 30  1  6
 15 31  1  1
 18 32  1  0
M  CHG  2   5   1   8   1
M  END
>  <mol_id>  (72) 
2026-08-24-6tgu-s0-n100-seed1-0075

>  <rmsd_to_ref>  (72) 


$$$$

     RDKit          3D

 28 29  0  0  0  0  0  0  0  0999 V2000
    1.3706   18.7632   41.1325 C   0  0  2  0  0  0  0  0  0  0  0  0
    3.7418   20.6620   36.2019 O   0  0  0  0  0  0  0  0  0  0  0  0
   -0.3038   16.6076   43.4473 N   0  0  0  0  0  0  0  0  0  0  0  0
    0.5223   16.8213   42.3136 C   0  0  0  0  0  0  0  0  0  0  0  0
   -1.6483   17.6938   44.9386 N   0  0  0  0  0  0  0  0  0  0  0  0
    2.2500   19.0004   40.2597 N   0  0  0  0  0  0  0  0  0  0  0  0
   -0.8194   17.6619   43.9711 C   0  0  0  0  0  0  0  0  0  0  0  0
    2.8428   20.4905   37.0919 C   0  0  0  0  0  0  0  0  0  0  0  0
    1.6978   20.8936   37.0609 O   0  0  0  0  0  0  0  0  0  0  0  0
    2.5687   20.1896   39.5897 C   0  0  0  0  0  0  0  0  0  0  0  0
    2.7807   17.8297   39.5926 C   0  0  0  0  0  0  0  0  0  0  0  0
    0.6435   18.1571   42.0859 C   0  0  0  0  0  0  0  0  0  0  0  0
    3.4264   18.2151   38.2566 C   0  0  0  0  0  0  0  0  0  0  0  0
   -0.2102   19.0250   43.1944 S   0  0  0  0  0  0  0  0  0  0  0  0
    3.3386   19.7366   38.3362 C   0  0  1  0  0  0  0  0  0  0  0  0
    1.0201   20.2564   40.7768 C   0  0  0  0  0  0  0  0  0  0  0  0
    2.0813   19.1119   41.8964 H   0  0  0  0  0  0  0  0  0  0  0  0
    0.9922   16.0294   41.7118 H   0  0  0  0  0  0  0  0  0  0  0  0
   -2.0020   18.5974   45.2842 H   0  0  0  0  0  0  0  0  0  0  0  0
   -1.9646   16.8160   45.3749 H   0  0  0  0  0  0  0  0  0  0  0  0
    1.6549   20.7335   39.3084 H   0  0  0  0  0  0  0  0  0  0  0  0
    3.1587   20.8752   40.2157 H   0  0  0  0  0  0  0  0  0  0  0  0
    2.7278   16.8053   39.9896 H   0  0  0  0  0  0  0  0  0  0  0  0
    3.8377   17.5743   37.4628 H   0  0  0  0  0  0  0  0  0  0  0  0
    4.3967   20.0299   38.4018 H   0  0  0  0  0  0  0  0  0  0  0  0
    0.8371   20.8207   41.7031 H   0  0  0  0  0  0  0  0  0  0  0  0
    1.8603   20.7102   40.2309 H   0  0  0  0  0  0  0  0  0  0  0  0
    0.1179   20.2814   40.1479 H   0  0  0  0  0  0  0  0  0  0  0  0
  1 16  1  0
  1 12  1  0
  2  8  2  0
  3  7  2  0
  4  3  1  0
  6  1  1  0
  7  5  1  0
  8  9  1  0
 10  6  1  0
 11  6  1  0
 12  4  2  0
 12 14  1  0
 13 15  1  0
 13 11  2  0
 14  7  1  0
 15  8  1  0
 15 10  1  0
  1 17  1  1
  4 18  1  0
  5 19  1  0
  5 20  1  0
 10 21  1  0
 10 22  1  0
 11 23  1  0
 13 24  1  0
 15 25  1  1
 16 26  1  0
 16 27  1  0
 16 28  1  0
M  CHG  1   9  -1
M  END
>  <mol_id>  (73) 
2026-08-24-6tgu-s0-n100-seed1-0076

>  <rmsd_to_ref>  (73) 


$$$$

     RDKit          3D

 48 51  0  0  0  0  0  0  0  0999 V2000
    2.3207   14.9611   41.4285 C   0  0  0  0  0  0  0  0  0  0  0  0
   -1.3075   21.2201   43.0617 O   0  0  0  0  0  0  0  0  0  0  0  0
    2.6038   19.3182   37.5764 C   0  0  0  0  0  0  0  0  0  0  0  0
    1.3527   19.2294   40.9254 C   0  0  0  0  0  0  0  0  0  0  0  0
   -0.7689   20.1699   42.8143 C   0  0  0  0  0  0  0  0  0  0  0  0
    4.0861   13.0460   38.2510 O   0  0  0  0  0  0  0  0  0  0  0  0
    2.5306   18.9519   38.7706 N   0  0  0  0  0  0  0  0  0  0  0  0
    1.8989   19.7464   39.8165 C   0  0  0  0  0  0  0  0  0  0  0  0
    2.5981   13.6341   41.5704 C   0  0  0  0  0  0  0  0  0  0  0  0
    2.6825   15.6971   40.2369 C   0  0  0  0  0  0  0  0  0  0  0  0
    3.5029   13.6115   39.3326 C   0  0  0  0  0  0  0  0  0  0  0  0
    2.8570   17.5754   38.8459 C   0  0  0  0  0  0  0  0  0  0  0  0
    0.7456   16.4114   42.5961 N   0  0  0  0  0  0  0  0  0  0  0  0
    2.3251   21.0559   36.1865 O   0  0  0  0  0  0  0  0  0  0  0  0
    3.3107   16.7674   37.7778 C   0  0  0  0  0  0  0  0  0  0  0  0
    0.4641   21.4461   41.3001 C   0  0  0  0  0  0  0  0  0  0  0  0
    3.5976   15.4938   37.9978 N   0  0  0  0  0  0  0  0  0  0  0  0
    0.3371   20.0686   41.6787 C   0  0  0  0  0  0  0  0  0  0  0  0
    1.5641   15.6180   42.2807 N   0  0  0  0  0  0  0  0  0  0  0  0
    3.1612   20.0278   36.5624 C   0  0  0  0  0  0  0  0  0  0  0  0
    4.3494   20.5463   34.6816 O   0  0  0  0  0  0  0  0  0  0  0  0
   -1.2363   19.0325   43.6236 N   0  0  0  0  0  0  0  0  0  0  0  0
    4.2910   19.7570   35.8491 N   0  0  0  0  0  0  0  0  0  0  0  0
    0.9368   21.8573   40.1982 N   0  0  0  0  0  0  0  0  0  0  0  0
    3.2184   12.8954   40.4889 C   0  0  0  0  0  0  0  0  0  0  0  0
    3.2327   14.9760   39.2159 C   0  0  0  0  0  0  0  0  0  0  0  0
   -1.1712   16.6249   44.2753 C   0  0  0  0  0  0  0  0  0  0  0  0
    2.5799   17.0341   40.1014 N   0  0  0  0  0  0  0  0  0  0  0  0
    0.2937   17.6896   42.7196 N   0  0  0  0  0  0  0  0  0  0  0  0
    1.6499   21.0512   39.4347 C   0  0  0  0  0  0  0  0  0  0  0  0
   -0.7352   17.8342   43.5545 C   0  0  0  0  0  0  0  0  0  0  0  0
    2.6788   18.3207   37.1190 H   0  0  0  0  0  0  0  0  0  0  0  0
    2.0424   20.2222   37.8549 H   0  0  0  0  0  0  0  0  0  0  0  0
    1.6322   18.2261   41.2793 H   0  0  0  0  0  0  0  0  0  0  0  0
    4.3092   12.0815   38.2565 H   0  0  0  0  0  0  0  0  0  0  0  0
    2.3497   13.1210   42.5111 H   0  0  0  0  0  0  0  0  0  0  0  0
   -0.0236   15.8387   42.9718 H   0  0  0  0  0  0  0  0  0  0  0  0
    3.4245   17.1944   36.7704 H   0  0  0  0  0  0  0  0  0  0  0  0
    0.1253   22.2042   42.0216 H   0  0  0  0  0  0  0  0  0  0  0  0
    1.8414   15.2112   43.1854 H   0  0  0  0  0  0  0  0  0  0  0  0
    4.3409   21.5044   34.9304 H   0  0  0  0  0  0  0  0  0  0  0  0
    5.0056   19.0687   36.1255 H   0  0  0  0  0  0  0  0  0  0  0  0
    3.4517   11.8242   40.5785 H   0  0  0  0  0  0  0  0  0  0  0  0
   -1.1887   16.8286   45.3561 H   0  0  0  0  0  0  0  0  0  0  0  0
   -2.1796   16.3413   43.9393 H   0  0  0  0  0  0  0  0  0  0  0  0
   -0.4709   15.8023   44.0685 H   0  0  0  0  0  0  0  0  0  0  0  0
    0.7127   18.4804   42.2097 H   0  0  0  0  0  0  0  0  0  0  0  0
    2.0519   21.4230   38.4807 H   0  0  0  0  0  0  0  0  0  0  0  0
  1  9  2  0
  1 19  1  0
  3  7  1  0
  4 18  2  0
  5  2  2  0
  5 22  1  0
  6 11  1  0
  7  8  1  0
  8  4  1  0
 10  1  1  0
 11 26  1  0
 11 25  2  0
 12  7  1  0
 12 28  2  0
 13 29  1  0
 14 20  2  0
 15 17  2  0
 15 12  1  0
 16 18  1  0
 17 26  1  0
 18  5  1  0
 19 13  1  0
 20  3  1  0
 21 23  1  0
 23 20  1  0
 24 16  2  0
 25  9  1  0
 26 10  2  0
 28 10  1  0
 29 31  1  0
 30  8  2  0
 30 24  1  0
 31 22  2  0
 31 27  1  0
  3 32  1  0
  3 33  1  0
  4 34  1  0
  6 35  1  0
  9 36  1  0
 13 37  1  0
 15 38  1  0
 16 39  1  0
 19 40  1  0
 21 41  1  0
 23 42  1  0
 25 43  1  0
 27 44  1  0
 27 45  1  0
 27 46  1  0
 29 47  1  0
 30 48  1  0
M  END
>  <mol_id>  (74) 
2026-08-24-6tgu-s0-n100-seed1-0077

>  <rmsd_to_ref>  (74) 


$$$$

     RDKit          3D

 37 42  0  0  0  0  0  0  0  0999 V2000
    2.1977   18.9580   38.4691 C   0  0  0  0  0  0  0  0  0  0  0  0
   -0.4335   19.6388   41.9541 C   0  0  0  0  0  0  0  0  0  0  0  0
    0.2256   18.4325   42.0238 C   0  0  0  0  0  0  0  0  0  0  0  0
   -0.0572   20.3360   40.9003 O   0  0  0  0  0  0  0  0  0  0  0  0
    0.5989   16.2687   43.0381 C   0  0  0  0  0  0  0  0  0  0  0  0
    3.7516   17.8961   37.1628 C   0  0  0  0  0  0  0  0  0  0  0  0
    2.0690   21.5370   36.1430 O   0  0  0  0  0  0  0  0  0  0  0  0
    2.5360   19.5215   37.2772 C   0  0  0  0  0  0  0  0  0  0  0  0
    0.9329   20.7659   38.1740 C   0  0  0  0  0  0  0  0  0  0  0  0
   -1.8288   18.9954   43.8414 N   0  0  0  0  0  0  0  0  0  0  0  0
    2.1730   14.4784   42.3919 C   0  0  0  0  0  0  0  0  0  0  0  0
    3.0555   17.7667   38.4018 C   0  0  0  0  0  0  0  0  0  0  0  0
    1.5829   15.7405   42.2104 C   0  0  0  0  0  0  0  0  0  0  0  0
    1.6722   13.6440   43.4316 C   0  0  0  0  0  0  0  0  0  0  0  0
    0.6402   14.1637   44.1873 C   0  0  0  0  0  0  0  0  0  0  0  0
    0.1463   15.3668   44.0941 C   0  0  0  0  0  0  0  0  0  0  0  0
   -0.9816   17.8547   43.8964 C   0  0  0  0  0  0  0  0  0  0  0  0
    1.1474   18.5064   40.9581 C   0  0  0  0  0  0  0  0  0  0  0  0
    0.8796   19.5764   40.2752 C   0  0  0  0  0  0  0  0  0  0  0  0
    2.1860   16.3893   41.0311 N   0  0  0  0  0  0  0  0  0  0  0  0
    3.4947   18.9726   36.5472 N   0  0  0  0  0  0  0  0  0  0  0  0
   -1.5006   19.8798   42.8598 C   0  0  0  0  0  0  0  0  0  0  0  0
   -0.0276   17.5106   42.9468 C   0  0  0  0  0  0  0  0  0  0  0  0
    1.9647   17.5711   40.6620 N   0  0  0  0  0  0  0  0  0  0  0  0
    1.3053   19.7452   39.0604 N   0  0  0  0  0  0  0  0  0  0  0  0
    1.8083   20.7408   37.0639 C   0  0  0  0  0  0  0  0  0  0  0  0
    4.4453   17.1335   36.7790 H   0  0  0  0  0  0  0  0  0  0  0  0
   -0.1006   20.6032   37.8347 H   0  0  0  0  0  0  0  0  0  0  0  0
    0.9930   21.7418   38.6780 H   0  0  0  0  0  0  0  0  0  0  0  0
    2.9999   14.1439   41.7482 H   0  0  0  0  0  0  0  0  0  0  0  0
    3.7622   17.7486   39.2445 H   0  0  0  0  0  0  0  0  0  0  0  0
    2.4784   16.8322   38.4612 H   0  0  0  0  0  0  0  0  0  0  0  0
    2.0843   12.6420   43.6218 H   0  0  0  0  0  0  0  0  0  0  0  0
    0.1918   13.4990   44.9404 H   0  0  0  0  0  0  0  0  0  0  0  0
   -0.6144   15.7039   44.8136 H   0  0  0  0  0  0  0  0  0  0  0  0
   -1.0908   17.1880   44.7646 H   0  0  0  0  0  0  0  0  0  0  0  0
   -2.0800   20.8100   42.7651 H   0  0  0  0  0  0  0  0  0  0  0  0
  1 12  1  0
  1 25  1  0
  2  3  1  0
  2 22  2  0
  3 23  2  0
  4  2  1  0
  5 16  2  0
  6 12  1  0
  7 26  2  0
  8  1  2  0
  9 25  1  0
 10 17  2  0
 11 14  1  0
 13 11  2  0
 13  5  1  0
 14 15  2  0
 16 15  1  0
 18  3  1  0
 19  4  1  0
 19 18  2  0
 20 13  1  0
 21  8  1  0
 21  6  2  0
 22 10  1  0
 23  5  1  0
 23 17  1  0
 24 18  1  0
 24 20  2  0
 25 19  1  0
 26  8  1  0
 26  9  1  0
  6 27  1  0
  9 28  1  0
  9 29  1  0
 11 30  1  0
 12 31  1  0
 12 32  1  0
 14 33  1  0
 15 34  1  0
 16 35  1  0
 17 36  1  0
 22 37  1  0
M  END
>  <mol_id>  (75) 
2026-08-24-6tgu-s0-n100-seed1-0078

>  <rmsd_to_ref>  (75) 


$$$$

     RDKit          3D

 39 40  0  0  0  0  0  0  0  0999 V2000
    0.0472   16.2330   42.6684 C   0  0  0  0  0  0  0  0  0  0  0  0
    4.9948   14.6898   36.1929 O   0  0  0  0  0  0  0  0  0  0  0  0
    1.3699   17.8798   40.8097 C   0  0  0  0  0  0  0  0  0  0  0  0
   -0.5350   20.6068   41.2645 C   0  0  0  0  0  0  0  0  0  0  0  0
    1.4284   16.5050   40.6823 C   0  0  0  0  0  0  0  0  0  0  0  0
    0.4954   19.8647   41.8440 O   0  0  0  0  0  0  0  0  0  0  0  0
   -1.3345   16.0789   44.6054 C   0  0  0  0  0  0  0  0  0  0  0  0
    4.2593   18.6038   37.8319 C   0  0  0  0  0  0  0  0  0  0  0  0
    4.0650   14.9156   37.1137 C   0  0  0  0  0  0  0  0  0  0  0  0
    4.2140   19.7161   35.7819 O   0  0  0  0  0  0  0  0  0  0  0  0
    0.7368   15.6707   41.6584 C   0  0  0  0  0  0  0  0  0  0  0  0
   -1.2865   17.4069   44.8631 N   0  0  0  0  0  0  0  0  0  0  0  0
    3.0520   16.6292   38.4712 C   0  0  0  0  0  0  0  0  0  0  0  0
    3.6847   16.2169   37.3232 C   0  0  0  0  0  0  0  0  0  0  0  0
    3.3411   14.0206   37.5864 O   0  0  0  0  0  0  0  0  0  0  0  0
    0.5733   18.4116   41.8287 C   0  0  0  0  0  0  0  0  0  0  0  0
   -0.5369   19.4536   44.2775 O   0  0  0  0  0  0  0  0  0  0  0  0
    3.7105   19.6120   36.9623 C   0  0  0  0  0  0  0  0  0  0  0  0
    0.0524   17.6963   42.8230 C   0  0  0  0  0  0  0  0  0  0  0  0
   -0.6063   18.2692   44.0262 C   0  0  0  0  0  0  0  0  0  0  0  0
    3.0715   18.0633   38.5738 N   0  0  0  0  0  0  0  0  0  0  0  0
    2.2761   15.8595   39.5814 C   0  0  0  0  0  0  0  0  0  0  0  0
    2.7113   20.3678   37.3498 O   0  0  0  0  0  0  0  0  0  0  0  0
   -0.6798   15.4836   43.5221 C   0  0  0  0  0  0  0  0  0  0  0  0
    1.9331   18.5362   40.1299 H   0  0  0  0  0  0  0  0  0  0  0  0
   -1.1976   20.9925   42.0534 H   0  0  0  0  0  0  0  0  0  0  0  0
   -0.1080   21.4490   40.7002 H   0  0  0  0  0  0  0  0  0  0  0  0
   -1.1116   19.9639   40.5832 H   0  0  0  0  0  0  0  0  0  0  0  0
   -1.9173   15.4360   45.2814 H   0  0  0  0  0  0  0  0  0  0  0  0
    4.9860   19.0454   38.5296 H   0  0  0  0  0  0  0  0  0  0  0  0
    4.7992   17.8214   37.2784 H   0  0  0  0  0  0  0  0  0  0  0  0
    0.7789   14.5752   41.5686 H   0  0  0  0  0  0  0  0  0  0  0  0
   -1.7645   17.7797   45.6959 H   0  0  0  0  0  0  0  0  0  0  0  0
    4.6027   16.8184   37.2485 H   0  0  0  0  0  0  0  0  0  0  0  0
    2.8899   16.3411   36.5730 H   0  0  0  0  0  0  0  0  0  0  0  0
    3.1335   18.3355   39.5653 H   0  0  0  0  0  0  0  0  0  0  0  0
    2.2080   18.4479   38.1646 H   0  0  0  0  0  0  0  0  0  0  0  0
    2.3423   14.7615   39.5743 H   0  0  0  0  0  0  0  0  0  0  0  0
   -0.7583   14.3977   43.3656 H   0  0  0  0  0  0  0  0  0  0  0  0
  1 19  1  0
  1 24  1  0
  2  9  2  0
  3 16  1  0
  4  6  1  0
  5  3  2  0
  5 11  1  0
  6 16  1  0
  7 12  1  0
  8 21  1  0
  9 14  1  0
  9 15  1  0
 10 18  2  0
 11  1  2  0
 13 21  1  0
 13 22  2  3
 14 13  1  0
 16 19  2  0
 18 23  1  0
 18  8  1  0
 19 20  1  0
 20 17  2  0
 20 12  1  0
 22  5  1  0
 24  7  2  0
  3 25  1  0
  4 26  1  0
  4 27  1  0
  4 28  1  0
  7 29  1  0
  8 30  1  0
  8 31  1  0
 11 32  1  0
 12 33  1  0
 14 34  1  0
 14 35  1  0
 21 36  1  0
 21 37  1  0
 22 38  1  0
 24 39  1  0
M  CHG  3  15  -1  21   1  23  -1
M  END
>  <mol_id>  (76) 
2026-08-24-6tgu-s0-n100-seed1-0080

>  <rmsd_to_ref>  (76) 


$$$$

     RDKit          3D

 41 45  0  0  0  0  0  0  0  0999 V2000
    0.9380   20.4063   40.9207 O   0  0  0  0  0  0  0  0  0  0  0  0
   -0.5468   17.5185   44.0490 N   0  0  0  0  0  0  0  0  0  0  0  0
    1.7373   19.5031   40.6117 C   0  0  0  0  0  0  0  0  0  0  0  0
    1.6144   18.0445   40.9914 C   0  0  0  0  0  0  0  0  0  0  0  0
    1.6562   13.9833   41.5675 C   0  0  0  0  0  0  0  0  0  0  0  0
    4.0718   12.9864   39.0485 C   0  0  0  0  0  0  0  0  0  0  0  0
   -0.3529   16.2205   44.1925 C   0  0  0  0  0  0  0  0  0  0  0  0
    3.8895   14.3031   38.9393 N   0  0  0  0  0  0  0  0  0  0  0  0
   -0.0217   19.5531   43.0832 N   0  0  0  0  0  0  0  0  0  0  0  0
    0.8681   17.4955   42.1652 C   0  0  0  0  0  0  0  0  0  0  0  0
    3.9776   21.2518   35.7931 C   0  0  0  0  0  0  0  0  0  0  0  0
    3.4240   22.1462   35.4315 O   0  0  0  0  0  0  0  0  0  0  0  0
    0.0881   18.2276   43.0599 C   0  0  0  0  0  0  0  0  0  0  0  0
    3.1370   12.4211   39.9679 C   0  0  0  0  0  0  0  0  0  0  0  0
    0.9063   16.1440   42.3133 C   0  0  0  0  0  0  0  0  0  0  0  0
    4.1699   19.1827   37.0104 N   0  0  0  0  0  0  0  0  0  0  0  0
    0.3024   15.4963   43.2840 C   0  0  0  0  0  0  0  0  0  0  0  0
    2.8443   20.7181   37.8268 C   0  0  0  0  0  0  0  0  0  0  0  0
    3.0225   14.6815   39.9344 C   0  0  0  0  0  0  0  0  0  0  0  0
    2.8814   19.8655   40.0308 N   0  0  0  0  0  0  0  0  0  0  0  0
    2.9623   19.6705   38.6919 C   0  0  0  0  0  0  0  0  0  0  0  0
    2.3204   15.7835   40.4618 C   0  0  0  0  0  0  0  0  0  0  0  0
   -1.0279   15.4917   45.3354 N   0  0  0  0  0  0  0  0  0  0  0  0
    1.6200   15.3121   41.5189 C   0  0  0  0  0  0  0  0  0  0  0  0
    2.2479   17.1169   40.2203 C   0  0  0  0  0  0  0  0  0  0  0  0
    2.4809   13.5214   40.5783 C   0  0  0  0  0  0  0  0  0  0  0  0
    3.7116   18.7048   38.1284 C   0  0  0  0  0  0  0  0  0  0  0  0
    3.6151   20.4608   36.8320 N   0  0  0  0  0  0  0  0  0  0  0  0
    1.1104   13.3562   42.2878 H   0  0  0  0  0  0  0  0  0  0  0  0
    4.8377   12.4141   38.5045 H   0  0  0  0  0  0  0  0  0  0  0  0
   -0.6245   20.0077   43.7838 H   0  0  0  0  0  0  0  0  0  0  0  0
    0.4960   20.1248   42.4005 H   0  0  0  0  0  0  0  0  0  0  0  0
    4.9019   20.9855   35.2596 H   0  0  0  0  0  0  0  0  0  0  0  0
    2.9615   11.3528   40.1629 H   0  0  0  0  0  0  0  0  0  0  0  0
    0.3359   14.3986   43.3452 H   0  0  0  0  0  0  0  0  0  0  0  0
    2.2125   21.6093   37.9557 H   0  0  0  0  0  0  0  0  0  0  0  0
    3.6602   20.2709   40.5693 H   0  0  0  0  0  0  0  0  0  0  0  0
   -0.8839   14.4791   45.4571 H   0  0  0  0  0  0  0  0  0  0  0  0
   -1.6311   16.0086   45.9910 H   0  0  0  0  0  0  0  0  0  0  0  0
    2.7496   17.4848   39.3132 H   0  0  0  0  0  0  0  0  0  0  0  0
    3.9003   17.7010   38.5369 H   0  0  0  0  0  0  0  0  0  0  0  0
  2  7  2  0
  3  1  2  0
  3  4  1  0
  4 10  1  0
  6 14  2  0
  7 23  1  0
  8  6  1  0
  8 19  2  0
  9 13  1  0
 10 15  1  0
 10 13  2  0
 11 28  1  0
 12 11  2  0
 13  2  1  0
 14 26  1  0
 15 17  2  0
 16 27  2  0
 17  7  1  0
 18 21  2  0
 19 22  1  0
 19 26  1  0
 20  3  1  0
 21 20  1  0
 22 24  2  0
 24  5  1  0
 24 15  1  0
 25  4  2  0
 25 22  1  0
 26  5  2  0
 27 21  1  0
 28 16  1  0
 28 18  1  0
  5 29  1  0
  6 30  1  0
  9 31  1  0
  9 32  1  0
 11 33  1  0
 14 34  1  0
 17 35  1  0
 18 36  1  0
 20 37  1  0
 23 38  1  0
 23 39  1  0
 25 40  1  0
 27 41  1  0
M  END
>  <mol_id>  (77) 
2026-08-24-6tgu-s0-n100-seed1-0081

>  <rmsd_to_ref>  (77) 


$$$$

     RDKit          3D

108112  0  0  0  0  0  0  0  0999 V2000
    0.7960   19.9660   44.9140 O   0  0  0  0  0  0  0  0  0  0  0  0
    6.4970   13.5660   36.3860 C   0  0  0  0  0  0  0  0  0  0  0  0
    3.4150   12.3130   35.6590 C   0  0  0  0  0  0  0  0  0  0  0  0
    2.9290   18.5920   38.0080 C   0  0  2  0  0  0  0  0  0  0  0  0
   -0.0500   16.6580   48.7690 C   0  0  0  0  0  0  0  0  0  0  0  0
    2.7250   20.0870   38.2820 C   0  0  1  0  0  0  0  0  0  0  0  0
    2.4510   21.0280   37.1140 O   0  0  0  0  0  0  0  0  0  0  0  0
    3.4340   12.2410   39.5440 C   0  0  0  0  0  0  0  0  0  0  0  0
   -1.4060   16.4440   48.8300 C   0  0  0  0  0  0  0  0  0  0  0  0
   -2.0610   17.5770   46.6620 C   0  0  0  0  0  0  0  0  0  0  0  0
    0.2610   17.9510   46.8410 C   0  0  0  0  0  0  0  0  0  0  0  0
   -1.4670   20.9220   42.7730 O   0  0  0  0  0  0  0  0  0  0  0  0
   -0.9510   18.7690   44.8050 C   0  0  0  0  0  0  0  0  0  0  0  0
    4.0810   13.4940   36.0740 C   0  0  2  0  0  0  0  0  0  0  0  0
   -2.1930   16.8640   47.8490 C   0  0  0  0  0  0  0  0  0  0  0  0
   -5.6700   22.1960   41.8780 C   0  0  0  0  0  0  0  0  0  0  0  0
   -6.9770   22.7950   42.3150 C   0  0  0  0  0  0  0  0  0  0  0  0
    5.3600   13.9020   35.4070 C   0  0  2  0  0  0  0  0  0  0  0  0
   -4.0130   23.0460   43.3170 C   0  0  1  0  0  0  0  0  0  0  0  0
    7.6940   13.7570   34.4420 O   0  0  0  0  0  0  0  0  0  0  0  0
    2.6210   14.3520   40.9250 C   0  0  0  0  0  0  0  0  0  0  0  0
    1.6840   20.2950   39.2140 C   0  0  2  0  0  0  0  0  0  0  0  0
    3.6050   13.4950   40.1790 O   0  0  0  0  0  0  0  0  0  0  0  0
   -5.0210   23.9890   43.6380 C   0  0  2  0  0  0  0  0  0  0  0  0
   -4.2160   25.1700   44.1430 C   0  0  0  0  0  0  0  0  0  0  0  0
    1.4400   15.9200   41.9580 C   0  0  0  0  0  0  0  0  0  0  0  0
    0.5440   20.3800   41.5840 C   0  0  1  0  0  0  0  0  0  0  0  0
    3.3330   21.0680   36.2510 C   0  0  0  0  0  0  0  0  0  0  0  0
    2.2710   13.7270   42.0560 N   0  0  0  0  0  0  0  0  0  0  0  0
    4.1360   12.1860   38.2280 C   0  0  0  0  0  0  0  0  0  0  0  0
    6.3710   13.1130   34.8740 C   0  0  1  0  0  0  0  0  0  0  0  0
    2.4490   16.6470   39.5670 C   0  0  0  0  0  0  0  0  0  0  0  0
    3.2140   14.6610   37.8290 C   0  0  0  0  0  0  0  0  0  0  0  0
   -0.9070   18.1010   46.1710 C   0  0  0  0  0  0  0  0  0  0  0  0
    1.4960   14.6520   42.6480 C   0  0  0  0  0  0  0  0  0  0  0  0
    1.1030   18.9520   41.3540 C   0  0  0  0  0  0  0  0  0  0  0  0
   -4.6950   21.8840   42.8990 C   0  0  0  0  0  0  0  0  0  0  0  0
    0.6510   17.4260   47.9140 C   0  0  0  0  0  0  0  0  0  0  0  0
    0.2650   20.8660   39.0550 C   0  0  0  0  0  0  0  0  0  0  0  0
   -0.2910   20.6910   40.4360 O   0  0  0  0  0  0  0  0  0  0  0  0
   -7.3440   23.9450   41.9410 O   0  0  0  0  0  0  0  0  0  0  0  0
    2.3430   21.5470   39.6270 F   0  0  0  0  0  0  0  0  0  0  0  0
   -0.1180   20.5520   42.9610 C   0  0  2  0  0  0  0  0  0  0  0  0
    2.4420   18.1480   36.8280 F   0  0  0  0  0  0  0  0  0  0  0  0
   -7.7520   21.9990   42.8950 O   0  0  0  0  0  0  0  0  0  0  0  0
   -3.0540   23.4810   42.6760 F   0  0  0  0  0  0  0  0  0  0  0  0
    2.0960   15.7210   40.7260 C   0  0  1  0  0  0  0  0  0  0  0  0
    4.1750   13.5040   37.5220 C   0  0  2  0  0  0  0  0  0  0  0  0
    2.2460   18.0150   39.2510 C   0  0  0  0  0  0  0  0  0  0  0  0
    3.3460   16.0160   38.5600 C   0  0  0  0  0  0  0  0  0  0  0  0
    4.1870   21.2860   35.7360 O   0  0  0  0  0  0  0  0  0  0  0  0
    3.9730   20.3860   39.2100 F   0  0  0  0  0  0  0  0  0  0  0  0
    3.8080   20.1920   35.5110 O   0  0  0  0  0  0  0  0  0  0  0  0
   -5.7110   23.4340   44.6590 O   0  0  0  0  0  0  0  0  0  0  0  0
    1.5360   18.9210   39.9620 C   0  0  2  0  0  0  0  0  0  0  0  0
    4.7040   21.0720   38.4870 F   0  0  0  0  0  0  0  0  0  0  0  0
   -0.0800   19.6420   44.2570 C   0  0  0  0  0  0  0  0  0  0  0  0
    7.2280   14.3288   36.6922 H   0  0  0  0  0  0  0  0  0  0  0  0
    6.6132   13.0954   37.3734 H   0  0  0  0  0  0  0  0  0  0  0  0
    3.0937   11.7432   36.5434 H   0  0  0  0  0  0  0  0  0  0  0  0
    2.5350   12.5810   35.0558 H   0  0  0  0  0  0  0  0  0  0  0  0
    4.0996   11.6986   35.0558 H   0  0  0  0  0  0  0  0  0  0  0  0
    3.9788   18.2908   37.8768 H   0  0  0  0  0  0  0  0  0  0  0  0
    0.5467   16.1270   49.5253 H   0  0  0  0  0  0  0  0  0  0  0  0
    3.7273   20.3562   38.6465 H   0  0  0  0  0  0  0  0  0  0  0  0
    3.8385   11.4533   40.1966 H   0  0  0  0  0  0  0  0  0  0  0  0
    2.3590   12.0923   39.3646 H   0  0  0  0  0  0  0  0  0  0  0  0
   -1.5515   15.3565   48.9088 H   0  0  0  0  0  0  0  0  0  0  0  0
   -1.7188   17.0626   49.6841 H   0  0  0  0  0  0  0  0  0  0  0  0
   -2.9732   17.7307   46.0668 H   0  0  0  0  0  0  0  0  0  0  0  0
    1.0963   18.4159   46.2969 H   0  0  0  0  0  0  0  0  0  0  0  0
   -1.9023   21.0414   43.6541 H   0  0  0  0  0  0  0  0  0  0  0  0
   -0.9833   17.9317   44.0924 H   0  0  0  0  0  0  0  0  0  0  0  0
   -1.7721   19.4735   45.0035 H   0  0  0  0  0  0  0  0  0  0  0  0
    3.4309   14.2971   35.6966 H   0  0  0  0  0  0  0  0  0  0  0  0
   -3.2380   16.5667   48.0213 H   0  0  0  0  0  0  0  0  0  0  0  0
   -5.8995   21.2604   41.3470 H   0  0  0  0  0  0  0  0  0  0  0  0
   -5.1945   22.9819   41.2727 H   0  0  0  0  0  0  0  0  0  0  0  0
    4.8805   14.7286   34.8622 H   0  0  0  0  0  0  0  0  0  0  0  0
   -3.4000   22.7598   44.1844 H   0  0  0  0  0  0  0  0  0  0  0  0
    8.2151   14.0107   35.2446 H   0  0  0  0  0  0  0  0  0  0  0  0
   -5.7095   24.2684   42.8269 H   0  0  0  0  0  0  0  0  0  0  0  0
   -4.2159   25.1702   45.2430 H   0  0  0  0  0  0  0  0  0  0  0  0
   -3.1818   25.0926   43.7762 H   0  0  0  0  0  0  0  0  0  0  0  0
   -4.6661   26.1043   43.7762 H   0  0  0  0  0  0  0  0  0  0  0  0
    0.9794   16.8510   42.3201 H   0  0  0  0  0  0  0  0  0  0  0  0
    1.3514   21.1252   41.6375 H   0  0  0  0  0  0  0  0  0  0  0  0
    2.6651   21.7620   36.7824 H   0  0  0  0  0  0  0  0  0  0  0  0
    5.1697   11.8502   38.3976 H   0  0  0  0  0  0  0  0  0  0  0  0
    3.5736   11.4904   37.5879 H   0  0  0  0  0  0  0  0  0  0  0  0
    6.2298   12.2734   34.1775 H   0  0  0  0  0  0  0  0  0  0  0  0
    2.4002   14.1646   38.3779 H   0  0  0  0  0  0  0  0  0  0  0  0
    3.2512   15.0910   36.8172 H   0  0  0  0  0  0  0  0  0  0  0  0
    0.9486   14.4591   43.5824 H   0  0  0  0  0  0  0  0  0  0  0  0
    1.9530   18.7595   42.0251 H   0  0  0  0  0  0  0  0  0  0  0  0
    0.3476   18.1802   41.5630 H   0  0  0  0  0  0  0  0  0  0  0  0
   -5.2089   21.4378   43.7632 H   0  0  0  0  0  0  0  0  0  0  0  0
   -3.9622   21.1783   42.4807 H   0  0  0  0  0  0  0  0  0  0  0  0
    1.6984   17.6184   48.1897 H   0  0  0  0  0  0  0  0  0  0  0  0
    0.2901   21.9267   38.7645 H   0  0  0  0  0  0  0  0  0  0  0  0
   -0.3282   20.3744   38.2698 H   0  0  0  0  0  0  0  0  0  0  0  0
    0.6815   21.2287   43.2970 H   0  0  0  0  0  0  0  0  0  0  0  0
    1.6901   16.3141   39.8932 H   0  0  0  0  0  0  0  0  0  0  0  0
    5.1621   13.6890   37.9707 H   0  0  0  0  0  0  0  0  0  0  0  0
    4.3199   15.9544   39.0677 H   0  0  0  0  0  0  0  0  0  0  0  0
    3.0935   16.6669   37.7099 H   0  0  0  0  0  0  0  0  0  0  0  0
   -5.3300   23.7404   45.5199 H   0  0  0  0  0  0  0  0  0  0  0  0
    0.6419   18.2935   40.0922 H   0  0  0  0  0  0  0  0  0  0  0  0
  4 44  1  0
  4  6  1  0
  4 49  1  0
  5  9  1  0
  6  7  1  0
  6 22  1  0
  8 23  1  0
 10 15  2  0
 11 38  1  0
 13 34  1  0
 14  3  1  0
 15  9  1  0
 16 17  1  0
 16 37  1  0
 17 45  1  0
 18 14  1  0
 18  2  1  0
 19 46  1  0
 19 24  1  0
 21 29  2  0
 22 42  1  1
 22 55  1  0
 23 21  1  0
 24 25  1  0
 24 54  1  0
 26 35  2  0
 27 43  1  0
 28  7  1  0
 29 35  1  0
 30  8  1  0
 31 20  1  0
 31 18  1  0
 31  2  1  0
 32 47  1  0
 33 50  1  0
 34 10  1  0
 34 11  2  0
 36 27  1  0
 37 19  1  0
 38  5  2  0
 39 22  1  0
 39 40  1  0
 40 27  1  0
 41 17  2  0
 43 12  1  0
 43 57  1  0
 47 21  1  0
 47 26  1  0
 48 14  1  0
 48 33  1  0
 48 30  1  0
 49 32  2  3
 49 55  1  0
 50 32  1  0
 51 28  1  0
 53 51  1  0
 53 28  1  0
 55 36  1  0
 56 52  1  0
 57 13  1  0
 57  1  2  0
  2 58  1  0
  2 59  1  0
  3 60  1  0
  3 61  1  0
  3 62  1  0
  4 63  1  1
  5 64  1  0
  6 65  1  1
  8 66  1  0
  8 67  1  0
  9 68  1  0
  9 69  1  0
 10 70  1  0
 11 71  1  0
 12 72  1  0
 13 73  1  0
 13 74  1  0
 14 75  1  1
 15 76  1  0
 16 77  1  0
 16 78  1  0
 18 79  1  6
 19 80  1  1
 20 81  1  0
 24 82  1  6
 25 83  1  0
 25 84  1  0
 25 85  1  0
 26 86  1  0
 27 87  1  1
 28 88  1  0
 30 89  1  0
 30 90  1  0
 31 91  1  1
 33 92  1  0
 33 93  1  0
 35 94  1  0
 36 95  1  0
 36 96  1  0
 37 97  1  0
 37 98  1  0
 38 99  1  0
 39100  1  0
 39101  1  0
 43102  1  1
 47103  1  6
 48104  1  6
 50105  1  0
 50106  1  0
 54107  1  0
 55108  1  6
M  CHG  1  45  -1
M  END
>  <mol_id>  (78) 
2026-08-24-6tgu-s0-n100-seed1-0082

>  <rmsd_to_ref>  (78) 


$$$$

     RDKit          3D

 29 30  0  0  0  0  0  0  0  0999 V2000
    1.7208   19.9885   39.9730 C   0  0  0  0  0  0  0  0  0  0  0  0
    1.4081   18.7249   40.3919 C   0  0  0  0  0  0  0  0  0  0  0  0
    1.0985   15.8169   41.7969 O   0  0  0  0  0  0  0  0  0  0  0  0
    0.9679   20.9663   40.8347 O   0  0  0  0  0  0  0  0  0  0  0  0
   -0.6846   16.7127   42.8785 C   0  0  0  0  0  0  0  0  0  0  0  0
    0.0125   15.5908   42.4612 C   0  0  0  0  0  0  0  0  0  0  0  0
    2.7929   19.3793   38.0245 C   0  0  0  0  0  0  0  0  0  0  0  0
    0.3261   20.1748   41.8374 C   0  0  0  0  0  0  0  0  0  0  0  0
   -0.1712   17.9660   42.5053 C   0  0  0  0  0  0  0  0  0  0  0  0
    2.8346   18.0620   38.3954 C   0  0  0  0  0  0  0  0  0  0  0  0
   -0.1028   20.9639   42.8919 C   0  0  0  0  0  0  0  0  0  0  0  0
    2.0432   17.6368   39.6052 C   0  0  0  0  0  0  0  0  0  0  0  0
   -1.6937   16.6212   43.9145 N   0  0  0  0  0  0  0  0  0  0  0  0
    0.6154   18.7825   41.5962 C   0  0  0  0  0  0  0  0  0  0  0  0
    2.2876   20.4030   38.7894 C   0  0  0  0  0  0  0  0  0  0  0  0
    1.6449   15.0594   41.4689 H   0  0  0  0  0  0  0  0  0  0  0  0
   -0.3360   14.5710   42.6813 H   0  0  0  0  0  0  0  0  0  0  0  0
    3.1964   19.6391   37.0348 H   0  0  0  0  0  0  0  0  0  0  0  0
   -1.1187   18.5219   42.4482 H   0  0  0  0  0  0  0  0  0  0  0  0
    0.7499   17.7308   43.0586 H   0  0  0  0  0  0  0  0  0  0  0  0
    3.4299   17.3335   37.8254 H   0  0  0  0  0  0  0  0  0  0  0  0
    0.0337   20.4184   43.8372 H   0  0  0  0  0  0  0  0  0  0  0  0
    0.4847   21.8935   42.9168 H   0  0  0  0  0  0  0  0  0  0  0  0
   -1.1675   21.2065   42.7590 H   0  0  0  0  0  0  0  0  0  0  0  0
    1.9415   16.5792   39.8900 H   0  0  0  0  0  0  0  0  0  0  0  0
   -1.2401   16.6474   44.8389 H   0  0  0  0  0  0  0  0  0  0  0  0
   -2.3459   17.4138   43.8295 H   0  0  0  0  0  0  0  0  0  0  0  0
   -2.2124   15.7373   43.8115 H   0  0  0  0  0  0  0  0  0  0  0  0
    2.3321   21.4586   38.4831 H   0  0  0  0  0  0  0  0  0  0  0  0
  1  2  1  0
  1  4  1  0
  2 14  1  0
  3  6  1  0
  4  8  1  0
  5 13  1  0
  6  5  2  3
  7 10  2  0
  7 15  1  0
  8 11  1  0
  9  5  1  0
 10 12  1  0
 12  2  2  0
 14  8  2  0
 14  9  1  0
 15  1  2  0
  3 16  1  0
  6 17  1  0
  7 18  1  0
  9 19  1  0
  9 20  1  0
 10 21  1  0
 11 22  1  0
 11 23  1  0
 11 24  1  0
 12 25  1  0
 13 26  1  0
 13 27  1  0
 13 28  1  0
 15 29  1  0
M  CHG  1  13   1
M  END
>  <mol_id>  (79) 
2026-08-24-6tgu-s0-n100-seed1-0083

>  <rmsd_to_ref>  (79) 


$$$$

     RDKit          3D

 39 43  0  0  0  0  0  0  0  0999 V2000
    4.3137   20.1772   35.5770 O   0  0  0  0  0  0  0  0  0  0  0  0
    2.5772   20.7301   39.1329 C   0  0  0  0  0  0  0  0  0  0  0  0
    0.0619   19.0912   44.2436 N   0  0  0  0  0  0  0  0  0  0  0  0
    3.8717   16.1787   36.9025 C   0  0  1  0  0  0  0  0  0  0  0  0
   -0.6561   16.9725   46.9909 C   0  0  0  0  0  0  0  0  0  0  0  0
    2.3920   17.0347   40.1269 O   0  0  0  0  0  0  0  0  0  0  0  0
    1.0295   17.4142   42.5167 C   0  0  0  0  0  0  0  0  0  0  0  0
    3.6033   20.2690   36.5046 C   0  0  0  0  0  0  0  0  0  0  0  0
   -0.4060   17.6396   45.6348 C   0  0  0  0  0  0  0  0  0  0  0  0
    3.7074   17.7926   36.7276 O   0  0  0  0  0  0  0  0  0  0  0  0
    2.5568   19.3999   39.7486 C   0  0  1  0  0  0  0  0  0  0  0  0
    2.7173   21.5853   38.2224 C   0  0  0  0  0  0  0  0  0  0  0  0
   -1.2518   15.6692   46.8712 C   0  0  0  0  0  0  0  0  0  0  0  0
    3.4278   19.0418   37.4625 C   0  0  1  0  0  0  0  0  0  0  0  0
    2.8857   15.3603   37.1812 C   0  0  0  0  0  0  0  0  0  0  0  0
    3.6580   14.2080   35.5998 O   0  0  0  0  0  0  0  0  0  0  0  0
   -0.2328   18.9826   45.4166 N   0  0  0  0  0  0  0  0  0  0  0  0
    3.5465   15.0110   36.4254 C   0  0  0  0  0  0  0  0  0  0  0  0
    1.2643   16.2392   42.4091 O   0  0  0  0  0  0  0  0  0  0  0  0
    0.1164   17.9089   43.6579 C   0  0  0  0  0  0  0  0  0  0  0  0
   -1.8665   16.7099   47.7019 C   0  0  0  0  0  0  0  0  0  0  0  0
   -0.1796   16.9315   44.5568 N   0  0  0  0  0  0  0  0  0  0  0  0
    1.9955   20.8267   40.5027 S   0  0  0  0  0  0  0  0  0  0  0  0
    2.1426   18.1559   40.5391 C   0  0  0  0  0  0  0  0  0  0  0  0
    3.4111   18.5643   38.7053 O   0  0  0  0  0  0  0  0  0  0  0  0
    1.5206   18.3565   41.7444 N   0  0  0  0  0  0  0  0  0  0  0  0
    3.1646   21.4051   36.7939 O   0  0  0  0  0  0  0  0  0  0  0  0
    4.8409   16.6458   37.1317 H   0  0  0  0  0  0  0  0  0  0  0  0
    0.2307   17.5010   47.3708 H   0  0  0  0  0  0  0  0  0  0  0  0
    2.4779   22.6195   38.5109 H   0  0  0  0  0  0  0  0  0  0  0  0
   -1.7265   15.3627   45.9274 H   0  0  0  0  0  0  0  0  0  0  0  0
   -0.9141   14.6348   47.0323 H   0  0  0  0  0  0  0  0  0  0  0  0
    2.8397   19.8997   37.8204 H   0  0  0  0  0  0  0  0  0  0  0  0
    2.8736   14.8517   38.1565 H   0  0  0  0  0  0  0  0  0  0  0  0
    1.7944   15.4941   37.2110 H   0  0  0  0  0  0  0  0  0  0  0  0
   -1.8534   16.6194   48.7981 H   0  0  0  0  0  0  0  0  0  0  0  0
   -2.8588   17.1816   47.7545 H   0  0  0  0  0  0  0  0  0  0  0  0
   -0.2158   15.9106   44.4250 H   0  0  0  0  0  0  0  0  0  0  0  0
    1.4309   19.3288   42.0723 H   0  0  0  0  0  0  0  0  0  0  0  0
  1  8  2  0
  2 11  1  0
  2 23  1  0
  3 17  1  0
  4 10  1  0
  4 15  1  0
  5 13  1  0
  5 21  1  0
  6 24  2  0
  7 19  2  0
  7 20  1  0
  8 27  1  0
  8 14  1  0
  9  5  1  0
 11 23  1  0
 11 24  1  6
 12  2  2  0
 13 21  1  0
 14 10  1  0
 14 25  1  0
 16 18  2  0
 17  9  2  0
 18  4  1  0
 18 15  1  0
 20  3  2  0
 20 22  1  0
 22  9  1  0
 24 26  1  0
 25 11  1  0
 26  7  1  0
 27 12  1  0
  4 28  1  1
  5 29  1  0
 12 30  1  0
 13 31  1  0
 13 32  1  0
 14 33  1  6
 15 34  1  0
 15 35  1  0
 21 36  1  0
 21 37  1  0
 22 38  1  0
 26 39  1  0
M  END
>  <mol_id>  (80) 
2026-08-24-6tgu-s0-n100-seed1-0084

>  <rmsd_to_ref>  (80) 


$$$$

     RDKit          3D

 28 31  0  0  0  0  0  0  0  0999 V2000
    2.2000   19.8550   39.1740 C   0  0  0  0  0  0  0  0  0  0  0  0
    1.6880   16.5010   42.1320 O   0  0  0  0  0  0  0  0  0  0  0  0
    2.1030   17.8620   40.5350 N   0  0  0  0  0  0  0  0  0  0  0  0
    2.5030   20.5670   38.0340 C   0  0  0  0  0  0  0  0  0  0  0  0
    3.3200   19.9950   37.0440 C   0  0  0  0  0  0  0  0  0  0  0  0
    1.4850   20.3370   40.3190 C   0  0  0  0  0  0  0  0  0  0  0  0
    3.7160   18.5690   37.2170 C   0  0  0  0  0  0  0  0  0  0  0  0
    1.4120   17.6190   41.6840 C   0  0  0  0  0  0  0  0  0  0  0  0
    0.9610   20.0440   41.4620 N   0  0  0  0  0  0  0  0  0  0  0  0
   -1.2030   18.6590   44.4300 C   0  0  0  0  0  0  0  0  0  0  0  0
    3.7070   20.6920   35.9960 O   0  0  0  0  0  0  0  0  0  0  0  0
   -1.1600   20.0050   43.7250 N   0  0  0  0  0  0  0  0  0  0  0  0
    2.5870   18.4430   39.3200 C   0  0  0  0  0  0  0  0  0  0  0  0
    0.4970   18.5950   42.5020 C   0  0  1  0  0  0  0  0  0  0  0  0
   -0.2320   19.8600   42.4810 C   0  0  2  0  0  0  0  0  0  0  0  0
    3.3570   17.9280   38.4320 C   0  0  0  0  0  0  0  0  0  0  0  0
   -0.1340   17.7960   43.7290 C   0  0  0  0  0  0  0  0  0  0  0  0
    2.7166   17.0350   40.5560 H   0  0  0  0  0  0  0  0  0  0  0  0
    2.1052   21.5836   37.8987 H   0  0  0  0  0  0  0  0  0  0  0  0
    2.1610   21.1473   40.6295 H   0  0  0  0  0  0  0  0  0  0  0  0
    0.5318   20.1034   39.8221 H   0  0  0  0  0  0  0  0  0  0  0  0
    4.2671   18.0318   36.4311 H   0  0  0  0  0  0  0  0  0  0  0  0
   -1.8575   18.3633   45.2632 H   0  0  0  0  0  0  0  0  0  0  0  0
    3.4318   21.6383   35.9018 H   0  0  0  0  0  0  0  0  0  0  0  0
   -0.9989   20.6242   42.2862 H   0  0  0  0  0  0  0  0  0  0  0  0
    3.7654   16.9249   38.6246 H   0  0  0  0  0  0  0  0  0  0  0  0
   -0.5988   16.8700   43.3597 H   0  0  0  0  0  0  0  0  0  0  0  0
    0.6620   17.5541   44.4486 H   0  0  0  0  0  0  0  0  0  0  0  0
  1 13  2  0
  1  6  1  0
  3  8  1  0
  4  1  1  0
  5  7  1  0
  5  4  2  0
  7 16  2  0
  8  2  2  0
  8 14  1  0
  9  6  1  0
  9 15  1  0
  9 14  1  0
 11  5  1  0
 12 10  2  0
 13  3  1  0
 14 17  1  1
 15 14  1  0
 15 12  1  0
 16 13  1  0
 17 10  1  0
  3 18  1  0
  4 19  1  0
  6 20  1  0
  6 21  1  0
  7 22  1  0
 10 23  1  0
 11 24  1  0
 15 25  1  6
 16 26  1  0
 17 27  1  0
 17 28  1  0
M  END
>  <mol_id>  (81) 
2026-08-24-6tgu-s0-n100-seed1-0086

>  <rmsd_to_ref>  (81) 


$$$$

     RDKit          3D

 23 24  0  0  0  0  0  0  0  0999 V2000
    0.8037   19.3547   42.4796 C   0  0  0  0  0  0  0  0  0  0  0  0
    1.8204   19.8073   39.9167 C   0  0  0  0  0  0  0  0  0  0  0  0
    3.9822   19.4042   36.7539 C   0  0  0  0  0  0  0  0  0  0  0  0
    0.0794   20.1216   41.5065 C   0  0  0  0  0  0  0  0  0  0  0  0
    3.9395   18.6367   40.5200 C   0  0  0  0  0  0  0  0  0  0  0  0
    2.0446   18.8636   42.1526 C   0  0  0  0  0  0  0  0  0  0  0  0
    2.8790   19.5931   35.9066 O   0  0  0  0  0  0  0  0  0  0  0  0
    0.5845   20.4120   40.2641 C   0  0  0  0  0  0  0  0  0  0  0  0
    3.6223   19.3197   38.1617 C   0  0  0  0  0  0  0  0  0  0  0  0
    4.4387   18.7028   39.1812 C   0  0  0  0  0  0  0  0  0  0  0  0
   -1.0967   20.6785   41.8150 O   0  0  0  0  0  0  0  0  0  0  0  0
    2.6759   19.1142   40.9168 C   0  0  0  0  0  0  0  0  0  0  0  0
    2.3103   19.8798   38.5249 C   0  0  0  0  0  0  0  0  0  0  0  0
    0.3716   19.1627   43.4728 H   0  0  0  0  0  0  0  0  0  0  0  0
    4.6729   20.2499   36.6208 H   0  0  0  0  0  0  0  0  0  0  0  0
    4.4425   18.4439   36.4783 H   0  0  0  0  0  0  0  0  0  0  0  0
    4.5836   18.1841   41.2883 H   0  0  0  0  0  0  0  0  0  0  0  0
    2.5724   18.2435   42.8922 H   0  0  0  0  0  0  0  0  0  0  0  0
    2.1893   20.1254   36.3767 H   0  0  0  0  0  0  0  0  0  0  0  0
    0.0561   21.0820   39.5700 H   0  0  0  0  0  0  0  0  0  0  0  0
    5.4277   18.2907   38.9323 H   0  0  0  0  0  0  0  0  0  0  0  0
   -1.5880   21.2057   41.1362 H   0  0  0  0  0  0  0  0  0  0  0  0
    1.6889   20.3568   37.7526 H   0  0  0  0  0  0  0  0  0  0  0  0
  2 12  1  0
  2  8  2  0
  3  9  1  0
  4  1  2  0
  4 11  1  0
  5 12  1  0
  6  1  1  0
  7  3  1  0
  8  4  1  0
  9 10  1  0
  9 13  2  0
 10  5  2  0
 12  6  2  0
 13  2  1  0
  1 14  1  0
  3 15  1  0
  3 16  1  0
  5 17  1  0
  6 18  1  0
  7 19  1  0
  8 20  1  0
 10 21  1  0
 11 22  1  0
 13 23  1  0
M  END
>  <mol_id>  (82) 
2026-08-24-6tgu-s0-n100-seed1-0087

>  <rmsd_to_ref>  (82) 


$$$$

     RDKit          3D

 42 44  0  0  0  0  0  0  0  0999 V2000
    2.4004   13.6095   40.3324 S   0  0  0  0  0  0  0  0  0  0  0  0
    2.4041   21.9973   36.4914 O   0  0  0  0  0  0  0  0  0  0  0  0
   -0.1451   16.8154   43.6883 C   0  0  0  0  0  0  0  0  0  0  0  0
    1.9631   18.7351   40.0182 C   0  0  0  0  0  0  0  0  0  0  0  0
    4.3078   20.8710   36.3926 O   0  0  0  0  0  0  0  0  0  0  0  0
    3.8299   16.2560   36.8546 C   0  0  0  0  0  0  0  0  0  0  0  0
    4.2480   15.2966   36.7805 O   0  0  0  0  0  0  0  0  0  0  0  0
    2.9242   19.0056   38.8372 C   0  0  0  0  0  0  0  0  0  0  0  0
    1.8162   15.0925   40.7010 C   0  0  0  0  0  0  0  0  0  0  0  0
    1.4650   21.2101   40.2043 C   0  0  0  0  0  0  0  0  0  0  0  0
    1.3802   19.7984   40.6335 C   0  0  0  0  0  0  0  0  0  0  0  0
   -0.5329   19.1171   42.8287 C   0  0  0  0  0  0  0  0  0  0  0  0
   -0.7360   17.1778   44.9444 C   0  0  0  0  0  0  0  0  0  0  0  0
   -1.1779   18.4651   45.0997 C   0  0  0  0  0  0  0  0  0  0  0  0
    3.7829   17.8844   38.5226 C   0  0  0  0  0  0  0  0  0  0  0  0
    3.2606   17.5549   37.1520 C   0  0  0  0  0  0  0  0  0  0  0  0
   -1.0192   19.4193   44.1055 N   0  0  0  0  0  0  0  0  0  0  0  0
    1.0153   16.9521   41.6099 C   0  0  0  0  0  0  0  0  0  0  0  0
    2.0326   21.4709   38.9864 C   0  0  0  0  0  0  0  0  0  0  0  0
    2.7218   20.3811   38.3043 C   0  0  0  0  0  0  0  0  0  0  0  0
    0.9935   15.4935   41.7288 N   0  0  0  0  0  0  0  0  0  0  0  0
    0.1444   17.6097   42.6451 C   0  0  0  0  0  0  0  0  0  0  0  0
    2.1769   16.1314   39.8846 O   0  0  0  0  0  0  0  0  0  0  0  0
    3.1958   20.9651   37.0724 C   0  0  0  0  0  0  0  0  0  0  0  0
   -0.7560   20.1818   42.0522 N   0  0  0  0  0  0  0  0  0  0  0  0
    1.6755   17.3252   40.5198 C   0  0  0  0  0  0  0  0  0  0  0  0
    0.1024   15.7508   43.5640 H   0  0  0  0  0  0  0  0  0  0  0  0
    4.6276   16.6982   36.2397 H   0  0  0  0  0  0  0  0  0  0  0  0
    2.9640   15.8009   37.3577 H   0  0  0  0  0  0  0  0  0  0  0  0
    4.3440   14.9076   37.6858 H   0  0  0  0  0  0  0  0  0  0  0  0
    1.0853   22.0226   40.8412 H   0  0  0  0  0  0  0  0  0  0  0  0
    0.7891   19.5877   41.5369 H   0  0  0  0  0  0  0  0  0  0  0  0
   -0.8312   16.4441   45.7584 H   0  0  0  0  0  0  0  0  0  0  0  0
   -1.6728   18.7503   46.0398 H   0  0  0  0  0  0  0  0  0  0  0  0
    4.8441   18.1731   38.4998 H   0  0  0  0  0  0  0  0  0  0  0  0
    3.7587   17.0564   39.2463 H   0  0  0  0  0  0  0  0  0  0  0  0
    3.5933   18.3035   36.4180 H   0  0  0  0  0  0  0  0  0  0  0  0
    2.1614   17.5514   37.1108 H   0  0  0  0  0  0  0  0  0  0  0  0
    1.9708   22.4723   38.5355 H   0  0  0  0  0  0  0  0  0  0  0  0
    0.4880   14.9116   42.4120 H   0  0  0  0  0  0  0  0  0  0  0  0
   -0.4702   20.1666   41.0627 H   0  0  0  0  0  0  0  0  0  0  0  0
   -1.2138   21.0175   42.4432 H   0  0  0  0  0  0  0  0  0  0  0  0
  1  9  2  0
  2 24  1  0
  3 13  2  0
  4 11  2  0
  4 26  1  0
  5 24  2  0
  6  7  1  0
  6 16  1  0
  8  4  1  0
  9 21  1  0
 10 11  1  0
 12 17  1  0
 13 14  1  0
 15  8  1  0
 16 15  1  0
 17 14  2  0
 18 21  1  0
 18 22  1  0
 19 10  2  0
 20 19  1  0
 20  8  2  0
 22 12  2  0
 22  3  1  0
 23 26  1  0
 23  9  1  0
 24 20  1  0
 25 12  1  0
 26 18  2  0
  3 27  1  0
  6 28  1  0
  6 29  1  0
  7 30  1  0
 10 31  1  0
 11 32  1  0
 13 33  1  0
 14 34  1  0
 15 35  1  0
 15 36  1  0
 16 37  1  0
 16 38  1  0
 19 39  1  0
 21 40  1  0
 25 41  1  0
 25 42  1  0
M  CHG  1   2  -1
M  END
>  <mol_id>  (83) 
2026-08-24-6tgu-s0-n100-seed1-0088

>  <rmsd_to_ref>  (83) 


$$$$

     RDKit          3D

 34 37  0  0  0  0  0  0  0  0999 V2000
    2.1899   21.2599   38.6860 C   0  0  0  0  0  0  0  0  0  0  0  0
    2.5425   19.0465   39.7398 C   0  0  0  0  0  0  0  0  0  0  0  0
    4.2225   18.0075   38.0302 C   0  0  0  0  0  0  0  0  0  0  0  0
    0.6320   17.4153   42.7616 C   0  0  0  0  0  0  0  0  0  0  0  0
    0.6150   19.6723   41.7753 C   0  0  0  0  0  0  0  0  0  0  0  0
   -0.8461   19.1750   43.6484 C   0  0  0  0  0  0  0  0  0  0  0  0
   -0.9514   16.9343   44.7158 C   0  0  0  0  0  0  0  0  0  0  0  0
    3.0150   16.6483   40.4403 C   0  0  1  0  0  0  0  0  0  0  0  0
    0.9186   20.7165   40.7814 C   0  0  0  0  0  0  0  0  0  0  0  0
    3.2826   20.3924   37.6967 S   0  0  0  0  0  0  0  0  0  0  0  0
    4.6684   14.6766   39.5619 C   0  0  0  0  0  0  0  0  0  0  0  0
    3.3827   19.0455   38.5534 C   0  0  0  0  0  0  0  0  0  0  0  0
    1.1719   18.2856   41.7747 C   0  0  0  0  0  0  0  0  0  0  0  0
    2.1350   17.9359   40.7404 C   0  0  0  0  0  0  0  0  0  0  0  0
    3.9861   15.8338   39.3913 C   0  0  0  0  0  0  0  0  0  0  0  0
    4.3601   16.8665   38.4680 N   0  0  0  0  0  0  0  0  0  0  0  0
   -0.3408   20.1088   42.7419 C   0  0  0  0  0  0  0  0  0  0  0  0
    2.8075   15.7624   41.5809 O   0  0  0  0  0  0  0  0  0  0  0  0
    4.8657   18.3932   36.7717 O   0  0  0  0  0  0  0  0  0  0  0  0
   -0.3596   17.8343   43.7075 C   0  0  0  0  0  0  0  0  0  0  0  0
    1.9431   20.3185   39.8374 C   0  0  0  0  0  0  0  0  0  0  0  0
    1.7688   22.2628   38.5219 H   0  0  0  0  0  0  0  0  0  0  0  0
    0.9909   16.3762   42.8005 H   0  0  0  0  0  0  0  0  0  0  0  0
   -1.6449   19.4822   44.3393 H   0  0  0  0  0  0  0  0  0  0  0  0
   -1.1427   17.4964   45.6418 H   0  0  0  0  0  0  0  0  0  0  0  0
   -1.8982   16.5261   44.3324 H   0  0  0  0  0  0  0  0  0  0  0  0
   -0.2545   16.1094   44.9251 H   0  0  0  0  0  0  0  0  0  0  0  0
    2.1610   16.1848   39.9249 H   0  0  0  0  0  0  0  0  0  0  0  0
    0.4193   21.6964   40.7585 H   0  0  0  0  0  0  0  0  0  0  0  0
    4.7798   14.4717   40.6369 H   0  0  0  0  0  0  0  0  0  0  0  0
    4.1166   13.8521   39.0867 H   0  0  0  0  0  0  0  0  0  0  0  0
    5.6630   14.7660   39.1007 H   0  0  0  0  0  0  0  0  0  0  0  0
   -0.6718   21.1574   42.7718 H   0  0  0  0  0  0  0  0  0  0  0  0
    2.5906   16.3015   42.3824 H   0  0  0  0  0  0  0  0  0  0  0  0
  1 21  2  0
  2 14  1  0
  2 21  1  0
  3 12  1  0
  4 20  2  0
  5 17  1  0
  8 18  1  0
  8 14  1  0
  9  5  2  0
 10 12  1  0
 10  1  1  0
 11 15  1  0
 12  2  2  0
 13  5  1  0
 13  4  1  0
 14 13  2  0
 15  8  1  0
 16  3  1  0
 16 15  2  0
 17  6  2  0
 19  3  2  0
 20  6  1  0
 20  7  1  0
 21  9  1  0
  1 22  1  0
  4 23  1  0
  6 24  1  0
  7 25  1  0
  7 26  1  0
  7 27  1  0
  8 28  1  1
  9 29  1  0
 11 30  1  0
 11 31  1  0
 11 32  1  0
 17 33  1  0
 18 34  1  0
M  END
>  <mol_id>  (84) 
2026-08-24-6tgu-s0-n100-seed1-0089

>  <rmsd_to_ref>  (84) 


$$$$

     RDKit          3D

 32 35  0  0  0  0  0  0  0  0999 V2000
    2.9149   18.3726   40.0097 N   0  0  0  0  0  0  0  0  0  0  0  0
    4.8520   18.4488   36.9336 O   0  0  0  0  0  0  0  0  0  0  0  0
    1.1212   19.2459   41.1312 C   0  0  0  0  0  0  0  0  0  0  0  0
    0.4237   16.5114   42.7701 N   0  0  0  0  0  0  0  0  0  0  0  0
    0.1054   19.0478   42.1708 C   0  0  0  0  0  0  0  0  0  0  0  0
   -0.6457   20.0994   42.4586 C   0  0  0  0  0  0  0  0  0  0  0  0
    2.0414   20.3614   39.1118 C   0  0  0  0  0  0  0  0  0  0  0  0
    1.6778   15.6973   42.4919 O   0  0  0  0  0  0  0  0  0  0  0  0
    2.2013   22.5076   37.2397 C   0  0  0  0  0  0  0  0  0  0  0  0
    3.5686   19.1869   37.8346 C   0  0  0  0  0  0  0  0  0  0  0  0
   -0.0094   15.5789   43.7354 O   0  0  0  0  0  0  0  0  0  0  0  0
    2.5625   21.1379   37.8201 C   0  0  2  0  0  0  0  0  0  0  0  0
    4.2293   17.9174   37.9828 O   0  0  0  0  0  0  0  0  0  0  0  0
    3.3731   20.4283   37.1642 N   0  0  0  0  0  0  0  0  0  0  0  0
   -1.5417   19.9415   43.3933 C   0  0  0  0  0  0  0  0  0  0  0  0
    1.0979   20.4380   40.2390 C   0  0  0  0  0  0  0  0  0  0  0  0
   -0.0891   17.8128   42.8680 C   0  0  0  0  0  0  0  0  0  0  0  0
   -1.6811   18.9935   44.2079 N   0  0  0  0  0  0  0  0  0  0  0  0
    2.8640   19.3315   39.0026 C   0  0  0  0  0  0  0  0  0  0  0  0
   -0.9982   17.9206   43.8891 C   0  0  0  0  0  0  0  0  0  0  0  0
    2.0719   18.3097   40.9437 C   0  0  0  0  0  0  0  0  0  0  0  0
   -0.5204   21.0588   41.9354 H   0  0  0  0  0  0  0  0  0  0  0  0
    1.9141   23.1874   38.0554 H   0  0  0  0  0  0  0  0  0  0  0  0
    3.0704   22.9208   36.7068 H   0  0  0  0  0  0  0  0  0  0  0  0
    1.3597   22.3988   36.5397 H   0  0  0  0  0  0  0  0  0  0  0  0
    3.3586   21.6023   38.4205 H   0  0  0  0  0  0  0  0  0  0  0  0
    2.9929   20.2538   36.2230 H   0  0  0  0  0  0  0  0  0  0  0  0
    4.2742   20.9210   37.0849 H   0  0  0  0  0  0  0  0  0  0  0  0
   -2.2799   20.7522   43.4815 H   0  0  0  0  0  0  0  0  0  0  0  0
    0.4346   21.2993   40.4074 H   0  0  0  0  0  0  0  0  0  0  0  0
   -1.1708   17.0214   44.4987 H   0  0  0  0  0  0  0  0  0  0  0  0
    2.1136   17.4550   41.6348 H   0  0  0  0  0  0  0  0  0  0  0  0
  1 21  2  0
  2 10  1  0
  2 13  1  0
  3  5  1  0
  4 11  1  0
  5  6  2  0
  5 17  1  0
  6 15  1  0
  7 16  1  0
  8  4  2  0
 10 13  1  0
 10 19  1  0
 12  9  1  0
 12  7  1  0
 14 12  1  0
 14 10  1  0
 15 18  2  0
 16  3  2  0
 17  4  1  0
 17 20  2  0
 19  7  2  0
 19  1  1  0
 20 18  1  0
 21  3  1  0
  6 22  1  0
  9 23  1  0
  9 24  1  0
  9 25  1  0
 12 26  1  1
 14 27  1  0
 14 28  1  0
 15 29  1  0
 16 30  1  0
 20 31  1  0
 21 32  1  0
M  CHG  3   4   1  11  -1  14   1
M  END
>  <mol_id>  (85) 
2026-08-24-6tgu-s0-n100-seed1-0090

>  <rmsd_to_ref>  (85) 


$$$$

     RDKit          3D

 51 52  0  0  0  0  0  0  0  0999 V2000
    3.7587   18.2329   36.6598 O   0  0  0  0  0  0  0  0  0  0  0  0
    1.7122   18.4047   40.9642 C   0  0  1  0  0  0  0  0  0  0  0  0
    1.0176   17.6127   41.8349 C   0  0  2  0  0  0  0  0  0  0  0  0
    3.3759   20.7086   35.2838 O   0  0  0  0  0  0  0  0  0  0  0  0
    2.5088   14.3593   40.9479 C   0  0  0  0  0  0  0  0  0  0  0  0
    2.3714   17.4238   40.1226 N   0  0  0  0  0  0  0  0  0  0  0  0
    1.8338   19.8881   39.2133 C   0  0  0  0  0  0  0  0  0  0  0  0
    2.6092   19.0378   38.4466 C   0  0  0  0  0  0  0  0  0  0  0  0
    0.1823   17.3176   43.8872 O   0  0  0  0  0  0  0  0  0  0  0  0
    3.7438   16.8660   38.3777 O   0  0  0  0  0  0  0  0  0  0  0  0
   -0.8503   16.8646   43.7920 C   0  0  0  0  0  0  0  0  0  0  0  0
   -0.8891   18.2821   45.7506 N   0  0  0  0  0  0  0  0  0  0  0  0
    1.2908   19.6390   40.4452 C   0  0  0  0  0  0  0  0  0  0  0  0
    2.4776   15.3004   41.8250 N   0  0  0  0  0  0  0  0  0  0  0  0
    0.7240   18.3753   43.2655 C   0  0  0  0  0  0  0  0  0  0  0  0
    1.6638   21.0813   36.5419 O   0  0  0  0  0  0  0  0  0  0  0  0
    2.3283   14.7260   39.7970 O   0  0  0  0  0  0  0  0  0  0  0  0
    0.2730   18.5776   46.0271 C   0  0  0  0  0  0  0  0  0  0  0  0
    2.7997   13.0893   41.2448 N   0  0  0  0  0  0  0  0  0  0  0  0
    1.5327   16.2457   41.9845 C   0  0  0  0  0  0  0  0  0  0  0  0
   -1.5238   17.7001   44.6293 C   0  0  0  0  0  0  0  0  0  0  0  0
    0.2133   17.6854   47.8831 C   0  0  0  0  0  0  0  0  0  0  0  0
   -0.1581   17.4032   46.5093 C   0  0  1  0  0  0  0  0  0  0  0  0
    3.3462   19.4278   37.1317 C   0  0  2  0  0  0  0  0  0  0  0  0
    2.8564   17.8230   38.9877 C   0  0  0  0  0  0  0  0  0  0  0  0
    2.6843   20.4789   36.3371 C   0  0  0  0  0  0  0  0  0  0  0  0
    4.0272   17.6540   37.4168 H   0  0  0  0  0  0  0  0  0  0  0  0
    2.3571   19.0900   41.5339 H   0  0  0  0  0  0  0  0  0  0  0  0
    0.0400   17.4526   41.3567 H   0  0  0  0  0  0  0  0  0  0  0  0
    2.4517   16.4401   40.4173 H   0  0  0  0  0  0  0  0  0  0  0  0
    1.6294   20.8798   38.7834 H   0  0  0  0  0  0  0  0  0  0  0  0
   -1.2311   16.9176   42.7613 H   0  0  0  0  0  0  0  0  0  0  0  0
   -0.9224   15.7934   44.0315 H   0  0  0  0  0  0  0  0  0  0  0  0
    1.5964   20.4382   41.1365 H   0  0  0  0  0  0  0  0  0  0  0  0
    0.1969   19.6063   40.3348 H   0  0  0  0  0  0  0  0  0  0  0  0
    3.2694   15.3343   42.4830 H   0  0  0  0  0  0  0  0  0  0  0  0
    1.6440   18.7287   43.7540 H   0  0  0  0  0  0  0  0  0  0  0  0
    0.1206   19.2943   43.2265 H   0  0  0  0  0  0  0  0  0  0  0  0
    1.0300   18.5857   45.2290 H   0  0  0  0  0  0  0  0  0  0  0  0
    0.7326   19.4596   46.4969 H   0  0  0  0  0  0  0  0  0  0  0  0
    2.8102   12.3761   40.5018 H   0  0  0  0  0  0  0  0  0  0  0  0
    3.0134   12.8236   42.2168 H   0  0  0  0  0  0  0  0  0  0  0  0
    1.4165   16.1597   43.0750 H   0  0  0  0  0  0  0  0  0  0  0  0
    1.2044   16.0446   40.9541 H   0  0  0  0  0  0  0  0  0  0  0  0
   -1.8892   18.5332   44.0107 H   0  0  0  0  0  0  0  0  0  0  0  0
   -2.2623   17.0298   45.0932 H   0  0  0  0  0  0  0  0  0  0  0  0
   -0.4904   17.1836   48.5636 H   0  0  0  0  0  0  0  0  0  0  0  0
    1.2320   17.3154   48.0709 H   0  0  0  0  0  0  0  0  0  0  0  0
    0.1798   18.7712   48.0563 H   0  0  0  0  0  0  0  0  0  0  0  0
   -0.1867   16.3037   46.4873 H   0  0  0  0  0  0  0  0  0  0  0  0
    4.2516   20.0493   37.1963 H   0  0  0  0  0  0  0  0  0  0  0  0
  2  3  1  0
  3 20  1  0
  3 15  1  0
  4 26  2  0
  5 19  1  0
  5 14  1  0
  6  2  1  0
  7 13  1  0
  8 25  1  0
  8  7  2  0
 10 25  2  0
 11  9  1  0
 11 21  1  0
 12 18  1  0
 12 23  1  0
 13  2  1  0
 14 20  1  0
 15  9  1  0
 17  5  2  0
 18 23  1  0
 21 12  1  0
 23 22  1  0
 24  1  1  0
 24  8  1  0
 25  6  1  0
 26 16  1  0
 26 24  1  0
  1 27  1  0
  2 28  1  1
  3 29  1  6
  6 30  1  0
  7 31  1  0
 11 32  1  0
 11 33  1  0
 13 34  1  0
 13 35  1  0
 14 36  1  0
 15 37  1  0
 15 38  1  0
 18 39  1  0
 18 40  1  0
 19 41  1  0
 19 42  1  0
 20 43  1  0
 20 44  1  0
 21 45  1  0
 21 46  1  0
 22 47  1  0
 22 48  1  0
 22 49  1  0
 23 50  1  6
 24 51  1  1
M  CHG  1  16  -1
M  END
>  <mol_id>  (86) 
2026-08-24-6tgu-s0-n100-seed1-0091

>  <rmsd_to_ref>  (86) 


$$$$

     RDKit          3D

 48 53  0  0  0  0  0  0  0  0999 V2000
    4.3079   14.3484   39.5901 C   0  0  0  0  0  0  0  0  0  0  0  0
    3.3040   19.3942   37.2385 C   0  0  0  0  0  0  0  0  0  0  0  0
    2.1957   18.2927   39.5681 C   0  0  0  0  0  0  0  0  0  0  0  0
    0.9827   13.7671   42.8765 C   0  0  0  0  0  0  0  0  0  0  0  0
    1.7065   21.3074   37.3146 C   0  0  0  0  0  0  0  0  0  0  0  0
   -0.1392   13.8991   43.6685 C   0  0  0  0  0  0  0  0  0  0  0  0
    3.0992   17.4472   38.7941 C   0  0  0  0  0  0  0  0  0  0  0  0
   -1.2511   17.2769   43.6047 C   0  0  1  0  0  0  0  0  0  0  0  0
    2.6280   14.5313   41.3349 O   0  0  0  0  0  0  0  0  0  0  0  0
    1.5110   18.0815   40.6895 N   0  0  0  0  0  0  0  0  0  0  0  0
   -1.6684   18.3642   43.2412 N   0  0  0  0  0  0  0  0  0  0  0  0
   -2.0857   17.5333   44.2680 N   0  0  0  0  0  0  0  0  0  0  0  0
    2.2986   20.1134   37.8623 C   0  0  0  0  0  0  0  0  0  0  0  0
    0.8867   19.4493   40.8617 C   0  0  0  0  0  0  0  0  0  0  0  0
   -0.2185   19.6800   41.7802 C   0  0  0  0  0  0  0  0  0  0  0  0
    1.0795   20.2338   39.8486 N   0  0  0  0  0  0  0  0  0  0  0  0
   -1.0269   19.1965   42.3938 C   0  0  0  0  0  0  0  0  0  0  0  0
    1.4532   14.8320   42.1077 C   0  0  0  0  0  0  0  0  0  0  0  0
    3.9312   20.0837   36.1614 O   0  0  0  0  0  0  0  0  0  0  0  0
   -0.3450   16.1842   43.0822 C   0  0  0  0  0  0  0  0  0  0  0  0
   -0.7786   15.1106   43.8256 C   0  0  0  0  0  0  0  0  0  0  0  0
    4.5108   15.2896   38.5518 C   0  0  0  0  0  0  0  0  0  0  0  0
    1.8748   19.5204   39.0308 C   0  0  0  0  0  0  0  0  0  0  0  0
    3.3555   16.1029   39.2065 N   0  0  0  0  0  0  0  0  0  0  0  0
    3.6646   18.0919   37.6491 C   0  0  0  0  0  0  0  0  0  0  0  0
    3.3308   15.0801   40.2516 C   0  0  2  0  0  0  0  0  0  0  0  0
    0.8623   16.0251   42.1455 C   0  0  0  0  0  0  0  0  0  0  0  0
    3.9386   13.3800   39.2213 H   0  0  0  0  0  0  0  0  0  0  0  0
    5.1895   14.0421   40.1725 H   0  0  0  0  0  0  0  0  0  0  0  0
    1.5157   12.8052   42.8508 H   0  0  0  0  0  0  0  0  0  0  0  0
    1.2148   21.8749   38.1184 H   0  0  0  0  0  0  0  0  0  0  0  0
    2.4899   21.9273   36.8544 H   0  0  0  0  0  0  0  0  0  0  0  0
    0.9626   21.0314   36.5527 H   0  0  0  0  0  0  0  0  0  0  0  0
   -0.5343   13.0140   44.1886 H   0  0  0  0  0  0  0  0  0  0  0  0
   -0.3930   16.5918   43.6703 H   0  0  0  0  0  0  0  0  0  0  0  0
   -2.9806   17.0282   44.1989 H   0  0  0  0  0  0  0  0  0  0  0  0
    0.3036   20.2449   42.5666 H   0  0  0  0  0  0  0  0  0  0  0  0
   -0.9120   19.7811   40.9324 H   0  0  0  0  0  0  0  0  0  0  0  0
    0.7093   21.1840   39.7029 H   0  0  0  0  0  0  0  0  0  0  0  0
   -1.7046   19.0190   41.5457 H   0  0  0  0  0  0  0  0  0  0  0  0
   -0.5491   19.6430   43.2782 H   0  0  0  0  0  0  0  0  0  0  0  0
    3.6351   20.9968   35.9189 H   0  0  0  0  0  0  0  0  0  0  0  0
   -1.6170   15.2165   44.5298 H   0  0  0  0  0  0  0  0  0  0  0  0
    4.2992   14.9160   37.5391 H   0  0  0  0  0  0  0  0  0  0  0  0
    5.4959   15.7303   38.3388 H   0  0  0  0  0  0  0  0  0  0  0  0
    4.4168   17.5469   37.0599 H   0  0  0  0  0  0  0  0  0  0  0  0
    2.8670   15.5420   41.1358 H   0  0  0  0  0  0  0  0  0  0  0  0
    1.2241   16.8626   41.5309 H   0  0  0  0  0  0  0  0  0  0  0  0
  2 25  2  0
  2 13  1  0
  3 10  1  0
  4  6  2  0
  5 13  1  0
  6 21  1  0
  7 24  1  0
  7  3  2  0
  8 20  1  0
  8 12  1  0
  9 18  1  0
 10 14  2  0
 11 17  1  0
 11  8  1  0
 11 12  1  0
 13 23  2  0
 14 15  1  0
 15 17  1  0
 16 14  1  0
 18  4  1  0
 19  2  1  0
 20 21  2  0
 22 24  1  0
 22  1  1  0
 23  3  1  0
 23 16  1  0
 24 26  1  0
 25  7  1  0
 26  1  1  0
 26  9  1  0
 27 18  2  0
 27 20  1  0
  1 28  1  0
  1 29  1  0
  4 30  1  0
  5 31  1  0
  5 32  1  0
  5 33  1  0
  6 34  1  0
  8 35  1  1
 12 36  1  0
 15 37  1  0
 15 38  1  0
 16 39  1  0
 17 40  1  0
 17 41  1  0
 19 42  1  0
 21 43  1  0
 22 44  1  0
 22 45  1  0
 25 46  1  0
 26 47  1  1
 27 48  1  0
M  END
>  <mol_id>  (87) 
2026-08-24-6tgu-s0-n100-seed1-0092

>  <rmsd_to_ref>  (87) 


$$$$

     RDKit          3D

 31 33  0  0  0  0  0  0  0  0999 V2000
    3.3551   18.4584   36.9556 C   0  0  0  0  0  0  0  0  0  0  0  0
    2.5206   17.3856   38.4884 N   0  0  0  0  0  0  0  0  0  0  0  0
    0.7777   20.3229   41.0238 N   0  0  0  0  0  0  0  0  0  0  0  0
    2.6297   19.3385   37.5257 N   0  0  0  0  0  0  0  0  0  0  0  0
    0.1457   14.0245   43.8578 C   0  0  0  0  0  0  0  0  0  0  0  0
    4.2012   18.4135   35.8031 N   0  0  0  0  0  0  0  0  0  0  0  0
    1.1257   21.1680   40.1082 O   0  0  0  0  0  0  0  0  0  0  0  0
    2.2036   18.5734   38.7224 C   0  0  0  0  0  0  0  0  0  0  0  0
   -0.6339   18.3688   43.4595 O   0  0  0  0  0  0  0  0  0  0  0  0
    0.6557   17.9449   41.6263 C   0  0  2  0  0  0  0  0  0  0  0  0
    3.2235   17.2717   37.4164 N   0  0  0  0  0  0  0  0  0  0  0  0
    0.3193   16.2825   43.1511 N   0  0  0  0  0  0  0  0  0  0  0  0
    1.0503   19.0901   40.7806 C   0  0  0  0  0  0  0  0  0  0  0  0
    1.0657   15.7412   42.1203 C   0  0  0  0  0  0  0  0  0  0  0  0
    1.8438   20.4433   39.2977 C   0  0  0  0  0  0  0  0  0  0  0  0
    1.7494   19.3135   39.5957 C   0  0  0  0  0  0  0  0  0  0  0  0
   -0.1303   15.4841   44.2678 C   0  0  0  0  0  0  0  0  0  0  0  0
    0.0473   17.6029   42.8460 C   0  0  0  0  0  0  0  0  0  0  0  0
    1.3412   16.6828   41.1831 C   0  0  0  0  0  0  0  0  0  0  0  0
    0.3409   13.4218   44.7571 H   0  0  0  0  0  0  0  0  0  0  0  0
   -0.7299   13.6205   43.3286 H   0  0  0  0  0  0  0  0  0  0  0  0
    1.0230   13.9894   43.1953 H   0  0  0  0  0  0  0  0  0  0  0  0
    4.6904   17.5410   35.5571 H   0  0  0  0  0  0  0  0  0  0  0  0
    4.3213   19.2535   35.2193 H   0  0  0  0  0  0  0  0  0  0  0  0
   -0.0988   18.7453   41.6245 H   0  0  0  0  0  0  0  0  0  0  0  0
    3.6026   16.4035   37.0122 H   0  0  0  0  0  0  0  0  0  0  0  0
    1.3912   14.6918   42.0675 H   0  0  0  0  0  0  0  0  0  0  0  0
    2.4457   20.8316   38.4629 H   0  0  0  0  0  0  0  0  0  0  0  0
    0.4316   15.7420   45.1776 H   0  0  0  0  0  0  0  0  0  0  0  0
   -1.1935   15.6539   44.4929 H   0  0  0  0  0  0  0  0  0  0  0  0
    1.9481   16.5487   40.2755 H   0  0  0  0  0  0  0  0  0  0  0  0
  1  4  2  0
  1 11  1  0
  3 13  2  0
  4  8  1  0
  6  1  1  0
  7  3  1  0
  8  2  2  0
  8 16  1  0
 10 13  1  0
 10 19  1  0
 10 18  1  0
 11  2  1  0
 12 17  1  0
 14 12  1  0
 15  7  1  0
 15 16  2  0
 16 13  1  0
 17  5  1  0
 18  9  2  0
 18 12  1  0
 19 14  2  0
  5 20  1  0
  5 21  1  0
  5 22  1  0
  6 23  1  0
  6 24  1  0
 10 25  1  6
 11 26  1  0
 14 27  1  0
 15 28  1  0
 17 29  1  0
 17 30  1  0
 19 31  1  0
M  END
>  <mol_id>  (88) 
2026-08-24-6tgu-s0-n100-seed1-0093

>  <rmsd_to_ref>  (88) 


$$$$

     RDKit          3D

 41 45  0  0  0  0  0  0  0  0999 V2000
    1.5573   18.0210   40.4886 C   0  0  0  0  0  0  0  0  0  0  0  0
   -1.6248   19.6713   41.5619 C   0  0  0  0  0  0  0  0  0  0  0  0
    1.1780   15.4840   42.1796 C   0  0  0  0  0  0  0  0  0  0  0  0
    2.9679   21.9726   36.1906 N   0  0  0  0  0  0  0  0  0  0  0  0
   -0.2251   17.4067   42.1705 C   0  0  0  0  0  0  0  0  0  0  0  0
    0.2505   16.1073   42.7669 C   0  0  0  0  0  0  0  0  0  0  0  0
   -1.2104   17.8647   42.9074 N   0  0  0  0  0  0  0  0  0  0  0  0
    2.1266   15.6151   41.4080 C   0  0  0  0  0  0  0  0  0  0  0  0
    2.2868   20.0002   38.5637 C   0  0  0  0  0  0  0  0  0  0  0  0
    3.5048   20.0619   37.6486 C   0  0  0  0  0  0  0  0  0  0  0  0
    1.8483   21.9057   37.0172 C   0  0  0  0  0  0  0  0  0  0  0  0
    3.6578   21.0954   36.8097 C   0  0  0  0  0  0  0  0  0  0  0  0
    1.4570   21.2498   38.3203 C   0  0  0  0  0  0  0  0  0  0  0  0
    3.3778   17.9119   39.3199 C   0  0  0  0  0  0  0  0  0  0  0  0
   -2.0217   18.8967   42.6634 N   0  0  0  0  0  0  0  0  0  0  0  0
   -1.4690   15.8588   44.4092 N   0  0  0  0  0  0  0  0  0  0  0  0
    2.2735   16.8127   40.7127 C   0  0  0  0  0  0  0  0  0  0  0  0
    3.4375   16.8200   39.9378 N   0  0  0  0  0  0  0  0  0  0  0  0
    2.1756   18.8614   39.3868 C   0  0  0  0  0  0  0  0  0  0  0  0
    0.2812   18.2476   41.1874 C   0  0  0  0  0  0  0  0  0  0  0  0
    0.1143   14.3630   44.1875 O   0  0  0  0  0  0  0  0  0  0  0  0
   -0.5064   19.3587   40.8415 C   0  0  0  0  0  0  0  0  0  0  0  0
    4.5328   18.1064   38.4821 C   0  0  0  0  0  0  0  0  0  0  0  0
    4.4836   19.1410   37.6352 C   0  0  0  0  0  0  0  0  0  0  0  0
   -0.3836   15.3493   43.8569 C   0  0  0  0  0  0  0  0  0  0  0  0
   -2.2254   20.5465   41.2731 H   0  0  0  0  0  0  0  0  0  0  0  0
    1.1134   14.4240   42.4661 H   0  0  0  0  0  0  0  0  0  0  0  0
    3.4108   22.9025   36.1985 H   0  0  0  0  0  0  0  0  0  0  0  0
    2.8132   21.8176   35.1842 H   0  0  0  0  0  0  0  0  0  0  0  0
    2.8492   14.7974   41.2690 H   0  0  0  0  0  0  0  0  0  0  0  0
    1.6569   22.9679   37.2295 H   0  0  0  0  0  0  0  0  0  0  0  0
    1.3564   21.1367   36.4035 H   0  0  0  0  0  0  0  0  0  0  0  0
    4.1944   20.6177   35.9767 H   0  0  0  0  0  0  0  0  0  0  0  0
    3.8809   21.7886   37.6341 H   0  0  0  0  0  0  0  0  0  0  0  0
    1.6218   21.9589   39.1450 H   0  0  0  0  0  0  0  0  0  0  0  0
    0.3959   20.9648   38.2678 H   0  0  0  0  0  0  0  0  0  0  0  0
   -1.9410   15.3572   45.1751 H   0  0  0  0  0  0  0  0  0  0  0  0
   -1.8437   16.7578   44.0742 H   0  0  0  0  0  0  0  0  0  0  0  0
   -0.2199   19.9831   39.9824 H   0  0  0  0  0  0  0  0  0  0  0  0
    5.4071   17.4412   38.5354 H   0  0  0  0  0  0  0  0  0  0  0  0
    5.2857   19.2431   36.8893 H   0  0  0  0  0  0  0  0  0  0  0  0
  1 17  1  0
  1 20  2  0
  2 15  1  0
  3  6  1  0
  4 12  1  0
  4 11  1  0
  5  6  2  0
  5  7  1  0
  6 25  1  0
  8  3  2  0
  9 19  2  0
 10  9  1  0
 11 13  1  0
 12 10  1  0
 13  9  1  0
 14 19  1  0
 14 18  1  0
 15  7  2  0
 17  8  1  0
 18 17  2  0
 19  1  1  0
 20  5  1  0
 22 20  1  0
 22  2  2  0
 23 14  2  0
 24 10  2  0
 24 23  1  0
 25 21  2  0
 25 16  1  0
  2 26  1  0
  3 27  1  0
  4 28  1  0
  4 29  1  0
  8 30  1  0
 11 31  1  0
 11 32  1  0
 12 33  1  0
 12 34  1  0
 13 35  1  0
 13 36  1  0
 16 37  1  0
 16 38  1  0
 22 39  1  0
 23 40  1  0
 24 41  1  0
M  CHG  1   4   1
M  END
>  <mol_id>  (89) 
2026-08-24-6tgu-s0-n100-seed1-0094

>  <rmsd_to_ref>  (89) 


$$$$

     RDKit          3D

 42 44  0  0  0  0  0  0  0  0999 V2000
    2.7320   15.9660   39.1880 O   0  0  0  0  0  0  0  0  0  0  0  0
    0.4460   20.8470   41.8030 N   0  0  0  0  0  0  0  0  0  0  0  0
    1.6100   21.2410   39.6520 N   0  0  0  0  0  0  0  0  0  0  0  0
    0.5560   19.4600   41.8120 C   0  0  0  0  0  0  0  0  0  0  0  0
   -0.3290   21.1340   42.8510 N   0  0  0  0  0  0  0  0  0  0  0  0
   -0.0740   18.8910   42.8960 C   0  0  1  0  0  0  0  0  0  0  0  0
    2.6970   20.6780   37.6300 C   0  0  0  0  0  0  0  0  0  0  0  0
    3.4900   19.6750   37.1800 C   0  0  0  0  0  0  0  0  0  0  0  0
    1.9030   15.9770   41.4100 C   0  0  1  0  0  0  0  0  0  0  0  0
    1.3440   16.6540   42.4910 N   0  0  0  0  0  0  0  0  0  0  0  0
    2.3730   18.8250   38.9950 C   0  0  2  0  0  0  0  0  0  0  0  0
   -0.5930   16.7750   44.0400 C   0  0  0  0  0  0  0  0  0  0  0  0
    2.2860   16.6430   40.0710 C   0  0  0  0  0  0  0  0  0  0  0  0
    0.5180   17.5330   43.3110 C   0  0  2  0  0  0  0  0  0  0  0  0
    2.2950   14.5900   41.5060 C   0  0  0  0  0  0  0  0  0  0  0  0
    2.1540   20.3230   38.9290 C   0  0  0  0  0  0  0  0  0  0  0  0
    1.4090   18.5920   40.9790 N   0  0  0  0  0  0  0  0  0  0  0  0
    1.9820   17.9220   40.0210 N   0  0  0  0  0  0  0  0  0  0  0  0
    2.7120   13.5310   41.1930 C   0  0  0  0  0  0  0  0  0  0  0  0
   -0.7620   20.0260   43.4020 C   0  0  0  0  0  0  0  0  0  0  0  0
    3.1390   18.3370   37.7740 C   0  0  0  0  0  0  0  0  0  0  0  0
    1.2202   21.0055   40.5758 H   0  0  0  0  0  0  0  0  0  0  0  0
   -0.5535   22.0845   43.1782 H   0  0  0  0  0  0  0  0  0  0  0  0
   -0.8421   18.1838   43.2421 H   0  0  0  0  0  0  0  0  0  0  0  0
    1.8724   20.8395   36.9201 H   0  0  0  0  0  0  0  0  0  0  0  0
    3.2899   21.6001   37.7211 H   0  0  0  0  0  0  0  0  0  0  0  0
    3.3879   19.6109   36.0866 H   0  0  0  0  0  0  0  0  0  0  0  0
    4.5212   19.9094   37.4827 H   0  0  0  0  0  0  0  0  0  0  0  0
    0.8986   15.6705   41.0826 H   0  0  0  0  0  0  0  0  0  0  0  0
    1.1153   15.8004   43.0201 H   0  0  0  0  0  0  0  0  0  0  0  0
    1.8052   17.5029   42.1339 H   0  0  0  0  0  0  0  0  0  0  0  0
    1.4228   18.6421   38.4719 H   0  0  0  0  0  0  0  0  0  0  0  0
   -0.4510   16.8719   45.1265 H   0  0  0  0  0  0  0  0  0  0  0  0
   -1.5696   17.1960   43.7588 H   0  0  0  0  0  0  0  0  0  0  0  0
   -0.5572   15.7121   43.7588 H   0  0  0  0  0  0  0  0  0  0  0  0
    1.3925   17.8789   43.8816 H   0  0  0  0  0  0  0  0  0  0  0  0
    2.0229   18.2637   41.7381 H   0  0  0  0  0  0  0  0  0  0  0  0
    3.1006   12.5441   40.9013 H   0  0  0  0  0  0  0  0  0  0  0  0
   -0.6067   20.0829   44.4895 H   0  0  0  0  0  0  0  0  0  0  0  0
   -1.8306   19.9166   43.1649 H   0  0  0  0  0  0  0  0  0  0  0  0
    2.5079   17.7378   37.1012 H   0  0  0  0  0  0  0  0  0  0  0  0
    3.9880   17.6683   37.9790 H   0  0  0  0  0  0  0  0  0  0  0  0
  1 13  2  0
  2  4  2  0
  2  5  1  0
  4  6  1  0
  5 20  1  0
  6 14  1  0
  6 20  1  0
  7 16  1  0
  8  7  1  0
  8 21  1  0
  9 15  1  0
  9 10  1  0
 10 14  1  0
 11 21  1  0
 11 18  1  0
 13  9  1  0
 14 12  1  0
 16 11  1  0
 16  3  2  3
 17  4  1  0
 18 13  1  0
 18 17  1  0
 19 15  3  0
  3 22  1  0
  5 23  1  0
  6 24  1  6
  7 25  1  0
  7 26  1  0
  8 27  1  0
  8 28  1  0
  9 29  1  6
 10 30  1  0
 10 31  1  0
 11 32  1  6
 12 33  1  0
 12 34  1  0
 12 35  1  0
 14 36  1  1
 17 37  1  0
 19 38  1  0
 20 39  1  0
 20 40  1  0
 21 41  1  0
 21 42  1  0
M  CHG  1  10   1
M  END
>  <mol_id>  (90) 
2026-08-24-6tgu-s0-n100-seed1-0095

>  <rmsd_to_ref>  (90) 


$$$$

     RDKit          3D

 49 52  0  0  0  0  0  0  0  0999 V2000
   -0.0240   14.7670   44.1830 C   0  0  0  0  0  0  0  0  0  0  0  0
    2.5110   20.6400   38.0310 C   0  0  0  0  0  0  0  0  0  0  0  0
    1.0000   16.1160   42.2240 C   0  0  0  0  0  0  0  0  0  0  0  0
    1.5520   13.7440   42.8010 O   0  0  0  0  0  0  0  0  0  0  0  0
    0.2970   21.1300   41.6110 C   0  0  0  0  0  0  0  0  0  0  0  0
    2.9670   18.4340   38.3500 C   0  0  0  0  0  0  0  0  0  0  0  0
    3.2840   20.1280   36.8900 C   0  0  0  0  0  0  0  0  0  0  0  0
    0.6150   18.6660   42.0400 C   0  0  0  0  0  0  0  0  0  0  0  0
   -1.4170   19.4510   44.2540 N   0  0  0  0  0  0  0  0  0  0  0  0
    3.5940   20.7500   35.8380 O   0  0  0  0  0  0  0  0  0  0  0  0
    2.1320   19.8190   40.4520 C   0  0  1  0  0  0  0  0  0  0  0  0
    0.8420   14.8840   43.0270 C   0  0  0  0  0  0  0  0  0  0  0  0
    0.2930   17.3680   42.8250 C   0  0  0  0  0  0  0  0  0  0  0  0
    3.5670   18.8040   37.2420 C   0  0  2  0  0  0  0  0  0  0  0  0
    1.5010   18.6170   40.9420 C   0  0  0  0  0  0  0  0  0  0  0  0
    0.0230   19.9550   42.2940 C   0  0  0  0  0  0  0  0  0  0  0  0
    2.1650   13.2810   41.7330 C   0  0  0  0  0  0  0  0  0  0  0  0
    2.4690   19.5950   38.9970 N   0  0  0  0  0  0  0  0  0  0  0  0
    1.4630   21.1700   40.6030 C   0  0  0  0  0  0  0  0  0  0  0  0
    4.2420   17.8930   36.4300 O   0  0  0  0  0  0  0  0  0  0  0  0
   -0.6780   15.8260   44.6700 C   0  0  0  0  0  0  0  0  0  0  0  0
   -0.9380   20.0820   43.2680 C   0  0  0  0  0  0  0  0  0  0  0  0
   -0.5430   17.1400   44.0000 C   0  0  0  0  0  0  0  0  0  0  0  0
    4.2430   16.6190   37.2500 C   0  0  0  0  0  0  0  0  0  0  0  0
   -1.3630   18.1530   44.4730 C   0  0  0  0  0  0  0  0  0  0  0  0
   -0.1455   13.7877   44.6691 H   0  0  0  0  0  0  0  0  0  0  0  0
    3.0027   21.5283   38.4543 H   0  0  0  0  0  0  0  0  0  0  0  0
    1.4973   20.9352   37.7223 H   0  0  0  0  0  0  0  0  0  0  0  0
    1.5682   16.1460   41.2826 H   0  0  0  0  0  0  0  0  0  0  0  0
   -0.6145   21.3971   41.0561 H   0  0  0  0  0  0  0  0  0  0  0  0
    0.6190   21.8202   42.4047 H   0  0  0  0  0  0  0  0  0  0  0  0
    3.6840   17.9206   39.0075 H   0  0  0  0  0  0  0  0  0  0  0  0
    2.1412   17.7442   38.1213 H   0  0  0  0  0  0  0  0  0  0  0  0
    2.9863   19.9356   41.1351 H   0  0  0  0  0  0  0  0  0  0  0  0
    4.6629   18.7323   37.1804 H   0  0  0  0  0  0  0  0  0  0  0  0
    0.9347   18.1932   40.0996 H   0  0  0  0  0  0  0  0  0  0  0  0
    2.3488   18.0372   41.3358 H   0  0  0  0  0  0  0  0  0  0  0  0
    3.0077   12.6445   42.0409 H   0  0  0  0  0  0  0  0  0  0  0  0
    1.4586   12.6890   41.1325 H   0  0  0  0  0  0  0  0  0  0  0  0
    2.5413   14.1224   41.1325 H   0  0  0  0  0  0  0  0  0  0  0  0
    2.2094   21.8984   40.9527 H   0  0  0  0  0  0  0  0  0  0  0  0
    1.0541   21.4571   39.6230 H   0  0  0  0  0  0  0  0  0  0  0  0
   -1.7482   15.5719   44.6625 H   0  0  0  0  0  0  0  0  0  0  0  0
   -0.2100   15.9884   45.6521 H   0  0  0  0  0  0  0  0  0  0  0  0
   -1.4595   21.0437   43.1529 H   0  0  0  0  0  0  0  0  0  0  0  0
    4.2428   16.8720   38.3205 H   0  0  0  0  0  0  0  0  0  0  0  0
    3.3453   16.0293   37.0124 H   0  0  0  0  0  0  0  0  0  0  0  0
    5.1416   16.0307   37.0124 H   0  0  0  0  0  0  0  0  0  0  0  0
   -2.1287   17.7988   45.1788 H   0  0  0  0  0  0  0  0  0  0  0  0
  1 21  1  0
  3 13  2  0
  3 12  1  0
  4 12  1  0
  5 16  1  0
  6 18  1  0
  7 14  1  0
  7  2  1  0
  8 16  2  0
  8 13  1  0
  9 25  1  0
 10  7  2  0
 11 19  1  0
 11 15  1  0
 12  1  2  0
 13 23  1  0
 14 20  1  0
 14  6  1  0
 15  8  1  0
 16 22  1  0
 17  4  1  0
 18  2  1  0
 18 11  1  0
 19  5  1  0
 20 24  1  0
 22  9  2  0
 23 25  2  0
 23 21  1  0
  1 26  1  0
  2 27  1  0
  2 28  1  0
  3 29  1  0
  5 30  1  0
  5 31  1  0
  6 32  1  0
  6 33  1  0
 11 34  1  1
 14 35  1  1
 15 36  1  0
 15 37  1  0
 17 38  1  0
 17 39  1  0
 17 40  1  0
 19 41  1  0
 19 42  1  0
 21 43  1  0
 21 44  1  0
 22 45  1  0
 24 46  1  0
 24 47  1  0
 24 48  1  0
 25 49  1  0
M  END
>  <mol_id>  (91) 
2026-08-24-6tgu-s0-n100-seed1-0096

>  <rmsd_to_ref>  (91) 


$$$$

     RDKit          3D

 38 41  0  0  0  0  0  0  0  0999 V2000
    2.9100   18.6370   38.5090 C   0  0  0  0  0  0  0  0  0  0  0  0
    1.7290   13.9960   41.8960 N   0  0  0  0  0  0  0  0  0  0  0  0
    3.5530   19.6610   36.3710 N   0  0  0  0  0  0  0  0  0  0  0  0
    1.7020   19.9060   40.1480 C   0  0  0  0  0  0  0  0  0  0  0  0
    3.4100   20.8670   35.9080 C   0  0  0  0  0  0  0  0  0  0  0  0
    2.2910   18.6310   39.7270 C   0  0  0  0  0  0  0  0  0  0  0  0
   -0.4750   15.7540   44.2130 C   0  0  0  0  0  0  0  0  0  0  0  0
    1.7950   20.9400   39.1510 C   0  0  0  0  0  0  0  0  0  0  0  0
    0.2890   21.2300   41.5380 C   0  0  0  0  0  0  0  0  0  0  0  0
    1.0860   15.1950   42.4470 C   0  0  0  0  0  0  0  0  0  0  0  0
    0.1870   19.7650   43.5330 O   0  0  0  0  0  0  0  0  0  0  0  0
    2.9970   19.4910   37.5800 C   0  0  0  0  0  0  0  0  0  0  0  0
    1.2620   16.5740   42.0340 C   0  0  0  0  0  0  0  0  0  0  0  0
    0.3070   13.4570   43.6070 N   0  0  0  0  0  0  0  0  0  0  0  0
    1.3780   11.4490   42.3440 C   0  0  0  0  0  0  0  0  0  0  0  0
    2.4420   20.7000   37.9630 C   0  0  0  0  0  0  0  0  0  0  0  0
    0.3330   14.8050   43.4850 C   0  0  0  0  0  0  0  0  0  0  0  0
    0.6540   19.1010   42.6120 C   0  0  0  0  0  0  0  0  0  0  0  0
    1.0070   19.9410   41.3670 N   0  0  0  0  0  0  0  0  0  0  0  0
    0.4910   17.5620   42.8430 C   0  0  0  0  0  0  0  0  0  0  0  0
    1.1390   12.9200   42.6280 C   0  0  0  0  0  0  0  0  0  0  0  0
    3.6850   21.4320   34.8990 O   0  0  0  0  0  0  0  0  0  0  0  0
   -0.3610   17.0620   43.8420 C   0  0  0  0  0  0  0  0  0  0  0  0
    2.6630   21.5430   36.8950 O   0  0  0  0  0  0  0  0  0  0  0  0
    3.4459   17.7016   38.2900 H   0  0  0  0  0  0  0  0  0  0  0  0
    4.0433   18.9120   35.8615 H   0  0  0  0  0  0  0  0  0  0  0  0
    2.2379   17.7273   40.3519 H   0  0  0  0  0  0  0  0  0  0  0  0
   -1.1475   15.4391   45.0245 H   0  0  0  0  0  0  0  0  0  0  0  0
    1.3463   21.9262   39.3410 H   0  0  0  0  0  0  0  0  0  0  0  0
    0.1699   21.4439   42.6104 H   0  0  0  0  0  0  0  0  0  0  0  0
    0.8673   22.0374   41.0651 H   0  0  0  0  0  0  0  0  0  0  0  0
   -0.7019   21.1633   41.0651 H   0  0  0  0  0  0  0  0  0  0  0  0
    1.9097   16.8668   41.1945 H   0  0  0  0  0  0  0  0  0  0  0  0
   -0.2334   12.9224   44.3020 H   0  0  0  0  0  0  0  0  0  0  0  0
    1.4669   10.9019   43.2941 H   0  0  0  0  0  0  0  0  0  0  0  0
    0.5337   11.0453   41.7660 H   0  0  0  0  0  0  0  0  0  0  0  0
    2.3067   11.3333   41.7660 H   0  0  0  0  0  0  0  0  0  0  0  0
   -0.9925   17.7900   44.3723 H   0  0  0  0  0  0  0  0  0  0  0  0
  1  6  1  0
  2 10  1  0
  2 21  2  0
  3 12  1  0
  4 19  1  0
  5  3  1  0
  5 24  1  0
  6  4  2  0
  8  4  1  0
 10 17  1  0
 12 16  1  0
 12  1  2  0
 13 10  2  0
 13 20  1  0
 15 21  1  0
 16  8  2  0
 17 14  1  0
 17  7  2  0
 18 20  1  0
 18 11  2  0
 19  9  1  0
 19 18  1  0
 20 23  2  0
 21 14  1  0
 22  5  2  0
 23  7  1  0
 24 16  1  0
  1 25  1  0
  3 26  1  0
  6 27  1  0
  7 28  1  0
  8 29  1  0
  9 30  1  0
  9 31  1  0
  9 32  1  0
 13 33  1  0
 14 34  1  0
 15 35  1  0
 15 36  1  0
 15 37  1  0
 23 38  1  0
M  END
>  <mol_id>  (92) 
2026-08-24-6tgu-s0-n100-seed1-0097

>  <rmsd_to_ref>  (92) 


$$$$

     RDKit          3D

 39 42  0  0  0  0  0  0  0  0999 V2000
    4.3156   18.1017   38.1688 C   0  0  0  0  0  0  0  0  0  0  0  0
    1.7435   17.7688   40.8748 N   0  0  0  0  0  0  0  0  0  0  0  0
    0.1496   17.1282   42.7519 C   0  0  1  0  0  0  0  0  0  0  0  0
    3.3652   19.7971   37.0994 C   0  0  0  0  0  0  0  0  0  0  0  0
    2.5094   19.8640   38.1068 C   0  0  0  0  0  0  0  0  0  0  0  0
   -0.6048   14.0535   44.7581 C   0  0  0  0  0  0  0  0  0  0  0  0
    2.5637   19.0319   39.1193 C   0  0  0  0  0  0  0  0  0  0  0  0
    0.0172   12.9258   44.5932 C   0  0  0  0  0  0  0  0  0  0  0  0
    0.7655   21.0527   40.4107 C   0  0  0  0  0  0  0  0  0  0  0  0
   -0.4885   15.3253   44.1616 C   0  0  0  0  0  0  0  0  0  0  0  0
    4.3401   18.8290   37.0623 N   0  0  0  0  0  0  0  0  0  0  0  0
    0.3672   15.7523   43.2236 C   0  0  0  0  0  0  0  0  0  0  0  0
    1.1925   12.7192   43.8756 C   0  0  0  0  0  0  0  0  0  0  0  0
    3.4749   18.1440   39.2065 C   0  0  0  0  0  0  0  0  0  0  0  0
    3.4002   20.5829   36.0716 O   0  0  0  0  0  0  0  0  0  0  0  0
    1.4897   14.9600   42.8366 C   0  0  0  0  0  0  0  0  0  0  0  0
    0.1916   19.2082   41.6113 C   0  0  0  0  0  0  0  0  0  0  0  0
    0.8729   19.8352   40.6228 C   0  0  0  0  0  0  0  0  0  0  0  0
   -0.9285   19.4495   42.3117 C   0  0  0  0  0  0  0  0  0  0  0  0
   -1.2247   18.0737   43.2696 S   0  0  0  0  0  0  0  0  0  0  0  0
    1.7694   18.8377   40.1707 C   0  0  0  0  0  0  0  0  0  0  0  0
    1.7771   13.6574   43.0661 C   0  0  0  0  0  0  0  0  0  0  0  0
    0.7338   17.9144   41.8395 C   0  0  0  0  0  0  0  0  0  0  0  0
    5.1108   17.3455   38.2455 H   0  0  0  0  0  0  0  0  0  0  0  0
   -0.4344   16.7445   41.9023 H   0  0  0  0  0  0  0  0  0  0  0  0
    2.6117   20.8735   38.5317 H   0  0  0  0  0  0  0  0  0  0  0  0
    1.5618   19.5816   37.6251 H   0  0  0  0  0  0  0  0  0  0  0  0
   -1.3897   14.0064   45.5271 H   0  0  0  0  0  0  0  0  0  0  0  0
    0.2392   12.5719   45.6108 H   0  0  0  0  0  0  0  0  0  0  0  0
   -0.6942   12.4257   43.9195 H   0  0  0  0  0  0  0  0  0  0  0  0
    0.5963   21.5772   41.3627 H   0  0  0  0  0  0  0  0  0  0  0  0
    1.6893   21.4267   39.9452 H   0  0  0  0  0  0  0  0  0  0  0  0
   -0.0844   21.2338   39.7363 H   0  0  0  0  0  0  0  0  0  0  0  0
   -1.2063   16.0783   44.5191 H   0  0  0  0  0  0  0  0  0  0  0  0
    1.6837   11.7390   43.9644 H   0  0  0  0  0  0  0  0  0  0  0  0
    3.5620   17.4661   40.0684 H   0  0  0  0  0  0  0  0  0  0  0  0
    2.2501   15.4995   42.2530 H   0  0  0  0  0  0  0  0  0  0  0  0
   -1.5394   20.3635   42.2735 H   0  0  0  0  0  0  0  0  0  0  0  0
    2.6404   13.2824   42.4969 H   0  0  0  0  0  0  0  0  0  0  0  0
  1 14  1  0
  2 23  2  0
  3 12  1  0
  3 20  1  0
  4  5  1  0
  5  7  1  0
  7 21  1  0
  8  6  1  0
  9 18  1  0
 10  6  2  0
 11  4  1  0
 11  1  2  0
 12 10  1  0
 13  8  1  0
 14  7  2  0
 15  4  2  0
 16 22  1  0
 16 12  2  0
 17 23  1  0
 17 19  2  0
 18 17  1  0
 19 20  1  0
 21  2  1  0
 21 18  2  0
 22 13  2  0
 23  3  1  0
  1 24  1  0
  3 25  1  1
  5 26  1  0
  5 27  1  0
  6 28  1  0
  8 29  1  0
  8 30  1  0
  9 31  1  0
  9 32  1  0
  9 33  1  0
 10 34  1  0
 13 35  1  0
 14 36  1  0
 16 37  1  0
 19 38  1  0
 22 39  1  0
M  END
>  <mol_id>  (93) 
2026-08-24-6tgu-s0-n100-seed1-0098

>  <rmsd_to_ref>  (93) 


$$$$

     RDKit          3D

 46 50  0  0  0  0  0  0  0  0999 V2000
    0.2510   17.9220   43.6560 C   0  0  0  0  0  0  0  0  0  0  0  0
    2.0730   20.2600   39.3730 C   0  0  0  0  0  0  0  0  0  0  0  0
    1.7020   12.9390   42.2780 C   0  0  0  0  0  0  0  0  0  0  0  0
    0.1460   19.3920   43.1340 C   0  0  0  0  0  0  0  0  0  0  0  0
    2.4610   18.8310   39.5220 C   0  0  0  0  0  0  0  0  0  0  0  0
   -0.4760   18.0750   44.9680 C   0  0  0  0  0  0  0  0  0  0  0  0
    0.8840   20.6790   41.3560 C   0  0  0  0  0  0  0  0  0  0  0  0
    1.1140   15.7480   42.4640 C   0  0  0  0  0  0  0  0  0  0  0  0
    2.0450   15.1990   41.5200 C   0  0  0  0  0  0  0  0  0  0  0  0
    3.9340   20.6740   35.8400 N   0  0  0  0  0  0  0  0  0  0  0  0
    3.0720   20.9700   36.5090 C   0  0  0  0  0  0  0  0  0  0  0  0
    2.0960   21.7540   36.5890 O   0  0  0  0  0  0  0  0  0  0  0  0
   -0.3760   20.1710   44.0570 N   0  0  0  0  0  0  0  0  0  0  0  0
    2.3170   18.1770   40.7090 C   0  0  0  0  0  0  0  0  0  0  0  0
   -0.7490   19.4180   45.1620 N   0  0  0  0  0  0  0  0  0  0  0  0
    0.9200   19.4460   42.0500 C   0  0  0  0  0  0  0  0  0  0  0  0
    3.7070   20.0420   37.1360 C   0  0  1  0  0  0  0  0  0  0  0  0
    2.2610   13.8760   41.3880 C   0  0  0  0  0  0  0  0  0  0  0  0
    3.4790   18.5700   37.2050 C   0  0  0  0  0  0  0  0  0  0  0  0
   -0.8430   17.0380   45.9440 C   0  0  0  0  0  0  0  0  0  0  0  0
    0.8570   13.3920   43.2110 C   0  0  0  0  0  0  0  0  0  0  0  0
    1.4350   20.9180   40.2140 C   0  0  0  0  0  0  0  0  0  0  0  0
   -1.7030   17.3400   47.1040 C   0  0  0  0  0  0  0  0  0  0  0  0
    0.6070   14.8090   43.3750 C   0  0  0  0  0  0  0  0  0  0  0  0
    2.8270   17.9780   38.3570 C   0  0  0  0  0  0  0  0  0  0  0  0
    0.8270   17.1600   42.5570 C   0  0  0  0  0  0  0  0  0  0  0  0
    1.4510   18.3300   41.6710 C   0  0  0  0  0  0  0  0  0  0  0  0
    2.3735   20.7739   38.4480 H   0  0  0  0  0  0  0  0  0  0  0  0
    1.9518   11.8700   42.2085 H   0  0  0  0  0  0  0  0  0  0  0  0
    0.3380   21.5067   41.8323 H   0  0  0  0  0  0  0  0  0  0  0  0
    2.6077   15.8899   40.8750 H   0  0  0  0  0  0  0  0  0  0  0  0
    4.4744   20.7748   34.9690 H   0  0  0  0  0  0  0  0  0  0  0  0
    3.0588   17.3841   40.8854 H   0  0  0  0  0  0  0  0  0  0  0  0
    4.0854   19.9135   38.1608 H   0  0  0  0  0  0  0  0  0  0  0  0
    2.8920   13.5174   40.5614 H   0  0  0  0  0  0  0  0  0  0  0  0
    3.8082   17.9277   36.3749 H   0  0  0  0  0  0  0  0  0  0  0  0
   -1.3537   16.2455   45.3773 H   0  0  0  0  0  0  0  0  0  0  0  0
    0.1223   16.8088   46.4191 H   0  0  0  0  0  0  0  0  0  0  0  0
    0.3420   12.6742   43.8664 H   0  0  0  0  0  0  0  0  0  0  0  0
    2.1295   21.7372   40.4518 H   0  0  0  0  0  0  0  0  0  0  0  0
    0.4894   20.8778   39.6535 H   0  0  0  0  0  0  0  0  0  0  0  0
   -1.1473   17.1449   48.0331 H   0  0  0  0  0  0  0  0  0  0  0  0
   -2.0039   18.3976   47.0719 H   0  0  0  0  0  0  0  0  0  0  0  0
   -2.5990   16.7027   47.0719 H   0  0  0  0  0  0  0  0  0  0  0  0
    0.0082   15.1558   44.2301 H   0  0  0  0  0  0  0  0  0  0  0  0
    2.6031   16.9011   38.3705 H   0  0  0  0  0  0  0  0  0  0  0  0
  1  6  1  0
  2  5  2  0
  2 22  1  0
  3 21  1  0
  4  1  1  0
  4 13  2  0
  5 14  1  0
  6 15  2  0
  6 20  1  0
  7 16  2  0
  8 26  1  0
  8 24  1  0
  9  8  2  0
 10 11  1  0
 10 17  1  0
 11 12  2  0
 11 17  1  0
 13 15  1  0
 14 27  2  0
 16  4  1  0
 17 19  1  0
 18  9  1  0
 18  3  2  0
 19 25  2  3
 20 23  1  0
 21 24  2  0
 22  7  1  0
 25  5  1  0
 26  1  2  0
 27 16  1  0
 27 26  1  0
  2 28  1  0
  3 29  1  0
  7 30  1  0
  9 31  1  0
 10 32  1  0
 14 33  1  0
 17 34  1  1
 18 35  1  0
 19 36  1  0
 20 37  1  0
 20 38  1  0
 21 39  1  0
 22 40  1  0
 22 41  1  0
 23 42  1  0
 23 43  1  0
 23 44  1  0
 24 45  1  0
 25 46  1  0
M  END
>  <mol_id>  (94) 
2026-08-24-6tgu-s0-n100-seed1-0099

>  <rmsd_to_ref>  (94) 


$$$$

     RDKit          3D

 43 46  0  0  0  0  0  0  0  0999 V2000
   -1.0350   17.5270   44.4430 N   0  0  0  0  0  0  0  0  0  0  0  0
    2.3880   16.2350   40.5200 C   0  0  0  0  0  0  0  0  0  0  0  0
   -1.0580   19.9780   44.1650 N   0  0  0  0  0  0  0  0  0  0  0  0
    2.7580   18.1900   39.5880 O   0  0  0  0  0  0  0  0  0  0  0  0
   -0.5220   20.9020   43.3780 C   0  0  0  0  0  0  0  0  0  0  0  0
    3.6060   20.1950   36.9970 O   0  0  0  0  0  0  0  0  0  0  0  0
    2.9440   15.6380   39.3520 C   0  0  0  0  0  0  0  0  0  0  0  0
    3.8930   17.5090   37.5170 C   0  0  0  0  0  0  0  0  0  0  0  0
    2.9420   14.3080   39.6470 N   0  0  0  0  0  0  0  0  0  0  0  0
    2.0940   17.7670   40.6600 C   0  0  1  0  0  0  0  0  0  0  0  0
    3.6040   20.7730   35.9990 O   0  0  0  0  0  0  0  0  0  0  0  0
    4.1570   15.1390   37.2230 C   0  0  0  0  0  0  0  0  0  0  0  0
    1.4070   19.0570   40.8450 N   0  0  0  0  0  0  0  0  0  0  0  0
    2.0950   15.1650   41.3950 C   0  0  0  0  0  0  0  0  0  0  0  0
   -0.4680   16.5520   43.7830 C   0  0  0  0  0  0  0  0  0  0  0  0
   -0.6680   18.7170   43.8630 C   0  0  0  0  0  0  0  0  0  0  0  0
    3.3640   18.8030   37.0930 C   0  0  1  0  0  0  0  0  0  0  0  0
    2.8730   19.0620   38.8150 C   0  0  0  0  0  0  0  0  0  0  0  0
    3.4930   16.1910   38.1060 C   0  0  1  0  0  0  0  0  0  0  0  0
    0.2820   16.9870   42.7480 N   0  0  0  0  0  0  0  0  0  0  0  0
    0.3160   20.7320   42.2990 C   0  0  0  0  0  0  0  0  0  0  0  0
    2.4650   14.0920   40.8630 N   0  0  0  0  0  0  0  0  0  0  0  0
    0.1770   18.3870   42.7380 C   0  0  0  0  0  0  0  0  0  0  0  0
    0.6270   19.3970   41.9140 C   0  0  0  0  0  0  0  0  0  0  0  0
   -0.7819   21.9431   43.6200 H   0  0  0  0  0  0  0  0  0  0  0  0
    4.6578   17.8299   38.2395 H   0  0  0  0  0  0  0  0  0  0  0  0
    3.8041   17.1091   36.4961 H   0  0  0  0  0  0  0  0  0  0  0  0
    1.8014   17.4811   41.6811 H   0  0  0  0  0  0  0  0  0  0  0  0
    3.6006   21.7461   36.1812 H   0  0  0  0  0  0  0  0  0  0  0  0
    4.6370   14.3785   37.8565 H   0  0  0  0  0  0  0  0  0  0  0  0
    3.3969   14.6606   36.5879 H   0  0  0  0  0  0  0  0  0  0  0  0
    4.9159   15.6193   36.5879 H   0  0  0  0  0  0  0  0  0  0  0  0
    2.1515   19.7682   40.8147 H   0  0  0  0  0  0  0  0  0  0  0  0
    0.6859   18.9828   40.1132 H   0  0  0  0  0  0  0  0  0  0  0  0
    2.6289   15.3089   42.3459 H   0  0  0  0  0  0  0  0  0  0  0  0
    1.0132   15.1298   41.5913 H   0  0  0  0  0  0  0  0  0  0  0  0
   -0.5889   15.4900   44.0430 H   0  0  0  0  0  0  0  0  0  0  0  0
    3.1294   18.5875   36.0401 H   0  0  0  0  0  0  0  0  0  0  0  0
    3.6200   19.7473   39.2420 H   0  0  0  0  0  0  0  0  0  0  0  0
    1.8286   19.3865   38.6967 H   0  0  0  0  0  0  0  0  0  0  0  0
    2.5836   16.7057   38.4495 H   0  0  0  0  0  0  0  0  0  0  0  0
   -0.1552   21.2232   41.4349 H   0  0  0  0  0  0  0  0  0  0  0  0
    1.2762   21.1632   42.6183 H   0  0  0  0  0  0  0  0  0  0  0  0
  2 10  1  0
  2 14  1  0
  4 10  1  0
  5  3  2  0
  7  9  1  0
  7  2  2  0
  8 19  1  0
  9 22  2  0
 10 13  1  0
 11  6  1  0
 13 24  1  0
 15  1  1  0
 16  3  1  0
 16  1  2  0
 17  6  1  0
 17  8  1  0
 17 18  1  0
 18  4  1  0
 19 12  1  0
 19  7  1  0
 20 15  2  0
 21  5  1  0
 22 14  1  0
 23 20  1  0
 23 16  1  0
 24 21  1  0
 24 23  2  0
  5 25  1  0
  8 26  1  0
  8 27  1  0
 10 28  1  1
 11 29  1  0
 12 30  1  0
 12 31  1  0
 12 32  1  0
 13 33  1  0
 13 34  1  0
 14 35  1  0
 14 36  1  0
 15 37  1  0
 17 38  1  6
 18 39  1  0
 18 40  1  0
 19 41  1  6
 21 42  1  0
 21 43  1  0
M  CHG  1  13   1
M  END
>  <mol_id>  (95) 
2026-08-24-6tgu-s0-n100-seed1-0100

>  <rmsd_to_ref>  (95) 


$$$$
