
     RDKit          3D

 61 64  0  0  0  0  0  0  0  0999 V2000
    1.7714   18.8993   39.9408 C   0  0  0  0  0  0  0  0  0  0  0  0
    1.9992   16.2807   40.3926 C   0  0  0  0  0  0  0  0  0  0  0  0
    3.7005   18.8719   36.8512 C   0  0  0  0  0  0  0  0  0  0  0  0
    0.9725   11.4971   43.7604 C   0  0  0  0  0  0  0  0  0  0  0  0
    0.9681   17.0023   41.1969 C   0  0  0  0  0  0  0  0  0  0  0  0
    0.9003   18.2660   40.8945 C   0  0  0  0  0  0  0  0  0  0  0  0
    0.2302   13.7593   43.1787 N   0  0  0  0  0  0  0  0  0  0  0  0
    4.0333   21.5089   35.2053 N   0  0  0  0  0  0  0  0  0  0  0  0
    1.2530   14.1384   42.5302 O   0  0  0  0  0  0  0  0  0  0  0  0
    1.3757   21.1386   37.7840 C   0  0  0  0  0  0  0  0  0  0  0  0
    2.9266   21.5031   35.8416 C   0  0  0  0  0  0  0  0  0  0  0  0
   -0.0713   12.2923   42.9581 C   0  0  0  0  0  0  0  0  0  0  0  0
    2.4164   20.8580   36.8282 C   0  0  1  0  0  0  0  0  0  0  0  0
   -1.0286   18.9328   42.0670 C   0  0  0  0  0  0  0  0  0  0  0  0
   -1.1739   17.7104   42.7629 C   0  0  0  0  0  0  0  0  0  0  0  0
   -1.1545   16.3145   45.6146 S   0  0  0  0  0  0  0  0  0  0  0  0
   -1.6718   14.3539   47.5567 C   0  0  0  0  0  0  0  0  0  0  0  0
   -0.2348   16.5318   42.6922 C   0  0  0  0  0  0  0  0  0  0  0  0
    2.8230   16.8956   39.5568 C   0  0  0  0  0  0  0  0  0  0  0  0
   -0.8301   13.8407   45.2733 N   0  0  0  0  0  0  0  0  0  0  0  0
    2.0963   22.2567   35.3745 N   0  0  0  0  0  0  0  0  0  0  0  0
   -1.9111   17.8558   43.7726 O   0  0  0  0  0  0  0  0  0  0  0  0
   -2.8574   13.4149   47.6228 C   0  0  0  0  0  0  0  0  0  0  0  0
    2.7517   18.3004   39.3193 C   0  0  0  0  0  0  0  0  0  0  0  0
   -0.4273   14.4779   44.1654 C   0  0  1  0  0  0  0  0  0  0  0  0
    2.5643   20.1195   38.0337 C   0  0  2  0  0  0  0  0  0  0  0  0
    2.5986   22.9260   34.4383 O   0  0  0  0  0  0  0  0  0  0  0  0
   -0.6445   15.7808   44.0460 N   0  0  0  0  0  0  0  0  0  0  0  0
   -1.2329   14.6480   46.2164 C   0  0  0  0  0  0  0  0  0  0  0  0
   -0.0392   19.1501   41.2952 C   0  0  0  0  0  0  0  0  0  0  0  0
    3.8349   22.5120   34.3190 N   0  0  0  0  0  0  0  0  0  0  0  0
    3.2300   18.9509   38.0761 N   0  0  0  0  0  0  0  0  0  0  0  0
    1.5997   19.9630   39.7194 H   0  0  0  0  0  0  0  0  0  0  0  0
    2.0782   15.1887   40.4990 H   0  0  0  0  0  0  0  0  0  0  0  0
    4.6164   18.2626   36.8489 H   0  0  0  0  0  0  0  0  0  0  0  0
    2.9479   18.4051   36.1987 H   0  0  0  0  0  0  0  0  0  0  0  0
    3.9310   19.8818   36.4810 H   0  0  0  0  0  0  0  0  0  0  0  0
    0.6835   11.4791   44.8215 H   0  0  0  0  0  0  0  0  0  0  0  0
    1.0231   10.4674   43.3766 H   0  0  0  0  0  0  0  0  0  0  0  0
    1.9574   11.9759   43.6566 H   0  0  0  0  0  0  0  0  0  0  0  0
    0.3376   16.5201   41.9585 H   0  0  0  0  0  0  0  0  0  0  0  0
    1.9906   14.3325   43.1612 H   0  0  0  0  0  0  0  0  0  0  0  0
    0.3502   20.7757   37.6201 H   0  0  0  0  0  0  0  0  0  0  0  0
    0.9642   22.0282   38.2832 H   0  0  0  0  0  0  0  0  0  0  0  0
   -1.0842   12.0561   43.3163 H   0  0  0  0  0  0  0  0  0  0  0  0
   -0.0250   12.0369   41.8892 H   0  0  0  0  0  0  0  0  0  0  0  0
    2.7221   20.6125   35.8005 H   0  0  0  0  0  0  0  0  0  0  0  0
   -1.7898   19.7164   42.1958 H   0  0  0  0  0  0  0  0  0  0  0  0
   -1.9513   15.2992   48.0447 H   0  0  0  0  0  0  0  0  0  0  0  0
   -0.8359   13.8481   48.0621 H   0  0  0  0  0  0  0  0  0  0  0  0
   -0.4242   15.9096   41.8050 H   0  0  0  0  0  0  0  0  0  0  0  0
    0.8312   16.7889   42.6052 H   0  0  0  0  0  0  0  0  0  0  0  0
    3.5860   16.3042   39.0294 H   0  0  0  0  0  0  0  0  0  0  0  0
    1.1220   22.3352   35.6992 H   0  0  0  0  0  0  0  0  0  0  0  0
   -3.1010   13.2055   48.6749 H   0  0  0  0  0  0  0  0  0  0  0  0
   -3.7236   13.8828   47.1321 H   0  0  0  0  0  0  0  0  0  0  0  0
   -2.6092   12.4742   47.1096 H   0  0  0  0  0  0  0  0  0  0  0  0
   -1.3916   14.2540   43.6860 H   0  0  0  0  0  0  0  0  0  0  0  0
    2.9303   19.8199   39.0267 H   0  0  0  0  0  0  0  0  0  0  0  0
    0.0621   20.1757   40.9105 H   0  0  0  0  0  0  0  0  0  0  0  0
    4.5359   22.8856   33.6634 H   0  0  0  0  0  0  0  0  0  0  0  0
  1  6  2  0
  2  5  2  0
  3 32  1  0
  6 30  1  0
  6  5  1  0
  8 11  2  0
  9  7  1  0
 10 26  1  0
 12  7  1  0
 12  4  1  0
 13 11  1  0
 13 10  1  0
 13 26  1  0
 14 15  1  0
 15 22  2  0
 16 29  1  0
 17 23  1  0
 18 15  1  0
 18 28  1  0
 19  2  1  0
 20 29  2  0
 21 11  1  0
 24 19  2  0
 24  1  1  0
 25  7  1  0
 25 20  1  0
 26 32  1  0
 27 21  1  0
 28 25  1  0
 28 16  1  0
 29 17  1  0
 30 14  2  3
 31 27  1  0
 31  8  1  0
 32 24  1  0
  1 33  1  0
  2 34  1  0
  3 35  1  0
  3 36  1  0
  3 37  1  0
  4 38  1  0
  4 39  1  0
  4 40  1  0
  5 41  1  0
  9 42  1  0
 10 43  1  0
 10 44  1  0
 12 45  1  0
 12 46  1  0
 13 47  1  6
 14 48  1  0
 17 49  1  0
 17 50  1  0
 18 51  1  0
 18 52  1  0
 19 53  1  0
 21 54  1  0
 23 55  1  0
 23 56  1  0
 23 57  1  0
 25 58  1  6
 26 59  1  1
 30 60  1  0
 31 61  1  0
M  END
>  <mol_id>  (1) 
2026-08-23-6tgu-s0-n100-prep-0001

>  <rmsd_to_ref>  (1) 


$$$$

     RDKit          3D

 35 38  0  0  0  0  0  0  0  0999 V2000
   -0.9627   18.1223   44.5114 C   0  0  0  0  0  0  0  0  0  0  0  0
    0.3784   20.2270   40.7458 N   0  0  0  0  0  0  0  0  0  0  0  0
    2.2543   17.0197   41.6277 C   0  0  0  0  0  0  0  0  0  0  0  0
    1.2357   17.1730   42.7685 C   0  0  0  0  0  0  0  0  0  0  0  0
   -1.1282   16.7163   44.0996 N   0  0  0  0  0  0  0  0  0  0  0  0
    4.1980   16.1511   39.6072 O   0  0  0  0  0  0  0  0  0  0  0  0
    0.8784   20.8274   39.7241 C   0  0  0  0  0  0  0  0  0  0  0  0
    4.8006   17.6405   38.0207 C   0  0  0  0  0  0  0  0  0  0  0  0
    5.6231   16.5974   37.7386 N   0  0  0  0  0  0  0  0  0  0  0  0
    1.9165   20.6086   38.8774 C   0  0  0  0  0  0  0  0  0  0  0  0
    0.9920   19.0994   41.2929 C   0  0  0  0  0  0  0  0  0  0  0  0
    3.9158   17.3777   39.1291 C   0  0  0  0  0  0  0  0  0  0  0  0
    5.2028   15.6891   38.6393 C   0  0  0  0  0  0  0  0  0  0  0  0
   -1.1186   20.0217   43.1103 O   0  0  0  0  0  0  0  0  0  0  0  0
    2.9033   18.2965   39.5664 C   0  0  0  0  0  0  0  0  0  0  0  0
    3.7710   19.6601   37.5429 C   0  0  0  0  0  0  0  0  0  0  0  0
    4.7126   18.8294   37.1906 N   0  0  0  0  0  0  0  0  0  0  0  0
    2.8879   19.5525   38.6893 C   0  0  0  0  0  0  0  0  0  0  0  0
    2.0467   18.2583   40.7237 C   0  0  0  0  0  0  0  0  0  0  0  0
   -0.5327   19.0180   43.3139 C   0  0  0  0  0  0  0  0  0  0  0  0
    5.5400   14.2097   38.6591 C   0  0  0  0  0  0  0  0  0  0  0  0
    0.5098   18.5775   42.4806 C   0  0  0  0  0  0  0  0  0  0  0  0
   -1.9182   18.4931   44.9106 H   0  0  0  0  0  0  0  0  0  0  0  0
   -0.1752   18.1679   45.2780 H   0  0  0  0  0  0  0  0  0  0  0  0
    2.9772   16.2031   41.4844 H   0  0  0  0  0  0  0  0  0  0  0  0
    1.0458   16.4759   43.5980 H   0  0  0  0  0  0  0  0  0  0  0  0
   -1.5007   16.1690   44.8887 H   0  0  0  0  0  0  0  0  0  0  0  0
   -1.7839   16.6657   43.3069 H   0  0  0  0  0  0  0  0  0  0  0  0
   -0.2157   16.3320   43.8157 H   0  0  0  0  0  0  0  0  0  0  0  0
    0.3281   21.7466   39.4745 H   0  0  0  0  0  0  0  0  0  0  0  0
    2.0522   21.4328   38.1616 H   0  0  0  0  0  0  0  0  0  0  0  0
    3.6305   20.5408   36.8990 H   0  0  0  0  0  0  0  0  0  0  0  0
    5.4453   13.8257   39.6856 H   0  0  0  0  0  0  0  0  0  0  0  0
    4.8473   13.6668   37.9993 H   0  0  0  0  0  0  0  0  0  0  0  0
    6.5719   14.0641   38.3070 H   0  0  0  0  0  0  0  0  0  0  0  0
  2 11  1  0
  3  4  2  0
  4 22  1  0
  5  1  1  0
  7  2  2  0
  8 12  2  0
  9 13  2  0
  9  8  1  0
 10  7  1  0
 11 22  2  0
 12  6  1  0
 12 15  1  0
 13  6  1  0
 15 19  2  0
 16 18  1  0
 17  8  1  0
 17 16  2  0
 18 15  1  0
 18 10  2  0
 19  3  1  0
 19 11  1  0
 20 14  2  0
 20  1  1  0
 21 13  1  0
 22 20  1  0
  1 23  1  0
  1 24  1  0
  3 25  1  0
  4 26  1  0
  5 27  1  0
  5 28  1  0
  5 29  1  0
  7 30  1  0
 10 31  1  0
 16 32  1  0
 21 33  1  0
 21 34  1  0
 21 35  1  0
M  CHG  1   5   1
M  END
>  <mol_id>  (2) 
2026-08-23-6tgu-s0-n100-prep-0002

>  <rmsd_to_ref>  (2) 


$$$$

     RDKit          3D

 35 38  0  0  0  0  0  0  0  0999 V2000
    4.1857   18.8027   37.6442 C   0  0  2  0  0  0  0  0  0  0  0  0
   -1.1383   18.5201   43.0019 C   0  0  0  0  0  0  0  0  0  0  0  0
   -1.7323   19.6415   42.6554 N   0  0  0  0  0  0  0  0  0  0  0  0
    3.2796   16.4732   39.5512 C   0  0  0  0  0  0  0  0  0  0  0  0
    2.3325   18.7262   39.4241 C   0  0  1  0  0  0  0  0  0  0  0  0
    4.4974   16.8056   38.7144 C   0  0  0  0  0  0  0  0  0  0  0  0
    1.4915   15.9127   41.1666 N   0  0  0  0  0  0  0  0  0  0  0  0
    2.3597   19.9082   38.9899 C   0  0  0  0  0  0  0  0  0  0  0  0
    1.2539   13.4478   42.2006 Cl  0  0  0  0  0  0  0  0  0  0  0  0
    3.7214   15.0267   39.5724 C   0  0  0  0  0  0  0  0  0  0  0  0
    2.0141   14.6322   41.1720 C   0  0  0  0  0  0  0  0  0  0  0  0
    3.8677   19.5344   36.5149 O   0  0  0  0  0  0  0  0  0  0  0  0
    0.3957   18.5177   41.1103 C   0  0  0  0  0  0  0  0  0  0  0  0
    1.5201   18.1622   40.2955 C   0  0  1  0  0  0  0  0  0  0  0  0
   -1.2690   20.2144   41.5759 C   0  0  0  0  0  0  0  0  0  0  0  0
    2.0231   16.7047   40.4289 C   0  0  0  0  0  0  0  0  0  0  0  0
    4.4275   17.4277   37.4743 O   0  0  0  0  0  0  0  0  0  0  0  0
   -0.2792   19.6930   40.7871 C   0  0  0  0  0  0  0  0  0  0  0  0
    3.0552   18.8708   38.5248 N   0  0  0  0  0  0  0  0  0  0  0  0
   -0.1161   17.9657   42.3316 C   0  0  0  0  0  0  0  0  0  0  0  0
    3.0419   14.1920   40.3299 C   0  0  0  0  0  0  0  0  0  0  0  0
    5.1252   19.2480   38.0035 H   0  0  0  0  0  0  0  0  0  0  0  0
   -1.5037   18.0022   43.9010 H   0  0  0  0  0  0  0  0  0  0  0  0
    2.2949   17.8338   40.0661 H   0  0  0  0  0  0  0  0  0  0  0  0
    5.1254   17.4551   39.3418 H   0  0  0  0  0  0  0  0  0  0  0  0
    4.8453   15.8010   38.4319 H   0  0  0  0  0  0  0  0  0  0  0  0
    1.5138   20.3247   38.4233 H   0  0  0  0  0  0  0  0  0  0  0  0
    2.5621   20.9163   39.3811 H   0  0  0  0  0  0  0  0  0  0  0  0
    4.5799   14.6846   38.9758 H   0  0  0  0  0  0  0  0  0  0  0  0
    3.2991   20.3038   36.7695 H   0  0  0  0  0  0  0  0  0  0  0  0
    2.2010   18.4436   41.1124 H   0  0  0  0  0  0  0  0  0  0  0  0
   -1.7039   21.1808   41.2813 H   0  0  0  0  0  0  0  0  0  0  0  0
   -0.0060   20.2224   39.8624 H   0  0  0  0  0  0  0  0  0  0  0  0
    0.3472   17.0528   42.7343 H   0  0  0  0  0  0  0  0  0  0  0  0
    3.2882   13.1204   40.3005 H   0  0  0  0  0  0  0  0  0  0  0  0
  1 12  1  0
  1 19  1  0
  2  3  2  0
  4 16  2  0
  5  8  1  0
  5 14  1  0
  6  4  1  0
 10  4  1  0
 10 21  2  0
 11  7  2  0
 11  9  1  0
 13 18  1  0
 13 20  2  0
 14 13  1  0
 15  3  1  0
 16 14  1  0
 16  7  1  0
 17  1  1  0
 17  6  1  0
 18 15  2  0
 19  8  1  0
 19  5  1  0
 20  2  1  0
 21 11  1  0
  1 22  1  1
  2 23  1  0
  5 24  1  1
  6 25  1  0
  6 26  1  0
  8 27  1  0
  8 28  1  0
 10 29  1  0
 12 30  1  0
 14 31  1  1
 15 32  1  0
 18 33  1  0
 20 34  1  0
 21 35  1  0
M  END
>  <mol_id>  (3) 
2026-08-23-6tgu-s0-n100-prep-0003

>  <rmsd_to_ref>  (3) 


$$$$

     RDKit          3D

 24 25  0  0  0  0  0  0  0  0999 V2000
    2.4230   20.7240   38.7155 C   0  0  0  0  0  0  0  0  0  0  0  0
   -0.7504   15.4336   42.5318 C   0  0  0  0  0  0  0  0  0  0  0  0
    1.7181   17.3845   40.0894 C   0  0  0  0  0  0  0  0  0  0  0  0
    3.6006   19.2280   36.8273 C   0  0  0  0  0  0  0  0  0  0  0  0
    3.5346   20.5373   36.7086 N   0  0  0  0  0  0  0  0  0  0  0  0
    2.5374   19.3546   38.9757 C   0  0  0  0  0  0  0  0  0  0  0  0
    1.3763   19.4606   41.1986 C   0  0  0  0  0  0  0  0  0  0  0  0
    0.6505   18.8579   42.1876 C   0  0  0  0  0  0  0  0  0  0  0  0
   -0.3652   16.8195   42.9351 O   0  0  0  0  0  0  0  0  0  0  0  0
    0.4611   17.4865   42.0939 C   0  0  0  0  0  0  0  0  0  0  0  0
    1.8664   18.7458   40.0772 C   0  0  0  0  0  0  0  0  0  0  0  0
    1.0422   16.6826   41.1216 C   0  0  0  0  0  0  0  0  0  0  0  0
    2.9476   21.2961   37.6441 N   0  0  0  0  0  0  0  0  0  0  0  0
    3.1258   18.6002   37.9834 C   0  0  0  0  0  0  0  0  0  0  0  0
    1.8735   21.3521   39.4321 H   0  0  0  0  0  0  0  0  0  0  0  0
   -0.8112   14.7952   43.4256 H   0  0  0  0  0  0  0  0  0  0  0  0
   -1.7292   15.4564   42.0304 H   0  0  0  0  0  0  0  0  0  0  0  0
    0.0053   15.0288   41.8427 H   0  0  0  0  0  0  0  0  0  0  0  0
    2.1444   16.8054   39.2570 H   0  0  0  0  0  0  0  0  0  0  0  0
    4.0308   18.6252   36.0139 H   0  0  0  0  0  0  0  0  0  0  0  0
    1.5873   20.5375   41.2757 H   0  0  0  0  0  0  0  0  0  0  0  0
    0.2331   19.4369   43.0244 H   0  0  0  0  0  0  0  0  0  0  0  0
    0.9830   15.5845   41.1494 H   0  0  0  0  0  0  0  0  0  0  0  0
    3.2214   17.5107   38.1000 H   0  0  0  0  0  0  0  0  0  0  0  0
  1  6  2  0
  3 12  1  0
  4 14  2  0
  5 13  2  0
  5  4  1  0
  6 11  1  0
  7  8  2  0
  8 10  1  0
  9  2  1  0
 10  9  1  0
 11  3  2  0
 11  7  1  0
 12 10  2  0
 13  1  1  0
 14  6  1  0
  1 15  1  0
  2 16  1  0
  2 17  1  0
  2 18  1  0
  3 19  1  0
  4 20  1  0
  7 21  1  0
  8 22  1  0
 12 23  1  0
 14 24  1  0
M  END
>  <mol_id>  (4) 
2026-08-23-6tgu-s0-n100-prep-0004

>  <rmsd_to_ref>  (4) 


$$$$

     RDKit          3D

 30 32  0  0  0  0  0  0  0  0999 V2000
    0.3197   16.3895   42.6507 C   0  0  0  0  0  0  0  0  0  0  0  0
   -0.0824   18.6312   42.5577 C   0  0  0  0  0  0  0  0  0  0  0  0
    1.4357   19.1374   40.2860 C   0  0  0  0  0  0  0  0  0  0  0  0
    3.6892   18.9821   37.1214 C   0  0  0  0  0  0  0  0  0  0  0  0
    1.7031   20.5192   38.2183 C   0  0  0  0  0  0  0  0  0  0  0  0
    1.3250   17.7996   40.7697 C   0  0  0  0  0  0  0  0  0  0  0  0
    0.8685   15.0300   42.2701 C   0  0  0  0  0  0  0  0  0  0  0  0
    0.3878   14.0388   43.1689 N   0  0  0  0  0  0  0  0  0  0  0  0
   -0.5448   16.7703   43.7089 C   0  0  0  0  0  0  0  0  0  0  0  0
    0.6171   17.5531   41.9163 C   0  0  0  0  0  0  0  0  0  0  0  0
    3.3899   20.1135   36.5254 N   0  0  0  0  0  0  0  0  0  0  0  0
    0.8467   20.1089   40.9844 C   0  0  0  0  0  0  0  0  0  0  0  0
    2.9693   18.5671   38.2927 C   0  0  0  0  0  0  0  0  0  0  0  0
   -0.7342   18.1834   43.5941 N   0  0  0  0  0  0  0  0  0  0  0  0
    2.3815   20.8660   37.0196 C   0  0  0  0  0  0  0  0  0  0  0  0
    0.0861   19.8675   42.1178 N   0  0  0  0  0  0  0  0  0  0  0  0
    2.1117   19.3534   38.9298 C   0  0  0  0  0  0  0  0  0  0  0  0
    4.4953   18.3493   36.7215 H   0  0  0  0  0  0  0  0  0  0  0  0
    0.8756   21.1404   38.5917 H   0  0  0  0  0  0  0  0  0  0  0  0
    1.8045   16.9722   40.2260 H   0  0  0  0  0  0  0  0  0  0  0  0
    0.5466   14.7810   41.2482 H   0  0  0  0  0  0  0  0  0  0  0  0
    1.9670   15.0587   42.3205 H   0  0  0  0  0  0  0  0  0  0  0  0
    0.5351   14.3540   44.1384 H   0  0  0  0  0  0  0  0  0  0  0  0
   -0.6179   13.8868   43.0065 H   0  0  0  0  0  0  0  0  0  0  0  0
    0.8977   13.1577   43.0131 H   0  0  0  0  0  0  0  0  0  0  0  0
   -0.9839   16.1080   44.4694 H   0  0  0  0  0  0  0  0  0  0  0  0
    0.9699   21.1483   40.6460 H   0  0  0  0  0  0  0  0  0  0  0  0
    3.1366   17.5510   38.6791 H   0  0  0  0  0  0  0  0  0  0  0  0
    2.0774   21.7735   36.4774 H   0  0  0  0  0  0  0  0  0  0  0  0
   -0.3499   20.6541   42.6197 H   0  0  0  0  0  0  0  0  0  0  0  0
  1  9  2  0
  2 14  2  0
  3  6  1  0
  3 12  2  0
  4 13  1  0
  5 17  1  0
  6 10  2  0
  7  1  1  0
  7  8  1  0
 10  2  1  0
 10  1  1  0
 11 15  1  0
 11  4  2  0
 12 16  1  0
 13 17  2  0
 14  9  1  0
 15  5  2  0
 16  2  1  0
 17  3  1  0
  4 18  1  0
  5 19  1  0
  6 20  1  0
  7 21  1  0
  7 22  1  0
  8 23  1  0
  8 24  1  0
  8 25  1  0
  9 26  1  0
 12 27  1  0
 13 28  1  0
 15 29  1  0
 16 30  1  0
M  CHG  1   8   1
M  END
>  <mol_id>  (5) 
2026-08-23-6tgu-s0-n100-prep-0005

>  <rmsd_to_ref>  (5) 


$$$$

     RDKit          3D

 52 56  0  0  0  0  0  0  0  0999 V2000
   -0.8284   19.5436   43.9064 N   0  0  0  0  0  0  0  0  0  0  0  0
    2.9178   18.7061   38.4574 C   0  0  2  0  0  0  0  0  0  0  0  0
   -0.8095   13.5509   44.4332 C   0  0  0  0  0  0  0  0  0  0  0  0
    1.9919   18.6571   39.6455 C   0  0  0  0  0  0  0  0  0  0  0  0
    3.2436   16.5592   37.3684 C   0  0  1  0  0  0  0  0  0  0  0  0
   -0.4450   19.0315   41.6223 C   0  0  2  0  0  0  0  0  0  0  0  0
    2.1151   21.1551   36.1555 C   0  0  0  0  0  0  0  0  0  0  0  0
    1.6130   17.4750   40.2168 N   0  0  0  0  0  0  0  0  0  0  0  0
    3.0855   20.4710   35.6737 N   0  0  0  0  0  0  0  0  0  0  0  0
   -0.6975   19.9629   42.6227 C   0  0  0  0  0  0  0  0  0  0  0  0
    3.7361   15.7430   36.3164 C   0  0  0  0  0  0  0  0  0  0  0  0
   -1.2485   13.2377   45.8159 C   0  0  0  0  0  0  0  0  0  0  0  0
    0.0632   15.1057   42.3791 C   0  0  0  0  0  0  0  0  0  0  0  0
    0.7575   15.6240   41.3176 C   0  0  0  0  0  0  0  0  0  0  0  0
    2.1167   15.2551   39.1655 C   0  0  0  0  0  0  0  0  0  0  0  0
    2.3674   14.0530   38.4121 O   0  0  0  0  0  0  0  0  0  0  0  0
   -0.5907   18.1930   44.2061 C   0  0  0  0  0  0  0  0  0  0  0  0
    0.0612   17.7868   41.9487 C   0  0  0  0  0  0  0  0  0  0  0  0
    3.4753   19.5219   36.5269 N   0  0  0  0  0  0  0  0  0  0  0  0
   -0.3200   17.3367   43.2843 C   0  0  0  0  0  0  0  0  0  0  0  0
   -0.7024   21.2133   42.2968 O   0  0  0  0  0  0  0  0  0  0  0  0
    2.4007   16.4040   38.0164 O   0  0  0  0  0  0  0  0  0  0  0  0
    0.8211   16.9870   41.1614 C   0  0  0  0  0  0  0  0  0  0  0  0
    2.7321   19.6933   37.5240 C   0  0  0  0  0  0  0  0  0  0  0  0
   -0.7287   14.9888   44.4587 C   0  0  0  0  0  0  0  0  0  0  0  0
    1.3846   14.6980   40.3889 C   0  0  0  0  0  0  0  0  0  0  0  0
    1.8917   20.7306   37.4162 C   0  0  0  0  0  0  0  0  0  0  0  0
    3.9856   17.6914   37.9107 C   0  0  0  0  0  0  0  0  0  0  0  0
   -1.0172   15.5499   45.6924 N   0  0  0  0  0  0  0  0  0  0  0  0
   -1.3666   14.4032   46.4857 N   0  0  0  0  0  0  0  0  0  0  0  0
    1.8052   19.8229   40.1636 O   0  0  0  0  0  0  0  0  0  0  0  0
   -0.3355   15.8247   43.3679 C   0  0  0  0  0  0  0  0  0  0  0  0
   -0.7824   19.4001   40.4020 F   0  0  0  0  0  0  0  0  0  0  0  0
    3.2219   18.5257   39.4990 H   0  0  0  0  0  0  0  0  0  0  0  0
   -0.5996   12.8616   43.6021 H   0  0  0  0  0  0  0  0  0  0  0  0
    2.9311   16.3090   36.3438 H   0  0  0  0  0  0  0  0  0  0  0  0
   -1.4665   18.6607   41.7927 H   0  0  0  0  0  0  0  0  0  0  0  0
    1.5615   21.9490   35.6329 H   0  0  0  0  0  0  0  0  0  0  0  0
    2.1122   16.6999   39.7576 H   0  0  0  0  0  0  0  0  0  0  0  0
    4.2188   14.8501   36.7402 H   0  0  0  0  0  0  0  0  0  0  0  0
    2.9015   15.4362   35.6689 H   0  0  0  0  0  0  0  0  0  0  0  0
    4.4697   16.3104   35.7249 H   0  0  0  0  0  0  0  0  0  0  0  0
   -2.2187   12.7199   45.7922 H   0  0  0  0  0  0  0  0  0  0  0  0
   -0.5174   12.5823   46.3118 H   0  0  0  0  0  0  0  0  0  0  0  0
   -0.1626   14.0292   42.3858 H   0  0  0  0  0  0  0  0  0  0  0  0
   -0.6369   17.8587   45.2531 H   0  0  0  0  0  0  0  0  0  0  0  0
    0.5935   14.0314   40.0151 H   0  0  0  0  0  0  0  0  0  0  0  0
    2.1829   14.2291   40.9829 H   0  0  0  0  0  0  0  0  0  0  0  0
    2.1322   21.5152   38.1487 H   0  0  0  0  0  0  0  0  0  0  0  0
    0.8417   20.4675   37.6117 H   0  0  0  0  0  0  0  0  0  0  0  0
    4.6449   17.3581   38.7257 H   0  0  0  0  0  0  0  0  0  0  0  0
    4.6183   18.1571   37.1406 H   0  0  0  0  0  0  0  0  0  0  0  0
  1 17  2  0
  2 24  1  0
  2  4  1  0
  3 12  1  0
  4 31  2  0
  4  8  1  0
  5 11  1  0
  5 28  1  0
  5 22  1  0
  6 33  1  0
  6 18  1  0
  6 10  1  0
  7 27  1  0
  8 23  1  0
  9  7  2  0
  9 19  1  0
 10  1  1  0
 12 30  1  0
 13 32  2  0
 14 13  1  0
 15 26  1  0
 16 15  2  0
 18 20  2  0
 19 24  2  0
 20 32  1  0
 20 17  1  0
 21 10  2  0
 22 15  1  0
 23 14  2  0
 23 18  1  0
 25  3  2  0
 25 29  1  0
 26 14  1  0
 27 24  1  0
 28  2  1  0
 29 30  2  0
 32 25  1  0
  2 34  1  1
  3 35  1  0
  5 36  1  6
  6 37  1  6
  7 38  1  0
  8 39  1  0
 11 40  1  0
 11 41  1  0
 11 42  1  0
 12 43  1  0
 12 44  1  0
 13 45  1  0
 17 46  1  0
 26 47  1  0
 26 48  1  0
 27 49  1  0
 27 50  1  0
 28 51  1  0
 28 52  1  0
M  END
>  <mol_id>  (6) 
2026-08-23-6tgu-s0-n100-prep-0006

>  <rmsd_to_ref>  (6) 


$$$$

     RDKit          3D

 46 48  0  0  0  0  0  0  0  0999 V2000
   -0.6965   19.9737   41.7257 C   0  0  0  0  0  0  0  0  0  0  0  0
    2.3646   20.9821   36.6504 O   0  0  0  0  0  0  0  0  0  0  0  0
    3.7529   18.7276   39.4601 C   0  0  0  0  0  0  0  0  0  0  0  0
   -0.9842   17.9371   43.0668 C   0  0  0  0  0  0  0  0  0  0  0  0
   -0.3336   18.5434   42.0531 C   0  0  0  0  0  0  0  0  0  0  0  0
    2.6534   20.6704   38.0924 C   0  0  0  0  0  0  0  0  0  0  0  0
    1.3966   18.3890   40.2345 C   0  0  0  0  0  0  0  0  0  0  0  0
    3.3262   21.6993   35.8746 C   0  0  0  0  0  0  0  0  0  0  0  0
    2.3416   14.4992   41.4671 C   0  0  0  0  0  0  0  0  0  0  0  0
   -0.8337   16.6052   43.4387 C   0  0  0  0  0  0  0  0  0  0  0  0
    4.1050   18.8941   37.0698 C   0  0  0  0  0  0  0  0  0  0  0  0
    4.2623   17.7629   37.3927 C   0  0  0  0  0  0  0  0  0  0  0  0
    0.2387   15.8371   42.7902 C   0  0  0  0  0  0  0  0  0  0  0  0
    2.1346   15.8845   41.1895 C   0  0  0  0  0  0  0  0  0  0  0  0
    0.7068   17.7920   41.4253 C   0  0  0  0  0  0  0  0  0  0  0  0
    4.2603   21.3308   35.0410 N   0  0  0  0  0  0  0  0  0  0  0  0
    2.9541   16.5188   40.3161 N   0  0  0  0  0  0  0  0  0  0  0  0
    3.5976   19.4816   38.1448 C   0  0  2  0  0  0  0  0  0  0  0  0
    1.5437   13.8497   42.4362 C   0  0  0  0  0  0  0  0  0  0  0  0
    0.9841   16.5107   41.7645 C   0  0  0  0  0  0  0  0  0  0  0  0
    2.6999   17.7546   39.9505 C   0  0  2  0  0  0  0  0  0  0  0  0
    0.4959   14.5279   43.0747 C   0  0  0  0  0  0  0  0  0  0  0  0
    0.9155   19.1707   39.5471 O   0  0  0  0  0  0  0  0  0  0  0  0
   -1.9920   18.6465   43.6233 O   0  0  0  0  0  0  0  0  0  0  0  0
   -1.0380   20.4835   42.6386 H   0  0  0  0  0  0  0  0  0  0  0  0
    0.1859   20.4932   41.3239 H   0  0  0  0  0  0  0  0  0  0  0  0
   -1.5017   19.9853   40.9763 H   0  0  0  0  0  0  0  0  0  0  0  0
    4.6890   18.1555   39.3798 H   0  0  0  0  0  0  0  0  0  0  0  0
    3.6874   19.5367   40.2024 H   0  0  0  0  0  0  0  0  0  0  0  0
    3.1239   21.5403   38.5738 H   0  0  0  0  0  0  0  0  0  0  0  0
    1.7190   20.4353   38.6232 H   0  0  0  0  0  0  0  0  0  0  0  0
    3.2670   22.7896   36.0076 H   0  0  0  0  0  0  0  0  0  0  0  0
    3.1199   13.9391   40.9281 H   0  0  0  0  0  0  0  0  0  0  0  0
   -1.4923   16.1442   44.1895 H   0  0  0  0  0  0  0  0  0  0  0  0
    5.0639   19.3554   36.7913 H   0  0  0  0  0  0  0  0  0  0  0  0
    3.4478   18.9899   36.1928 H   0  0  0  0  0  0  0  0  0  0  0  0
    4.0644   17.6580   38.4697 H   0  0  0  0  0  0  0  0  0  0  0  0
    3.5700   17.1207   36.8285 H   0  0  0  0  0  0  0  0  0  0  0  0
    5.2984   17.4613   37.1794 H   0  0  0  0  0  0  0  0  0  0  0  0
    4.8517   22.0395   34.5840 H   0  0  0  0  0  0  0  0  0  0  0  0
    3.7784   16.0305   39.9379 H   0  0  0  0  0  0  0  0  0  0  0  0
    4.3230   20.3031   38.0505 H   0  0  0  0  0  0  0  0  0  0  0  0
    1.7473   12.7996   42.6925 H   0  0  0  0  0  0  0  0  0  0  0  0
    2.6660   17.0238   39.1292 H   0  0  0  0  0  0  0  0  0  0  0  0
   -0.1251   13.9990   43.8127 H   0  0  0  0  0  0  0  0  0  0  0  0
   -2.1233   19.5965   43.3775 H   0  0  0  0  0  0  0  0  0  0  0  0
  1  5  1  0
  2  6  1  0
  4 10  2  0
  4 24  1  0
  5  4  1  0
  7 15  1  0
  8  2  1  0
  9 19  2  0
 11 12  1  0
 13 22  2  0
 13 10  1  0
 14  9  1  0
 14 20  2  0
 15 20  1  0
 15  5  2  0
 16  8  2  3
 17 14  1  0
 18 11  1  0
 18  6  1  0
 18  3  1  0
 19 22  1  0
 20 13  1  0
 21  3  1  0
 21 17  1  0
 21  7  1  0
 23  7  2  0
  1 25  1  0
  1 26  1  0
  1 27  1  0
  3 28  1  0
  3 29  1  0
  6 30  1  0
  6 31  1  0
  8 32  1  0
  9 33  1  0
 10 34  1  0
 11 35  1  0
 11 36  1  0
 12 37  1  0
 12 38  1  0
 12 39  1  0
 16 40  1  0
 17 41  1  0
 18 42  1  1
 19 43  1  0
 21 44  1  6
 22 45  1  0
 24 46  1  0
M  END
>  <mol_id>  (7) 
2026-08-23-6tgu-s0-n100-prep-0007

>  <rmsd_to_ref>  (7) 


$$$$

     RDKit          3D

 40 43  0  0  0  0  0  0  0  0999 V2000
    0.1707   20.1187   42.2809 C   0  0  0  0  0  0  0  0  0  0  0  0
    3.5822   19.6219   36.1802 N   0  0  0  0  0  0  0  0  0  0  0  0
    0.3054   18.7658   42.0317 N   0  0  0  0  0  0  0  0  0  0  0  0
    2.3892   20.5641   37.7444 C   0  0  0  0  0  0  0  0  0  0  0  0
    3.3096   18.6364   36.9700 C   0  0  0  0  0  0  0  0  0  0  0  0
    0.6244   21.0053   41.8067 C   0  0  0  0  0  0  0  0  0  0  0  0
    3.7765   17.1175   36.7038 C   0  0  0  0  0  0  0  0  0  0  0  0
    0.2445   16.2211   42.4203 S   0  0  0  0  0  0  0  0  0  0  0  0
   -0.3693   14.9140   43.3606 C   0  0  0  0  0  0  0  0  0  0  0  0
    2.7099   19.1769   38.0363 C   0  0  0  0  0  0  0  0  0  0  0  0
   -0.6511   17.8712   44.3123 C   0  0  0  0  0  0  0  0  0  0  0  0
    3.0184   20.7739   36.6776 N   0  0  0  0  0  0  0  0  0  0  0  0
    0.9658   18.7880   41.3054 N   0  0  0  0  0  0  0  0  0  0  0  0
   -1.4312   16.6671   44.8015 C   0  0  0  0  0  0  0  0  0  0  0  0
   -0.8285   15.3415   44.6830 C   0  0  0  0  0  0  0  0  0  0  0  0
    0.9155   20.0945   40.7476 C   0  0  2  0  0  0  0  0  0  0  0  0
    2.1720   18.7235   39.2162 C   0  0  0  0  0  0  0  0  0  0  0  0
    1.7851   21.1525   38.7494 C   0  0  0  0  0  0  0  0  0  0  0  0
   -0.5242   17.6763   42.8117 C   0  0  1  0  0  0  0  0  0  0  0  0
    1.6567   19.9970   39.7387 C   0  0  0  0  0  0  0  0  0  0  0  0
   -0.9101   20.2944   42.1761 H   0  0  0  0  0  0  0  0  0  0  0  0
    0.7840   20.1386   43.1939 H   0  0  0  0  0  0  0  0  0  0  0  0
   -0.0743   21.8166   41.5544 H   0  0  0  0  0  0  0  0  0  0  0  0
    1.3812   21.6382   42.2932 H   0  0  0  0  0  0  0  0  0  0  0  0
    3.9213   16.6045   37.6660 H   0  0  0  0  0  0  0  0  0  0  0  0
    3.0044   16.5932   36.1214 H   0  0  0  0  0  0  0  0  0  0  0  0
    4.7224   17.1176   36.1424 H   0  0  0  0  0  0  0  0  0  0  0  0
   -1.2150   14.4597   42.8235 H   0  0  0  0  0  0  0  0  0  0  0  0
    0.4499   14.1948   43.5078 H   0  0  0  0  0  0  0  0  0  0  0  0
   -1.1949   18.8009   44.5365 H   0  0  0  0  0  0  0  0  0  0  0  0
    0.3303   17.9537   44.8021 H   0  0  0  0  0  0  0  0  0  0  0  0
    1.9075   18.5961   41.6759 H   0  0  0  0  0  0  0  0  0  0  0  0
   -1.6435   16.8313   45.8683 H   0  0  0  0  0  0  0  0  0  0  0  0
   -2.3016   16.6241   44.1305 H   0  0  0  0  0  0  0  0  0  0  0  0
   -1.5766   14.6099   45.0224 H   0  0  0  0  0  0  0  0  0  0  0  0
    0.0884   15.4000   45.2879 H   0  0  0  0  0  0  0  0  0  0  0  0
    0.1963   20.7059   40.1828 H   0  0  0  0  0  0  0  0  0  0  0  0
    2.1372   17.7102   39.6426 H   0  0  0  0  0  0  0  0  0  0  0  0
    1.4586   22.1979   38.8518 H   0  0  0  0  0  0  0  0  0  0  0  0
   -1.5792   17.7239   42.5038 H   0  0  0  0  0  0  0  0  0  0  0  0
  2 12  2  0
  2  5  1  0
  3  1  1  0
  3 19  1  0
  4 10  1  0
  4 18  2  0
  5 10  2  0
  6  1  1  0
  7  5  1  0
  8 19  1  0
  8  9  1  0
  9 15  1  0
 10 17  1  0
 11 14  1  0
 12  4  1  0
 13  3  1  0
 14 15  1  0
 16 20  1  0
 16 13  1  0
 16  6  1  0
 17 20  2  0
 18 20  1  0
 19 11  1  0
  1 21  1  0
  1 22  1  0
  6 23  1  0
  6 24  1  0
  7 25  1  0
  7 26  1  0
  7 27  1  0
  9 28  1  0
  9 29  1  0
 11 30  1  0
 11 31  1  0
 13 32  1  0
 14 33  1  0
 14 34  1  0
 15 35  1  0
 15 36  1  0
 16 37  1  6
 17 38  1  0
 18 39  1  0
 19 40  1  6
M  END
>  <mol_id>  (8) 
2026-08-23-6tgu-s0-n100-prep-0008

>  <rmsd_to_ref>  (8) 


$$$$

     RDKit          3D

 35 38  0  0  0  0  0  0  0  0999 V2000
    0.2970   19.9768   41.8192 C   0  0  0  0  0  0  0  0  0  0  0  0
    1.5151   14.1757   44.1978 C   0  0  0  0  0  0  0  0  0  0  0  0
    4.2780   18.5761   37.9786 C   0  0  0  0  0  0  0  0  0  0  0  0
    1.5445   17.7078   41.6635 O   0  0  0  0  0  0  0  0  0  0  0  0
    2.2456   19.6394   39.6393 C   0  0  0  0  0  0  0  0  0  0  0  0
    2.8094   17.8442   41.1436 O   0  0  0  0  0  0  0  0  0  0  0  0
    3.9544   17.9451   39.1176 C   0  0  0  0  0  0  0  0  0  0  0  0
    0.2862   18.8640   42.8841 C   0  0  0  0  0  0  0  0  0  0  0  0
    3.5174   19.7130   37.6030 C   0  0  0  0  0  0  0  0  0  0  0  0
    1.0342   17.6461   42.6972 C   0  0  0  0  0  0  0  0  0  0  0  0
    2.9383   18.4739   39.9667 C   0  0  0  0  0  0  0  0  0  0  0  0
    2.5432   20.2401   38.4329 C   0  0  0  0  0  0  0  0  0  0  0  0
    1.7948   15.2389   43.4402 C   0  0  0  0  0  0  0  0  0  0  0  0
   -0.6182   18.9043   43.8903 N   0  0  0  0  0  0  0  0  0  0  0  0
    3.7747   20.3244   36.4860 O   0  0  0  0  0  0  0  0  0  0  0  0
    0.4188   14.3101   45.1449 C   0  0  0  0  0  0  0  0  0  0  0  0
   -0.0077   16.5382   44.4900 C   0  0  0  0  0  0  0  0  0  0  0  0
    0.9733   16.4525   43.4195 C   0  0  0  0  0  0  0  0  0  0  0  0
   -0.7117   17.7731   44.6077 C   0  0  0  0  0  0  0  0  0  0  0  0
    1.1927   20.1844   40.6200 C   0  0  0  0  0  0  0  0  0  0  0  0
   -0.2243   15.4682   45.2848 N   0  0  0  0  0  0  0  0  0  0  0  0
    2.9356   15.0035   42.4655 C   0  0  0  0  0  0  0  0  0  0  0  0
    0.1085   13.3434   45.7979 O   0  0  0  0  0  0  0  0  0  0  0  0
   -0.4753   20.7484   41.9541 H   0  0  0  0  0  0  0  0  0  0  0  0
    2.0876   13.2406   44.1099 H   0  0  0  0  0  0  0  0  0  0  0  0
    5.1104   18.2214   37.3531 H   0  0  0  0  0  0  0  0  0  0  0  0
    4.4746   17.0170   39.3972 H   0  0  0  0  0  0  0  0  0  0  0  0
    2.0007   21.1471   38.1279 H   0  0  0  0  0  0  0  0  0  0  0  0
    3.2447   21.1179   36.2225 H   0  0  0  0  0  0  0  0  0  0  0  0
   -1.4530   17.8039   45.4197 H   0  0  0  0  0  0  0  0  0  0  0  0
    1.0004   21.2165   40.2919 H   0  0  0  0  0  0  0  0  0  0  0  0
   -0.9223   15.5518   46.0376 H   0  0  0  0  0  0  0  0  0  0  0  0
    3.8701   14.8499   43.0249 H   0  0  0  0  0  0  0  0  0  0  0  0
    2.7210   14.1117   41.8583 H   0  0  0  0  0  0  0  0  0  0  0  0
    3.0418   15.8784   41.8072 H   0  0  0  0  0  0  0  0  0  0  0  0
  1  8  1  0
  2 16  1  0
  3  7  1  0
  4 10  1  0
  5 11  1  0
  5 20  1  0
  6  4  1  0
  7 11  2  0
  8 14  1  0
  9  3  2  0
  9 12  1  0
 10  8  2  0
 10 18  1  0
 11  6  1  0
 12  5  2  0
 13 18  1  0
 13  2  2  0
 14 19  2  0
 15  9  1  0
 16 21  1  0
 16 23  2  0
 17 19  1  0
 17 21  1  0
 18 17  2  0
 20  1  2  0
 22 13  1  0
  1 24  1  0
  2 25  1  0
  3 26  1  0
  7 27  1  0
 12 28  1  0
 15 29  1  0
 19 30  1  0
 20 31  1  0
 21 32  1  0
 22 33  1  0
 22 34  1  0
 22 35  1  0
M  END
>  <mol_id>  (9) 
2026-08-23-6tgu-s0-n100-prep-0009

>  <rmsd_to_ref>  (9) 


$$$$

     RDKit          3D

 16 15  0  0  0  0  0  0  0  0999 V2000
    0.7131   21.3510   41.0895 O   0  0  0  0  0  0  0  0  0  0  0  0
    3.0899   20.0832   37.9455 C   0  0  0  0  0  0  0  0  0  0  0  0
    0.8273   19.1787   41.9588 C   0  0  0  0  0  0  0  0  0  0  0  0
    1.8919   17.5382   40.7183 O   0  0  0  0  0  0  0  0  0  0  0  0
    2.8223   20.2301   36.7241 O   0  0  0  0  0  0  0  0  0  0  0  0
    1.2808   17.8948   41.8261 C   0  0  0  0  0  0  0  0  0  0  0  0
    1.2845   16.9679   42.6719 O   0  0  0  0  0  0  0  0  0  0  0  0
    1.0356   20.1979   40.9375 C   0  0  0  0  0  0  0  0  0  0  0  0
    4.1558   19.4159   38.4379 O   0  0  0  0  0  0  0  0  0  0  0  0
    2.0707   20.7047   38.8118 C   0  0  0  0  0  0  0  0  0  0  0  0
    1.6407   19.7497   39.8226 N   0  0  0  0  0  0  0  0  0  0  0  0
   -0.2616   19.1041   42.0967 H   0  0  0  0  0  0  0  0  0  0  0  0
    1.4565   19.5536   42.7795 H   0  0  0  0  0  0  0  0  0  0  0  0
    2.4991   21.5904   39.3038 H   0  0  0  0  0  0  0  0  0  0  0  0
    1.2061   21.0044   38.2014 H   0  0  0  0  0  0  0  0  0  0  0  0
    1.7982   18.7411   39.6858 H   0  0  0  0  0  0  0  0  0  0  0  0
  2  9  1  0
  2 10  1  0
  4  6  2  0
  5  2  2  0
  6  3  1  0
  6  7  1  0
  8  1  2  0
  8  3  1  0
 10 11  1  0
 11  8  1  0
  3 12  1  0
  3 13  1  0
 10 14  1  0
 10 15  1  0
 11 16  1  0
M  CHG  2   7  -1   9  -1
M  END
>  <mol_id>  (10) 
2026-08-23-6tgu-s0-n100-prep-0010

>  <rmsd_to_ref>  (10) 


$$$$

     RDKit          3D

 29 31  0  0  0  0  0  0  0  0999 V2000
    1.1483   19.8615   41.9268 N   0  0  0  0  0  0  0  0  0  0  0  0
    2.8355   17.0802   38.0515 F   0  0  0  0  0  0  0  0  0  0  0  0
    2.8815   18.3595   37.8241 C   0  0  0  0  0  0  0  0  0  0  0  0
    2.3306   20.6215   38.3859 C   0  0  0  0  0  0  0  0  0  0  0  0
    1.3843   17.8873   40.8086 C   0  0  0  0  0  0  0  0  0  0  0  0
    0.6551   15.5387   41.4775 C   0  0  0  0  0  0  0  0  0  0  0  0
    1.7428   20.0122   40.8480 N   0  0  0  0  0  0  0  0  0  0  0  0
    3.3775   20.2374   36.2609 N   0  0  0  0  0  0  0  0  0  0  0  0
   -0.1905   15.6154   42.4773 C   0  0  0  0  0  0  0  0  0  0  0  0
   -0.6192   16.8302   42.9407 C   0  0  0  0  0  0  0  0  0  0  0  0
    1.9072   18.9436   40.0166 C   0  0  0  0  0  0  0  0  0  0  0  0
    0.7520   18.6154   41.8302 C   0  0  1  0  0  0  0  0  0  0  0  0
    3.3424   18.8924   36.5551 C   0  0  0  0  0  0  0  0  0  0  0  0
    3.9491   18.0308   35.6987 N   0  0  0  0  0  0  0  0  0  0  0  0
   -0.2949   18.0317   42.5623 C   0  0  0  0  0  0  0  0  0  0  0  0
    1.3371   16.5406   40.8443 C   0  0  0  0  0  0  0  0  0  0  0  0
    2.9130   20.9864   37.2195 C   0  0  0  0  0  0  0  0  0  0  0  0
    2.3979   19.2854   38.7311 C   0  0  0  0  0  0  0  0  0  0  0  0
    1.0047   20.5348   42.6929 H   0  0  0  0  0  0  0  0  0  0  0  0
    1.8261   21.3564   39.0304 H   0  0  0  0  0  0  0  0  0  0  0  0
    0.8419   14.5248   41.0939 H   0  0  0  0  0  0  0  0  0  0  0  0
   -0.5594   14.6927   42.9490 H   0  0  0  0  0  0  0  0  0  0  0  0
   -1.3515   16.7829   43.7601 H   0  0  0  0  0  0  0  0  0  0  0  0
   -0.0355   18.9205   41.1255 H   0  0  0  0  0  0  0  0  0  0  0  0
    3.9391   17.0193   35.8928 H   0  0  0  0  0  0  0  0  0  0  0  0
    4.4192   18.3887   34.8551 H   0  0  0  0  0  0  0  0  0  0  0  0
   -1.0259   18.7803   42.9017 H   0  0  0  0  0  0  0  0  0  0  0  0
    2.0762   16.1162   40.1488 H   0  0  0  0  0  0  0  0  0  0  0  0
    3.0073   22.0705   37.0586 H   0  0  0  0  0  0  0  0  0  0  0  0
  1 12  1  0
  3 18  1  0
  3  2  1  0
  4 18  2  0
  5 16  2  0
  5 12  1  0
  6  9  2  0
  7  1  1  0
  8 17  2  0
  8 13  1  0
 10  9  1  0
 11  7  2  0
 11  5  1  0
 12 15  1  0
 13  3  2  0
 14 13  1  0
 15 10  2  0
 16  6  1  0
 17  4  1  0
 18 11  1  0
  1 19  1  0
  4 20  1  0
  6 21  1  0
  9 22  1  0
 10 23  1  0
 12 24  1  1
 14 25  1  0
 14 26  1  0
 15 27  1  0
 16 28  1  0
 17 29  1  0
M  END
>  <mol_id>  (11) 
2026-08-23-6tgu-s0-n100-prep-0011

>  <rmsd_to_ref>  (11) 


$$$$

     RDKit          3D

 49 51  0  0  0  0  0  0  0  0999 V2000
    0.6349   20.0370   42.1484 C   0  0  0  0  0  0  0  0  0  0  0  0
    1.4385   14.8324   41.7964 C   0  0  0  0  0  0  0  0  0  0  0  0
   -0.8326   16.0516   44.5430 C   0  0  0  0  0  0  0  0  0  0  0  0
    4.2682   19.1857   38.8019 C   0  0  0  0  0  0  0  0  0  0  0  0
    4.1490   19.3861   36.3256 N   0  0  0  0  0  0  0  0  0  0  0  0
    1.6717   18.8936   40.4202 C   0  0  0  0  0  0  0  0  0  0  0  0
    0.0317   15.6251   43.4098 C   0  0  0  0  0  0  0  0  0  0  0  0
    3.1890   20.2552   38.8990 N   0  0  0  0  0  0  0  0  0  0  0  0
    0.9749   18.8243   41.6747 C   0  0  2  0  0  0  0  0  0  0  0  0
    0.5740   14.3632   42.7189 N   0  0  0  0  0  0  0  0  0  0  0  0
    2.3316   20.1622   40.0233 C   0  0  0  0  0  0  0  0  0  0  0  0
    3.6940   21.4882   35.5412 O   0  0  0  0  0  0  0  0  0  0  0  0
    1.4183   16.1442   41.6713 N   0  0  0  0  0  0  0  0  0  0  0  0
    0.0558   20.5641   43.1553 O   0  0  0  0  0  0  0  0  0  0  0  0
    3.9387   18.5021   37.4889 C   0  0  0  0  0  0  0  0  0  0  0  0
    3.0286   20.9098   37.7430 C   0  0  0  0  0  0  0  0  0  0  0  0
    2.0331   21.3330   40.7514 C   0  0  0  0  0  0  0  0  0  0  0  0
    0.0938   17.9487   42.7551 C   0  0  0  0  0  0  0  0  0  0  0  0
    1.1500   21.2614   41.7433 C   0  0  0  0  0  0  0  0  0  0  0  0
   -0.6278   12.8190   44.5991 C   0  0  0  0  0  0  0  0  0  0  0  0
    0.5372   16.6018   42.6262 C   0  0  0  0  0  0  0  0  0  0  0  0
   -1.5422   12.7266   43.4146 C   0  0  0  0  0  0  0  0  0  0  0  0
   -1.3348   17.3785   44.7046 C   0  0  0  0  0  0  0  0  0  0  0  0
    2.2711   13.8648   40.9967 C   0  0  0  0  0  0  0  0  0  0  0  0
    3.6122   20.6664   36.5441 C   0  0  0  0  0  0  0  0  0  0  0  0
   -0.8721   18.3514   43.7737 N   0  0  0  0  0  0  0  0  0  0  0  0
   -1.1004   15.3007   45.3009 H   0  0  0  0  0  0  0  0  0  0  0  0
    5.2717   19.6354   38.7746 H   0  0  0  0  0  0  0  0  0  0  0  0
    4.2826   18.4991   39.6612 H   0  0  0  0  0  0  0  0  0  0  0  0
    4.6297   19.1001   35.4607 H   0  0  0  0  0  0  0  0  0  0  0  0
    1.7156   18.0147   39.7602 H   0  0  0  0  0  0  0  0  0  0  0  0
    1.5997   17.9630   41.3960 H   0  0  0  0  0  0  0  0  0  0  0  0
    1.9523   16.7114   40.9974 H   0  0  0  0  0  0  0  0  0  0  0  0
    2.8845   18.1890   37.5085 H   0  0  0  0  0  0  0  0  0  0  0  0
    4.6135   17.6401   37.3811 H   0  0  0  0  0  0  0  0  0  0  0  0
    1.9490   20.8503   37.5406 H   0  0  0  0  0  0  0  0  0  0  0  0
    3.5761   21.8278   38.0028 H   0  0  0  0  0  0  0  0  0  0  0  0
    2.5215   22.2870   40.5035 H   0  0  0  0  0  0  0  0  0  0  0  0
    0.8240   22.1825   42.2486 H   0  0  0  0  0  0  0  0  0  0  0  0
   -1.1965   12.6140   45.5181 H   0  0  0  0  0  0  0  0  0  0  0  0
    0.1812   12.0808   44.4962 H   0  0  0  0  0  0  0  0  0  0  0  0
   -0.1973   13.8298   44.6520 H   0  0  0  0  0  0  0  0  0  0  0  0
   -2.5581   12.4765   43.7543 H   0  0  0  0  0  0  0  0  0  0  0  0
   -1.5590   13.6923   42.8882 H   0  0  0  0  0  0  0  0  0  0  0  0
   -1.1805   11.9432   42.7323 H   0  0  0  0  0  0  0  0  0  0  0  0
   -2.0423   17.6357   45.5066 H   0  0  0  0  0  0  0  0  0  0  0  0
    2.7573   13.1500   41.6770 H   0  0  0  0  0  0  0  0  0  0  0  0
    1.6249   13.3196   40.2930 H   0  0  0  0  0  0  0  0  0  0  0  0
    3.0390   14.4180   40.4362 H   0  0  0  0  0  0  0  0  0  0  0  0
  1 14  2  0
  2 10  2  0
  3 23  1  0
  4  8  1  0
  5 25  1  0
  5 15  1  0
  6  9  1  0
  7  3  2  0
  8 11  1  0
  9  1  1  0
  9 18  1  0
 10  7  1  0
 11  6  2  0
 11 17  1  0
 12 25  2  0
 13  2  1  0
 13 21  1  0
 15  4  1  0
 16  8  1  0
 17 19  2  0
 18 26  1  0
 19  1  1  0
 21 18  2  0
 21  7  1  0
 22 20  1  0
 24  2  1  0
 25 16  1  0
 26 23  2  0
  3 27  1  0
  4 28  1  0
  4 29  1  0
  5 30  1  0
  6 31  1  0
  9 32  1  1
 13 33  1  0
 15 34  1  0
 15 35  1  0
 16 36  1  0
 16 37  1  0
 17 38  1  0
 19 39  1  0
 20 40  1  0
 20 41  1  0
 20 42  1  0
 22 43  1  0
 22 44  1  0
 22 45  1  0
 23 46  1  0
 24 47  1  0
 24 48  1  0
 24 49  1  0
M  END
>  <mol_id>  (12) 
2026-08-23-6tgu-s0-n100-prep-0012

>  <rmsd_to_ref>  (12) 


$$$$

     RDKit          3D

 31 34  0  0  0  0  0  0  0  0999 V2000
   -0.2037   16.5999   44.8458 C   0  0  0  0  0  0  0  0  0  0  0  0
    2.2162   17.0703   41.4996 N   0  0  0  0  0  0  0  0  0  0  0  0
    1.1343   15.4717   43.4233 C   0  0  0  0  0  0  0  0  0  0  0  0
    3.3558   18.5555   39.2289 C   0  0  0  0  0  0  0  0  0  0  0  0
    3.1739   20.0931   37.4952 C   0  0  0  0  0  0  0  0  0  0  0  0
    1.8724   18.4022   41.1774 C   0  0  0  0  0  0  0  0  0  0  0  0
    2.3849   19.0400   40.0130 C   0  0  0  0  0  0  0  0  0  0  0  0
    3.7657   18.9794   38.0497 C   0  0  0  0  0  0  0  0  0  0  0  0
    2.3686   20.8542   38.2006 C   0  0  0  0  0  0  0  0  0  0  0  0
    0.3903   20.4361   42.3276 Cl  0  0  0  0  0  0  0  0  0  0  0  0
    0.9042   18.8793   42.2194 C   0  0  0  0  0  0  0  0  0  0  0  0
    0.6082   17.8536   43.1031 C   0  0  0  0  0  0  0  0  0  0  0  0
    2.3186   21.5666   37.3434 O   0  0  0  0  0  0  0  0  0  0  0  0
    4.1890   16.0454   37.5104 C   0  0  0  0  0  0  0  0  0  0  0  0
    4.7255   17.1139   37.0391 C   0  0  0  0  0  0  0  0  0  0  0  0
    1.8023   14.0306   42.8015 S   0  0  0  0  0  0  0  0  0  0  0  0
    4.8244   18.3422   37.1959 O   0  0  0  0  0  0  0  0  0  0  0  0
   -0.1745   17.7843   44.1738 N   0  0  0  0  0  0  0  0  0  0  0  0
    4.8857   16.1628   36.4015 N   0  0  0  0  0  0  0  0  0  0  0  0
    0.4043   15.4180   44.5062 N   0  0  0  0  0  0  0  0  0  0  0  0
    1.3654   16.7703   42.6093 C   0  0  2  0  0  0  0  0  0  0  0  0
    1.8857   20.2960   39.4280 C   0  0  0  0  0  0  0  0  0  0  0  0
   -0.7880   16.5898   45.7777 H   0  0  0  0  0  0  0  0  0  0  0  0
    3.8879   17.6781   39.6252 H   0  0  0  0  0  0  0  0  0  0  0  0
    3.3790   20.3490   36.4453 H   0  0  0  0  0  0  0  0  0  0  0  0
    4.6069   15.5412   38.3942 H   0  0  0  0  0  0  0  0  0  0  0  0
    3.1911   15.6980   37.8162 H   0  0  0  0  0  0  0  0  0  0  0  0
   -0.7352   18.5912   44.4827 H   0  0  0  0  0  0  0  0  0  0  0  0
    2.1806   17.0241   43.3028 H   0  0  0  0  0  0  0  0  0  0  0  0
    2.0524   21.0685   40.1931 H   0  0  0  0  0  0  0  0  0  0  0  0
    0.8664   20.0014   39.1376 H   0  0  0  0  0  0  0  0  0  0  0  0
  3 20  1  0
  4  7  2  0
  5  9  1  0
  5  8  2  0
  6  2  2  0
  6 11  1  0
  7  6  1  0
  8  4  1  0
  9 22  1  0
 10 11  1  0
 11 12  2  0
 12 18  1  0
 13  9  2  0
 15 14  1  0
 16  3  2  0
 17 15  1  0
 17  8  1  0
 18  1  1  0
 19 15  2  0
 19 14  1  0
 20  1  2  0
 21  2  1  0
 21 12  1  0
 21  3  1  0
 22  7  1  0
  1 23  1  0
  4 24  1  0
  5 25  1  0
 14 26  1  0
 14 27  1  0
 18 28  1  0
 21 29  1  1
 22 30  1  0
 22 31  1  0
M  END
>  <mol_id>  (13) 
2026-08-23-6tgu-s0-n100-prep-0013

>  <rmsd_to_ref>  (13) 


$$$$

     RDKit          3D

 31 32  0  0  0  0  0  0  0  0999 V2000
    1.2090   17.2592   41.0048 C   0  0  0  0  0  0  0  0  0  0  0  0
    0.6460   18.4571   41.2569 C   0  0  0  0  0  0  0  0  0  0  0  0
    2.1380   18.6058   39.3297 C   0  0  1  0  0  0  0  0  0  0  0  0
   -0.5263   15.4795   43.6410 N   0  0  0  0  0  0  0  0  0  0  0  0
   -1.2344   17.9912   44.4888 C   0  0  0  0  0  0  0  0  0  0  0  0
   -0.1222   16.4989   42.9177 C   0  0  0  0  0  0  0  0  0  0  0  0
    2.1653   21.2724   37.3029 O   0  0  0  0  0  0  0  0  0  0  0  0
    2.4682   18.9162   37.9246 C   0  0  0  0  0  0  0  0  0  0  0  0
    1.2640   19.7353   40.2696 S   0  0  0  0  0  0  0  0  0  0  0  0
    3.9154   21.0908   36.0351 O   0  0  0  0  0  0  0  0  0  0  0  0
    3.2057   20.5795   36.9782 C   0  0  0  0  0  0  0  0  0  0  0  0
   -0.5078   18.7993   42.1085 C   0  0  1  0  0  0  0  0  0  0  0  0
    3.6203   19.4843   37.6876 C   0  0  0  0  0  0  0  0  0  0  0  0
   -0.5554   17.7470   43.2462 N   0  0  0  0  0  0  0  0  0  0  0  0
    0.7161   16.2032   41.8826 N   0  0  0  0  0  0  0  0  0  0  0  0
   -0.7707   20.2123   42.5989 C   0  0  0  0  0  0  0  0  0  0  0  0
    2.2788   17.0313   39.8030 S   0  0  0  0  0  0  0  0  0  0  0  0
    3.0383   18.9761   39.8420 H   0  0  0  0  0  0  0  0  0  0  0  0
   -0.2106   14.5268   43.4100 H   0  0  0  0  0  0  0  0  0  0  0  0
   -1.1589   15.6331   44.4393 H   0  0  0  0  0  0  0  0  0  0  0  0
   -0.6707   17.5276   45.3119 H   0  0  0  0  0  0  0  0  0  0  0  0
   -1.3078   19.0754   44.6597 H   0  0  0  0  0  0  0  0  0  0  0  0
   -2.2444   17.5576   44.4462 H   0  0  0  0  0  0  0  0  0  0  0  0
    2.4457   17.9701   37.3640 H   0  0  0  0  0  0  0  0  0  0  0  0
    1.7195   19.6619   37.6188 H   0  0  0  0  0  0  0  0  0  0  0  0
   -1.3549   18.7705   41.4073 H   0  0  0  0  0  0  0  0  0  0  0  0
    4.2792   18.8368   37.0904 H   0  0  0  0  0  0  0  0  0  0  0  0
    4.2167   19.7120   38.5834 H   0  0  0  0  0  0  0  0  0  0  0  0
   -0.8632   20.2088   43.6950 H   0  0  0  0  0  0  0  0  0  0  0  0
    0.0646   20.8643   42.3035 H   0  0  0  0  0  0  0  0  0  0  0  0
   -1.7039   20.5874   42.1535 H   0  0  0  0  0  0  0  0  0  0  0  0
  1  2  2  0
  1 15  1  0
  2 12  1  0
  3  8  1  0
  3 17  1  0
  3  9  1  0
  6 14  1  0
  6  4  1  0
  9  2  1  0
 10 11  2  0
 11  7  1  0
 11 13  1  0
 12 16  1  0
 12 14  1  0
 13  8  1  0
 14  5  1  0
 15  6  2  0
 17  1  1  0
  3 18  1  1
  4 19  1  0
  4 20  1  0
  5 21  1  0
  5 22  1  0
  5 23  1  0
  8 24  1  0
  8 25  1  0
 12 26  1  6
 13 27  1  0
 13 28  1  0
 16 29  1  0
 16 30  1  0
 16 31  1  0
M  CHG  1   7  -1
M  END
>  <mol_id>  (14) 
2026-08-23-6tgu-s0-n100-prep-0014

>  <rmsd_to_ref>  (14) 


$$$$

     RDKit          3D

 44 47  0  0  0  0  0  0  0  0999 V2000
   -0.8261   18.1933   45.9821 C   0  0  2  0  0  0  0  0  0  0  0  0
    1.2617   18.3534   41.3380 C   0  0  0  0  0  0  0  0  0  0  0  0
    0.3339   15.9632   42.1290 S   0  0  0  0  0  0  0  0  0  0  0  0
   -0.1045   18.1803   43.5500 C   0  0  0  0  0  0  0  0  0  0  0  0
    3.2363   18.4196   38.6161 C   0  0  2  0  0  0  0  0  0  0  0  0
    1.6192   17.2996   40.2874 C   0  0  0  0  0  0  0  0  0  0  0  0
    2.0754   20.2505   39.9831 C   0  0  0  0  0  0  0  0  0  0  0  0
    1.5903   19.7326   41.0233 C   0  0  0  0  0  0  0  0  0  0  0  0
    3.8427   19.0246   36.1869 C   0  0  0  0  0  0  0  0  0  0  0  0
    3.5445   20.4512   36.3282 C   0  0  0  0  0  0  0  0  0  0  0  0
    3.4840   18.1059   37.1031 C   0  0  0  0  0  0  0  0  0  0  0  0
    0.1548   19.4057   43.7292 N   0  0  0  0  0  0  0  0  0  0  0  0
    1.0242   15.9777   40.6345 C   0  0  0  0  0  0  0  0  0  0  0  0
   -0.8825   17.4663   44.6332 C   0  0  0  0  0  0  0  0  0  0  0  0
    2.3634   17.4102   39.0984 C   0  0  0  0  0  0  0  0  0  0  0  0
   -1.9180   17.9890   46.8452 O   0  0  0  0  0  0  0  0  0  0  0  0
    3.0597   20.8695   37.7542 C   0  0  0  0  0  0  0  0  0  0  0  0
    0.4797   17.5409   42.3500 C   0  0  0  0  0  0  0  0  0  0  0  0
    0.0061   21.4892   44.5609 O   0  0  0  0  0  0  0  0  0  0  0  0
    2.7359   19.7738   38.7413 C   0  0  1  0  0  0  0  0  0  0  0  0
   -0.8486   19.6826   45.6995 N   0  0  0  0  0  0  0  0  0  0  0  0
   -0.2292   20.1416   44.6729 C   0  0  0  0  0  0  0  0  0  0  0  0
    3.6017   21.3052   35.4777 O   0  0  0  0  0  0  0  0  0  0  0  0
    4.2861   18.5643   39.8023 C   0  0  0  0  0  0  0  0  0  0  0  0
    0.0747   17.7981   46.4745 H   0  0  0  0  0  0  0  0  0  0  0  0
    1.9863   21.3468   39.9983 H   0  0  0  0  0  0  0  0  0  0  0  0
    1.3792   20.4474   41.8323 H   0  0  0  0  0  0  0  0  0  0  0  0
    3.3749   18.7094   35.2426 H   0  0  0  0  0  0  0  0  0  0  0  0
    4.9382   19.0181   36.2866 H   0  0  0  0  0  0  0  0  0  0  0  0
    2.5448   17.6688   36.7330 H   0  0  0  0  0  0  0  0  0  0  0  0
    4.4043   17.5064   37.1650 H   0  0  0  0  0  0  0  0  0  0  0  0
    1.0443   15.1057   39.9643 H   0  0  0  0  0  0  0  0  0  0  0  0
   -1.9338   17.3900   44.3187 H   0  0  0  0  0  0  0  0  0  0  0  0
   -0.4251   16.4755   44.7714 H   0  0  0  0  0  0  0  0  0  0  0  0
    1.6025   17.3273   38.3084 H   0  0  0  0  0  0  0  0  0  0  0  0
    3.1469   16.6890   39.3741 H   0  0  0  0  0  0  0  0  0  0  0  0
   -1.6112   18.0464   47.7847 H   0  0  0  0  0  0  0  0  0  0  0  0
    3.8517   21.4887   38.2006 H   0  0  0  0  0  0  0  0  0  0  0  0
    2.0990   21.3764   37.5806 H   0  0  0  0  0  0  0  0  0  0  0  0
    2.0596   19.1146   38.1771 H   0  0  0  0  0  0  0  0  0  0  0  0
   -1.3572   20.3218   46.3269 H   0  0  0  0  0  0  0  0  0  0  0  0
    3.7615   18.4949   40.7666 H   0  0  0  0  0  0  0  0  0  0  0  0
    5.0321   17.7590   39.7320 H   0  0  0  0  0  0  0  0  0  0  0  0
    4.7906   19.5389   39.7286 H   0  0  0  0  0  0  0  0  0  0  0  0
  1 16  1  0
  2 18  2  0
  3 18  1  0
  4 12  2  0
  4 14  1  0
  5 20  1  0
  5 15  1  0
  5 24  1  1
  6 13  2  0
  6  2  1  0
  7  8  2  0
  8  2  1  0
  9 10  1  0
  9 11  1  0
 10 17  1  0
 11  5  1  0
 12 22  1  0
 13  3  1  0
 14  1  1  0
 15  6  1  0
 18  4  1  0
 19 22  2  0
 20 17  1  0
 20  7  1  0
 21  1  1  0
 22 21  1  0
 23 10  2  0
  1 25  1  1
  7 26  1  0
  8 27  1  0
  9 28  1  0
  9 29  1  0
 11 30  1  0
 11 31  1  0
 13 32  1  0
 14 33  1  0
 14 34  1  0
 15 35  1  0
 15 36  1  0
 16 37  1  0
 17 38  1  0
 17 39  1  0
 20 40  1  6
 21 41  1  0
 24 42  1  0
 24 43  1  0
 24 44  1  0
M  END
>  <mol_id>  (15) 
2026-08-23-6tgu-s0-n100-prep-0015

>  <rmsd_to_ref>  (15) 


$$$$

     RDKit          3D

 49 49  0  0  0  0  0  0  0  0999 V2000
    1.8280   21.0840   39.5400 F   0  0  0  0  0  0  0  0  0  0  0  0
    1.1660   15.7340   42.2150 C   0  0  0  0  0  0  0  0  0  0  0  0
    3.0280   20.4800   37.0190 C   0  0  0  0  0  0  0  0  0  0  0  0
   -0.9210   19.4790   44.6600 O   0  0  0  0  0  0  0  0  0  0  0  0
   -0.0760   18.2200   46.2680 C   0  0  0  0  0  0  0  0  0  0  0  0
    3.1250   18.5290   38.5040 C   0  0  0  0  0  0  0  0  0  0  0  0
   -0.0610   20.6910   42.8100 C   0  0  0  0  0  0  0  0  0  0  0  0
   -1.2230   18.2130   45.3020 C   0  0  0  0  0  0  0  0  0  0  0  0
    0.6160   18.9150   41.3280 C   0  0  0  0  0  0  0  0  0  0  0  0
   -0.2190   19.5360   43.5610 C   0  0  2  0  0  0  0  0  0  0  0  0
   -0.2870   14.6830   44.1170 S   0  0  0  0  0  0  0  0  0  0  0  0
   -0.0550   18.2590   42.3760 C   0  0  2  0  0  0  0  0  0  0  0  0
    2.2640   13.6460   41.4440 C   0  0  0  0  0  0  0  0  0  0  0  0
    2.3310   15.3040   40.9950 S   0  0  0  0  0  0  0  0  0  0  0  0
   -0.2810   13.1210   44.6640 C   0  0  0  0  0  0  0  0  0  0  0  0
    0.7200   17.0490   42.6040 N   0  0  0  0  0  0  0  0  0  0  0  0
    1.9660   20.1290   39.1490 N   0  0  0  0  0  0  0  0  0  0  0  0
    3.7060   20.4020   36.1740 O   0  0  0  0  0  0  0  0  0  0  0  0
    2.4040   21.5200   36.7760 O   0  0  0  0  0  0  0  0  0  0  0  0
    3.1000   17.7080   39.2780 O   0  0  0  0  0  0  0  0  0  0  0  0
    1.4860   13.4320   42.4140 N   0  0  0  0  0  0  0  0  0  0  0  0
    2.7670   19.7050   38.1870 C   0  0  1  0  0  0  0  0  0  0  0  0
    0.5170   20.3810   41.5770 C   0  0  0  0  0  0  0  0  0  0  0  0
    3.7600   17.6710   37.3290 C   0  0  0  0  0  0  0  0  0  0  0  0
    3.6760   17.6020   36.3510 N   0  0  0  0  0  0  0  0  0  0  0  0
    0.8490   14.6560   42.8540 C   0  0  0  0  0  0  0  0  0  0  0  0
    4.6560   17.0140   37.8100 O   0  0  0  0  0  0  0  0  0  0  0  0
   -0.4636   18.2176   47.2974 H   0  0  0  0  0  0  0  0  0  0  0  0
    0.5440   17.3256   46.1076 H   0  0  0  0  0  0  0  0  0  0  0  0
    0.5330   19.1219   46.1076 H   0  0  0  0  0  0  0  0  0  0  0  0
   -1.0441   21.1563   42.6453 H   0  0  0  0  0  0  0  0  0  0  0  0
    0.5945   21.3885   43.3520 H   0  0  0  0  0  0  0  0  0  0  0  0
   -2.1996   18.2202   45.8082 H   0  0  0  0  0  0  0  0  0  0  0  0
   -1.3076   17.3353   44.6444 H   0  0  0  0  0  0  0  0  0  0  0  0
    0.1442   18.6653   40.3662 H   0  0  0  0  0  0  0  0  0  0  0  0
    1.6693   18.6005   41.2871 H   0  0  0  0  0  0  0  0  0  0  0  0
    0.5008   19.4064   44.3826 H   0  0  0  0  0  0  0  0  0  0  0  0
   -1.0729   17.8540   42.2772 H   0  0  0  0  0  0  0  0  0  0  0  0
    2.8385   12.8554   40.9392 H   0  0  0  0  0  0  0  0  0  0  0  0
   -0.2810   13.1177   45.7640 H   0  0  0  0  0  0  0  0  0  0  0  0
   -1.1772   12.6001   44.2958 H   0  0  0  0  0  0  0  0  0  0  0  0
    0.6191   12.6070   44.2958 H   0  0  0  0  0  0  0  0  0  0  0  0
    1.1914   17.2183   43.5040 H   0  0  0  0  0  0  0  0  0  0  0  0
    2.2346   19.5615   39.9655 H   0  0  0  0  0  0  0  0  0  0  0  0
    1.8584   19.3015   37.7162 H   0  0  0  0  0  0  0  0  0  0  0  0
    1.5295   20.8099   41.5476 H   0  0  0  0  0  0  0  0  0  0  0  0
   -0.1326   20.8025   40.7958 H   0  0  0  0  0  0  0  0  0  0  0  0
    2.9399   18.1282   35.8589 H   0  0  0  0  0  0  0  0  0  0  0  0
    4.3242   17.0036   35.8194 H   0  0  0  0  0  0  0  0  0  0  0  0
  2 16  1  0
  2 26  2  0
  4  8  1  0
  6 20  2  0
  7 10  1  0
  8  5  1  0
  9 23  1  0
  9 12  1  0
 10  4  1  0
 11 15  1  0
 12 16  1  0
 12 10  1  0
 13 21  2  0
 14 13  1  0
 14  2  1  0
 17  1  1  0
 18  3  2  0
 19  3  1  0
 21 26  1  0
 22  3  1  0
 22  6  1  0
 22 17  1  0
 23  7  1  0
 24 27  2  0
 24  6  1  0
 25 24  1  0
 26 11  1  0
  5 28  1  0
  5 29  1  0
  5 30  1  0
  7 31  1  0
  7 32  1  0
  8 33  1  0
  8 34  1  0
  9 35  1  0
  9 36  1  0
 10 37  1  1
 12 38  1  6
 13 39  1  0
 15 40  1  0
 15 41  1  0
 15 42  1  0
 16 43  1  0
 17 44  1  0
 22 45  1  1
 23 46  1  0
 23 47  1  0
 25 48  1  0
 25 49  1  0
M  CHG  1  19  -1
M  END
>  <mol_id>  (16) 
2026-08-23-6tgu-s0-n100-prep-0016

>  <rmsd_to_ref>  (16) 


$$$$

     RDKit          3D

 64 67  0  0  0  0  0  0  0  0999 V2000
    4.7196   13.6713   36.2811 C   0  0  0  0  0  0  0  0  0  0  0  0
   -1.1835   17.0621   45.3730 O   0  0  0  0  0  0  0  0  0  0  0  0
    4.5747   10.2336   37.2207 O   0  0  0  0  0  0  0  0  0  0  0  0
    3.3557   16.4897   38.0446 C   0  0  0  0  0  0  0  0  0  0  0  0
    4.3225   11.6197   38.4927 O   0  0  0  0  0  0  0  0  0  0  0  0
   -1.9715   20.5223   44.8582 F   0  0  0  0  0  0  0  0  0  0  0  0
    3.2175   20.5092   39.8218 C   0  0  0  0  0  0  0  0  0  0  0  0
    2.5024   20.4823   36.1360 O   0  0  0  0  0  0  0  0  0  0  0  0
    4.9136   12.3579   36.2427 C   0  0  2  0  0  0  0  0  0  0  0  0
   -0.3952   19.8094   43.3381 C   0  0  0  0  0  0  0  0  0  0  0  0
    4.5196   11.6483   37.2854 C   0  0  1  0  0  0  0  0  0  0  0  0
    3.7757   12.6260   39.1419 C   0  0  0  0  0  0  0  0  0  0  0  0
    4.0786   15.6426   37.2655 N   0  0  0  0  0  0  0  0  0  0  0  0
    2.8982   16.1370   39.2741 N   0  0  0  0  0  0  0  0  0  0  0  0
    4.5134    9.8064   36.5015 O   0  0  0  0  0  0  0  0  0  0  0  0
    6.0873   11.8220   34.9493 S   0  0  0  0  0  0  0  0  0  0  0  0
    4.2602   14.3216   37.3983 C   0  0  0  0  0  0  0  0  0  0  0  0
   -1.0081   19.4070   44.6719 C   0  0  0  0  0  0  0  0  0  0  0  0
    1.0080   19.1655   40.4183 C   0  0  1  0  0  0  0  0  0  0  0  0
   -1.3604   20.6151   42.8067 C   0  0  0  0  0  0  0  0  0  0  0  0
    3.4156   19.6406   35.8993 C   0  0  0  0  0  0  0  0  0  0  0  0
   -1.5560   17.9795   44.4123 C   0  0  1  0  0  0  0  0  0  0  0  0
    2.2162   17.3564   39.7633 C   0  0  0  0  0  0  0  0  0  0  0  0
    4.3431   19.8286   35.1335 O   0  0  0  0  0  0  0  0  0  0  0  0
    1.9858   19.6927   39.4286 C   0  0  2  0  0  0  0  0  0  0  0  0
    1.3124   17.6796   40.8954 C   0  0  0  0  0  0  0  0  0  0  0  0
    3.0934   17.9475   37.7205 C   0  0  0  0  0  0  0  0  0  0  0  0
   -1.0305   17.5281   43.1828 O   0  0  0  0  0  0  0  0  0  0  0  0
   -0.0972   19.4207   45.5870 F   0  0  0  0  0  0  0  0  0  0  0  0
    0.5569   20.3415   41.1900 C   0  0  1  0  0  0  0  0  0  0  0  0
    3.9834   13.8055   38.5098 C   0  0  0  0  0  0  0  0  0  0  0  0
    2.4834   18.3617   38.8222 C   0  0  0  0  0  0  0  0  0  0  0  0
    1.1110   20.8259   38.9483 O   0  0  0  0  0  0  0  0  0  0  0  0
   -0.7771   15.7783   45.0365 C   0  0  0  0  0  0  0  0  0  0  0  0
   -1.0356   21.8824   42.4874 O   0  0  0  0  0  0  0  0  0  0  0  0
   -2.2523   20.0375   42.1535 O   0  0  0  0  0  0  0  0  0  0  0  0
    0.6192   19.7552   42.3866 N   0  0  0  0  0  0  0  0  0  0  0  0
    0.8309   21.5183   40.2570 C   0  0  0  0  0  0  0  0  0  0  0  0
    3.5436   18.4405   36.4062 C   0  0  0  0  0  0  0  0  0  0  0  0
    3.9992   13.8959   35.4807 H   0  0  0  0  0  0  0  0  0  0  0  0
    5.7497   14.0506   36.2107 H   0  0  0  0  0  0  0  0  0  0  0  0
    3.1951   20.7087   40.9033 H   0  0  0  0  0  0  0  0  0  0  0  0
    4.1274   19.9437   39.5720 H   0  0  0  0  0  0  0  0  0  0  0  0
    3.2160   21.4626   39.2730 H   0  0  0  0  0  0  0  0  0  0  0  0
    4.1255   11.7276   35.8048 H   0  0  0  0  0  0  0  0  0  0  0  0
    4.1593   12.6401   36.9747 H   0  0  0  0  0  0  0  0  0  0  0  0
    2.6927   12.4512   39.2224 H   0  0  0  0  0  0  0  0  0  0  0  0
    4.2421   12.6846   40.1364 H   0  0  0  0  0  0  0  0  0  0  0  0
    4.5530   16.0765   36.4608 H   0  0  0  0  0  0  0  0  0  0  0  0
    4.2047    8.8850   36.6903 H   0  0  0  0  0  0  0  0  0  0  0  0
    7.3054   11.5593   35.5185 H   0  0  0  0  0  0  0  0  0  0  0  0
    0.0209   18.7731   40.1327 H   0  0  0  0  0  0  0  0  0  0  0  0
   -2.6537   18.0505   44.4207 H   0  0  0  0  0  0  0  0  0  0  0  0
    1.8174   17.6384   41.8717 H   0  0  0  0  0  0  0  0  0  0  0  0
    0.4535   17.0141   41.0670 H   0  0  0  0  0  0  0  0  0  0  0  0
   -0.1567   17.0896   43.3385 H   0  0  0  0  0  0  0  0  0  0  0  0
   -0.2282   21.0281   41.5394 H   0  0  0  0  0  0  0  0  0  0  0  0
    3.8658   14.6151   39.2451 H   0  0  0  0  0  0  0  0  0  0  0  0
   -0.5895   15.2008   45.9537 H   0  0  0  0  0  0  0  0  0  0  0  0
   -1.5658   15.2863   44.4483 H   0  0  0  0  0  0  0  0  0  0  0  0
    0.1461   15.8302   44.4407 H   0  0  0  0  0  0  0  0  0  0  0  0
    1.7007   22.1011   40.5944 H   0  0  0  0  0  0  0  0  0  0  0  0
    0.0055   22.2436   40.2059 H   0  0  0  0  0  0  0  0  0  0  0  0
    4.0537   17.7038   35.7681 H   0  0  0  0  0  0  0  0  0  0  0  0
  1 17  1  0
  4 14  2  0
  5 12  1  0
  9 16  1  0
  9  1  1  0
  9 11  1  0
 10 18  1  0
 11  3  1  0
 11  5  1  0
 13  4  1  0
 14 23  1  0
 15  3  1  0
 17 13  1  0
 17 31  2  0
 18  6  1  0
 18 29  1  0
 19 26  1  0
 19 30  1  0
 20 10  1  0
 21 39  1  0
 21  8  1  0
 22 28  1  0
 22 18  1  0
 22  2  1  0
 23 26  1  0
 24 21  2  0
 25  7  1  1
 25 19  1  0
 27  4  1  0
 27 32  1  0
 30 37  1  0
 31 12  1  0
 32 23  2  0
 32 25  1  0
 33 25  1  0
 33 38  1  0
 34  2  1  0
 35 20  1  0
 36 20  2  0
 37 10  2  3
 38 30  1  0
 39 27  2  3
  1 40  1  0
  1 41  1  0
  7 42  1  0
  7 43  1  0
  7 44  1  0
  9 45  1  6
 11 46  1  6
 12 47  1  0
 12 48  1  0
 13 49  1  0
 15 50  1  0
 16 51  1  0
 19 52  1  6
 22 53  1  6
 26 54  1  0
 26 55  1  0
 28 56  1  0
 30 57  1  6
 31 58  1  0
 34 59  1  0
 34 60  1  0
 34 61  1  0
 38 62  1  0
 38 63  1  0
 39 64  1  0
M  CHG  2   8  -1  35  -1
M  END
>  <mol_id>  (17) 
2026-08-23-6tgu-s0-n100-prep-0017

>  <rmsd_to_ref>  (17) 


$$$$

     RDKit          3D

 31 34  0  0  0  0  0  0  0  0999 V2000
   -1.3379   19.8878   43.0714 C   0  0  0  0  0  0  0  0  0  0  0  0
    0.9413   20.5528   40.4919 C   0  0  0  0  0  0  0  0  0  0  0  0
    4.0537   16.9868   37.5450 N   0  0  0  0  0  0  0  0  0  0  0  0
    0.3723   17.6986   42.6350 C   0  0  0  0  0  0  0  0  0  0  0  0
   -0.0022   20.9858   41.2809 N   0  0  0  0  0  0  0  0  0  0  0  0
    3.3395   19.1483   36.8143 N   0  0  0  0  0  0  0  0  0  0  0  0
    0.5314   18.8856   41.8571 C   0  0  0  0  0  0  0  0  0  0  0  0
    1.3321   19.2520   40.7379 C   0  0  0  0  0  0  0  0  0  0  0  0
    2.2282   18.3775   40.0182 C   0  0  0  0  0  0  0  0  0  0  0  0
    2.1756   20.8816   37.5406 O   0  0  0  0  0  0  0  0  0  0  0  0
    3.2698   18.1382   37.6393 C   0  0  1  0  0  0  0  0  0  0  0  0
    2.6374   18.5057   38.7251 C   0  0  2  0  0  0  0  0  0  0  0  0
   -0.5670   17.6480   43.6333 C   0  0  0  0  0  0  0  0  0  0  0  0
    2.6253   19.6463   37.8699 C   0  0  2  0  0  0  0  0  0  0  0  0
   -0.3472   19.9534   42.0971 C   0  0  0  0  0  0  0  0  0  0  0  0
   -1.4407   18.7386   43.8287 C   0  0  0  0  0  0  0  0  0  0  0  0
   -2.0236   20.7323   43.2345 H   0  0  0  0  0  0  0  0  0  0  0  0
    1.3873   21.1707   39.6986 H   0  0  0  0  0  0  0  0  0  0  0  0
    4.2649   16.6367   38.4904 H   0  0  0  0  0  0  0  0  0  0  0  0
    3.5416   16.2650   37.0181 H   0  0  0  0  0  0  0  0  0  0  0  0
    4.9330   17.2091   37.0569 H   0  0  0  0  0  0  0  0  0  0  0  0
    1.0051   16.8219   42.4328 H   0  0  0  0  0  0  0  0  0  0  0  0
    4.2722   19.5529   36.6490 H   0  0  0  0  0  0  0  0  0  0  0  0
    3.0749   19.1617   35.8189 H   0  0  0  0  0  0  0  0  0  0  0  0
    3.1557   18.3734   40.6096 H   0  0  0  0  0  0  0  0  0  0  0  0
    1.5707   17.5025   39.9091 H   0  0  0  0  0  0  0  0  0  0  0  0
    1.9460   21.3798   38.3648 H   0  0  0  0  0  0  0  0  0  0  0  0
    1.7426   17.9619   38.3881 H   0  0  0  0  0  0  0  0  0  0  0  0
   -0.6388   16.7605   44.2792 H   0  0  0  0  0  0  0  0  0  0  0  0
   -1.3232   19.0467   44.8782 H   0  0  0  0  0  0  0  0  0  0  0  0
   -2.4087   18.3278   43.5061 H   0  0  0  0  0  0  0  0  0  0  0  0
  1 16  1  0
  2  8  1  0
  2  5  2  0
  4 13  2  0
  5 15  1  0
  6 11  1  0
  6 14  1  0
  7 15  1  0
  7  4  1  0
  8  7  2  0
  9  8  1  0
 11  3  1  1
 11 14  1  0
 11 12  1  0
 12  9  1  0
 13 16  1  0
 14 10  1  6
 14 12  1  0
 15  1  2  0
  1 17  1  0
  2 18  1  0
  3 19  1  0
  3 20  1  0
  3 21  1  0
  4 22  1  0
  6 23  1  0
  6 24  1  0
  9 25  1  0
  9 26  1  0
 10 27  1  0
 12 28  1  6
 13 29  1  0
 16 30  1  0
 16 31  1  0
M  CHG  2   3   1   6   1
M  END
>  <mol_id>  (18) 
2026-08-23-6tgu-s0-n100-prep-0018

>  <rmsd_to_ref>  (18) 


$$$$

     RDKit          3D

 32 34  0  0  0  0  0  0  0  0999 V2000
    3.8089   19.9041   36.5909 C   0  0  0  0  0  0  0  0  0  0  0  0
    1.1915   13.1740   42.6605 C   0  0  0  0  0  0  0  0  0  0  0  0
    2.9106   20.2583   37.6810 C   0  0  1  0  0  0  0  0  0  0  0  0
    1.3328   18.7123   41.0145 C   0  0  0  0  0  0  0  0  0  0  0  0
    0.6045   15.6780   43.0449 O   0  0  0  0  0  0  0  0  0  0  0  0
    1.1275   14.5160   42.4351 C   0  0  0  0  0  0  0  0  0  0  0  0
    0.7099   17.0440   42.4071 C   0  0  0  0  0  0  0  0  0  0  0  0
    1.2592   20.8374   40.1372 C   0  0  0  0  0  0  0  0  0  0  0  0
    0.5892   19.5216   41.7254 N   0  0  0  0  0  0  0  0  0  0  0  0
    3.2653   17.9778   38.4810 C   0  0  0  0  0  0  0  0  0  0  0  0
    1.4110   17.3592   41.3485 N   0  0  0  0  0  0  0  0  0  0  0  0
    4.0855   17.6897   37.4228 C   0  0  0  0  0  0  0  0  0  0  0  0
    4.3272   18.6209   36.4799 N   0  0  0  0  0  0  0  0  0  0  0  0
    2.3062   21.4973   37.6131 Cl  0  0  0  0  0  0  0  0  0  0  0  0
   -0.8207   17.4683   44.4271 C   0  0  0  0  0  0  0  0  0  0  0  0
   -0.7323   20.0146   43.4913 O   0  0  0  0  0  0  0  0  0  0  0  0
    1.7863   19.5763   39.8532 C   0  0  0  0  0  0  0  0  0  0  0  0
    2.6841   19.2526   38.6779 C   0  0  0  0  0  0  0  0  0  0  0  0
    4.0365   20.7637   35.7369 O   0  0  0  0  0  0  0  0  0  0  0  0
    0.5472   20.8275   41.2628 N   0  0  0  0  0  0  0  0  0  0  0  0
   -0.1421   19.1834   42.8531 C   0  0  0  0  0  0  0  0  0  0  0  0
   -0.0728   17.9163   43.2084 N   0  0  0  0  0  0  0  0  0  0  0  0
    1.7047   12.5193   41.9408 H   0  0  0  0  0  0  0  0  0  0  0  0
    0.7299   12.7452   43.5622 H   0  0  0  0  0  0  0  0  0  0  0  0
    3.7538   20.6999   38.2325 H   0  0  0  0  0  0  0  0  0  0  0  0
    1.6369   14.7720   41.4943 H   0  0  0  0  0  0  0  0  0  0  0  0
    1.4128   21.7279   39.5099 H   0  0  0  0  0  0  0  0  0  0  0  0
    3.0489   17.1831   39.2101 H   0  0  0  0  0  0  0  0  0  0  0  0
    4.5483   16.6949   37.3426 H   0  0  0  0  0  0  0  0  0  0  0  0
   -0.3022   17.8278   45.3282 H   0  0  0  0  0  0  0  0  0  0  0  0
   -1.8410   17.8789   44.4027 H   0  0  0  0  0  0  0  0  0  0  0  0
   -0.8680   16.3695   44.4450 H   0  0  0  0  0  0  0  0  0  0  0  0
  1  3  1  0
  3 14  1  0
  3 18  1  0
  4 11  1  0
  4  9  1  0
  6  2  2  3
  6  5  1  0
  7  5  1  0
  7 22  1  0
  8 20  2  0
  9 21  1  0
 10 18  2  0
 11  7  2  0
 12 10  1  0
 13  1  1  0
 13 12  2  0
 17  8  1  0
 17  4  2  0
 18 17  1  0
 19  1  2  0
 20  9  1  0
 21 22  1  0
 21 16  2  0
 22 15  1  0
  2 23  1  0
  2 24  1  0
  3 25  1  1
  6 26  1  0
  8 27  1  0
 10 28  1  0
 12 29  1  0
 15 30  1  0
 15 31  1  0
 15 32  1  0
M  END
>  <mol_id>  (19) 
2026-08-23-6tgu-s0-n100-prep-0019

>  <rmsd_to_ref>  (19) 


$$$$

     RDKit          3D

 38 41  0  0  0  0  0  0  0  0999 V2000
    1.8048   15.3043   39.8479 C   0  0  2  0  0  0  0  0  0  0  0  0
    0.2814   20.1490   41.4715 C   0  0  0  0  0  0  0  0  0  0  0  0
   -0.8518   20.0001   43.2143 N   0  0  0  0  0  0  0  0  0  0  0  0
    0.1182   18.8277   41.6944 C   0  0  0  0  0  0  0  0  0  0  0  0
    2.0012   18.8254   38.6032 C   0  0  0  0  0  0  0  0  0  0  0  0
    1.0295   15.4475   41.2076 C   0  0  0  0  0  0  0  0  0  0  0  0
    2.1608   14.0295   39.5245 N   0  0  0  0  0  0  0  0  0  0  0  0
    3.1532   17.2410   37.2335 C   0  0  0  0  0  0  0  0  0  0  0  0
    3.2674   19.5867   36.7222 C   0  0  0  0  0  0  0  0  0  0  0  0
    3.5949   18.3024   36.4378 C   0  0  0  0  0  0  0  0  0  0  0  0
    1.0345   20.3787   40.2870 C   0  0  0  0  0  0  0  0  0  0  0  0
   -0.9730   17.4696   43.6398 C   0  0  0  0  0  0  0  0  0  0  0  0
    2.4728   19.8364   37.7522 C   0  0  0  0  0  0  0  0  0  0  0  0
    0.8071   18.0325   40.7267 C   0  0  0  0  0  0  0  0  0  0  0  0
    0.6191   16.7601   41.1114 N   0  0  0  0  0  0  0  0  0  0  0  0
    2.0890   16.3597   39.1771 N   0  0  0  0  0  0  0  0  0  0  0  0
   -0.6192   18.7250   42.8847 C   0  0  0  0  0  0  0  0  0  0  0  0
    2.3784   17.4844   38.3859 C   0  0  0  0  0  0  0  0  0  0  0  0
    3.7372   20.5700   36.0029 O   0  0  0  0  0  0  0  0  0  0  0  0
    1.3023   19.0943   39.8493 C   0  0  0  0  0  0  0  0  0  0  0  0
   -0.3819   20.8806   42.4024 N   0  0  0  0  0  0  0  0  0  0  0  0
    0.8502   15.1723   39.3175 H   0  0  0  0  0  0  0  0  0  0  0  0
    0.1759   14.7561   41.2657 H   0  0  0  0  0  0  0  0  0  0  0  0
    1.6199   15.2110   42.1051 H   0  0  0  0  0  0  0  0  0  0  0  0
    2.2460   13.4683   40.3839 H   0  0  0  0  0  0  0  0  0  0  0  0
    1.4410   13.6163   38.9145 H   0  0  0  0  0  0  0  0  0  0  0  0
    3.0645   14.0403   39.0304 H   0  0  0  0  0  0  0  0  0  0  0  0
    3.4123   16.2080   36.9582 H   0  0  0  0  0  0  0  0  0  0  0  0
    4.2231   18.0903   35.5600 H   0  0  0  0  0  0  0  0  0  0  0  0
    1.3297   21.3364   39.8335 H   0  0  0  0  0  0  0  0  0  0  0  0
   -0.9857   17.6822   44.7190 H   0  0  0  0  0  0  0  0  0  0  0  0
   -1.9665   17.1191   43.3233 H   0  0  0  0  0  0  0  0  0  0  0  0
   -0.2250   16.6913   43.4281 H   0  0  0  0  0  0  0  0  0  0  0  0
    2.1711   20.8760   37.9479 H   0  0  0  0  0  0  0  0  0  0  0  0
    0.4532   16.9342   42.1129 H   0  0  0  0  0  0  0  0  0  0  0  0
    0.2723   16.5536   40.1638 H   0  0  0  0  0  0  0  0  0  0  0  0
    2.4221   16.8396   40.0255 H   0  0  0  0  0  0  0  0  0  0  0  0
    4.3309   20.3810   35.2335 H   0  0  0  0  0  0  0  0  0  0  0  0
  1  7  1  0
  1  6  1  0
  2  4  1  0
  2 21  1  0
  4 17  2  0
  5 20  1  0
  8 18  1  0
  9 13  2  0
 10  9  1  0
 10  8  2  0
 11  2  2  0
 13  5  1  0
 14 15  1  0
 14  4  1  0
 15  6  1  0
 16  1  1  0
 17  3  1  0
 17 12  1  0
 18  5  2  0
 18 16  1  0
 19  9  1  0
 20 11  1  0
 20 14  2  0
 21  3  2  0
  1 22  1  6
  6 23  1  0
  6 24  1  0
  7 25  1  0
  7 26  1  0
  7 27  1  0
  8 28  1  0
 10 29  1  0
 11 30  1  0
 12 31  1  0
 12 32  1  0
 12 33  1  0
 13 34  1  0
 15 35  1  0
 15 36  1  0
 16 37  1  0
 19 38  1  0
M  CHG  2   7   1  15   1
M  END
>  <mol_id>  (20) 
2026-08-23-6tgu-s0-n100-prep-0020

>  <rmsd_to_ref>  (20) 


$$$$

     RDKit          3D

 40 44  0  0  0  0  0  0  0  0999 V2000
    2.4210   15.5520   40.7220 C   0  0  0  0  0  0  0  0  0  0  0  0
    2.2420   19.1490   39.2410 C   0  0  0  0  0  0  0  0  0  0  0  0
   -0.5440   16.8240   44.7240 C   0  0  0  0  0  0  0  0  0  0  0  0
    1.5140   18.8770   40.4450 C   0  0  0  0  0  0  0  0  0  0  0  0
   -1.3160   20.4070   43.9790 N   0  0  0  0  0  0  0  0  0  0  0  0
    1.6760   13.3820   42.3060 C   0  0  0  0  0  0  0  0  0  0  0  0
   -1.1450   19.1830   44.5630 N   0  0  0  0  0  0  0  0  0  0  0  0
    3.8660   20.5970   35.7100 O   0  0  0  0  0  0  0  0  0  0  0  0
    1.2040   21.1150   40.0750 C   0  0  0  0  0  0  0  0  0  0  0  0
    0.9350   17.2900   41.9840 C   0  0  0  0  0  0  0  0  0  0  0  0
    3.2600   20.1610   36.8370 C   0  0  0  0  0  0  0  0  0  0  0  0
    0.1850   18.3380   42.7360 C   0  0  0  0  0  0  0  0  0  0  0  0
   -0.4830   18.1610   44.0030 C   0  0  0  0  0  0  0  0  0  0  0  0
    2.6030   13.2410   41.2460 C   0  0  0  0  0  0  0  0  0  0  0  0
    1.1320   14.6240   42.6080 C   0  0  0  0  0  0  0  0  0  0  0  0
    2.0410   20.5020   38.9270 C   0  0  0  0  0  0  0  0  0  0  0  0
    0.9660   19.9110   40.9440 C   0  0  0  0  0  0  0  0  0  0  0  0
    2.9190   14.2830   40.4360 C   0  0  0  0  0  0  0  0  0  0  0  0
    2.5640   20.9660   37.6730 C   0  0  0  0  0  0  0  0  0  0  0  0
    0.1580   19.6380   42.0930 C   0  0  0  0  0  0  0  0  0  0  0  0
    3.1110   18.3840   38.3890 C   0  0  0  0  0  0  0  0  0  0  0  0
   -0.6310   20.6550   42.8480 C   0  0  0  0  0  0  0  0  0  0  0  0
    1.4360   17.8060   40.8050 N   0  0  0  0  0  0  0  0  0  0  0  0
    1.4930   15.8150   41.7980 C   0  0  0  0  0  0  0  0  0  0  0  0
    3.5530   18.7790   37.2220 C   0  0  0  0  0  0  0  0  0  0  0  0
    2.7505   16.3957   40.0979 H   0  0  0  0  0  0  0  0  0  0  0  0
   -0.5363   16.9929   45.8109 H   0  0  0  0  0  0  0  0  0  0  0  0
   -1.4671   16.2968   44.4414 H   0  0  0  0  0  0  0  0  0  0  0  0
    0.3273   16.2149   44.4414 H   0  0  0  0  0  0  0  0  0  0  0  0
    1.3838   12.5006   42.8958 H   0  0  0  0  0  0  0  0  0  0  0  0
    3.7124   21.5216   35.3914 H   0  0  0  0  0  0  0  0  0  0  0  0
    0.8718   22.1539   40.2174 H   0  0  0  0  0  0  0  0  0  0  0  0
    3.0785   12.2640   41.0746 H   0  0  0  0  0  0  0  0  0  0  0  0
    0.4315   14.7255   43.4500 H   0  0  0  0  0  0  0  0  0  0  0  0
    3.5644   14.1264   39.5591 H   0  0  0  0  0  0  0  0  0  0  0  0
    2.3929   22.0128   37.3815 H   0  0  0  0  0  0  0  0  0  0  0  0
    3.4283   17.3925   38.7443 H   0  0  0  0  0  0  0  0  0  0  0  0
   -0.6542   21.6808   42.4514 H   0  0  0  0  0  0  0  0  0  0  0  0
    1.7976   17.1022   40.1457 H   0  0  0  0  0  0  0  0  0  0  0  0
    4.1179   18.1046   36.5617 H   0  0  0  0  0  0  0  0  0  0  0  0
  1 24  1  0
  2  4  2  0
  4 23  1  0
  4 17  1  0
  5  7  1  0
  6 15  1  0
  8 11  1  0
  9 17  1  0
 10 12  2  0
 11 25  1  0
 11 19  2  0
 12 13  1  0
 13  7  2  0
 13  3  1  0
 14  6  2  0
 16  2  1  0
 16  9  2  0
 17 20  2  0
 18  1  2  0
 18 14  1  0
 19 16  1  0
 20 12  1  0
 20 22  1  0
 21  2  1  0
 22  5  2  0
 23 10  1  0
 24 10  1  0
 24 15  2  0
 25 21  2  0
  1 26  1  0
  3 27  1  0
  3 28  1  0
  3 29  1  0
  6 30  1  0
  8 31  1  0
  9 32  1  0
 14 33  1  0
 15 34  1  0
 18 35  1  0
 19 36  1  0
 21 37  1  0
 22 38  1  0
 23 39  1  0
 25 40  1  0
M  END
>  <mol_id>  (21) 
2026-08-23-6tgu-s0-n100-prep-0021

>  <rmsd_to_ref>  (21) 


$$$$

     RDKit          3D

 57 58  0  0  0  0  0  0  0  0999 V2000
    3.0535   18.3966   37.8908 C   0  0  0  0  0  0  0  0  0  0  0  0
   -1.3957   16.6057   46.1578 C   0  0  2  0  0  0  0  0  0  0  0  0
    1.2706   19.2239   41.0502 C   0  0  0  0  0  0  0  0  0  0  0  0
   -0.9780   14.1268   46.2451 C   0  0  0  0  0  0  0  0  0  0  0  0
    3.6582   17.5971   37.0022 C   0  0  0  0  0  0  0  0  0  0  0  0
    2.8459   19.8498   37.3560 C   0  0  0  0  0  0  0  0  0  0  0  0
   -0.4255   20.6396   42.0118 C   0  0  0  0  0  0  0  0  0  0  0  0
    3.3536   21.2645   35.6009 C   0  0  0  0  0  0  0  0  0  0  0  0
    2.6248   18.1289   39.1326 C   0  0  0  0  0  0  0  0  0  0  0  0
    3.4603   13.6027   39.6316 C   0  0  0  0  0  0  0  0  0  0  0  0
    2.6342   16.6716   39.4021 C   0  0  0  0  0  0  0  0  0  0  0  0
    2.9403   12.4156   39.5894 O   0  0  0  0  0  0  0  0  0  0  0  0
   -0.6116   19.6883   43.0592 C   0  0  0  0  0  0  0  0  0  0  0  0
    4.1917   21.3389   34.6857 O   0  0  0  0  0  0  0  0  0  0  0  0
    2.2195   16.2624   40.4411 O   0  0  0  0  0  0  0  0  0  0  0  0
    3.6141   16.2192   37.2662 C   0  0  0  0  0  0  0  0  0  0  0  0
    2.8108   12.5037   37.0384 O   0  0  0  0  0  0  0  0  0  0  0  0
    0.5444   20.4686   41.0192 C   0  0  0  0  0  0  0  0  0  0  0  0
   -0.7091   15.4089   45.5446 C   0  0  0  0  0  0  0  0  0  0  0  0
    3.5801   13.6177   37.1413 C   0  0  0  0  0  0  0  0  0  0  0  0
    1.1164   18.2529   42.0878 C   0  0  0  0  0  0  0  0  0  0  0  0
    3.0569   15.7179   38.4173 N   0  0  0  0  0  0  0  0  0  0  0  0
    2.0772   20.7561   37.8052 O   0  0  0  0  0  0  0  0  0  0  0  0
    2.2916   21.8252   35.7404 O   0  0  0  0  0  0  0  0  0  0  0  0
    2.9959   14.2617   38.3772 C   0  0  0  0  0  0  0  0  0  0  0  0
   -1.3254   17.5710   45.1202 N   0  0  0  0  0  0  0  0  0  0  0  0
   -1.4620   14.4567   47.4854 O   0  0  0  0  0  0  0  0  0  0  0  0
    3.6285   20.2322   36.4622 O   0  0  0  0  0  0  0  0  0  0  0  0
    0.1267   18.4233   43.0720 C   0  0  0  0  0  0  0  0  0  0  0  0
    2.2368   19.1359   40.0122 N   0  0  0  0  0  0  0  0  0  0  0  0
   -0.5435   18.0338   46.3501 C   0  0  0  0  0  0  0  0  0  0  0  0
   -1.4779   19.9075   43.9100 O   0  0  0  0  0  0  0  0  0  0  0  0
   -2.0842   16.1024   46.8525 H   0  0  0  0  0  0  0  0  0  0  0  0
    0.5511   18.6724   40.4271 H   0  0  0  0  0  0  0  0  0  0  0  0
   -0.0499   13.5442   46.3415 H   0  0  0  0  0  0  0  0  0  0  0  0
   -1.6986   13.5111   45.6868 H   0  0  0  0  0  0  0  0  0  0  0  0
    4.1632   17.9995   36.1117 H   0  0  0  0  0  0  0  0  0  0  0  0
   -1.0645   21.5345   41.9845 H   0  0  0  0  0  0  0  0  0  0  0  0
    3.1022   14.1524   40.5145 H   0  0  0  0  0  0  0  0  0  0  0  0
    4.5574   13.5751   39.7066 H   0  0  0  0  0  0  0  0  0  0  0  0
    2.7866   12.0897   40.5115 H   0  0  0  0  0  0  0  0  0  0  0  0
    4.0381   15.5205   36.5299 H   0  0  0  0  0  0  0  0  0  0  0  0
    2.5796   12.1776   37.9441 H   0  0  0  0  0  0  0  0  0  0  0  0
    0.7416   21.2390   40.2591 H   0  0  0  0  0  0  0  0  0  0  0  0
   -1.0505   15.3114   44.5035 H   0  0  0  0  0  0  0  0  0  0  0  0
    0.3730   15.5909   45.6233 H   0  0  0  0  0  0  0  0  0  0  0  0
    4.6412   13.3638   37.2817 H   0  0  0  0  0  0  0  0  0  0  0  0
    3.5684   14.2596   36.2481 H   0  0  0  0  0  0  0  0  0  0  0  0
    1.7730   17.3708   42.1164 H   0  0  0  0  0  0  0  0  0  0  0  0
    1.9152   14.0708   38.3028 H   0  0  0  0  0  0  0  0  0  0  0  0
   -0.8001   17.3348   44.2662 H   0  0  0  0  0  0  0  0  0  0  0  0
   -2.0689   18.0355   44.5797 H   0  0  0  0  0  0  0  0  0  0  0  0
   -0.9193   14.0083   48.1815 H   0  0  0  0  0  0  0  0  0  0  0  0
   -0.0835   17.6422   43.8175 H   0  0  0  0  0  0  0  0  0  0  0  0
    2.7668   20.0093   39.8817 H   0  0  0  0  0  0  0  0  0  0  0  0
   -0.9214   18.8406   46.9953 H   0  0  0  0  0  0  0  0  0  0  0  0
    0.4799   18.3507   46.5997 H   0  0  0  0  0  0  0  0  0  0  0  0
  1  9  2  0
  2 19  1  0
  2 31  1  0
  3 30  1  0
  3 21  1  0
  4 27  1  0
  5 16  2  0
  5  1  1  0
  6 23  2  0
  6  1  1  0
  7 13  1  0
  8 24  1  0
  8 28  1  0
  9 11  1  0
  9 30  1  0
 11 15  2  0
 12 10  1  0
 13 29  1  0
 13 32  2  0
 14  8  2  0
 16 22  1  0
 17 20  1  0
 18  3  1  0
 18  7  2  0
 19  4  1  0
 20 25  1  0
 21 29  2  0
 22 11  1  0
 25 22  1  0
 25 10  1  0
 26  2  1  0
 26 31  1  0
 28  6  1  0
  2 33  1  1
  3 34  1  0
  4 35  1  0
  4 36  1  0
  5 37  1  0
  7 38  1  0
 10 39  1  0
 10 40  1  0
 12 41  1  0
 16 42  1  0
 17 43  1  0
 18 44  1  0
 19 45  1  0
 19 46  1  0
 20 47  1  0
 20 48  1  0
 21 49  1  0
 25 50  1  0
 26 51  1  0
 26 52  1  0
 27 53  1  0
 29 54  1  0
 30 55  1  0
 31 56  1  0
 31 57  1  0
M  CHG  2  24  -1  26   1
M  END
>  <mol_id>  (22) 
2026-08-23-6tgu-s0-n100-prep-0022

>  <rmsd_to_ref>  (22) 


$$$$

     RDKit          3D

 26 26  0  0  0  0  0  0  0  0999 V2000
    3.6570   20.0120   38.7910 C   0  0  0  0  0  0  0  0  0  0  0  0
    3.7450   18.9570   36.7490 O   0  0  0  0  0  0  0  0  0  0  0  0
    0.4290   18.0860   43.2230 C   0  0  0  0  0  0  0  0  0  0  0  0
    2.5730   18.3520   40.1750 C   0  0  0  0  0  0  0  0  0  0  0  0
    0.9980   20.0810   41.5060 C   0  0  0  0  0  0  0  0  0  0  0  0
    1.5190   17.8560   41.0700 C   0  0  0  0  0  0  0  0  0  0  0  0
    2.6170   19.6000   39.8070 C   0  0  0  0  0  0  0  0  0  0  0  0
    0.9990   18.7570   41.9390 C   0  0  0  0  0  0  0  0  0  0  0  0
    2.4650   20.6290   36.9000 O   0  0  0  0  0  0  0  0  0  0  0  0
   -1.0520   18.3730   43.4950 C   0  0  0  0  0  0  0  0  0  0  0  0
    1.7620   20.4610   40.4290 C   0  0  0  0  0  0  0  0  0  0  0  0
    3.2400   19.8550   37.4100 C   0  0  0  0  0  0  0  0  0  0  0  0
   -1.4640   17.9110   44.7980 N   0  0  0  0  0  0  0  0  0  0  0  0
    3.9011   21.0714   38.9585 H   0  0  0  0  0  0  0  0  0  0  0  0
    4.5198   19.3454   38.9365 H   0  0  0  0  0  0  0  0  0  0  0  0
    1.0111   18.4457   44.0843 H   0  0  0  0  0  0  0  0  0  0  0  0
    0.5104   17.0001   43.0671 H   0  0  0  0  0  0  0  0  0  0  0  0
    3.3407   17.6547   39.8083 H   0  0  0  0  0  0  0  0  0  0  0  0
    0.3818   20.8269   42.0295 H   0  0  0  0  0  0  0  0  0  0  0  0
    1.1715   16.8128   41.0369 H   0  0  0  0  0  0  0  0  0  0  0  0
   -1.2199   19.4584   43.4341 H   0  0  0  0  0  0  0  0  0  0  0  0
   -1.6453   17.8344   42.7415 H   0  0  0  0  0  0  0  0  0  0  0  0
    1.6813   21.4929   40.0566 H   0  0  0  0  0  0  0  0  0  0  0  0
   -0.9783   18.4557   45.5248 H   0  0  0  0  0  0  0  0  0  0  0  0
   -2.4816   18.0335   44.8998 H   0  0  0  0  0  0  0  0  0  0  0  0
   -1.2263   16.9140   44.8998 H   0  0  0  0  0  0  0  0  0  0  0  0
  1  7  1  0
  2 12  2  0
  3 10  1  0
  4  6  2  0
  5  8  2  0
  6  8  1  0
  7  4  1  0
  7 11  2  0
  8  3  1  0
  9 12  1  0
 10 13  1  0
 11  5  1  0
 12  1  1  0
  1 14  1  0
  1 15  1  0
  3 16  1  0
  3 17  1  0
  4 18  1  0
  5 19  1  0
  6 20  1  0
 10 21  1  0
 10 22  1  0
 11 23  1  0
 13 24  1  0
 13 25  1  0
 13 26  1  0
M  CHG  2   9  -1  13   1
M  END
>  <mol_id>  (23) 
2026-08-23-6tgu-s0-n100-prep-0023

>  <rmsd_to_ref>  (23) 


$$$$

     RDKit          3D

 38 40  0  0  0  0  0  0  0  0999 V2000
    2.5890   15.4937   35.9944 C   0  0  0  0  0  0  0  0  0  0  0  0
    2.0589   16.3521   38.0745 O   0  0  0  0  0  0  0  0  0  0  0  0
    0.3961   18.5423   42.8948 C   0  0  1  0  0  0  0  0  0  0  0  0
    3.6519   19.6270   36.7627 O   0  0  0  0  0  0  0  0  0  0  0  0
   -0.7793   17.2193   44.1682 C   0  0  0  0  0  0  0  0  0  0  0  0
    1.7266   20.4322   42.1854 C   0  0  0  0  0  0  0  0  0  0  0  0
    3.0373   19.7335   37.7974 C   0  0  0  0  0  0  0  0  0  0  0  0
    1.5454   18.4974   40.7650 C   0  0  0  0  0  0  0  0  0  0  0  0
    1.2573   19.1728   41.9117 C   0  0  0  0  0  0  0  0  0  0  0  0
   -0.1824   17.3264   42.9085 N   0  0  0  0  0  0  0  0  0  0  0  0
   -1.0873   18.6665   46.1913 N   0  0  0  0  0  0  0  0  0  0  0  0
   -0.6156   18.4261   44.8904 C   0  0  0  0  0  0  0  0  0  0  0  0
    2.8915   21.1692   38.2539 C   0  0  0  0  0  0  0  0  0  0  0  0
    2.5283   16.4642   36.8971 C   0  0  0  0  0  0  0  0  0  0  0  0
    0.1839   19.2853   44.1124 C   0  0  0  0  0  0  0  0  0  0  0  0
    3.0548   17.4064   36.3439 N   0  0  0  0  0  0  0  0  0  0  0  0
    1.3577   21.0543   43.3946 C   0  0  0  0  0  0  0  0  0  0  0  0
    2.1334   19.0413   39.7771 N   0  0  0  0  0  0  0  0  0  0  0  0
    1.2612   17.2315   40.2498 C   0  0  0  0  0  0  0  0  0  0  0  0
    1.9261   17.2955   38.9943 C   0  0  0  0  0  0  0  0  0  0  0  0
    0.6384   20.4638   44.3335 N   0  0  0  0  0  0  0  0  0  0  0  0
    2.4343   18.6478   38.7431 C   0  0  0  0  0  0  0  0  0  0  0  0
    2.7390   14.5295   36.5021 H   0  0  0  0  0  0  0  0  0  0  0  0
    1.6495   15.4650   35.4230 H   0  0  0  0  0  0  0  0  0  0  0  0
    3.4290   15.6820   35.3095 H   0  0  0  0  0  0  0  0  0  0  0  0
   -0.4872   18.9568   42.3868 H   0  0  0  0  0  0  0  0  0  0  0  0
   -1.3007   16.3266   44.5439 H   0  0  0  0  0  0  0  0  0  0  0  0
    2.3826   20.9499   41.4701 H   0  0  0  0  0  0  0  0  0  0  0  0
   -0.4985   18.1612   46.8688 H   0  0  0  0  0  0  0  0  0  0  0  0
   -1.0489   19.6765   46.3893 H   0  0  0  0  0  0  0  0  0  0  0  0
   -2.0603   18.3379   46.2699 H   0  0  0  0  0  0  0  0  0  0  0  0
    2.9560   21.2134   39.3511 H   0  0  0  0  0  0  0  0  0  0  0  0
    3.6959   21.7772   37.8144 H   0  0  0  0  0  0  0  0  0  0  0  0
    1.9164   21.5604   37.9279 H   0  0  0  0  0  0  0  0  0  0  0  0
    3.1414   18.3084   36.8335 H   0  0  0  0  0  0  0  0  0  0  0  0
    1.6867   22.0896   43.5672 H   0  0  0  0  0  0  0  0  0  0  0  0
    1.6740   16.4344   40.8856 H   0  0  0  0  0  0  0  0  0  0  0  0
    0.1882   16.9986   40.1840 H   0  0  0  0  0  0  0  0  0  0  0  0
  1 14  1  0
  2 20  1  0
  3  9  1  0
  3 10  1  0
  3 15  1  0
  4  7  2  0
  5 12  1  0
  6 17  1  0
  7 13  1  0
  7 22  1  0
  8  9  1  0
  9  6  2  0
 10  5  2  0
 12 11  1  0
 14  2  1  0
 15 21  1  0
 15 12  2  0
 16 14  2  3
 17 21  2  0
 18  8  2  0
 19  8  1  0
 20 19  1  0
 22 20  2  0
 22 18  1  0
  1 23  1  0
  1 24  1  0
  1 25  1  0
  3 26  1  6
  5 27  1  0
  6 28  1  0
 11 29  1  0
 11 30  1  0
 11 31  1  0
 13 32  1  0
 13 33  1  0
 13 34  1  0
 16 35  1  0
 17 36  1  0
 19 37  1  0
 19 38  1  0
M  CHG  1  11   1
M  END
>  <mol_id>  (24) 
2026-08-23-6tgu-s0-n100-prep-0024

>  <rmsd_to_ref>  (24) 


$$$$

     RDKit          3D

 25 27  0  0  0  0  0  0  0  0999 V2000
    1.9930   16.0787   40.4527 F   0  0  0  0  0  0  0  0  0  0  0  0
   -0.4587   17.0534   43.3637 C   0  0  0  0  0  0  0  0  0  0  0  0
    2.2489   17.1944   39.8297 C   0  0  0  0  0  0  0  0  0  0  0  0
    3.0859   20.5677   37.4633 N   0  0  0  0  0  0  0  0  0  0  0  0
    1.7395   18.3784   40.3991 C   0  0  0  0  0  0  0  0  0  0  0  0
    2.7289   19.6159   38.3767 C   0  0  0  0  0  0  0  0  0  0  0  0
    0.2084   19.4156   42.0500 C   0  0  0  0  0  0  0  0  0  0  0  0
    2.0700   19.6462   39.6466 C   0  0  0  0  0  0  0  0  0  0  0  0
    0.7870   18.2344   41.6150 C   0  0  0  0  0  0  0  0  0  0  0  0
    3.1820   18.3840   37.9145 C   0  0  0  0  0  0  0  0  0  0  0  0
    3.7985   18.5559   36.6684 O   0  0  0  0  0  0  0  0  0  0  0  0
   -1.0367   18.1799   43.7718 N   0  0  0  0  0  0  0  0  0  0  0  0
    3.7276   19.9812   36.4393 N   0  0  0  0  0  0  0  0  0  0  0  0
    2.9547   17.1981   38.5887 C   0  0  0  0  0  0  0  0  0  0  0  0
   -0.6402   19.2916   43.1316 C   0  0  0  0  0  0  0  0  0  0  0  0
    1.7064   21.0073   40.1001 C   0  0  0  0  0  0  0  0  0  0  0  0
    0.4204   17.0027   42.2612 C   0  0  0  0  0  0  0  0  0  0  0  0
   -0.6751   16.1226   43.9085 H   0  0  0  0  0  0  0  0  0  0  0  0
    0.4109   20.3833   41.5678 H   0  0  0  0  0  0  0  0  0  0  0  0
    3.3205   16.2508   38.1658 H   0  0  0  0  0  0  0  0  0  0  0  0
   -1.0484   20.2348   43.5237 H   0  0  0  0  0  0  0  0  0  0  0  0
    1.6582   21.0270   41.1988 H   0  0  0  0  0  0  0  0  0  0  0  0
    2.4652   21.7242   39.7533 H   0  0  0  0  0  0  0  0  0  0  0  0
    0.7255   21.2821   39.6851 H   0  0  0  0  0  0  0  0  0  0  0  0
    0.8170   16.0411   41.9032 H   0  0  0  0  0  0  0  0  0  0  0  0
  2 12  2  0
  3  5  2  0
  3  1  1  0
  4  6  1  0
  5  9  1  0
  6  8  2  0
  7 15  2  0
  8 16  1  0
  8  5  1  0
  9  7  1  0
  9 17  2  0
 10  6  1  0
 10 14  2  0
 11 10  1  0
 13 11  1  0
 13  4  2  0
 14  3  1  0
 15 12  1  0
 17  2  1  0
  2 18  1  0
  7 19  1  0
 14 20  1  0
 15 21  1  0
 16 22  1  0
 16 23  1  0
 16 24  1  0
 17 25  1  0
M  END
>  <mol_id>  (25) 
2026-08-23-6tgu-s0-n100-prep-0026

>  <rmsd_to_ref>  (25) 


$$$$

     RDKit          3D

 29 30  0  0  0  0  0  0  0  0999 V2000
    2.7355   19.9102   39.1937 C   0  0  0  0  0  0  0  0  0  0  0  0
    3.8482   20.7291   35.8097 O   0  0  0  0  0  0  0  0  0  0  0  0
    0.5454   17.5770   42.2566 C   0  0  0  0  0  0  0  0  0  0  0  0
   -0.3426   16.8992   44.1069 C   0  0  0  0  0  0  0  0  0  0  0  0
    0.4721   18.7927   43.3165 C   0  0  0  0  0  0  0  0  0  0  0  0
    3.5802   18.6925   36.9413 C   0  0  0  0  0  0  0  0  0  0  0  0
    1.2251   19.9541   42.8504 C   0  0  0  0  0  0  0  0  0  0  0  0
    1.6733   19.4827   41.5185 C   0  0  0  0  0  0  0  0  0  0  0  0
    1.2214   18.2373   41.3491 C   0  0  0  0  0  0  0  0  0  0  0  0
    3.1437   20.6901   38.1484 C   0  0  0  0  0  0  0  0  0  0  0  0
    0.2975   16.6311   43.0815 C   0  0  0  0  0  0  0  0  0  0  0  0
    2.1321   20.9171   40.6859 S   0  0  0  0  0  0  0  0  0  0  0  0
    2.7197   18.5286   39.1525 C   0  0  0  0  0  0  0  0  0  0  0  0
    3.5642   20.1455   36.9260 C   0  0  0  0  0  0  0  0  0  0  0  0
   -1.1236   16.6105   44.9740 N   0  0  0  0  0  0  0  0  0  0  0  0
    3.1964   17.9187   37.9758 C   0  0  0  0  0  0  0  0  0  0  0  0
    3.8492   21.7175   35.7541 H   0  0  0  0  0  0  0  0  0  0  0  0
   -0.0432   17.9299   44.3479 H   0  0  0  0  0  0  0  0  0  0  0  0
   -0.5800   19.0815   43.4572 H   0  0  0  0  0  0  0  0  0  0  0  0
    0.9141   18.4519   44.2643 H   0  0  0  0  0  0  0  0  0  0  0  0
    3.9347   18.1821   36.0336 H   0  0  0  0  0  0  0  0  0  0  0  0
    1.4094   20.9160   43.3511 H   0  0  0  0  0  0  0  0  0  0  0  0
    1.4290   17.7368   40.3918 H   0  0  0  0  0  0  0  0  0  0  0  0
    3.1425   21.7834   38.2698 H   0  0  0  0  0  0  0  0  0  0  0  0
   -0.2693   15.8628   42.5353 H   0  0  0  0  0  0  0  0  0  0  0  0
    1.2878   16.3270   43.4514 H   0  0  0  0  0  0  0  0  0  0  0  0
    2.3516   17.9325   40.0005 H   0  0  0  0  0  0  0  0  0  0  0  0
   -1.3535   17.2947   45.7087 H   0  0  0  0  0  0  0  0  0  0  0  0
    3.2549   16.8227   37.9020 H   0  0  0  0  0  0  0  0  0  0  0  0
  1 12  1  0
  2 14  1  0
  3 11  1  0
  3  5  1  0
  4 15  2  3
  6 14  1  0
  6 16  2  0
  7  5  1  0
  8  7  2  0
  9  8  1  0
  9  3  2  0
 10  1  1  0
 11  4  1  0
 12  8  1  0
 13  1  2  0
 14 10  2  0
 16 13  1  0
  2 17  1  0
  4 18  1  0
  5 19  1  0
  5 20  1  0
  6 21  1  0
  7 22  1  0
  9 23  1  0
 10 24  1  0
 11 25  1  0
 11 26  1  0
 13 27  1  0
 15 28  1  0
 16 29  1  0
M  END
>  <mol_id>  (26) 
2026-08-23-6tgu-s0-n100-prep-0027

>  <rmsd_to_ref>  (26) 


$$$$

     RDKit          3D

 59 63  0  0  0  0  0  0  0  0999 V2000
   -0.5423   17.3070   43.8255 C   0  0  0  0  0  0  0  0  0  0  0  0
    3.1998   24.0959   34.4595 O   0  0  0  0  0  0  0  0  0  0  0  0
   -0.9635   18.1557   44.9000 C   0  0  0  0  0  0  0  0  0  0  0  0
    1.6711   20.7931   39.3955 C   0  0  0  0  0  0  0  0  0  0  0  0
    2.6264   18.7143   38.5024 C   0  0  0  0  0  0  0  0  0  0  0  0
    3.8210   23.2862   35.0908 C   0  0  0  0  0  0  0  0  0  0  0  0
    1.3333   18.5806   40.7979 C   0  0  0  0  0  0  0  0  0  0  0  0
   -1.2406   17.5524   46.1526 C   0  0  0  0  0  0  0  0  0  0  0  0
    0.0480   18.0057   42.6764 C   0  0  0  0  0  0  0  0  0  0  0  0
   -2.3997   14.8124   49.5610 C   0  0  0  0  0  0  0  0  0  0  0  0
   -1.3454   16.1285   46.2074 C   0  0  0  0  0  0  0  0  0  0  0  0
   -0.8015   15.8863   43.8176 C   0  0  0  0  0  0  0  0  0  0  0  0
    1.0179   20.1877   40.5247 C   0  0  0  0  0  0  0  0  0  0  0  0
   -1.1481   15.3219   45.0729 C   0  0  0  0  0  0  0  0  0  0  0  0
    3.1782   18.4334   37.2719 C   0  0  0  0  0  0  0  0  0  0  0  0
    1.7921   22.6925   37.9194 C   0  0  0  0  0  0  0  0  0  0  0  0
    2.1243   18.0813   39.7665 C   0  0  0  0  0  0  0  0  0  0  0  0
    2.4030   20.1002   38.4272 C   0  0  1  0  0  0  0  0  0  0  0  0
    1.2010   16.0184   41.2344 C   0  0  0  0  0  0  0  0  0  0  0  0
    3.4079   19.5533   36.4650 O   0  0  0  0  0  0  0  0  0  0  0  0
   -1.8994   15.9046   48.6780 C   0  0  0  0  0  0  0  0  0  0  0  0
    2.6364   21.9798   36.9090 C   0  0  0  0  0  0  0  0  0  0  0  0
    3.3083   22.1869   35.5961 N   0  0  0  0  0  0  0  0  0  0  0  0
    2.8475   20.6284   37.1843 C   0  0  0  0  0  0  0  0  0  0  0  0
   -1.0241   19.6068   44.8376 N   0  0  0  0  0  0  0  0  0  0  0  0
    5.4022   23.2432   35.1921 C   0  0  0  0  0  0  0  0  0  0  0  0
   -0.1113   19.4979   42.6033 C   0  0  0  0  0  0  0  0  0  0  0  0
   -1.0276   21.5875   43.5651 O   0  0  0  0  0  0  0  0  0  0  0  0
   -1.1527   20.1514   43.3993 C   0  0  2  0  0  0  0  0  0  0  0  0
    1.4650   22.2524   39.1134 C   0  0  0  0  0  0  0  0  0  0  0  0
   -1.7005   15.4788   47.3617 N   0  0  0  0  0  0  0  0  0  0  0  0
    0.7496   17.3875   41.6122 C   0  0  0  0  0  0  0  0  0  0  0  0
   -1.3714   18.1638   47.0576 H   0  0  0  0  0  0  0  0  0  0  0  0
   -2.1725   15.0556   50.6094 H   0  0  0  0  0  0  0  0  0  0  0  0
   -3.4877   14.7092   49.4359 H   0  0  0  0  0  0  0  0  0  0  0  0
   -1.9079   13.8668   49.2891 H   0  0  0  0  0  0  0  0  0  0  0  0
   -0.7348   15.2823   42.9006 H   0  0  0  0  0  0  0  0  0  0  0  0
    0.3421   20.7616   41.1758 H   0  0  0  0  0  0  0  0  0  0  0  0
   -1.2647   14.2316   45.1599 H   0  0  0  0  0  0  0  0  0  0  0  0
    3.4192   17.4099   36.9491 H   0  0  0  0  0  0  0  0  0  0  0  0
    1.4076   23.6827   37.6339 H   0  0  0  0  0  0  0  0  0  0  0  0
    2.4370   17.0355   39.9030 H   0  0  0  0  0  0  0  0  0  0  0  0
    2.7172   20.8171   39.2002 H   0  0  0  0  0  0  0  0  0  0  0  0
    1.3655   15.4225   42.1441 H   0  0  0  0  0  0  0  0  0  0  0  0
    0.4307   15.5363   40.6145 H   0  0  0  0  0  0  0  0  0  0  0  0
    2.1401   16.0858   40.6655 H   0  0  0  0  0  0  0  0  0  0  0  0
   -2.6350   16.7225   48.6770 H   0  0  0  0  0  0  0  0  0  0  0  0
   -0.9277   16.2356   49.0731 H   0  0  0  0  0  0  0  0  0  0  0  0
    3.3813   21.3502   34.9998 H   0  0  0  0  0  0  0  0  0  0  0  0
   -0.9850   20.2114   45.6706 H   0  0  0  0  0  0  0  0  0  0  0  0
    5.6983   23.0877   36.2400 H   0  0  0  0  0  0  0  0  0  0  0  0
    5.7867   22.4172   34.5759 H   0  0  0  0  0  0  0  0  0  0  0  0
    5.8187   24.1950   34.8308 H   0  0  0  0  0  0  0  0  0  0  0  0
    0.8492   19.9377   42.9100 H   0  0  0  0  0  0  0  0  0  0  0  0
   -0.4309   19.6733   41.5655 H   0  0  0  0  0  0  0  0  0  0  0  0
   -0.9820   21.8056   44.5297 H   0  0  0  0  0  0  0  0  0  0  0  0
   -2.0915   19.9482   42.8633 H   0  0  0  0  0  0  0  0  0  0  0  0
    1.0551   22.9287   39.8780 H   0  0  0  0  0  0  0  0  0  0  0  0
   -1.8518   14.4683   47.2318 H   0  0  0  0  0  0  0  0  0  0  0  0
  1 12  1  0
  1  3  2  0
  2  6  2  0
  3  8  1  0
  4 13  2  0
  5 17  1  0
  6 26  1  0
  6 23  1  0
  7 32  1  0
  8 11  2  0
  9  1  1  0
 11 31  1  0
 12 14  2  0
 13  7  1  0
 14 11  1  0
 15  5  2  0
 16 30  2  0
 17  7  2  0
 18 24  1  0
 18  5  1  0
 18  4  1  0
 19 32  1  0
 20 24  1  0
 20 15  1  0
 21 10  1  0
 22 24  2  0
 22 16  1  0
 23 22  1  0
 25  3  1  0
 27  9  1  0
 27 29  1  0
 29 28  1  0
 29 25  1  0
 30  4  1  0
 31 21  1  0
 32  9  2  3
  8 33  1  0
 10 34  1  0
 10 35  1  0
 10 36  1  0
 12 37  1  0
 13 38  1  0
 14 39  1  0
 15 40  1  0
 16 41  1  0
 17 42  1  0
 18 43  1  1
 19 44  1  0
 19 45  1  0
 19 46  1  0
 21 47  1  0
 21 48  1  0
 23 49  1  0
 25 50  1  0
 26 51  1  0
 26 52  1  0
 26 53  1  0
 27 54  1  0
 27 55  1  0
 28 56  1  0
 29 57  1  6
 30 58  1  0
 31 59  1  0
M  END
>  <mol_id>  (27) 
2026-08-23-6tgu-s0-n100-prep-0028

>  <rmsd_to_ref>  (27) 


$$$$

     RDKit          3D

 51 54  0  0  0  0  0  0  0  0999 V2000
    1.5408   12.3086   41.4262 C   0  0  0  0  0  0  0  0  0  0  0  0
    3.4388   16.0320   36.9745 O   0  0  0  0  0  0  0  0  0  0  0  0
    0.3915   17.7637   42.2283 C   0  0  0  0  0  0  0  0  0  0  0  0
    0.4172   14.5200   42.7287 C   0  0  0  0  0  0  0  0  0  0  0  0
    1.4295   17.9267   39.8840 C   0  0  0  0  0  0  0  0  0  0  0  0
    4.5314   19.7692   34.6597 O   0  0  0  0  0  0  0  0  0  0  0  0
   -0.9519   21.0385   43.1061 O   0  0  0  0  0  0  0  0  0  0  0  0
    4.0890   17.6290   35.5824 N   0  0  0  0  0  0  0  0  0  0  0  0
    1.6625   15.9153   41.1104 C   0  0  0  0  0  0  0  0  0  0  0  0
    1.1430   17.1876   41.1423 C   0  0  0  0  0  0  0  0  0  0  0  0
    1.5468   20.3156   37.7949 O   0  0  0  0  0  0  0  0  0  0  0  0
    0.0430   19.1978   42.0562 C   0  0  0  0  0  0  0  0  0  0  0  0
    1.3383   14.6835   41.6493 C   0  0  0  0  0  0  0  0  0  0  0  0
    2.5922   18.1236   37.5222 C   0  0  0  0  0  0  0  0  0  0  0  0
   -0.1077   15.6581   43.5318 C   0  0  0  0  0  0  0  0  0  0  0  0
    3.0450   21.2635   34.1324 C   0  0  0  0  0  0  0  0  0  0  0  0
   -0.1053   17.0585   43.3516 C   0  0  0  0  0  0  0  0  0  0  0  0
    2.8041   20.1022   36.0069 C   0  0  0  0  0  0  0  0  0  0  0  0
    3.3636   17.2734   36.6813 C   0  0  0  0  0  0  0  0  0  0  0  0
    0.4646   12.1321   42.2876 C   0  0  0  0  0  0  0  0  0  0  0  0
    3.4781   20.3610   34.8833 C   0  0  0  0  0  0  0  0  0  0  0  0
   -0.9908   19.1631   44.2278 N   0  0  0  0  0  0  0  0  0  0  0  0
   -0.0616   13.2224   42.9134 C   0  0  0  0  0  0  0  0  0  0  0  0
    2.3091   19.5081   37.0940 C   0  0  0  0  0  0  0  0  0  0  0  0
   -0.8203   17.8344   44.3280 C   0  0  0  0  0  0  0  0  0  0  0  0
    0.4949   21.3578   40.6908 C   0  0  0  0  0  0  0  0  0  0  0  0
   -1.4941   17.1148   45.2789 N   0  0  0  0  0  0  0  0  0  0  0  0
    0.9559   19.1417   39.8417 O   0  0  0  0  0  0  0  0  0  0  0  0
    2.1341   17.4319   38.7461 C   0  0  0  0  0  0  0  0  0  0  0  0
    0.5046   19.8665   40.8952 C   0  0  0  0  0  0  0  0  0  0  0  0
    2.0609   13.6001   41.1405 C   0  0  0  0  0  0  0  0  0  0  0  0
   -0.6225   19.8563   43.1584 C   0  0  0  0  0  0  0  0  0  0  0  0
    2.0010   11.4280   40.9543 H   0  0  0  0  0  0  0  0  0  0  0  0
    4.8418   19.0604   35.2772 H   0  0  0  0  0  0  0  0  0  0  0  0
    4.0942   18.6084   35.2635 H   0  0  0  0  0  0  0  0  0  0  0  0
    4.6316   16.9182   35.0713 H   0  0  0  0  0  0  0  0  0  0  0  0
    2.5735   15.8634   40.4960 H   0  0  0  0  0  0  0  0  0  0  0  0
    1.1183   19.9936   38.6273 H   0  0  0  0  0  0  0  0  0  0  0  0
   -0.6018   15.3412   44.4620 H   0  0  0  0  0  0  0  0  0  0  0  0
    2.7230   22.1225   34.7395 H   0  0  0  0  0  0  0  0  0  0  0  0
    3.8411   21.5799   33.4425 H   0  0  0  0  0  0  0  0  0  0  0  0
    2.1900   20.8815   33.5552 H   0  0  0  0  0  0  0  0  0  0  0  0
    0.0451   11.1301   42.4613 H   0  0  0  0  0  0  0  0  0  0  0  0
   -0.9078   13.0716   43.5998 H   0  0  0  0  0  0  0  0  0  0  0  0
    0.5630   21.8620   41.6661 H   0  0  0  0  0  0  0  0  0  0  0  0
    1.3533   21.6480   40.0672 H   0  0  0  0  0  0  0  0  0  0  0  0
   -0.4388   21.6531   40.1898 H   0  0  0  0  0  0  0  0  0  0  0  0
   -2.0289   17.6031   46.0113 H   0  0  0  0  0  0  0  0  0  0  0  0
   -1.4659   16.0853   45.2616 H   0  0  0  0  0  0  0  0  0  0  0  0
    2.3763   16.3596   38.7860 H   0  0  0  0  0  0  0  0  0  0  0  0
    2.9798   13.7394   40.5522 H   0  0  0  0  0  0  0  0  0  0  0  0
  1 20  1  0
  3 17  2  0
  4 23  1  0
  4 15  2  0
  5 10  2  0
  6 21  1  0
  7 32  2  0
  8 19  1  0
  9 13  2  0
 10  9  1  0
 10  3  1  0
 12  3  1  0
 12 32  1  0
 13  4  1  0
 14 29  2  3
 16 21  1  0
 17 15  1  0
 17 25  1  0
 18 24  2  0
 19  2  2  0
 19 14  1  0
 20 23  2  0
 21 18  2  0
 22 25  2  0
 24 14  1  0
 24 11  1  0
 25 27  1  0
 26 30  1  0
 28  5  1  0
 28 30  1  0
 29  5  1  0
 30 12  2  0
 31  1  2  0
 31 13  1  0
 32 22  1  0
  1 33  1  0
  6 34  1  0
  8 35  1  0
  8 36  1  0
  9 37  1  0
 11 38  1  0
 15 39  1  0
 16 40  1  0
 16 41  1  0
 16 42  1  0
 20 43  1  0
 23 44  1  0
 26 45  1  0
 26 46  1  0
 26 47  1  0
 27 48  1  0
 27 49  1  0
 29 50  1  0
 31 51  1  0
M  END
>  <mol_id>  (28) 
2026-08-23-6tgu-s0-n100-prep-0029

>  <rmsd_to_ref>  (28) 


$$$$

     RDKit          3D

 60 65  0  0  0  0  0  0  0  0999 V2000
    2.2813   20.6485   37.8954 C   0  0  1  0  0  0  0  0  0  0  0  0
    3.4791   19.9917   35.6661 O   0  0  0  0  0  0  0  0  0  0  0  0
    2.7865   15.1099   40.0028 C   0  0  0  0  0  0  0  0  0  0  0  0
    3.4485   13.8616   39.8748 C   0  0  0  0  0  0  0  0  0  0  0  0
    4.6833   14.7365   38.0550 C   0  0  0  0  0  0  0  0  0  0  0  0
    2.7291   20.3823   40.2931 C   0  0  0  0  0  0  0  0  0  0  0  0
    2.4110   18.5394   38.5140 C   0  0  1  0  0  0  0  0  0  0  0  0
   -0.7251   16.0277   46.3092 C   0  0  0  0  0  0  0  0  0  0  0  0
   -0.1781   16.1080   45.0221 C   0  0  0  0  0  0  0  0  0  0  0  0
    4.3663   13.6875   38.8761 C   0  0  0  0  0  0  0  0  0  0  0  0
    2.2105   17.4734   39.2932 C   0  0  2  0  0  0  0  0  0  0  0  0
   -0.3156   19.8926   43.1221 C   0  0  0  0  0  0  0  0  0  0  0  0
    0.8042   18.8943   40.9811 C   0  0  1  0  0  0  0  0  0  0  0  0
    0.4047   20.9954   40.5509 C   0  0  0  0  0  0  0  0  0  0  0  0
    2.8546   22.0661   38.1051 C   0  0  0  0  0  0  0  0  0  0  0  0
   -0.9355   14.3269   49.1044 C   0  0  0  0  0  0  0  0  0  0  0  0
   -0.0206   17.4666   44.4023 C   0  0  0  0  0  0  0  0  0  0  0  0
    1.4556   20.1235   40.2152 C   0  0  1  0  0  0  0  0  0  0  0  0
   -0.7711   19.7326   44.4744 C   0  0  0  0  0  0  0  0  0  0  0  0
   -0.9439   17.1028   47.0485 C   0  0  0  0  0  0  0  0  0  0  0  0
    2.8613   18.4791   37.1753 O   0  0  0  0  0  0  0  0  0  0  0  0
    1.7028   17.6825   40.6754 C   0  0  0  0  0  0  0  0  0  0  0  0
    2.6779   19.8219   36.7421 C   0  0  0  0  0  0  0  0  0  0  0  0
   -0.5944   18.5379   45.1250 C   0  0  0  0  0  0  0  0  0  0  0  0
   -0.2123   13.8930   49.9848 O   0  0  0  0  0  0  0  0  0  0  0  0
    4.1359   16.0058   38.2295 C   0  0  0  0  0  0  0  0  0  0  0  0
   -0.9876   18.3918   46.4994 N   0  0  0  0  0  0  0  0  0  0  0  0
   -1.9081   15.0865   49.1822 O   0  0  0  0  0  0  0  0  0  0  0  0
    0.4849   17.6303   43.1931 C   0  0  0  0  0  0  0  0  0  0  0  0
   -1.1119   14.7668   46.6750 O   0  0  0  0  0  0  0  0  0  0  0  0
    0.3699   18.8868   42.4061 C   0  0  0  0  0  0  0  0  0  0  0  0
   -0.4492   14.0015   47.7728 C   0  0  0  0  0  0  0  0  0  0  0  0
    2.1482   19.8486   39.0605 C   0  0  2  0  0  0  0  0  0  0  0  0
    3.1706   16.2022   39.1653 C   0  0  0  0  0  0  0  0  0  0  0  0
    1.2946   21.0203   37.5818 H   0  0  0  0  0  0  0  0  0  0  0  0
    1.9823   15.2362   40.7426 H   0  0  0  0  0  0  0  0  0  0  0  0
    3.2255   13.0411   40.5727 H   0  0  0  0  0  0  0  0  0  0  0  0
    5.3931   14.5718   37.2309 H   0  0  0  0  0  0  0  0  0  0  0  0
    3.0793   21.4244   40.3323 H   0  0  0  0  0  0  0  0  0  0  0  0
    3.5480   20.0849   40.9646 H   0  0  0  0  0  0  0  0  0  0  0  0
    3.4527   18.6035   38.8615 H   0  0  0  0  0  0  0  0  0  0  0  0
    0.1277   15.2008   44.4804 H   0  0  0  0  0  0  0  0  0  0  0  0
    4.8477   12.7089   38.7329 H   0  0  0  0  0  0  0  0  0  0  0  0
    1.3253   17.1635   38.7183 H   0  0  0  0  0  0  0  0  0  0  0  0
   -0.5111   20.8499   42.6168 H   0  0  0  0  0  0  0  0  0  0  0  0
   -0.2194   18.9210   40.5793 H   0  0  0  0  0  0  0  0  0  0  0  0
    0.3188   21.0617   41.6455 H   0  0  0  0  0  0  0  0  0  0  0  0
    0.6106   21.9940   40.1380 H   0  0  0  0  0  0  0  0  0  0  0  0
   -0.5375   20.6125   40.1317 H   0  0  0  0  0  0  0  0  0  0  0  0
    3.0368   22.2330   39.1769 H   0  0  0  0  0  0  0  0  0  0  0  0
    3.8008   22.1644   37.5527 H   0  0  0  0  0  0  0  0  0  0  0  0
    2.1349   22.8112   37.7351 H   0  0  0  0  0  0  0  0  0  0  0  0
   -1.2632   20.5703   44.9901 H   0  0  0  0  0  0  0  0  0  0  0  0
   -1.0968   16.9810   48.1310 H   0  0  0  0  0  0  0  0  0  0  0  0
    1.1287   16.7835   40.9441 H   0  0  0  0  0  0  0  0  0  0  0  0
    2.6147   17.8860   41.2559 H   0  0  0  0  0  0  0  0  0  0  0  0
    4.4842   16.8464   37.6115 H   0  0  0  0  0  0  0  0  0  0  0  0
    1.0241   16.7852   42.7403 H   0  0  0  0  0  0  0  0  0  0  0  0
   -0.6182   12.9290   47.5964 H   0  0  0  0  0  0  0  0  0  0  0  0
    0.6162   14.2745   47.7499 H   0  0  0  0  0  0  0  0  0  0  0  0
  1 15  1  0
  1 33  1  0
  2 23  2  0
  3  4  1  0
  5 26  2  0
  5 10  1  0
  7 21  1  0
  7 33  1  0
  7 11  1  0
  8 30  1  0
  8 20  1  0
  9  8  2  0
 10  4  2  0
 11 34  1  0
 11 22  1  0
 12 19  1  0
 13 31  1  0
 16 25  1  0
 17 24  1  0
 17  9  1  0
 18  6  1  0
 18 14  1  6
 18 13  1  0
 19 24  2  0
 22 13  1  0
 23 21  1  0
 23  1  1  0
 24 27  1  0
 26 34  1  0
 27 20  2  0
 28 16  2  0
 29 17  2  0
 30 32  1  0
 31 12  2  0
 31 29  1  0
 32 16  1  0
 33 18  1  0
 33  6  1  1
 34  3  2  0
  1 35  1  6
  3 36  1  0
  4 37  1  0
  5 38  1  0
  6 39  1  0
  6 40  1  0
  7 41  1  1
  9 42  1  0
 10 43  1  0
 11 44  1  6
 12 45  1  0
 13 46  1  6
 14 47  1  0
 14 48  1  0
 14 49  1  0
 15 50  1  0
 15 51  1  0
 15 52  1  0
 19 53  1  0
 20 54  1  0
 22 55  1  0
 22 56  1  0
 26 57  1  0
 29 58  1  0
 32 59  1  0
 32 60  1  0
M  CHG  1  25  -1
M  END
>  <mol_id>  (29) 
2026-08-23-6tgu-s0-n100-prep-0030

>  <rmsd_to_ref>  (29) 


$$$$

     RDKit          3D

 22 23  0  0  0  0  0  0  0  0999 V2000
   -0.6363   18.7050   41.1878 N   0  0  0  0  0  0  0  0  0  0  0  0
    2.8406   19.9090   37.7999 C   0  0  0  0  0  0  0  0  0  0  0  0
   -0.8771   17.2829   43.1088 C   0  0  0  0  0  0  0  0  0  0  0  0
    0.7656   19.8108   39.2269 C   0  0  0  0  0  0  0  0  0  0  0  0
    0.7204   18.3722   41.1594 C   0  0  0  0  0  0  0  0  0  0  0  0
    1.4664   20.2950   38.0727 C   0  0  0  0  0  0  0  0  0  0  0  0
    1.4383   18.9554   40.0277 C   0  0  0  0  0  0  0  0  0  0  0  0
    3.4879   19.0168   38.7247 C   0  0  0  0  0  0  0  0  0  0  0  0
   -1.3844   18.2065   42.1062 C   0  0  0  0  0  0  0  0  0  0  0  0
    1.2595   17.5604   42.1150 C   0  0  0  0  0  0  0  0  0  0  0  0
   -2.7299   18.5331   42.3323 N   0  0  0  0  0  0  0  0  0  0  0  0
    0.4922   16.9661   43.1101 N   0  0  0  0  0  0  0  0  0  0  0  0
    2.8441   18.6349   39.8207 C   0  0  0  0  0  0  0  0  0  0  0  0
    3.3700   20.2875   36.9130 H   0  0  0  0  0  0  0  0  0  0  0  0
   -1.5541   16.8395   43.8538 H   0  0  0  0  0  0  0  0  0  0  0  0
   -0.2665   20.1201   39.4485 H   0  0  0  0  0  0  0  0  0  0  0  0
    0.9514   20.9744   37.3777 H   0  0  0  0  0  0  0  0  0  0  0  0
    4.5072   18.6545   38.5252 H   0  0  0  0  0  0  0  0  0  0  0  0
    2.3426   17.3691   42.0969 H   0  0  0  0  0  0  0  0  0  0  0  0
   -3.2489   18.0780   43.0968 H   0  0  0  0  0  0  0  0  0  0  0  0
   -3.1988   19.2280   41.7337 H   0  0  0  0  0  0  0  0  0  0  0  0
    3.3842   18.0634   40.5900 H   0  0  0  0  0  0  0  0  0  0  0  0
  1  9  1  0
  2  8  1  0
  2  6  2  0
  4  7  2  0
  5 10  1  0
  5  1  2  0
  6  4  1  0
  7  5  1  0
  8 13  2  0
  9  3  2  0
  9 11  1  0
 10 12  2  0
 12  3  1  0
 13  7  1  0
  2 14  1  0
  3 15  1  0
  4 16  1  0
  6 17  1  0
  8 18  1  0
 10 19  1  0
 11 20  1  0
 11 21  1  0
 13 22  1  0
M  END
>  <mol_id>  (30) 
2026-08-23-6tgu-s0-n100-prep-0031

>  <rmsd_to_ref>  (30) 


$$$$

     RDKit          3D

 29 29  0  0  0  0  0  0  0  0999 V2000
    3.3637   19.2197   36.9037 O   0  0  0  0  0  0  0  0  0  0  0  0
    0.2325   18.0618   42.6785 C   0  0  1  0  0  0  0  0  0  0  0  0
   -0.7798   17.1864   43.4007 C   0  0  0  0  0  0  0  0  0  0  0  0
    0.2569   15.3802   41.6775 C   0  0  0  0  0  0  0  0  0  0  0  0
    1.2470   19.9301   40.6645 N   0  0  0  0  0  0  0  0  0  0  0  0
    1.8687   20.5575   39.7077 C   0  0  0  0  0  0  0  0  0  0  0  0
    2.6677   19.7885   38.9061 C   0  0  2  0  0  0  0  0  0  0  0  0
    3.3199   21.3552   37.5693 O   0  0  0  0  0  0  0  0  0  0  0  0
    3.1505   20.0716   37.6839 C   0  0  0  0  0  0  0  0  0  0  0  0
    2.7683   18.2156   39.7985 S   0  0  0  0  0  0  0  0  0  0  0  0
    0.4333   19.4041   43.2289 C   0  0  0  0  0  0  0  0  0  0  0  0
    1.5133   18.6514   40.8223 C   0  0  1  0  0  0  0  0  0  0  0  0
    0.8421   17.7317   41.6058 C   0  0  1  0  0  0  0  0  0  0  0  0
    0.8979   16.2698   41.0754 C   0  0  0  0  0  0  0  0  0  0  0  0
   -0.6061   19.6782   44.1846 O   0  0  0  0  0  0  0  0  0  0  0  0
   -0.5658   18.4481   42.0278 H   0  0  0  0  0  0  0  0  0  0  0  0
   -0.3509   16.8383   44.3520 H   0  0  0  0  0  0  0  0  0  0  0  0
   -1.6914   17.7686   43.6008 H   0  0  0  0  0  0  0  0  0  0  0  0
   -1.0293   16.3190   42.7719 H   0  0  0  0  0  0  0  0  0  0  0  0
    0.2854   14.3417   41.3160 H   0  0  0  0  0  0  0  0  0  0  0  0
   -0.3353   15.6364   42.5684 H   0  0  0  0  0  0  0  0  0  0  0  0
    1.7581   21.6409   39.5530 H   0  0  0  0  0  0  0  0  0  0  0  0
    3.5607   20.2399   39.3633 H   0  0  0  0  0  0  0  0  0  0  0  0
    1.4137   19.4565   43.7250 H   0  0  0  0  0  0  0  0  0  0  0  0
    0.3988   20.1472   42.4186 H   0  0  0  0  0  0  0  0  0  0  0  0
    0.7854   18.4028   40.0359 H   0  0  0  0  0  0  0  0  0  0  0  0
   -0.0758   17.9072   41.0254 H   0  0  0  0  0  0  0  0  0  0  0  0
    1.4926   16.0223   40.1838 H   0  0  0  0  0  0  0  0  0  0  0  0
   -0.4489   19.1465   45.0048 H   0  0  0  0  0  0  0  0  0  0  0  0
  1  9  1  0
  2  3  1  0
  5 12  1  0
  6  5  2  0
  7  9  1  0
  7  6  1  0
  7 10  1  0
  8  9  2  0
 10 12  1  0
 11  2  1  0
 11 15  1  0
 12 13  1  0
 13 14  1  0
 13  2  1  0
 14  4  2  3
  2 16  1  1
  3 17  1  0
  3 18  1  0
  3 19  1  0
  4 20  1  0
  4 21  1  0
  6 22  1  0
  7 23  1  1
 11 24  1  0
 11 25  1  0
 12 26  1  1
 13 27  1  6
 14 28  1  0
 15 29  1  0
M  CHG  1   1  -1
M  END
>  <mol_id>  (31) 
2026-08-23-6tgu-s0-n100-prep-0032

>  <rmsd_to_ref>  (31) 


$$$$

     RDKit          3D

 23 24  0  0  0  0  0  0  0  0999 V2000
   -0.7519   17.4766   42.1952 C   0  0  0  0  0  0  0  0  0  0  0  0
    1.0710   19.9777   40.0322 C   0  0  0  0  0  0  0  0  0  0  0  0
    3.4586   19.7992   39.0230 C   0  0  0  0  0  0  0  0  0  0  0  0
    0.7183   15.5395   42.3719 C   0  0  0  0  0  0  0  0  0  0  0  0
    1.6676   16.0481   41.5585 C   0  0  0  0  0  0  0  0  0  0  0  0
    2.1482   20.4478   37.2143 O   0  0  0  0  0  0  0  0  0  0  0  0
    2.2852   19.1898   39.7610 C   0  0  0  0  0  0  0  0  0  0  0  0
    1.4179   17.3409   41.0283 C   0  0  0  0  0  0  0  0  0  0  0  0
   -0.9747   14.6733   43.4404 Cl  0  0  0  0  0  0  0  0  0  0  0  0
    0.0945   19.4356   40.8130 C   0  0  0  0  0  0  0  0  0  0  0  0
    3.2614   19.8998   37.5500 C   0  0  0  0  0  0  0  0  0  0  0  0
    4.1056   19.6933   36.6838 O   0  0  0  0  0  0  0  0  0  0  0  0
   -0.6268   16.0553   42.5684 C   0  0  0  0  0  0  0  0  0  0  0  0
    0.2529   18.0938   41.4185 C   0  0  0  0  0  0  0  0  0  0  0  0
    2.4063   17.9114   40.2083 C   0  0  0  0  0  0  0  0  0  0  0  0
   -1.6281   18.0558   42.5218 H   0  0  0  0  0  0  0  0  0  0  0  0
    0.9541   20.9873   39.6113 H   0  0  0  0  0  0  0  0  0  0  0  0
    3.6286   20.8113   39.4191 H   0  0  0  0  0  0  0  0  0  0  0  0
    4.3178   19.1316   39.1844 H   0  0  0  0  0  0  0  0  0  0  0  0
    0.9905   14.6414   42.9458 H   0  0  0  0  0  0  0  0  0  0  0  0
    2.5854   15.4909   41.3193 H   0  0  0  0  0  0  0  0  0  0  0  0
   -0.8283   20.0054   40.9967 H   0  0  0  0  0  0  0  0  0  0  0  0
    3.2877   17.3172   39.9251 H   0  0  0  0  0  0  0  0  0  0  0  0
  1 13  2  0
  2 10  1  0
  3  7  1  0
  4 13  1  0
  5  4  2  0
  7 15  1  0
  7  2  2  0
  8  5  1  0
  8 14  1  0
 10 14  2  0
 11  6  1  0
 11  3  1  0
 12 11  2  0
 13  9  1  0
 14  1  1  0
 15  8  2  0
  1 16  1  0
  2 17  1  0
  3 18  1  0
  3 19  1  0
  4 20  1  0
  5 21  1  0
 10 22  1  0
 15 23  1  0
M  CHG  1   6  -1
M  END
>  <mol_id>  (32) 
2026-08-23-6tgu-s0-n100-prep-0033

>  <rmsd_to_ref>  (32) 


$$$$

     RDKit          3D

 25 27  0  0  0  0  0  0  0  0999 V2000
    3.4312   19.8709   36.5724 O   0  0  0  0  0  0  0  0  0  0  0  0
    0.7986   20.0273   39.0081 C   0  0  0  0  0  0  0  0  0  0  0  0
    1.9420   17.0184   41.2497 C   0  0  0  0  0  0  0  0  0  0  0  0
    0.1055   15.2034   43.6162 O   0  0  0  0  0  0  0  0  0  0  0  0
    2.9332   19.5223   37.8055 C   0  0  0  0  0  0  0  0  0  0  0  0
    3.1833   17.8870   39.5133 C   0  0  0  0  0  0  0  0  0  0  0  0
    0.8342   16.8625   41.9200 C   0  0  0  0  0  0  0  0  0  0  0  0
   -0.0991   19.0924   40.9379 C   0  0  0  0  0  0  0  0  0  0  0  0
   -0.0795   16.2816   43.0119 C   0  0  0  0  0  0  0  0  0  0  0  0
    1.8109   20.1866   38.1436 C   0  0  0  0  0  0  0  0  0  0  0  0
    2.0940   18.1351   40.1819 C   0  0  0  0  0  0  0  0  0  0  0  0
   -0.7586   17.2943   43.0845 C   0  0  0  0  0  0  0  0  0  0  0  0
    3.6059   18.5046   38.4302 C   0  0  0  0  0  0  0  0  0  0  0  0
    0.9878   19.0253   39.9756 C   0  0  1  0  0  0  0  0  0  0  0  0
   -0.3543   18.1876   41.9574 C   0  0  0  0  0  0  0  0  0  0  0  0
    3.0035   20.5972   36.0531 H   0  0  0  0  0  0  0  0  0  0  0  0
   -0.1155   20.6375   38.9634 H   0  0  0  0  0  0  0  0  0  0  0  0
    2.7881   16.3432   41.4453 H   0  0  0  0  0  0  0  0  0  0  0  0
    3.8187   17.0740   39.8943 H   0  0  0  0  0  0  0  0  0  0  0  0
   -0.7878   19.9455   40.8487 H   0  0  0  0  0  0  0  0  0  0  0  0
    1.6936   21.1063   37.5516 H   0  0  0  0  0  0  0  0  0  0  0  0
   -1.8249   17.0386   42.9972 H   0  0  0  0  0  0  0  0  0  0  0  0
   -0.6041   17.7959   44.0512 H   0  0  0  0  0  0  0  0  0  0  0  0
    4.5642   18.1818   37.9972 H   0  0  0  0  0  0  0  0  0  0  0  0
    1.4549   19.7613   40.6465 H   0  0  0  0  0  0  0  0  0  0  0  0
  1  5  1  0
  3  7  2  0
  5 13  2  0
  5 10  1  0
  6 11  2  0
  7 15  1  0
  7  9  1  0
  8 15  2  0
  9 12  1  0
  9  4  2  0
 10  2  2  0
 11 14  1  0
 11  3  1  0
 13  6  1  0
 14  2  1  0
 14  8  1  0
 15 12  1  0
  1 16  1  0
  2 17  1  0
  3 18  1  0
  6 19  1  0
  8 20  1  0
 10 21  1  0
 12 22  1  0
 12 23  1  0
 13 24  1  0
 14 25  1  6
M  END
>  <mol_id>  (33) 
2026-08-23-6tgu-s0-n100-prep-0034

>  <rmsd_to_ref>  (33) 


$$$$

     RDKit          3D

 35 37  0  0  0  0  0  0  0  0999 V2000
    3.6496   15.8345   38.4888 O   0  0  0  0  0  0  0  0  0  0  0  0
    2.7620   18.3194   38.9435 C   0  0  0  0  0  0  0  0  0  0  0  0
    2.9676   14.7841   40.2838 C   0  0  0  0  0  0  0  0  0  0  0  0
    1.7661   17.7616   41.0811 N   0  0  0  0  0  0  0  0  0  0  0  0
    0.2500   19.5668   41.7104 C   0  0  0  0  0  0  0  0  0  0  0  0
    3.9885   14.5442   38.3719 N   0  0  0  0  0  0  0  0  0  0  0  0
    2.5108   20.6033   38.0406 C   0  0  0  0  0  0  0  0  0  0  0  0
    2.2409   14.3863   41.5732 C   0  0  0  0  0  0  0  0  0  0  0  0
    3.2452   20.2584   36.9241 C   0  0  0  0  0  0  0  0  0  0  0  0
   -1.6973   18.9782   42.9554 C   0  0  0  0  0  0  0  0  0  0  0  0
    3.7433   19.0254   36.7998 N   0  0  0  0  0  0  0  0  0  0  0  0
    2.5120   17.3886   40.0629 C   0  0  1  0  0  0  0  0  0  0  0  0
   -0.9769   19.9578   42.4324 C   0  0  0  0  0  0  0  0  0  0  0  0
   -1.4005   21.2745   42.4005 O   0  0  0  0  0  0  0  0  0  0  0  0
    2.1920   19.5942   39.0446 C   0  0  0  0  0  0  0  0  0  0  0  0
   -0.0212   17.2977   42.5576 C   0  0  0  0  0  0  0  0  0  0  0  0
   -1.2386   17.6528   43.2000 C   0  0  0  0  0  0  0  0  0  0  0  0
    3.4504   18.0761   37.7840 C   0  0  0  0  0  0  0  0  0  0  0  0
    0.6651   18.1613   41.8068 C   0  0  0  0  0  0  0  0  0  0  0  0
    2.9735   16.0426   39.6183 C   0  0  0  0  0  0  0  0  0  0  0  0
    3.5910   13.8425   39.4677 N   0  0  0  0  0  0  0  0  0  0  0  0
    2.4716   17.7411   41.8312 H   0  0  0  0  0  0  0  0  0  0  0  0
    0.8286   20.2969   41.1254 H   0  0  0  0  0  0  0  0  0  0  0  0
    2.1658   21.6393   38.1733 H   0  0  0  0  0  0  0  0  0  0  0  0
    2.7871   14.7862   42.4402 H   0  0  0  0  0  0  0  0  0  0  0  0
    1.2207   14.7975   41.5611 H   0  0  0  0  0  0  0  0  0  0  0  0
    2.1932   13.2896   41.6440 H   0  0  0  0  0  0  0  0  0  0  0  0
    3.4212   21.0024   36.1332 H   0  0  0  0  0  0  0  0  0  0  0  0
   -2.7391   19.2078   43.2238 H   0  0  0  0  0  0  0  0  0  0  0  0
    2.8392   17.3492   41.1124 H   0  0  0  0  0  0  0  0  0  0  0  0
   -2.2226   21.5417   42.8830 H   0  0  0  0  0  0  0  0  0  0  0  0
    1.5098   19.8327   39.8739 H   0  0  0  0  0  0  0  0  0  0  0  0
    0.3682   16.2767   42.6837 H   0  0  0  0  0  0  0  0  0  0  0  0
   -1.7892   16.9505   43.8431 H   0  0  0  0  0  0  0  0  0  0  0  0
    3.8020   17.0479   37.6130 H   0  0  0  0  0  0  0  0  0  0  0  0
  1 20  1  0
  2 15  1  0
  2 12  1  0
  3  8  1  0
  4 19  1  0
  5 19  1  0
  5 13  2  0
  6  1  1  0
  6 21  2  0
  7 15  2  0
  9  7  1  0
 10 17  2  0
 11  9  2  0
 11 18  1  0
 12  4  1  0
 13 14  1  0
 13 10  1  0
 16 17  1  0
 18  2  2  0
 19 16  2  0
 20 12  1  0
 20  3  2  0
 21  3  1  0
  4 22  1  0
  5 23  1  0
  7 24  1  0
  8 25  1  0
  8 26  1  0
  8 27  1  0
  9 28  1  0
 10 29  1  0
 12 30  1  1
 14 31  1  0
 15 32  1  0
 16 33  1  0
 17 34  1  0
 18 35  1  0
M  END
>  <mol_id>  (34) 
2026-08-23-6tgu-s0-n100-prep-0035

>  <rmsd_to_ref>  (34) 


$$$$

     RDKit          3D

 46 49  0  0  0  0  0  0  0  0999 V2000
    1.2427   16.2603   41.9488 C   0  0  0  0  0  0  0  0  0  0  0  0
    0.3301   10.8069   45.7093 C   0  0  0  0  0  0  0  0  0  0  0  0
    1.6089   20.8365   39.8396 C   0  0  0  0  0  0  0  0  0  0  0  0
    3.4803   19.0728   38.3284 C   0  0  0  0  0  0  0  0  0  0  0  0
    0.9225   11.5540   43.5473 C   0  0  0  0  0  0  0  0  0  0  0  0
   -0.8533   17.7289   43.4950 C   0  0  0  0  0  0  0  0  0  0  0  0
    2.8533   17.4522   40.3444 C   0  0  0  0  0  0  0  0  0  0  0  0
   -0.0669   18.8214   42.9825 C   0  0  0  0  0  0  0  0  0  0  0  0
    4.4369   20.8536   36.1665 O   0  0  0  0  0  0  0  0  0  0  0  0
   -0.1403   12.0191   45.9998 N   0  0  0  0  0  0  0  0  0  0  0  0
    0.5099   12.9384   43.8962 C   0  0  0  0  0  0  0  0  0  0  0  0
   -0.0171   13.0494   45.1973 C   0  0  0  0  0  0  0  0  0  0  0  0
    2.9745   20.3347   37.8081 C   0  0  0  0  0  0  0  0  0  0  0  0
    2.4893   21.8716   36.0067 O   0  0  0  0  0  0  0  0  0  0  0  0
    0.8095   10.4247   44.4580 C   0  0  0  0  0  0  0  0  0  0  0  0
    2.1155   19.7805   39.7612 C   0  0  1  0  0  0  0  0  0  0  0  0
    3.3148   20.9948   36.6324 C   0  0  0  0  0  0  0  0  0  0  0  0
    1.7476   17.5083   41.4615 C   0  0  0  0  0  0  0  0  0  0  0  0
    1.0973   18.6454   42.1705 C   0  0  0  0  0  0  0  0  0  0  0  0
    0.4979   15.4855   42.7725 C   0  0  2  0  0  0  0  0  0  0  0  0
    2.0654   20.8646   38.5900 C   0  0  1  0  0  0  0  0  0  0  0  0
    2.8415   18.6782   39.5259 C   0  0  2  0  0  0  0  0  0  0  0  0
   -0.5245   16.2938   43.5722 C   0  0  0  0  0  0  0  0  0  0  0  0
    0.6540   14.0122   42.9827 N   0  0  0  0  0  0  0  0  0  0  0  0
    4.5146   18.0851   37.6485 C   0  0  0  0  0  0  0  0  0  0  0  0
    1.7278   15.5245   41.2905 H   0  0  0  0  0  0  0  0  0  0  0  0
    0.3408   10.0558   46.5128 H   0  0  0  0  0  0  0  0  0  0  0  0
    0.5159   20.8481   39.9626 H   0  0  0  0  0  0  0  0  0  0  0  0
    1.7994   21.5912   40.6168 H   0  0  0  0  0  0  0  0  0  0  0  0
    1.3365   11.3727   42.5445 H   0  0  0  0  0  0  0  0  0  0  0  0
   -1.8435   18.0057   43.8858 H   0  0  0  0  0  0  0  0  0  0  0  0
    3.8397   17.3468   40.8197 H   0  0  0  0  0  0  0  0  0  0  0  0
    2.6465   16.5926   39.6901 H   0  0  0  0  0  0  0  0  0  0  0  0
   -0.3786   19.8471   43.2291 H   0  0  0  0  0  0  0  0  0  0  0  0
   -0.3382   14.0390   45.5547 H   0  0  0  0  0  0  0  0  0  0  0  0
    1.0718    9.3905   44.1900 H   0  0  0  0  0  0  0  0  0  0  0  0
    1.1670   19.3520   39.4051 H   0  0  0  0  0  0  0  0  0  0  0  0
    1.6516   19.5860   42.0358 H   0  0  0  0  0  0  0  0  0  0  0  0
   -0.2095   15.2935   41.9523 H   0  0  0  0  0  0  0  0  0  0  0  0
    1.8009   21.6293   37.8448 H   0  0  0  0  0  0  0  0  0  0  0  0
    3.6729   19.1013   40.1089 H   0  0  0  0  0  0  0  0  0  0  0  0
   -1.0991   15.7201   44.3142 H   0  0  0  0  0  0  0  0  0  0  0  0
    1.0137   13.6161   42.1025 H   0  0  0  0  0  0  0  0  0  0  0  0
    4.9746   17.4486   38.4188 H   0  0  0  0  0  0  0  0  0  0  0  0
    3.9911   17.4536   36.9156 H   0  0  0  0  0  0  0  0  0  0  0  0
    5.2966   18.6670   37.1388 H   0  0  0  0  0  0  0  0  0  0  0  0
  1 20  1  0
  2 10  2  0
  4 22  1  0
  5 11  1  0
  5 15  2  0
  6 23  2  0
  7 18  1  0
  8  6  1  0
  9 17  2  0
 11 12  2  0
 12 10  1  0
 13  4  2  0
 13 21  1  0
 14 17  1  0
 15  2  1  0
 16  3  1  0
 17 13  1  0
 18  1  2  0
 18 19  1  0
 19  8  2  0
 20 24  1  0
 20 23  1  0
 21 16  1  0
 21  3  1  0
 22 16  1  0
 22  7  1  0
 24 11  1  0
 25  4  1  0
  1 26  1  0
  2 27  1  0
  3 28  1  0
  3 29  1  0
  5 30  1  0
  6 31  1  0
  7 32  1  0
  7 33  1  0
  8 34  1  0
 12 35  1  0
 15 36  1  0
 16 37  1  6
 19 38  1  0
 20 39  1  6
 21 40  1  6
 22 41  1  1
 23 42  1  0
 24 43  1  0
 25 44  1  0
 25 45  1  0
 25 46  1  0
M  CHG  1  14  -1
M  END
>  <mol_id>  (35) 
2026-08-23-6tgu-s0-n100-prep-0036

>  <rmsd_to_ref>  (35) 


$$$$

     RDKit          3D

 69 74  0  0  0  0  0  0  0  0999 V2000
    1.7697   16.9160   40.2793 C   0  0  0  0  0  0  0  0  0  0  0  0
   -0.1575   12.4959   45.1179 C   0  0  0  0  0  0  0  0  0  0  0  0
    3.0721   18.5037   38.0068 C   0  0  0  0  0  0  0  0  0  0  0  0
    0.4735   15.8236   43.2900 C   0  0  0  0  0  0  0  0  0  0  0  0
    5.6188   15.0706   36.7027 C   0  0  0  0  0  0  0  0  0  0  0  0
    3.8153   16.6917   36.8638 C   0  0  0  0  0  0  0  0  0  0  0  0
    0.5587   20.3777   40.9754 C   0  0  0  0  0  0  0  0  0  0  0  0
   -0.3074   21.3214   41.6843 C   0  0  0  0  0  0  0  0  0  0  0  0
    3.7282   20.0510   36.0139 N   0  0  0  0  0  0  0  0  0  0  0  0
    2.3685   20.8512   37.5556 C   0  0  0  0  0  0  0  0  0  0  0  0
   -2.4442   17.9973   44.5829 N   0  0  0  0  0  0  0  0  0  0  0  0
   -1.1025   17.3585   44.5935 C   0  0  1  0  0  0  0  0  0  0  0  0
    0.0954   14.8504   44.2469 C   0  0  0  0  0  0  0  0  0  0  0  0
    3.6815   21.8881   34.3821 C   0  0  0  0  0  0  0  0  0  0  0  0
    1.2705   20.7312   39.7981 C   0  0  0  0  0  0  0  0  0  0  0  0
    0.8267   19.0958   41.5940 C   0  0  0  0  0  0  0  0  0  0  0  0
    1.4543   15.4306   42.3002 C   0  0  0  0  0  0  0  0  0  0  0  0
    1.1965   13.0292   42.9626 C   0  0  0  0  0  0  0  0  0  0  0  0
    3.3367   21.1708   35.5594 C   0  0  0  0  0  0  0  0  0  0  0  0
    3.0623   19.7768   37.2461 C   0  0  1  0  0  0  0  0  0  0  0  0
    1.8629   23.3643   34.9056 C   0  0  0  0  0  0  0  0  0  0  0  0
    2.0041   18.2905   40.9139 C   0  0  1  0  0  0  0  0  0  0  0  0
    4.3036   15.4363   37.2347 O   0  0  0  0  0  0  0  0  0  0  0  0
    0.2215   18.9710   45.7576 N   0  0  0  0  0  0  0  0  0  0  0  0
   -0.2593   17.2549   43.3375 C   0  0  1  0  0  0  0  0  0  0  0  0
    1.6534   22.6468   36.0932 C   0  0  0  0  0  0  0  0  0  0  0  0
   -0.7807   19.7163   43.4774 N   0  0  0  0  0  0  0  0  0  0  0  0
   -0.9118   21.0794   42.9029 C   0  0  0  0  0  0  0  0  0  0  0  0
   -0.3562   17.0763   46.8185 O   0  0  0  0  0  0  0  0  0  0  0  0
    2.9497   23.0294   34.0876 C   0  0  0  0  0  0  0  0  0  0  0  0
    1.7442   20.9007   38.7787 C   0  0  0  0  0  0  0  0  0  0  0  0
    2.9019   17.2273   37.6452 N   0  0  0  0  0  0  0  0  0  0  0  0
   -0.4061   17.8399   45.8203 C   0  0  0  0  0  0  0  0  0  0  0  0
    0.0242   18.6547   42.7071 C   0  0  0  0  0  0  0  0  0  0  0  0
    0.4237   13.4731   44.0617 C   0  0  0  0  0  0  0  0  0  0  0  0
    2.1450   16.8078   41.7543 C   0  0  2  0  0  0  0  0  0  0  0  0
    1.7174   14.0652   42.0991 C   0  0  0  0  0  0  0  0  0  0  0  0
    4.3480   17.2091   35.8584 O   0  0  0  0  0  0  0  0  0  0  0  0
    2.4183   21.6460   36.4351 C   0  0  0  0  0  0  0  0  0  0  0  0
    0.7484   16.6440   39.9746 H   0  0  0  0  0  0  0  0  0  0  0  0
    2.1998   16.4456   39.3828 H   0  0  0  0  0  0  0  0  0  0  0  0
    0.1290   12.8320   46.1254 H   0  0  0  0  0  0  0  0  0  0  0  0
   -1.2543   12.4772   45.0357 H   0  0  0  0  0  0  0  0  0  0  0  0
    0.2406   11.4858   44.9412 H   0  0  0  0  0  0  0  0  0  0  0  0
    4.0618   18.5020   38.4868 H   0  0  0  0  0  0  0  0  0  0  0  0
    2.0767   18.6302   38.4575 H   0  0  0  0  0  0  0  0  0  0  0  0
    6.3047   14.8564   37.5356 H   0  0  0  0  0  0  0  0  0  0  0  0
    5.5222   14.1773   36.0682 H   0  0  0  0  0  0  0  0  0  0  0  0
    6.0170   15.9036   36.1048 H   0  0  0  0  0  0  0  0  0  0  0  0
   -0.4909   22.2973   41.2107 H   0  0  0  0  0  0  0  0  0  0  0  0
   -2.7654   18.1372   45.5514 H   0  0  0  0  0  0  0  0  0  0  0  0
   -2.3872   18.9080   44.1051 H   0  0  0  0  0  0  0  0  0  0  0  0
   -3.1100   17.3894   44.0848 H   0  0  0  0  0  0  0  0  0  0  0  0
   -1.2931   16.2753   44.6131 H   0  0  0  0  0  0  0  0  0  0  0  0
   -0.4589   15.1597   45.1452 H   0  0  0  0  0  0  0  0  0  0  0  0
    4.4991   21.5508   33.7281 H   0  0  0  0  0  0  0  0  0  0  0  0
    1.3890   11.9622   42.7767 H   0  0  0  0  0  0  0  0  0  0  0  0
    3.9252   20.1741   37.8007 H   0  0  0  0  0  0  0  0  0  0  0  0
    1.1820   24.1798   34.6205 H   0  0  0  0  0  0  0  0  0  0  0  0
    2.5720   19.1638   40.5605 H   0  0  0  0  0  0  0  0  0  0  0  0
    0.7135   19.3336   46.5866 H   0  0  0  0  0  0  0  0  0  0  0  0
    0.2286   19.5080   44.8787 H   0  0  0  0  0  0  0  0  0  0  0  0
   -0.4766   17.0530   42.2783 H   0  0  0  0  0  0  0  0  0  0  0  0
    0.8223   22.9354   36.7536 H   0  0  0  0  0  0  0  0  0  0  0  0
   -1.4700   21.8680   43.4287 H   0  0  0  0  0  0  0  0  0  0  0  0
    3.2180   23.6600   33.2271 H   0  0  0  0  0  0  0  0  0  0  0  0
    2.0874   16.6845   37.9660 H   0  0  0  0  0  0  0  0  0  0  0  0
    2.7545   16.7305   42.6668 H   0  0  0  0  0  0  0  0  0  0  0  0
    2.3477   13.7714   41.2468 H   0  0  0  0  0  0  0  0  0  0  0  0
  4 13  1  0
  5 23  1  0
  6 23  1  0
  6 32  1  0
  7  8  2  0
  7 16  1  0
  8 28  1  0
  9 20  1  0
 10 31  1  0
 12 11  1  0
 12 33  1  0
 14 19  1  0
 15  7  1  0
 16 34  2  0
 17  4  2  0
 18 35  1  0
 19  9  2  0
 19 39  1  0
 20 10  1  0
 20  3  1  0
 21 26  2  0
 22  1  1  0
 22 16  1  0
 22 36  1  0
 24 33  1  0
 25  4  1  0
 25 12  1  0
 26 39  1  0
 28 27  2  0
 30 14  2  0
 30 21  1  0
 31 15  3  0
 32  3  1  0
 33 29  2  0
 34 25  1  0
 34 27  1  0
 35 13  2  0
 35  2  1  0
 36  1  1  0
 36 17  1  0
 37 17  1  0
 37 18  2  0
 38  6  2  0
 39 10  2  0
  1 40  1  0
  1 41  1  0
  2 42  1  0
  2 43  1  0
  2 44  1  0
  3 45  1  0
  3 46  1  0
  5 47  1  0
  5 48  1  0
  5 49  1  0
  8 50  1  0
 11 51  1  0
 11 52  1  0
 11 53  1  0
 12 54  1  1
 13 55  1  0
 14 56  1  0
 18 57  1  0
 20 58  1  1
 21 59  1  0
 22 60  1  6
 24 61  1  0
 24 62  1  0
 25 63  1  6
 26 64  1  0
 28 65  1  0
 30 66  1  0
 32 67  1  0
 36 68  1  6
 37 69  1  0
M  CHG  1  11   1
M  END
>  <mol_id>  (36) 
2026-08-23-6tgu-s0-n100-prep-0037

>  <rmsd_to_ref>  (36) 


$$$$

     RDKit          3D

 26 27  0  0  0  0  0  0  0  0999 V2000
    1.0471   17.5935   42.4768 C   0  0  0  0  0  0  0  0  0  0  0  0
    0.6155   18.8136   42.9860 N   0  0  0  0  0  0  0  0  0  0  0  0
    2.5975   18.5984   40.6836 C   0  0  0  0  0  0  0  0  0  0  0  0
    2.1584   17.4054   41.4955 C   0  0  1  0  0  0  0  0  0  0  0  0
    1.9596   19.8715   40.5463 C   0  0  0  0  0  0  0  0  0  0  0  0
    2.7916   20.4999   38.1012 C   0  0  0  0  0  0  0  0  0  0  0  0
    2.8393   16.0825   41.3505 C   0  0  0  0  0  0  0  0  0  0  0  0
    2.1472   20.7247   39.3090 C   0  0  0  0  0  0  0  0  0  0  0  0
    0.7532   20.0270   42.6953 C   0  0  0  0  0  0  0  0  0  0  0  0
    3.6333   18.2643   39.8206 O   0  0  0  0  0  0  0  0  0  0  0  0
    3.0526   14.9576   41.9567 C   0  0  0  0  0  0  0  0  0  0  0  0
    3.5153   19.3167   37.5659 C   0  0  0  0  0  0  0  0  0  0  0  0
    1.3090   20.5587   41.5920 C   0  0  0  0  0  0  0  0  0  0  0  0
    3.5393   18.1095   38.3896 C   0  0  0  0  0  0  0  0  0  0  0  0
    0.4822   16.5055   42.9236 O   0  0  0  0  0  0  0  0  0  0  0  0
    1.4487   17.1270   40.7025 H   0  0  0  0  0  0  0  0  0  0  0  0
    2.7616   21.3562   37.4113 H   0  0  0  0  0  0  0  0  0  0  0  0
    3.3428   16.0538   40.3729 H   0  0  0  0  0  0  0  0  0  0  0  0
    1.6805   21.7181   39.3826 H   0  0  0  0  0  0  0  0  0  0  0  0
    0.3715   20.7455   43.4357 H   0  0  0  0  0  0  0  0  0  0  0  0
    3.6555   14.1766   41.4706 H   0  0  0  0  0  0  0  0  0  0  0  0
    2.6308   14.7836   42.9575 H   0  0  0  0  0  0  0  0  0  0  0  0
    4.0142   19.3486   36.5861 H   0  0  0  0  0  0  0  0  0  0  0  0
    2.0571   21.2716   41.9689 H   0  0  0  0  0  0  0  0  0  0  0  0
    0.3919   20.8540   41.0611 H   0  0  0  0  0  0  0  0  0  0  0  0
    3.4872   17.1111   37.9311 H   0  0  0  0  0  0  0  0  0  0  0  0
  1  2  1  0
  1 15  2  0
  3  4  1  0
  4  7  1  0
  4  1  1  0
  5  3  2  0
  5 13  1  0
  6  8  2  0
  7 11  2  3
  8  5  1  0
  9  2  2  0
 10  3  1  0
 12  6  1  0
 12 14  2  0
 13  9  1  0
 14 10  1  0
  4 16  1  6
  6 17  1  0
  7 18  1  0
  8 19  1  0
  9 20  1  0
 11 21  1  0
 11 22  1  0
 12 23  1  0
 13 24  1  0
 13 25  1  0
 14 26  1  0
M  END
>  <mol_id>  (37) 
2026-08-23-6tgu-s0-n100-prep-0038

>  <rmsd_to_ref>  (37) 


$$$$

     RDKit          3D

 32 35  0  0  0  0  0  0  0  0999 V2000
    3.1083   16.1371   40.3554 C   0  0  0  0  0  0  0  0  0  0  0  0
    1.1080   16.6380   41.7252 C   0  0  0  0  0  0  0  0  0  0  0  0
    2.8867   18.5409   38.9407 C   0  0  0  0  0  0  0  0  0  0  0  0
    0.0040   17.6469   42.0244 C   0  0  0  0  0  0  0  0  0  0  0  0
    1.0028   20.6055   39.7234 C   0  0  0  0  0  0  0  0  0  0  0  0
    3.7285   19.9160   37.0905 C   0  0  0  0  0  0  0  0  0  0  0  0
    2.8295   19.8019   38.2567 C   0  0  0  0  0  0  0  0  0  0  0  0
   -0.9378   19.8660   41.7877 C   0  0  0  0  0  0  0  0  0  0  0  0
    2.0487   18.3420   40.0485 C   0  0  0  0  0  0  0  0  0  0  0  0
   -2.0001   18.4205   43.2318 C   0  0  0  0  0  0  0  0  0  0  0  0
    1.9182   20.7813   38.6975 C   0  0  0  0  0  0  0  0  0  0  0  0
    3.7198   17.5980   38.5718 O   0  0  0  0  0  0  0  0  0  0  0  0
    3.1227   14.8543   41.0281 C   0  0  0  0  0  0  0  0  0  0  0  0
    2.0468   17.0387   40.7334 C   0  0  0  0  0  0  0  0  0  0  0  0
   -1.0531   17.3941   42.9648 C   0  0  0  0  0  0  0  0  0  0  0  0
    3.7532   20.8428   36.3576 O   0  0  0  0  0  0  0  0  0  0  0  0
    1.0417   19.3005   40.4317 C   0  0  0  0  0  0  0  0  0  0  0  0
    0.0364   18.9603   41.4546 C   0  0  0  0  0  0  0  0  0  0  0  0
    1.2209   15.4349   42.3168 C   0  0  0  0  0  0  0  0  0  0  0  0
    2.2109   14.4889   41.9515 C   0  0  0  0  0  0  0  0  0  0  0  0
   -1.9405   19.6005   42.7012 N   0  0  0  0  0  0  0  0  0  0  0  0
    3.8618   16.4079   39.6012 H   0  0  0  0  0  0  0  0  0  0  0  0
    0.2847   21.3918   39.9988 H   0  0  0  0  0  0  0  0  0  0  0  0
    4.4201   19.0842   36.8911 H   0  0  0  0  0  0  0  0  0  0  0  0
   -0.9203   20.8536   41.3035 H   0  0  0  0  0  0  0  0  0  0  0  0
   -2.8259   18.2011   43.9246 H   0  0  0  0  0  0  0  0  0  0  0  0
    1.9340   21.7572   38.1902 H   0  0  0  0  0  0  0  0  0  0  0  0
    4.3112   17.7380   37.7902 H   0  0  0  0  0  0  0  0  0  0  0  0
    3.9197   14.1407   40.7719 H   0  0  0  0  0  0  0  0  0  0  0  0
   -1.1284   16.4203   43.4707 H   0  0  0  0  0  0  0  0  0  0  0  0
    0.5143   15.1742   43.1184 H   0  0  0  0  0  0  0  0  0  0  0  0
    2.2347   13.4880   42.4071 H   0  0  0  0  0  0  0  0  0  0  0  0
  1 14  2  0
  1 13  1  0
  2  4  1  0
  2 19  2  0
  3  9  2  0
  4 15  2  0
  5 17  2  0
  6  7  1  0
  7 11  2  0
  7  3  1  0
  8 21  1  0
  9 17  1  0
  9 14  1  0
 11  5  1  0
 12  3  1  0
 13 20  2  0
 14  2  1  0
 15 10  1  0
 16  6  2  0
 17 18  1  0
 18  8  2  0
 18  4  1  0
 20 19  1  0
 21 10  2  0
  1 22  1  0
  5 23  1  0
  6 24  1  0
  8 25  1  0
 10 26  1  0
 11 27  1  0
 12 28  1  0
 13 29  1  0
 15 30  1  0
 19 31  1  0
 20 32  1  0
M  END
>  <mol_id>  (38) 
2026-08-23-6tgu-s0-n100-prep-0039

>  <rmsd_to_ref>  (38) 


$$$$

     RDKit          3D

 50 54  0  0  0  0  0  0  0  0999 V2000
    1.4724   15.9870   43.1418 C   0  0  0  0  0  0  0  0  0  0  0  0
    3.6700   15.8779   38.7860 O   0  0  0  0  0  0  0  0  0  0  0  0
    1.8382   16.3675   41.7518 C   0  0  0  0  0  0  0  0  0  0  0  0
    0.6604   18.8639   42.8848 C   0  0  0  0  0  0  0  0  0  0  0  0
    3.3838   20.8642   37.6753 C   0  0  1  0  0  0  0  0  0  0  0  0
    1.4028   18.8729   41.7191 C   0  0  0  0  0  0  0  0  0  0  0  0
    2.4534   20.9538   38.7298 N   0  0  0  0  0  0  0  0  0  0  0  0
    2.3675   20.0681   39.7543 C   0  0  0  0  0  0  0  0  0  0  0  0
   -0.2455   17.7895   43.5360 C   0  0  2  0  0  0  0  0  0  0  0  0
   -0.3275   13.7301   46.6129 C   0  0  0  0  0  0  0  0  0  0  0  0
    2.8663   22.3049   35.9843 O   0  0  0  0  0  0  0  0  0  0  0  0
   -0.2860   15.6512   45.0161 C   0  0  0  0  0  0  0  0  0  0  0  0
    4.1994   20.4469   36.7557 O   0  0  0  0  0  0  0  0  0  0  0  0
    0.4556   20.3301   43.1207 C   0  0  0  0  0  0  0  0  0  0  0  0
    3.5549   21.5328   36.6346 C   0  0  0  0  0  0  0  0  0  0  0  0
    2.4117   15.5308   40.8196 C   0  0  0  0  0  0  0  0  0  0  0  0
    2.6105   17.6485   40.0673 C   0  0  0  0  0  0  0  0  0  0  0  0
    1.1020   21.0939   42.1701 C   0  0  0  0  0  0  0  0  0  0  0  0
    1.6956   20.1122   41.1993 C   0  0  0  0  0  0  0  0  0  0  0  0
   -0.7394   18.2781   44.7482 O   0  0  0  0  0  0  0  0  0  0  0  0
    0.3380   16.4198   43.9366 N   0  0  0  0  0  0  0  0  0  0  0  0
    2.9010   18.7990   39.3916 C   0  0  0  0  0  0  0  0  0  0  0  0
    1.8918   17.6055   41.2455 C   0  0  0  0  0  0  0  0  0  0  0  0
    3.7052   16.5254   37.5223 C   0  0  0  0  0  0  0  0  0  0  0  0
    2.9252   16.3484   39.8560 N   0  0  0  0  0  0  0  0  0  0  0  0
   -0.0351   14.2143   45.1212 C   0  0  0  0  0  0  0  0  0  0  0  0
    2.4513   14.0373   40.7654 C   0  0  0  0  0  0  0  0  0  0  0  0
    2.3505   16.2670   43.7424 H   0  0  0  0  0  0  0  0  0  0  0  0
    1.1386   14.9585   42.9398 H   0  0  0  0  0  0  0  0  0  0  0  0
    3.2473   20.5037   38.7055 H   0  0  0  0  0  0  0  0  0  0  0  0
    1.7940   21.7450   38.7225 H   0  0  0  0  0  0  0  0  0  0  0  0
   -0.9543   17.6095   42.7144 H   0  0  0  0  0  0  0  0  0  0  0  0
    0.3549   14.2443   47.3057 H   0  0  0  0  0  0  0  0  0  0  0  0
   -1.3679   13.9687   46.8785 H   0  0  0  0  0  0  0  0  0  0  0  0
   -0.1710   12.6435   46.6831 H   0  0  0  0  0  0  0  0  0  0  0  0
   -1.3735   15.7783   44.9108 H   0  0  0  0  0  0  0  0  0  0  0  0
    0.1809   16.0598   45.9245 H   0  0  0  0  0  0  0  0  0  0  0  0
   -0.6215   20.5505   43.0832 H   0  0  0  0  0  0  0  0  0  0  0  0
    0.8745   20.5814   44.1063 H   0  0  0  0  0  0  0  0  0  0  0  0
    1.1689   22.1912   42.1314 H   0  0  0  0  0  0  0  0  0  0  0  0
   -0.3052   17.7997   45.4983 H   0  0  0  0  0  0  0  0  0  0  0  0
    3.5787   18.7425   38.5269 H   0  0  0  0  0  0  0  0  0  0  0  0
    3.9430   17.5902   37.6624 H   0  0  0  0  0  0  0  0  0  0  0  0
    4.4757   16.0575   36.8919 H   0  0  0  0  0  0  0  0  0  0  0  0
    2.7241   16.4299   37.0340 H   0  0  0  0  0  0  0  0  0  0  0  0
   -0.6945   13.6752   44.4250 H   0  0  0  0  0  0  0  0  0  0  0  0
    1.0148   14.0062   44.8677 H   0  0  0  0  0  0  0  0  0  0  0  0
    2.5230   13.6350   41.7868 H   0  0  0  0  0  0  0  0  0  0  0  0
    1.5337   13.6632   40.2876 H   0  0  0  0  0  0  0  0  0  0  0  0
    3.3262   13.7146   40.1820 H   0  0  0  0  0  0  0  0  0  0  0  0
  1 21  1  0
  2 25  1  0
  3  1  1  0
  4 14  1  0
  4  9  1  0
  5  7  1  0
  6  4  2  0
  7  8  1  0
  8 19  1  0
  9 21  1  0
  9 20  1  0
 11 15  2  0
 12 26  1  0
 13  5  1  0
 15 13  1  0
 15  5  1  0
 16 27  1  0
 16  3  2  0
 17 23  2  0
 18 14  1  0
 19  6  1  0
 19 18  2  0
 21 12  1  0
 22  8  2  0
 22 17  1  0
 23  6  1  0
 23  3  1  0
 24  2  1  0
 25 17  1  0
 25 16  1  0
 26 10  1  0
  1 28  1  0
  1 29  1  0
  5 30  1  1
  7 31  1  0
  9 32  1  6
 10 33  1  0
 10 34  1  0
 10 35  1  0
 12 36  1  0
 12 37  1  0
 14 38  1  0
 14 39  1  0
 18 40  1  0
 20 41  1  0
 22 42  1  0
 24 43  1  0
 24 44  1  0
 24 45  1  0
 26 46  1  0
 26 47  1  0
 27 48  1  0
 27 49  1  0
 27 50  1  0
M  END
>  <mol_id>  (39) 
2026-08-23-6tgu-s0-n100-prep-0040

>  <rmsd_to_ref>  (39) 


$$$$

     RDKit          3D

 40 44  0  0  0  0  0  0  0  0999 V2000
   -1.0027   13.0196   45.1891 C   0  0  0  0  0  0  0  0  0  0  0  0
    2.5864   19.6740   38.5575 C   0  0  0  0  0  0  0  0  0  0  0  0
    1.4038   18.9393   40.6851 C   0  0  0  0  0  0  0  0  0  0  0  0
    0.9751   15.1487   42.7943 C   0  0  0  0  0  0  0  0  0  0  0  0
   -0.0432   19.5663   42.5836 C   0  0  0  0  0  0  0  0  0  0  0  0
    1.3208   20.2265   40.2546 C   0  0  0  0  0  0  0  0  0  0  0  0
    0.0758   20.8670   42.2533 C   0  0  0  0  0  0  0  0  0  0  0  0
    3.3615   19.4510   37.4544 C   0  0  0  0  0  0  0  0  0  0  0  0
    0.6622   12.4669   43.3511 C   0  0  0  0  0  0  0  0  0  0  0  0
   -0.0342   14.8160   43.6468 C   0  0  0  0  0  0  0  0  0  0  0  0
   -0.9976   15.7672   44.1097 N   0  0  0  0  0  0  0  0  0  0  0  0
    4.0977   18.3456   37.1680 N   0  0  0  0  0  0  0  0  0  0  0  0
    1.9168   14.3377   42.3823 C   0  0  0  0  0  0  0  0  0  0  0  0
    3.4541   20.5280   36.3660 O   0  0  0  0  0  0  0  0  0  0  0  0
   -0.8062   17.0184   43.5491 C   0  0  0  0  0  0  0  0  0  0  0  0
    2.4487   18.6750   39.5810 C   0  0  0  0  0  0  0  0  0  0  0  0
    3.3649   17.6493   39.3817 C   0  0  0  0  0  0  0  0  0  0  0  0
    3.9441   17.5172   38.1823 C   0  0  0  0  0  0  0  0  0  0  0  0
    0.4966   18.5686   41.9191 C   0  0  0  0  0  0  0  0  0  0  0  0
    1.6527   12.9530   42.4794 C   0  0  0  0  0  0  0  0  0  0  0  0
    0.2466   17.2592   42.6292 C   0  0  0  0  0  0  0  0  0  0  0  0
    1.1450   16.3877   42.1964 N   0  0  0  0  0  0  0  0  0  0  0  0
   -0.1429   13.4282   44.0259 C   0  0  0  0  0  0  0  0  0  0  0  0
    1.8536   20.7176   38.9952 C   0  0  0  0  0  0  0  0  0  0  0  0
    0.8021   21.1958   41.0610 C   0  0  0  0  0  0  0  0  0  0  0  0
   -0.5173   13.3233   46.1284 H   0  0  0  0  0  0  0  0  0  0  0  0
   -1.9847   13.5089   45.1089 H   0  0  0  0  0  0  0  0  0  0  0  0
   -1.1354   11.9277   45.1813 H   0  0  0  0  0  0  0  0  0  0  0  0
   -0.6369   19.3205   43.4765 H   0  0  0  0  0  0  0  0  0  0  0  0
   -0.3708   21.6534   42.8795 H   0  0  0  0  0  0  0  0  0  0  0  0
    0.5153   11.3878   43.5054 H   0  0  0  0  0  0  0  0  0  0  0  0
    2.8680   14.7161   41.9799 H   0  0  0  0  0  0  0  0  0  0  0  0
   -1.4832   17.8413   43.8219 H   0  0  0  0  0  0  0  0  0  0  0  0
    4.1723   17.7922   40.1149 H   0  0  0  0  0  0  0  0  0  0  0  0
    2.7618   16.7351   39.4840 H   0  0  0  0  0  0  0  0  0  0  0  0
    4.3775   16.5212   38.0086 H   0  0  0  0  0  0  0  0  0  0  0  0
    2.2295   12.2460   41.8650 H   0  0  0  0  0  0  0  0  0  0  0  0
    2.4824   21.6068   39.1501 H   0  0  0  0  0  0  0  0  0  0  0  0
    1.0754   21.0335   38.2849 H   0  0  0  0  0  0  0  0  0  0  0  0
    0.9437   22.2528   40.7914 H   0  0  0  0  0  0  0  0  0  0  0  0
  2 24  1  0
  2 16  2  0
  3 19  2  0
  4 10  1  0
  6  3  1  0
  6 25  2  0
  7  5  2  0
  8  2  1  0
  9 23  1  0
 10 23  2  0
 10 11  1  0
 12  8  1  0
 12 18  2  0
 13 20  1  0
 13  4  2  0
 14  8  2  0
 15 11  2  0
 16  3  1  0
 17 16  1  0
 18 17  1  0
 19 21  1  0
 19  5  1  0
 20  9  2  0
 21 15  1  0
 22 21  2  0
 22  4  1  0
 23  1  1  0
 24  6  1  0
 25  7  1  0
  1 26  1  0
  1 27  1  0
  1 28  1  0
  5 29  1  0
  7 30  1  0
  9 31  1  0
 13 32  1  0
 15 33  1  0
 17 34  1  0
 17 35  1  0
 18 36  1  0
 20 37  1  0
 24 38  1  0
 24 39  1  0
 25 40  1  0
M  END
>  <mol_id>  (40) 
2026-08-23-6tgu-s0-n100-prep-0041

>  <rmsd_to_ref>  (40) 


$$$$

     RDKit          3D

 42 46  0  0  0  0  0  0  0  0999 V2000
    3.3649   14.6842   40.4948 S   0  0  0  0  0  0  0  0  0  0  0  0
    1.4268   14.7803   42.5133 N   0  0  0  0  0  0  0  0  0  0  0  0
    3.6164   20.6928   36.2854 O   0  0  0  0  0  0  0  0  0  0  0  0
   -0.2195   15.8486   44.1633 C   0  0  0  0  0  0  0  0  0  0  0  0
    0.9746   17.0273   42.4478 C   0  0  0  0  0  0  0  0  0  0  0  0
   -0.9050   17.0398   44.4879 C   0  0  0  0  0  0  0  0  0  0  0  0
    1.9871   16.7528   41.4628 O   0  0  0  0  0  0  0  0  0  0  0  0
    2.8495   20.5982   37.1909 C   0  0  0  0  0  0  0  0  0  0  0  0
    3.3661   15.9854   38.1742 C   0  0  0  0  0  0  0  0  0  0  0  0
    1.5808   21.0328   40.5307 C   0  0  0  0  0  0  0  0  0  0  0  0
    1.6085   21.3457   39.1378 O   0  0  0  0  0  0  0  0  0  0  0  0
    1.9543   20.3774   38.2093 C   0  0  2  0  0  0  0  0  0  0  0  0
    2.1878   15.3652   41.5485 C   0  0  0  0  0  0  0  0  0  0  0  0
    0.2733   19.5580   42.1595 C   0  0  0  0  0  0  0  0  0  0  0  0
    3.6945   18.4660   38.3578 N   0  0  0  0  0  0  0  0  0  0  0  0
   -1.1705   19.4590   43.8447 N   0  0  0  0  0  0  0  0  0  0  0  0
    2.7250   15.0459   38.9519 C   0  0  0  0  0  0  0  0  0  0  0  0
    4.0898   17.3304   38.1752 C   0  0  0  0  0  0  0  0  0  0  0  0
    0.3063   18.2449   42.7742 C   0  0  0  0  0  0  0  0  0  0  0  0
   -0.6407   20.2788   42.9629 C   0  0  0  0  0  0  0  0  0  0  0  0
   -0.6353   18.2265   43.7943 C   0  0  0  0  0  0  0  0  0  0  0  0
    3.1717   19.5772   38.3755 C   0  0  1  0  0  0  0  0  0  0  0  0
    1.0625   19.9186   41.0578 C   0  0  0  0  0  0  0  0  0  0  0  0
    0.6864   15.8614   43.1014 C   0  0  0  0  0  0  0  0  0  0  0  0
   -0.3963   14.9269   44.7372 H   0  0  0  0  0  0  0  0  0  0  0  0
   -1.9770   16.8331   44.3540 H   0  0  0  0  0  0  0  0  0  0  0  0
   -0.5487   17.2611   45.5049 H   0  0  0  0  0  0  0  0  0  0  0  0
    2.5754   16.1954   37.4389 H   0  0  0  0  0  0  0  0  0  0  0  0
    4.3228   15.4606   38.3135 H   0  0  0  0  0  0  0  0  0  0  0  0
    1.0372   21.8623   41.0065 H   0  0  0  0  0  0  0  0  0  0  0  0
    2.6512   20.8590   40.7153 H   0  0  0  0  0  0  0  0  0  0  0  0
    0.8889   20.1060   38.1728 H   0  0  0  0  0  0  0  0  0  0  0  0
    4.6462   18.8580   38.3195 H   0  0  0  0  0  0  0  0  0  0  0  0
    2.7645   18.0687   38.5531 H   0  0  0  0  0  0  0  0  0  0  0  0
    1.6944   15.3994   39.1034 H   0  0  0  0  0  0  0  0  0  0  0  0
    2.8400   14.1083   38.3881 H   0  0  0  0  0  0  0  0  0  0  0  0
    4.8716   17.2029   38.9384 H   0  0  0  0  0  0  0  0  0  0  0  0
    4.2037   17.4118   37.0841 H   0  0  0  0  0  0  0  0  0  0  0  0
   -0.8708   21.3501   42.8662 H   0  0  0  0  0  0  0  0  0  0  0  0
    3.7799   19.2959   39.2477 H   0  0  0  0  0  0  0  0  0  0  0  0
    0.4759   19.5200   40.2169 H   0  0  0  0  0  0  0  0  0  0  0  0
    2.0028   19.6349   41.5531 H   0  0  0  0  0  0  0  0  0  0  0  0
  1 13  1  0
  2 24  1  0
  3  8  2  0
  4  6  1  0
  5 19  2  0
  5 24  1  0
  7 13  1  0
  7  5  1  0
  9 18  1  0
  9 17  1  0
 10 23  1  0
 11 10  1  0
 12  8  1  0
 12 22  1  0
 12 11  1  0
 13  2  2  0
 14 19  1  0
 14 20  2  0
 15 22  1  0
 17  1  1  0
 18 15  1  0
 19 21  1  0
 20 16  1  0
 21 16  2  0
 21  6  1  0
 22  8  1  0
 23 14  1  0
 24  4  2  0
  4 25  1  0
  6 26  1  0
  6 27  1  0
  9 28  1  0
  9 29  1  0
 10 30  1  0
 10 31  1  0
 12 32  1  6
 15 33  1  0
 15 34  1  0
 17 35  1  0
 17 36  1  0
 18 37  1  0
 18 38  1  0
 20 39  1  0
 22 40  1  1
 23 41  1  0
 23 42  1  0
M  CHG  1  15   1
M  END
>  <mol_id>  (41) 
2026-08-23-6tgu-s0-n100-prep-0042

>  <rmsd_to_ref>  (41) 


$$$$

     RDKit          3D

 57 61  0  0  0  0  0  0  0  0999 V2000
    2.5565   20.9403   37.3532 C   0  0  0  0  0  0  0  0  0  0  0  0
    1.0071   14.5760   42.4724 C   0  0  0  0  0  0  0  0  0  0  0  0
    2.4331   13.4726   41.2970 C   0  0  0  0  0  0  0  0  0  0  0  0
   -0.8637   13.4658   47.1574 C   0  0  0  0  0  0  0  0  0  0  0  0
   -0.6250   14.1635   48.2417 O   0  0  0  0  0  0  0  0  0  0  0  0
   -0.2439   16.7682   43.5677 C   0  0  0  0  0  0  0  0  0  0  0  0
    1.6800   20.2664   39.4508 C   0  0  0  0  0  0  0  0  0  0  0  0
    2.5223   16.5759   39.9669 N   0  0  0  0  0  0  0  0  0  0  0  0
    4.2913   14.8158   37.0041 O   0  0  0  0  0  0  0  0  0  0  0  0
    0.1902   14.2581   43.5203 C   0  0  0  0  0  0  0  0  0  0  0  0
    4.5908   18.3624   36.4556 N   0  0  0  0  0  0  0  0  0  0  0  0
    2.5379   19.2026   39.2721 C   0  0  0  0  0  0  0  0  0  0  0  0
    6.0247   15.7677   36.3106 N   0  0  0  0  0  0  0  0  0  0  0  0
   -0.9788   14.9620   45.1418 N   0  0  0  0  0  0  0  0  0  0  0  0
    3.7319   21.5414   35.4265 C   0  0  0  0  0  0  0  0  0  0  0  0
    2.6543   14.4308   40.4191 C   0  0  0  0  0  0  0  0  0  0  0  0
    4.0008   16.6518   37.8418 C   0  0  0  0  0  0  0  0  0  0  0  0
    2.6975   21.6699   36.3031 C   0  0  0  0  0  0  0  0  0  0  0  0
    1.4467   13.4681   42.2035 C   0  0  0  0  0  0  0  0  0  0  0  0
    4.5671   20.4414   35.5378 C   0  0  0  0  0  0  0  0  0  0  0  0
    3.2341   19.7974   37.2815 C   0  0  0  0  0  0  0  0  0  0  0  0
    4.7784   15.6910   37.1195 C   0  0  0  0  0  0  0  0  0  0  0  0
   -0.5225   15.6288   44.2893 C   0  0  0  0  0  0  0  0  0  0  0  0
   -0.5465   13.8924   46.0281 C   0  0  0  0  0  0  0  0  0  0  0  0
    1.3541   15.7771   41.9132 C   0  0  0  0  0  0  0  0  0  0  0  0
    2.1761   15.6567   40.7537 C   0  0  0  0  0  0  0  0  0  0  0  0
    3.4038   16.2891   38.9792 N   0  0  0  0  0  0  0  0  0  0  0  0
    3.1670   18.9621   38.2011 C   0  0  0  0  0  0  0  0  0  0  0  0
    6.5356   14.3820   35.7972 C   0  0  0  0  0  0  0  0  0  0  0  0
    4.1551   19.5525   36.4992 C   0  0  0  0  0  0  0  0  0  0  0  0
    0.6097   16.8584   42.4859 N   0  0  0  0  0  0  0  0  0  0  0  0
    3.8317   17.9106   37.5391 C   0  0  0  0  0  0  0  0  0  0  0  0
    1.6770   21.0767   38.3846 C   0  0  0  0  0  0  0  0  0  0  0  0
   -1.1678   12.1731   46.9045 O   0  0  0  0  0  0  0  0  0  0  0  0
    3.3636   13.3874   41.8773 H   0  0  0  0  0  0  0  0  0  0  0  0
    2.0883   12.6700   40.6283 H   0  0  0  0  0  0  0  0  0  0  0  0
   -0.7488   17.6934   43.8826 H   0  0  0  0  0  0  0  0  0  0  0  0
    1.0746   20.4292   40.3546 H   0  0  0  0  0  0  0  0  0  0  0  0
    0.0038   13.2235   43.8441 H   0  0  0  0  0  0  0  0  0  0  0  0
    5.2678   17.8926   35.8376 H   0  0  0  0  0  0  0  0  0  0  0  0
    2.6858   18.5158   40.1185 H   0  0  0  0  0  0  0  0  0  0  0  0
    6.5077   16.6543   36.1071 H   0  0  0  0  0  0  0  0  0  0  0  0
   -1.9660   15.2031   45.3097 H   0  0  0  0  0  0  0  0  0  0  0  0
    3.9012   22.2967   34.6450 H   0  0  0  0  0  0  0  0  0  0  0  0
    2.1869   14.1333   39.4688 H   0  0  0  0  0  0  0  0  0  0  0  0
    3.7475   14.5401   40.3629 H   0  0  0  0  0  0  0  0  0  0  0  0
    1.9396   22.4413   36.1017 H   0  0  0  0  0  0  0  0  0  0  0  0
    0.6213   12.8555   41.8118 H   0  0  0  0  0  0  0  0  0  0  0  0
    1.8742   13.0641   43.1330 H   0  0  0  0  0  0  0  0  0  0  0  0
    5.4659   20.2958   34.9205 H   0  0  0  0  0  0  0  0  0  0  0  0
   -0.6704   13.0001   45.3968 H   0  0  0  0  0  0  0  0  0  0  0  0
    0.3309   14.4445   46.3959 H   0  0  0  0  0  0  0  0  0  0  0  0
    3.7927   15.3647   39.2142 H   0  0  0  0  0  0  0  0  0  0  0  0
    6.6654   13.7000   36.6504 H   0  0  0  0  0  0  0  0  0  0  0  0
    5.8017   13.9572   35.0966 H   0  0  0  0  0  0  0  0  0  0  0  0
    7.4992   14.5140   35.2833 H   0  0  0  0  0  0  0  0  0  0  0  0
    0.9334   21.8862   38.3398 H   0  0  0  0  0  0  0  0  0  0  0  0
  1 21  1  0
  1 33  1  0
  2 10  1  0
  3 19  1  0
  4  5  1  0
  6 23  1  0
  8 26  2  3
 10 23  2  0
 11 32  1  0
 12  7  1  0
 13 22  1  0
 14 24  1  0
 15 20  2  0
 15 18  1  0
 16 26  1  0
 16  3  1  0
 17 27  1  0
 18  1  2  0
 19  2  1  0
 20 30  1  0
 21 28  1  0
 22  9  2  0
 22 17  1  0
 23 14  1  0
 24  4  1  0
 25 31  1  0
 25  2  2  0
 26 25  1  0
 27  8  1  0
 28 12  2  0
 29 13  1  0
 30 11  1  0
 30 21  2  0
 31  6  2  0
 32 17  2  3
 32 28  1  0
 33  7  2  0
 34  4  2  0
  3 35  1  0
  3 36  1  0
  6 37  1  0
  7 38  1  0
 10 39  1  0
 11 40  1  0
 12 41  1  0
 13 42  1  0
 14 43  1  0
 15 44  1  0
 16 45  1  0
 16 46  1  0
 18 47  1  0
 19 48  1  0
 19 49  1  0
 20 50  1  0
 24 51  1  0
 24 52  1  0
 27 53  1  0
 29 54  1  0
 29 55  1  0
 29 56  1  0
 33 57  1  0
M  CHG  1   5  -1
M  END
>  <mol_id>  (42) 
2026-08-23-6tgu-s0-n100-prep-0043

>  <rmsd_to_ref>  (42) 


$$$$

     RDKit          3D

 32 34  0  0  0  0  0  0  0  0999 V2000
    0.9085   20.2129   40.9109 C   0  0  0  0  0  0  0  0  0  0  0  0
    3.5157   16.8237   38.5412 C   0  0  0  0  0  0  0  0  0  0  0  0
    2.0399   17.1186   40.4384 N   0  0  0  0  0  0  0  0  0  0  0  0
    4.1709   17.0875   37.3482 C   0  0  0  0  0  0  0  0  0  0  0  0
    2.8062   17.7976   39.1701 C   0  0  0  0  0  0  0  0  0  0  0  0
    3.4288   19.2368   37.2841 C   0  0  0  0  0  0  0  0  0  0  0  0
    1.5227   18.0652   40.7421 C   0  0  0  0  0  0  0  0  0  0  0  0
    3.9890   18.1958   36.6816 N   0  0  0  0  0  0  0  0  0  0  0  0
    0.1510   17.2496   42.2585 C   0  0  0  0  0  0  0  0  0  0  0  0
   -0.7910   15.6534   43.3166 C   0  0  0  0  0  0  0  0  0  0  0  0
    0.5992   18.2230   41.5982 C   0  0  2  0  0  0  0  0  0  0  0  0
    2.7912   19.0380   38.5127 C   0  0  0  0  0  0  0  0  0  0  0  0
   -1.1801   14.1239   43.8913 Cl  0  0  0  0  0  0  0  0  0  0  0  0
   -0.8086   17.9198   43.1969 C   0  0  0  0  0  0  0  0  0  0  0  0
    3.4894   20.3281   36.6556 O   0  0  0  0  0  0  0  0  0  0  0  0
    0.1518   15.9520   42.2930 C   0  0  0  0  0  0  0  0  0  0  0  0
    0.2491   19.3467   41.8005 C   0  0  0  0  0  0  0  0  0  0  0  0
   -1.2440   16.8252   43.7117 N   0  0  0  0  0  0  0  0  0  0  0  0
    4.9004   16.1738   36.8391 O   0  0  0  0  0  0  0  0  0  0  0  0
    1.5209   19.3678   40.5264 N   0  0  0  0  0  0  0  0  0  0  0  0
   -0.6721   20.1585   42.2917 O   0  0  0  0  0  0  0  0  0  0  0  0
    0.8448   21.2879   40.6866 H   0  0  0  0  0  0  0  0  0  0  0  0
    3.5706   15.8176   38.9826 H   0  0  0  0  0  0  0  0  0  0  0  0
    2.0333   16.1630   40.8226 H   0  0  0  0  0  0  0  0  0  0  0  0
    4.2783   18.2612   35.6953 H   0  0  0  0  0  0  0  0  0  0  0  0
    1.3528   18.3145   42.3942 H   0  0  0  0  0  0  0  0  0  0  0  0
    3.2377   19.7612   39.2110 H   0  0  0  0  0  0  0  0  0  0  0  0
    1.7304   19.1400   38.2397 H   0  0  0  0  0  0  0  0  0  0  0  0
   -0.3086   18.5698   43.9300 H   0  0  0  0  0  0  0  0  0  0  0  0
   -1.5473   18.6112   42.7653 H   0  0  0  0  0  0  0  0  0  0  0  0
    0.7390   15.2526   41.6798 H   0  0  0  0  0  0  0  0  0  0  0  0
   -1.3144   19.8268   42.9680 H   0  0  0  0  0  0  0  0  0  0  0  0
  1 17  2  0
  2  5  2  0
  3  7  1  0
  4  2  1  0
  5  3  1  0
  6 12  1  0
  7 11  1  0
  8  6  1  0
  8  4  1  0
  9 16  2  0
  9 14  1  0
 10 18  2  0
 10 13  1  0
 11 17  1  0
 11  9  1  0
 12  5  1  0
 14 18  1  0
 15  6  2  0
 16 10  1  0
 17 21  1  0
 19  4  2  0
 20  7  2  0
 20  1  1  0
  1 22  1  0
  2 23  1  0
  3 24  1  0
  8 25  1  0
 11 26  1  6
 12 27  1  0
 12 28  1  0
 14 29  1  0
 14 30  1  0
 16 31  1  0
 21 32  1  0
M  END
>  <mol_id>  (43) 
2026-08-23-6tgu-s0-n100-prep-0044

>  <rmsd_to_ref>  (43) 


$$$$

     RDKit          3D

 55 58  0  0  0  0  0  0  0  0999 V2000
   -0.9823   13.5930   45.8611 C   0  0  0  0  0  0  0  0  0  0  0  0
   -2.0143   12.6522   46.4735 C   0  0  0  0  0  0  0  0  0  0  0  0
    2.1592   19.1209   39.6770 C   0  0  0  0  0  0  0  0  0  0  0  0
    3.1586   18.5489   38.9089 C   0  0  1  0  0  0  0  0  0  0  0  0
    4.6669   14.3517   39.2802 C   0  0  0  0  0  0  0  0  0  0  0  0
   -1.9386   17.2966   41.9683 C   0  0  0  0  0  0  0  0  0  0  0  0
   -0.8770   14.9086   44.0694 N   0  0  0  0  0  0  0  0  0  0  0  0
    5.6006   13.3757   39.1877 O   0  0  0  0  0  0  0  0  0  0  0  0
   -0.7288   16.8835   42.8771 C   0  0  2  0  0  0  0  0  0  0  0  0
   -1.3705   13.7543   44.4122 N   0  0  0  0  0  0  0  0  0  0  0  0
    3.8317   19.1802   37.7178 C   0  0  0  0  0  0  0  0  0  0  0  0
    3.5855   17.3094   39.2048 N   0  0  0  0  0  0  0  0  0  0  0  0
    3.3806   20.4274   37.2692 N   0  0  0  0  0  0  0  0  0  0  0  0
    5.1568   15.4294   38.6786 C   0  0  0  0  0  0  0  0  0  0  0  0
   -2.2915   11.5051   44.3385 C   0  0  0  0  0  0  0  0  0  0  0  0
    0.7807   18.4750   41.4788 N   0  0  0  0  0  0  0  0  0  0  0  0
    0.5779   17.3713   42.2605 C   0  0  0  0  0  0  0  0  0  0  0  0
    6.3703   15.1541   38.1712 N   0  0  0  0  0  0  0  0  0  0  0  0
   -1.1340   12.4375   43.8759 C   0  0  0  0  0  0  0  0  0  0  0  0
    6.6987   13.8902   38.4776 C   0  0  0  0  0  0  0  0  0  0  0  0
    1.5981   16.6187   42.3076 O   0  0  0  0  0  0  0  0  0  0  0  0
    4.5378   16.7290   38.4006 C   0  0  0  0  0  0  0  0  0  0  0  0
    5.1426   17.2986   37.4185 N   0  0  0  0  0  0  0  0  0  0  0  0
   -2.0072   11.3162   45.7649 O   0  0  0  0  0  0  0  0  0  0  0  0
    1.6945   18.2288   40.6406 C   0  0  0  0  0  0  0  0  0  0  0  0
    1.5827   20.3664   39.6357 C   0  0  0  0  0  0  0  0  0  0  0  0
   -0.7567   15.3854   42.9066 N   0  0  0  0  0  0  0  0  0  0  0  0
    0.4684   20.5852   40.4389 C   0  0  0  0  0  0  0  0  0  0  0  0
    0.0877   19.6478   41.3923 C   0  0  0  0  0  0  0  0  0  0  0  0
    4.7952   18.5491   37.0306 N   0  0  0  0  0  0  0  0  0  0  0  0
   -1.0025   14.5668   46.3724 H   0  0  0  0  0  0  0  0  0  0  0  0
    0.0369   13.1916   45.9617 H   0  0  0  0  0  0  0  0  0  0  0  0
   -1.7767   12.4983   47.5365 H   0  0  0  0  0  0  0  0  0  0  0  0
   -3.0117   13.1037   46.3665 H   0  0  0  0  0  0  0  0  0  0  0  0
    2.3988   18.1263   38.2350 H   0  0  0  0  0  0  0  0  0  0  0  0
    3.6830   14.2674   39.7647 H   0  0  0  0  0  0  0  0  0  0  0  0
   -2.7923   17.5807   42.6011 H   0  0  0  0  0  0  0  0  0  0  0  0
   -1.6491   18.1504   41.3382 H   0  0  0  0  0  0  0  0  0  0  0  0
   -2.2229   16.4483   41.3283 H   0  0  0  0  0  0  0  0  0  0  0  0
   -1.4492   15.5986   44.5769 H   0  0  0  0  0  0  0  0  0  0  0  0
   -0.7987   17.3187   43.8849 H   0  0  0  0  0  0  0  0  0  0  0  0
    3.8280   20.8751   36.4565 H   0  0  0  0  0  0  0  0  0  0  0  0
    2.6013   20.8973   37.7517 H   0  0  0  0  0  0  0  0  0  0  0  0
   -2.2675   10.5465   43.7994 H   0  0  0  0  0  0  0  0  0  0  0  0
   -3.2906   11.9229   44.1454 H   0  0  0  0  0  0  0  0  0  0  0  0
   -0.1738   12.0512   44.2487 H   0  0  0  0  0  0  0  0  0  0  0  0
   -1.0960   12.4773   42.7772 H   0  0  0  0  0  0  0  0  0  0  0  0
    7.6324   13.3661   38.2257 H   0  0  0  0  0  0  0  0  0  0  0  0
    5.8962   16.8004   36.9236 H   0  0  0  0  0  0  0  0  0  0  0  0
    1.3485   17.3473   40.0809 H   0  0  0  0  0  0  0  0  0  0  0  0
    2.5679   18.1868   41.3079 H   0  0  0  0  0  0  0  0  0  0  0  0
    1.9868   21.1613   38.9915 H   0  0  0  0  0  0  0  0  0  0  0  0
   -1.5522   15.0625   42.3375 H   0  0  0  0  0  0  0  0  0  0  0  0
   -0.1171   21.5086   40.3186 H   0  0  0  0  0  0  0  0  0  0  0  0
   -0.7584   19.8480   42.0662 H   0  0  0  0  0  0  0  0  0  0  0  0
  1  2  1  0
  3 26  2  0
  3 25  1  0
  4 12  1  0
  4  3  1  0
  7 10  1  0
  8  5  1  0
  9  6  1  0
 10  1  1  0
 11  4  1  0
 13 11  1  0
 14 22  1  0
 14  5  2  0
 15 24  1  0
 16 29  1  0
 16 17  1  0
 17  9  1  0
 18 20  2  0
 18 14  1  0
 19 15  1  0
 19 10  1  0
 20  8  1  0
 21 17  2  0
 22 12  2  0
 23 22  1  0
 24  2  1  0
 25 16  1  0
 26 28  1  0
 27  9  1  0
 27  7  1  0
 28 29  2  0
 30 23  1  0
 30 11  2  0
  1 31  1  0
  1 32  1  0
  2 33  1  0
  2 34  1  0
  4 35  1  6
  5 36  1  0
  6 37  1  0
  6 38  1  0
  6 39  1  0
  7 40  1  0
  9 41  1  1
 13 42  1  0
 13 43  1  0
 15 44  1  0
 15 45  1  0
 19 46  1  0
 19 47  1  0
 20 48  1  0
 23 49  1  0
 25 50  1  0
 25 51  1  0
 26 52  1  0
 27 53  1  0
 28 54  1  0
 29 55  1  0
M  END
>  <mol_id>  (44) 
2026-08-23-6tgu-s0-n100-prep-0045

>  <rmsd_to_ref>  (44) 


$$$$

     RDKit          3D

 59 65  0  0  0  0  0  0  0  0999 V2000
   -1.3466   14.5378   45.4579 C   0  0  0  0  0  0  0  0  0  0  0  0
    1.1231   21.2214   41.3858 C   0  0  0  0  0  0  0  0  0  0  0  0
   -0.3752   19.6187   42.9461 C   0  0  0  0  0  0  0  0  0  0  0  0
   -1.1635   20.4562   43.1989 O   0  0  0  0  0  0  0  0  0  0  0  0
    1.9815   20.8899   40.2000 O   0  0  0  0  0  0  0  0  0  0  0  0
    4.6103   16.0610   38.5146 C   0  0  0  0  0  0  0  0  0  0  0  0
    2.6619   20.5462   37.4947 O   0  0  0  0  0  0  0  0  0  0  0  0
    4.3080   19.1549   36.9923 C   0  0  0  0  0  0  0  0  0  0  0  0
    3.7874   21.0824   35.5241 C   0  0  0  0  0  0  0  0  0  0  0  0
    2.4982   14.8286   40.9652 O   0  0  0  0  0  0  0  0  0  0  0  0
    1.9107   17.0088   40.8309 C   0  0  2  0  0  0  0  0  0  0  0  0
    0.6469   19.9094   41.9207 C   0  0  0  0  0  0  0  0  0  0  0  0
    2.7330   18.7087   39.1671 C   0  0  2  0  0  0  0  0  0  0  0  0
   -1.2842   16.9139   45.4933 C   0  0  0  0  0  0  0  0  0  0  0  0
    4.9810   13.9271   38.4489 C   0  0  0  0  0  0  0  0  0  0  0  0
    2.7514   16.1429   40.2472 C   0  0  2  0  0  0  0  0  0  0  0  0
    5.4011   15.1113   37.9347 C   0  0  0  0  0  0  0  0  0  0  0  0
   -0.9798   15.7066   44.9300 C   0  0  0  0  0  0  0  0  0  0  0  0
    3.5840   20.2255   36.7250 C   0  0  0  0  0  0  0  0  0  0  0  0
    2.4815   17.3094   39.6381 C   0  0  1  0  0  0  0  0  0  0  0  0
    0.5998   17.3456   42.8205 C   0  0  0  0  0  0  0  0  0  0  0  0
    3.8159   15.4394   39.4476 C   0  0  1  0  0  0  0  0  0  0  0  0
   -0.4388   18.2590   43.6033 C   0  0  0  0  0  0  0  0  0  0  0  0
   -1.9574   14.5266   46.7418 C   0  0  0  0  0  0  0  0  0  0  0  0
   -1.9907   16.9400   46.7101 C   0  0  0  0  0  0  0  0  0  0  0  0
    4.1035   18.5929   38.4225 C   0  0  1  0  0  0  0  0  0  0  0  0
    1.2149   17.6895   41.6731 C   0  0  1  0  0  0  0  0  0  0  0  0
   -2.1584   13.4121   47.2974 O   0  0  0  0  0  0  0  0  0  0  0  0
    3.6622   22.5495   35.6957 C   0  0  0  0  0  0  0  0  0  0  0  0
   -0.9346   18.1439   44.9058 N   0  0  0  0  0  0  0  0  0  0  0  0
    1.3216   19.0050   41.2602 C   0  0  0  0  0  0  0  0  0  0  0  0
   -0.3298   15.4981   43.7817 F   0  0  0  0  0  0  0  0  0  0  0  0
    4.2036   20.5821   34.4271 O   0  0  0  0  0  0  0  0  0  0  0  0
    4.0015   14.1140   39.3501 C   0  0  0  0  0  0  0  0  0  0  0  0
    4.5074   17.2874   38.1236 O   0  0  0  0  0  0  0  0  0  0  0  0
    2.3574   19.5198   40.4266 C   0  0  2  0  0  0  0  0  0  0  0  0
   -2.3511   15.6925   47.3023 C   0  0  0  0  0  0  0  0  0  0  0  0
   -1.1796   13.5991   44.9094 H   0  0  0  0  0  0  0  0  0  0  0  0
    0.2691   21.8431   41.0790 H   0  0  0  0  0  0  0  0  0  0  0  0
    1.6811   21.7903   42.1441 H   0  0  0  0  0  0  0  0  0  0  0  0
    5.3696   19.4173   36.8728 H   0  0  0  0  0  0  0  0  0  0  0  0
    3.9830   18.3699   36.2936 H   0  0  0  0  0  0  0  0  0  0  0  0
    2.3488   15.0021   41.9283 H   0  0  0  0  0  0  0  0  0  0  0  0
    1.2461   16.8719   41.6966 H   0  0  0  0  0  0  0  0  0  0  0  0
    2.1868   19.2762   38.3993 H   0  0  0  0  0  0  0  0  0  0  0  0
    5.3882   12.9452   38.1656 H   0  0  0  0  0  0  0  0  0  0  0  0
    6.2083   15.2716   37.2049 H   0  0  0  0  0  0  0  0  0  0  0  0
    2.5370   17.4753   38.5521 H   0  0  0  0  0  0  0  0  0  0  0  0
    0.8336   16.3593   43.2478 H   0  0  0  0  0  0  0  0  0  0  0  0
    3.7705   15.7634   40.4978 H   0  0  0  0  0  0  0  0  0  0  0  0
   -2.2572   17.8932   47.1903 H   0  0  0  0  0  0  0  0  0  0  0  0
    4.6347   19.1719   39.1922 H   0  0  0  0  0  0  0  0  0  0  0  0
    0.3003   17.4499   41.1110 H   0  0  0  0  0  0  0  0  0  0  0  0
    3.4860   22.7808   36.7566 H   0  0  0  0  0  0  0  0  0  0  0  0
    4.5899   23.0380   35.3631 H   0  0  0  0  0  0  0  0  0  0  0  0
    2.8179   22.9182   35.0948 H   0  0  0  0  0  0  0  0  0  0  0  0
    3.4576   13.3324   39.9008 H   0  0  0  0  0  0  0  0  0  0  0  0
    3.3298   19.4335   40.9337 H   0  0  0  0  0  0  0  0  0  0  0  0
   -2.9541   15.6793   48.2222 H   0  0  0  0  0  0  0  0  0  0  0  0
  1 24  1  0
  2 12  1  0
  3  4  2  0
  3 23  1  0
  5  2  1  0
  6 22  1  0
  8 26  1  0
  9 29  1  0
  9 19  1  0
 11 27  1  0
 12  3  1  0
 13 20  1  0
 13 36  1  0
 14 25  1  0
 15 34  2  0
 16 10  1  6
 16 11  1  0
 17 15  1  0
 17  6  2  0
 18  1  2  0
 18 14  1  0
 19  8  1  0
 19  7  2  0
 20 16  1  0
 20 11  1  0
 21 23  2  0
 22 16  1  0
 23 30  1  0
 24 28  2  0
 24 37  1  0
 25 37  2  0
 26 13  1  0
 27 21  1  0
 30 14  2  3
 31 27  1  0
 31 12  2  0
 32 18  1  0
 33  9  2  0
 34 22  1  0
 35  6  1  0
 35 26  1  0
 36  5  1  0
 36 31  1  0
  1 38  1  0
  2 39  1  0
  2 40  1  0
  8 41  1  0
  8 42  1  0
 10 43  1  0
 11 44  1  6
 13 45  1  6
 15 46  1  0
 17 47  1  0
 20 48  1  6
 21 49  1  0
 22 50  1  1
 25 51  1  0
 26 52  1  1
 27 53  1  6
 29 54  1  0
 29 55  1  0
 29 56  1  0
 34 57  1  0
 36 58  1  1
 37 59  1  0
M  END
>  <mol_id>  (45) 
2026-08-23-6tgu-s0-n100-prep-0046

>  <rmsd_to_ref>  (45) 


$$$$

     RDKit          3D

 43 46  0  0  0  0  0  0  0  0999 V2000
   -1.0187   19.0719   43.2329 C   0  0  0  0  0  0  0  0  0  0  0  0
    1.7214   15.3522   41.8254 C   0  0  0  0  0  0  0  0  0  0  0  0
    4.1175   15.1054   39.0456 C   0  0  0  0  0  0  0  0  0  0  0  0
    2.3085   13.9823   41.9237 C   0  0  1  0  0  0  0  0  0  0  0  0
    2.0967   21.8634   36.7629 F   0  0  0  0  0  0  0  0  0  0  0  0
    2.1684   15.9950   40.7913 C   0  0  0  0  0  0  0  0  0  0  0  0
   -0.1797   20.1495   41.4655 C   0  0  0  0  0  0  0  0  0  0  0  0
    1.8965   12.8869   42.8746 C   0  0  0  0  0  0  0  0  0  0  0  0
    2.7078   18.1999   38.3649 C   0  0  0  0  0  0  0  0  0  0  0  0
   -1.9171   17.9061   45.1039 O   0  0  0  0  0  0  0  0  0  0  0  0
    1.5677   17.3903   40.7231 C   0  0  0  0  0  0  0  0  0  0  0  0
    1.6052   20.4913   38.5379 C   0  0  0  0  0  0  0  0  0  0  0  0
    2.6453   17.2521   38.8636 O   0  0  0  0  0  0  0  0  0  0  0  0
    0.3664   16.6830   42.5907 N   0  0  0  0  0  0  0  0  0  0  0  0
    3.2568   19.8854   36.7516 C   0  0  0  0  0  0  0  0  0  0  0  0
   -1.2012   17.9452   44.0603 C   0  0  0  0  0  0  0  0  0  0  0  0
    1.7017   18.4737   40.0461 C   0  0  0  0  0  0  0  0  0  0  0  0
    3.1665   15.0244   40.2346 C   0  0  0  0  0  0  0  0  0  0  0  0
    3.4605   18.5815   37.2570 C   0  0  0  0  0  0  0  0  0  0  0  0
   -1.6056   20.2301   43.3422 N   0  0  0  0  0  0  0  0  0  0  0  0
    1.7737   19.2483   39.0461 C   0  0  0  0  0  0  0  0  0  0  0  0
   -0.5085   16.6607   43.6978 C   0  0  0  0  0  0  0  0  0  0  0  0
    3.1949   13.8030   41.1265 N   0  0  0  0  0  0  0  0  0  0  0  0
   -1.1697   20.8972   42.3687 C   0  0  0  0  0  0  0  0  0  0  0  0
   -0.1216   18.9013   42.1772 C   0  0  0  0  0  0  0  0  0  0  0  0
    0.5857   17.6944   41.9333 C   0  0  0  0  0  0  0  0  0  0  0  0
    2.2921   20.7180   37.3369 C   0  0  0  0  0  0  0  0  0  0  0  0
    0.9977   15.7657   42.5431 H   0  0  0  0  0  0  0  0  0  0  0  0
    5.1439   15.2662   39.4073 H   0  0  0  0  0  0  0  0  0  0  0  0
    4.0727   14.1657   38.4755 H   0  0  0  0  0  0  0  0  0  0  0  0
    3.8222   15.9427   38.3962 H   0  0  0  0  0  0  0  0  0  0  0  0
    3.0382   14.3480   42.6611 H   0  0  0  0  0  0  0  0  0  0  0  0
    0.3329   20.4722   40.5472 H   0  0  0  0  0  0  0  0  0  0  0  0
    1.8981   13.2751   43.9039 H   0  0  0  0  0  0  0  0  0  0  0  0
    0.8859   12.5378   42.6160 H   0  0  0  0  0  0  0  0  0  0  0  0
    2.6048   12.0488   42.7976 H   0  0  0  0  0  0  0  0  0  0  0  0
    0.9833   21.2571   39.0247 H   0  0  0  0  0  0  0  0  0  0  0  0
    3.8536   20.2465   35.9010 H   0  0  0  0  0  0  0  0  0  0  0  0
    4.1848   17.8952   36.7937 H   0  0  0  0  0  0  0  0  0  0  0  0
   -2.2759   20.5318   44.0637 H   0  0  0  0  0  0  0  0  0  0  0  0
   -1.2881   15.9140   43.4868 H   0  0  0  0  0  0  0  0  0  0  0  0
    0.1362   16.4365   44.5604 H   0  0  0  0  0  0  0  0  0  0  0  0
   -1.4749   21.9369   42.1793 H   0  0  0  0  0  0  0  0  0  0  0  0
  1 20  1  0
  1 16  1  0
  3 18  1  0
  4  2  1  0
  4  8  1  0
  5 27  1  0
  6 11  1  0
  6  2  2  0
  7 25  1  0
  7 24  2  0
  9 13  2  0
  9 21  1  0
 11 26  1  0
 12 21  1  0
 14 22  1  0
 15 19  2  0
 15 27  1  0
 16 10  2  0
 17 11  2  0
 18  6  1  0
 18 23  2  0
 19  9  1  0
 21 17  2  0
 22 16  1  0
 23  4  1  0
 24 20  1  0
 25  1  2  0
 26 25  1  0
 26 14  2  0
 27 12  2  0
  2 28  1  0
  3 29  1  0
  3 30  1  0
  3 31  1  0
  4 32  1  1
  7 33  1  0
  8 34  1  0
  8 35  1  0
  8 36  1  0
 12 37  1  0
 15 38  1  0
 19 39  1  0
 20 40  1  0
 22 41  1  0
 22 42  1  0
 24 43  1  0
M  END
>  <mol_id>  (46) 
2026-08-23-6tgu-s0-n100-prep-0047

>  <rmsd_to_ref>  (46) 


$$$$

     RDKit          3D

 59 62  0  0  0  0  0  0  0  0999 V2000
    2.6903   18.3942   38.4967 C   0  0  0  0  0  0  0  0  0  0  0  0
    3.3735   15.9278   37.6273 C   0  0  0  0  0  0  0  0  0  0  0  0
   -0.7106   13.8351   44.7026 N   0  0  0  0  0  0  0  0  0  0  0  0
    0.1533   11.6976   42.9765 S   0  0  0  0  0  4  0  0  0  0  0  0
    2.4341   17.2541   39.3129 N   0  0  0  0  0  0  0  0  0  0  0  0
   -1.1401   13.6796   46.9911 O   0  0  0  0  0  0  0  0  0  0  0  0
    1.3339   14.2583   41.9928 C   0  0  0  0  0  0  0  0  0  0  0  0
    3.0257   12.5177   40.2830 C   0  0  0  0  0  0  0  0  0  0  0  0
    1.1783   12.8349   42.0920 C   0  0  2  0  0  0  0  0  0  0  0  0
    3.5621   19.2380   36.2815 N   0  0  0  0  0  0  0  0  0  0  0  0
   -0.4571   18.7549   42.9354 C   0  0  2  0  0  0  0  0  0  0  0  0
    2.1026   20.3510   38.3823 C   0  0  0  0  0  0  0  0  0  0  0  0
   -0.7747   17.7441   44.3193 S   0  0  0  0  0  0  0  0  0  0  0  0
    2.1582   20.8343   37.2415 C   0  0  0  0  0  0  0  0  0  0  0  0
    3.5544   17.0170   36.8975 C   0  0  0  0  0  0  0  0  0  0  0  0
   -1.0032   14.4669   45.9791 C   0  0  0  0  0  0  0  0  0  0  0  0
   -0.7764   12.3680   44.4575 C   0  0  0  0  0  0  0  0  0  0  0  0
   -0.0550   17.0615   42.9272 C   0  0  0  0  0  0  0  0  0  0  0  0
   -1.1136   15.8469   46.0526 O   0  0  0  0  0  0  0  0  0  0  0  0
    0.2043   19.4332   41.8044 C   0  0  0  0  0  0  0  0  0  0  0  0
    1.5739   19.9525   39.7524 C   0  0  0  0  0  0  0  0  0  0  0  0
    3.2555   13.5917   39.4657 C   0  0  0  0  0  0  0  0  0  0  0  0
   -1.9144   11.6149   45.0457 C   0  0  0  0  0  0  0  0  0  0  0  0
    1.9037   14.9732   40.9360 C   0  0  0  0  0  0  0  0  0  0  0  0
   -1.3020   16.8933   46.9554 C   0  0  0  0  0  0  0  0  0  0  0  0
    3.5193   21.2644   35.2554 O   0  0  0  0  0  0  0  0  0  0  0  0
    0.9706   18.8667   40.7464 N   0  0  0  0  0  0  0  0  0  0  0  0
    2.1824   12.2349   41.2890 C   0  0  0  0  0  0  0  0  0  0  0  0
    2.6785   14.7689   39.8264 C   0  0  0  0  0  0  0  0  0  0  0  0
    3.0754   20.4999   36.1873 C   0  0  0  0  0  0  0  0  0  0  0  0
    2.8073   16.0292   38.9168 C   0  0  0  0  0  0  0  0  0  0  0  0
    0.1792   20.7128   41.5780 N   0  0  0  0  0  0  0  0  0  0  0  0
    3.2147   18.3552   37.2994 C   0  0  0  0  0  0  0  0  0  0  0  0
    0.7906   20.9472   40.4041 C   0  0  0  0  0  0  0  0  0  0  0  0
    2.4272   19.3812   38.9047 H   0  0  0  0  0  0  0  0  0  0  0  0
    3.6641   14.9443   37.2296 H   0  0  0  0  0  0  0  0  0  0  0  0
   -0.4399   14.4426   43.9161 H   0  0  0  0  0  0  0  0  0  0  0  0
    0.0441   10.3862   42.5957 H   0  0  0  0  0  0  0  0  0  0  0  0
    0.9640   14.8516   42.8421 H   0  0  0  0  0  0  0  0  0  0  0  0
    3.6994   11.6772   40.0601 H   0  0  0  0  0  0  0  0  0  0  0  0
    1.9112   12.8119   42.9119 H   0  0  0  0  0  0  0  0  0  0  0  0
    4.2241   18.9157   35.5612 H   0  0  0  0  0  0  0  0  0  0  0  0
   -0.9123   19.7561   42.9146 H   0  0  0  0  0  0  0  0  0  0  0  0
    1.4162   21.6123   37.0088 H   0  0  0  0  0  0  0  0  0  0  0  0
    4.0018   16.8878   35.9009 H   0  0  0  0  0  0  0  0  0  0  0  0
   -0.6294   16.3648   42.2989 H   0  0  0  0  0  0  0  0  0  0  0  0
    0.8614   16.4847   42.7337 H   0  0  0  0  0  0  0  0  0  0  0  0
    3.8764   13.5065   38.5617 H   0  0  0  0  0  0  0  0  0  0  0  0
   -1.8515   11.6538   46.1433 H   0  0  0  0  0  0  0  0  0  0  0  0
   -2.8620   12.0662   44.7165 H   0  0  0  0  0  0  0  0  0  0  0  0
   -1.8719   10.5673   44.7129 H   0  0  0  0  0  0  0  0  0  0  0  0
    1.6482   16.0395   41.0238 H   0  0  0  0  0  0  0  0  0  0  0  0
   -1.2538   16.5041   47.9831 H   0  0  0  0  0  0  0  0  0  0  0  0
   -0.5146   17.6478   46.8117 H   0  0  0  0  0  0  0  0  0  0  0  0
   -2.2863   17.3532   46.7833 H   0  0  0  0  0  0  0  0  0  0  0  0
    2.3145   11.1859   41.5925 H   0  0  0  0  0  0  0  0  0  0  0  0
   -0.2380   21.4258   42.1932 H   0  0  0  0  0  0  0  0  0  0  0  0
    1.4580   21.8057   40.5699 H   0  0  0  0  0  0  0  0  0  0  0  0
   -0.0611   21.0593   39.7170 H   0  0  0  0  0  0  0  0  0  0  0  0
  1  5  2  0
  2 31  2  0
  3 16  1  0
  4 17  2  3
  7  9  1  0
  8 28  2  0
  9  4  1  0
 10 33  1  0
 11 20  1  0
 11 18  1  0
 11 13  1  0
 12 21  2  0
 14 12  2  0
 15 33  2  0
 15  2  1  0
 16 19  1  0
 16  6  2  0
 17  3  1  0
 17 23  1  0
 18 13  1  0
 19 25  1  0
 21 34  1  0
 21 27  1  0
 22 29  2  0
 22  8  1  0
 24  7  2  0
 26 30  2  0
 27 20  2  0
 28  9  1  0
 29 24  1  0
 30 10  1  0
 30 14  1  0
 31  5  1  0
 31 29  1  0
 32 20  1  0
 33  1  1  0
 34 32  1  0
  1 35  1  0
  2 36  1  0
  3 37  1  0
  4 38  1  0
  7 39  1  0
  8 40  1  0
  9 41  1  6
 10 42  1  0
 11 43  1  6
 14 44  1  0
 15 45  1  0
 18 46  1  0
 18 47  1  0
 22 48  1  0
 23 49  1  0
 23 50  1  0
 23 51  1  0
 24 52  1  0
 25 53  1  0
 25 54  1  0
 25 55  1  0
 28 56  1  0
 32 57  1  0
 34 58  1  0
 34 59  1  0
M  END
>  <mol_id>  (47) 
2026-08-23-6tgu-s0-n100-prep-0048

>  <rmsd_to_ref>  (47) 


$$$$

     RDKit          3D

 30 32  0  0  0  0  0  0  0  0999 V2000
    0.8337   20.4181   41.6402 C   0  0  0  0  0  0  0  0  0  0  0  0
    1.5309   18.0453   41.1433 C   0  0  0  0  0  0  0  0  0  0  0  0
    0.7030   17.7135   42.3700 C   0  0  0  0  0  0  0  0  0  0  0  0
    3.3267   19.2575   37.4399 C   0  0  0  0  0  0  0  0  0  0  0  0
    4.1643   18.7104   36.8014 O   0  0  0  0  0  0  0  0  0  0  0  0
    2.7618   20.3277   37.0106 O   0  0  0  0  0  0  0  0  0  0  0  0
    0.0802   20.0016   42.6970 N   0  0  0  0  0  0  0  0  0  0  0  0
    4.1266   12.8407   38.6249 C   0  0  0  0  0  0  0  0  0  0  0  0
    1.5034   19.4353   40.7788 C   0  0  0  0  0  0  0  0  0  0  0  0
    2.2268   19.7371   39.6463 C   0  0  0  0  0  0  0  0  0  0  0  0
    2.8624   18.8055   38.8323 C   0  0  0  0  0  0  0  0  0  0  0  0
    2.4155   15.6635   40.5778 C   0  0  0  0  0  0  0  0  0  0  0  0
    3.5472   13.5722   39.6979 C   0  0  0  0  0  0  0  0  0  0  0  0
    0.7645   16.4443   42.7246 O   0  0  0  0  0  0  0  0  0  0  0  0
    0.9224   21.5977   41.3626 O   0  0  0  0  0  0  0  0  0  0  0  0
    3.9943   16.0917   38.5758 S   0  0  0  0  0  0  0  0  0  0  0  0
    0.0044   18.6847   43.0401 C   0  0  0  0  0  0  0  0  0  0  0  0
    3.0122   17.4469   39.2280 C   0  0  0  0  0  0  0  0  0  0  0  0
    3.2046   15.0231   39.6977 C   0  0  0  0  0  0  0  0  0  0  0  0
    2.2913   17.0901   40.3724 C   0  0  0  0  0  0  0  0  0  0  0  0
   -0.4430   20.6970   43.2480 H   0  0  0  0  0  0  0  0  0  0  0  0
    4.8213   12.0885   39.0270 H   0  0  0  0  0  0  0  0  0  0  0  0
    3.3328   12.3382   38.0529 H   0  0  0  0  0  0  0  0  0  0  0  0
    4.6741   13.5297   37.9649 H   0  0  0  0  0  0  0  0  0  0  0  0
    2.3082   20.7971   39.3637 H   0  0  0  0  0  0  0  0  0  0  0  0
    1.9005   15.1396   41.3965 H   0  0  0  0  0  0  0  0  0  0  0  0
    2.6019   13.0551   39.9190 H   0  0  0  0  0  0  0  0  0  0  0  0
    4.4010   13.5864   40.3913 H   0  0  0  0  0  0  0  0  0  0  0  0
    0.2588   16.1257   43.5139 H   0  0  0  0  0  0  0  0  0  0  0  0
   -0.6387   18.3912   43.8829 H   0  0  0  0  0  0  0  0  0  0  0  0
  1  7  1  0
  2  3  1  0
  3 14  1  0
  3 17  2  0
  4 11  1  0
  5  4  2  0
  6  4  1  0
  7 17  1  0
  8 13  1  0
  9  2  1  0
  9  1  1  0
 10  9  2  0
 11 18  2  0
 11 10  1  0
 12 20  1  0
 13 19  1  0
 15  1  2  0
 16 18  1  0
 16 19  1  0
 18 20  1  0
 19 12  2  0
 20  2  2  0
  7 21  1  0
  8 22  1  0
  8 23  1  0
  8 24  1  0
 10 25  1  0
 12 26  1  0
 13 27  1  0
 13 28  1  0
 14 29  1  0
 17 30  1  0
M  CHG  1   6  -1
M  END
>  <mol_id>  (48) 
2026-08-23-6tgu-s0-n100-prep-0049

>  <rmsd_to_ref>  (48) 


$$$$

     RDKit          3D

 46 48  0  0  0  0  0  0  0  0999 V2000
    1.1430   16.4300   42.5930 O   0  0  0  0  0  0  0  0  0  0  0  0
    3.4890   20.8760   36.0490 O   0  0  0  0  0  0  0  0  0  0  0  0
    1.3360   18.4990   41.4800 C   0  0  0  0  0  0  0  0  0  0  0  0
    1.4810   20.8090   40.2090 C   0  0  0  0  0  0  0  0  0  0  0  0
    1.6630   15.2580   42.2670 C   0  0  2  0  0  0  0  0  0  0  0  0
    2.8150   19.4130   39.9710 C   0  0  2  0  0  0  0  0  0  0  0  0
    1.8070   21.2020   38.8900 C   0  0  0  0  0  0  0  0  0  0  0  0
    3.7900   18.2060   36.5450 O   0  0  0  0  0  0  0  0  0  0  0  0
   -0.2790   14.7710   43.2510 C   0  0  1  0  0  0  0  0  0  0  0  0
    3.1610   17.9700   39.9300 C   0  0  0  0  0  0  0  0  0  0  0  0
    0.0680   13.9590   44.3920 O   0  0  0  0  0  0  0  0  0  0  0  0
    2.7300   20.0640   38.1230 C   0  0  0  0  0  0  0  0  0  0  0  0
   -0.2630   19.2780   43.5010 C   0  0  0  0  0  0  0  0  0  0  0  0
    3.1890   20.4940   36.9050 C   0  0  0  0  0  0  0  0  0  0  0  0
    3.3030   18.2450   37.9470 C   0  0  0  0  0  0  0  0  0  0  0  0
   -0.5530   16.9580   44.6340 C   0  0  0  0  0  0  0  0  0  0  0  0
    2.1410   18.4910   40.0160 C   0  0  1  0  0  0  0  0  0  0  0  0
    2.9280   14.6130   41.1960 C   0  0  0  0  0  0  0  0  0  0  0  0
   -0.9120   16.2890   45.8260 O   0  0  0  0  0  0  0  0  0  0  0  0
   -0.0950   16.1400   43.3940 C   0  0  1  0  0  0  0  0  0  0  0  0
   -0.8330   18.3660   44.4650 N   0  0  0  0  0  0  0  0  0  0  0  0
    0.5140   14.3060   42.0810 C   0  0  0  0  0  0  0  0  0  0  0  0
    0.6060   18.9470   42.4770 C   0  0  0  0  0  0  0  0  0  0  0  0
    4.0910   21.6425   36.2226 H   0  0  0  0  0  0  0  0  0  0  0  0
    0.4506   20.4492   40.3459 H   0  0  0  0  0  0  0  0  0  0  0  0
    1.4998   21.5085   41.0578 H   0  0  0  0  0  0  0  0  0  0  0  0
    2.4018   15.4400   43.0614 H   0  0  0  0  0  0  0  0  0  0  0  0
    0.8768   21.3487   38.3215 H   0  0  0  0  0  0  0  0  0  0  0  0
    2.3875   22.1348   38.9438 H   0  0  0  0  0  0  0  0  0  0  0  0
    4.7768   18.1270   36.5405 H   0  0  0  0  0  0  0  0  0  0  0  0
   -1.3634   14.6387   43.1223 H   0  0  0  0  0  0  0  0  0  0  0  0
    3.4817   17.4799   38.9989 H   0  0  0  0  0  0  0  0  0  0  0  0
    3.7759   17.2435   40.4814 H   0  0  0  0  0  0  0  0  0  0  0  0
   -0.1427   14.4520   45.2242 H   0  0  0  0  0  0  0  0  0  0  0  0
   -0.5471   20.3370   43.5896 H   0  0  0  0  0  0  0  0  0  0  0  0
    2.6348   19.6982   36.3858 H   0  0  0  0  0  0  0  0  0  0  0  0
    4.1510   20.7662   37.3637 H   0  0  0  0  0  0  0  0  0  0  0  0
    2.4668   17.5466   38.0987 H   0  0  0  0  0  0  0  0  0  0  0  0
    4.0602   17.9462   38.6868 H   0  0  0  0  0  0  0  0  0  0  0  0
    1.3009   18.1891   39.3732 H   0  0  0  0  0  0  0  0  0  0  0  0
    3.7451   14.1964   41.8032 H   0  0  0  0  0  0  0  0  0  0  0  0
    2.5026   13.8217   40.5612 H   0  0  0  0  0  0  0  0  0  0  0  0
    3.3186   15.4220   40.5612 H   0  0  0  0  0  0  0  0  0  0  0  0
   -0.9598   16.7213   43.0415 H   0  0  0  0  0  0  0  0  0  0  0  0
   -0.0112   14.4580   41.1265 H   0  0  0  0  0  0  0  0  0  0  0  0
    0.7576   13.2341   42.0392 H   0  0  0  0  0  0  0  0  0  0  0  0
  1 20  1  0
  2 14  1  0
  3 23  3  0
  5 18  1  0
  5  1  1  0
  6 10  1  1
  6 17  1  0
  6  4  1  0
  7  4  1  0
  8 15  1  0
  9 20  1  0
  9 11  1  0
 10 17  1  0
 12  7  1  0
 12  6  1  0
 13 21  2  3
 14 12  1  0
 15 12  1  0
 16 19  2  0
 17  3  1  0
 20 16  1  0
 21 16  1  0
 22  5  1  0
 22  9  1  0
 23 13  1  0
  2 24  1  0
  4 25  1  0
  4 26  1  0
  5 27  1  1
  7 28  1  0
  7 29  1  0
  8 30  1  0
  9 31  1  6
 10 32  1  0
 10 33  1  0
 11 34  1  0
 13 35  1  0
 14 36  1  0
 14 37  1  0
 15 38  1  0
 15 39  1  0
 17 40  1  6
 18 41  1  0
 18 42  1  0
 18 43  1  0
 20 44  1  6
 22 45  1  0
 22 46  1  0
M  END
>  <mol_id>  (49) 
2026-08-23-6tgu-s0-n100-prep-0050

>  <rmsd_to_ref>  (49) 


$$$$

     RDKit          3D

 15 15  0  0  0  0  0  0  0  0999 V2000
    1.4355   18.0639   40.5281 N   0  0  0  0  0  0  0  0  0  0  0  0
    1.8737   17.0899   41.0359 O   0  0  0  0  0  0  0  0  0  0  0  0
    2.1543   18.8482   39.6159 C   0  0  0  0  0  0  0  0  0  0  0  0
    2.9582   18.1663   38.7916 C   0  0  0  0  0  0  0  0  0  0  0  0
    0.2752   18.3614   40.8073 O   0  0  0  0  0  0  0  0  0  0  0  0
    2.3929   20.8860   38.3892 C   0  0  0  0  0  0  0  0  0  0  0  0
    1.8290   20.2047   39.4834 C   0  0  0  0  0  0  0  0  0  0  0  0
    3.1827   20.1173   37.4320 C   0  0  0  0  0  0  0  0  0  0  0  0
    3.4865   18.8751   37.6023 C   0  0  0  0  0  0  0  0  0  0  0  0
    3.4624   20.7546   36.2468 O   0  0  0  0  0  0  0  0  0  0  0  0
    3.2178   17.1160   38.9900 H   0  0  0  0  0  0  0  0  0  0  0  0
    2.2428   21.9679   38.2587 H   0  0  0  0  0  0  0  0  0  0  0  0
    1.1657   20.7118   40.1994 H   0  0  0  0  0  0  0  0  0  0  0  0
    4.1266   18.3511   36.8774 H   0  0  0  0  0  0  0  0  0  0  0  0
    3.2238   21.7083   36.1293 H   0  0  0  0  0  0  0  0  0  0  0  0
  1  5  1  0
  1  2  2  0
  3  1  1  0
  4  3  2  0
  6  7  2  0
  7  3  1  0
  8  9  2  0
  8  6  1  0
  9  4  1  0
 10  8  1  0
  4 11  1  0
  6 12  1  0
  7 13  1  0
  9 14  1  0
 10 15  1  0
M  CHG  2   1   1   5  -1
M  END
>  <mol_id>  (50) 
2026-08-23-6tgu-s0-n100-prep-0051

>  <rmsd_to_ref>  (50) 


$$$$

     RDKit          3D

 36 39  0  0  0  0  0  0  0  0999 V2000
    1.8441   21.2804   37.1220 O   0  0  0  0  0  0  0  0  0  0  0  0
    2.4343   20.1410   38.8354 C   0  0  0  0  0  0  0  0  0  0  0  0
    2.3324   17.2129   40.3459 N   0  0  0  0  0  0  0  0  0  0  0  0
    3.0157   20.6096   36.8607 C   0  0  0  0  0  0  0  0  0  0  0  0
    3.3591   19.8806   37.9357 N   0  0  0  0  0  0  0  0  0  0  0  0
    3.5237   14.9639   40.3653 N   0  0  0  0  0  0  0  0  0  0  0  0
   -0.7270   20.2250   41.9428 C   0  0  0  0  0  0  0  0  0  0  0  0
    0.5720   18.6725   41.3903 C   0  0  0  0  0  0  0  0  0  0  0  0
   -1.4211   19.9906   42.9497 C   0  0  0  0  0  0  0  0  0  0  0  0
   -1.4752   18.7940   43.6381 C   0  0  0  0  0  0  0  0  0  0  0  0
    1.4096   21.0014   38.4361 C   0  0  0  0  0  0  0  0  0  0  0  0
    3.1554   13.8592   40.8063 C   0  0  0  0  0  0  0  0  0  0  0  0
    1.7603   18.4315   40.6240 C   0  0  0  0  0  0  0  0  0  0  0  0
   -0.0293   17.7057   42.1948 C   0  0  0  0  0  0  0  0  0  0  0  0
    3.8321   12.8340   41.0726 O   0  0  0  0  0  0  0  0  0  0  0  0
    0.6787   16.4761   41.9355 N   0  0  0  0  0  0  0  0  0  0  0  0
    2.5707   16.1352   40.2011 C   0  0  1  0  0  0  0  0  0  0  0  0
   -0.8679   17.7033   43.2719 N   0  0  0  0  0  0  0  0  0  0  0  0
   -2.2748   18.8793   44.5328 O   0  0  0  0  0  0  0  0  0  0  0  0
    3.5546   20.6963   35.8222 O   0  0  0  0  0  0  0  0  0  0  0  0
    1.9694   13.7345   41.5148 O   0  0  0  0  0  0  0  0  0  0  0  0
    2.3714   19.6091   40.1678 O   0  0  0  0  0  0  0  0  0  0  0  0
    1.6420   16.3412   41.1667 C   0  0  2  0  0  0  0  0  0  0  0  0
    0.2589   19.8423   41.2086 N   0  0  0  0  0  0  0  0  0  0  0  0
    4.5117   15.0881   40.1018 H   0  0  0  0  0  0  0  0  0  0  0  0
   -1.5183   20.2692   41.1799 H   0  0  0  0  0  0  0  0  0  0  0  0
   -0.0385   20.8250   42.5560 H   0  0  0  0  0  0  0  0  0  0  0  0
   -1.1103   20.7379   43.6946 H   0  0  0  0  0  0  0  0  0  0  0  0
   -2.4212   19.9887   42.4916 H   0  0  0  0  0  0  0  0  0  0  0  0
    1.3691   21.9085   39.0570 H   0  0  0  0  0  0  0  0  0  0  0  0
    0.3925   20.5904   38.5173 H   0  0  0  0  0  0  0  0  0  0  0  0
    2.8559   15.7690   39.2038 H   0  0  0  0  0  0  0  0  0  0  0  0
   -1.0209   16.8315   43.7987 H   0  0  0  0  0  0  0  0  0  0  0  0
    0.8430   16.2656   40.4145 H   0  0  0  0  0  0  0  0  0  0  0  0
    1.0738   20.4355   41.4202 H   0  0  0  0  0  0  0  0  0  0  0  0
   -0.0398   19.9294   40.2268 H   0  0  0  0  0  0  0  0  0  0  0  0
  1 11  1  0
  2 22  1  0
  3 13  1  0
  3 23  1  0
  4  1  1  0
  4  5  1  0
  5  2  2  0
  6 12  1  0
  7  9  1  0
  8 14  1  0
  9 10  1  0
 10 19  2  0
 11  2  1  0
 12 15  2  0
 12 21  1  0
 13  8  2  0
 14 18  1  0
 16 14  2  0
 17  6  1  0
 17  3  1  0
 17 23  1  0
 18 10  1  0
 20  4  2  0
 22 13  1  0
 23 16  1  0
 24  8  1  0
 24  7  1  0
  6 25  1  0
  7 26  1  0
  7 27  1  0
  9 28  1  0
  9 29  1  0
 11 30  1  0
 11 31  1  0
 17 32  1  6
 18 33  1  0
 23 34  1  1
 24 35  1  0
 24 36  1  0
M  CHG  2  21  -1  24   1
M  END
>  <mol_id>  (51) 
2026-08-23-6tgu-s0-n100-prep-0052

>  <rmsd_to_ref>  (51) 


$$$$

     RDKit          3D

 37 40  0  0  0  0  0  0  0  0999 V2000
    0.7054   19.2218   40.7941 C   0  0  0  0  0  0  0  0  0  0  0  0
    1.6098   13.5376   42.1516 N   0  0  0  0  0  0  0  0  0  0  0  0
    1.0825   12.6791   43.0074 C   0  0  0  0  0  0  0  0  0  0  0  0
   -0.2474   18.6721   41.6129 C   0  0  0  0  0  0  0  0  0  0  0  0
   -0.3947   16.5135   42.8921 C   0  0  0  0  0  0  0  0  0  0  0  0
    2.5307   21.2045   36.6323 C   0  0  0  0  0  0  0  0  0  0  0  0
   -0.6593   21.0641   41.5125 S   0  0  0  0  0  0  0  0  0  0  0  0
    0.4123   13.0003   43.9517 O   0  0  0  0  0  0  0  0  0  0  0  0
    1.5305   18.1773   40.4128 O   0  0  0  0  0  0  0  0  0  0  0  0
    2.8475   15.4639   40.4574 O   0  0  0  0  0  0  0  0  0  0  0  0
    0.1218   17.3875   41.9240 C   0  0  0  0  0  0  0  0  0  0  0  0
    0.6584   21.6094   38.1025 C   0  0  0  0  0  0  0  0  0  0  0  0
    1.1898   14.8366   42.1092 C   0  0  0  0  0  0  0  0  0  0  0  0
    1.7939   15.7882   41.1978 C   0  0  0  0  0  0  0  0  0  0  0  0
    1.3381   21.8166   36.9050 N   0  0  0  0  0  0  0  0  0  0  0  0
    0.4631   20.6366   40.4029 C   0  0  2  0  0  0  0  0  0  0  0  0
    0.1203   15.2393   42.9843 C   0  0  0  0  0  0  0  0  0  0  0  0
    1.2001   17.0477   41.1968 C   0  0  0  0  0  0  0  0  0  0  0  0
    3.0408   20.2552   37.5605 C   0  0  0  0  0  0  0  0  0  0  0  0
   -1.1417   19.7146   42.1567 C   0  0  0  0  0  0  0  0  0  0  0  0
    2.3531   19.9923   38.8154 C   0  0  0  0  0  0  0  0  0  0  0  0
    1.1806   20.7453   39.0100 C   0  0  0  0  0  0  0  0  0  0  0  0
    1.2255   11.1546   42.7198 C   0  0  0  0  0  0  0  0  0  0  0  0
    2.3487   13.2222   41.5070 H   0  0  0  0  0  0  0  0  0  0  0  0
   -1.1989   16.8408   43.5675 H   0  0  0  0  0  0  0  0  0  0  0  0
    3.0849   21.4421   35.7122 H   0  0  0  0  0  0  0  0  0  0  0  0
    3.2226   14.5489   40.5043 H   0  0  0  0  0  0  0  0  0  0  0  0
   -0.2847   22.1364   38.3095 H   0  0  0  0  0  0  0  0  0  0  0  0
    0.5803   21.7262   40.3069 H   0  0  0  0  0  0  0  0  0  0  0  0
   -0.2842   14.5324   43.7236 H   0  0  0  0  0  0  0  0  0  0  0  0
    3.9684   19.7122   37.3263 H   0  0  0  0  0  0  0  0  0  0  0  0
   -2.1857   19.5080   41.8785 H   0  0  0  0  0  0  0  0  0  0  0  0
   -1.1025   19.7514   43.2554 H   0  0  0  0  0  0  0  0  0  0  0  0
    2.7204   19.2634   39.5527 H   0  0  0  0  0  0  0  0  0  0  0  0
    1.1107   10.5922   43.6581 H   0  0  0  0  0  0  0  0  0  0  0  0
    0.4484   10.8415   42.0071 H   0  0  0  0  0  0  0  0  0  0  0  0
    2.2184   10.9539   42.2912 H   0  0  0  0  0  0  0  0  0  0  0  0
  1  4  2  0
  2  3  1  0
  3  8  2  0
  4 11  1  0
  4 20  1  0
  5 17  1  0
  6 15  2  0
  6 19  1  0
  7 20  1  0
  9  1  1  0
  9 18  1  0
 10 14  1  0
 11  5  2  0
 12 22  2  0
 13  2  1  0
 13 17  2  0
 14 18  2  0
 14 13  1  0
 15 12  1  0
 16 22  1  0
 16  1  1  0
 16  7  1  0
 18 11  1  0
 19 21  2  0
 21 22  1  0
 23  3  1  0
  2 24  1  0
  5 25  1  0
  6 26  1  0
 10 27  1  0
 12 28  1  0
 16 29  1  1
 17 30  1  0
 19 31  1  0
 20 32  1  0
 20 33  1  0
 21 34  1  0
 23 35  1  0
 23 36  1  0
 23 37  1  0
M  END
>  <mol_id>  (52) 
2026-08-23-6tgu-s0-n100-prep-0053

>  <rmsd_to_ref>  (52) 


$$$$

     RDKit          3D

 25 25  0  0  0  0  0  0  0  0999 V2000
    3.7281   20.3828   37.7294 F   0  0  0  0  0  0  0  0  0  0  0  0
    2.5893   17.9528   40.0210 C   0  0  0  0  0  0  0  0  0  0  0  0
    2.8663   19.9958   38.8379 C   0  0  0  0  0  0  0  0  0  0  0  0
    2.0480   20.9372   39.1634 C   0  0  0  0  0  0  0  0  0  0  0  0
    0.9380   19.5366   40.9270 C   0  0  0  0  0  0  0  0  0  0  0  0
    1.2037   20.6609   40.2326 C   0  0  0  0  0  0  0  0  0  0  0  0
    0.0906   19.6382   41.9032 O   0  0  0  0  0  0  0  0  0  0  0  0
    1.5270   18.3760   40.5944 C   0  0  1  0  0  0  0  0  0  0  0  0
    0.4099   16.6943   42.2606 C   0  0  0  0  0  0  0  0  0  0  0  0
    3.2825   18.8015   39.2385 C   0  0  0  0  0  0  0  0  0  0  0  0
    0.6064   17.1783   40.9432 N   0  0  0  0  0  0  0  0  0  0  0  0
   -0.9439   15.9732   42.3770 C   0  0  0  0  0  0  0  0  0  0  0  0
    2.9296   16.9167   40.1644 H   0  0  0  0  0  0  0  0  0  0  0  0
    2.0195   21.8982   38.6288 H   0  0  0  0  0  0  0  0  0  0  0  0
    0.6382   21.5370   40.5829 H   0  0  0  0  0  0  0  0  0  0  0  0
   -0.1390   18.8416   42.4444 H   0  0  0  0  0  0  0  0  0  0  0  0
    2.0446   18.3606   41.5648 H   0  0  0  0  0  0  0  0  0  0  0  0
    0.4303   17.5404   42.9633 H   0  0  0  0  0  0  0  0  0  0  0  0
    1.2128   15.9814   42.4996 H   0  0  0  0  0  0  0  0  0  0  0  0
    4.2786   18.4769   38.9029 H   0  0  0  0  0  0  0  0  0  0  0  0
   -0.3291   17.4332   40.5957 H   0  0  0  0  0  0  0  0  0  0  0  0
    1.1279   16.3971   40.5204 H   0  0  0  0  0  0  0  0  0  0  0  0
   -1.1203   15.6915   43.4256 H   0  0  0  0  0  0  0  0  0  0  0  0
   -1.7470   16.6439   42.0375 H   0  0  0  0  0  0  0  0  0  0  0  0
   -0.9325   15.0686   41.7513 H   0  0  0  0  0  0  0  0  0  0  0  0
  1  3  1  0
  2  8  1  0
  3  4  2  0
  3 10  1  0
  4  6  1  0
  5  7  1  0
  6  5  2  0
  8  5  1  0
  8 11  1  0
  9 12  1  0
 10  2  2  0
 11  9  1  0
  2 13  1  0
  4 14  1  0
  6 15  1  0
  7 16  1  0
  8 17  1  1
  9 18  1  0
  9 19  1  0
 10 20  1  0
 11 21  1  0
 11 22  1  0
 12 23  1  0
 12 24  1  0
 12 25  1  0
M  CHG  1  11   1
M  END
>  <mol_id>  (53) 
2026-08-23-6tgu-s0-n100-prep-0054

>  <rmsd_to_ref>  (53) 


$$$$

     RDKit          3D

 23 23  0  0  0  0  0  0  0  0999 V2000
    3.2832   18.9735   36.8522 O   0  0  0  0  0  0  0  0  0  0  0  0
    2.0119   20.5240   38.6891 C   0  0  0  0  0  0  0  0  0  0  0  0
    0.4736   17.6104   42.3997 C   0  0  0  0  0  0  0  0  0  0  0  0
    0.5738   20.7656   40.6081 C   0  0  0  0  0  0  0  0  0  0  0  0
    1.1038   21.2807   39.4804 C   0  0  0  0  0  0  0  0  0  0  0  0
    2.8529   16.7713   40.0913 O   0  0  0  0  0  0  0  0  0  0  0  0
    2.2013   17.5554   40.7309 N   0  0  0  0  0  0  0  0  0  0  0  0
    4.1738   17.7838   38.4300 O   0  0  0  0  0  0  0  0  0  0  0  0
    2.3875   19.2829   39.0201 C   0  0  0  0  0  0  0  0  0  0  0  0
   -0.6112   16.7710   43.4490 S   0  0  0  0  0  0  0  0  0  0  0  0
   -0.4139   21.3136   41.3324 O   0  0  0  0  0  0  0  0  0  0  0  0
    2.0272   18.8227   40.2794 C   0  0  0  0  0  0  0  0  0  0  0  0
    3.1352   18.3525   37.9459 C   0  0  0  0  0  0  0  0  0  0  0  0
    0.9933   19.5060   40.9760 C   0  0  0  0  0  0  0  0  0  0  0  0
    0.3426   18.8478   42.0228 N   0  0  0  0  0  0  0  0  0  0  0  0
    3.2025   19.9472   37.0120 H   0  0  0  0  0  0  0  0  0  0  0  0
    2.4201   20.9750   37.7725 H   0  0  0  0  0  0  0  0  0  0  0  0
    1.3437   17.0545   42.0205 H   0  0  0  0  0  0  0  0  0  0  0  0
    0.8303   22.2994   39.1681 H   0  0  0  0  0  0  0  0  0  0  0  0
    4.2377   17.9822   39.3978 H   0  0  0  0  0  0  0  0  0  0  0  0
   -0.6857   17.4277   44.6490 H   0  0  0  0  0  0  0  0  0  0  0  0
   -0.7387   20.8596   42.1499 H   0  0  0  0  0  0  0  0  0  0  0  0
    2.4979   17.4923   37.6931 H   0  0  0  0  0  0  0  0  0  0  0  0
  1 13  1  0
  2  5  2  0
  3 15  2  3
  3 10  1  0
  4 11  1  0
  5  4  1  0
  6  7  2  0
  7 12  1  0
  9  2  1  0
  9 12  2  0
 12 14  1  0
 13  8  1  0
 13  9  1  0
 14  4  2  0
 14 15  1  0
  1 16  1  0
  2 17  1  0
  3 18  1  0
  5 19  1  0
  8 20  1  0
 10 21  1  0
 11 22  1  0
 13 23  1  0
M  END
>  <mol_id>  (54) 
2026-08-23-6tgu-s0-n100-prep-0055

>  <rmsd_to_ref>  (54) 


$$$$

     RDKit          3D

 30 30  0  0  0  0  0  0  0  0999 V2000
   -0.6655   19.8585   42.2150 C   0  0  0  0  0  0  0  0  0  0  0  0
    0.8912   20.9096   39.6844 C   0  0  0  0  0  0  0  0  0  0  0  0
    0.1807   17.3975   43.5319 O   0  0  0  0  0  0  0  0  0  0  0  0
    1.8342   18.7055   39.6670 C   0  0  0  0  0  0  0  0  0  0  0  0
    1.5544   21.2226   38.5253 C   0  0  0  0  0  0  0  0  0  0  0  0
    3.5855   17.8485   37.8334 S   0  0  0  0  0  4  0  0  0  0  0  0
    3.3596   16.4174   37.2662 O   0  0  0  0  0  0  0  0  0  0  0  0
    3.7885   18.4515   36.8626 O   0  0  0  0  0  0  0  0  0  0  0  0
    2.5058   19.0220   38.4843 C   0  0  0  0  0  0  0  0  0  0  0  0
    0.3671   19.2931   41.5182 C   0  0  0  0  0  0  0  0  0  0  0  0
   -0.8497   17.9781   43.9741 C   0  0  0  0  0  0  0  0  0  0  0  0
    2.3894   20.3026   37.9114 C   0  0  0  0  0  0  0  0  0  0  0  0
    3.0805   20.6555   36.8326 O   0  0  0  0  0  0  0  0  0  0  0  0
   -1.3186   19.2076   43.3737 C   0  0  0  0  0  0  0  0  0  0  0  0
   -1.6159   17.2421   44.8577 N   0  0  0  0  0  0  0  0  0  0  0  0
    1.0186   19.6620   40.2595 C   0  0  0  0  0  0  0  0  0  0  0  0
    4.6291   17.7497   38.7502 O   0  0  0  0  0  0  0  0  0  0  0  0
   -1.0292   20.8472   41.8983 H   0  0  0  0  0  0  0  0  0  0  0  0
    0.2488   21.6639   40.1623 H   0  0  0  0  0  0  0  0  0  0  0  0
    1.9493   17.7115   40.1240 H   0  0  0  0  0  0  0  0  0  0  0  0
    1.4214   22.2180   38.0765 H   0  0  0  0  0  0  0  0  0  0  0  0
    3.2354   15.7815   38.0147 H   0  0  0  0  0  0  0  0  0  0  0  0
    4.0710   19.3706   37.0979 H   0  0  0  0  0  0  0  0  0  0  0  0
    0.7864   18.3932   41.9918 H   0  0  0  0  0  0  0  0  0  0  0  0
    3.6780   20.0008   36.3915 H   0  0  0  0  0  0  0  0  0  0  0  0
   -1.3127   19.9558   44.1800 H   0  0  0  0  0  0  0  0  0  0  0  0
   -2.2661   18.8759   42.9240 H   0  0  0  0  0  0  0  0  0  0  0  0
   -2.4718   17.6498   45.2605 H   0  0  0  0  0  0  0  0  0  0  0  0
   -1.3311   16.2859   45.1136 H   0  0  0  0  0  0  0  0  0  0  0  0
    4.2597   17.7137   39.6681 H   0  0  0  0  0  0  0  0  0  0  0  0
  1 14  1  0
  2 16  1  0
  3 11  2  0
  4 16  2  0
  5  2  2  0
  6  9  1  0
  6 17  1  0
  7  6  1  0
  8  6  1  0
  9  4  1  0
 10  1  2  3
 11 15  1  0
 12  5  1  0
 12  9  2  0
 13 12  1  0
 14 11  1  0
 16 10  1  0
  1 18  1  0
  2 19  1  0
  4 20  1  0
  5 21  1  0
  7 22  1  0
  8 23  1  0
 10 24  1  0
 13 25  1  0
 14 26  1  0
 14 27  1  0
 15 28  1  0
 15 29  1  0
 17 30  1  0
M  END
>  <mol_id>  (55) 
2026-08-23-6tgu-s0-n100-prep-0056

>  <rmsd_to_ref>  (55) 


$$$$

     RDKit          3D

 35 37  0  0  0  0  0  0  0  0999 V2000
    4.1880   19.2830   36.4095 O   0  0  0  0  0  0  0  0  0  0  0  0
    1.4757   20.0917   40.7155 C   0  0  0  0  0  0  0  0  0  0  0  0
    2.8935   16.9154   39.1227 C   0  0  0  0  0  0  0  0  0  0  0  0
    2.6929   15.7137   39.8137 N   0  0  0  0  0  0  0  0  0  0  0  0
    2.5522   18.1802   39.6041 N   0  0  0  0  0  0  0  0  0  0  0  0
    0.0264   19.9493   42.6193 C   0  0  0  0  0  0  0  0  0  0  0  0
    0.8892   15.4593   43.0461 S   0  0  0  0  0  0  0  0  0  0  0  0
   -0.7205   20.6289   43.5601 O   0  0  0  0  0  0  0  0  0  0  0  0
    1.0745   17.8895   41.6546 C   0  0  0  0  0  0  0  0  0  0  0  0
   -0.8140   17.8672   43.5668 C   0  0  0  0  0  0  0  0  0  0  0  0
    1.5472   14.0486   42.7105 C   0  0  0  0  0  0  0  0  0  0  0  0
    2.7125   20.1695   38.0390 C   0  0  0  0  0  0  0  0  0  0  0  0
    1.7110   18.6785   40.7138 C   0  0  0  0  0  0  0  0  0  0  0  0
    3.3180   16.6224   37.9435 O   0  0  0  0  0  0  0  0  0  0  0  0
    3.2140   21.2423   35.9913 O   0  0  0  0  0  0  0  0  0  0  0  0
    0.1352   18.5308   42.6323 C   0  0  0  0  0  0  0  0  0  0  0  0
    2.1174   14.0814   41.5057 C   0  0  0  0  0  0  0  0  0  0  0  0
    3.4101   20.2517   36.7524 C   0  0  0  0  0  0  0  0  0  0  0  0
    0.6799   20.6686   41.5904 C   0  0  0  0  0  0  0  0  0  0  0  0
    3.4072   19.1498   38.8923 C   0  0  0  0  0  0  0  0  0  0  0  0
    2.0596   15.4246   40.9879 C   0  0  0  0  0  0  0  0  0  0  0  0
    1.3491   16.3140   41.8496 C   0  0  0  0  0  0  0  0  0  0  0  0
    1.9769   20.7152   39.9604 H   0  0  0  0  0  0  0  0  0  0  0  0
    3.1011   14.8913   39.3468 H   0  0  0  0  0  0  0  0  0  0  0  0
   -0.7784   21.6166   43.5268 H   0  0  0  0  0  0  0  0  0  0  0  0
   -0.5414   18.1148   44.6034 H   0  0  0  0  0  0  0  0  0  0  0  0
   -1.8360   18.2190   43.3624 H   0  0  0  0  0  0  0  0  0  0  0  0
   -0.7663   16.7774   43.4254 H   0  0  0  0  0  0  0  0  0  0  0  0
    1.5333   13.1734   43.3766 H   0  0  0  0  0  0  0  0  0  0  0  0
    1.6675   19.8670   37.8759 H   0  0  0  0  0  0  0  0  0  0  0  0
    2.7245   21.1498   38.5377 H   0  0  0  0  0  0  0  0  0  0  0  0
    2.5621   13.2185   40.9883 H   0  0  0  0  0  0  0  0  0  0  0  0
    0.5159   21.7539   41.5191 H   0  0  0  0  0  0  0  0  0  0  0  0
    4.0862   18.5792   38.2417 H   0  0  0  0  0  0  0  0  0  0  0  0
    3.9039   19.7294   39.6844 H   0  0  0  0  0  0  0  0  0  0  0  0
  1 18  1  0
  2 19  2  0
  3  5  1  0
  3  4  1  0
  4 21  1  0
  5 13  1  0
  6 16  2  0
  6  8  1  0
  9 22  1  0
  9 16  1  0
 11  7  1  0
 12 20  1  0
 13  2  1  0
 13  9  2  0
 14  3  2  0
 15 18  2  0
 16 10  1  0
 17 11  2  0
 18 12  1  0
 19  6  1  0
 20  5  1  0
 21 17  1  0
 21 22  2  0
 22  7  1  0
  2 23  1  0
  4 24  1  0
  8 25  1  0
 10 26  1  0
 10 27  1  0
 10 28  1  0
 11 29  1  0
 12 30  1  0
 12 31  1  0
 17 32  1  0
 19 33  1  0
 20 34  1  0
 20 35  1  0
M  CHG  1   1  -1
M  END
>  <mol_id>  (56) 
2026-08-23-6tgu-s0-n100-prep-0057

>  <rmsd_to_ref>  (56) 


$$$$

     RDKit          3D

 41 43  0  0  0  0  0  0  0  0999 V2000
   -1.3249   18.1795   43.3431 S   0  0  0  0  0  6  0  0  0  0  0  0
    3.5474   20.2596   36.2876 C   0  0  0  0  0  0  0  0  0  0  0  0
    0.5897   18.7343   41.2980 C   0  0  0  0  0  0  0  0  0  0  0  0
    3.8841   21.2628   35.6344 O   0  0  0  0  0  0  0  0  0  0  0  0
    3.0731   18.0927   38.4613 C   0  0  0  0  0  0  0  0  0  0  0  0
    1.5593   15.4333   41.8346 C   0  0  0  0  0  0  0  0  0  0  0  0
    2.6130   19.4612   38.4184 C   0  0  1  0  0  0  0  0  0  0  0  0
   -0.4016   19.8001   41.8950 C   0  0  0  0  0  0  0  0  0  0  0  0
   -0.7571   18.8759   44.5178 O   0  0  0  0  0  0  0  0  0  0  0  0
   -1.8101   19.4483   42.2237 C   0  0  0  0  0  0  0  0  0  0  0  0
   -2.2492   16.8164   43.7223 O   0  0  0  0  0  0  0  0  0  0  0  0
    2.0215   20.0021   39.7472 S   0  0  0  0  0  0  0  0  0  0  0  0
    0.1681   20.9933   41.9903 N   0  0  0  0  0  0  0  0  0  0  0  0
    2.6826   20.3545   37.3862 C   0  0  0  0  0  0  0  0  0  0  0  0
    2.2618   14.1595   41.7306 C   0  0  0  0  0  0  0  0  0  0  0  0
    1.9604   16.4055   40.6872 C   0  0  0  0  0  0  0  0  0  0  0  0
    0.6779   16.1822   42.7371 C   0  0  0  0  0  0  0  0  0  0  0  0
    3.8797   17.3516   37.5293 C   0  0  0  0  0  0  0  0  0  0  0  0
    4.2144   17.9218   36.3895 C   0  0  0  0  0  0  0  0  0  0  0  0
    1.9650   17.7200   40.7227 C   0  0  0  0  0  0  0  0  0  0  0  0
    0.0541   17.5525   42.3772 C   0  0  0  0  0  0  0  0  0  0  0  0
    1.5260   18.9158   40.6725 C   0  0  0  0  0  0  0  0  0  0  0  0
    3.2100   13.2089   41.2802 C   0  0  0  0  0  0  0  0  0  0  0  0
    4.0954   18.9737   35.8483 C   0  0  0  0  0  0  0  0  0  0  0  0
    4.3993   15.7268   37.8669 Cl  0  0  0  0  0  0  0  0  0  0  0  0
    2.7557   17.5266   39.3494 H   0  0  0  0  0  0  0  0  0  0  0  0
    1.6139   19.1156   38.1143 H   0  0  0  0  0  0  0  0  0  0  0  0
   -2.3651   20.2674   42.7044 H   0  0  0  0  0  0  0  0  0  0  0  0
   -2.4999   19.1982   41.4043 H   0  0  0  0  0  0  0  0  0  0  0  0
   -0.3654   21.7903   42.3659 H   0  0  0  0  0  0  0  0  0  0  0  0
    2.9116   21.3233   37.8544 H   0  0  0  0  0  0  0  0  0  0  0  0
    1.7197   20.1564   36.8928 H   0  0  0  0  0  0  0  0  0  0  0  0
    2.5072   14.0731   42.7994 H   0  0  0  0  0  0  0  0  0  0  0  0
    1.7252   13.9982   40.7841 H   0  0  0  0  0  0  0  0  0  0  0  0
    2.2753   15.9412   39.7411 H   0  0  0  0  0  0  0  0  0  0  0  0
    0.4483   15.7473   43.7211 H   0  0  0  0  0  0  0  0  0  0  0  0
    4.7664   17.2170   35.7504 H   0  0  0  0  0  0  0  0  0  0  0  0
    3.6384   12.6804   42.1446 H   0  0  0  0  0  0  0  0  0  0  0  0
    2.7160   12.4848   40.6157 H   0  0  0  0  0  0  0  0  0  0  0  0
    4.0121   13.7232   40.7305 H   0  0  0  0  0  0  0  0  0  0  0  0
    4.4706   18.9835   34.8143 H   0  0  0  0  0  0  0  0  0  0  0  0
  1 11  2  0
  1  9  2  0
  2 14  1  0
  3  8  1  0
  3 21  2  0
  4  2  2  0
  6 17  2  0
  7  5  1  0
  7 12  1  0
  8 13  2  3
  8 10  1  0
 10  1  1  0
 12 22  1  0
 14  7  1  0
 15  6  1  0
 16  6  1  0
 18 25  1  0
 18  5  2  0
 19 18  1  0
 20 16  2  0
 21 17  1  0
 21  1  1  0
 22 20  2  0
 22  3  1  0
 23 15  1  0
 24  2  1  0
 24 19  2  0
  5 26  1  0
  7 27  1  6
 10 28  1  0
 10 29  1  0
 13 30  1  0
 14 31  1  0
 14 32  1  0
 15 33  1  0
 15 34  1  0
 16 35  1  0
 17 36  1  0
 19 37  1  0
 23 38  1  0
 23 39  1  0
 23 40  1  0
 24 41  1  0
M  END
>  <mol_id>  (57) 
2026-08-23-6tgu-s0-n100-prep-0058

>  <rmsd_to_ref>  (57) 


$$$$

     RDKit          3D

 32 34  0  0  0  0  0  0  0  0999 V2000
    1.0913   20.0552   39.8230 C   0  0  0  0  0  0  0  0  0  0  0  0
   -0.7296   18.6577   43.2732 N   0  0  0  0  0  0  0  0  0  0  0  0
    3.4444   18.1453   36.8755 C   0  0  0  0  0  0  0  0  0  0  0  0
   -0.6419   14.9414   43.3516 C   0  0  0  0  0  0  0  0  0  0  0  0
    0.5060   16.7937   41.7372 C   0  0  0  0  0  0  0  0  0  0  0  0
    1.3127   18.6112   40.1080 C   0  0  0  0  0  0  0  0  0  0  0  0
    2.3613   19.9189   37.7933 C   0  0  0  0  0  0  0  0  0  0  0  0
   -1.6658   17.0350   44.6018 O   0  0  0  0  0  0  0  0  0  0  0  0
    3.4950   20.6869   35.7094 O   0  0  0  0  0  0  0  0  0  0  0  0
   -0.9801   17.3529   43.5865 C   0  0  0  0  0  0  0  0  0  0  0  0
    3.1017   19.7118   36.6302 N   0  0  0  0  0  0  0  0  0  0  0  0
    2.7239   18.4889   38.1468 C   0  0  0  0  0  0  0  0  0  0  0  0
    2.1660   17.8984   39.2487 C   0  0  0  0  0  0  0  0  0  0  0  0
   -0.3250   16.3456   42.7801 C   0  0  2  0  0  0  0  0  0  0  0  0
    0.6297   18.0949   41.3210 C   0  0  0  0  0  0  0  0  0  0  0  0
    1.2361   15.7246   41.0329 N   0  0  0  0  0  0  0  0  0  0  0  0
   -0.0663   19.0444   42.1875 C   0  0  0  0  0  0  0  0  0  0  0  0
    1.5872   20.7481   38.6686 C   0  0  0  0  0  0  0  0  0  0  0  0
    0.5041   20.6339   40.5512 H   0  0  0  0  0  0  0  0  0  0  0  0
    4.5090   17.8847   36.9698 H   0  0  0  0  0  0  0  0  0  0  0  0
    3.2043   17.3135   36.1969 H   0  0  0  0  0  0  0  0  0  0  0  0
   -0.6550   14.9872   44.4506 H   0  0  0  0  0  0  0  0  0  0  0  0
   -1.6254   14.6104   42.9867 H   0  0  0  0  0  0  0  0  0  0  0  0
    0.1296   14.2292   43.0234 H   0  0  0  0  0  0  0  0  0  0  0  0
    3.8014   21.4939   36.1940 H   0  0  0  0  0  0  0  0  0  0  0  0
    2.3905   16.8437   39.4661 H   0  0  0  0  0  0  0  0  0  0  0  0
   -1.1605   16.2458   42.0716 H   0  0  0  0  0  0  0  0  0  0  0  0
    1.6298   15.0669   41.7209 H   0  0  0  0  0  0  0  0  0  0  0  0
    0.5900   15.2217   40.4079 H   0  0  0  0  0  0  0  0  0  0  0  0
    1.9988   16.1379   40.4777 H   0  0  0  0  0  0  0  0  0  0  0  0
   -0.0406   20.1143   41.9330 H   0  0  0  0  0  0  0  0  0  0  0  0
    1.3920   21.8130   38.4743 H   0  0  0  0  0  0  0  0  0  0  0  0
  1  6  1  0
  2 10  1  0
  3 12  1  0
  5 14  1  0
  6 15  1  0
  7 12  2  0
  7 18  1  0
  9 11  1  0
 10  8  2  0
 11  3  1  0
 11  7  1  0
 12 13  1  0
 13  6  2  0
 14  4  1  0
 14 10  1  0
 15  5  2  0
 15 17  1  0
 16  5  1  0
 17  2  2  0
 18  1  2  0
  1 19  1  0
  3 20  1  0
  3 21  1  0
  4 22  1  0
  4 23  1  0
  4 24  1  0
  9 25  1  0
 13 26  1  0
 14 27  1  6
 16 28  1  0
 16 29  1  0
 16 30  1  0
 17 31  1  0
 18 32  1  0
M  CHG  1  16   1
M  END
>  <mol_id>  (58) 
2026-08-23-6tgu-s0-n100-prep-0059

>  <rmsd_to_ref>  (58) 


$$$$

     RDKit          3D

 49 51  0  0  0  0  0  0  0  0999 V2000
    2.8359   16.0624   40.7556 N   0  0  0  0  0  0  0  0  0  0  0  0
    4.1873   19.1087   37.9399 C   0  0  0  0  0  0  0  0  0  0  0  0
    3.6410   15.0434   38.8340 O   0  0  0  0  0  0  0  0  0  0  0  0
    2.5696   20.8600   38.3109 C   0  0  0  0  0  0  0  0  0  0  0  0
    1.9069   15.4613   41.5449 C   0  0  0  0  0  0  0  0  0  0  0  0
   -0.8499   12.1165   43.7770 C   0  0  0  0  0  0  0  0  0  0  0  0
   -0.0022   15.7436   42.9914 C   0  0  0  0  0  0  0  0  0  0  0  0
    4.8116   19.8086   36.9384 C   0  0  0  0  0  0  0  0  0  0  0  0
    4.3093   21.0522   36.6662 C   0  0  0  0  0  0  0  0  0  0  0  0
    0.0705   14.3350   43.2759 C   0  0  0  0  0  0  0  0  0  0  0  0
    3.1211   19.5988   38.6163 C   0  0  0  0  0  0  0  0  0  0  0  0
    0.2888   11.4283   44.4451 C   0  0  0  0  0  0  0  0  0  0  0  0
   -0.9083   16.4864   43.6903 C   0  0  0  0  0  0  0  0  0  0  0  0
    4.5559   17.7201   38.2293 N   0  0  0  0  0  0  0  0  0  0  0  0
    1.8917   14.1461   41.7548 C   0  0  0  0  0  0  0  0  0  0  0  0
    3.7820   17.2481   38.9362 N   0  0  0  0  0  0  0  0  0  0  0  0
    2.6155   22.7170   36.8865 N   0  0  0  0  0  0  0  0  0  0  0  0
    0.9605   16.3117   42.1553 C   0  0  0  0  0  0  0  0  0  0  0  0
    3.4384   16.0542   39.5221 C   0  0  0  0  0  0  0  0  0  0  0  0
    0.0022   18.4709   42.6496 C   0  0  0  0  0  0  0  0  0  0  0  0
    0.0089   19.8812   42.6891 O   0  0  0  0  0  0  0  0  0  0  0  0
   -0.9005   17.8840   43.4961 C   0  0  0  0  0  0  0  0  0  0  0  0
    0.9582   13.6363   42.5563 N   0  0  0  0  0  0  0  0  0  0  0  0
    0.9438   17.7330   41.9600 C   0  0  0  0  0  0  0  0  0  0  0  0
    3.1528   21.5525   37.2822 C   0  0  0  0  0  0  0  0  0  0  0  0
    0.9421   20.6794   41.9340 C   0  0  0  0  0  0  0  0  0  0  0  0
   -0.8382   13.5798   44.0427 N   0  0  0  0  0  0  0  0  0  0  0  0
    3.2548   16.8300   41.2999 H   0  0  0  0  0  0  0  0  0  0  0  0
    1.7145   21.2675   38.8701 H   0  0  0  0  0  0  0  0  0  0  0  0
   -1.7929   11.6931   44.1530 H   0  0  0  0  0  0  0  0  0  0  0  0
   -0.7551   11.9634   42.6918 H   0  0  0  0  0  0  0  0  0  0  0  0
    5.6672   19.3937   36.3855 H   0  0  0  0  0  0  0  0  0  0  0  0
    4.8337   21.6848   35.9350 H   0  0  0  0  0  0  0  0  0  0  0  0
    2.6749   18.9986   39.4229 H   0  0  0  0  0  0  0  0  0  0  0  0
    0.0591   11.2908   45.5120 H   0  0  0  0  0  0  0  0  0  0  0  0
    0.4506   10.4468   43.9754 H   0  0  0  0  0  0  0  0  0  0  0  0
    1.1980   12.0387   44.3414 H   0  0  0  0  0  0  0  0  0  0  0  0
   -1.6204   16.0122   44.3816 H   0  0  0  0  0  0  0  0  0  0  0  0
    5.3857   17.2383   37.8547 H   0  0  0  0  0  0  0  0  0  0  0  0
    2.6359   13.4934   41.2752 H   0  0  0  0  0  0  0  0  0  0  0  0
    3.1134   17.9728   39.2340 H   0  0  0  0  0  0  0  0  0  0  0  0
    1.7660   23.0747   37.3462 H   0  0  0  0  0  0  0  0  0  0  0  0
    3.0526   23.2529   36.1233 H   0  0  0  0  0  0  0  0  0  0  0  0
   -1.6290   18.5104   44.0317 H   0  0  0  0  0  0  0  0  0  0  0  0
    1.6595   18.2201   41.2814 H   0  0  0  0  0  0  0  0  0  0  0  0
    1.5826   21.2467   42.6253 H   0  0  0  0  0  0  0  0  0  0  0  0
    1.5667   20.0222   41.3111 H   0  0  0  0  0  0  0  0  0  0  0  0
    0.3890   21.3784   41.2894 H   0  0  0  0  0  0  0  0  0  0  0  0
   -1.4559   14.0138   44.7435 H   0  0  0  0  0  0  0  0  0  0  0  0
  1  5  1  0
  2 14  1  0
  2 11  1  0
  3 19  2  0
  4 11  2  0
  5 15  1  0
  5 18  2  0
  6 27  1  0
  6 12  1  0
  7 10  2  0
  7 13  1  0
  8  2  2  0
  9  8  1  0
  9 25  2  0
 10 27  1  0
 14 16  1  0
 15 23  2  0
 16 19  1  0
 17 25  1  0
 18  7  1  0
 19  1  1  0
 20 22  1  0
 21 20  1  0
 22 13  2  0
 23 10  1  0
 24 18  1  0
 24 20  2  0
 25  4  1  0
 26 21  1  0
  1 28  1  0
  4 29  1  0
  6 30  1  0
  6 31  1  0
  8 32  1  0
  9 33  1  0
 11 34  1  0
 12 35  1  0
 12 36  1  0
 12 37  1  0
 13 38  1  0
 14 39  1  0
 15 40  1  0
 16 41  1  0
 17 42  1  0
 17 43  1  0
 22 44  1  0
 24 45  1  0
 26 46  1  0
 26 47  1  0
 26 48  1  0
 27 49  1  0
M  END
>  <mol_id>  (59) 
2026-08-23-6tgu-s0-n100-prep-0060

>  <rmsd_to_ref>  (59) 


$$$$

     RDKit          3D

 24 25  0  0  0  0  0  0  0  0999 V2000
    2.6070   21.4650   36.1240 O   0  0  0  0  0  0  0  0  0  0  0  0
    2.8350   19.3150   38.8090 N   0  0  0  0  0  0  0  0  0  0  0  0
    0.6580   19.7130   41.6710 C   0  0  0  0  0  0  0  0  0  0  0  0
    3.7550   19.5990   36.3490 O   0  0  0  0  0  0  0  0  0  0  0  0
   -0.4170   17.3940   44.2190 C   0  0  0  0  0  0  0  0  0  0  0  0
    2.5070   20.4530   38.1590 C   0  0  0  0  0  0  0  0  0  0  0  0
    1.3910   17.4460   41.6740 C   0  0  0  0  0  0  0  0  0  0  0  0
   -0.8520   19.7110   43.4760 N   0  0  0  0  0  0  0  0  0  0  0  0
    0.6820   18.4710   42.1860 C   0  0  0  0  0  0  0  0  0  0  0  0
    1.6990   21.3510   38.5790 O   0  0  0  0  0  0  0  0  0  0  0  0
    2.2020   17.6220   40.4730 C   0  0  0  0  0  0  0  0  0  0  0  0
   -0.2240   20.5470   42.5090 C   0  0  0  0  0  0  0  0  0  0  0  0
    3.0160   20.5190   36.7620 C   0  0  0  0  0  0  0  0  0  0  0  0
    1.4740   19.9700   40.4860 C   0  0  0  0  0  0  0  0  0  0  0  0
   -0.1000   18.4780   43.2610 N   0  0  0  0  0  0  0  0  0  0  0  0
    2.1730   18.9280   39.9520 C   0  0  0  0  0  0  0  0  0  0  0  0
    3.5955   18.7253   38.4420 H   0  0  0  0  0  0  0  0  0  0  0  0
   -0.3072   17.7695   45.2471 H   0  0  0  0  0  0  0  0  0  0  0  0
   -1.4517   17.0558   44.0607 H   0  0  0  0  0  0  0  0  0  0  0  0
    0.2724   16.5516   44.0607 H   0  0  0  0  0  0  0  0  0  0  0  0
    1.3583   16.4635   42.1676 H   0  0  0  0  0  0  0  0  0  0  0  0
    2.7831   16.8070   40.0169 H   0  0  0  0  0  0  0  0  0  0  0  0
   -0.3718   21.6320   42.4046 H   0  0  0  0  0  0  0  0  0  0  0  0
    1.5228   20.9736   40.0384 H   0  0  0  0  0  0  0  0  0  0  0  0
  1 13  2  0
  2 16  1  0
  3  9  1  0
  3 12  1  0
  4 13  1  0
  6 10  2  0
  6  2  1  0
  7  9  2  0
  9 15  1  0
 11  7  1  0
 12  8  2  0
 13  6  1  0
 14  3  2  0
 15  8  1  0
 15  5  1  0
 16 11  2  0
 16 14  1  0
  2 17  1  0
  5 18  1  0
  5 19  1  0
  5 20  1  0
  7 21  1  0
 11 22  1  0
 12 23  1  0
 14 24  1  0
M  CHG  1   4  -1
M  END
>  <mol_id>  (60) 
2026-08-23-6tgu-s0-n100-prep-0061

>  <rmsd_to_ref>  (60) 


$$$$

     RDKit          3D

 47 50  0  0  0  0  0  0  0  0999 V2000
    5.2592   14.2556   37.8252 C   0  0  0  0  0  0  0  0  0  0  0  0
    4.4735   14.1026   38.9182 C   0  0  0  0  0  0  0  0  0  0  0  0
    3.7610   15.2718   39.4100 C   0  0  0  0  0  0  0  0  0  0  0  0
    3.2664   19.8354   36.2068 O   0  0  0  0  0  0  0  0  0  0  0  0
   -0.2039   17.3137   44.4233 C   0  0  0  0  0  0  0  0  0  0  0  0
   -1.5167   18.8249   44.7255 N   0  0  0  0  0  0  0  0  0  0  0  0
    2.0287   19.5735   38.2400 C   0  0  1  0  0  0  0  0  0  0  0  0
    2.8369   17.4810   39.4087 C   0  0  0  0  0  0  0  0  0  0  0  0
    3.6693   16.4943   38.8193 C   0  0  0  0  0  0  0  0  0  0  0  0
   -1.7233   18.0668   46.0295 C   0  0  0  0  0  0  0  0  0  0  0  0
    0.5957   18.4467   41.9061 C   0  0  0  0  0  0  0  0  0  0  0  0
    2.2113   18.0033   40.2569 N   0  0  0  0  0  0  0  0  0  0  0  0
   -1.1304   16.3069   47.2642 C   0  0  0  0  0  0  0  0  0  0  0  0
    0.4512   16.6341   43.5539 C   0  0  0  0  0  0  0  0  0  0  0  0
    2.8001   18.5564   38.4911 N   0  0  0  0  0  0  0  0  0  0  0  0
   -0.2563   19.0865   42.7546 C   0  0  0  0  0  0  0  0  0  0  0  0
    1.1506   19.7797   39.2845 C   0  0  0  0  0  0  0  0  0  0  0  0
    1.3272   18.9171   40.3845 C   0  0  1  0  0  0  0  0  0  0  0  0
    5.3891   15.5080   37.1886 C   0  0  0  0  0  0  0  0  0  0  0  0
    4.5342   16.5404   37.5864 C   0  0  0  0  0  0  0  0  0  0  0  0
    1.0624   17.1937   42.3048 C   0  0  0  0  0  0  0  0  0  0  0  0
    2.1831   20.1278   36.9060 C   0  0  0  0  0  0  0  0  0  0  0  0
   -0.8354   16.8886   45.8221 C   0  0  2  0  0  0  0  0  0  0  0  0
    5.8191   13.2274   37.2797 O   0  0  0  0  0  0  0  0  0  0  0  0
   -0.4888   18.4861   43.8717 C   0  0  0  0  0  0  0  0  0  0  0  0
    4.2570   17.5171   36.7397 O   0  0  0  0  0  0  0  0  0  0  0  0
    1.3763   20.7934   36.3033 O   0  0  0  0  0  0  0  0  0  0  0  0
    4.3774   13.1269   39.4171 H   0  0  0  0  0  0  0  0  0  0  0  0
    3.2363   15.1542   40.3696 H   0  0  0  0  0  0  0  0  0  0  0  0
   -2.1509   19.5981   44.4789 H   0  0  0  0  0  0  0  0  0  0  0  0
    1.2508   18.8912   37.8665 H   0  0  0  0  0  0  0  0  0  0  0  0
   -1.4057   18.6633   46.8974 H   0  0  0  0  0  0  0  0  0  0  0  0
   -2.7717   17.8106   46.2419 H   0  0  0  0  0  0  0  0  0  0  0  0
   -0.9285   17.0804   48.0199 H   0  0  0  0  0  0  0  0  0  0  0  0
   -2.1846   15.9994   47.3269 H   0  0  0  0  0  0  0  0  0  0  0  0
   -0.4830   15.4368   47.4481 H   0  0  0  0  0  0  0  0  0  0  0  0
    0.5739   15.5569   43.7400 H   0  0  0  0  0  0  0  0  0  0  0  0
    3.6025   18.5263   37.8461 H   0  0  0  0  0  0  0  0  0  0  0  0
   -0.7165   20.0534   42.5029 H   0  0  0  0  0  0  0  0  0  0  0  0
    1.2755   20.8141   39.6373 H   0  0  0  0  0  0  0  0  0  0  0  0
    0.1450   19.5744   38.8886 H   0  0  0  0  0  0  0  0  0  0  0  0
    0.9175   19.9374   40.4185 H   0  0  0  0  0  0  0  0  0  0  0  0
    6.1412   15.6675   36.4019 H   0  0  0  0  0  0  0  0  0  0  0  0
    1.8318   16.6497   41.7372 H   0  0  0  0  0  0  0  0  0  0  0  0
   -0.3109   15.9503   45.5883 H   0  0  0  0  0  0  0  0  0  0  0  0
    6.3928   13.3418   36.4810 H   0  0  0  0  0  0  0  0  0  0  0  0
    3.6527   18.2522   37.0127 H   0  0  0  0  0  0  0  0  0  0  0  0
  1  2  1  0
  2  3  2  0
  4 22  2  0
  5 23  1  0
  6 10  1  0
  7 22  1  0
  7 15  1  0
  7 17  1  0
  8 12  2  0
  9  3  1  0
  9  8  1  0
 11 21  1  0
 11 16  2  0
 12 18  1  0
 14  5  1  0
 15  8  1  0
 16 25  1  0
 17 18  1  0
 18 11  1  0
 19  1  2  0
 19 20  1  0
 20  9  2  0
 21 14  2  0
 23 10  1  0
 23 13  1  0
 24  1  1  0
 25  5  2  0
 25  6  1  0
 26 20  1  0
 27 22  1  0
  2 28  1  0
  3 29  1  0
  6 30  1  0
  7 31  1  1
 10 32  1  0
 10 33  1  0
 13 34  1  0
 13 35  1  0
 13 36  1  0
 14 37  1  0
 15 38  1  0
 16 39  1  0
 17 40  1  0
 17 41  1  0
 18 42  1  1
 19 43  1  0
 21 44  1  0
 23 45  1  6
 24 46  1  0
 26 47  1  0
M  CHG  1  27  -1
M  END
>  <mol_id>  (61) 
2026-08-23-6tgu-s0-n100-prep-0062

>  <rmsd_to_ref>  (61) 


$$$$

     RDKit          3D

 46 49  0  0  0  0  0  0  0  0999 V2000
    4.3198   18.9780   35.9778 O   0  0  0  0  0  0  0  0  0  0  0  0
    1.8694   18.0189   41.3306 C   0  0  0  0  0  0  0  0  0  0  0  0
    3.5646   19.2372   36.9969 C   0  0  0  0  0  0  0  0  0  0  0  0
    3.6275   16.8721   39.7093 C   0  0  0  0  0  0  0  0  0  0  0  0
    1.9454   20.0044   39.0325 N   0  0  0  0  0  0  0  0  0  0  0  0
    1.0456   19.0117   41.3601 N   0  0  0  0  0  0  0  0  0  0  0  0
    4.4566   14.5506   39.3182 C   0  0  0  0  0  0  0  0  0  0  0  0
   -0.5175   20.4748   42.1660 C   0  0  0  0  0  0  0  0  0  0  0  0
    2.7449   17.8813   40.1537 C   0  0  2  0  0  0  0  0  0  0  0  0
    4.2395   15.5357   40.2729 C   0  0  0  0  0  0  0  0  0  0  0  0
    0.0233   16.6504   45.6121 C   0  0  0  0  0  0  0  0  0  0  0  0
    2.8231   20.4051   36.8793 C   0  0  0  0  0  0  0  0  0  0  0  0
    0.1517   18.4120   43.4732 C   0  0  1  0  0  0  0  0  0  0  0  0
    2.7201   16.1225   42.4633 O   0  0  0  0  0  0  0  0  0  0  0  0
    0.2904   19.2561   42.3279 N   0  0  0  0  0  0  0  0  0  0  0  0
    0.8203   16.3752   44.5179 C   0  0  0  0  0  0  0  0  0  0  0  0
    0.9322   17.2719   43.5072 C   0  0  0  0  0  0  0  0  0  0  0  0
   -0.7564   17.8640   45.5628 C   0  0  0  0  0  0  0  0  0  0  0  0
    2.6704   18.8535   39.2103 C   0  0  0  0  0  0  0  0  0  0  0  0
   -0.6390   18.7291   44.5114 C   0  0  0  0  0  0  0  0  0  0  0  0
    3.4217   18.4579   38.1611 C   0  0  0  0  0  0  0  0  0  0  0  0
    3.8504   17.2711   38.4787 C   0  0  0  0  0  0  0  0  0  0  0  0
    2.0080   20.7907   37.9141 C   0  0  0  0  0  0  0  0  0  0  0  0
    1.9007   17.1087   42.4198 C   0  0  0  0  0  0  0  0  0  0  0  0
    0.2591   21.3623   41.2211 C   0  0  0  0  0  0  0  0  0  0  0  0
    4.8844   18.1648   35.9743 H   0  0  0  0  0  0  0  0  0  0  0  0
    4.5564   13.5742   39.8149 H   0  0  0  0  0  0  0  0  0  0  0  0
    3.6064   14.5220   38.6208 H   0  0  0  0  0  0  0  0  0  0  0  0
    5.3790   14.7752   38.7626 H   0  0  0  0  0  0  0  0  0  0  0  0
   -1.5008   20.2284   41.7387 H   0  0  0  0  0  0  0  0  0  0  0  0
   -0.6983   20.9714   43.1307 H   0  0  0  0  0  0  0  0  0  0  0  0
    1.9228   17.4072   39.5975 H   0  0  0  0  0  0  0  0  0  0  0  0
    5.2037   15.7729   40.7463 H   0  0  0  0  0  0  0  0  0  0  0  0
    3.5006   15.1281   40.9786 H   0  0  0  0  0  0  0  0  0  0  0  0
   -0.0153   15.9761   46.4804 H   0  0  0  0  0  0  0  0  0  0  0  0
    2.8882   21.0151   35.9662 H   0  0  0  0  0  0  0  0  0  0  0  0
   -0.6903   17.8947   42.9900 H   0  0  0  0  0  0  0  0  0  0  0  0
    2.7138   15.5075   43.2391 H   0  0  0  0  0  0  0  0  0  0  0  0
    1.3677   15.4225   44.4662 H   0  0  0  0  0  0  0  0  0  0  0  0
   -1.4537   18.0954   46.3814 H   0  0  0  0  0  0  0  0  0  0  0  0
   -1.1898   19.6813   44.5156 H   0  0  0  0  0  0  0  0  0  0  0  0
    4.3741   16.6332   37.7514 H   0  0  0  0  0  0  0  0  0  0  0  0
    1.4157   21.7151   37.8458 H   0  0  0  0  0  0  0  0  0  0  0  0
    0.6169   22.2503   41.7628 H   0  0  0  0  0  0  0  0  0  0  0  0
    1.1193   20.8065   40.8196 H   0  0  0  0  0  0  0  0  0  0  0  0
   -0.3935   21.6762   40.3931 H   0  0  0  0  0  0  0  0  0  0  0  0
  1  3  1  0
  2  6  2  0
  2 24  1  0
  3 12  2  0
  3 21  1  0
  4 10  1  0
  4  9  1  0
  6 15  1  0
  7 10  1  0
  9  2  1  0
 11 18  1  0
 12 23  1  0
 13 20  1  0
 14 24  1  0
 15  8  1  0
 15 13  1  0
 16 11  2  0
 17 13  1  0
 17 16  1  0
 19  5  1  0
 19  9  1  0
 20 18  2  0
 21 19  2  0
 22 21  1  0
 22  4  2  0
 23  5  2  0
 24 17  2  0
 25  8  1  0
  1 26  1  0
  7 27  1  0
  7 28  1  0
  7 29  1  0
  8 30  1  0
  8 31  1  0
  9 32  1  1
 10 33  1  0
 10 34  1  0
 11 35  1  0
 12 36  1  0
 13 37  1  6
 14 38  1  0
 16 39  1  0
 18 40  1  0
 20 41  1  0
 22 42  1  0
 23 43  1  0
 25 44  1  0
 25 45  1  0
 25 46  1  0
M  END
>  <mol_id>  (62) 
2026-08-23-6tgu-s0-n100-prep-0063

>  <rmsd_to_ref>  (62) 


$$$$

     RDKit          3D

 62 67  0  0  0  0  0  0  0  0999 V2000
    1.4777   19.7258   39.8204 C   0  0  0  0  0  0  0  0  0  0  0  0
    2.6503   14.0528   42.0160 C   0  0  0  0  0  0  0  0  0  0  0  0
   -0.4954   20.3637   41.2971 C   0  0  0  0  0  0  0  0  0  0  0  0
   -0.3834   13.6821   45.2164 O   0  0  0  0  0  0  0  0  0  0  0  0
   -0.6535   17.6373   43.8868 C   0  0  1  0  0  0  0  0  0  0  0  0
    3.2376   20.3519   36.0337 C   0  0  0  0  0  0  0  0  0  0  0  0
   -2.6266   16.6832   47.0228 C   0  0  0  0  0  0  0  0  0  0  0  0
   -0.5038   12.1727   45.2097 C   0  0  0  0  0  0  0  0  0  0  0  0
    0.6924   18.1706   41.5699 C   0  0  0  0  0  0  0  0  0  0  0  0
   -1.7704   16.4293   46.0029 C   0  0  1  0  0  0  0  0  0  0  0  0
    2.1173   19.9466   38.5641 N   0  0  0  0  0  0  0  0  0  0  0  0
    0.5299   15.3035   43.6860 C   0  0  1  0  0  0  0  0  0  0  0  0
    3.3876   18.4358   37.3588 C   0  0  0  0  0  0  0  0  0  0  0  0
    3.7813   19.1125   36.3423 C   0  0  0  0  0  0  0  0  0  0  0  0
   -1.2514   16.5917   44.8535 C   0  0  2  0  0  0  0  0  0  0  0  0
    1.4850   14.6120   41.4693 O   0  0  0  0  0  0  0  0  0  0  0  0
    1.6907   20.9500   36.6757 C   0  0  0  0  0  0  0  0  0  0  0  0
   -3.1254   17.7702   45.6647 O   0  0  0  0  0  0  0  0  0  0  0  0
   -1.9058   19.5044   43.7631 O   0  0  0  0  0  0  0  0  0  0  0  0
    0.9486   15.6324   42.2057 C   0  0  0  0  0  0  0  0  0  0  0  0
    0.6996   16.9897   41.8281 N   0  0  0  0  0  0  0  0  0  0  0  0
   -0.4360   16.4399   43.9815 N   0  0  0  0  0  0  0  0  0  0  0  0
   -1.7565   11.9303   44.4731 O   0  0  0  0  0  0  0  0  0  0  0  0
    3.9436   17.3540   37.8188 N   0  0  0  0  0  0  0  0  0  0  0  0
    1.9460   20.3234   37.6938 C   0  0  0  0  0  0  0  0  0  0  0  0
    1.6650   18.5137   40.5648 C   0  0  0  0  0  0  0  0  0  0  0  0
    0.4874   20.6357   40.2799 C   0  0  0  0  0  0  0  0  0  0  0  0
   -0.9243   18.8025   43.1851 C   0  0  1  0  0  0  0  0  0  0  0  0
    2.6483   19.0409   38.1595 C   0  0  0  0  0  0  0  0  0  0  0  0
   -2.1226   17.6339   45.7365 C   0  0  2  0  0  0  0  0  0  0  0  0
   -0.2293   19.1611   41.9392 C   0  0  0  0  0  0  0  0  0  0  0  0
   -0.3818   14.0754   43.8957 C   0  0  0  0  0  0  0  0  0  0  0  0
    3.6561   21.0468   35.1466 O   0  0  0  0  0  0  0  0  0  0  0  0
    2.5836   14.0671   43.1138 H   0  0  0  0  0  0  0  0  0  0  0  0
    2.7566   13.0146   41.6686 H   0  0  0  0  0  0  0  0  0  0  0  0
    3.5239   14.6385   41.6940 H   0  0  0  0  0  0  0  0  0  0  0  0
   -1.3446   21.0214   41.5342 H   0  0  0  0  0  0  0  0  0  0  0  0
   -0.1773   18.6011   43.6541 H   0  0  0  0  0  0  0  0  0  0  0  0
   -3.6336   16.2419   47.0565 H   0  0  0  0  0  0  0  0  0  0  0  0
   -2.6389   16.6992   48.1226 H   0  0  0  0  0  0  0  0  0  0  0  0
    0.3513   11.7124   44.6932 H   0  0  0  0  0  0  0  0  0  0  0  0
   -0.5108   11.7392   46.2207 H   0  0  0  0  0  0  0  0  0  0  0  0
   -1.3781   15.4414   46.2859 H   0  0  0  0  0  0  0  0  0  0  0  0
    1.4487   15.1493   44.2708 H   0  0  0  0  0  0  0  0  0  0  0  0
    4.5713   18.6994   35.6979 H   0  0  0  0  0  0  0  0  0  0  0  0
    1.6370   22.0408   36.8070 H   0  0  0  0  0  0  0  0  0  0  0  0
    0.7435   20.8187   36.1319 H   0  0  0  0  0  0  0  0  0  0  0  0
   -3.5149   17.8383   46.5722 H   0  0  0  0  0  0  0  0  0  0  0  0
   -1.8400   19.4156   44.7469 H   0  0  0  0  0  0  0  0  0  0  0  0
   -2.5037   11.8342   45.1154 H   0  0  0  0  0  0  0  0  0  0  0  0
    3.8702   17.3403   38.8461 H   0  0  0  0  0  0  0  0  0  0  0  0
    3.4646   16.5295   37.4293 H   0  0  0  0  0  0  0  0  0  0  0  0
    4.9365   17.3353   37.5453 H   0  0  0  0  0  0  0  0  0  0  0  0
    1.2242   19.5322   37.4428 H   0  0  0  0  0  0  0  0  0  0  0  0
    2.7639   21.0345   37.8818 H   0  0  0  0  0  0  0  0  0  0  0  0
    2.5303   17.8624   40.3725 H   0  0  0  0  0  0  0  0  0  0  0  0
    0.4700   21.6343   39.8188 H   0  0  0  0  0  0  0  0  0  0  0  0
   -1.6668   18.2641   42.5778 H   0  0  0  0  0  0  0  0  0  0  0  0
    1.7635   18.3968   38.0485 H   0  0  0  0  0  0  0  0  0  0  0  0
    3.5565   19.3947   38.6693 H   0  0  0  0  0  0  0  0  0  0  0  0
   -1.4082   14.3338   43.5959 H   0  0  0  0  0  0  0  0  0  0  0  0
    0.0008   13.2458   43.2831 H   0  0  0  0  0  0  0  0  0  0  0  0
  1 27  1  0
  1 26  2  0
  3 31  1  0
  5 22  1  0
  5 15  1  0
  6 14  1  0
  6 17  1  0
  8  4  1  0
  9 21  1  0
  9 31  2  0
 10  7  1  0
 11  1  1  0
 12 32  1  0
 12 22  1  0
 13 24  1  0
 13 29  1  0
 14 13  2  0
 15 30  1  0
 15 10  1  0
 16  2  1  0
 16 20  1  0
 17 25  1  0
 20 12  1  0
 21 20  2  0
 15 22  1  6
 23  8  1  0
 25 11  1  0
 26  9  1  0
 27  3  2  0
 28  5  1  0
 28 19  1  0
 29 11  1  0
 30 18  1  6
 30 10  1  0
 30  7  1  0
 31 28  1  0
 32  4  1  0
 33  6  2  0
  2 34  1  0
  2 35  1  0
  2 36  1  0
  3 37  1  0
  5 38  1  1
  7 39  1  0
  7 40  1  0
  8 41  1  0
  8 42  1  0
 10 43  1  1
 12 44  1  1
 14 45  1  0
 17 46  1  0
 17 47  1  0
 18 48  1  0
 19 49  1  0
 23 50  1  0
 24 51  1  0
 24 52  1  0
 24 53  1  0
 25 54  1  0
 25 55  1  0
 26 56  1  0
 27 57  1  0
 28 58  1  6
 29 59  1  0
 29 60  1  0
 32 61  1  0
 32 62  1  0
M  CHG  1  24   1
M  END
>  <mol_id>  (63) 
2026-08-23-6tgu-s0-n100-prep-0064

>  <rmsd_to_ref>  (63) 


$$$$

     RDKit          3D

 39 40  0  0  0  0  0  0  0  0999 V2000
   -0.6176   17.1689   43.0793 C   0  0  0  0  0  0  0  0  0  0  0  0
    0.3129   17.1285   42.0628 C   0  0  0  0  0  0  0  0  0  0  0  0
    3.1768   17.8469   38.2736 C   0  0  0  0  0  0  0  0  0  0  0  0
    2.5558   19.4308   39.8755 C   0  0  1  0  0  0  0  0  0  0  0  0
    2.3005   20.1697   38.9557 O   0  0  0  0  0  0  0  0  0  0  0  0
   -1.2843   18.3728   43.2713 C   0  0  0  0  0  0  0  0  0  0  0  0
    0.6855   18.3164   41.2490 C   0  0  2  0  0  0  0  0  0  0  0  0
   -0.1424   19.4522   41.5036 C   0  0  0  0  0  0  0  0  0  0  0  0
    0.8539   16.0058   41.9076 O   0  0  0  0  0  0  0  0  0  0  0  0
    2.4410   20.5913   40.3794 O   0  0  0  0  0  0  0  0  0  0  0  0
    1.8360   18.1827   40.4211 C   0  0  1  0  0  0  0  0  0  0  0  0
    2.6024   17.0350   39.4876 C   0  0  0  0  0  0  0  0  0  0  0  0
    3.2048   20.6529   37.2968 C   0  0  1  0  0  0  0  0  0  0  0  0
    2.4403   21.4531   38.3184 C   0  0  0  0  0  0  0  0  0  0  0  0
   -1.0978   19.5213   42.4396 C   0  0  0  0  0  0  0  0  0  0  0  0
    4.3957   18.6206   36.3770 O   0  0  0  0  0  0  0  0  0  0  0  0
    3.3684   21.3410   36.1182 O   0  0  0  0  0  0  0  0  0  0  0  0
    3.6670   19.1634   37.3732 C   0  0  0  0  0  0  0  0  0  0  0  0
   -1.9274   18.3246   44.2978 O   0  0  0  0  0  0  0  0  0  0  0  0
    4.8550   17.4015   36.4962 C   0  0  0  0  0  0  0  0  0  0  0  0
    2.4868   15.6003   39.4104 C   0  0  0  0  0  0  0  0  0  0  0  0
   -1.3746   16.3994   42.8682 H   0  0  0  0  0  0  0  0  0  0  0  0
   -0.0419   17.0085   44.0028 H   0  0  0  0  0  0  0  0  0  0  0  0
    3.3611   18.6816   39.8873 H   0  0  0  0  0  0  0  0  0  0  0  0
    1.3761   18.6422   42.0408 H   0  0  0  0  0  0  0  0  0  0  0  0
    0.0180   20.3436   40.8795 H   0  0  0  0  0  0  0  0  0  0  0  0
    2.4040   20.5205   41.3662 H   0  0  0  0  0  0  0  0  0  0  0  0
    1.5195   17.6107   41.3057 H   0  0  0  0  0  0  0  0  0  0  0  0
    2.2072   20.3265   36.9677 H   0  0  0  0  0  0  0  0  0  0  0  0
    3.0267   22.1994   38.8745 H   0  0  0  0  0  0  0  0  0  0  0  0
    1.5977   22.1178   38.0775 H   0  0  0  0  0  0  0  0  0  0  0  0
   -1.7137   20.4242   42.5636 H   0  0  0  0  0  0  0  0  0  0  0  0
    3.7831   22.2204   36.3043 H   0  0  0  0  0  0  0  0  0  0  0  0
    4.8242   17.0998   37.5536 H   0  0  0  0  0  0  0  0  0  0  0  0
    4.2338   16.7158   35.9010 H   0  0  0  0  0  0  0  0  0  0  0  0
    5.8930   17.3637   36.1342 H   0  0  0  0  0  0  0  0  0  0  0  0
    2.4600   15.1794   40.4263 H   0  0  0  0  0  0  0  0  0  0  0  0
    1.5608   15.3352   38.8791 H   0  0  0  0  0  0  0  0  0  0  0  0
    3.3512   15.1915   38.8667 H   0  0  0  0  0  0  0  0  0  0  0  0
  2  9  2  0
  2  1  1  0
  3 12  2  0
  4 10  1  0
  4 11  1  0
  5  4  1  0
  6  1  1  0
  6 19  2  0
  7  8  1  0
  7  2  1  0
  8 15  2  0
 11 12  1  0
 11  7  1  0
 12 21  1  0
 13 17  1  0
 13 18  1  0
 13 14  1  0
 14  5  1  0
 15  6  1  0
 16 20  1  0
 16 18  1  0
 18  3  2  0
  1 22  1  0
  1 23  1  0
  4 24  1  6
  7 25  1  6
  8 26  1  0
 10 27  1  0
 11 28  1  1
 13 29  1  1
 14 30  1  0
 14 31  1  0
 15 32  1  0
 17 33  1  0
 20 34  1  0
 20 35  1  0
 20 36  1  0
 21 37  1  0
 21 38  1  0
 21 39  1  0
M  END
>  <mol_id>  (64) 
2026-08-23-6tgu-s0-n100-prep-0065

>  <rmsd_to_ref>  (64) 


$$$$

     RDKit          3D

 22 23  0  0  0  0  0  0  0  0999 V2000
    1.6955   17.6663   41.7043 N   0  0  0  0  0  0  0  0  0  0  0  0
    2.0239   21.0985   38.0973 C   0  0  0  0  0  0  0  0  0  0  0  0
   -0.2419   18.0992   42.8777 C   0  0  0  0  0  0  0  0  0  0  0  0
    1.2490   18.8320   41.0910 C   0  0  0  0  0  0  0  0  0  0  0  0
    1.0602   16.0707   43.3961 N   0  0  0  0  0  0  0  0  0  0  0  0
    3.4595   19.1807   38.0399 C   0  0  0  0  0  0  0  0  0  0  0  0
    0.7788   17.2883   42.6660 N   0  0  0  0  0  0  0  0  0  0  0  0
    2.9589   18.7345   39.2593 C   0  0  0  0  0  0  0  0  0  0  0  0
    3.0175   20.3021   37.4348 C   0  0  0  0  0  0  0  0  0  0  0  0
    1.8975   19.3876   39.8955 C   0  0  0  0  0  0  0  0  0  0  0  0
    3.3826   20.7210   36.1864 O   0  0  0  0  0  0  0  0  0  0  0  0
   -0.2399   19.3934   41.7644 S   0  0  0  0  0  0  0  0  0  0  0  0
    1.4869   20.5527   39.3051 C   0  0  0  0  0  0  0  0  0  0  0  0
    1.6952   22.0701   37.6999 H   0  0  0  0  0  0  0  0  0  0  0  0
   -1.1789   17.5333   42.7691 H   0  0  0  0  0  0  0  0  0  0  0  0
   -0.1551   18.5121   43.8936 H   0  0  0  0  0  0  0  0  0  0  0  0
    0.8472   16.2116   44.3939 H   0  0  0  0  0  0  0  0  0  0  0  0
    0.4784   15.3059   43.0255 H   0  0  0  0  0  0  0  0  0  0  0  0
    4.2493   18.5936   37.5485 H   0  0  0  0  0  0  0  0  0  0  0  0
    3.4074   17.8491   39.7333 H   0  0  0  0  0  0  0  0  0  0  0  0
    3.0090   21.5599   35.8168 H   0  0  0  0  0  0  0  0  0  0  0  0
    0.6797   21.1135   39.7990 H   0  0  0  0  0  0  0  0  0  0  0  0
  1  7  1  0
  2 13  2  0
  4  1  2  0
  4 12  1  0
  6  8  1  0
  7  5  1  0
  7  3  1  0
  8 10  2  0
  9  6  2  0
  9  2  1  0
 10  4  1  0
 11  9  1  0
 12  3  1  0
 13 10  1  0
  2 14  1  0
  3 15  1  0
  3 16  1  0
  5 17  1  0
  5 18  1  0
  6 19  1  0
  8 20  1  0
 11 21  1  0
 13 22  1  0
M  END
>  <mol_id>  (65) 
2026-08-23-6tgu-s0-n100-prep-0066

>  <rmsd_to_ref>  (65) 


$$$$

     RDKit          3D

 41 45  0  0  0  0  0  0  0  0999 V2000
    1.0701   15.2451   43.4111 C   0  0  0  0  0  0  0  0  0  0  0  0
    0.0802   14.1733   45.4974 N   0  0  0  0  0  0  0  0  0  0  0  0
    0.7883   13.1386   44.9210 C   0  0  0  0  0  0  0  0  0  0  0  0
    2.3839   18.8473   38.6274 C   0  0  0  0  0  0  0  0  0  0  0  0
    1.2169   18.6016   41.0482 C   0  0  0  0  0  0  0  0  0  0  0  0
    2.0610   15.8023   41.1078 C   0  0  0  0  0  0  0  0  0  0  0  0
    1.9883   13.3392   42.1478 C   0  0  0  0  0  0  0  0  0  0  0  0
    2.0997   20.3023   38.5518 C   0  0  0  0  0  0  0  0  0  0  0  0
   -0.5126   16.8241   44.7697 C   0  0  0  0  0  0  0  0  0  0  0  0
    1.3039   16.1444   42.3434 C   0  0  0  0  0  0  0  0  0  0  0  0
    3.2777   16.6391   37.6509 C   0  0  0  0  0  0  0  0  0  0  0  0
    2.9547   15.9606   38.8370 C   0  0  0  0  0  0  0  0  0  0  0  0
    0.2497   15.4315   44.6607 C   0  0  0  0  0  0  0  0  0  0  0  0
    2.3700   21.0217   37.5024 O   0  0  0  0  0  0  0  0  0  0  0  0
    1.3563   20.9308   39.7509 C   0  0  0  0  0  0  0  0  0  0  0  0
    1.3044   13.6960   43.5159 C   0  0  2  0  0  0  0  0  0  0  0  0
    0.7151   20.5655   42.0176 O   0  0  0  0  0  0  0  0  0  0  0  0
    1.0583   20.1116   40.9200 C   0  0  0  0  0  0  0  0  0  0  0  0
    0.1566   17.9505   43.7661 C   0  0  0  0  0  0  0  0  0  0  0  0
    3.1388   18.7032   36.2680 O   0  0  0  0  0  0  0  0  0  0  0  0
    2.9908   18.0390   37.5194 C   0  0  0  0  0  0  0  0  0  0  0  0
    0.8098   12.0682   45.3176 O   0  0  0  0  0  0  0  0  0  0  0  0
    0.8440   17.7338   42.3814 C   0  0  0  0  0  0  0  0  0  0  0  0
    2.3662   16.6361   39.8955 C   0  0  0  0  0  0  0  0  0  0  0  0
    2.0034   18.0882   39.8499 C   0  0  0  0  0  0  0  0  0  0  0  0
    3.2956   14.6249   38.9999 O   0  0  0  0  0  0  0  0  0  0  0  0
   -0.4769   14.1040   46.3610 H   0  0  0  0  0  0  0  0  0  0  0  0
    2.4600   14.7776   41.0776 H   0  0  0  0  0  0  0  0  0  0  0  0
    2.9073   12.7648   42.3361 H   0  0  0  0  0  0  0  0  0  0  0  0
    1.2979   12.7371   41.5387 H   0  0  0  0  0  0  0  0  0  0  0  0
    2.2387   14.2657   41.6103 H   0  0  0  0  0  0  0  0  0  0  0  0
   -1.5674   16.6786   44.4932 H   0  0  0  0  0  0  0  0  0  0  0  0
   -0.4298   17.1866   45.8050 H   0  0  0  0  0  0  0  0  0  0  0  0
    3.7521   16.0961   36.8203 H   0  0  0  0  0  0  0  0  0  0  0  0
    2.1620   21.9896   37.4988 H   0  0  0  0  0  0  0  0  0  0  0  0
    1.0538   21.9881   39.7232 H   0  0  0  0  0  0  0  0  0  0  0  0
    0.3157   13.5163   43.0685 H   0  0  0  0  0  0  0  0  0  0  0  0
   -0.6610   18.6570   43.5604 H   0  0  0  0  0  0  0  0  0  0  0  0
    1.0559   18.1778   44.3574 H   0  0  0  0  0  0  0  0  0  0  0  0
    2.9368   19.6694   36.1936 H   0  0  0  0  0  0  0  0  0  0  0  0
    3.0642   14.1537   39.8392 H   0  0  0  0  0  0  0  0  0  0  0  0
  1 16  1  0
  1 13  2  0
  3  2  1  0
  3 22  2  0
  4 25  2  0
  5 23  2  0
  6 10  2  0
  8  4  1  0
  8 15  2  0
  9 13  1  0
 10  1  1  0
 11 12  1  0
 12 26  1  0
 12 24  2  0
 13  2  1  0
 14  8  1  0
 15 18  1  0
 16  7  1  0
 16  3  1  0
 18  5  1  0
 18 17  2  0
 19  9  1  0
 20 21  1  0
 21 11  2  0
 21  4  1  0
 23 10  1  0
 23 19  1  0
 24  6  1  0
 25 24  1  0
 25  5  1  0
  2 27  1  0
  6 28  1  0
  7 29  1  0
  7 30  1  0
  7 31  1  0
  9 32  1  0
  9 33  1  0
 11 34  1  0
 14 35  1  0
 15 36  1  0
 16 37  1  6
 19 38  1  0
 19 39  1  0
 20 40  1  0
 26 41  1  0
M  END
>  <mol_id>  (66) 
2026-08-23-6tgu-s0-n100-prep-0067

>  <rmsd_to_ref>  (66) 


$$$$

     RDKit          3D

 23 25  0  0  0  0  0  0  0  0999 V2000
    2.9969   20.7034   38.4381 N   0  0  0  0  0  0  0  0  0  0  0  0
    0.6412   20.2804   41.3769 C   0  0  0  0  0  0  0  0  0  0  0  0
   -0.9618   17.5633   43.3055 C   0  0  0  0  0  0  0  0  0  0  0  0
    1.7160   18.1053   40.9153 C   0  0  0  0  0  0  0  0  0  0  0  0
    3.2895   17.9387   39.1108 O   0  0  0  0  0  0  0  0  0  0  0  0
    4.3445   19.0703   37.3075 O   0  0  0  0  0  0  0  0  0  0  0  0
   -0.0567   15.5736   42.8115 C   0  0  0  0  0  0  0  0  0  0  0  0
    3.8955   20.2940   37.4170 C   0  0  0  0  0  0  0  0  0  0  0  0
    1.7011   16.7319   41.2175 N   0  0  0  0  0  0  0  0  0  0  0  0
    0.0328   17.8272   42.3633 C   0  0  0  0  0  0  0  0  0  0  0  0
   -0.9857   16.2720   43.4399 N   0  0  0  0  0  0  0  0  0  0  0  0
    4.2427   21.1427   36.5713 O   0  0  0  0  0  0  0  0  0  0  0  0
    1.4270   20.8599   40.3972 C   0  0  0  0  0  0  0  0  0  0  0  0
    0.7774   18.8614   41.5991 C   0  0  0  0  0  0  0  0  0  0  0  0
    2.2855   20.0927   39.5399 C   0  0  0  0  0  0  0  0  0  0  0  0
    0.6251   16.5765   42.0966 C   0  0  0  0  0  0  0  0  0  0  0  0
    2.4548   18.7383   39.7845 C   0  0  0  0  0  0  0  0  0  0  0  0
    2.7969   21.7120   38.3774 H   0  0  0  0  0  0  0  0  0  0  0  0
   -0.0650   20.8822   41.9678 H   0  0  0  0  0  0  0  0  0  0  0  0
   -1.5946   18.2969   43.8264 H   0  0  0  0  0  0  0  0  0  0  0  0
    3.3537   16.9792   39.3462 H   0  0  0  0  0  0  0  0  0  0  0  0
    0.1341   14.4907   42.8395 H   0  0  0  0  0  0  0  0  0  0  0  0
    1.3927   21.9520   40.2700 H   0  0  0  0  0  0  0  0  0  0  0  0
  1 15  1  0
  2 14  1  0
  3 11  1  0
  4  9  1  0
  4 14  2  0
  5 17  1  0
  7 11  2  0
  8  6  1  0
  8  1  1  0
  9 16  2  0
 10  3  2  0
 12  8  2  0
 13  2  2  0
 14 10  1  0
 15 17  2  0
 15 13  1  0
 16 10  1  0
 16  7  1  0
 17  4  1  0
  1 18  1  0
  2 19  1  0
  3 20  1  0
  5 21  1  0
  7 22  1  0
 13 23  1  0
M  CHG  1   6  -1
M  END
>  <mol_id>  (67) 
2026-08-23-6tgu-s0-n100-prep-0068

>  <rmsd_to_ref>  (67) 


$$$$

     RDKit          3D

 32 33  0  0  0  0  0  0  0  0999 V2000
    2.6239   20.0673   38.1134 C   0  0  0  0  0  0  0  0  0  0  0  0
    0.6675   17.4523   42.0207 N   0  0  0  0  0  0  0  0  0  0  0  0
    2.2984   18.6765   37.9505 C   0  0  0  0  0  0  0  0  0  0  0  0
    0.1366   17.8065   45.2708 N   0  0  0  0  0  0  0  0  0  0  0  0
    3.6392   20.9842   36.1709 O   0  0  0  0  0  0  0  0  0  0  0  0
    0.6170   18.3042   44.2684 N   0  0  0  0  0  0  0  0  0  0  0  0
    2.2100   20.0070   40.4508 C   0  0  0  0  0  0  0  0  0  0  0  0
   -1.5768   16.2089   46.2005 N   0  0  0  0  0  0  0  0  0  0  0  0
   -0.7416   16.7015   45.0468 C   0  0  0  0  0  0  0  0  0  0  0  0
    0.2733   17.5544   43.2643 C   0  0  0  0  0  0  0  0  0  0  0  0
   -0.5186   16.4103   43.7504 C   0  0  1  0  0  0  0  0  0  0  0  0
    2.9148   21.1333   37.0672 C   0  0  0  0  0  0  0  0  0  0  0  0
    2.5583   22.2786   37.3865 O   0  0  0  0  0  0  0  0  0  0  0  0
   -0.7948   15.1176   42.9933 C   0  0  0  0  0  0  0  0  0  0  0  0
    2.5765   20.7225   39.3485 C   0  0  0  0  0  0  0  0  0  0  0  0
    2.4032   17.9664   36.6049 C   0  0  0  0  0  0  0  0  0  0  0  0
    1.7934   18.0732   39.0825 C   0  0  0  0  0  0  0  0  0  0  0  0
    1.2198   18.2436   41.4209 C   0  0  0  0  0  0  0  0  0  0  0  0
    1.8093   18.6598   40.2648 C   0  0  0  0  0  0  0  0  0  0  0  0
    2.2248   20.4612   41.4525 H   0  0  0  0  0  0  0  0  0  0  0  0
   -2.2189   15.4143   46.0691 H   0  0  0  0  0  0  0  0  0  0  0  0
   -1.5056   16.6668   47.1203 H   0  0  0  0  0  0  0  0  0  0  0  0
   -1.2820   15.8333   43.2077 H   0  0  0  0  0  0  0  0  0  0  0  0
   -0.7342   14.2662   43.6872 H   0  0  0  0  0  0  0  0  0  0  0  0
   -1.8013   15.1594   42.5513 H   0  0  0  0  0  0  0  0  0  0  0  0
   -0.0486   14.9938   42.1948 H   0  0  0  0  0  0  0  0  0  0  0  0
    2.8290   21.7900   39.4292 H   0  0  0  0  0  0  0  0  0  0  0  0
    2.7040   16.9205   36.7647 H   0  0  0  0  0  0  0  0  0  0  0  0
    1.4269   17.9939   36.0987 H   0  0  0  0  0  0  0  0  0  0  0  0
    3.1542   18.4726   35.9807 H   0  0  0  0  0  0  0  0  0  0  0  0
    1.3610   17.0653   38.9973 H   0  0  0  0  0  0  0  0  0  0  0  0
    1.3358   19.0896   42.1142 H   0  0  0  0  0  0  0  0  0  0  0  0
  1  3  2  0
  1 15  1  0
  2 10  1  0
  3 17  1  0
  4  9  2  0
  5 12  2  0
  6  4  1  0
  7 19  1  0
  9  8  1  0
 10 11  1  0
 10  6  2  0
 11 14  1  0
 11  9  1  0
 12  1  1  0
 13 12  1  0
 15  7  2  0
 16  3  1  0
 17 19  2  0
 18  2  2  3
 19 18  1  0
  7 20  1  0
  8 21  1  0
  8 22  1  0
 11 23  1  6
 14 24  1  0
 14 25  1  0
 14 26  1  0
 15 27  1  0
 16 28  1  0
 16 29  1  0
 16 30  1  0
 17 31  1  0
 18 32  1  0
M  CHG  1  13  -1
M  END
>  <mol_id>  (68) 
2026-08-23-6tgu-s0-n100-prep-0069

>  <rmsd_to_ref>  (68) 


$$$$

     RDKit          3D

 46 47  0  0  0  0  0  0  0  0999 V2000
    0.0750   18.5120   46.3180 F   0  0  0  0  0  0  0  0  0  0  0  0
    3.7440   12.8690   39.9110 C   0  0  0  0  0  0  0  0  0  0  0  0
    2.1360   20.8840   39.1770 N   0  0  0  0  0  0  0  0  0  0  0  0
    3.0820   16.7620   38.2530 C   0  0  0  0  0  0  0  0  0  0  0  0
   -0.1250   20.9810   42.1190 C   0  0  0  0  0  0  0  0  0  0  0  0
    3.7050   11.8240   39.5100 F   0  0  0  0  0  0  0  0  0  0  0  0
    2.7810   15.1660   40.0470 C   0  0  0  0  0  0  0  0  0  0  0  0
   -0.9290   17.3540   44.7840 F   0  0  0  0  0  0  0  0  0  0  0  0
    2.5340   16.4710   39.6270 C   0  0  0  0  0  0  0  0  0  0  0  0
    3.7090   19.2380   38.5350 C   0  0  0  0  0  0  0  0  0  0  0  0
   -0.2560   19.6280   42.4030 C   0  0  0  0  0  0  0  0  0  0  0  0
    0.7290   21.3390   41.0750 C   0  0  0  0  0  0  0  0  0  0  0  0
   -0.6150   18.5270   45.2710 C   0  0  0  0  0  0  0  0  0  0  0  0
   -2.4760   18.8410   43.2030 C   0  0  0  0  0  0  0  0  0  0  0  0
    4.2960   13.6310   37.3220 O   0  0  0  0  0  0  0  0  0  0  0  0
    3.2120   18.1230   37.6200 C   0  0  1  0  0  0  0  0  0  0  0  0
    1.4500   20.4220   40.3730 C   0  0  0  0  0  0  0  0  0  0  0  0
   -0.8680   19.6840   44.6990 N   0  0  0  0  0  0  0  0  0  0  0  0
    1.4400   19.0610   40.7220 C   0  0  0  0  0  0  0  0  0  0  0  0
    3.6780   15.7970   37.5320 N   0  0  0  0  0  0  0  0  0  0  0  0
    2.7510   20.7400   37.0510 O   0  0  0  0  0  0  0  0  0  0  0  0
    0.5300   18.6960   41.7240 C   0  0  0  0  0  0  0  0  0  0  0  0
    2.7720   20.4100   38.1470 C   0  0  0  0  0  0  0  0  0  0  0  0
   -1.1940   19.3820   43.3960 N   0  0  0  0  0  0  0  0  0  0  0  0
    3.7310   14.5510   38.0050 C   0  0  0  0  0  0  0  0  0  0  0  0
    5.1350   12.8910   39.8880 F   0  0  0  0  0  0  0  0  0  0  0  0
    3.1950   12.7350   41.0580 F   0  0  0  0  0  0  0  0  0  0  0  0
    3.4050   14.2090   39.2810 C   0  0  0  0  0  0  0  0  0  0  0  0
    4.0700   17.9510   36.5820 O   0  0  0  0  0  0  0  0  0  0  0  0
    2.1097   21.9127   39.1315 H   0  0  0  0  0  0  0  0  0  0  0  0
   -0.6732   21.7412   42.6948 H   0  0  0  0  0  0  0  0  0  0  0  0
    2.4554   14.8819   41.0586 H   0  0  0  0  0  0  0  0  0  0  0  0
    2.9992   17.1637   40.3437 H   0  0  0  0  0  0  0  0  0  0  0  0
    1.4426   16.6001   39.5798 H   0  0  0  0  0  0  0  0  0  0  0  0
    3.5936   18.9673   39.5949 H   0  0  0  0  0  0  0  0  0  0  0  0
    4.7787   19.4661   38.4178 H   0  0  0  0  0  0  0  0  0  0  0  0
    0.8232   22.4022   40.8092 H   0  0  0  0  0  0  0  0  0  0  0  0
   -1.5335   18.5216   45.8762 H   0  0  0  0  0  0  0  0  0  0  0  0
   -2.9419   18.6444   44.1799 H   0  0  0  0  0  0  0  0  0  0  0  0
   -3.0942   19.5550   42.6390 H   0  0  0  0  0  0  0  0  0  0  0  0
   -2.3958   17.9000   42.6390 H   0  0  0  0  0  0  0  0  0  0  0  0
    2.2094   18.4672   37.3262 H   0  0  0  0  0  0  0  0  0  0  0  0
   -1.6554   20.1538   45.1682 H   0  0  0  0  0  0  0  0  0  0  0  0
    2.1040   18.3285   40.2397 H   0  0  0  0  0  0  0  0  0  0  0  0
    0.4316   17.6321   41.9855 H   0  0  0  0  0  0  0  0  0  0  0  0
    4.9783   17.7689   36.9313 H   0  0  0  0  0  0  0  0  0  0  0  0
  2 27  1  0
  3 17  1  0
  4  9  1  0
  5 11  1  0
  6  2  1  0
  8 13  1  0
  9  7  1  0
 11 24  1  0
 12  5  2  0
 13  1  1  0
 14 24  1  0
 15 25  2  0
 16 29  1  0
 16  4  1  0
 16 10  1  0
 17 19  2  0
 17 12  1  0
 18 13  1  0
 19 22  1  0
 20 25  1  0
 20  4  2  0
 21 23  2  0
 22 11  2  0
 23 10  1  0
 23  3  1  0
 24 18  1  0
 25 28  1  0
 26  2  1  0
 28  2  1  0
 28  7  2  0
  3 30  1  0
  5 31  1  0
  7 32  1  0
  9 33  1  0
  9 34  1  0
 10 35  1  0
 10 36  1  0
 12 37  1  0
 13 38  1  0
 14 39  1  0
 14 40  1  0
 14 41  1  0
 16 42  1  6
 18 43  1  0
 19 44  1  0
 22 45  1  0
 29 46  1  0
M  END
>  <mol_id>  (69) 
2026-08-23-6tgu-s0-n100-prep-0070

>  <rmsd_to_ref>  (69) 


$$$$

     RDKit          3D

 48 50  0  0  0  0  0  0  0  0999 V2000
   -0.2258   15.1011   45.1078 O   0  0  0  0  0  0  0  0  0  0  0  0
   -0.8384   17.3764   43.7315 N   0  0  0  0  0  0  0  0  0  0  0  0
    0.1039   16.4697   43.2788 C   0  0  1  0  0  0  0  0  0  0  0  0
    0.6702   20.8138   41.0496 C   0  0  0  0  0  0  0  0  0  0  0  0
    1.3816   11.9104   43.8869 C   0  0  0  0  0  0  0  0  0  0  0  0
   -1.6835   18.2136   43.5397 C   0  0  0  0  0  0  0  0  0  0  0  0
    4.1527   18.6082   37.2495 N   0  0  0  0  0  0  0  0  0  0  0  0
    0.2964   15.1742   43.9678 C   0  0  0  0  0  0  0  0  0  0  0  0
    1.8544   20.5795   40.4600 C   0  0  0  0  0  0  0  0  0  0  0  0
    1.3169   18.3829   40.3833 C   0  0  0  0  0  0  0  0  0  0  0  0
    3.3495   18.8226   38.7182 C   0  0  2  0  0  0  0  0  0  0  0  0
    0.8405   16.6692   42.2762 C   0  0  0  0  0  0  0  0  0  0  0  0
    3.1517   20.8366   37.4336 N   0  0  0  0  0  0  0  0  0  0  0  0
    2.1843   19.2338   40.0314 C   0  0  0  0  0  0  0  0  0  0  0  0
    3.6239   20.3669   36.2505 C   0  0  0  0  0  0  0  0  0  0  0  0
    3.8555   20.0890   38.5732 C   0  0  0  0  0  0  0  0  0  0  0  0
   -1.0513   20.3551   42.5558 C   0  0  0  0  0  0  0  0  0  0  0  0
    0.0405   19.8476   41.6806 C   0  0  0  0  0  0  0  0  0  0  0  0
    0.6389   12.9014   43.6820 C   0  0  0  0  0  0  0  0  0  0  0  0
    0.9482   14.2193   43.4621 N   0  0  0  0  0  0  0  0  0  0  0  0
    3.5814   21.3758   35.1817 O   0  0  0  0  0  0  0  0  0  0  0  0
   -1.7285   19.5405   43.5178 N   0  0  0  0  0  0  0  0  0  0  0  0
    4.0367   19.2571   36.3198 N   0  0  0  0  0  0  0  0  0  0  0  0
    0.5518   18.3520   41.7187 C   0  0  0  0  0  0  0  0  0  0  0  0
   -1.4023   16.7283   44.2996 H   0  0  0  0  0  0  0  0  0  0  0  0
   -0.1262   18.1160   43.6497 H   0  0  0  0  0  0  0  0  0  0  0  0
    0.8601   16.9296   43.9321 H   0  0  0  0  0  0  0  0  0  0  0  0
    0.2255   21.8188   41.0042 H   0  0  0  0  0  0  0  0  0  0  0  0
    0.9400   10.9154   44.0445 H   0  0  0  0  0  0  0  0  0  0  0  0
    2.4741   12.0371   43.9087 H   0  0  0  0  0  0  0  0  0  0  0  0
   -2.0595   17.9468   42.5410 H   0  0  0  0  0  0  0  0  0  0  0  0
   -2.1132   18.1318   44.5490 H   0  0  0  0  0  0  0  0  0  0  0  0
    5.1553   18.6476   37.4823 H   0  0  0  0  0  0  0  0  0  0  0  0
    2.5681   21.4018   40.3036 H   0  0  0  0  0  0  0  0  0  0  0  0
    1.0861   17.5846   39.6624 H   0  0  0  0  0  0  0  0  0  0  0  0
    3.1456   17.7719   38.9722 H   0  0  0  0  0  0  0  0  0  0  0  0
    1.8970   16.5422   42.5552 H   0  0  0  0  0  0  0  0  0  0  0  0
    0.6078   15.9512   41.4760 H   0  0  0  0  0  0  0  0  0  0  0  0
    2.4397   21.5721   37.5471 H   0  0  0  0  0  0  0  0  0  0  0  0
    4.9306   20.0230   38.3499 H   0  0  0  0  0  0  0  0  0  0  0  0
    3.6890   20.6416   39.5096 H   0  0  0  0  0  0  0  0  0  0  0  0
   -1.8308   20.7327   41.8777 H   0  0  0  0  0  0  0  0  0  0  0  0
   -0.5018   21.0500   43.2079 H   0  0  0  0  0  0  0  0  0  0  0  0
   -0.4377   12.6755   43.6784 H   0  0  0  0  0  0  0  0  0  0  0  0
    1.7506   14.4401   42.8552 H   0  0  0  0  0  0  0  0  0  0  0  0
   -1.3768   19.8454   44.4367 H   0  0  0  0  0  0  0  0  0  0  0  0
   -2.7094   19.6953   43.2446 H   0  0  0  0  0  0  0  0  0  0  0  0
    4.3260   18.8267   35.4299 H   0  0  0  0  0  0  0  0  0  0  0  0
  3  2  1  0
  3  8  1  0
  4 18  1  0
  6  2  1  0
  7 11  1  0
  8  1  2  0
  9  4  2  0
 10 24  1  0
 11 14  1  0
 12  3  1  0
 13 16  1  0
 14  9  1  0
 14 10  2  0
 15 23  1  0
 15 13  1  0
 16 11  1  0
 17 22  1  0
 18 24  2  0
 18 17  1  0
 19  5  2  3
 20 19  1  0
 20  8  1  0
 21 15  2  0
 22  6  1  0
 23  7  1  0
 24 12  1  0
  2 25  1  0
  2 26  1  0
  3 27  1  1
  4 28  1  0
  5 29  1  0
  5 30  1  0
  6 31  1  0
  6 32  1  0
  7 33  1  0
  9 34  1  0
 10 35  1  0
 11 36  1  1
 12 37  1  0
 12 38  1  0
 13 39  1  0
 16 40  1  0
 16 41  1  0
 17 42  1  0
 17 43  1  0
 19 44  1  0
 20 45  1  0
 22 46  1  0
 22 47  1  0
 23 48  1  0
M  CHG  2   2   1  22   1
M  END
>  <mol_id>  (70) 
2026-08-23-6tgu-s0-n100-prep-0071

>  <rmsd_to_ref>  (70) 


$$$$

     RDKit          3D

 39 40  0  0  0  0  0  0  0  0999 V2000
    3.2893   20.8357   35.7014 O   0  0  0  0  0  0  0  0  0  0  0  0
    0.4239   17.9592   41.7879 C   0  0  0  0  0  0  0  0  0  0  0  0
    3.1182   20.5226   36.8279 C   0  0  0  0  0  0  0  0  0  0  0  0
   -0.5340   18.6644   42.2821 N   0  0  0  0  0  0  0  0  0  0  0  0
    3.7891   15.1525   39.3500 O   0  0  0  0  0  0  0  0  0  0  0  0
    2.6480   19.1024   38.8039 C   0  0  0  0  0  0  0  0  0  0  0  0
    5.2910   16.2073   37.7038 C   0  0  0  0  0  0  0  0  0  0  0  0
    1.9039   16.0525   41.0609 N   0  0  0  0  0  0  0  0  0  0  0  0
    0.9531   18.6507   40.6310 C   0  0  0  0  0  0  0  0  0  0  0  0
   -1.2841   18.2750   43.4302 C   0  0  0  0  0  0  0  0  0  0  0  0
   -0.6585   19.7928   41.5133 C   0  0  0  0  0  0  0  0  0  0  0  0
    0.9208   16.6043   42.0029 C   0  0  0  0  0  0  0  0  0  0  0  0
    3.3068   18.8783   39.2192 C   0  0  0  0  0  0  0  0  0  0  0  0
    1.9519   21.3232   37.1944 O   0  0  0  0  0  0  0  0  0  0  0  0
    0.3122   19.8870   40.5719 C   0  0  0  0  0  0  0  0  0  0  0  0
    4.3769   17.0963   38.4939 N   0  0  0  0  0  0  0  0  0  0  0  0
    2.6121   16.8737   40.2090 C   0  0  0  0  0  0  0  0  0  0  0  0
    4.1670   18.3739   38.4893 C   0  0  0  0  0  0  0  0  0  0  0  0
    2.3211   18.0967   40.0289 C   0  0  0  0  0  0  0  0  0  0  0  0
    3.8951   20.0607   37.4892 C   0  0  0  0  0  0  0  0  0  0  0  0
    3.5963   16.3314   39.3591 C   0  0  0  0  0  0  0  0  0  0  0  0
    0.5361   15.5681   42.9358 N   0  0  0  0  0  0  0  0  0  0  0  0
    2.7439   19.7857   37.9472 H   0  0  0  0  0  0  0  0  0  0  0  0
    1.6578   18.7234   39.0971 H   0  0  0  0  0  0  0  0  0  0  0  0
    5.7927   15.5016   38.3823 H   0  0  0  0  0  0  0  0  0  0  0  0
    4.7052   15.6473   36.9600 H   0  0  0  0  0  0  0  0  0  0  0  0
    6.0455   16.8211   37.1898 H   0  0  0  0  0  0  0  0  0  0  0  0
   -0.9463   18.8538   44.3025 H   0  0  0  0  0  0  0  0  0  0  0  0
   -2.3524   18.4683   43.2532 H   0  0  0  0  0  0  0  0  0  0  0  0
   -1.1323   17.2023   43.6209 H   0  0  0  0  0  0  0  0  0  0  0  0
   -1.4566   20.5382   41.6457 H   0  0  0  0  0  0  0  0  0  0  0  0
    0.5406   20.7394   39.9151 H   0  0  0  0  0  0  0  0  0  0  0  0
    5.1223   18.8493   38.7564 H   0  0  0  0  0  0  0  0  0  0  0  0
    3.7640   18.5502   37.4811 H   0  0  0  0  0  0  0  0  0  0  0  0
    3.5908   20.1657   38.5410 H   0  0  0  0  0  0  0  0  0  0  0  0
    3.9996   18.9939   37.2424 H   0  0  0  0  0  0  0  0  0  0  0  0
    4.8581   20.5690   37.3337 H   0  0  0  0  0  0  0  0  0  0  0  0
    1.0222   14.6601   42.9261 H   0  0  0  0  0  0  0  0  0  0  0  0
   -0.2238   15.7384   43.6100 H   0  0  0  0  0  0  0  0  0  0  0  0
  1  3  2  0
  2 12  2  0
  2  4  1  0
  3 20  1  0
  3 14  1  0
  4 10  1  0
  5 21  2  0
  6 13  2  3
  7 16  1  0
  8 12  1  0
  9 15  1  0
  9  2  1  0
 11  4  1  0
 12 22  1  0
 13 19  1  0
 15 11  2  0
 16 18  1  0
 16 21  1  0
 17  8  2  0
 18 13  1  0
 19 17  1  0
 19  9  2  0
 21 17  1  0
  6 23  1  0
  6 24  1  0
  7 25  1  0
  7 26  1  0
  7 27  1  0
 10 28  1  0
 10 29  1  0
 10 30  1  0
 11 31  1  0
 15 32  1  0
 18 33  1  0
 18 34  1  0
 20 35  1  0
 20 36  1  0
 20 37  1  0
 22 38  1  0
 22 39  1  0
M  CHG  1  14  -1
M  END
>  <mol_id>  (71) 
2026-08-23-6tgu-s0-n100-prep-0072

>  <rmsd_to_ref>  (71) 


$$$$

     RDKit          3D

 23 25  0  0  0  0  0  0  0  0999 V2000
   -1.4309   19.2992   44.2262 N   0  0  0  0  0  0  0  0  0  0  0  0
    1.5488   17.5939   40.2250 S   0  0  0  0  0  0  0  0  0  0  0  0
    1.0288   19.0338   40.7516 C   0  0  0  0  0  0  0  0  0  0  0  0
   -0.9438   18.0637   43.7968 C   0  0  0  0  0  0  0  0  0  0  0  0
    2.1619   21.5989   37.3082 O   0  0  0  0  0  0  0  0  0  0  0  0
   -1.2605   17.0137   44.5189 N   0  0  0  0  0  0  0  0  0  0  0  0
    1.9148   19.5769   38.8125 C   0  0  0  0  0  0  0  0  0  0  0  0
   -0.0367   18.0172   42.6882 N   0  0  0  0  0  0  0  0  0  0  0  0
    0.2543   19.1249   42.0049 C   0  0  0  0  0  0  0  0  0  0  0  0
    2.9747   18.1911   37.4276 C   0  0  0  0  0  0  0  0  0  0  0  0
    2.3380   20.3391   37.6188 C   0  0  0  0  0  0  0  0  0  0  0  0
    2.2520   18.2911   38.7775 C   0  0  0  0  0  0  0  0  0  0  0  0
   -0.2341   20.4146   42.4713 C   0  0  0  0  0  0  0  0  0  0  0  0
    1.0707   21.3005   40.1232 F   0  0  0  0  0  0  0  0  0  0  0  0
   -1.0446   20.4210   43.5447 C   0  0  0  0  0  0  0  0  0  0  0  0
    1.3346   20.0131   39.9794 N   0  0  0  0  0  0  0  0  0  0  0  0
    2.9582   19.4044   36.7617 N   0  0  0  0  0  0  0  0  0  0  0  0
   -0.9255   16.0794   44.2437 H   0  0  0  0  0  0  0  0  0  0  0  0
   -1.8439   17.1243   45.3605 H   0  0  0  0  0  0  0  0  0  0  0  0
    0.3937   17.1216   42.4172 H   0  0  0  0  0  0  0  0  0  0  0  0
    3.4443   17.2751   37.0399 H   0  0  0  0  0  0  0  0  0  0  0  0
    0.0492   21.3490   41.9647 H   0  0  0  0  0  0  0  0  0  0  0  0
   -1.4217   21.3921   43.8979 H   0  0  0  0  0  0  0  0  0  0  0  0
  2  3  1  0
  3  9  2  3
  4  1  2  0
  4  6  1  0
  5 11  2  0
  7 12  2  0
  7 16  1  0
  8  4  1  0
  9 13  1  0
  9  8  1  0
 10 12  1  0
 11  7  1  0
 12  2  1  0
 13 15  2  0
 14 16  1  0
 15  1  1  0
 16  3  1  0
 17 11  1  0
 17 10  2  0
  6 18  1  0
  6 19  1  0
  8 20  1  0
 10 21  1  0
 13 22  1  0
 15 23  1  0
M  END
>  <mol_id>  (72) 
2026-08-23-6tgu-s0-n100-prep-0073

>  <rmsd_to_ref>  (72) 


$$$$

     RDKit          3D

 38 41  0  0  0  0  0  0  0  0999 V2000
    2.7192   15.2347   38.5078 C   0  0  0  0  0  0  0  0  0  0  0  0
   -0.3503   19.7900   42.8968 C   0  0  0  0  0  0  0  0  0  0  0  0
   -0.8479   16.2456   43.9786 C   0  0  0  0  0  0  0  0  0  0  0  0
    1.6440   15.8186   41.3233 O   0  0  0  0  0  0  0  0  0  0  0  0
    3.9567   20.8348   35.3126 O   0  0  0  0  0  0  0  0  0  0  0  0
    2.1542   18.5995   39.1905 C   0  0  0  0  0  0  0  0  0  0  0  0
   -1.1038   17.5733   43.9440 C   0  0  0  0  0  0  0  0  0  0  0  0
   -0.3954   18.3775   42.9915 C   0  0  0  0  0  0  0  0  0  0  0  0
    2.0857   17.3421   39.5432 N   0  0  0  0  0  0  0  0  0  0  0  0
    0.0914   15.6595   43.0122 C   0  0  0  0  0  0  0  0  0  0  0  0
    3.7248   17.2103   36.3213 C   0  0  0  0  0  0  0  0  0  0  0  0
    2.9764   19.9513   37.1385 C   0  0  0  0  0  0  0  0  0  0  0  0
    0.9391   18.9899   41.2075 N   0  0  0  0  0  0  0  0  0  0  0  0
    4.0743   18.4597   35.5472 C   0  0  0  0  0  0  0  0  0  0  0  0
    0.4246   20.1339   41.7317 C   0  0  0  0  0  0  0  0  0  0  0  0
    0.7961   16.4091   42.0464 C   0  0  0  0  0  0  0  0  0  0  0  0
    2.7356   18.7577   37.9646 C   0  0  0  0  0  0  0  0  0  0  0  0
    3.0911   17.5096   37.5226 C   0  0  0  0  0  0  0  0  0  0  0  0
    2.7383   16.7011   38.4996 C   0  0  0  0  0  0  0  0  0  0  0  0
    1.6323   19.5527   39.9021 N   0  0  0  0  0  0  0  0  0  0  0  0
    0.4796   17.8974   42.0340 C   0  0  0  0  0  0  0  0  0  0  0  0
    0.7137   21.3959   41.3632 N   0  0  0  0  0  0  0  0  0  0  0  0
    3.7159   19.8307   35.9102 C   0  0  0  0  0  0  0  0  0  0  0  0
   -0.8443   20.6987   43.6682 O   0  0  0  0  0  0  0  0  0  0  0  0
    2.7191   14.8739   39.5470 H   0  0  0  0  0  0  0  0  0  0  0  0
    1.8141   14.8768   37.9953 H   0  0  0  0  0  0  0  0  0  0  0  0
    3.6102   14.8535   37.9875 H   0  0  0  0  0  0  0  0  0  0  0  0
   -1.3408   15.6073   44.7267 H   0  0  0  0  0  0  0  0  0  0  0  0
   -1.8365   18.0245   44.6291 H   0  0  0  0  0  0  0  0  0  0  0  0
    0.8589   15.1498   43.6131 H   0  0  0  0  0  0  0  0  0  0  0  0
   -0.5953   15.0853   42.3730 H   0  0  0  0  0  0  0  0  0  0  0  0
    3.9446   16.1889   35.9770 H   0  0  0  0  0  0  0  0  0  0  0  0
    2.5928   20.9313   37.4586 H   0  0  0  0  0  0  0  0  0  0  0  0
    4.6537   18.3256   34.6219 H   0  0  0  0  0  0  0  0  0  0  0  0
    1.6656   20.5504   39.6479 H   0  0  0  0  0  0  0  0  0  0  0  0
    0.2571   22.1883   41.8372 H   0  0  0  0  0  0  0  0  0  0  0  0
    1.3917   21.5692   40.6074 H   0  0  0  0  0  0  0  0  0  0  0  0
   -0.7171   21.6559   43.4501 H   0  0  0  0  0  0  0  0  0  0  0  0
  2  8  1  0
  2 24  1  0
  4 16  2  0
  5 23  2  0
  6  9  2  0
  6 20  1  0
  7  3  2  0
  8  7  1  0
 10  3  1  0
 11 18  1  0
 12 17  2  0
 13 15  1  0
 13 21  1  0
 14 23  1  0
 14 11  2  0
 15  2  2  0
 16 10  1  0
 17  6  1  0
 18 17  1  0
 18 19  2  0
 19  1  1  0
 19  9  1  0
 20 13  1  0
 21 16  1  0
 21  8  2  0
 22 15  1  0
 23 12  1  0
  1 25  1  0
  1 26  1  0
  1 27  1  0
  3 28  1  0
  7 29  1  0
 10 30  1  0
 10 31  1  0
 11 32  1  0
 12 33  1  0
 14 34  1  0
 20 35  1  0
 22 36  1  0
 22 37  1  0
 24 38  1  0
M  END
>  <mol_id>  (73) 
2026-08-23-6tgu-s0-n100-prep-0074

>  <rmsd_to_ref>  (73) 


$$$$

     RDKit          3D

 35 38  0  0  0  0  0  0  0  0999 V2000
    0.2092   17.9732   42.5864 C   0  0  0  0  0  0  0  0  0  0  0  0
    1.8656   16.2521   41.9486 C   0  0  0  0  0  0  0  0  0  0  0  0
    4.5342   19.1964   36.1327 O   0  0  0  0  0  0  0  0  0  0  0  0
    3.6162   20.2948   36.4494 N   0  0  0  0  0  0  0  0  0  0  0  0
    2.8309   20.2968   37.5857 C   0  0  0  0  0  0  0  0  0  0  0  0
   -0.7184   18.5093   43.4336 N   0  0  0  0  0  0  0  0  0  0  0  0
    1.5111   13.5872   43.7705 C   0  0  0  0  0  0  0  0  0  0  0  0
    1.9087   21.3390   37.7529 C   0  0  0  0  0  0  0  0  0  0  0  0
   -1.0719   17.7580   44.5168 C   0  0  0  0  0  0  0  0  0  0  0  0
    2.3759   17.0574   40.9636 C   0  0  0  0  0  0  0  0  0  0  0  0
    1.1429   20.3142   39.8361 C   0  0  0  0  0  0  0  0  0  0  0  0
    0.3266   20.0571   40.9623 C   0  0  0  0  0  0  0  0  0  0  0  0
    3.6811   21.4829   35.7110 O   0  0  0  0  0  0  0  0  0  0  0  0
    1.1373   21.3735   38.9629 C   0  0  0  0  0  0  0  0  0  0  0  0
    0.8621   16.6989   42.8192 C   0  0  0  0  0  0  0  0  0  0  0  0
   -0.5898   16.4654   44.8300 C   0  0  0  0  0  0  0  0  0  0  0  0
    2.9313   19.2414   38.5162 C   0  0  2  0  0  0  0  0  0  0  0  0
    1.7798   18.2946   40.6767 C   0  0  0  0  0  0  0  0  0  0  0  0
    2.0143   19.2254   39.6468 C   0  0  0  0  0  0  0  0  0  0  0  0
    0.7067   18.8167   41.4975 C   0  0  0  0  0  0  0  0  0  0  0  0
    0.4378   15.9153   43.9372 C   0  0  0  0  0  0  0  0  0  0  0  0
    3.6991   18.1990   38.4212 O   0  0  0  0  0  0  0  0  0  0  0  0
    0.9442   14.6869   44.3152 O   0  0  0  0  0  0  0  0  0  0  0  0
    2.2537   15.2287   42.0585 H   0  0  0  0  0  0  0  0  0  0  0  0
    1.7858   12.8825   44.5693 H   0  0  0  0  0  0  0  0  0  0  0  0
    0.7959   13.1061   43.0872 H   0  0  0  0  0  0  0  0  0  0  0  0
    2.4130   13.8780   43.2120 H   0  0  0  0  0  0  0  0  0  0  0  0
    1.7797   22.1093   36.9782 H   0  0  0  0  0  0  0  0  0  0  0  0
   -1.8008   18.1995   45.2124 H   0  0  0  0  0  0  0  0  0  0  0  0
    3.2587   16.7312   40.3942 H   0  0  0  0  0  0  0  0  0  0  0  0
   -0.4663   20.7135   41.3501 H   0  0  0  0  0  0  0  0  0  0  0  0
    0.5321   22.2626   39.1942 H   0  0  0  0  0  0  0  0  0  0  0  0
   -0.9652   15.9020   45.6970 H   0  0  0  0  0  0  0  0  0  0  0  0
    2.1317   18.7005   37.9889 H   0  0  0  0  0  0  0  0  0  0  0  0
    3.8798   17.8388   39.3255 H   0  0  0  0  0  0  0  0  0  0  0  0
  1 15  2  0
  1  6  1  0
  2 15  1  0
  3  4  1  0
  4  5  1  0
  5  8  2  0
  5 17  1  0
  6  9  2  0
  7 23  1  0
  8 14  1  0
  9 16  1  0
 10  2  2  0
 11 12  1  0
 12 20  2  0
 13  4  2  0
 14 11  2  0
 15 21  1  0
 17 22  1  0
 17 19  1  0
 18 10  1  0
 18 20  1  0
 19 11  1  0
 19 18  2  0
 20  1  1  0
 21 23  1  0
 21 16  2  0
  2 24  1  0
  7 25  1  0
  7 26  1  0
  7 27  1  0
  8 28  1  0
  9 29  1  0
 10 30  1  0
 12 31  1  0
 14 32  1  0
 16 33  1  0
 17 34  1  1
 22 35  1  0
M  CHG  2   3  -1   4   1
M  END
>  <mol_id>  (74) 
2026-08-23-6tgu-s0-n100-prep-0075

>  <rmsd_to_ref>  (74) 


$$$$

     RDKit          3D

 47 50  0  0  0  0  0  0  0  0999 V2000
    1.4307   18.2124   40.9139 O   0  0  0  0  0  0  0  0  0  0  0  0
    4.4004   20.8229   35.2734 O   0  0  0  0  0  0  0  0  0  0  0  0
   -0.5548   13.9819   43.8172 C   0  0  0  0  0  0  0  0  0  0  0  0
    3.6733   19.5944   37.1797 C   0  0  0  0  0  0  0  0  0  0  0  0
   -0.0676   15.1829   43.2214 C   0  0  0  0  0  0  0  0  0  0  0  0
    5.7504   14.2949   37.9925 F   0  0  0  0  0  0  0  0  0  0  0  0
    0.9970   15.3001   42.4452 N   0  0  0  0  0  0  0  0  0  0  0  0
    0.6859   20.3306   41.1382 C   0  0  0  0  0  0  0  0  0  0  0  0
    3.5718   20.7816   36.3428 C   0  0  0  0  0  0  0  0  0  0  0  0
   -0.6060   16.5294   43.5938 C   0  0  0  0  0  0  0  0  0  0  0  0
    3.5179   17.7005   38.5001 C   0  0  0  0  0  0  0  0  0  0  0  0
   -0.0095   12.8101   43.3805 C   0  0  0  0  0  0  0  0  0  0  0  0
    3.9748   15.4085   39.1473 C   0  0  0  0  0  0  0  0  0  0  0  0
    0.4079   18.2899   41.8476 C   0  0  2  0  0  0  0  0  0  0  0  0
    1.5108   19.4735   40.3500 C   0  0  2  0  0  0  0  0  0  0  0  0
    3.2475   16.6404   39.3358 C   0  0  0  0  0  0  0  0  0  0  0  0
    3.0572   19.1278   38.3442 C   0  0  0  0  0  0  0  0  0  0  0  0
    1.7358   21.0126   38.8027 O   0  0  0  0  0  0  0  0  0  0  0  0
    2.8305   21.7037   36.4514 O   0  0  0  0  0  0  0  0  0  0  0  0
   -0.1530   17.4220   42.7102 N   0  0  0  0  0  0  0  0  0  0  0  0
    3.2923   13.6560   41.1708 Cl  0  0  0  0  0  0  0  0  0  0  0  0
    4.4812   17.4623   37.4206 C   0  0  2  0  0  0  0  0  0  0  0  0
    1.0280   12.8520   42.3749 C   0  0  0  0  0  0  0  0  0  0  0  0
    1.6693   14.0392   41.9321 C   0  0  0  0  0  0  0  0  0  0  0  0
    2.0919   19.8874   39.1431 C   0  0  0  0  0  0  0  0  0  0  0  0
    4.9034   15.2873   38.1386 C   0  0  0  0  0  0  0  0  0  0  0  0
   -0.0871   19.4817   41.9719 C   0  0  0  0  0  0  0  0  0  0  0  0
    5.1075   16.2968   37.1512 C   0  0  0  0  0  0  0  0  0  0  0  0
   -1.5998   13.9828   44.8744 C   0  0  0  0  0  0  0  0  0  0  0  0
    4.5866   18.6456   36.7608 N   0  0  0  0  0  0  0  0  0  0  0  0
   -1.3034   16.7718   44.5248 O   0  0  0  0  0  0  0  0  0  0  0  0
    0.0290   20.9289   40.4898 H   0  0  0  0  0  0  0  0  0  0  0  0
    1.2901   21.0324   41.7319 H   0  0  0  0  0  0  0  0  0  0  0  0
   -0.3541   11.8480   43.7874 H   0  0  0  0  0  0  0  0  0  0  0  0
    3.7851   14.5569   39.8171 H   0  0  0  0  0  0  0  0  0  0  0  0
    1.1433   18.5132   42.6346 H   0  0  0  0  0  0  0  0  0  0  0  0
    2.5131   19.5436   39.9022 H   0  0  0  0  0  0  0  0  0  0  0  0
    2.4927   16.7307   40.1308 H   0  0  0  0  0  0  0  0  0  0  0  0
   -1.1062   17.7137   42.4511 H   0  0  0  0  0  0  0  0  0  0  0  0
    3.6582   17.1753   36.7495 H   0  0  0  0  0  0  0  0  0  0  0  0
    1.3420   11.9000   41.9220 H   0  0  0  0  0  0  0  0  0  0  0  0
   -0.0194   19.8135   43.0184 H   0  0  0  0  0  0  0  0  0  0  0  0
   -1.1486   19.5024   41.6840 H   0  0  0  0  0  0  0  0  0  0  0  0
    5.7201   16.1397   36.2511 H   0  0  0  0  0  0  0  0  0  0  0  0
   -1.1229   13.8930   45.8615 H   0  0  0  0  0  0  0  0  0  0  0  0
   -2.1692   14.9228   44.8264 H   0  0  0  0  0  0  0  0  0  0  0  0
   -2.2807   13.1332   44.7176 H   0  0  0  0  0  0  0  0  0  0  0  0
  1 14  1  0
  2  9  2  0
  3 29  1  0
  4 17  1  0
  5 10  1  0
  5  3  2  0
  6 26  1  0
  7  5  1  0
  8 27  1  0
  9 19  1  0
  9  4  1  0
 10 31  2  0
 11 16  1  0
 12  3  1  0
 13 16  2  0
 14 27  1  0
 14 20  1  0
 15 25  1  0
 15  1  1  0
 15  8  1  0
 17 11  2  0
 17 25  1  0
 18 25  2  0
 20 10  1  0
 21 24  1  0
 22 28  1  0
 22 11  1  0
 23 12  2  0
 24  7  2  0
 24 23  1  0
 26 13  1  0
 28 26  2  0
 30  4  2  0
 30 22  1  0
  8 32  1  0
  8 33  1  0
 12 34  1  0
 13 35  1  0
 14 36  1  6
 15 37  1  1
 16 38  1  0
 20 39  1  0
 22 40  1  6
 23 41  1  0
 27 42  1  0
 27 43  1  0
 28 44  1  0
 29 45  1  0
 29 46  1  0
 29 47  1  0
M  CHG  1  19  -1
M  END
>  <mol_id>  (75) 
2026-08-23-6tgu-s0-n100-prep-0076

>  <rmsd_to_ref>  (75) 


$$$$

     RDKit          3D

 38 41  0  0  0  0  0  0  0  0999 V2000
    2.0912   20.6124   38.6375 C   0  0  0  0  0  0  0  0  0  0  0  0
    0.7139   17.2245   41.7023 C   0  0  0  0  0  0  0  0  0  0  0  0
    1.7766   11.5463   41.4024 O   0  0  0  0  0  0  0  0  0  0  0  0
    1.6244   19.8698   39.6518 C   0  0  0  0  0  0  0  0  0  0  0  0
   -0.2887   16.6592   44.7095 C   0  0  0  0  0  0  0  0  0  0  0  0
    3.1762   18.6747   37.6080 C   0  0  0  0  0  0  0  0  0  0  0  0
    3.2847   20.8282   36.5657 C   0  0  0  0  0  0  0  0  0  0  0  0
    2.4524   13.5084   39.5167 O   0  0  0  0  0  0  0  0  0  0  0  0
    1.7327   13.7147   40.5415 C   0  0  0  0  0  0  0  0  0  0  0  0
    1.1721   12.5780   41.3771 C   0  0  0  0  0  0  0  0  0  0  0  0
    0.0608   18.2255   42.5379 C   0  0  0  0  0  0  0  0  0  0  0  0
   -1.3545   18.9308   44.2444 N   0  0  0  0  0  0  0  0  0  0  0  0
   -0.5657   17.8707   43.8721 C   0  0  1  0  0  0  0  0  0  0  0  0
    2.6271   17.8819   38.6230 C   0  0  0  0  0  0  0  0  0  0  0  0
   -1.3005   19.8875   43.2802 C   0  0  0  0  0  0  0  0  0  0  0  0
    1.8881   18.4276   39.6725 C   0  0  0  0  0  0  0  0  0  0  0  0
   -0.4012   19.4893   42.3196 C   0  0  0  0  0  0  0  0  0  0  0  0
    3.6871   21.3091   35.7073 N   0  0  0  0  0  0  0  0  0  0  0  0
    1.9881   16.2437   39.9681 C   0  0  0  0  0  0  0  0  0  0  0  0
    2.6561   16.4063   38.8325 N   0  0  0  0  0  0  0  0  0  0  0  0
   -0.1339   12.6932   42.0609 C   0  0  0  0  0  0  0  0  0  0  0  0
    1.4868   17.4915   40.5433 C   0  0  0  0  0  0  0  0  0  0  0  0
    0.7618   15.7708   41.8835 C   0  0  0  0  0  0  0  0  0  0  0  0
    2.9033   20.0838   37.6147 C   0  0  0  0  0  0  0  0  0  0  0  0
    1.4911   15.1545   40.8437 C   0  0  0  0  0  0  0  0  0  0  0  0
    1.8289   21.6801   38.6026 H   0  0  0  0  0  0  0  0  0  0  0  0
    1.0476   20.3392   40.4624 H   0  0  0  0  0  0  0  0  0  0  0  0
   -0.4289   16.9079   45.7718 H   0  0  0  0  0  0  0  0  0  0  0  0
   -0.9812   15.8523   44.4274 H   0  0  0  0  0  0  0  0  0  0  0  0
    0.7471   16.3280   44.5440 H   0  0  0  0  0  0  0  0  0  0  0  0
    3.8031   18.2274   36.8225 H   0  0  0  0  0  0  0  0  0  0  0  0
    0.2897   18.3239   44.3944 H   0  0  0  0  0  0  0  0  0  0  0  0
   -1.8791   20.8230   43.2703 H   0  0  0  0  0  0  0  0  0  0  0  0
   -0.0903   20.1182   41.4723 H   0  0  0  0  0  0  0  0  0  0  0  0
   -0.0071   12.4783   43.1323 H   0  0  0  0  0  0  0  0  0  0  0  0
   -0.5246   13.7138   41.9355 H   0  0  0  0  0  0  0  0  0  0  0  0
   -0.8414   11.9734   41.6237 H   0  0  0  0  0  0  0  0  0  0  0  0
    0.2918   15.2314   42.7191 H   0  0  0  0  0  0  0  0  0  0  0  0
  1  4  2  0
  2 23  1  0
  2 11  1  0
  4 16  1  0
  6 14  1  0
  7 24  1  0
  8  9  2  0
  9 25  1  0
  9 10  1  0
 10  3  2  0
 10 21  1  0
 11 13  1  0
 13 12  1  0
 13  5  1  0
 14 20  1  0
 14 16  2  0
 15 12  2  0
 16 22  1  0
 17 11  2  0
 17 15  1  0
 18  7  3  0
 19 22  1  0
 19 25  1  0
 20 19  2  0
 22  2  2  0
 24  6  2  0
 24  1  1  0
 25 23  2  0
  1 26  1  0
  4 27  1  0
  5 28  1  0
  5 29  1  0
  5 30  1  0
  6 31  1  0
 13 32  1  6
 15 33  1  0
 17 34  1  0
 21 35  1  0
 21 36  1  0
 21 37  1  0
 23 38  1  0
M  END
>  <mol_id>  (76) 
2026-08-23-6tgu-s0-n100-prep-0077

>  <rmsd_to_ref>  (76) 


$$$$

     RDKit          3D

 27 28  0  0  0  0  0  0  0  0999 V2000
    3.0641   20.0735   36.8641 C   0  0  0  0  0  0  0  0  0  0  0  0
    2.7394   19.4192   37.9913 C   0  0  0  0  0  0  0  0  0  0  0  0
    1.6803   18.6687   40.1159 C   0  0  0  0  0  0  0  0  0  0  0  0
   -0.2437   17.4094   42.6899 C   0  0  0  0  0  0  0  0  0  0  0  0
    2.9119   15.3373   39.1795 C   0  0  0  0  0  0  0  0  0  0  0  0
   -1.8976   19.6404   42.7367 C   0  0  0  0  0  0  0  0  0  0  0  0
    1.2977   18.6055   41.3459 N   0  0  0  0  0  0  0  0  0  0  0  0
    3.0664   18.0659   38.3586 C   0  0  0  0  0  0  0  0  0  0  0  0
    4.1880   19.9599   36.3347 O   0  0  0  0  0  0  0  0  0  0  0  0
    2.1203   20.8934   36.3930 O   0  0  0  0  0  0  0  0  0  0  0  0
    2.4529   17.6292   39.5273 C   0  0  0  0  0  0  0  0  0  0  0  0
   -0.7982   19.6204   41.9278 C   0  0  0  0  0  0  0  0  0  0  0  0
   -1.3584   17.4015   43.5494 C   0  0  0  0  0  0  0  0  0  0  0  0
    1.5673   20.0523   39.1443 S   0  0  0  0  0  0  0  0  0  0  0  0
    2.5213   16.4257   40.0756 O   0  0  0  0  0  0  0  0  0  0  0  0
   -2.1992   18.5685   43.5710 C   0  0  0  0  0  0  0  0  0  0  0  0
    0.1281   18.5545   42.0076 C   0  0  0  0  0  0  0  0  0  0  0  0
    0.3427   16.4881   42.5580 H   0  0  0  0  0  0  0  0  0  0  0  0
    3.0196   14.4075   39.7572 H   0  0  0  0  0  0  0  0  0  0  0  0
    2.1394   15.2024   38.4081 H   0  0  0  0  0  0  0  0  0  0  0  0
    3.8704   15.5838   38.6993 H   0  0  0  0  0  0  0  0  0  0  0  0
   -2.5574   20.5205   42.7288 H   0  0  0  0  0  0  0  0  0  0  0  0
    2.0997   18.5899   41.9920 H   0  0  0  0  0  0  0  0  0  0  0  0
    3.7429   17.4325   37.7660 H   0  0  0  0  0  0  0  0  0  0  0  0
   -0.6318   20.4373   41.2103 H   0  0  0  0  0  0  0  0  0  0  0  0
   -1.5795   16.5309   44.1843 H   0  0  0  0  0  0  0  0  0  0  0  0
   -3.0714   18.6130   44.2399 H   0  0  0  0  0  0  0  0  0  0  0  0
  1  2  1  0
  2  8  2  0
  2 14  1  0
  3  7  1  0
  4 13  2  0
  5 15  1  0
  6 16  2  0
  7 17  1  0
  8 11  1  0
  9  1  2  0
 10  1  1  0
 11 15  1  0
 11  3  2  0
 12  6  1  0
 13 16  1  0
 14  3  1  0
 17 12  2  0
 17  4  1  0
  4 18  1  0
  5 19  1  0
  5 20  1  0
  5 21  1  0
  6 22  1  0
  7 23  1  0
  8 24  1  0
 12 25  1  0
 13 26  1  0
 16 27  1  0
M  CHG  1  10  -1
M  END
>  <mol_id>  (77) 
2026-08-23-6tgu-s0-n100-prep-0078

>  <rmsd_to_ref>  (77) 


$$$$

     RDKit          3D

 30 31  0  0  0  0  0  0  0  0999 V2000
    3.1847   18.5984   39.0128 C   0  0  0  0  0  0  0  0  0  0  0  0
    0.0597   18.4255   41.5667 C   0  0  0  0  0  0  0  0  0  0  0  0
   -1.5923   18.1135   43.2743 O   0  0  0  0  0  0  0  0  0  0  0  0
   -0.0368   16.3168   42.9601 C   0  0  1  0  0  0  0  0  0  0  0  0
   -0.7236   15.6382   44.1354 C   0  0  0  0  0  0  0  0  0  0  0  0
    1.3305   20.4340   39.6251 S   0  0  0  0  0  0  0  0  0  0  0  0
    3.9755   17.4849   39.2801 C   0  0  0  0  0  0  0  0  0  0  0  0
    1.8751   18.9546   39.7569 C   0  0  0  0  0  0  0  0  0  0  0  0
    4.9499   18.5652   37.6891 N   0  0  0  0  0  0  0  0  0  0  0  0
   -0.3940   15.3171   45.2796 C   0  0  0  0  0  0  0  0  0  0  0  0
    3.4267   20.3050   37.0231 C   0  0  0  0  0  0  0  0  0  0  0  0
    0.8553   15.7748   42.1449 C   0  0  0  0  0  0  0  0  0  0  0  0
    5.0355   17.5187   38.5012 O   0  0  0  0  0  0  0  0  0  0  0  0
    1.2927   17.9593   40.8312 C   0  0  0  0  0  0  0  0  0  0  0  0
    4.3575   20.9204   36.3970 O   0  0  0  0  0  0  0  0  0  0  0  0
   -0.6151   17.6587   42.6934 C   0  0  0  0  0  0  0  0  0  0  0  0
    1.7236   16.6570   41.3047 C   0  0  0  0  0  0  0  0  0  0  0  0
    2.2990   20.6925   36.7507 O   0  0  0  0  0  0  0  0  0  0  0  0
   -0.5334   19.5775   41.1956 O   0  0  0  0  0  0  0  0  0  0  0  0
    3.7622   19.1916   37.8943 C   0  0  0  0  0  0  0  0  0  0  0  0
    0.7735   16.6493   43.6256 H   0  0  0  0  0  0  0  0  0  0  0  0
   -1.7661   15.3687   43.9105 H   0  0  0  0  0  0  0  0  0  0  0  0
    3.7511   16.7039   40.0215 H   0  0  0  0  0  0  0  0  0  0  0  0
   -1.1184   14.8201   45.9416 H   0  0  0  0  0  0  0  0  0  0  0  0
    0.6243   15.5277   45.6383 H   0  0  0  0  0  0  0  0  0  0  0  0
    1.5270   15.1651   42.7670 H   0  0  0  0  0  0  0  0  0  0  0  0
    0.2376   15.2440   41.4056 H   0  0  0  0  0  0  0  0  0  0  0  0
    1.9721   16.0731   40.4062 H   0  0  0  0  0  0  0  0  0  0  0  0
    2.5187   16.9292   42.0144 H   0  0  0  0  0  0  0  0  0  0  0  0
   -0.1429   20.1232   40.4677 H   0  0  0  0  0  0  0  0  0  0  0  0
  1  7  2  0
  1  8  1  0
  2 16  1  0
  4  5  1  0
  5 10  2  3
  6  8  2  0
  8 14  1  0
  9 20  2  0
  9 13  1  0
 11 20  1  0
 12  4  1  0
 13  7  1  0
 14 17  1  0
 14  2  2  0
 15 11  2  0
 16  4  1  0
 16  3  2  0
 17 12  1  0
 18 11  1  0
 19  2  1  0
 20  1  1  0
  4 21  1  1
  5 22  1  0
  7 23  1  0
 10 24  1  0
 10 25  1  0
 12 26  1  0
 12 27  1  0
 17 28  1  0
 17 29  1  0
 19 30  1  0
M  CHG  1  18  -1
M  END
>  <mol_id>  (78) 
2026-08-23-6tgu-s0-n100-prep-0079

>  <rmsd_to_ref>  (78) 


$$$$

     RDKit          3D

 26 27  0  0  0  0  0  0  0  0999 V2000
    3.7696   20.1698   36.1635 O   0  0  0  0  0  0  0  0  0  0  0  0
    0.3330   19.2024   42.2841 C   0  0  0  0  0  0  0  0  0  0  0  0
    2.1209   19.5761   39.2398 C   0  0  2  0  0  0  0  0  0  0  0  0
    2.7293   18.5875   38.0119 S   0  0  0  0  0  0  0  0  0  0  0  0
    1.9063   18.9664   40.4673 C   0  0  0  0  0  0  0  0  0  0  0  0
   -0.3530   17.6523   43.9439 C   0  0  0  0  0  0  0  0  0  0  0  0
    0.3868   17.9283   42.8060 C   0  0  0  0  0  0  0  0  0  0  0  0
    1.0829   19.6787   41.2276 N   0  0  0  0  0  0  0  0  0  0  0  0
    1.7770   20.8703   38.8457 C   0  0  0  0  0  0  0  0  0  0  0  0
    3.0206   20.0971   37.1054 C   0  0  0  0  0  0  0  0  0  0  0  0
   -1.1501   18.6658   44.5143 C   0  0  0  0  0  0  0  0  0  0  0  0
   -0.5634   20.1980   42.8490 C   0  0  0  0  0  0  0  0  0  0  0  0
    2.2244   21.1357   37.6198 C   0  0  0  0  0  0  0  0  0  0  0  0
   -1.2478   19.8965   43.9001 N   0  0  0  0  0  0  0  0  0  0  0  0
    3.1471   19.8289   39.5448 H   0  0  0  0  0  0  0  0  0  0  0  0
    1.4678   17.9715   40.3003 H   0  0  0  0  0  0  0  0  0  0  0  0
    2.8727   18.8865   40.9864 H   0  0  0  0  0  0  0  0  0  0  0  0
   -0.3190   16.6512   44.3986 H   0  0  0  0  0  0  0  0  0  0  0  0
    1.0018   17.1499   42.3308 H   0  0  0  0  0  0  0  0  0  0  0  0
    0.9956   20.6812   41.0082 H   0  0  0  0  0  0  0  0  0  0  0  0
    0.6816   20.9696   38.8571 H   0  0  0  0  0  0  0  0  0  0  0  0
    2.2386   21.5817   39.5463 H   0  0  0  0  0  0  0  0  0  0  0  0
   -1.6948   18.4746   45.4507 H   0  0  0  0  0  0  0  0  0  0  0  0
   -0.6564   21.1922   42.3876 H   0  0  0  0  0  0  0  0  0  0  0  0
    2.8240   22.0572   37.6540 H   0  0  0  0  0  0  0  0  0  0  0  0
    1.3513   21.2485   36.9602 H   0  0  0  0  0  0  0  0  0  0  0  0
  1 10  2  0
  2 12  2  0
  2  7  1  0
  3  5  1  0
  4  3  1  0
  5  8  1  0
  6 11  1  0
  7  6  2  0
  8  2  1  0
  9  3  1  0
 10 13  1  0
 10  4  1  0
 12 14  1  0
 13  9  1  0
 14 11  2  0
  3 15  1  1
  5 16  1  0
  5 17  1  0
  6 18  1  0
  7 19  1  0
  8 20  1  0
  9 21  1  0
  9 22  1  0
 11 23  1  0
 12 24  1  0
 13 25  1  0
 13 26  1  0
M  END
>  <mol_id>  (79) 
2026-08-23-6tgu-s0-n100-prep-0080

>  <rmsd_to_ref>  (79) 


$$$$

     RDKit          3D

 29 30  0  0  0  0  0  0  0  0999 V2000
    3.2001   18.9200   36.8281 C   0  0  0  0  0  0  0  0  0  0  0  0
    0.1201   16.8969   42.4436 C   0  0  0  0  0  0  0  0  0  0  0  0
   -0.5392   18.9135   44.2699 N   0  0  0  0  0  0  0  0  0  0  0  0
    1.2855   19.8612   40.7561 C   0  0  0  0  0  0  0  0  0  0  0  0
   -0.4351   16.5910   43.7455 C   0  0  0  0  0  0  0  0  0  0  0  0
    2.1346   17.5086   38.9368 C   0  0  0  0  0  0  0  0  0  0  0  0
    2.2872   16.1616   38.3060 C   0  0  0  0  0  0  0  0  0  0  0  0
    2.0393   15.1467   38.9841 O   0  0  0  0  0  0  0  0  0  0  0  0
    1.4078   17.5622   40.1470 C   0  0  0  0  0  0  0  0  0  0  0  0
   -0.6948   17.6043   44.6147 C   0  0  0  0  0  0  0  0  0  0  0  0
    0.3520   18.1636   42.1712 C   0  0  0  0  0  0  0  0  0  0  0  0
    1.0156   18.5121   40.9894 C   0  0  1  0  0  0  0  0  0  0  0  0
    1.8748   20.4769   39.7841 C   0  0  0  0  0  0  0  0  0  0  0  0
   -0.6807   15.4013   44.1733 O   0  0  0  0  0  0  0  0  0  0  0  0
    3.5154   20.0854   36.5095 O   0  0  0  0  0  0  0  0  0  0  0  0
    3.3471   17.8897   36.0856 O   0  0  0  0  0  0  0  0  0  0  0  0
    2.3874   19.9761   38.6722 C   0  0  0  0  0  0  0  0  0  0  0  0
    2.5437   16.0216   37.0906 O   0  0  0  0  0  0  0  0  0  0  0  0
    0.0045   19.1617   43.0655 C   0  0  0  0  0  0  0  0  0  0  0  0
    2.5468   18.6812   38.1783 C   0  0  0  0  0  0  0  0  0  0  0  0
    0.3388   16.1041   41.7131 H   0  0  0  0  0  0  0  0  0  0  0  0
    0.9277   20.5297   41.5530 H   0  0  0  0  0  0  0  0  0  0  0  0
    1.0841   16.5636   40.4755 H   0  0  0  0  0  0  0  0  0  0  0  0
   -1.0419   17.3590   45.6292 H   0  0  0  0  0  0  0  0  0  0  0  0
    0.0669   18.6070   40.4406 H   0  0  0  0  0  0  0  0  0  0  0  0
    1.9620   21.5677   39.8972 H   0  0  0  0  0  0  0  0  0  0  0  0
   -1.0616   15.2693   45.0775 H   0  0  0  0  0  0  0  0  0  0  0  0
    2.7713   20.7481   37.9889 H   0  0  0  0  0  0  0  0  0  0  0  0
    0.1817   20.2082   42.7767 H   0  0  0  0  0  0  0  0  0  0  0  0
  1 20  1  0
  2  5  2  0
  3 10  2  0
  4 12  1  0
  5 10  1  0
  5 14  1  0
  6  9  2  0
  7  6  1  0
  7  8  1  0
  9 12  1  0
 11 19  2  0
 11  2  1  0
 12 11  1  0
 13  4  2  0
 15  1  2  0
 16  1  1  0
 17 13  1  0
 18  7  2  0
 19  3  1  0
 20 17  2  0
 20  6  1  0
  2 21  1  0
  4 22  1  0
  9 23  1  0
 10 24  1  0
 12 25  1  6
 13 26  1  0
 14 27  1  0
 17 28  1  0
 19 29  1  0
M  CHG  2   8  -1  16  -1
M  END
>  <mol_id>  (80) 
2026-08-23-6tgu-s0-n100-prep-0081

>  <rmsd_to_ref>  (80) 


$$$$

     RDKit          3D

 45 49  0  0  0  0  0  0  0  0999 V2000
    2.3740   14.1820   41.5610 C   0  0  1  0  0  0  0  0  0  0  0  0
    2.4550   19.4740   38.4170 C   0  0  0  0  0  0  0  0  0  0  0  0
   -1.0660   19.7410   43.8850 C   0  0  0  0  0  0  0  0  0  0  0  0
   -0.6290   18.4280   43.9540 C   0  0  0  0  0  0  0  0  0  0  0  0
    1.8640   17.7270   40.1370 C   0  0  1  0  0  0  0  0  0  0  0  0
    0.5180   18.8440   41.9850 C   0  0  0  0  0  0  0  0  0  0  0  0
   -1.0840   17.5560   45.2200 C   0  0  0  0  0  0  0  0  0  0  0  0
    1.2090   18.3070   40.9710 N   0  0  0  0  0  0  0  0  0  0  0  0
    2.0050   15.4180   41.4170 C   0  0  2  0  0  0  0  0  0  0  0  0
    0.1220   17.9650   42.9900 C   0  0  0  0  0  0  0  0  0  0  0  0
    2.4810   18.1730   38.8320 C   0  0  0  0  0  0  0  0  0  0  0  0
    3.1510   13.8740   40.5670 C   0  0  2  0  0  0  0  0  0  0  0  0
    0.2990   20.1590   42.0170 C   0  0  0  0  0  0  0  0  0  0  0  0
    3.4220   18.2600   36.7960 O   0  0  0  0  0  0  0  0  0  0  0  0
    1.8950   13.3520   42.6030 F   0  0  0  0  0  0  0  0  0  0  0  0
   -0.6900   22.0340   43.2490 O   0  0  0  0  0  0  0  0  0  0  0  0
   -0.4350   20.6610   43.0860 C   0  0  0  0  0  0  0  0  0  0  0  0
    3.0690   17.4310   37.8000 N   0  0  0  0  0  0  0  0  0  0  0  0
    2.0140   20.6640   38.9880 C   0  0  0  0  0  0  0  0  0  0  0  0
    4.1250   12.8480   40.3640 F   0  0  0  0  0  0  0  0  0  0  0  0
    2.9280   21.9690   37.1320 C   0  0  0  0  0  0  0  0  0  0  0  0
    3.1540   14.7030   39.5250 C   0  0  0  0  0  0  0  0  0  0  0  0
    3.3180   20.8380   36.4710 C   0  0  0  0  0  0  0  0  0  0  0  0
    2.5420   15.5540   40.1200 C   0  0  0  0  0  0  0  0  0  0  0  0
    2.3400   21.9620   38.4500 C   0  0  0  0  0  0  0  0  0  0  0  0
    2.0200   16.4480   40.4610 C   0  0  0  0  0  0  0  0  0  0  0  0
    3.1060   19.5670   37.1510 C   0  0  0  0  0  0  0  0  0  0  0  0
    1.5405   13.8585   40.9202 H   0  0  0  0  0  0  0  0  0  0  0  0
   -1.9357   20.0520   44.4824 H   0  0  0  0  0  0  0  0  0  0  0  0
    0.9439   17.4759   39.5890 H   0  0  0  0  0  0  0  0  0  0  0  0
   -0.8092   18.0826   46.1458 H   0  0  0  0  0  0  0  0  0  0  0  0
   -2.1738   17.4090   45.1914 H   0  0  0  0  0  0  0  0  0  0  0  0
   -0.5812   16.5780   45.1914 H   0  0  0  0  0  0  0  0  0  0  0  0
    0.9582   19.0684   40.3242 H   0  0  0  0  0  0  0  0  0  0  0  0
    1.0499   15.0827   40.9864 H   0  0  0  0  0  0  0  0  0  0  0  0
    0.4328   16.9100   42.9728 H   0  0  0  0  0  0  0  0  0  0  0  0
    2.3705   13.2133   40.1616 H   0  0  0  0  0  0  0  0  0  0  0  0
    0.6843   20.8214   41.2278 H   0  0  0  0  0  0  0  0  0  0  0  0
   -1.2173   22.3509   44.0246 H   0  0  0  0  0  0  0  0  0  0  0  0
    1.3881   20.6124   39.8911 H   0  0  0  0  0  0  0  0  0  0  0  0
    3.0702   22.9383   36.6317 H   0  0  0  0  0  0  0  0  0  0  0  0
    2.6159   14.3081   38.6506 H   0  0  0  0  0  0  0  0  0  0  0  0
    4.1158   14.9682   39.0617 H   0  0  0  0  0  0  0  0  0  0  0  0
    3.7718   20.8853   35.4701 H   0  0  0  0  0  0  0  0  0  0  0  0
    2.1519   22.8899   39.0101 H   0  0  0  0  0  0  0  0  0  0  0  0
  1 15  1  0
  2 11  1  0
  2 19  2  0
  3  4  2  0
  4  7  1  0
  5 26  1  0
  5  8  1  0
  6 13  1  0
  6 10  2  0
  8  6  1  0
  9 24  1  0
  9  1  1  0
 10  4  1  0
 11  5  1  0
 12 20  1  0
 12  1  1  0
 13 17  2  0
 14 27  1  0
 14 18  1  0
 17 16  1  0
 17  3  1  0
 18 11  2  0
 21 25  2  0
 22 24  1  0
 22 12  1  0
 23 21  1  0
 23 27  2  0
 24 26  2  0
 25 19  1  0
 26  9  1  0
 27  2  1  0
  1 28  1  1
  3 29  1  0
  5 30  1  6
  7 31  1  0
  7 32  1  0
  7 33  1  0
  8 34  1  0
  9 35  1  6
 10 36  1  0
 12 37  1  6
 13 38  1  0
 16 39  1  0
 19 40  1  0
 21 41  1  0
 22 42  1  0
 22 43  1  0
 23 44  1  0
 25 45  1  0
M  END
>  <mol_id>  (81) 
2026-08-23-6tgu-s0-n100-prep-0082

>  <rmsd_to_ref>  (81) 


$$$$

     RDKit          3D

 76 75  0  0  0  0  0  0  0  0999 V2000
   -0.8900   25.3590   45.0590 C   0  0  0  0  0  0  0  0  0  0  0  0
    4.5080   11.3920   34.5430 C   0  0  0  0  0  0  0  0  0  0  0  0
    1.2770   16.1800   41.6770 C   0  0  0  0  0  0  0  0  0  0  0  0
    5.5380   12.9450   36.2650 C   0  0  0  0  0  0  0  0  0  0  0  0
    3.4150   14.2400   39.9020 S   0  0  0  0  0  0  0  0  0  0  0  0
   -1.1760   25.5990   43.5730 C   0  0  0  0  0  0  0  0  0  0  0  0
    4.0360   15.9010   37.3810 N   0  0  0  0  0  0  0  0  0  0  0  0
    0.8840   22.3790   42.4800 C   0  0  0  0  0  0  0  0  0  0  0  0
    5.2500   14.3050   36.1590 C   0  0  0  0  0  0  0  0  0  0  0  0
    3.1940   18.1130   38.1220 C   0  0  0  0  0  0  0  0  0  0  0  0
    0.7720   18.4120   41.7330 C   0  0  0  0  0  0  0  0  0  0  0  0
    5.7570   12.0530   35.0560 C   0  0  0  0  0  0  0  0  0  0  0  0
    0.5150   20.5910   40.7040 O   0  0  0  0  0  0  0  0  0  0  0  0
   -0.1360   17.8690   42.5990 N   0  0  0  0  0  0  0  0  0  0  0  0
    1.6540   14.7860   41.9710 C   0  0  0  0  0  0  0  0  0  0  0  0
   -0.6780   15.6320   44.8260 C   0  0  0  0  0  0  0  0  0  0  0  0
   -0.3970   21.6810   42.6040 C   0  0  0  0  0  0  0  0  0  0  0  0
    1.2860   21.3880   39.9220 C   0  0  0  0  0  0  0  0  0  0  0  0
    2.8880   15.9540   39.7470 O   0  0  0  0  0  0  0  0  0  0  0  0
    0.7650   23.8860   44.4500 O   0  0  0  0  0  0  0  0  0  0  0  0
   -0.5590   20.9080   41.3090 C   0  0  0  0  0  0  0  0  0  0  0  0
    2.6140   18.3910   38.8800 C   0  0  0  0  0  0  0  0  0  0  0  0
    0.7850   24.7120   42.1790 O   0  0  0  0  0  0  0  0  0  0  0  0
    1.7020   17.2980   41.1090 C   0  0  1  0  0  0  0  0  0  0  0  0
    0.5130   16.5000   42.6210 C   0  0  0  0  0  0  0  0  0  0  0  0
    0.7910   14.0140   43.1480 S   0  0  0  0  0  0  0  0  0  0  0  0
   -1.0800   21.5450   43.5380 O   0  0  0  0  0  0  0  0  0  0  0  0
    4.1510   13.5710   38.4900 C   0  0  0  0  0  0  0  0  0  0  0  0
    4.5250   14.7980   37.2110 C   0  0  0  0  0  0  0  0  0  0  0  0
    0.0160   15.5220   43.6650 N   0  0  0  0  0  0  0  0  0  0  0  0
    0.7090   23.8080   43.1230 C   0  0  0  0  0  0  0  0  0  0  0  0
    3.0970   16.1400   38.5360 C   0  0  0  0  0  0  0  0  0  0  0  0
    2.5900   17.7970   40.2910 C   0  0  0  0  0  0  0  0  0  0  0  0
   -2.0300   24.7680   43.7540 C   0  0  0  0  0  0  0  0  0  0  0  0
    1.9070   21.7130   39.1290 N   0  0  0  0  0  0  0  0  0  0  0  0
    3.5970   18.4710   36.8350 O   0  0  0  0  0  0  0  0  0  0  0  0
   -1.5920   25.9481   45.6673 H   0  0  0  0  0  0  0  0  0  0  0  0
   -1.0137   24.2903   45.2883 H   0  0  0  0  0  0  0  0  0  0  0  0
    0.1410   25.6663   45.2883 H   0  0  0  0  0  0  0  0  0  0  0  0
    3.8906   11.0652   35.3927 H   0  0  0  0  0  0  0  0  0  0  0  0
    3.9397   12.1074   33.9305 H   0  0  0  0  0  0  0  0  0  0  0  0
    4.7799   10.5197   33.9305 H   0  0  0  0  0  0  0  0  0  0  0  0
    6.4575   12.8750   36.8647 H   0  0  0  0  0  0  0  0  0  0  0  0
    4.5929   12.5487   36.6646 H   0  0  0  0  0  0  0  0  0  0  0  0
   -0.3709   25.3106   42.8811 H   0  0  0  0  0  0  0  0  0  0  0  0
   -1.3638   26.5899   43.1339 H   0  0  0  0  0  0  0  0  0  0  0  0
    1.6687   21.8212   43.0121 H   0  0  0  0  0  0  0  0  0  0  0  0
    1.1789   22.4629   41.4236 H   0  0  0  0  0  0  0  0  0  0  0  0
    6.1994   14.8576   36.1023 H   0  0  0  0  0  0  0  0  0  0  0  0
    4.6348   14.4338   35.2563 H   0  0  0  0  0  0  0  0  0  0  0  0
    3.7065   17.1803   38.4001 H   0  0  0  0  0  0  0  0  0  0  0  0
    0.2330   18.9249   40.9228 H   0  0  0  0  0  0  0  0  0  0  0  0
    1.4026   19.1216   42.2887 H   0  0  0  0  0  0  0  0  0  0  0  0
    6.4745   11.2666   35.3331 H   0  0  0  0  0  0  0  0  0  0  0  0
    6.1261   12.7014   34.2477 H   0  0  0  0  0  0  0  0  0  0  0  0
   -0.1377   18.3285   43.5208 H   0  0  0  0  0  0  0  0  0  0  0  0
   -1.1331   17.9240   42.3466 H   0  0  0  0  0  0  0  0  0  0  0  0
    1.5411   14.2077   41.0421 H   0  0  0  0  0  0  0  0  0  0  0  0
    2.6824   14.8413   42.3574 H   0  0  0  0  0  0  0  0  0  0  0  0
    0.0108   15.5228   45.6767 H   0  0  0  0  0  0  0  0  0  0  0  0
   -1.1631   16.6182   44.8712 H   0  0  0  0  0  0  0  0  0  0  0  0
   -1.4443   14.8441   44.8712 H   0  0  0  0  0  0  0  0  0  0  0  0
   -1.1605   21.5237   40.6240 H   0  0  0  0  0  0  0  0  0  0  0  0
   -1.0284   19.9546   41.5929 H   0  0  0  0  0  0  0  0  0  0  0  0
    1.9128   19.2155   38.6836 H   0  0  0  0  0  0  0  0  0  0  0  0
    1.0188   17.1283   40.2638 H   0  0  0  0  0  0  0  0  0  0  0  0
    5.0905   13.0819   38.7870 H   0  0  0  0  0  0  0  0  0  0  0  0
    3.4283   12.8646   38.0555 H   0  0  0  0  0  0  0  0  0  0  0  0
    3.0359   17.2378   38.5026 H   0  0  0  0  0  0  0  0  0  0  0  0
    2.5594   15.2107   38.2964 H   0  0  0  0  0  0  0  0  0  0  0  0
    3.3149   16.9739   40.2073 H   0  0  0  0  0  0  0  0  0  0  0  0
    2.5967   18.7807   40.7833 H   0  0  0  0  0  0  0  0  0  0  0  0
   -2.1782   24.6238   44.8344 H   0  0  0  0  0  0  0  0  0  0  0  0
   -2.9720   25.1046   43.2964 H   0  0  0  0  0  0  0  0  0  0  0  0
   -1.7193   23.8172   43.2964 H   0  0  0  0  0  0  0  0  0  0  0  0
    4.2435   17.9050   36.3433 H   0  0  0  0  0  0  0  0  0  0  0  0
  2 12  1  0
  3 15  1  0
  3 25  2  0
  6 34  1  0
  6  1  1  0
  7 32  1  0
  8 17  1  0
  8 31  1  0
  9  4  1  0
  9 29  1  0
 10 22  2  3
 11 14  1  0
 12  4  1  0
 13 21  1  0
 14 25  1  0
 15 26  1  0
 17 27  2  0
 18 13  1  0
 19  5  1  0
 21 17  1  0
 22 33  1  0
 23 31  2  0
 24 33  1  0
 24  3  1  0
 24 11  1  0
 25 30  1  0
 26 30  1  0
 28  5  1  0
 29  7  2  0
 29 28  1  0
 30 16  1  0
 31 20  1  0
 32 19  1  0
 35 18  3  0
 36 10  1  0
  1 37  1  0
  1 38  1  0
  1 39  1  0
  2 40  1  0
  2 41  1  0
  2 42  1  0
  4 43  1  0
  4 44  1  0
  6 45  1  0
  6 46  1  0
  8 47  1  0
  8 48  1  0
  9 49  1  0
  9 50  1  0
 10 51  1  0
 11 52  1  0
 11 53  1  0
 12 54  1  0
 12 55  1  0
 14 56  1  0
 14 57  1  0
 15 58  1  0
 15 59  1  0
 16 60  1  0
 16 61  1  0
 16 62  1  0
 21 63  1  0
 21 64  1  0
 22 65  1  0
 24 66  1  6
 28 67  1  0
 28 68  1  0
 32 69  1  0
 32 70  1  0
 33 71  1  0
 33 72  1  0
 34 73  1  0
 34 74  1  0
 34 75  1  0
 36 76  1  0
M  CHG  2  14   1  20  -1
M  END
>  <mol_id>  (82) 
2026-08-23-6tgu-s0-n100-prep-0083

>  <rmsd_to_ref>  (82) 


$$$$

     RDKit          3D

 56 59  0  0  0  0  0  0  0  0999 V2000
    0.9560   19.2530   40.8040 C   0  0  0  0  0  0  0  0  0  0  0  0
    0.1570   17.7750   43.0410 C   0  0  0  0  0  0  0  0  0  0  0  0
   -0.5340   15.4960   45.1330 C   0  0  0  0  0  0  0  0  0  0  0  0
    1.3270   21.9860   40.1770 O   0  0  0  0  0  0  0  0  0  0  0  0
   -0.6580   19.7500   44.3120 C   0  0  0  0  0  0  0  0  0  0  0  0
    3.5470   21.0090   35.3730 C   0  0  0  0  0  0  0  0  0  0  0  0
    3.8570   20.2590   36.3420 O   0  0  0  0  0  0  0  0  0  0  0  0
    2.9160   16.6070   38.7750 C   0  0  2  0  0  0  0  0  0  0  0  0
    2.8330   17.6580   39.4640 N   0  0  0  0  0  0  0  0  0  0  0  0
    3.0830   20.1070   37.3970 C   0  0  0  0  0  0  0  0  0  0  0  0
    3.1450   14.0910   39.7030 C   0  0  0  0  0  0  0  0  0  0  0  0
   -1.0170   20.9270   44.3310 O   0  0  0  0  0  0  0  0  0  0  0  0
    0.8360   15.5860   42.9370 C   0  0  1  0  0  0  0  0  0  0  0  0
    0.0870   19.8050   41.7410 C   0  0  0  0  0  0  0  0  0  0  0  0
    2.3630   18.6010   39.0290 N   0  0  0  0  0  0  0  0  0  0  0  0
    1.8460   19.7270   39.7190 C   0  0  0  0  0  0  0  0  0  0  0  0
    2.0430   13.7330   41.8750 C   0  0  0  0  0  0  0  0  0  0  0  0
    3.7830   13.5290   38.5670 C   0  0  0  0  0  0  0  0  0  0  0  0
   -0.5160   19.0330   45.4660 N   0  0  0  0  0  0  0  0  0  0  0  0
    1.5700   15.0440   41.8550 C   0  0  0  0  0  0  0  0  0  0  0  0
    0.4790   15.0380   44.0780 C   0  0  0  0  0  0  0  0  0  0  0  0
    1.8550   21.0710   39.4300 C   0  0  0  0  0  0  0  0  0  0  0  0
    3.1410   17.2830   37.4860 C   0  0  0  0  0  0  0  0  0  0  0  0
    2.4610   21.1540   38.1100 C   0  0  0  0  0  0  0  0  0  0  0  0
    2.6700   15.4260   39.7960 C   0  0  0  0  0  0  0  0  0  0  0  0
    0.5990   16.9100   42.9780 C   0  0  0  0  0  0  0  0  0  0  0  0
    1.9160   15.8350   40.8490 N   0  0  0  0  0  0  0  0  0  0  0  0
   -0.2680   19.1530   43.0380 C   0  0  1  0  0  0  0  0  0  0  0  0
    2.9080   18.6610   37.8330 C   0  0  0  0  0  0  0  0  0  0  0  0
    2.7950   13.1510   40.8330 C   0  0  0  0  0  0  0  0  0  0  0  0
    0.9918   18.1573   40.8948 H   0  0  0  0  0  0  0  0  0  0  0  0
   -0.1259   15.3115   46.1377 H   0  0  0  0  0  0  0  0  0  0  0  0
   -0.7316   16.5710   45.0093 H   0  0  0  0  0  0  0  0  0  0  0  0
   -1.4716   14.9342   45.0093 H   0  0  0  0  0  0  0  0  0  0  0  0
    1.3729   22.9362   39.9029 H   0  0  0  0  0  0  0  0  0  0  0  0
    3.1534   21.9614   35.7578 H   0  0  0  0  0  0  0  0  0  0  0  0
    4.4390   21.2023   34.7590 H   0  0  0  0  0  0  0  0  0  0  0  0
    2.7789   20.5161   34.7590 H   0  0  0  0  0  0  0  0  0  0  0  0
    4.0017   16.5784   38.9495 H   0  0  0  0  0  0  0  0  0  0  0  0
    2.2877   17.4174   40.3040 H   0  0  0  0  0  0  0  0  0  0  0  0
    0.5083   14.7358   42.3207 H   0  0  0  0  0  0  0  0  0  0  0  0
    0.5165   20.7823   42.0064 H   0  0  0  0  0  0  0  0  0  0  0  0
   -0.8704   19.7365   41.2038 H   0  0  0  0  0  0  0  0  0  0  0  0
    1.8163   13.1150   42.7563 H   0  0  0  0  0  0  0  0  0  0  0  0
    4.5709   12.8350   38.8949 H   0  0  0  0  0  0  0  0  0  0  0  0
    3.0427   12.9842   37.9627 H   0  0  0  0  0  0  0  0  0  0  0  0
    4.2300   14.3321   37.9627 H   0  0  0  0  0  0  0  0  0  0  0  0
   -0.2143   18.0489   45.4271 H   0  0  0  0  0  0  0  0  0  0  0  0
   -0.7106   19.4764   46.3751 H   0  0  0  0  0  0  0  0  0  0  0  0
    0.1286   14.0353   43.7921 H   0  0  0  0  0  0  0  0  0  0  0  0
    1.3889   15.2900   44.6424 H   0  0  0  0  0  0  0  0  0  0  0  0
    4.1691   17.1286   37.1266 H   0  0  0  0  0  0  0  0  0  0  0  0
    2.5009   16.9139   36.6711 H   0  0  0  0  0  0  0  0  0  0  0  0
    2.4312   22.1362   37.6157 H   0  0  0  0  0  0  0  0  0  0  0  0
   -1.2832   19.5757   43.0120 H   0  0  0  0  0  0  0  0  0  0  0  0
    3.1027   12.0949   40.8424 H   0  0  0  0  0  0  0  0  0  0  0  0
  1 14  1  0
  5 12  2  0
  5 19  1  0
  6  7  1  0
  7 10  1  0
  8 23  1  0
  8  9  1  0
  8 25  1  0
 10 29  2  0
 10 24  1  0
 11 25  2  0
 11 30  1  0
 13 26  1  0
 13 21  1  0
 14 28  1  0
 15  9  1  0
 15 16  1  0
 16  1  2  0
 18 11  1  0
 20 17  1  0
 20 13  1  0
 21  3  1  0
 22 16  1  0
 22  4  1  0
 23 29  1  0
 24 22  2  0
 25 27  1  0
 26  2  3  0
 27 20  2  0
 28  2  1  0
 28  5  1  0
 29 15  1  0
 30 17  2  0
  1 31  1  0
  3 32  1  0
  3 33  1  0
  3 34  1  0
  4 35  1  0
  6 36  1  0
  6 37  1  0
  6 38  1  0
  8 39  1  1
  9 40  1  0
 13 41  1  6
 14 42  1  0
 14 43  1  0
 17 44  1  0
 18 45  1  0
 18 46  1  0
 18 47  1  0
 19 48  1  0
 19 49  1  0
 21 50  1  0
 21 51  1  0
 23 52  1  0
 23 53  1  0
 24 54  1  0
 28 55  1  6
 30 56  1  0
M  END
>  <mol_id>  (83) 
2026-08-23-6tgu-s0-n100-prep-0084

>  <rmsd_to_ref>  (83) 


$$$$

     RDKit          3D

 41 43  0  0  0  0  0  0  0  0999 V2000
    2.2694   15.1155   39.9756 C   0  0  0  0  0  0  0  0  0  0  0  0
    1.9470   21.7948   35.3164 O   0  0  0  0  0  0  0  0  0  0  0  0
    0.5201   18.5040   40.2313 C   0  0  0  0  0  0  0  0  0  0  0  0
   -0.4414   17.2028   43.5924 C   0  0  0  0  0  0  0  0  0  0  0  0
   -1.2342   18.1577   44.2370 C   0  0  0  0  0  0  0  0  0  0  0  0
    2.2570   20.9465   36.2297 C   0  0  0  0  0  0  0  0  0  0  0  0
    2.8748   19.8578   35.8984 C   0  0  0  0  0  0  0  0  0  0  0  0
    0.1329   17.3000   42.1931 C   0  0  0  0  0  0  0  0  0  0  0  0
   -0.2526   16.1339   44.1911 O   0  0  0  0  0  0  0  0  0  0  0  0
    1.4848   16.2583   40.4713 C   0  0  0  0  0  0  0  0  0  0  0  0
    1.3695   17.5061   39.7596 C   0  0  0  0  0  0  0  0  0  0  0  0
   -1.1231   19.5086   41.7566 C   0  0  0  0  0  0  0  0  0  0  0  0
    3.5364   17.6582   36.2510 O   0  0  0  0  0  0  0  0  0  0  0  0
    1.7582   20.1350   38.3187 C   0  0  0  0  0  0  0  0  0  0  0  0
   -0.8425   20.2355   43.0496 C   0  0  0  0  0  0  0  0  0  0  0  0
    2.0877   17.7135   38.6474 O   0  0  0  0  0  0  0  0  0  0  0  0
    2.1346   13.8206   40.6834 C   0  0  0  0  0  0  0  0  0  0  0  0
   -1.4000   19.5138   44.2269 O   0  0  0  0  0  0  0  0  0  0  0  0
    2.9433   18.8298   36.7154 C   0  0  0  0  0  0  0  0  0  0  0  0
    2.2612   18.9203   37.9779 C   0  0  0  0  0  0  0  0  0  0  0  0
    1.8021   21.2289   37.4727 C   0  0  0  0  0  0  0  0  0  0  0  0
   -0.1420   18.3925   41.4174 C   0  0  0  0  0  0  0  0  0  0  0  0
    0.8378   16.2687   41.7077 C   0  0  0  0  0  0  0  0  0  0  0  0
    1.9776   14.9479   38.9283 H   0  0  0  0  0  0  0  0  0  0  0  0
    3.3169   15.4098   40.1378 H   0  0  0  0  0  0  0  0  0  0  0  0
    2.2470   21.6503   34.3841 H   0  0  0  0  0  0  0  0  0  0  0  0
    0.3790   19.4120   39.6267 H   0  0  0  0  0  0  0  0  0  0  0  0
   -2.2498   17.8025   44.0081 H   0  0  0  0  0  0  0  0  0  0  0  0
   -0.5997   18.1752   45.1354 H   0  0  0  0  0  0  0  0  0  0  0  0
    3.3534   19.7914   34.9102 H   0  0  0  0  0  0  0  0  0  0  0  0
   -2.1292   19.0692   41.8238 H   0  0  0  0  0  0  0  0  0  0  0  0
   -1.0250   20.2570   40.9564 H   0  0  0  0  0  0  0  0  0  0  0  0
    3.6021   16.8680   36.8438 H   0  0  0  0  0  0  0  0  0  0  0  0
    1.2961   20.2541   39.3097 H   0  0  0  0  0  0  0  0  0  0  0  0
    0.2463   20.3311   43.1744 H   0  0  0  0  0  0  0  0  0  0  0  0
   -1.3247   21.2226   42.9962 H   0  0  0  0  0  0  0  0  0  0  0  0
    2.2509   13.9804   41.7655 H   0  0  0  0  0  0  0  0  0  0  0  0
    1.1414   13.3934   40.4806 H   0  0  0  0  0  0  0  0  0  0  0  0
    2.9114   13.1267   40.3297 H   0  0  0  0  0  0  0  0  0  0  0  0
    1.4947   22.2386   37.7828 H   0  0  0  0  0  0  0  0  0  0  0  0
    0.9118   15.3642   42.3294 H   0  0  0  0  0  0  0  0  0  0  0  0
  1 10  1  0
  1 17  1  0
  2  6  1  0
  3 22  2  0
  4  5  1  0
  4  9  2  0
  6 21  1  0
  7  6  2  0
  7 19  1  0
  8  4  1  0
 10 23  1  0
 11  3  1  0
 11 10  2  0
 12 15  1  0
 13 19  1  0
 15 18  1  0
 16 11  1  0
 18  5  1  0
 19 20  2  0
 20 14  1  0
 20 16  1  0
 21 14  2  0
 22 12  1  0
 22  8  1  0
 23  8  2  0
  1 24  1  0
  1 25  1  0
  2 26  1  0
  3 27  1  0
  5 28  1  0
  5 29  1  0
  7 30  1  0
 12 31  1  0
 12 32  1  0
 13 33  1  0
 14 34  1  0
 15 35  1  0
 15 36  1  0
 17 37  1  0
 17 38  1  0
 17 39  1  0
 21 40  1  0
 23 41  1  0
M  END
>  <mol_id>  (84) 
2026-08-23-6tgu-s0-n100-prep-0085

>  <rmsd_to_ref>  (84) 


$$$$

     RDKit          3D

 46 47  0  0  0  0  0  0  0  0999 V2000
   -0.9890   16.3090   44.2150 C   0  0  0  0  0  0  0  0  0  0  0  0
    3.0220   18.3910   37.9820 C   0  0  0  0  0  0  0  0  0  0  0  0
    1.5960   14.2460   42.1470 C   0  0  0  0  0  0  0  0  0  0  0  0
    2.7890   20.8390   37.5130 C   0  0  0  0  0  0  0  0  0  0  0  0
    3.1930   14.7940   39.5070 C   0  0  0  0  0  0  0  0  0  0  0  0
    1.0130   13.9240   43.1640 O   0  0  0  0  0  0  0  0  0  0  0  0
    0.0840   19.3140   42.6670 C   0  0  0  0  0  0  0  0  0  0  0  0
    2.3830   12.1700   41.8910 O   0  0  0  0  0  0  0  0  0  0  0  0
    1.8800   20.9660   38.7340 C   0  0  0  0  0  0  0  0  0  0  0  0
    3.5690   17.5310   37.4490 O   0  0  0  0  0  0  0  0  0  0  0  0
    0.5260   21.3200   41.5420 S   0  0  0  0  0  0  0  0  0  0  0  0
    0.8910   18.9830   41.5620 C   0  0  0  0  0  0  0  0  0  0  0  0
   -0.8710   20.9260   43.8680 O   0  0  0  0  0  0  0  0  0  0  0  0
    3.8780   20.3790   36.0820 O   0  0  0  0  0  0  0  0  0  0  0  0
    1.2010   20.0430   40.7690 C   0  0  1  0  0  0  0  0  0  0  0  0
    2.4690   18.7000   39.1570 C   0  0  0  0  0  0  0  0  0  0  0  0
   -0.2030   20.5940   42.7870 C   0  0  0  0  0  0  0  0  0  0  0  0
   -0.5840   18.6420   43.6790 O   0  0  0  0  0  0  0  0  0  0  0  0
    2.0530   16.1550   40.7300 C   0  0  0  0  0  0  0  0  0  0  0  0
    2.7110   16.0010   39.6020 N   0  0  0  0  0  0  0  0  0  0  0  0
    2.4050   13.3930   41.4070 C   0  0  2  0  0  0  0  0  0  0  0  0
    1.7630   19.9020   39.4950 C   0  0  0  0  0  0  0  0  0  0  0  0
    0.0320   17.5120   44.2710 C   0  0  0  0  0  0  0  0  0  0  0  0
    3.3990   19.7930   37.1920 C   0  0  0  0  0  0  0  0  0  0  0  0
    1.4940   15.5070   41.7440 C   0  0  0  0  0  0  0  0  0  0  0  0
    3.1620   13.6890   40.3280 C   0  0  0  0  0  0  0  0  0  0  0  0
   -1.2499   16.0016   45.2384 H   0  0  0  0  0  0  0  0  0  0  0  0
   -1.8990   16.6248   43.6838 H   0  0  0  0  0  0  0  0  0  0  0  0
   -0.5294   15.4625   43.6838 H   0  0  0  0  0  0  0  0  0  0  0  0
    2.9164   21.7247   36.8732 H   0  0  0  0  0  0  0  0  0  0  0  0
    3.7425   14.6207   38.5700 H   0  0  0  0  0  0  0  0  0  0  0  0
    2.3837   12.2066   42.8803 H   0  0  0  0  0  0  0  0  0  0  0  0
    1.3499   21.9019   38.9644 H   0  0  0  0  0  0  0  0  0  0  0  0
    1.2392   17.9596   41.3586 H   0  0  0  0  0  0  0  0  0  0  0  0
    4.4656   19.8710   35.4682 H   0  0  0  0  0  0  0  0  0  0  0  0
    2.0852   20.4171   40.2321 H   0  0  0  0  0  0  0  0  0  0  0  0
    1.7540   17.8878   39.3546 H   0  0  0  0  0  0  0  0  0  0  0  0
    3.3854   18.8660   39.7423 H   0  0  0  0  0  0  0  0  0  0  0  0
    1.9121   17.2331   40.8967 H   0  0  0  0  0  0  0  0  0  0  0  0
    3.4868   16.6777   39.5688 H   0  0  0  0  0  0  0  0  0  0  0  0
    2.0623   16.1595   38.8178 H   0  0  0  0  0  0  0  0  0  0  0  0
    1.5529   13.1503   40.7551 H   0  0  0  0  0  0  0  0  0  0  0  0
    0.2897   17.7335   45.3172 H   0  0  0  0  0  0  0  0  0  0  0  0
    0.9540   17.2540   43.7294 H   0  0  0  0  0  0  0  0  0  0  0  0
    0.8262   16.1255   42.3616 H   0  0  0  0  0  0  0  0  0  0  0  0
    3.8845   12.9054   40.0560 H   0  0  0  0  0  0  0  0  0  0  0  0
  1 23  1  0
  2 16  1  0
  3  6  2  0
  4  9  1  0
  5 20  1  0
  5 26  2  0
  7 17  1  0
  7 18  1  0
  9 22  2  0
 10  2  2  0
 11 17  1  0
 12  7  2  0
 14 24  1  0
 15 22  1  0
 15 11  1  0
 15 12  1  0
 16 22  1  0
 17 13  2  0
 18 23  1  0
 19 25  2  0
 20 19  1  0
 21  8  1  0
 21  3  1  0
 24  4  2  0
 24  2  1  0
 25  3  1  0
 26 21  1  0
  1 27  1  0
  1 28  1  0
  1 29  1  0
  4 30  1  0
  5 31  1  0
  8 32  1  0
  9 33  1  0
 12 34  1  0
 14 35  1  0
 15 36  1  1
 16 37  1  0
 16 38  1  0
 19 39  1  0
 20 40  1  0
 20 41  1  0
 21 42  1  6
 23 43  1  0
 23 44  1  0
 25 45  1  0
 26 46  1  0
M  CHG  1  20   1
M  END
>  <mol_id>  (85) 
2026-08-23-6tgu-s0-n100-prep-0086

>  <rmsd_to_ref>  (85) 


$$$$

     RDKit          3D

 49 52  0  0  0  0  0  0  0  0999 V2000
    1.7679   15.4837   42.0866 C   0  0  1  0  0  0  0  0  0  0  0  0
    2.1657   13.0986   42.1120 C   0  0  0  0  0  0  0  0  0  0  0  0
    3.4501   18.2824   36.6207 C   0  0  0  0  0  0  0  0  0  0  0  0
    2.7953   18.9380   37.6060 C   0  0  0  0  0  0  0  0  0  0  0  0
   -1.5730   18.6847   44.2980 F   0  0  0  0  0  0  0  0  0  0  0  0
    2.8002   16.8977   38.9400 C   0  0  0  0  0  0  0  0  0  0  0  0
    2.8404   20.1350   35.7757 N   0  0  0  0  0  0  0  0  0  0  0  0
    2.5715   18.3353   38.8975 C   0  0  2  0  0  0  0  0  0  0  0  0
    0.4507   19.9671   41.7514 C   0  0  0  0  0  0  0  0  0  0  0  0
    1.3170   13.3877   43.1694 C   0  0  0  0  0  0  0  0  0  0  0  0
    1.8309   19.3080   39.8634 C   0  0  0  0  0  0  0  0  0  0  0  0
   -0.1246   19.4453   43.0271 C   0  0  1  0  0  0  0  0  0  0  0  0
    0.9060   21.6153   40.0857 C   0  0  0  0  0  0  0  0  0  0  0  0
    3.0916   14.2694   40.2942 O   0  0  0  0  0  0  0  0  0  0  0  0
    1.0681   17.8339   42.0225 C   0  0  0  0  0  0  0  0  0  0  0  0
    3.8474   17.0066   36.7216 C   0  0  0  0  0  0  0  0  0  0  0  0
    0.3253   18.1050   43.1018 C   0  0  0  0  0  0  0  0  0  0  0  0
    0.2593   21.2593   41.2562 C   0  0  0  0  0  0  0  0  0  0  0  0
    2.5828   11.8204   41.8653 C   0  0  0  0  0  0  0  0  0  0  0  0
    1.7826   16.7182   41.7847 N   0  0  0  0  0  0  0  0  0  0  0  0
    1.1900   19.0141   41.1294 C   0  0  0  0  0  0  0  0  0  0  0  0
    3.4951   16.2824   37.8452 C   0  0  0  0  0  0  0  0  0  0  0  0
    0.7006   14.9687   43.3661 S   0  0  0  0  0  0  0  0  0  0  0  0
   -0.7524   20.5407   43.7323 O   0  0  0  0  0  0  0  0  0  0  0  0
    3.8967   14.6065   37.8250 Cl  0  0  0  0  0  0  0  0  0  0  0  0
    3.5812   19.0846   35.5448 N   0  0  0  0  0  0  0  0  0  0  0  0
    2.4495   20.1360   37.0499 C   0  0  0  0  0  0  0  0  0  0  0  0
    1.7086   20.6732   39.4833 C   0  0  0  0  0  0  0  0  0  0  0  0
    2.3472   14.3229   41.3462 C   0  0  0  0  0  0  0  0  0  0  0  0
    2.7614   15.9558   42.0849 H   0  0  0  0  0  0  0  0  0  0  0  0
   -1.5634   18.8713   45.2203 H   0  0  0  0  0  0  0  0  0  0  0  0
    2.4484   16.2971   39.7918 H   0  0  0  0  0  0  0  0  0  0  0  0
    3.1692   18.1342   39.7988 H   0  0  0  0  0  0  0  0  0  0  0  0
    0.4491   12.7191   43.0713 H   0  0  0  0  0  0  0  0  0  0  0  0
    1.9608   13.2572   44.0517 H   0  0  0  0  0  0  0  0  0  0  0  0
   -0.7921   19.0479   43.8059 H   0  0  0  0  0  0  0  0  0  0  0  0
    0.7828   22.6182   39.6510 H   0  0  0  0  0  0  0  0  0  0  0  0
    3.2373   15.0829   39.7491 H   0  0  0  0  0  0  0  0  0  0  0  0
    4.4447   16.5427   35.9228 H   0  0  0  0  0  0  0  0  0  0  0  0
    0.1004   17.4003   43.9158 H   0  0  0  0  0  0  0  0  0  0  0  0
   -0.3888   21.9751   41.7831 H   0  0  0  0  0  0  0  0  0  0  0  0
    2.8277   11.3247   42.8163 H   0  0  0  0  0  0  0  0  0  0  0  0
    1.7806   11.2644   41.3581 H   0  0  0  0  0  0  0  0  0  0  0  0
    3.4756   11.8436   41.2233 H   0  0  0  0  0  0  0  0  0  0  0  0
    2.7195   16.9994   42.1072 H   0  0  0  0  0  0  0  0  0  0  0  0
    1.3241   16.5553   40.8768 H   0  0  0  0  0  0  0  0  0  0  0  0
   -0.5602   20.4633   44.7004 H   0  0  0  0  0  0  0  0  0  0  0  0
    1.9360   20.9610   37.5653 H   0  0  0  0  0  0  0  0  0  0  0  0
    2.3126   21.0078   38.6270 H   0  0  0  0  0  0  0  0  0  0  0  0
  1 20  1  0
  1 23  1  0
  2 10  1  0
  3  4  1  0
  4  8  1  0
  6  8  1  0
  7 27  1  0
  8 11  1  0
  9 12  1  0
 10 23  1  0
 11 21  2  0
 12 24  1  0
 13 18  1  0
 14 29  1  0
 15 17  2  0
 16  3  2  0
 16 22  1  0
 17 12  1  0
 18  9  2  0
 19  2  1  0
 20 15  1  0
 21 15  1  0
 21  9  1  0
 22  6  2  0
 25 22  1  0
 26  7  2  0
 26  3  1  0
 27  4  2  0
 28 11  1  0
 28 13  2  0
 29  2  2  0
 29  1  1  0
  1 30  1  1
  5 31  1  0
  6 32  1  0
  8 33  1  1
 10 34  1  0
 10 35  1  0
 12 36  1  6
 13 37  1  0
 14 38  1  0
 16 39  1  0
 17 40  1  0
 18 41  1  0
 19 42  1  0
 19 43  1  0
 19 44  1  0
 20 45  1  0
 20 46  1  0
 24 47  1  0
 27 48  1  0
 28 49  1  0
M  CHG  1  20   1
M  END
>  <mol_id>  (86) 
2026-08-23-6tgu-s0-n100-prep-0087

>  <rmsd_to_ref>  (86) 


$$$$

     RDKit          3D

 31 32  0  0  0  0  0  0  0  0999 V2000
    1.5602   13.5575   42.6431 C   0  0  0  0  0  0  0  0  0  0  0  0
    1.4335   20.6012   39.9071 C   0  0  0  0  0  0  0  0  0  0  0  0
    2.4372   18.3441   39.2590 C   0  0  0  0  0  0  0  0  0  0  0  0
   -0.5727   16.8856   42.9774 S   0  0  0  0  0  0  0  0  0  0  0  0
    1.5207   19.0631   40.0841 C   0  0  1  0  0  0  0  0  0  0  0  0
    2.3753   15.9426   40.3893 C   0  0  0  0  0  0  0  0  0  0  0  0
   -0.1585   15.2286   43.2829 C   0  0  0  0  0  0  0  0  0  0  0  0
    2.7567   20.0087   37.4232 O   0  0  0  0  0  0  0  0  0  0  0  0
    0.5908   12.4353   43.0788 C   0  0  0  0  0  0  0  0  0  0  0  0
    2.7644   13.2216   42.5190 O   0  0  0  0  0  0  0  0  0  0  0  0
   -0.0494   19.6387   41.9462 C   0  0  0  0  0  0  0  0  0  0  0  0
    0.6701   17.2429   41.8300 C   0  0  0  0  0  0  0  0  0  0  0  0
    1.0009   14.8439   42.4410 C   0  0  0  0  0  0  0  0  0  0  0  0
    2.7751   16.9911   39.5235 C   0  0  0  0  0  0  0  0  0  0  0  0
    3.1393   18.9452   37.9487 C   0  0  0  0  0  0  0  0  0  0  0  0
    0.7780   18.5820   41.2313 C   0  0  0  0  0  0  0  0  0  0  0  0
    4.1053   18.2786   37.4563 O   0  0  0  0  0  0  0  0  0  0  0  0
    1.4383   16.0184   41.4850 C   0  0  0  0  0  0  0  0  0  0  0  0
    1.2246   21.0709   40.8797 H   0  0  0  0  0  0  0  0  0  0  0  0
    2.3887   20.9799   39.5146 H   0  0  0  0  0  0  0  0  0  0  0  0
    0.6252   20.8439   39.2016 H   0  0  0  0  0  0  0  0  0  0  0  0
    1.1168   18.2008   39.5333 H   0  0  0  0  0  0  0  0  0  0  0  0
    2.8312   14.9585   40.2054 H   0  0  0  0  0  0  0  0  0  0  0  0
   -0.6760   14.5655   43.9917 H   0  0  0  0  0  0  0  0  0  0  0  0
    0.4355   12.4868   44.1665 H   0  0  0  0  0  0  0  0  0  0  0  0
   -0.3730   12.5632   42.5644 H   0  0  0  0  0  0  0  0  0  0  0  0
    1.0200   11.4573   42.8156 H   0  0  0  0  0  0  0  0  0  0  0  0
   -0.0863   19.4101   43.0216 H   0  0  0  0  0  0  0  0  0  0  0  0
    0.4101   20.6270   41.7970 H   0  0  0  0  0  0  0  0  0  0  0  0
   -1.0705   19.6435   41.5371 H   0  0  0  0  0  0  0  0  0  0  0  0
    3.5873   16.6580   38.8607 H   0  0  0  0  0  0  0  0  0  0  0  0
  1  9  1  0
  3 14  2  0
  3  5  1  0
  4  7  1  0
  5  2  1  0
  5 16  1  0
  6 18  2  0
  8 15  1  0
 10  1  2  0
 12  4  1  0
 13  1  1  0
 13  7  2  0
 14  6  1  0
 15  3  1  0
 16 12  2  0
 16 11  1  0
 17 15  2  0
 18 12  1  0
 18 13  1  0
  2 19  1  0
  2 20  1  0
  2 21  1  0
  5 22  1  6
  6 23  1  0
  7 24  1  0
  9 25  1  0
  9 26  1  0
  9 27  1  0
 11 28  1  0
 11 29  1  0
 11 30  1  0
 14 31  1  0
M  CHG  1   8  -1
M  END
>  <mol_id>  (87) 
2026-08-23-6tgu-s0-n100-prep-0088

>  <rmsd_to_ref>  (87) 


$$$$

     RDKit          3D

 67 72  0  0  0  0  0  0  0  0999 V2000
    2.0638   21.4197   42.2690 O   0  0  0  0  0  0  0  0  0  0  0  0
    0.6096   18.5021   41.8880 N   0  0  0  0  0  0  0  0  0  0  0  0
   -1.3032   15.3706   48.6436 C   0  0  0  0  0  0  0  0  0  0  0  0
    0.2451   17.8541   43.0112 C   0  0  1  0  0  0  0  0  0  0  0  0
    4.2259   15.4847   38.6360 C   0  0  0  0  0  0  0  0  0  0  0  0
   -1.1568   16.1617   47.4026 C   0  0  0  0  0  0  0  0  0  0  0  0
    0.0828   19.8912   44.3801 O   0  0  0  0  0  0  0  0  0  0  0  0
   -0.5958   16.5259   45.0740 C   0  0  0  0  0  0  0  0  0  0  0  0
    2.4470   14.3744   42.1153 N   0  0  0  0  0  0  0  0  0  0  0  0
    3.7028   14.3912   39.9112 S   0  0  0  0  0  0  0  0  0  0  0  0
    1.7611   20.8406   39.9419 C   0  0  0  0  0  0  0  0  0  0  0  0
    3.7358   20.5053   34.9839 C   0  0  0  0  0  0  0  0  0  0  0  0
    1.5679   14.5408   43.1104 N   0  0  0  0  0  0  0  0  0  0  0  0
   -1.3146   14.1319   48.4445 O   0  0  0  0  0  0  0  0  0  0  0  0
   -0.1415   15.2828   44.9798 C   0  0  0  0  0  0  0  0  0  0  0  0
   -0.7716   15.5445   46.1855 C   0  0  0  0  0  0  0  0  0  0  0  0
   -1.2881   18.3478   46.4544 C   0  0  0  0  0  0  0  0  0  0  0  0
    3.4481   18.8491   37.2047 C   0  0  0  0  0  0  0  0  0  0  0  0
    2.9969   21.3322   37.1840 C   0  0  0  0  0  0  0  0  0  0  0  0
    1.7570   16.5459   41.4518 C   0  0  0  0  0  0  0  0  0  0  0  0
    4.1310   20.1969   35.8322 O   0  0  0  0  0  0  0  0  0  0  0  0
    1.0797   15.3876   42.7983 C   0  0  0  0  0  0  0  0  0  0  0  0
    1.1829   19.4190   41.7372 N   0  0  0  0  0  0  0  0  0  0  0  0
   -1.1566   15.8930   49.8067 O   0  0  0  0  0  0  0  0  0  0  0  0
    0.9573   16.6641   42.6423 C   0  0  0  0  0  0  0  0  0  0  0  0
    3.9645   17.8566   38.2908 C   0  0  0  0  0  0  0  0  0  0  0  0
    3.2976   16.6342   38.6074 C   0  0  0  0  0  0  0  0  0  0  0  0
   -0.1667   18.7015   44.2395 C   0  0  0  0  0  0  0  0  0  0  0  0
    1.3338   20.7336   41.3277 C   0  0  1  0  0  0  0  0  0  0  0  0
    1.9455   20.0001   39.0167 C   0  0  0  0  0  0  0  0  0  0  0  0
    3.3972   20.8588   35.6118 C   0  0  1  0  0  0  0  0  0  0  0  0
    0.6309   21.8366   41.7314 C   0  0  0  0  0  0  0  0  0  0  0  0
   -1.5682   17.5599   47.5608 C   0  0  0  0  0  0  0  0  0  0  0  0
    2.5313   15.2069   41.1346 C   0  0  0  0  0  0  0  0  0  0  0  0
    3.2314   20.2436   38.1017 C   0  0  1  0  0  0  0  0  0  0  0  0
   -0.7423   17.8299   45.3117 C   0  0  0  0  0  0  0  0  0  0  0  0
    1.1361   17.7939   41.3568 H   0  0  0  0  0  0  0  0  0  0  0  0
   -0.6498   17.4980   43.5427 H   0  0  0  0  0  0  0  0  0  0  0  0
    4.2053   14.9645   37.6670 H   0  0  0  0  0  0  0  0  0  0  0  0
    5.2531   15.8291   38.8269 H   0  0  0  0  0  0  0  0  0  0  0  0
    1.0251   21.5328   39.5069 H   0  0  0  0  0  0  0  0  0  0  0  0
    2.8276   20.9837   40.1700 H   0  0  0  0  0  0  0  0  0  0  0  0
    3.1370   19.7953   34.3944 H   0  0  0  0  0  0  0  0  0  0  0  0
    4.1983   20.9236   34.0777 H   0  0  0  0  0  0  0  0  0  0  0  0
    1.4214   13.9739   43.9579 H   0  0  0  0  0  0  0  0  0  0  0  0
   -0.6221   14.5951   44.2685 H   0  0  0  0  0  0  0  0  0  0  0  0
    0.8538   14.8793   44.7421 H   0  0  0  0  0  0  0  0  0  0  0  0
   -1.5120   19.4239   46.4970 H   0  0  0  0  0  0  0  0  0  0  0  0
    4.1923   18.9956   36.4080 H   0  0  0  0  0  0  0  0  0  0  0  0
    2.5431   18.5084   36.6804 H   0  0  0  0  0  0  0  0  0  0  0  0
    3.6167   22.1934   37.4742 H   0  0  0  0  0  0  0  0  0  0  0  0
    1.9331   21.6101   37.2176 H   0  0  0  0  0  0  0  0  0  0  0  0
    1.8295   17.3956   40.7569 H   0  0  0  0  0  0  0  0  0  0  0  0
    0.9547   15.1011   41.7436 H   0  0  0  0  0  0  0  0  0  0  0  0
    0.7234   15.5175   43.8308 H   0  0  0  0  0  0  0  0  0  0  0  0
    1.5020   19.5415   42.7088 H   0  0  0  0  0  0  0  0  0  0  0  0
    4.9831   17.5757   37.9848 H   0  0  0  0  0  0  0  0  0  0  0  0
    3.8082   18.4375   39.2117 H   0  0  0  0  0  0  0  0  0  0  0  0
    2.5235   16.4459   37.8489 H   0  0  0  0  0  0  0  0  0  0  0  0
    2.8575   16.7388   39.6100 H   0  0  0  0  0  0  0  0  0  0  0  0
    2.0431   19.0064   39.4783 H   0  0  0  0  0  0  0  0  0  0  0  0
    1.0791   20.0994   38.3463 H   0  0  0  0  0  0  0  0  0  0  0  0
    2.6525   20.0511   35.6651 H   0  0  0  0  0  0  0  0  0  0  0  0
    0.5092   22.7027   41.0643 H   0  0  0  0  0  0  0  0  0  0  0  0
   -0.3603   22.0499   42.1581 H   0  0  0  0  0  0  0  0  0  0  0  0
   -2.0523   17.9469   48.4696 H   0  0  0  0  0  0  0  0  0  0  0  0
    4.1043   20.4852   38.7260 H   0  0  0  0  0  0  0  0  0  0  0  0
  2  4  1  0
  3 24  1  0
  4 28  1  0
  5 27  1  0
  5 10  1  0
  6 33  1  0
  6  3  1  0
  8 36  2  0
  8 16  1  0
  9 13  1  0
 10 34  1  0
 12 31  1  0
 12 21  1  0
 14  3  2  0
 15  8  1  0
 15 16  1  0
 16  6  2  0
 17 33  2  0
 18 26  1  0
 18 35  1  0
 20 25  2  0
 22 13  1  0
 23  2  1  0
 25 22  1  0
 25  4  1  0
 26 27  1  0
 28  7  2  0
 28 36  1  0
 29 11  1  0
 29 23  1  0
 29 32  1  0
 29  1  1  1
 30 11  1  0
 31 21  1  0
 31 19  1  0
 32  1  1  0
 34 20  1  0
 34  9  2  0
 35 19  1  0
 35 30  1  0
 36 17  1  0
  2 37  1  0
  4 38  1  6
  5 39  1  0
  5 40  1  0
 11 41  1  0
 11 42  1  0
 12 43  1  0
 12 44  1  0
 13 45  1  0
 15 46  1  0
 15 47  1  0
 17 48  1  0
 18 49  1  0
 18 50  1  0
 19 51  1  0
 19 52  1  0
 20 53  1  0
 22 54  1  0
 22 55  1  0
 23 56  1  0
 26 57  1  0
 26 58  1  0
 27 59  1  0
 27 60  1  0
 30 61  1  0
 30 62  1  0
 31 63  1  1
 32 64  1  0
 32 65  1  0
 33 66  1  0
 35 67  1  1
M  CHG  1  24  -1
M  END
>  <mol_id>  (88) 
2026-08-23-6tgu-s0-n100-prep-0089

>  <rmsd_to_ref>  (88) 


$$$$

     RDKit          3D

 36 37  0  0  0  0  0  0  0  0999 V2000
    1.1646   20.8625   41.3797 C   0  0  0  0  0  0  0  0  0  0  0  0
    1.0229   14.7733   41.2631 Cl  0  0  0  0  0  0  0  0  0  0  0  0
    0.5864   16.1930   42.0168 C   0  0  0  0  0  0  0  0  0  0  0  0
    2.9441   20.4606   37.0832 C   0  0  0  0  0  0  0  0  0  0  0  0
   -0.3924   18.2665   43.7336 C   0  0  0  0  0  0  0  0  0  0  0  0
    0.7700   17.6235   41.6149 C   0  0  2  0  0  0  0  0  0  0  0  0
    2.7695   19.5812   38.4571 C   0  0  2  0  0  0  0  0  0  0  0  0
    1.5191   18.0922   40.2716 C   0  0  0  0  0  0  0  0  0  0  0  0
    4.2534   17.9059   37.8779 C   0  0  0  0  0  0  0  0  0  0  0  0
    2.3669   21.4784   37.2224 O   0  0  0  0  0  0  0  0  0  0  0  0
    0.3449   18.6357   42.5462 C   0  0  0  0  0  0  0  0  0  0  0  0
    3.5880   20.1873   35.9751 N   0  0  0  0  0  0  0  0  0  0  0  0
   -0.6147   16.9279   44.0347 C   0  0  0  0  0  0  0  0  0  0  0  0
    0.6290   20.1088   42.2423 C   0  0  0  0  0  0  0  0  0  0  0  0
    1.6116   16.8413   39.8600 O   0  0  0  0  0  0  0  0  0  0  0  0
    1.7622   19.3729   39.5407 C   0  0  0  0  0  0  0  0  0  0  0  0
    1.4893   20.6378   39.9155 C   0  0  0  0  0  0  0  0  0  0  0  0
    3.6132   19.0123   38.9776 C   0  0  0  0  0  0  0  0  0  0  0  0
    3.4217   21.1410   35.0188 O   0  0  0  0  0  0  0  0  0  0  0  0
   -0.2064   15.8773   43.2460 C   0  0  0  0  0  0  0  0  0  0  0  0
    1.4445   21.8567   41.7583 H   0  0  0  0  0  0  0  0  0  0  0  0
   -0.7797   19.0492   44.4024 H   0  0  0  0  0  0  0  0  0  0  0  0
   -0.1859   17.5935   41.0714 H   0  0  0  0  0  0  0  0  0  0  0  0
    2.2967   19.8620   37.5044 H   0  0  0  0  0  0  0  0  0  0  0  0
    4.7224   17.0748   38.4249 H   0  0  0  0  0  0  0  0  0  0  0  0
    3.4475   17.5159   37.2389 H   0  0  0  0  0  0  0  0  0  0  0  0
    5.0079   18.4054   37.2524 H   0  0  0  0  0  0  0  0  0  0  0  0
    4.1593   19.3406   35.8420 H   0  0  0  0  0  0  0  0  0  0  0  0
   -1.1525   16.6931   44.9651 H   0  0  0  0  0  0  0  0  0  0  0  0
    0.2273   20.7271   43.0586 H   0  0  0  0  0  0  0  0  0  0  0  0
    2.0448   16.6361   38.9938 H   0  0  0  0  0  0  0  0  0  0  0  0
    1.5015   21.4680   39.1940 H   0  0  0  0  0  0  0  0  0  0  0  0
    4.3958   19.7160   39.2973 H   0  0  0  0  0  0  0  0  0  0  0  0
    3.2294   18.4889   39.8657 H   0  0  0  0  0  0  0  0  0  0  0  0
    3.3391   22.0288   35.4489 H   0  0  0  0  0  0  0  0  0  0  0  0
   -0.4548   14.8389   43.5104 H   0  0  0  0  0  0  0  0  0  0  0  0
  1 14  1  0
  2  3  1  0
  3 20  2  0
  4  7  1  0
  5 13  2  0
  6  8  1  0
  6  3  1  0
  6 11  1  0
  7 18  1  0
  7 16  1  0
  9 18  1  0
 10  4  2  0
 11  5  1  0
 12  4  1  0
 14 11  2  0
 15  8  1  0
 16 17  1  0
 16  8  2  0
 17  1  2  0
 19 12  1  0
 20 13  1  0
  1 21  1  0
  5 22  1  0
  6 23  1  6
  7 24  1  6
  9 25  1  0
  9 26  1  0
  9 27  1  0
 12 28  1  0
 13 29  1  0
 14 30  1  0
 15 31  1  0
 17 32  1  0
 18 33  1  0
 18 34  1  0
 19 35  1  0
 20 36  1  0
M  END
>  <mol_id>  (89) 
2026-08-23-6tgu-s0-n100-prep-0090

>  <rmsd_to_ref>  (89) 


$$$$

     RDKit          3D

 52 55  0  0  0  0  0  0  0  0999 V2000
    2.5962   19.7819   37.6087 C   0  0  0  0  0  0  0  0  0  0  0  0
    1.2356   15.8710   43.1781 C   0  0  0  0  0  0  0  0  0  0  0  0
    4.8702   16.3640   38.0162 C   0  0  0  0  0  0  0  0  0  0  0  0
    1.0826   19.9213   40.5545 C   0  0  1  0  0  0  0  0  0  0  0  0
    2.6144   15.9678   40.9434 C   0  0  0  0  0  0  0  0  0  0  0  0
    1.4442   20.3465   38.2715 C   0  0  0  0  0  0  0  0  0  0  0  0
   -0.2259   19.4466   42.6217 C   0  0  1  0  0  0  0  0  0  0  0  0
    3.9376   14.6919   39.5811 C   0  0  0  0  0  0  0  0  0  0  0  0
   -0.7079   21.2298   41.4703 O   0  0  0  0  0  0  0  0  0  0  0  0
   -1.5121   15.9988   45.4245 C   0  0  0  0  0  0  0  0  0  0  0  0
    0.5943   17.0720   43.8768 C   0  0  0  0  0  0  0  0  0  0  0  0
    0.4196   18.1433   42.7803 N   0  0  0  0  0  0  0  0  0  0  0  0
    1.7894   16.4344   41.9185 C   0  0  0  0  0  0  0  0  0  0  0  0
    2.7588   18.1956   39.8613 C   0  0  0  0  0  0  0  0  0  0  0  0
    3.3847   19.3948   36.8949 N   0  0  0  0  0  0  0  0  0  0  0  0
    3.1718   16.8005   39.9179 C   0  0  0  0  0  0  0  0  0  0  0  0
    1.4471   20.7828   39.6010 O   0  0  0  0  0  0  0  0  0  0  0  0
    0.0388   20.2558   41.5629 C   0  0  0  0  0  0  0  0  0  0  0  0
   -1.3905   18.5832   45.7424 C   0  0  0  0  0  0  0  0  0  0  0  0
   -1.2092   19.9150   43.6650 C   0  0  0  0  0  0  0  0  0  0  0  0
   -0.5348   15.1136   45.9619 O   0  0  0  0  0  0  0  0  0  0  0  0
   -1.8396   17.2027   46.2923 C   0  0  0  0  0  0  0  0  0  0  0  0
    3.1539   14.6174   40.6377 C   0  0  0  0  0  0  0  0  0  0  0  0
    3.9611   15.9711   39.1644 N   0  0  0  0  0  0  0  0  0  0  0  0
   -2.0209   18.9502   44.4412 N   0  0  0  0  0  0  0  0  0  0  0  0
    1.3547   17.7870   41.7513 C   0  0  0  0  0  0  0  0  0  0  0  0
    1.7514   18.6029   40.6915 C   0  0  0  0  0  0  0  0  0  0  0  0
    2.0360   15.4407   43.7980 H   0  0  0  0  0  0  0  0  0  0  0  0
    0.5183   15.0572   42.9959 H   0  0  0  0  0  0  0  0  0  0  0  0
    5.5989   17.1108   38.3645 H   0  0  0  0  0  0  0  0  0  0  0  0
    5.4034   15.4744   37.6497 H   0  0  0  0  0  0  0  0  0  0  0  0
    4.2677   16.7919   37.2014 H   0  0  0  0  0  0  0  0  0  0  0  0
    1.8569   20.3304   41.2201 H   0  0  0  0  0  0  0  0  0  0  0  0
    1.1517   21.2202   37.6705 H   0  0  0  0  0  0  0  0  0  0  0  0
    0.7874   19.4667   38.3394 H   0  0  0  0  0  0  0  0  0  0  0  0
    0.5938   19.9207   43.1815 H   0  0  0  0  0  0  0  0  0  0  0  0
    4.4792   13.8531   39.1194 H   0  0  0  0  0  0  0  0  0  0  0  0
   -1.1422   16.3674   44.4564 H   0  0  0  0  0  0  0  0  0  0  0  0
   -2.4419   15.4165   45.3459 H   0  0  0  0  0  0  0  0  0  0  0  0
   -0.3817   16.7937   44.3011 H   0  0  0  0  0  0  0  0  0  0  0  0
    1.2135   17.4378   44.7092 H   0  0  0  0  0  0  0  0  0  0  0  0
    3.2432   18.9016   39.1707 H   0  0  0  0  0  0  0  0  0  0  0  0
   -1.6524   19.3530   46.4833 H   0  0  0  0  0  0  0  0  0  0  0  0
   -0.3067   18.5188   45.5649 H   0  0  0  0  0  0  0  0  0  0  0  0
   -0.6322   20.4979   44.3980 H   0  0  0  0  0  0  0  0  0  0  0  0
   -1.9676   20.4368   43.0628 H   0  0  0  0  0  0  0  0  0  0  0  0
   -0.5118   15.2063   46.9473 H   0  0  0  0  0  0  0  0  0  0  0  0
   -2.9309   17.2334   46.4265 H   0  0  0  0  0  0  0  0  0  0  0  0
   -1.2739   17.0577   47.2245 H   0  0  0  0  0  0  0  0  0  0  0  0
    2.9338   13.7004   41.2040 H   0  0  0  0  0  0  0  0  0  0  0  0
   -2.9424   19.3704   44.6285 H   0  0  0  0  0  0  0  0  0  0  0  0
   -2.1014   18.0897   43.8809 H   0  0  0  0  0  0  0  0  0  0  0  0
  1  6  1  0
  2 11  1  0
  3 24  1  0
  4 17  1  0
  4 18  1  0
  5 13  2  0
  6 17  1  0
  7 20  1  0
  8 23  2  0
 10 21  1  0
 10 22  1  0
 12  7  1  0
 12 11  1  0
 13 26  1  0
 13  2  1  0
 14 27  1  0
 15  1  3  0
 16 14  2  0
 16  5  1  0
 18  9  2  0
 18  7  1  0
 19 22  1  0
 20 25  1  0
 23  5  1  0
 24  8  1  0
 24 16  1  0
 25 19  1  0
 26 12  1  0
 27  4  1  0
 27 26  2  0
  2 28  1  0
  2 29  1  0
  3 30  1  0
  3 31  1  0
  3 32  1  0
  4 33  1  6
  6 34  1  0
  6 35  1  0
  7 36  1  1
  8 37  1  0
 10 38  1  0
 10 39  1  0
 11 40  1  0
 11 41  1  0
 14 42  1  0
 19 43  1  0
 19 44  1  0
 20 45  1  0
 20 46  1  0
 21 47  1  0
 22 48  1  0
 22 49  1  0
 23 50  1  0
 25 51  1  0
 25 52  1  0
M  CHG  1  25   1
M  END
>  <mol_id>  (90) 
2026-08-23-6tgu-s0-n100-prep-0092

>  <rmsd_to_ref>  (90) 


$$$$

     RDKit          3D

 40 42  0  0  0  0  0  0  0  0999 V2000
   -0.8616   17.0822   45.6107 C   0  0  0  0  0  0  0  0  0  0  0  0
    4.8080   16.0373   38.8426 C   0  0  0  0  0  0  0  0  0  0  0  0
    2.8078   20.0565   36.0836 C   0  0  0  0  0  0  0  0  0  0  0  0
    3.5218   16.5766   39.4400 O   0  0  0  0  0  0  0  0  0  0  0  0
   -1.5315   18.2728   45.4973 C   0  0  0  0  0  0  0  0  0  0  0  0
    0.2573   19.6547   41.3931 N   0  0  0  0  0  0  0  0  0  0  0  0
    2.1049   18.3483   39.9033 C   0  0  0  0  0  0  0  0  0  0  0  0
   -0.6439   19.6289   42.3474 C   0  0  0  0  0  0  0  0  0  0  0  0
    2.8966   17.7113   38.9939 C   0  0  0  0  0  0  0  0  0  0  0  0
    3.0577   20.4903   35.0331 N   0  0  0  0  0  0  0  0  0  0  0  0
    0.5875   20.2281   40.3816 N   0  0  0  0  0  0  0  0  0  0  0  0
    1.4531   19.5917   39.4794 C   0  0  0  0  0  0  0  0  0  0  0  0
    0.0213   17.4266   43.3724 C   0  0  0  0  0  0  0  0  0  0  0  0
   -0.0425   16.6458   44.5192 C   0  0  0  0  0  0  0  0  0  0  0  0
   -1.5263   20.5318   42.6771 C   0  0  0  0  0  0  0  0  0  0  0  0
    2.5392   19.4492   37.3925 C   0  0  0  0  0  0  0  0  0  0  0  0
    3.1559   18.1614   37.6761 C   0  0  0  0  0  0  0  0  0  0  0  0
    4.0122   17.6407   36.8512 O   0  0  0  0  0  0  0  0  0  0  0  0
   -0.5916   18.6110   43.3109 C   0  0  0  0  0  0  0  0  0  0  0  0
    4.9938   13.3327   38.3480 C   0  0  0  0  0  0  0  0  0  0  0  0
    1.7098   20.1382   38.1814 C   0  0  0  0  0  0  0  0  0  0  0  0
   -1.9541   20.1744   43.9259 N   0  0  0  0  0  0  0  0  0  0  0  0
    4.8488   14.6109   38.5928 C   0  0  0  0  0  0  0  0  0  0  0  0
   -1.4351   19.0964   44.3456 C   0  0  0  0  0  0  0  0  0  0  0  0
   -0.9511   16.4734   46.5225 H   0  0  0  0  0  0  0  0  0  0  0  0
    4.9738   16.5507   37.8840 H   0  0  0  0  0  0  0  0  0  0  0  0
    5.5849   16.2259   39.5981 H   0  0  0  0  0  0  0  0  0  0  0  0
   -2.5991   18.0346   45.6136 H   0  0  0  0  0  0  0  0  0  0  0  0
   -1.0270   18.8880   46.2568 H   0  0  0  0  0  0  0  0  0  0  0  0
    1.9606   17.9447   40.9164 H   0  0  0  0  0  0  0  0  0  0  0  0
    0.5856   17.0632   42.5009 H   0  0  0  0  0  0  0  0  0  0  0  0
    0.5268   15.7071   44.5885 H   0  0  0  0  0  0  0  0  0  0  0  0
   -1.8553   21.3946   42.0793 H   0  0  0  0  0  0  0  0  0  0  0  0
    4.4253   16.7642   37.0544 H   0  0  0  0  0  0  0  0  0  0  0  0
    4.9363   12.7699   39.2915 H   0  0  0  0  0  0  0  0  0  0  0  0
    4.1949   12.9961   37.6710 H   0  0  0  0  0  0  0  0  0  0  0  0
    5.9720   13.1584   37.8761 H   0  0  0  0  0  0  0  0  0  0  0  0
    1.2469   21.0793   37.8498 H   0  0  0  0  0  0  0  0  0  0  0  0
    4.0586   14.6942   37.8322 H   0  0  0  0  0  0  0  0  0  0  0  0
    5.0546   14.4302   39.6582 H   0  0  0  0  0  0  0  0  0  0  0  0
  1  5  1  0
  2  4  1  0
  3 16  1  0
  6  8  1  0
  7 12  2  0
  8 19  1  0
  8 15  2  0
  9  4  1  0
  9  7  1  0
 10  3  3  0
 11  6  2  3
 12 11  1  0
 13 19  2  0
 13 14  1  0
 14  1  2  0
 15 22  1  0
 16 21  2  0
 17 16  1  0
 17  9  2  0
 18 17  1  0
 19 24  1  0
 20 23  1  0
 21 12  1  0
 22 24  2  0
 23  2  1  0
 24  5  1  0
  1 25  1  0
  2 26  1  0
  2 27  1  0
  5 28  1  0
  5 29  1  0
  7 30  1  0
 13 31  1  0
 14 32  1  0
 15 33  1  0
 18 34  1  0
 20 35  1  0
 20 36  1  0
 20 37  1  0
 21 38  1  0
 23 39  1  0
 23 40  1  0
M  END
>  <mol_id>  (91) 
2026-08-23-6tgu-s0-n100-prep-0093

>  <rmsd_to_ref>  (91) 


$$$$

     RDKit          3D

 33 34  0  0  0  0  0  0  0  0999 V2000
   -0.3548   14.9841   43.2256 C   0  0  0  0  0  0  0  0  0  0  0  0
    2.7504   18.8400   38.7850 N   0  0  0  0  0  0  0  0  0  0  0  0
   -2.2643   20.2982   42.8594 O   0  0  0  0  0  0  0  0  0  0  0  0
    3.1211   20.3668   37.0762 C   0  0  0  0  0  0  0  0  0  0  0  0
   -0.2797   16.4635   42.5124 O   0  0  0  0  0  0  0  0  0  0  0  0
    3.9865   21.5791   35.1954 C   0  0  0  0  0  0  0  0  0  0  0  0
    1.6739   20.8637   38.8082 N   0  0  0  0  0  0  0  0  0  0  0  0
   -0.0913   17.7095   42.0894 C   0  0  0  0  0  0  0  0  0  0  0  0
    2.2931   21.2143   37.7048 C   0  0  0  0  0  0  0  0  0  0  0  0
    3.3690   19.1775   37.7484 C   0  0  0  0  0  0  0  0  0  0  0  0
    1.8405   19.6886   39.3064 C   0  0  0  0  0  0  0  0  0  0  0  0
   -0.8279   20.4903   41.3578 C   0  0  0  0  0  0  0  0  0  0  0  0
    3.8260   20.6364   35.9515 O   0  0  0  0  0  0  0  0  0  0  0  0
    0.9119   19.2996   40.4539 C   0  0  0  0  0  0  0  0  0  0  0  0
   -1.1949   19.6954   42.2722 C   0  0  0  0  0  0  0  0  0  0  0  0
   -1.2213   15.4123   44.1212 O   0  0  0  0  0  0  0  0  0  0  0  0
   -0.1276   20.1518   40.6230 C   0  0  0  0  0  0  0  0  0  0  0  0
    0.8474   18.1120   41.1089 C   0  0  0  0  0  0  0  0  0  0  0  0
   -0.8454   18.6034   42.8249 C   0  0  0  0  0  0  0  0  0  0  0  0
    0.6009   14.6534   43.6584 H   0  0  0  0  0  0  0  0  0  0  0  0
   -0.6000   14.1022   42.6155 H   0  0  0  0  0  0  0  0  0  0  0  0
   -2.7284   19.8569   43.6144 H   0  0  0  0  0  0  0  0  0  0  0  0
    3.9240   22.5193   35.7630 H   0  0  0  0  0  0  0  0  0  0  0  0
    4.9754   21.5033   34.7195 H   0  0  0  0  0  0  0  0  0  0  0  0
    3.2051   21.5655   34.4213 H   0  0  0  0  0  0  0  0  0  0  0  0
    2.1303   22.2196   37.2890 H   0  0  0  0  0  0  0  0  0  0  0  0
    4.1422   18.5017   37.3538 H   0  0  0  0  0  0  0  0  0  0  0  0
   -1.2238   21.5157   41.3191 H   0  0  0  0  0  0  0  0  0  0  0  0
   -0.9239   15.1389   45.0250 H   0  0  0  0  0  0  0  0  0  0  0  0
   -0.3176   20.6787   39.6762 H   0  0  0  0  0  0  0  0  0  0  0  0
    1.6182   17.3727   40.8458 H   0  0  0  0  0  0  0  0  0  0  0  0
   -1.7657   18.0821   43.1269 H   0  0  0  0  0  0  0  0  0  0  0  0
   -0.1778   18.9141   43.6420 H   0  0  0  0  0  0  0  0  0  0  0  0
  1 16  1  0
  2 11  1  0
  4 10  1  0
  4  9  2  0
  5  1  1  0
  6 13  1  0
  7 11  2  0
  8  5  1  0
  8 19  1  0
  9  7  1  0
 10  2  2  0
 11 14  1  0
 12 15  2  0
 13  4  1  0
 14 17  2  0
 14 18  1  0
 15 19  1  0
 15  3  1  0
 17 12  1  0
 18  8  2  0
  1 20  1  0
  1 21  1  0
  3 22  1  0
  6 23  1  0
  6 24  1  0
  6 25  1  0
  9 26  1  0
 10 27  1  0
 12 28  1  0
 16 29  1  0
 17 30  1  0
 18 31  1  0
 19 32  1  0
 19 33  1  0
M  END
>  <mol_id>  (92) 
2026-08-23-6tgu-s0-n100-prep-0094

>  <rmsd_to_ref>  (92) 


$$$$

     RDKit          3D

 29 31  0  0  0  0  0  0  0  0999 V2000
    2.8616   18.5925   38.1941 C   0  0  0  0  0  0  0  0  0  0  0  0
    1.6747   18.6536   40.7473 C   0  0  0  0  0  0  0  0  0  0  0  0
    1.7490   20.2066   38.9836 C   0  0  0  0  0  0  0  0  0  0  0  0
    3.0031   14.4134   39.4372 C   0  0  0  0  0  0  0  0  0  0  0  0
    2.0543   18.9807   39.3957 C   0  0  0  0  0  0  0  0  0  0  0  0
    2.1632   15.0864   41.5193 C   0  0  0  0  0  0  0  0  0  0  0  0
    3.3834   19.9153   36.2506 O   0  0  0  0  0  0  0  0  0  0  0  0
    1.0100   17.3683   42.6736 N   0  0  0  0  0  0  0  0  0  0  0  0
    3.1769   15.6480   39.1275 N   0  0  0  0  0  0  0  0  0  0  0  0
    2.2251   16.3174   40.9900 N   0  0  0  0  0  0  0  0  0  0  0  0
    2.8186   16.4796   39.7818 C   0  0  0  0  0  0  0  0  0  0  0  0
    2.5766   14.0162   40.7264 C   0  0  0  0  0  0  0  0  0  0  0  0
    1.6636   14.8718   42.5581 O   0  0  0  0  0  0  0  0  0  0  0  0
    2.8767   19.7333   37.3214 C   0  0  0  0  0  0  0  0  0  0  0  0
    3.3076   13.5582   38.4913 N   0  0  0  0  0  0  0  0  0  0  0  0
    1.1839   19.7344   41.4836 C   0  0  0  0  0  0  0  0  0  0  0  0
    0.6224   19.6887   42.8405 C   0  0  0  0  0  0  0  0  0  0  0  0
    2.1748   20.7016   38.0108 N   0  0  0  0  0  0  0  0  0  0  0  0
    1.6693   17.4171   41.4024 C   0  0  0  0  0  0  0  0  0  0  0  0
    0.4413   18.3973   43.3324 C   0  0  0  0  0  0  0  0  0  0  0  0
    3.3481   17.6222   38.0152 H   0  0  0  0  0  0  0  0  0  0  0  0
    1.0504   20.7955   39.5961 H   0  0  0  0  0  0  0  0  0  0  0  0
    2.9580   17.5083   39.4182 H   0  0  0  0  0  0  0  0  0  0  0  0
    1.7352   13.3162   40.6166 H   0  0  0  0  0  0  0  0  0  0  0  0
    3.4375   13.5498   41.2276 H   0  0  0  0  0  0  0  0  0  0  0  0
    3.6133   13.8983   37.5685 H   0  0  0  0  0  0  0  0  0  0  0  0
    1.2217   20.7207   40.9979 H   0  0  0  0  0  0  0  0  0  0  0  0
    0.3682   20.5913   43.4157 H   0  0  0  0  0  0  0  0  0  0  0  0
   -0.1540   18.2214   44.2404 H   0  0  0  0  0  0  0  0  0  0  0  0
  1  5  2  0
  2 16  1  0
  2 19  2  0
  3  5  1  0
  4 12  1  0
  5  2  1  0
  6 13  2  0
  7 14  2  0
  8 20  2  0
  9 11  2  0
  9  4  1  0
 10 19  1  0
 10  6  1  0
 11 10  1  0
 12  6  1  0
 14 18  1  0
 14  1  1  0
 15  4  2  3
 16 17  2  0
 17 20  1  0
 18  3  2  0
 19  8  1  0
  1 21  1  0
  3 22  1  0
 11 23  1  0
 12 24  1  0
 12 25  1  0
 15 26  1  0
 16 27  1  0
 17 28  1  0
 20 29  1  0
M  END
>  <mol_id>  (93) 
2026-08-23-6tgu-s0-n100-prep-0095

>  <rmsd_to_ref>  (93) 


$$$$

     RDKit          3D

 36 39  0  0  0  0  0  0  0  0999 V2000
    2.2895   18.2031   39.2528 C   0  0  1  0  0  0  0  0  0  0  0  0
   -0.5009   16.4017   43.9174 N   0  0  0  0  0  0  0  0  0  0  0  0
    0.4701   16.0537   41.7406 C   0  0  0  0  0  0  0  0  0  0  0  0
    0.4687   18.3553   42.5282 C   0  0  0  0  0  0  0  0  0  0  0  0
    2.5414   20.6073   37.2354 O   0  0  0  0  0  0  0  0  0  0  0  0
    4.0828   19.0810   37.1019 C   0  0  0  0  0  0  0  0  0  0  0  0
    0.3910   14.9206   42.1139 O   0  0  0  0  0  0  0  0  0  0  0  0
    4.0819   20.9605   35.6399 O   0  0  0  0  0  0  0  0  0  0  0  0
   -1.0815   17.0209   44.9388 C   0  0  0  0  0  0  0  0  0  0  0  0
    0.9777   18.8681   41.2762 C   0  0  1  0  0  0  0  0  0  0  0  0
    3.5268   20.2844   36.7543 N   0  0  0  0  0  0  0  0  0  0  0  0
   -0.2000   17.0015   42.5857 C   0  0  2  0  0  0  0  0  0  0  0  0
   -1.5957   16.3500   45.9466 N   0  0  0  0  0  0  0  0  0  0  0  0
    1.5006   17.9564   40.3103 C   0  0  2  0  0  0  0  0  0  0  0  0
    0.9993   20.1912   40.8649 C   0  0  0  0  0  0  0  0  0  0  0  0
    2.5052   19.9269   38.6956 C   0  0  1  0  0  0  0  0  0  0  0  0
    1.0696   16.5964   40.5559 O   0  0  0  0  0  0  0  0  0  0  0  0
    1.6783   20.6245   39.7797 C   0  0  0  0  0  0  0  0  0  0  0  0
   -1.2654   18.3829   44.9371 N   0  0  0  0  0  0  0  0  0  0  0  0
    3.3239   18.6292   38.3214 C   0  0  1  0  0  0  0  0  0  0  0  0
    2.0466   17.1421   39.4113 H   0  0  0  0  0  0  0  0  0  0  0  0
   -0.2677   19.0866   42.8925 H   0  0  0  0  0  0  0  0  0  0  0  0
    1.3811   18.2068   43.1246 H   0  0  0  0  0  0  0  0  0  0  0  0
    5.1505   19.2034   37.3361 H   0  0  0  0  0  0  0  0  0  0  0  0
    4.0179   18.3482   36.2841 H   0  0  0  0  0  0  0  0  0  0  0  0
    4.7394   21.6304   35.9543 H   0  0  0  0  0  0  0  0  0  0  0  0
    1.9777   18.9677   41.7235 H   0  0  0  0  0  0  0  0  0  0  0  0
   -1.2054   17.2379   42.2071 H   0  0  0  0  0  0  0  0  0  0  0  0
   -2.0407   16.8538   46.7271 H   0  0  0  0  0  0  0  0  0  0  0  0
   -1.5533   15.3210   45.9553 H   0  0  0  0  0  0  0  0  0  0  0  0
    0.6108   18.1256   39.6859 H   0  0  0  0  0  0  0  0  0  0  0  0
    0.4335   20.9284   41.4533 H   0  0  0  0  0  0  0  0  0  0  0  0
    1.6255   21.7150   39.6460 H   0  0  0  0  0  0  0  0  0  0  0  0
   -1.7180   18.8425   45.7400 H   0  0  0  0  0  0  0  0  0  0  0  0
   -0.9505   18.9441   44.1328 H   0  0  0  0  0  0  0  0  0  0  0  0
    4.0468   17.8026   38.2548 H   0  0  0  0  0  0  0  0  0  0  0  0
  1 14  1  0
  2  9  2  3
  3  7  2  0
  3 12  1  0
  4 12  1  0
 16  5  1  6
  6 20  1  0
  8 11  1  0
  9 13  1  0
 10  4  1  0
 11  6  1  0
 11  5  1  0
 12  2  1  0
 14 17  1  0
 14 10  1  0
 15 10  1  0
 16  1  1  0
 16 18  1  0
 17  3  1  0
 18 15  2  0
 19  9  1  0
 20 16  1  0
 20  1  1  0
  1 21  1  6
  4 22  1  0
  4 23  1  0
  6 24  1  0
  6 25  1  0
  8 26  1  0
 10 27  1  1
 12 28  1  6
 13 29  1  0
 13 30  1  0
 14 31  1  6
 15 32  1  0
 18 33  1  0
 19 34  1  0
 19 35  1  0
 20 36  1  1
M  END
>  <mol_id>  (94) 
2026-08-23-6tgu-s0-n100-prep-0096

>  <rmsd_to_ref>  (94) 


$$$$

     RDKit          3D

 36 38  0  0  0  0  0  0  0  0999 V2000
    1.4800   16.2610   41.4740 C   0  0  0  0  0  0  0  0  0  0  0  0
    0.5170   19.1950   42.2710 C   0  0  0  0  0  0  0  0  0  0  0  0
    1.9330   20.7860   39.3270 C   0  0  0  0  0  0  0  0  0  0  0  0
    2.3560   19.3840   39.1020 C   0  0  0  0  0  0  0  0  0  0  0  0
    0.7270   16.6840   42.6460 C   0  0  2  0  0  0  0  0  0  0  0  0
    1.2870   20.8220   40.6270 C   0  0  0  0  0  0  0  0  0  0  0  0
    3.1950   17.8750   37.6050 O   0  0  0  0  0  0  0  0  0  0  0  0
   -0.0290   20.1750   42.7900 O   0  0  0  0  0  0  0  0  0  0  0  0
    1.5610   14.9470   41.5680 C   0  0  0  0  0  0  0  0  0  0  0  0
    1.2420   19.4070   41.0300 C   0  0  0  0  0  0  0  0  0  0  0  0
    2.8810   16.0650   39.8310 C   0  0  0  0  0  0  0  0  0  0  0  0
    0.4950   15.5440   43.4470 O   0  0  0  0  0  0  0  0  0  0  0  0
   -0.9340   17.8510   43.9030 C   0  0  0  0  0  0  0  0  0  0  0  0
    2.0870   17.0070   40.4790 C   0  0  0  0  0  0  0  0  0  0  0  0
    2.9760   19.0740   37.8680 C   0  0  0  0  0  0  0  0  0  0  0  0
    0.3550   17.9230   43.0900 C   0  0  2  0  0  0  0  0  0  0  0  0
    3.7870   20.1670   36.0850 O   0  0  0  0  0  0  0  0  0  0  0  0
    3.2710   20.0290   37.0500 N   0  0  0  0  0  0  0  0  0  0  0  0
    1.9300   18.4670   40.2540 C   0  0  0  0  0  0  0  0  0  0  0  0
    3.0100   14.7690   40.2280 C   0  0  0  0  0  0  0  0  0  0  0  0
    2.4030   13.9830   41.2290 C   0  0  0  0  0  0  0  0  0  0  0  0
    2.0797   21.6345   38.6425 H   0  0  0  0  0  0  0  0  0  0  0  0
    1.6624   16.7592   43.2199 H   0  0  0  0  0  0  0  0  0  0  0  0
    1.8758   21.4155   41.3419 H   0  0  0  0  0  0  0  0  0  0  0  0
    0.2919   21.2899   40.5972 H   0  0  0  0  0  0  0  0  0  0  0  0
    1.4629   14.7910   42.6525 H   0  0  0  0  0  0  0  0  0  0  0  0
    0.9160   14.7799   40.6927 H   0  0  0  0  0  0  0  0  0  0  0  0
    3.4403   16.3885   38.9408 H   0  0  0  0  0  0  0  0  0  0  0  0
    0.5464   15.7963   44.4029 H   0  0  0  0  0  0  0  0  0  0  0  0
   -0.6920   17.8645   44.9760 H   0  0  0  0  0  0  0  0  0  0  0  0
   -1.5698   18.7150   43.6596 H   0  0  0  0  0  0  0  0  0  0  0  0
   -1.4696   16.9215   43.6596 H   0  0  0  0  0  0  0  0  0  0  0  0
    1.2347   18.1438   43.7124 H   0  0  0  0  0  0  0  0  0  0  0  0
    3.7519   14.2119   39.6371 H   0  0  0  0  0  0  0  0  0  0  0  0
    1.9045   13.0840   40.8375 H   0  0  0  0  0  0  0  0  0  0  0  0
    3.0363   13.5328   42.0077 H   0  0  0  0  0  0  0  0  0  0  0  0
  1  9  1  0
  1  5  1  0
  2  8  2  0
  2 16  1  0
  3  6  1  0
  4  3  2  0
  4 19  1  0
  5 16  1  0
  5 12  1  0
  6 10  1  0
  7 15  2  0
 10  2  1  0
 11 20  2  0
 11 14  1  0
 14  1  2  0
 15  4  1  0
 16 13  1  0
 17 18  2  0
 18 15  1  0
 19 14  1  0
 19 10  2  0
 20 21  1  0
 21  9  1  0
  3 22  1  0
  5 23  1  6
  6 24  1  0
  6 25  1  0
  9 26  1  0
  9 27  1  0
 11 28  1  0
 12 29  1  0
 13 30  1  0
 13 31  1  0
 13 32  1  0
 16 33  1  1
 20 34  1  0
 21 35  1  0
 21 36  1  0
M  END
>  <mol_id>  (95) 
2026-08-23-6tgu-s0-n100-prep-0097

>  <rmsd_to_ref>  (95) 


$$$$

     RDKit          3D

 30 32  0  0  0  0  0  0  0  0999 V2000
    1.8639   16.2264   40.5912 C   0  0  0  0  0  0  0  0  0  0  0  0
    0.7228   17.6582   41.6561 C   0  0  0  0  0  0  0  0  0  0  0  0
    1.2183   15.5698   41.5944 N   0  0  0  0  0  0  0  0  0  0  0  0
    1.6774   17.5296   40.6080 C   0  0  0  0  0  0  0  0  0  0  0  0
    2.0728   18.5143   39.7019 C   0  0  1  0  0  0  0  0  0  0  0  0
   -0.4849   16.1267   43.2275 C   0  0  0  0  0  0  0  0  0  0  0  0
   -0.6734   19.2263   43.0481 C   0  0  0  0  0  0  0  0  0  0  0  0
    2.6692   15.4526   39.9306 C   0  0  0  0  0  0  0  0  0  0  0  0
    3.5760   19.9037   36.6815 O   0  0  0  0  0  0  0  0  0  0  0  0
    2.2909   20.4819   38.5143 C   0  0  0  0  0  0  0  0  0  0  0  0
    3.0371   19.7011   37.7539 C   0  0  0  0  0  0  0  0  0  0  0  0
    0.2793   18.9697   42.0305 N   0  0  0  0  0  0  0  0  0  0  0  0
   -0.7970   19.9000   41.7000 C   0  0  0  0  0  0  0  0  0  0  0  0
    1.8497   19.8671   39.6479 C   0  0  0  0  0  0  0  0  0  0  0  0
    0.5279   16.4255   42.1791 C   0  0  0  0  0  0  0  0  0  0  0  0
    3.1114   18.2059   38.4530 S   0  0  0  0  0  0  0  0  0  0  0  0
    1.2871   14.5680   41.8233 H   0  0  0  0  0  0  0  0  0  0  0  0
    1.1595   18.3402   39.1141 H   0  0  0  0  0  0  0  0  0  0  0  0
   -0.0225   16.2200   44.2213 H   0  0  0  0  0  0  0  0  0  0  0  0
   -1.3201   16.8375   43.1437 H   0  0  0  0  0  0  0  0  0  0  0  0
   -0.8607   15.1018   43.0928 H   0  0  0  0  0  0  0  0  0  0  0  0
   -1.3902   18.4451   43.3412 H   0  0  0  0  0  0  0  0  0  0  0  0
   -0.6259   19.5724   44.0911 H   0  0  0  0  0  0  0  0  0  0  0  0
    3.1712   14.7653   40.6274 H   0  0  0  0  0  0  0  0  0  0  0  0
    2.0966   14.8724   39.1921 H   0  0  0  0  0  0  0  0  0  0  0  0
    3.4224   16.0641   39.4123 H   0  0  0  0  0  0  0  0  0  0  0  0
    2.0497   21.5241   38.2583 H   0  0  0  0  0  0  0  0  0  0  0  0
   -0.5920   20.9753   41.5924 H   0  0  0  0  0  0  0  0  0  0  0  0
   -1.5669   19.9803   40.9186 H   0  0  0  0  0  0  0  0  0  0  0  0
    1.3511   20.4157   40.4605 H   0  0  0  0  0  0  0  0  0  0  0  0
  1  3  1  0
  2 12  1  0
  2 15  2  0
  3 15  1  0
  4  1  2  0
  4  2  1  0
  5  4  1  0
  8  1  1  0
  9 11  2  0
 10 14  2  0
 11 16  1  0
 11 10  1  0
 12  7  1  0
 13 12  1  0
 13  7  1  0
 14  5  1  0
 15  6  1  0
 16  5  1  0
  3 17  1  0
  5 18  1  6
  6 19  1  0
  6 20  1  0
  6 21  1  0
  7 22  1  0
  7 23  1  0
  8 24  1  0
  8 25  1  0
  8 26  1  0
 10 27  1  0
 13 28  1  0
 13 29  1  0
 14 30  1  0
M  END
>  <mol_id>  (96) 
2026-08-23-6tgu-s0-n100-prep-0098

>  <rmsd_to_ref>  (96) 


$$$$

     RDKit          3D

 24 26  0  0  0  0  0  0  0  0999 V2000
    3.8659   19.4491   37.3956 N   0  0  0  0  0  0  0  0  0  0  0  0
    2.7818   17.1690   40.6348 C   0  0  0  0  0  0  0  0  0  0  0  0
   -0.1573   18.6876   42.1730 C   0  0  0  0  0  0  0  0  0  0  0  0
    0.2336   21.4106   39.9560 O   0  0  0  0  0  0  0  0  0  0  0  0
    2.2929   19.2261   39.4027 C   0  0  0  0  0  0  0  0  0  0  0  0
   -1.4986   18.5138   43.9826 C   0  0  0  0  0  0  0  0  0  0  0  0
    3.0675   18.0788   39.6270 C   0  0  0  0  0  0  0  0  0  0  0  0
    2.2169   20.8014   37.5389 O   0  0  0  0  0  0  0  0  0  0  0  0
    0.9175   18.4208   41.3074 C   0  0  0  0  0  0  0  0  0  0  0  0
    1.2233   19.3712   40.4051 C   0  0  0  0  0  0  0  0  0  0  0  0
    1.6905   17.2985   41.4966 C   0  0  0  0  0  0  0  0  0  0  0  0
   -2.1766   19.6398   43.4702 N   0  0  0  0  0  0  0  0  0  0  0  0
    0.1140   20.3952   40.6828 C   0  0  0  0  0  0  0  0  0  0  0  0
    2.7638   19.8748   38.0346 C   0  0  0  0  0  0  0  0  0  0  0  0
   -0.6410   19.8877   41.7955 C   0  0  0  0  0  0  0  0  0  0  0  0
   -0.4966   17.9419   43.2717 N   0  0  0  0  0  0  0  0  0  0  0  0
   -1.7524   20.4017   42.4440 C   0  0  0  0  0  0  0  0  0  0  0  0
    4.3978   18.6479   37.7643 H   0  0  0  0  0  0  0  0  0  0  0  0
    4.1791   19.9240   36.5369 H   0  0  0  0  0  0  0  0  0  0  0  0
    3.4478   16.3027   40.7612 H   0  0  0  0  0  0  0  0  0  0  0  0
   -1.7837   18.0994   44.9608 H   0  0  0  0  0  0  0  0  0  0  0  0
    3.9361   17.8929   38.9782 H   0  0  0  0  0  0  0  0  0  0  0  0
    1.4644   16.5537   42.2739 H   0  0  0  0  0  0  0  0  0  0  0  0
   -2.2412   21.3419   42.1490 H   0  0  0  0  0  0  0  0  0  0  0  0
  1 14  1  0
  2 11  1  0
  3 16  2  0
  4 13  2  0
  5 10  2  0
  7  5  1  0
  7  2  2  0
  8 14  2  0
  9  3  1  0
 10 13  1  0
 10  9  1  0
 11  9  2  0
 12  6  2  0
 13 15  1  0
 14  5  1  0
 15  3  1  0
 15 17  2  0
 16  6  1  0
 17 12  1  0
  1 18  1  0
  1 19  1  0
  2 20  1  0
  6 21  1  0
  7 22  1  0
 11 23  1  0
 17 24  1  0
M  END
>  <mol_id>  (97) 
2026-08-23-6tgu-s0-n100-prep-0099

>  <rmsd_to_ref>  (97) 


$$$$

     RDKit          3D

 25 25  0  0  0  0  0  0  0  0999 V2000
    2.2120   18.9800   40.0810 C   0  0  0  0  0  0  0  0  0  0  0  0
    1.7400   18.1440   41.1890 C   0  0  0  0  0  0  0  0  0  0  0  0
    2.9880   18.5560   38.8870 C   0  0  0  0  0  0  0  0  0  0  0  0
    3.7780   18.8950   36.7790 O   0  0  0  0  0  0  0  0  0  0  0  0
    2.4690   20.5000   37.4440 O   0  0  0  0  0  0  0  0  0  0  0  0
    3.0940   19.4270   37.6820 C   0  0  0  0  0  0  0  0  0  0  0  0
    0.9250   20.8190   41.0150 C   0  0  0  0  0  0  0  0  0  0  0  0
   -0.8240   21.6890   43.2540 O   0  0  0  0  0  0  0  0  0  0  0  0
   -0.8160   17.8020   44.0080 C   0  0  0  0  0  0  0  0  0  0  0  0
    0.7940   18.6540   42.1250 C   0  0  0  0  0  0  0  0  0  0  0  0
   -1.0390   20.5110   42.5270 C   0  0  0  0  0  0  0  0  0  0  0  0
    0.3690   17.8540   43.1760 O   0  0  0  0  0  0  0  0  0  0  0  0
    0.2870   19.9920   41.9340 C   0  0  0  0  0  0  0  0  0  0  0  0
    1.9310   20.3770   40.0950 C   0  0  0  0  0  0  0  0  0  0  0  0
    2.1183   17.1169   41.2986 H   0  0  0  0  0  0  0  0  0  0  0  0
    4.0168   18.3761   39.2323 H   0  0  0  0  0  0  0  0  0  0  0  0
    2.4030   17.7026   38.5134 H   0  0  0  0  0  0  0  0  0  0  0  0
    0.6387   21.8809   40.9931 H   0  0  0  0  0  0  0  0  0  0  0  0
   -0.8603   21.4900   44.2231 H   0  0  0  0  0  0  0  0  0  0  0  0
   -0.5209   17.8149   45.0676 H   0  0  0  0  0  0  0  0  0  0  0  0
   -1.4528   18.6731   43.7940 H   0  0  0  0  0  0  0  0  0  0  0  0
   -1.3740   16.8785   43.7940 H   0  0  0  0  0  0  0  0  0  0  0  0
   -1.4610   19.7455   43.1948 H   0  0  0  0  0  0  0  0  0  0  0  0
   -1.7374   20.7234   41.7042 H   0  0  0  0  0  0  0  0  0  0  0  0
    2.4590   21.0798   39.4338 H   0  0  0  0  0  0  0  0  0  0  0  0
  1 14  1  0
  1  2  2  0
  2 10  1  0
  3  1  1  0
  4  6  2  0
  5  6  1  0
  6  3  1  0
  7 13  1  0
 10 12  1  0
 11  8  1  0
 12  9  1  0
 13 10  2  0
 13 11  1  0
 14  7  2  0
  2 15  1  0
  3 16  1  0
  3 17  1  0
  7 18  1  0
  8 19  1  0
  9 20  1  0
  9 21  1  0
  9 22  1  0
 11 23  1  0
 11 24  1  0
 14 25  1  0
M  CHG  1   5  -1
M  END
>  <mol_id>  (98) 
2026-08-23-6tgu-s0-n100-prep-0100

>  <rmsd_to_ref>  (98) 


$$$$
