6fnk.A
     RDKit          3D

 27 29  0  0  0  0  0  0  0  0999 V2000
    2.9034   16.1161   40.7342 C   0  0  0  0  0  0  0  0  0  0  0  0
    3.3991   14.8730   40.3406 C   0  0  0  0  0  0  0  0  0  0  0  0
    3.2111   13.7637   41.1521 C   0  0  0  0  0  0  0  0  0  0  0  0
    2.5220   13.8922   42.3612 N   0  0  0  0  0  0  0  0  0  0  0  0
    2.0259   15.1442   42.7552 C   0  0  0  0  0  0  0  0  0  0  0  0
    2.2158   16.2597   41.9417 C   0  0  0  0  0  0  0  0  0  0  0  0
    1.7222   17.5068   42.3382 C   0  0  0  0  0  0  0  0  0  0  0  0
    2.0408   18.6212   41.6654 N   0  0  0  0  0  0  0  0  0  0  0  0
    0.9145   17.5957   43.3997 N   0  0  0  0  0  0  0  0  0  0  0  0
    0.4272   18.7780   43.8163 C   0  0  0  0  0  0  0  0  0  0  0  0
   -0.3708   19.1111   44.8422 N   0  0  0  0  0  0  0  0  0  0  0  0
   -0.9468   18.1844   45.8212 C   0  0  0  0  0  0  0  0  0  0  0  0
   -0.5738   20.3259   44.8557 N   0  0  0  0  0  0  0  0  0  0  0  0
    0.0681   20.8526   43.7999 C   0  0  0  0  0  0  0  0  0  0  0  0
    0.7283   19.8866   43.1473 C   0  0  0  0  0  0  0  0  0  0  0  0
    1.5428   19.8079   42.0593 C   0  0  0  0  0  0  0  0  0  0  0  0
    1.8732   20.9182   41.3561 N   0  0  0  0  0  0  0  0  0  0  0  0
    3.0555   16.9924   40.0870 H   0  0  0  0  0  0  0  0  0  0  0  0
    3.9387   14.7724   39.3873 H   0  0  0  0  0  0  0  0  0  0  0  0
    3.6041   12.7836   40.8441 H   0  0  0  0  0  0  0  0  0  0  0  0
    1.4860   15.2454   43.7082 H   0  0  0  0  0  0  0  0  0  0  0  0
   -0.7252   18.5408   46.8380 H   0  0  0  0  0  0  0  0  0  0  0  0
   -2.0365   18.1326   45.6801 H   0  0  0  0  0  0  0  0  0  0  0  0
   -0.5109   17.1844   45.6801 H   0  0  0  0  0  0  0  0  0  0  0  0
    0.0539   21.9149   43.5146 H   0  0  0  0  0  0  0  0  0  0  0  0
    1.5034   21.8366   41.6400 H   0  0  0  0  0  0  0  0  0  0  0  0
    2.4942   20.8437   40.5377 H   0  0  0  0  0  0  0  0  0  0  0  0
  1  2  2  0
  1  6  1  0
  2  3  1  0
  3  4  2  0
  4  5  1  0
  5  6  2  0
  6  7  1  0
  7  8  2  0
  7  9  1  0
  8 16  1  0
  9 10  2  0
 10 11  1  0
 10 15  1  0
 11 12  1  0
 11 13  1  0
 13 14  2  0
 14 15  1  0
 15 16  2  0
 16 17  1  0
  1 18  1  0
  2 19  1  0
  3 20  1  0
  5 21  1  0
 12 22  1  0
 12 23  1  0
 12 24  1  0
 14 25  1  0
 17 26  1  0
 17 27  1  0
M  END
>  <mol_id>  (1) 
2026-09-17-6fnk-s0-n100-0001

>  <rmsd_to_ref>  (1) 
0.0

>  <pose_kind>  (1) 
native

$$$$
6fnk.A
     RDKit          3D

 27 29  0  0  0  0  0  0  0  0999 V2000
    2.7628   17.0036   40.8891 C   0  0  0  0  0  0  0  0  0  0  0  0
    3.4129   15.9615   40.2582 C   0  0  0  0  0  0  0  0  0  0  0  0
    3.2759   14.6988   40.8447 C   0  0  0  0  0  0  0  0  0  0  0  0
    2.5612   14.5156   41.9451 N   0  0  0  0  0  0  0  0  0  0  0  0
    1.9441   15.5398   42.5335 C   0  0  0  0  0  0  0  0  0  0  0  0
    2.0146   16.8190   42.0388 C   0  0  0  0  0  0  0  0  0  0  0  0
    1.3529   17.9625   42.6557 C   0  0  0  0  0  0  0  0  0  0  0  0
    1.4551   19.1999   42.1277 N   0  0  0  0  0  0  0  0  0  0  0  0
    0.6235   17.7854   43.7757 N   0  0  0  0  0  0  0  0  0  0  0  0
   -0.0101   18.8317   44.3812 C   0  0  0  0  0  0  0  0  0  0  0  0
   -0.7840   18.9464   45.4768 N   0  0  0  0  0  0  0  0  0  0  0  0
   -1.1721   17.8560   46.3776 C   0  0  0  0  0  0  0  0  0  0  0  0
   -1.1359   20.2158   45.6024 N   0  0  0  0  0  0  0  0  0  0  0  0
   -0.6188   20.9552   44.6208 C   0  0  0  0  0  0  0  0  0  0  0  0
    0.1053   20.0905   43.8274 C   0  0  0  0  0  0  0  0  0  0  0  0
    0.8535   20.2735   42.6783 C   0  0  0  0  0  0  0  0  0  0  0  0
    0.9974   21.5617   42.0738 N   0  0  0  0  0  0  0  0  0  0  0  0
    2.8463   18.0004   40.4620 H   0  0  0  0  0  0  0  0  0  0  0  0
    3.9980   16.1125   39.3572 H   0  0  0  0  0  0  0  0  0  0  0  0
    3.7987   13.8930   40.3276 H   0  0  0  0  0  0  0  0  0  0  0  0
    1.3762   15.3437   43.4231 H   0  0  0  0  0  0  0  0  0  0  0  0
   -1.3804   18.3202   47.3618 H   0  0  0  0  0  0  0  0  0  0  0  0
   -2.1502   17.4186   46.0597 H   0  0  0  0  0  0  0  0  0  0  0  0
   -0.3976   17.0848   46.4033 H   0  0  0  0  0  0  0  0  0  0  0  0
   -0.7020   22.0169   44.4174 H   0  0  0  0  0  0  0  0  0  0  0  0
    1.9700   21.8949   41.8098 H   0  0  0  0  0  0  0  0  0  0  0  0
    0.1500   22.1513   41.9024 H   0  0  0  0  0  0  0  0  0  0  0  0
  1  2  2  0
  1  6  1  0
  2  3  1  0
  3  4  2  0
  4  5  1  0
  5  6  2  0
  6  7  1  0
  7  8  2  0
  7  9  1  0
  8 16  1  0
  9 10  2  0
 10 11  1  0
 10 15  1  0
 11 12  1  0
 11 13  1  0
 13 14  2  0
 14 15  1  0
 15 16  2  0
 16 17  1  0
  1 18  1  0
  2 19  1  0
  3 20  1  0
  5 21  1  0
 12 22  1  0
 12 23  1  0
 12 24  1  0
 14 25  1  0
 17 26  1  0
 17 27  1  0
M  END
>  <mol_id>  (2) 
2026-09-17-6fnk-s0-n100-0002

>  <rmsd_to_ref>  (2) 
0.5000000000050919

>  <pose_kind>  (2) 
conformer

$$$$
6fnk.A
     RDKit          3D

 27 29  0  0  0  0  0  0  0  0999 V2000
    2.7405   16.1326   40.4080 C   0  0  0  0  0  0  0  0  0  0  0  0
    3.0410   14.8795   39.8739 C   0  0  0  0  0  0  0  0  0  0  0  0
    2.5528   13.7321   40.4819 C   0  0  0  0  0  0  0  0  0  0  0  0
    1.7573   13.8333   41.6265 N   0  0  0  0  0  0  0  0  0  0  0  0
    1.4580   15.0951   42.1624 C   0  0  0  0  0  0  0  0  0  0  0  0
    1.9495   16.2484   41.5536 C   0  0  0  0  0  0  0  0  0  0  0  0
    1.6515   17.5046   42.0914 C   0  0  0  0  0  0  0  0  0  0  0  0
    2.2511   18.6119   41.6329 N   0  0  0  0  0  0  0  0  0  0  0  0
    0.7510   17.6111   43.0737 N   0  0  0  0  0  0  0  0  0  0  0  0
    0.4446   18.8004   43.6217 C   0  0  0  0  0  0  0  0  0  0  0  0
   -0.3968   19.1467   44.6079 N   0  0  0  0  0  0  0  0  0  0  0  0
   -1.2498   18.2322   45.3727 C   0  0  0  0  0  0  0  0  0  0  0  0
   -0.3708   20.3644   44.7912 N   0  0  0  0  0  0  0  0  0  0  0  0
    0.4817   20.8879   43.8947 C   0  0  0  0  0  0  0  0  0  0  0  0
    1.0256   19.9052   43.1644 C   0  0  0  0  0  0  0  0  0  0  0  0
    1.9378   19.8108   42.1583 C   0  0  0  0  0  0  0  0  0  0  0  0
    2.5519   20.9158   41.6703 N   0  0  0  0  0  0  0  0  0  0  0  0
    3.1305   17.0391   39.9221 H   0  0  0  0  0  0  0  0  0  0  0  0
    3.6648   14.8011   38.9713 H   0  0  0  0  0  0  0  0  0  0  0  0
    2.7916   12.7433   40.0633 H   0  0  0  0  0  0  0  0  0  0  0  0
    0.8341   15.1742   43.0649 H   0  0  0  0  0  0  0  0  0  0  0  0
   -1.0917   18.3968   46.4488 H   0  0  0  0  0  0  0  0  0  0  0  0
   -2.3047   18.4206   45.1241 H   0  0  0  0  0  0  0  0  0  0  0  0
   -0.9933   17.1930   45.1192 H   0  0  0  0  0  0  0  0  0  0  0  0
    0.6999   21.9597   43.7781 H   0  0  0  0  0  0  0  0  0  0  0  0
    2.3272   21.8434   42.0578 H   0  0  0  0  0  0  0  0  0  0  0  0
    3.2433   20.8283   40.9119 H   0  0  0  0  0  0  0  0  0  0  0  0
  1  2  2  0
  1  6  1  0
  2  3  1  0
  3  4  2  0
  4  5  1  0
  5  6  2  0
  6  7  1  0
  7  8  2  0
  7  9  1  0
  8 16  1  0
  9 10  2  0
 10 11  1  0
 10 15  1  0
 11 12  1  0
 11 13  1  0
 13 14  2  0
 14 15  1  0
 15 16  2  0
 16 17  1  0
  1 18  1  0
  2 19  1  0
  3 20  1  0
  5 21  1  0
 12 22  1  0
 12 23  1  0
 12 24  1  0
 14 25  1  0
 17 26  1  0
 17 27  1  0
M  END
>  <mol_id>  (3) 
2026-09-17-6fnk-s0-n100-0003

>  <rmsd_to_ref>  (3) 
0.5459183673479185

>  <pose_kind>  (3) 
rigid

$$$$
6fnk.A
     RDKit          3D

 27 29  0  0  0  0  0  0  0  0999 V2000
    3.3720   16.5953   40.7415 C   0  0  0  0  0  0  0  0  0  0  0  0
    3.8690   15.4975   40.0673 C   0  0  0  0  0  0  0  0  0  0  0  0
    3.2960   14.2618   40.3860 C   0  0  0  0  0  0  0  0  0  0  0  0
    2.3297   14.1532   41.2859 N   0  0  0  0  0  0  0  0  0  0  0  0
    1.8688   15.2298   41.9218 C   0  0  0  0  0  0  0  0  0  0  0  0
    2.3626   16.4888   41.6826 C   0  0  0  0  0  0  0  0  0  0  0  0
    1.8828   17.6880   42.3591 C   0  0  0  0  0  0  0  0  0  0  0  0
    2.4037   18.9024   42.0861 N   0  0  0  0  0  0  0  0  0  0  0  0
    0.8998   17.5870   43.2761 N   0  0  0  0  0  0  0  0  0  0  0  0
    0.4250   18.6872   43.9296 C   0  0  0  0  0  0  0  0  0  0  0  0
   -0.5224   18.8796   44.8667 N   0  0  0  0  0  0  0  0  0  0  0  0
   -1.3602   17.8399   45.4734 C   0  0  0  0  0  0  0  0  0  0  0  0
   -0.5685   20.1720   45.1474 N   0  0  0  0  0  0  0  0  0  0  0  0
    0.3221   20.8510   44.4242 C   0  0  0  0  0  0  0  0  0  0  0  0
    0.9693   19.9215   43.6379 C   0  0  0  0  0  0  0  0  0  0  0  0
    1.9781   20.0263   42.6971 C   0  0  0  0  0  0  0  0  0  0  0  0
    2.5680   21.2867   42.3667 N   0  0  0  0  0  0  0  0  0  0  0  0
    3.7930   17.5734   40.5201 H   0  0  0  0  0  0  0  0  0  0  0  0
    4.6604   15.5874   39.3305 H   0  0  0  0  0  0  0  0  0  0  0  0
    3.7058   13.4109   39.8400 H   0  0  0  0  0  0  0  0  0  0  0  0
    1.0851   15.0937   42.6426 H   0  0  0  0  0  0  0  0  0  0  0  0
   -1.6631   18.2213   46.4686 H   0  0  0  0  0  0  0  0  0  0  0  0
   -2.3187   17.7342   44.9083 H   0  0  0  0  0  0  0  0  0  0  0  0
   -0.8266   16.8863   45.5048 H   0  0  0  0  0  0  0  0  0  0  0  0
    0.5519   21.9104   44.3999 H   0  0  0  0  0  0  0  0  0  0  0  0
    3.6264   21.3649   42.3495 H   0  0  0  0  0  0  0  0  0  0  0  0
    1.9536   22.1052   42.1490 H   0  0  0  0  0  0  0  0  0  0  0  0
  1  2  2  0
  1  6  1  0
  2  3  1  0
  3  4  2  0
  4  5  1  0
  5  6  2  0
  6  7  1  0
  7  8  2  0
  7  9  1  0
  8 16  1  0
  9 10  2  0
 10 11  1  0
 10 15  1  0
 11 12  1  0
 11 13  1  0
 13 14  2  0
 14 15  1  0
 15 16  2  0
 16 17  1  0
  1 18  1  0
  2 19  1  0
  3 20  1  0
  5 21  1  0
 12 22  1  0
 12 23  1  0
 12 24  1  0
 14 25  1  0
 17 26  1  0
 17 27  1  0
M  END
>  <mol_id>  (4) 
2026-09-17-6fnk-s0-n100-0004

>  <rmsd_to_ref>  (4) 
0.5918367346950798

>  <pose_kind>  (4) 
conformer

$$$$
6fnk.A
     RDKit          3D

 27 29  0  0  0  0  0  0  0  0999 V2000
    2.5586   16.6001   40.7713 C   0  0  0  0  0  0  0  0  0  0  0  0
    3.0799   15.3693   40.3723 C   0  0  0  0  0  0  0  0  0  0  0  0
    2.9740   14.2680   41.2092 C   0  0  0  0  0  0  0  0  0  0  0  0
    2.3421   14.3922   42.4496 N   0  0  0  0  0  0  0  0  0  0  0  0
    1.8201   15.6319   42.8488 C   0  0  0  0  0  0  0  0  0  0  0  0
    1.9275   16.7395   42.0097 C   0  0  0  0  0  0  0  0  0  0  0  0
    1.4084   17.9745   42.4115 C   0  0  0  0  0  0  0  0  0  0  0  0
    1.6513   19.0879   41.7063 N   0  0  0  0  0  0  0  0  0  0  0  0
    0.6521   18.0523   43.5111 N   0  0  0  0  0  0  0  0  0  0  0  0
    0.1427   19.2230   43.9336 C   0  0  0  0  0  0  0  0  0  0  0  0
   -0.6148   19.5446   44.9933 N   0  0  0  0  0  0  0  0  0  0  0  0
   -1.1063   18.6146   46.0144 C   0  0  0  0  0  0  0  0  0  0  0  0
   -0.8618   20.7513   44.9985 N   0  0  0  0  0  0  0  0  0  0  0  0
   -0.2936   21.2827   43.9035 C   0  0  0  0  0  0  0  0  0  0  0  0
    0.3685   20.3302   43.2332 C   0  0  0  0  0  0  0  0  0  0  0  0
    1.1299   20.2624   42.1067 C   0  0  0  0  0  0  0  0  0  0  0  0
    1.3832   21.3717   41.3707 N   0  0  0  0  0  0  0  0  0  0  0  0
    2.6455   17.4702   40.1038 H   0  0  0  0  0  0  0  0  0  0  0  0
    3.5744   15.2720   39.3945 H   0  0  0  0  0  0  0  0  0  0  0  0
    3.3873   13.2977   40.8968 H   0  0  0  0  0  0  0  0  0  0  0  0
    1.3252   15.7300   43.8263 H   0  0  0  0  0  0  0  0  0  0  0  0
   -0.8475   18.9964   47.0131 H   0  0  0  0  0  0  0  0  0  0  0  0
   -2.1989   18.5209   45.9295 H   0  0  0  0  0  0  0  0  0  0  0  0
   -0.6411   17.6288   45.8668 H   0  0  0  0  0  0  0  0  0  0  0  0
   -0.3615   22.3386   43.6030 H   0  0  0  0  0  0  0  0  0  0  0  0
    0.9941   22.2808   41.6588 H   0  0  0  0  0  0  0  0  0  0  0  0
    1.9647   21.3056   40.5231 H   0  0  0  0  0  0  0  0  0  0  0  0
  1  2  2  0
  1  6  1  0
  2  3  1  0
  3  4  2  0
  4  5  1  0
  5  6  2  0
  6  7  1  0
  7  8  2  0
  7  9  1  0
  8 16  1  0
  9 10  2  0
 10 11  1  0
 10 15  1  0
 11 12  1  0
 11 13  1  0
 13 14  2  0
 14 15  1  0
 15 16  2  0
 16 17  1  0
  1 18  1  0
  2 19  1  0
  3 20  1  0
  5 21  1  0
 12 22  1  0
 12 23  1  0
 12 24  1  0
 14 25  1  0
 17 26  1  0
 17 27  1  0
M  END
>  <mol_id>  (5) 
2026-09-17-6fnk-s0-n100-0005

>  <rmsd_to_ref>  (5) 
0.6377551020451819

>  <pose_kind>  (5) 
rigid

$$$$
6fnk.A
     RDKit          3D

 27 29  0  0  0  0  0  0  0  0999 V2000
    3.3782   15.8371   41.3727 C   0  0  0  0  0  0  0  0  0  0  0  0
    3.8014   14.6140   40.8916 C   0  0  0  0  0  0  0  0  0  0  0  0
    3.0715   13.4962   41.3100 C   0  0  0  0  0  0  0  0  0  0  0  0
    2.0315   13.6078   42.1233 N   0  0  0  0  0  0  0  0  0  0  0  0
    1.6448   14.8013   42.5726 C   0  0  0  0  0  0  0  0  0  0  0  0
    2.2926   15.9605   42.2226 C   0  0  0  0  0  0  0  0  0  0  0  0
    1.8976   17.2822   42.6947 C   0  0  0  0  0  0  0  0  0  0  0  0
    2.5697   18.3902   42.3194 N   0  0  0  0  0  0  0  0  0  0  0  0
    0.8405   17.4052   43.5225 N   0  0  0  0  0  0  0  0  0  0  0  0
    0.4412   18.6257   43.9849 C   0  0  0  0  0  0  0  0  0  0  0  0
   -0.5494   19.0370   44.7985 N   0  0  0  0  0  0  0  0  0  0  0  0
   -1.5425   18.1781   45.4521 C   0  0  0  0  0  0  0  0  0  0  0  0
   -0.4735   20.3537   44.9081 N   0  0  0  0  0  0  0  0  0  0  0  0
    0.5410   20.8359   44.1901 C   0  0  0  0  0  0  0  0  0  0  0  0
    1.1405   19.7484   43.5908 C   0  0  0  0  0  0  0  0  0  0  0  0
    2.2252   19.6234   42.7415 C   0  0  0  0  0  0  0  0  0  0  0  0
    2.9755   20.7621   42.3101 N   0  0  0  0  0  0  0  0  0  0  0  0
    3.9213   16.7292   41.0691 H   0  0  0  0  0  0  0  0  0  0  0  0
    4.6531   14.5236   40.2257 H   0  0  0  0  0  0  0  0  0  0  0  0
    3.4257   12.5426   40.9162 H   0  0  0  0  0  0  0  0  0  0  0  0
    0.7967   14.8429   43.2295 H   0  0  0  0  0  0  0  0  0  0  0  0
   -1.8781   18.7191   46.3588 H   0  0  0  0  0  0  0  0  0  0  0  0
   -2.4595   18.0930   44.8190 H   0  0  0  0  0  0  0  0  0  0  0  0
   -1.1222   17.1890   45.6530 H   0  0  0  0  0  0  0  0  0  0  0  0
    0.8881   21.8539   44.0532 H   0  0  0  0  0  0  0  0  0  0  0  0
    4.0342   20.7313   42.3809 H   0  0  0  0  0  0  0  0  0  0  0  0
    2.4748   21.6007   41.9348 H   0  0  0  0  0  0  0  0  0  0  0  0
  1  2  2  0
  1  6  1  0
  2  3  1  0
  3  4  2  0
  4  5  1  0
  5  6  2  0
  6  7  1  0
  7  8  2  0
  7  9  1  0
  8 16  1  0
  9 10  2  0
 10 11  1  0
 10 15  1  0
 11 12  1  0
 11 13  1  0
 13 14  2  0
 14 15  1  0
 15 16  2  0
 16 17  1  0
  1 18  1  0
  2 19  1  0
  3 20  1  0
  5 21  1  0
 12 22  1  0
 12 23  1  0
 12 24  1  0
 14 25  1  0
 17 26  1  0
 17 27  1  0
M  END
>  <mol_id>  (6) 
2026-09-17-6fnk-s0-n100-0006

>  <rmsd_to_ref>  (6) 
0.6836734693949572

>  <pose_kind>  (6) 
conformer

$$$$
6fnk.A
     RDKit          3D

 27 29  0  0  0  0  0  0  0  0999 V2000
    2.6847   16.1562   40.9481 C   0  0  0  0  0  0  0  0  0  0  0  0
    3.1020   14.9291   40.4323 C   0  0  0  0  0  0  0  0  0  0  0  0
    2.8984   13.7662   41.1607 C   0  0  0  0  0  0  0  0  0  0  0  0
    2.2723   13.8250   42.4089 N   0  0  0  0  0  0  0  0  0  0  0  0
    1.8551   15.0609   42.9257 C   0  0  0  0  0  0  0  0  0  0  0  0
    2.0607   16.2301   42.1958 C   0  0  0  0  0  0  0  0  0  0  0  0
    1.6459   17.4609   42.7147 C   0  0  0  0  0  0  0  0  0  0  0  0
    1.9863   18.6117   42.1182 N   0  0  0  0  0  0  0  0  0  0  0  0
    0.8928   17.4975   43.8185 N   0  0  0  0  0  0  0  0  0  0  0  0
    0.4821   18.6619   44.3520 C   0  0  0  0  0  0  0  0  0  0  0  0
   -0.2513   18.9443   45.4395 N   0  0  0  0  0  0  0  0  0  0  0  0
   -0.8256   17.9664   46.3684 C   0  0  0  0  0  0  0  0  0  0  0  0
   -0.3951   20.1616   45.5602 N   0  0  0  0  0  0  0  0  0  0  0  0
    0.2222   20.7446   44.5195 C   0  0  0  0  0  0  0  0  0  0  0  0
    0.8049   19.8074   43.7598 C   0  0  0  0  0  0  0  0  0  0  0  0
    1.5641   19.7827   42.6300 C   0  0  0  0  0  0  0  0  0  0  0  0
    1.9147   20.9315   42.0024 N   0  0  0  0  0  0  0  0  0  0  0  0
    2.8488   17.0752   40.3664 H   0  0  0  0  0  0  0  0  0  0  0  0
    3.5920   14.8836   39.4485 H   0  0  0  0  0  0  0  0  0  0  0  0
    3.2297   12.7983   40.7563 H   0  0  0  0  0  0  0  0  0  0  0  0
    1.3648   15.1071   43.9093 H   0  0  0  0  0  0  0  0  0  0  0  0
   -0.5410   18.2280   47.3983 H   0  0  0  0  0  0  0  0  0  0  0  0
   -1.9218   17.9742   46.2778 H   0  0  0  0  0  0  0  0  0  0  0  0
   -0.4449   16.9632   46.1264 H   0  0  0  0  0  0  0  0  0  0  0  0
    0.2457   21.8263   44.3211 H   0  0  0  0  0  0  0  0  0  0  0  0
    1.6025   21.8388   42.3769 H   0  0  0  0  0  0  0  0  0  0  0  0
    2.4933   20.8973   41.1510 H   0  0  0  0  0  0  0  0  0  0  0  0
  1  2  2  0
  1  6  1  0
  2  3  1  0
  3  4  2  0
  4  5  1  0
  5  6  2  0
  6  7  1  0
  7  8  2  0
  7  9  1  0
  8 16  1  0
  9 10  2  0
 10 11  1  0
 10 15  1  0
 11 12  1  0
 11 13  1  0
 13 14  2  0
 14 15  1  0
 15 16  2  0
 16 17  1  0
  1 18  1  0
  2 19  1  0
  3 20  1  0
  5 21  1  0
 12 22  1  0
 12 23  1  0
 12 24  1  0
 14 25  1  0
 17 26  1  0
 17 27  1  0
M  END
>  <mol_id>  (7) 
2026-09-17-6fnk-s0-n100-0007

>  <rmsd_to_ref>  (7) 
0.7295918367376566

>  <pose_kind>  (7) 
rigid

$$$$
6fnk.A
     RDKit          3D

 27 29  0  0  0  0  0  0  0  0999 V2000
    3.1307   16.7093   40.7829 C   0  0  0  0  0  0  0  0  0  0  0  0
    3.5241   15.5717   40.1066 C   0  0  0  0  0  0  0  0  0  0  0  0
    3.0050   14.3602   40.5756 C   0  0  0  0  0  0  0  0  0  0  0  0
    2.1812   14.3099   41.6121 N   0  0  0  0  0  0  0  0  0  0  0  0
    1.8180   15.4241   42.2466 C   0  0  0  0  0  0  0  0  0  0  0  0
    2.2704   16.6636   41.8664 C   0  0  0  0  0  0  0  0  0  0  0  0
    1.8943   17.9028   42.5367 C   0  0  0  0  0  0  0  0  0  0  0  0
    2.3684   19.0957   42.1217 N   0  0  0  0  0  0  0  0  0  0  0  0
    1.0566   17.8609   43.5922 N   0  0  0  0  0  0  0  0  0  0  0  0
    0.6821   18.9998   44.2447 C   0  0  0  0  0  0  0  0  0  0  0  0
   -0.1176   19.2518   45.2981 N   0  0  0  0  0  0  0  0  0  0  0  0
   -0.8566   18.2544   46.0792 C   0  0  0  0  0  0  0  0  0  0  0  0
   -0.1230   20.5583   45.5087 N   0  0  0  0  0  0  0  0  0  0  0  0
    0.6514   21.1888   44.6253 C   0  0  0  0  0  0  0  0  0  0  0  0
    1.1767   20.2114   43.8067 C   0  0  0  0  0  0  0  0  0  0  0  0
    2.0363   20.2555   42.7238 C   0  0  0  0  0  0  0  0  0  0  0  0
    2.5704   21.4908   42.2394 N   0  0  0  0  0  0  0  0  0  0  0  0
    3.5138   17.6701   40.4470 H   0  0  0  0  0  0  0  0  0  0  0  0
    4.1986   15.6138   39.2580 H   0  0  0  0  0  0  0  0  0  0  0  0
    3.3308   13.4767   40.0247 H   0  0  0  0  0  0  0  0  0  0  0  0
    1.1487   15.3346   43.0812 H   0  0  0  0  0  0  0  0  0  0  0  0
   -1.0102   18.6935   47.0848 H   0  0  0  0  0  0  0  0  0  0  0  0
   -1.8874   18.1244   45.6677 H   0  0  0  0  0  0  0  0  0  0  0  0
   -0.3234   17.3000   46.0861 H   0  0  0  0  0  0  0  0  0  0  0  0
    0.8742   22.2433   44.5074 H   0  0  0  0  0  0  0  0  0  0  0  0
    3.6148   21.5598   42.0628 H   0  0  0  0  0  0  0  0  0  0  0  0
    1.9301   22.3003   42.0680 H   0  0  0  0  0  0  0  0  0  0  0  0
  1  2  2  0
  1  6  1  0
  2  3  1  0
  3  4  2  0
  4  5  1  0
  5  6  2  0
  6  7  1  0
  7  8  2  0
  7  9  1  0
  8 16  1  0
  9 10  2  0
 10 11  1  0
 10 15  1  0
 11 12  1  0
 11 13  1  0
 13 14  2  0
 14 15  1  0
 15 16  2  0
 16 17  1  0
  1 18  1  0
  2 19  1  0
  3 20  1  0
  5 21  1  0
 12 22  1  0
 12 23  1  0
 12 24  1  0
 14 25  1  0
 17 26  1  0
 17 27  1  0
M  END
>  <mol_id>  (8) 
2026-09-17-6fnk-s0-n100-0008

>  <rmsd_to_ref>  (8) 
0.7755102040834724

>  <pose_kind>  (8) 
conformer

$$$$
6fnk.A
     RDKit          3D

 27 29  0  0  0  0  0  0  0  0999 V2000
    3.0262   16.6430   40.2340 C   0  0  0  0  0  0  0  0  0  0  0  0
    3.5232   15.4902   39.6257 C   0  0  0  0  0  0  0  0  0  0  0  0
    3.3178   14.2518   40.2163 C   0  0  0  0  0  0  0  0  0  0  0  0
    2.6102   14.1603   41.4180 N   0  0  0  0  0  0  0  0  0  0  0  0
    2.1129   15.3218   42.0284 C   0  0  0  0  0  0  0  0  0  0  0  0
    2.3202   16.5667   41.4369 C   0  0  0  0  0  0  0  0  0  0  0  0
    1.8253   17.7228   42.0488 C   0  0  0  0  0  0  0  0  0  0  0  0
    2.1590   18.9398   41.5974 N   0  0  0  0  0  0  0  0  0  0  0  0
    1.0012   17.6205   43.0965 N   0  0  0  0  0  0  0  0  0  0  0  0
    0.5121   18.7092   43.7162 C   0  0  0  0  0  0  0  0  0  0  0  0
   -0.3007   18.8534   44.7739 N   0  0  0  0  0  0  0  0  0  0  0  0
   -0.8959   17.7664   45.5570 C   0  0  0  0  0  0  0  0  0  0  0  0
   -0.4991   20.0464   45.0078 N   0  0  0  0  0  0  0  0  0  0  0  0
    0.1616   20.7539   44.0766 C   0  0  0  0  0  0  0  0  0  0  0  0
    0.8282   19.9199   43.2673 C   0  0  0  0  0  0  0  0  0  0  0  0
    1.6595   20.0372   42.1956 C   0  0  0  0  0  0  0  0  0  0  0  0
    2.0055   21.2556   41.7137 N   0  0  0  0  0  0  0  0  0  0  0  0
    3.1921   17.6224   39.7614 H   0  0  0  0  0  0  0  0  0  0  0  0
    4.0774   15.5630   38.6784 H   0  0  0  0  0  0  0  0  0  0  0  0
    3.7118   13.3424   39.7391 H   0  0  0  0  0  0  0  0  0  0  0  0
    1.5583   15.2498   42.9756 H   0  0  0  0  0  0  0  0  0  0  0  0
   -0.6890   17.9281   46.6252 H   0  0  0  0  0  0  0  0  0  0  0  0
   -1.9834   17.7489   45.3927 H   0  0  0  0  0  0  0  0  0  0  0  0
   -0.4617   16.8064   45.2407 H   0  0  0  0  0  0  0  0  0  0  0  0
    0.1562   21.8506   43.9916 H   0  0  0  0  0  0  0  0  0  0  0  0
    1.6348   22.1087   42.1563 H   0  0  0  0  0  0  0  0  0  0  0  0
    2.6390   21.3287   40.9050 H   0  0  0  0  0  0  0  0  0  0  0  0
  1  2  2  0
  1  6  1  0
  2  3  1  0
  3  4  2  0
  4  5  1  0
  5  6  2  0
  6  7  1  0
  7  8  2  0
  7  9  1  0
  8 16  1  0
  9 10  2  0
 10 11  1  0
 10 15  1  0
 11 12  1  0
 11 13  1  0
 13 14  2  0
 14 15  1  0
 15 16  2  0
 16 17  1  0
  1 18  1  0
  2 19  1  0
  3 20  1  0
  5 21  1  0
 12 22  1  0
 12 23  1  0
 12 24  1  0
 14 25  1  0
 17 26  1  0
 17 27  1  0
M  END
>  <mol_id>  (9) 
2026-09-17-6fnk-s0-n100-0009

>  <rmsd_to_ref>  (9) 
0.8214285714320889

>  <pose_kind>  (9) 
rigid

$$$$
6fnk.A
     RDKit          3D

 27 29  0  0  0  0  0  0  0  0999 V2000
    3.0875   17.0820   40.9008 C   0  0  0  0  0  0  0  0  0  0  0  0
    3.8960   16.0667   40.4295 C   0  0  0  0  0  0  0  0  0  0  0  0
    3.9347   14.8975   41.1966 C   0  0  0  0  0  0  0  0  0  0  0  0
    3.2331   14.7736   42.3137 N   0  0  0  0  0  0  0  0  0  0  0  0
    2.4607   15.7700   42.7456 C   0  0  0  0  0  0  0  0  0  0  0  0
    2.3522   16.9590   42.0670 C   0  0  0  0  0  0  0  0  0  0  0  0
    1.5175   18.0697   42.5096 C   0  0  0  0  0  0  0  0  0  0  0  0
    1.4469   19.2176   41.8042 N   0  0  0  0  0  0  0  0  0  0  0  0
    0.8002   17.9523   43.6451 N   0  0  0  0  0  0  0  0  0  0  0  0
    0.0079   18.9705   44.0907 C   0  0  0  0  0  0  0  0  0  0  0  0
   -0.7958   19.1284   45.1592 N   0  0  0  0  0  0  0  0  0  0  0  0
   -1.0370   18.1364   46.2122 C   0  0  0  0  0  0  0  0  0  0  0  0
   -1.3329   20.3362   45.0965 N   0  0  0  0  0  0  0  0  0  0  0  0
   -0.9110   20.9921   44.0151 C   0  0  0  0  0  0  0  0  0  0  0  0
   -0.0522   20.1375   43.3567 C   0  0  0  0  0  0  0  0  0  0  0  0
    0.6833   20.2590   42.1914 C   0  0  0  0  0  0  0  0  0  0  0  0
    0.6480   21.4517   41.4027 N   0  0  0  0  0  0  0  0  0  0  0  0
    3.0319   18.0067   40.3309 H   0  0  0  0  0  0  0  0  0  0  0  0
    4.4701   16.1691   39.5147 H   0  0  0  0  0  0  0  0  0  0  0  0
    4.5804   14.1111   40.8031 H   0  0  0  0  0  0  0  0  0  0  0  0
    1.9105   15.6243   43.6557 H   0  0  0  0  0  0  0  0  0  0  0  0
   -1.3306   18.7039   47.1174 H   0  0  0  0  0  0  0  0  0  0  0  0
   -1.9337   17.5170   45.9647 H   0  0  0  0  0  0  0  0  0  0  0  0
   -0.1582   17.5009   46.3499 H   0  0  0  0  0  0  0  0  0  0  0  0
   -1.1455   21.9883   43.6572 H   0  0  0  0  0  0  0  0  0  0  0  0
    1.5662   21.8830   41.0900 H   0  0  0  0  0  0  0  0  0  0  0  0
   -0.2732   21.8774   41.1480 H   0  0  0  0  0  0  0  0  0  0  0  0
  1  2  2  0
  1  6  1  0
  2  3  1  0
  3  4  2  0
  4  5  1  0
  5  6  2  0
  6  7  1  0
  7  8  2  0
  7  9  1  0
  8 16  1  0
  9 10  2  0
 10 11  1  0
 10 15  1  0
 11 12  1  0
 11 13  1  0
 13 14  2  0
 14 15  1  0
 15 16  2  0
 16 17  1  0
  1 18  1  0
  2 19  1  0
  3 20  1  0
  5 21  1  0
 12 22  1  0
 12 23  1  0
 12 24  1  0
 14 25  1  0
 17 26  1  0
 17 27  1  0
M  END
>  <mol_id>  (10) 
2026-09-17-6fnk-s0-n100-0010

>  <rmsd_to_ref>  (10) 
0.8673469387773844

>  <pose_kind>  (10) 
conformer

$$$$
6fnk.A
     RDKit          3D

 27 29  0  0  0  0  0  0  0  0999 V2000
    3.1785   16.1793   41.3236 C   0  0  0  0  0  0  0  0  0  0  0  0
    3.6609   14.9526   40.8670 C   0  0  0  0  0  0  0  0  0  0  0  0
    3.1890   13.7724   41.4227 C   0  0  0  0  0  0  0  0  0  0  0  0
    2.2281   13.8138   42.4367 N   0  0  0  0  0  0  0  0  0  0  0  0
    1.7460   15.0491   42.8951 C   0  0  0  0  0  0  0  0  0  0  0  0
    2.2206   16.2355   42.3388 C   0  0  0  0  0  0  0  0  0  0  0  0
    1.7399   17.4655   42.7993 C   0  0  0  0  0  0  0  0  0  0  0  0
    2.3030   18.6171   42.4084 N   0  0  0  0  0  0  0  0  0  0  0  0
    0.6989   17.5013   43.6373 N   0  0  0  0  0  0  0  0  0  0  0  0
    0.2142   18.6641   44.1083 C   0  0  0  0  0  0  0  0  0  0  0  0
   -0.7896   18.9440   44.9534 N   0  0  0  0  0  0  0  0  0  0  0  0
   -1.6641   17.9650   45.6060 C   0  0  0  0  0  0  0  0  0  0  0  0
   -0.8957   20.1609   45.1113 N   0  0  0  0  0  0  0  0  0  0  0  0
    0.0312   20.7491   44.3372 C   0  0  0  0  0  0  0  0  0  0  0  0
    0.7590   19.8115   43.7160 C   0  0  0  0  0  0  0  0  0  0  0  0
    1.8140   19.7885   42.8558 C   0  0  0  0  0  0  0  0  0  0  0  0
    2.3958   20.9389   42.4380 N   0  0  0  0  0  0  0  0  0  0  0  0
    3.5564   17.1121   40.8795 H   0  0  0  0  0  0  0  0  0  0  0  0
    4.4150   14.9212   40.0667 H   0  0  0  0  0  0  0  0  0  0  0  0
    3.5709   12.8047   41.0655 H   0  0  0  0  0  0  0  0  0  0  0  0
    0.9917   15.0813   43.6950 H   0  0  0  0  0  0  0  0  0  0  0  0
   -1.6806   18.1531   46.6897 H   0  0  0  0  0  0  0  0  0  0  0  0
   -2.6832   18.0571   45.2023 H   0  0  0  0  0  0  0  0  0  0  0  0
   -1.2847   16.9502   45.4157 H   0  0  0  0  0  0  0  0  0  0  0  0
    0.1712   21.8349   44.2298 H   0  0  0  0  0  0  0  0  0  0  0  0
    2.0377   21.8465   42.7679 H   0  0  0  0  0  0  0  0  0  0  0  0
    3.1962   20.9055   41.7906 H   0  0  0  0  0  0  0  0  0  0  0  0
  1  2  2  0
  1  6  1  0
  2  3  1  0
  3  4  2  0
  4  5  1  0
  5  6  2  0
  6  7  1  0
  7  8  2  0
  7  9  1  0
  8 16  1  0
  9 10  2  0
 10 11  1  0
 10 15  1  0
 11 12  1  0
 11 13  1  0
 13 14  2  0
 14 15  1  0
 15 16  2  0
 16 17  1  0
  1 18  1  0
  2 19  1  0
  3 20  1  0
  5 21  1  0
 12 22  1  0
 12 23  1  0
 12 24  1  0
 14 25  1  0
 17 26  1  0
 17 27  1  0
M  END
>  <mol_id>  (11) 
2026-09-17-6fnk-s0-n100-0011

>  <rmsd_to_ref>  (11) 
0.9132653061260174

>  <pose_kind>  (11) 
rigid

$$$$
6fnk.A
     RDKit          3D

 27 29  0  0  0  0  0  0  0  0999 V2000
    3.2739   15.7111   41.3297 C   0  0  0  0  0  0  0  0  0  0  0  0
    3.5638   14.4253   40.9187 C   0  0  0  0  0  0  0  0  0  0  0  0
    2.7731   13.4070   41.4619 C   0  0  0  0  0  0  0  0  0  0  0  0
    1.8001   13.6650   42.3234 N   0  0  0  0  0  0  0  0  0  0  0  0
    1.5420   14.9160   42.7030 C   0  0  0  0  0  0  0  0  0  0  0  0
    2.2588   15.9874   42.2294 C   0  0  0  0  0  0  0  0  0  0  0  0
    2.0044   17.3683   42.6223 C   0  0  0  0  0  0  0  0  0  0  0  0
    2.7398   18.3849   42.1260 N   0  0  0  0  0  0  0  0  0  0  0  0
    1.0165   17.6400   43.4984 N   0  0  0  0  0  0  0  0  0  0  0  0
    0.7490   18.9200   43.8897 C   0  0  0  0  0  0  0  0  0  0  0  0
   -0.1505   19.4716   44.7259 N   0  0  0  0  0  0  0  0  0  0  0  0
   -1.1666   18.7499   45.4990 C   0  0  0  0  0  0  0  0  0  0  0  0
    0.0399   20.7812   44.7311 N   0  0  0  0  0  0  0  0  0  0  0  0
    1.0424   21.1223   43.9211 C   0  0  0  0  0  0  0  0  0  0  0  0
    1.5110   19.9475   43.3719 C   0  0  0  0  0  0  0  0  0  0  0  0
    2.5251   19.6699   42.4729 C   0  0  0  0  0  0  0  0  0  0  0  0
    3.3370   20.7063   41.9140 N   0  0  0  0  0  0  0  0  0  0  0  0
    3.8677   16.5294   40.9286 H   0  0  0  0  0  0  0  0  0  0  0  0
    4.3607   14.2149   40.2132 H   0  0  0  0  0  0  0  0  0  0  0  0
    3.0221   12.4009   41.1215 H   0  0  0  0  0  0  0  0  0  0  0  0
    0.7441   15.0769   43.4029 H   0  0  0  0  0  0  0  0  0  0  0  0
   -1.3979   19.3804   46.3802 H   0  0  0  0  0  0  0  0  0  0  0  0
   -2.1263   18.7000   44.9284 H   0  0  0  0  0  0  0  0  0  0  0  0
   -0.8167   17.7449   45.7494 H   0  0  0  0  0  0  0  0  0  0  0  0
    1.4622   22.0944   43.6876 H   0  0  0  0  0  0  0  0  0  0  0  0
    4.3918   20.5891   41.9254 H   0  0  0  0  0  0  0  0  0  0  0  0
    2.8836   21.5565   41.5061 H   0  0  0  0  0  0  0  0  0  0  0  0
  1  2  2  0
  1  6  1  0
  2  3  1  0
  3  4  2  0
  4  5  1  0
  5  6  2  0
  6  7  1  0
  7  8  2  0
  7  9  1  0
  8 16  1  0
  9 10  2  0
 10 11  1  0
 10 15  1  0
 11 12  1  0
 11 13  1  0
 13 14  2  0
 14 15  1  0
 15 16  2  0
 16 17  1  0
  1 18  1  0
  2 19  1  0
  3 20  1  0
  5 21  1  0
 12 22  1  0
 12 23  1  0
 12 24  1  0
 14 25  1  0
 17 26  1  0
 17 27  1  0
M  END
>  <mol_id>  (12) 
2026-09-17-6fnk-s0-n100-0012

>  <rmsd_to_ref>  (12) 
0.9591836734740249

>  <pose_kind>  (12) 
conformer

$$$$
6fnk.A
     RDKit          3D

 27 29  0  0  0  0  0  0  0  0999 V2000
    3.2857   16.0035   41.9268 C   0  0  0  0  0  0  0  0  0  0  0  0
    3.7133   14.6868   41.7563 C   0  0  0  0  0  0  0  0  0  0  0  0
    3.1787   13.6774   42.5435 C   0  0  0  0  0  0  0  0  0  0  0  0
    2.2096   13.9803   43.5039 N   0  0  0  0  0  0  0  0  0  0  0  0
    1.7827   15.3061   43.6742 C   0  0  0  0  0  0  0  0  0  0  0  0
    2.3203   16.3212   42.8853 C   0  0  0  0  0  0  0  0  0  0  0  0
    1.8945   17.6421   43.0589 C   0  0  0  0  0  0  0  0  0  0  0  0
    2.5169   18.6553   42.4407 N   0  0  0  0  0  0  0  0  0  0  0  0
    0.8471   17.9052   43.8469 N   0  0  0  0  0  0  0  0  0  0  0  0
    0.4139   19.1629   44.0452 C   0  0  0  0  0  0  0  0  0  0  0  0
   -0.5846   19.6639   44.7883 N   0  0  0  0  0  0  0  0  0  0  0  0
   -1.5126   18.8899   45.6180 C   0  0  0  0  0  0  0  0  0  0  0  0
   -0.6334   20.8897   44.6773 N   0  0  0  0  0  0  0  0  0  0  0  0
    0.3294   21.2541   43.8145 C   0  0  0  0  0  0  0  0  0  0  0  0
    1.0179   20.1725   43.4261 C   0  0  0  0  0  0  0  0  0  0  0  0
    2.0801   19.9165   42.6141 C   0  0  0  0  0  0  0  0  0  0  0  0
    2.7216   20.9217   41.9702 N   0  0  0  0  0  0  0  0  0  0  0  0
    3.7132   16.8000   41.3000 H   0  0  0  0  0  0  0  0  0  0  0  0
    4.4740   14.4489   40.9981 H   0  0  0  0  0  0  0  0  0  0  0  0
    3.5174   12.6390   42.4120 H   0  0  0  0  0  0  0  0  0  0  0  0
    1.0218   15.5447   44.4321 H   0  0  0  0  0  0  0  0  0  0  0  0
   -1.5322   19.3088   46.6349 H   0  0  0  0  0  0  0  0  0  0  0  0
   -2.5215   18.9378   45.1822 H   0  0  0  0  0  0  0  0  0  0  0  0
   -1.1806   17.8420   45.6594 H   0  0  0  0  0  0  0  0  0  0  0  0
    0.5229   22.2833   43.4782 H   0  0  0  0  0  0  0  0  0  0  0  0
    2.4040   21.8943   42.0885 H   0  0  0  0  0  0  0  0  0  0  0  0
    3.5266   20.7131   41.3625 H   0  0  0  0  0  0  0  0  0  0  0  0
  1  2  2  0
  1  6  1  0
  2  3  1  0
  3  4  2  0
  4  5  1  0
  5  6  2  0
  6  7  1  0
  7  8  2  0
  7  9  1  0
  8 16  1  0
  9 10  2  0
 10 11  1  0
 10 15  1  0
 11 12  1  0
 11 13  1  0
 13 14  2  0
 14 15  1  0
 15 16  2  0
 16 17  1  0
  1 18  1  0
  2 19  1  0
  3 20  1  0
  5 21  1  0
 12 22  1  0
 12 23  1  0
 12 24  1  0
 14 25  1  0
 17 26  1  0
 17 27  1  0
M  END
>  <mol_id>  (13) 
2026-09-17-6fnk-s0-n100-0013

>  <rmsd_to_ref>  (13) 
1.005102040816571

>  <pose_kind>  (13) 
rigid

$$$$
6fnk.A
     RDKit          3D

 27 29  0  0  0  0  0  0  0  0999 V2000
    3.2482   16.1124   41.1796 C   0  0  0  0  0  0  0  0  0  0  0  0
    3.8560   14.9405   40.7749 C   0  0  0  0  0  0  0  0  0  0  0  0
    3.5913   13.8050   41.5480 C   0  0  0  0  0  0  0  0  0  0  0  0
    2.8004   13.8539   42.6099 N   0  0  0  0  0  0  0  0  0  0  0  0
    2.2265   14.9990   42.9780 C   0  0  0  0  0  0  0  0  0  0  0  0
    2.4209   16.1703   42.2879 C   0  0  0  0  0  0  0  0  0  0  0  0
    1.8097   17.4403   42.6616 C   0  0  0  0  0  0  0  0  0  0  0  0
    2.0344   18.5629   41.9477 N   0  0  0  0  0  0  0  0  0  0  0  0
    1.0036   17.4993   43.7406 N   0  0  0  0  0  0  0  0  0  0  0  0
    0.4139   18.6700   44.1209 C   0  0  0  0  0  0  0  0  0  0  0  0
   -0.4137   19.0150   45.1254 N   0  0  0  0  0  0  0  0  0  0  0  0
   -0.9344   18.1174   46.1617 C   0  0  0  0  0  0  0  0  0  0  0  0
   -0.6776   20.3073   45.0170 N   0  0  0  0  0  0  0  0  0  0  0  0
   -0.0496   20.8377   43.9675 C   0  0  0  0  0  0  0  0  0  0  0  0
    0.6547   19.8086   43.3792 C   0  0  0  0  0  0  0  0  0  0  0  0
    1.4818   19.7491   42.2719 C   0  0  0  0  0  0  0  0  0  0  0  0
    1.7563   20.9065   41.4774 N   0  0  0  0  0  0  0  0  0  0  0  0
    3.4305   17.0163   40.6031 H   0  0  0  0  0  0  0  0  0  0  0  0
    4.5035   14.9014   39.9053 H   0  0  0  0  0  0  0  0  0  0  0  0
    4.0831   12.8927   41.2076 H   0  0  0  0  0  0  0  0  0  0  0  0
    1.5936   14.9907   43.8450 H   0  0  0  0  0  0  0  0  0  0  0  0
   -1.1663   18.7520   47.0398 H   0  0  0  0  0  0  0  0  0  0  0  0
   -1.9213   17.6954   45.8504 H   0  0  0  0  0  0  0  0  0  0  0  0
   -0.2219   17.3143   46.3679 H   0  0  0  0  0  0  0  0  0  0  0  0
   -0.0418   21.8535   43.5885 H   0  0  0  0  0  0  0  0  0  0  0  0
    2.7650   21.1287   41.2325 H   0  0  0  0  0  0  0  0  0  0  0  0
    0.9667   21.5111   41.1524 H   0  0  0  0  0  0  0  0  0  0  0  0
  1  2  2  0
  1  6  1  0
  2  3  1  0
  3  4  2  0
  4  5  1  0
  5  6  2  0
  6  7  1  0
  7  8  2  0
  7  9  1  0
  8 16  1  0
  9 10  2  0
 10 11  1  0
 10 15  1  0
 11 12  1  0
 11 13  1  0
 13 14  2  0
 14 15  1  0
 15 16  2  0
 16 17  1  0
  1 18  1  0
  2 19  1  0
  3 20  1  0
  5 21  1  0
 12 22  1  0
 12 23  1  0
 12 24  1  0
 14 25  1  0
 17 26  1  0
 17 27  1  0
M  END
>  <mol_id>  (14) 
2026-09-17-6fnk-s0-n100-0014

>  <rmsd_to_ref>  (14) 
1.051020408166902

>  <pose_kind>  (14) 
conformer

$$$$
6fnk.A
     RDKit          3D

 27 29  0  0  0  0  0  0  0  0999 V2000
    2.8787   16.4016   41.1784 C   0  0  0  0  0  0  0  0  0  0  0  0
    3.3575   15.1326   40.8520 C   0  0  0  0  0  0  0  0  0  0  0  0
    3.0373   14.0447   41.6510 C   0  0  0  0  0  0  0  0  0  0  0  0
    2.2324   14.2208   42.7799 N   0  0  0  0  0  0  0  0  0  0  0  0
    1.7536   15.4986   43.1065 C   0  0  0  0  0  0  0  0  0  0  0  0
    2.0761   16.5925   42.3057 C   0  0  0  0  0  0  0  0  0  0  0  0
    1.5993   17.8654   42.6352 C   0  0  0  0  0  0  0  0  0  0  0  0
    2.0350   18.9550   41.9878 N   0  0  0  0  0  0  0  0  0  0  0  0
    0.6901   18.0047   43.6052 N   0  0  0  0  0  0  0  0  0  0  0  0
    0.2146   19.2129   43.9561 C   0  0  0  0  0  0  0  0  0  0  0  0
   -0.6704   19.5952   44.8892 N   0  0  0  0  0  0  0  0  0  0  0  0
   -1.3855   18.7088   45.8123 C   0  0  0  0  0  0  0  0  0  0  0  0
   -0.8200   20.8177   44.8687 N   0  0  0  0  0  0  0  0  0  0  0  0
   -0.0491   21.3005   43.8803 C   0  0  0  0  0  0  0  0  0  0  0  0
    0.6323   20.2975   43.3107 C   0  0  0  0  0  0  0  0  0  0  0  0
    1.5514   20.1677   42.3148 C   0  0  0  0  0  0  0  0  0  0  0  0
    2.0019   21.2521   41.6385 N   0  0  0  0  0  0  0  0  0  0  0  0
    3.1358   17.2607   40.5415 H   0  0  0  0  0  0  0  0  0  0  0  0
    3.9885   14.9947   39.9616 H   0  0  0  0  0  0  0  0  0  0  0  0
    3.4167   13.0442   41.3962 H   0  0  0  0  0  0  0  0  0  0  0  0
    1.1223   15.6371   43.9967 H   0  0  0  0  0  0  0  0  0  0  0  0
   -1.2556   19.0708   46.8428 H   0  0  0  0  0  0  0  0  0  0  0  0
   -2.4558   18.7015   45.5584 H   0  0  0  0  0  0  0  0  0  0  0  0
   -0.9817   17.6891   45.7281 H   0  0  0  0  0  0  0  0  0  0  0  0
    0.0133   22.3580   43.5840 H   0  0  0  0  0  0  0  0  0  0  0  0
    1.6453   22.1896   41.8723 H   0  0  0  0  0  0  0  0  0  0  0  0
    2.7008   21.1388   40.8904 H   0  0  0  0  0  0  0  0  0  0  0  0
  1  2  2  0
  1  6  1  0
  2  3  1  0
  3  4  2  0
  4  5  1  0
  5  6  2  0
  6  7  1  0
  7  8  2  0
  7  9  1  0
  8 16  1  0
  9 10  2  0
 10 11  1  0
 10 15  1  0
 11 12  1  0
 11 13  1  0
 13 14  2  0
 14 15  1  0
 15 16  2  0
 16 17  1  0
  1 18  1  0
  2 19  1  0
  3 20  1  0
  5 21  1  0
 12 22  1  0
 12 23  1  0
 12 24  1  0
 14 25  1  0
 17 26  1  0
 17 27  1  0
M  END
>  <mol_id>  (15) 
2026-09-17-6fnk-s0-n100-0015

>  <rmsd_to_ref>  (15) 
1.0969387755146776

>  <pose_kind>  (15) 
rigid

$$$$
6fnk.A
     RDKit          3D

 27 29  0  0  0  0  0  0  0  0999 V2000
    2.6314   15.6690   40.8681 C   0  0  0  0  0  0  0  0  0  0  0  0
    2.8495   14.3870   40.4041 C   0  0  0  0  0  0  0  0  0  0  0  0
    2.1453   13.3651   41.0498 C   0  0  0  0  0  0  0  0  0  0  0  0
    1.3152   13.6162   42.0515 N   0  0  0  0  0  0  0  0  0  0  0  0
    1.1236   14.8637   42.4793 C   0  0  0  0  0  0  0  0  0  0  0  0
    1.7655   15.9381   41.9141 C   0  0  0  0  0  0  0  0  0  0  0  0
    1.5803   17.3153   42.3560 C   0  0  0  0  0  0  0  0  0  0  0  0
    2.2368   18.3352   41.7650 N   0  0  0  0  0  0  0  0  0  0  0  0
    0.7377   17.5801   43.3745 N   0  0  0  0  0  0  0  0  0  0  0  0
    0.5386   18.8564   43.8155 C   0  0  0  0  0  0  0  0  0  0  0  0
   -0.2211   19.4012   44.7844 N   0  0  0  0  0  0  0  0  0  0  0  0
   -1.1118   18.6738   45.6946 C   0  0  0  0  0  0  0  0  0  0  0  0
   -0.0258   20.7100   44.7747 N   0  0  0  0  0  0  0  0  0  0  0  0
    0.8440   21.0573   43.8259 C   0  0  0  0  0  0  0  0  0  0  0  0
    1.2184   19.8874   43.1995 C   0  0  0  0  0  0  0  0  0  0  0  0
    2.0832   19.6168   42.1543 C   0  0  0  0  0  0  0  0  0  0  0  0
    2.8060   20.6571   41.4900 N   0  0  0  0  0  0  0  0  0  0  0  0
    3.1614   16.4900   40.3905 H   0  0  0  0  0  0  0  0  0  0  0  0
    3.5293   14.1823   39.5837 H   0  0  0  0  0  0  0  0  0  0  0  0
    2.3350   12.3622   40.6647 H   0  0  0  0  0  0  0  0  0  0  0  0
    0.4418   15.0191   43.2936 H   0  0  0  0  0  0  0  0  0  0  0  0
   -1.2039   19.2950   46.6075 H   0  0  0  0  0  0  0  0  0  0  0  0
   -2.1471   18.6333   45.2756 H   0  0  0  0  0  0  0  0  0  0  0  0
   -0.7328   17.6649   45.8783 H   0  0  0  0  0  0  0  0  0  0  0  0
    1.2282   22.0305   43.5421 H   0  0  0  0  0  0  0  0  0  0  0  0
    3.8500   20.5365   41.3401 H   0  0  0  0  0  0  0  0  0  0  0  0
    2.3001   21.5132   41.1646 H   0  0  0  0  0  0  0  0  0  0  0  0
  1  2  2  0
  1  6  1  0
  2  3  1  0
  3  4  2  0
  4  5  1  0
  5  6  2  0
  6  7  1  0
  7  8  2  0
  7  9  1  0
  8 16  1  0
  9 10  2  0
 10 11  1  0
 10 15  1  0
 11 12  1  0
 11 13  1  0
 13 14  2  0
 14 15  1  0
 15 16  2  0
 16 17  1  0
  1 18  1  0
  2 19  1  0
  3 20  1  0
  5 21  1  0
 12 22  1  0
 12 23  1  0
 12 24  1  0
 14 25  1  0
 17 26  1  0
 17 27  1  0
M  END
>  <mol_id>  (16) 
2026-09-17-6fnk-s0-n100-0016

>  <rmsd_to_ref>  (16) 
1.142857142857452

>  <pose_kind>  (16) 
conformer

$$$$
6fnk.A
     RDKit          3D

 27 29  0  0  0  0  0  0  0  0999 V2000
    2.2698   16.2452   40.7254 C   0  0  0  0  0  0  0  0  0  0  0  0
    2.6370   15.0345   40.1379 C   0  0  0  0  0  0  0  0  0  0  0  0
    2.4335   13.8437   40.8198 C   0  0  0  0  0  0  0  0  0  0  0  0
    1.8575   13.8582   42.0930 N   0  0  0  0  0  0  0  0  0  0  0  0
    1.4906   15.0777   42.6822 C   0  0  0  0  0  0  0  0  0  0  0  0
    1.6963   16.2748   41.9989 C   0  0  0  0  0  0  0  0  0  0  0  0
    1.3317   17.4889   42.5895 C   0  0  0  0  0  0  0  0  0  0  0  0
    1.6767   18.6584   42.0335 N   0  0  0  0  0  0  0  0  0  0  0  0
    0.6227   17.4910   43.7229 N   0  0  0  0  0  0  0  0  0  0  0  0
    0.2612   18.6380   44.3249 C   0  0  0  0  0  0  0  0  0  0  0  0
   -0.4228   18.8857   45.4524 N   0  0  0  0  0  0  0  0  0  0  0  0
   -0.9844   17.8786   46.3576 C   0  0  0  0  0  0  0  0  0  0  0  0
   -0.5324   20.0990   45.6343 N   0  0  0  0  0  0  0  0  0  0  0  0
    0.0584   20.7160   44.5977 C   0  0  0  0  0  0  0  0  0  0  0  0
    0.5887   19.8025   43.7734 C   0  0  0  0  0  0  0  0  0  0  0  0
    1.3030   19.8136   42.6146 C   0  0  0  0  0  0  0  0  0  0  0  0
    1.6570   20.9822   42.0269 N   0  0  0  0  0  0  0  0  0  0  0  0
    2.4336   17.1865   40.1803 H   0  0  0  0  0  0  0  0  0  0  0  0
    3.0875   15.0240   39.1344 H   0  0  0  0  0  0  0  0  0  0  0  0
    2.7254   12.8886   40.3586 H   0  0  0  0  0  0  0  0  0  0  0  0
    1.0397   15.0889   43.6854 H   0  0  0  0  0  0  0  0  0  0  0  0
   -0.6541   18.0855   47.3863 H   0  0  0  0  0  0  0  0  0  0  0  0
   -2.0828   17.9154   46.3108 H   0  0  0  0  0  0  0  0  0  0  0  0
   -0.6377   16.8796   46.0550 H   0  0  0  0  0  0  0  0  0  0  0  0
    0.1006   21.8050   44.4483 H   0  0  0  0  0  0  0  0  0  0  0  0
    1.3815   21.8778   42.4545 H   0  0  0  0  0  0  0  0  0  0  0  0
    2.2014   20.9748   41.1526 H   0  0  0  0  0  0  0  0  0  0  0  0
  1  2  2  0
  1  6  1  0
  2  3  1  0
  3  4  2  0
  4  5  1  0
  5  6  2  0
  6  7  1  0
  7  8  2  0
  7  9  1  0
  8 16  1  0
  9 10  2  0
 10 11  1  0
 10 15  1  0
 11 12  1  0
 11 13  1  0
 13 14  2  0
 14 15  1  0
 15 16  2  0
 16 17  1  0
  1 18  1  0
  2 19  1  0
  3 20  1  0
  5 21  1  0
 12 22  1  0
 12 23  1  0
 12 24  1  0
 14 25  1  0
 17 26  1  0
 17 27  1  0
M  END
>  <mol_id>  (17) 
2026-09-17-6fnk-s0-n100-0017

>  <rmsd_to_ref>  (17) 
1.1887755102068445

>  <pose_kind>  (17) 
rigid

$$$$
6fnk.A
     RDKit          3D

 27 29  0  0  0  0  0  0  0  0999 V2000
    2.9840   16.3325   40.8218 C   0  0  0  0  0  0  0  0  0  0  0  0
    3.3802   15.1980   40.1415 C   0  0  0  0  0  0  0  0  0  0  0  0
    2.9218   13.9779   40.6497 C   0  0  0  0  0  0  0  0  0  0  0  0
    2.1501   13.9168   41.7250 N   0  0  0  0  0  0  0  0  0  0  0  0
    1.7828   15.0280   42.3623 C   0  0  0  0  0  0  0  0  0  0  0  0
    2.1780   16.2755   41.9456 C   0  0  0  0  0  0  0  0  0  0  0  0
    1.7957   17.5116   42.6178 C   0  0  0  0  0  0  0  0  0  0  0  0
    2.2124   18.7128   42.1659 N   0  0  0  0  0  0  0  0  0  0  0  0
    1.0107   17.4590   43.7125 N   0  0  0  0  0  0  0  0  0  0  0  0
    0.6323   18.5949   44.3681 C   0  0  0  0  0  0  0  0  0  0  0  0
   -0.1241   18.8369   45.4552 N   0  0  0  0  0  0  0  0  0  0  0  0
   -0.7938   17.8284   46.2831 C   0  0  0  0  0  0  0  0  0  0  0  0
   -0.1600   20.1454   45.6498 N   0  0  0  0  0  0  0  0  0  0  0  0
    0.5516   20.7868   44.7226 C   0  0  0  0  0  0  0  0  0  0  0  0
    1.0678   19.8148   43.8920 C   0  0  0  0  0  0  0  0  0  0  0  0
    1.8733   19.8701   42.7688 C   0  0  0  0  0  0  0  0  0  0  0  0
    2.3451   21.1143   42.2442 N   0  0  0  0  0  0  0  0  0  0  0  0
    3.3210   17.2997   40.4561 H   0  0  0  0  0  0  0  0  0  0  0  0
    4.0121   15.2489   39.2611 H   0  0  0  0  0  0  0  0  0  0  0  0
    3.2485   13.0972   40.0948 H   0  0  0  0  0  0  0  0  0  0  0  0
    1.1570   14.9298   43.2288 H   0  0  0  0  0  0  0  0  0  0  0  0
   -0.9132   18.2763   47.2893 H   0  0  0  0  0  0  0  0  0  0  0  0
   -1.8385   17.6613   45.9229 H   0  0  0  0  0  0  0  0  0  0  0  0
   -0.2314   16.8908   46.2762 H   0  0  0  0  0  0  0  0  0  0  0  0
    0.7357   21.8460   44.5813 H   0  0  0  0  0  0  0  0  0  0  0  0
    3.3774   21.2126   42.0171 H   0  0  0  0  0  0  0  0  0  0  0  0
    1.6726   21.9014   42.0936 H   0  0  0  0  0  0  0  0  0  0  0  0
  1  2  2  0
  1  6  1  0
  2  3  1  0
  3  4  2  0
  4  5  1  0
  5  6  2  0
  6  7  1  0
  7  8  2  0
  7  9  1  0
  8 16  1  0
  9 10  2  0
 10 11  1  0
 10 15  1  0
 11 12  1  0
 11 13  1  0
 13 14  2  0
 14 15  1  0
 15 16  2  0
 16 17  1  0
  1 18  1  0
  2 19  1  0
  3 20  1  0
  5 21  1  0
 12 22  1  0
 12 23  1  0
 12 24  1  0
 14 25  1  0
 17 26  1  0
 17 27  1  0
M  END
>  <mol_id>  (18) 
2026-09-17-6fnk-s0-n100-0018

>  <rmsd_to_ref>  (18) 
1.2346938775527505

>  <pose_kind>  (18) 
conformer

$$$$
6fnk.A
     RDKit          3D

 27 29  0  0  0  0  0  0  0  0999 V2000
    3.2311   16.6082   41.2222 C   0  0  0  0  0  0  0  0  0  0  0  0
    3.8818   15.4194   40.8915 C   0  0  0  0  0  0  0  0  0  0  0  0
    3.6976   14.2883   41.6732 C   0  0  0  0  0  0  0  0  0  0  0  0
    2.8575   14.3401   42.7889 N   0  0  0  0  0  0  0  0  0  0  0  0
    2.2057   15.5378   43.1200 C   0  0  0  0  0  0  0  0  0  0  0  0
    2.3913   16.6753   42.3365 C   0  0  0  0  0  0  0  0  0  0  0  0
    1.7420   17.8683   42.6704 C   0  0  0  0  0  0  0  0  0  0  0  0
    2.0379   19.0146   42.0423 N   0  0  0  0  0  0  0  0  0  0  0  0
    0.8063   17.8718   43.6251 N   0  0  0  0  0  0  0  0  0  0  0  0
    0.1667   19.0005   43.9796 C   0  0  0  0  0  0  0  0  0  0  0  0
   -0.7773   19.2484   44.9003 N   0  0  0  0  0  0  0  0  0  0  0  0
   -1.3818   18.2623   45.8009 C   0  0  0  0  0  0  0  0  0  0  0  0
   -1.0897   20.4398   44.8896 N   0  0  0  0  0  0  0  0  0  0  0  0
   -0.3744   21.0344   43.9206 C   0  0  0  0  0  0  0  0  0  0  0  0
    0.4453   20.1394   43.3531 C   0  0  0  0  0  0  0  0  0  0  0  0
    1.3900   20.1470   42.3730 C   0  0  0  0  0  0  0  0  0  0  0  0
    1.7016   21.2906   41.7162 N   0  0  0  0  0  0  0  0  0  0  0  0
    3.3809   17.5022   40.5990 H   0  0  0  0  0  0  0  0  0  0  0  0
    4.5403   15.3790   40.0114 H   0  0  0  0  0  0  0  0  0  0  0  0
    4.2125   13.3512   41.4150 H   0  0  0  0  0  0  0  0  0  0  0  0
    1.5467   15.5789   43.9998 H   0  0  0  0  0  0  0  0  0  0  0  0
   -1.3191   18.6253   46.8374 H   0  0  0  0  0  0  0  0  0  0  0  0
   -2.4370   18.1144   45.5274 H   0  0  0  0  0  0  0  0  0  0  0  0
   -0.8431   17.3072   45.7136 H   0  0  0  0  0  0  0  0  0  0  0  0
   -0.4500   22.0944   43.6364 H   0  0  0  0  0  0  0  0  0  0  0  0
    1.2182   22.1687   41.9532 H   0  0  0  0  0  0  0  0  0  0  0  0
    2.4219   21.2818   40.9799 H   0  0  0  0  0  0  0  0  0  0  0  0
  1  2  2  0
  1  6  1  0
  2  3  1  0
  3  4  2  0
  4  5  1  0
  5  6  2  0
  6  7  1  0
  7  8  2  0
  7  9  1  0
  8 16  1  0
  9 10  2  0
 10 11  1  0
 10 15  1  0
 11 12  1  0
 11 13  1  0
 13 14  2  0
 14 15  1  0
 15 16  2  0
 16 17  1  0
  1 18  1  0
  2 19  1  0
  3 20  1  0
  5 21  1  0
 12 22  1  0
 12 23  1  0
 12 24  1  0
 14 25  1  0
 17 26  1  0
 17 27  1  0
M  END
>  <mol_id>  (19) 
2026-09-17-6fnk-s0-n100-0019

>  <rmsd_to_ref>  (19) 
1.2806122448996489

>  <pose_kind>  (19) 
rigid

$$$$
6fnk.A
     RDKit          3D

 27 29  0  0  0  0  0  0  0  0999 V2000
    2.9970   15.9894   40.5262 C   0  0  0  0  0  0  0  0  0  0  0  0
    3.2826   14.7805   39.9232 C   0  0  0  0  0  0  0  0  0  0  0  0
    2.6704   13.6509   40.4766 C   0  0  0  0  0  0  0  0  0  0  0  0
    1.8612   13.7389   41.5221 N   0  0  0  0  0  0  0  0  0  0  0  0
    1.6030   14.9191   42.0846 C   0  0  0  0  0  0  0  0  0  0  0  0
    2.1526   16.0881   41.6185 C   0  0  0  0  0  0  0  0  0  0  0  0
    1.8927   17.3959   42.2086 C   0  0  0  0  0  0  0  0  0  0  0  0
    2.4595   18.5145   41.7107 N   0  0  0  0  0  0  0  0  0  0  0  0
    1.0706   17.4949   43.2725 N   0  0  0  0  0  0  0  0  0  0  0  0
    0.8036   18.7016   43.8515 C   0  0  0  0  0  0  0  0  0  0  0  0
    0.0440   19.0893   44.8934 N   0  0  0  0  0  0  0  0  0  0  0  0
   -0.7644   18.2118   45.7461 C   0  0  0  0  0  0  0  0  0  0  0  0
    0.1522   20.4025   45.0167 N   0  0  0  0  0  0  0  0  0  0  0  0
    0.9635   20.9054   44.0861 C   0  0  0  0  0  0  0  0  0  0  0  0
    1.3920   19.8356   43.3292 C   0  0  0  0  0  0  0  0  0  0  0  0
    2.2356   19.7352   42.2374 C   0  0  0  0  0  0  0  0  0  0  0  0
    2.8646   20.8861   41.6670 N   0  0  0  0  0  0  0  0  0  0  0  0
    3.4547   16.8900   40.1234 H   0  0  0  0  0  0  0  0  0  0  0  0
    3.9454   14.7095   39.0671 H   0  0  0  0  0  0  0  0  0  0  0  0
    2.9120   12.7089   39.9824 H   0  0  0  0  0  0  0  0  0  0  0  0
    0.9413   14.9417   42.9296 H   0  0  0  0  0  0  0  0  0  0  0  0
   -0.8652   18.7271   46.7217 H   0  0  0  0  0  0  0  0  0  0  0  0
   -1.8087   18.1434   45.3542 H   0  0  0  0  0  0  0  0  0  0  0  0
   -0.3137   17.2179   45.8114 H   0  0  0  0  0  0  0  0  0  0  0  0
    1.2727   21.9272   43.8962 H   0  0  0  0  0  0  0  0  0  0  0  0
    3.9083   20.8542   41.4761 H   0  0  0  0  0  0  0  0  0  0  0  0
    2.2924   21.7344   41.4483 H   0  0  0  0  0  0  0  0  0  0  0  0
  1  2  2  0
  1  6  1  0
  2  3  1  0
  3  4  2  0
  4  5  1  0
  5  6  2  0
  6  7  1  0
  7  8  2  0
  7  9  1  0
  8 16  1  0
  9 10  2  0
 10 11  1  0
 10 15  1  0
 11 12  1  0
 11 13  1  0
 13 14  2  0
 14 15  1  0
 15 16  2  0
 16 17  1  0
  1 18  1  0
  2 19  1  0
  3 20  1  0
  5 21  1  0
 12 22  1  0
 12 23  1  0
 12 24  1  0
 14 25  1  0
 17 26  1  0
 17 27  1  0
M  END
>  <mol_id>  (20) 
2026-09-17-6fnk-s0-n100-0020

>  <rmsd_to_ref>  (20) 
1.3265306122467984

>  <pose_kind>  (20) 
conformer

$$$$
6fnk.A
     RDKit          3D

 27 29  0  0  0  0  0  0  0  0999 V2000
    3.2024   16.2082   41.0260 C   0  0  0  0  0  0  0  0  0  0  0  0
    3.6480   14.9829   40.5302 C   0  0  0  0  0  0  0  0  0  0  0  0
    3.3247   13.8082   41.1937 C   0  0  0  0  0  0  0  0  0  0  0  0
    2.5498   13.8538   42.3559 N   0  0  0  0  0  0  0  0  0  0  0  0
    2.1044   15.0879   42.8531 C   0  0  0  0  0  0  0  0  0  0  0  0
    2.4300   16.2688   42.1884 C   0  0  0  0  0  0  0  0  0  0  0  0
    1.9866   17.4977   42.6876 C   0  0  0  0  0  0  0  0  0  0  0  0
    2.4289   18.6528   42.1716 N   0  0  0  0  0  0  0  0  0  0  0  0
    1.1031   17.5287   43.6904 N   0  0  0  0  0  0  0  0  0  0  0  0
    0.6601   18.6907   44.2026 C   0  0  0  0  0  0  0  0  0  0  0  0
   -0.1953   18.9669   45.1986 N   0  0  0  0  0  0  0  0  0  0  0  0
   -0.9064   17.9832   46.0206 C   0  0  0  0  0  0  0  0  0  0  0  0
   -0.3208   20.1845   45.3359 N   0  0  0  0  0  0  0  0  0  0  0  0
    0.4365   20.7752   44.3970 C   0  0  0  0  0  0  0  0  0  0  0  0
    1.0844   19.8408   43.6884 C   0  0  0  0  0  0  0  0  0  0  0  0
    1.9774   19.8225   42.6610 C   0  0  0  0  0  0  0  0  0  0  0  0
    2.4337   20.9759   42.1153 N   0  0  0  0  0  0  0  0  0  0  0  0
    3.4619   17.1365   40.4960 H   0  0  0  0  0  0  0  0  0  0  0  0
    4.2554   14.9479   39.6137 H   0  0  0  0  0  0  0  0  0  0  0  0
    3.6781   12.8416   40.8054 H   0  0  0  0  0  0  0  0  0  0  0  0
    1.4968   15.1236   43.7693 H   0  0  0  0  0  0  0  0  0  0  0  0
   -0.7455   18.2098   47.0849 H   0  0  0  0  0  0  0  0  0  0  0  0
   -1.9822   18.0262   45.7952 H   0  0  0  0  0  0  0  0  0  0  0  0
   -0.5252   16.9756   45.7984 H   0  0  0  0  0  0  0  0  0  0  0  0
    0.5132   21.8605   44.2347 H   0  0  0  0  0  0  0  0  0  0  0  0
    2.1014   21.8823   42.4745 H   0  0  0  0  0  0  0  0  0  0  0  0
    3.1127   20.9462   41.3415 H   0  0  0  0  0  0  0  0  0  0  0  0
  1  2  2  0
  1  6  1  0
  2  3  1  0
  3  4  2  0
  4  5  1  0
  5  6  2  0
  6  7  1  0
  7  8  2  0
  7  9  1  0
  8 16  1  0
  9 10  2  0
 10 11  1  0
 10 15  1  0
 11 12  1  0
 11 13  1  0
 13 14  2  0
 14 15  1  0
 15 16  2  0
 16 17  1  0
  1 18  1  0
  2 19  1  0
  3 20  1  0
  5 21  1  0
 12 22  1  0
 12 23  1  0
 12 24  1  0
 14 25  1  0
 17 26  1  0
 17 27  1  0
M  END
>  <mol_id>  (21) 
2026-09-17-6fnk-s0-n100-0021

>  <rmsd_to_ref>  (21) 
1.3724489795919124

>  <pose_kind>  (21) 
rigid

$$$$
6fnk.A
     RDKit          3D

 27 29  0  0  0  0  0  0  0  0999 V2000
    2.5459   15.7434   41.4660 C   0  0  0  0  0  0  0  0  0  0  0  0
    2.7814   14.4648   41.0007 C   0  0  0  0  0  0  0  0  0  0  0  0
    2.0572   13.4376   41.6150 C   0  0  0  0  0  0  0  0  0  0  0  0
    1.1932   13.6808   42.5896 N   0  0  0  0  0  0  0  0  0  0  0  0
    0.9854   14.9250   43.0193 C   0  0  0  0  0  0  0  0  0  0  0  0
    1.6447   16.0041   42.4838 C   0  0  0  0  0  0  0  0  0  0  0  0
    1.4425   17.3779   42.9286 C   0  0  0  0  0  0  0  0  0  0  0  0
    2.1174   18.4026   42.3675 N   0  0  0  0  0  0  0  0  0  0  0  0
    0.5654   17.6346   43.9197 N   0  0  0  0  0  0  0  0  0  0  0  0
    0.3497   18.9075   44.3626 C   0  0  0  0  0  0  0  0  0  0  0  0
   -0.4432   19.4446   45.3088 N   0  0  0  0  0  0  0  0  0  0  0  0
   -1.3635   18.7100   46.1831 C   0  0  0  0  0  0  0  0  0  0  0  0
   -0.2497   20.7538   45.3149 N   0  0  0  0  0  0  0  0  0  0  0  0
    0.6515   21.1086   44.3987 C   0  0  0  0  0  0  0  0  0  0  0  0
    1.0486   19.9436   43.7772 C   0  0  0  0  0  0  0  0  0  0  0  0
    1.9490   19.6814   42.7603 C   0  0  0  0  0  0  0  0  0  0  0  0
    2.6925   20.7270   42.1281 N   0  0  0  0  0  0  0  0  0  0  0  0
    3.0908   16.5681   41.0125 H   0  0  0  0  0  0  0  0  0  0  0  0
    3.4892   14.2666   40.2027 H   0  0  0  0  0  0  0  0  0  0  0  0
    2.2613   12.4376   41.2296 H   0  0  0  0  0  0  0  0  0  0  0  0
    0.2760   15.0739   43.8110 H   0  0  0  0  0  0  0  0  0  0  0  0
   -1.4874   19.3246   47.0966 H   0  0  0  0  0  0  0  0  0  0  0  0
   -2.3838   18.6711   45.7287 H   0  0  0  0  0  0  0  0  0  0  0  0
   -0.9896   17.7002   46.3725 H   0  0  0  0  0  0  0  0  0  0  0  0
    1.0438   22.0843   44.1348 H   0  0  0  0  0  0  0  0  0  0  0  0
    3.7411   20.6087   42.0131 H   0  0  0  0  0  0  0  0  0  0  0  0
    2.1968   21.5848   41.7917 H   0  0  0  0  0  0  0  0  0  0  0  0
  1  2  2  0
  1  6  1  0
  2  3  1  0
  3  4  2  0
  4  5  1  0
  5  6  2  0
  6  7  1  0
  7  8  2  0
  7  9  1  0
  8 16  1  0
  9 10  2  0
 10 11  1  0
 10 15  1  0
 11 12  1  0
 11 13  1  0
 13 14  2  0
 14 15  1  0
 15 16  2  0
 16 17  1  0
  1 18  1  0
  2 19  1  0
  3 20  1  0
  5 21  1  0
 12 22  1  0
 12 23  1  0
 12 24  1  0
 14 25  1  0
 17 26  1  0
 17 27  1  0
M  END
>  <mol_id>  (22) 
2026-09-17-6fnk-s0-n100-0022

>  <rmsd_to_ref>  (22) 
1.4183673469388873

>  <pose_kind>  (22) 
conformer

$$$$
6fnk.A
     RDKit          3D

 27 29  0  0  0  0  0  0  0  0999 V2000
    3.0802   16.7815   40.8384 C   0  0  0  0  0  0  0  0  0  0  0  0
    3.5417   15.6267   40.2066 C   0  0  0  0  0  0  0  0  0  0  0  0
    3.1570   14.3793   40.6761 C   0  0  0  0  0  0  0  0  0  0  0  0
    2.3045   14.2812   41.7791 N   0  0  0  0  0  0  0  0  0  0  0  0
    1.8431   15.4446   42.4136 C   0  0  0  0  0  0  0  0  0  0  0  0
    2.2304   16.6982   41.9440 C   0  0  0  0  0  0  0  0  0  0  0  0
    1.7708   17.8560   42.5799 C   0  0  0  0  0  0  0  0  0  0  0  0
    2.2637   19.0608   42.2614 N   0  0  0  0  0  0  0  0  0  0  0  0
    0.8206   17.7682   43.5162 N   0  0  0  0  0  0  0  0  0  0  0  0
    0.3596   18.8580   44.1556 C   0  0  0  0  0  0  0  0  0  0  0  0
   -0.5586   19.0132   45.1215 N   0  0  0  0  0  0  0  0  0  0  0  0
   -1.3385   17.9419   45.7485 C   0  0  0  0  0  0  0  0  0  0  0  0
   -0.6762   20.2026   45.4194 N   0  0  0  0  0  0  0  0  0  0  0  0
    0.1524   20.9000   44.6250 C   0  0  0  0  0  0  0  0  0  0  0  0
    0.8344   20.0581   43.8370 C   0  0  0  0  0  0  0  0  0  0  0  0
    1.7959   20.1615   42.8788 C   0  0  0  0  0  0  0  0  0  0  0  0
    2.3048   21.3685   42.5316 N   0  0  0  0  0  0  0  0  0  0  0  0
    3.3886   17.7680   40.4622 H   0  0  0  0  0  0  0  0  0  0  0  0
    4.2105   15.7050   39.3367 H   0  0  0  0  0  0  0  0  0  0  0  0
    3.5229   13.4679   40.1805 H   0  0  0  0  0  0  0  0  0  0  0  0
    1.1742   15.3668   43.2834 H   0  0  0  0  0  0  0  0  0  0  0  0
   -1.2482   18.0146   46.8424 H   0  0  0  0  0  0  0  0  0  0  0  0
   -2.3954   18.0410   45.4604 H   0  0  0  0  0  0  0  0  0  0  0  0
   -0.9569   16.9662   45.4132 H   0  0  0  0  0  0  0  0  0  0  0  0
    0.2552   21.9952   44.6217 H   0  0  0  0  0  0  0  0  0  0  0  0
    1.9612   22.2238   42.9913 H   0  0  0  0  0  0  0  0  0  0  0  0
    3.0352   21.4306   41.8080 H   0  0  0  0  0  0  0  0  0  0  0  0
  1  2  2  0
  1  6  1  0
  2  3  1  0
  3  4  2  0
  4  5  1  0
  5  6  2  0
  6  7  1  0
  7  8  2  0
  7  9  1  0
  8 16  1  0
  9 10  2  0
 10 11  1  0
 10 15  1  0
 11 12  1  0
 11 13  1  0
 13 14  2  0
 14 15  1  0
 15 16  2  0
 16 17  1  0
  1 18  1  0
  2 19  1  0
  3 20  1  0
  5 21  1  0
 12 22  1  0
 12 23  1  0
 12 24  1  0
 14 25  1  0
 17 26  1  0
 17 27  1  0
M  END
>  <mol_id>  (23) 
2026-09-17-6fnk-s0-n100-0023

>  <rmsd_to_ref>  (23) 
1.464285714285791

>  <pose_kind>  (23) 
rigid

$$$$
6fnk.A
     RDKit          3D

 27 29  0  0  0  0  0  0  0  0999 V2000
    3.4583   16.0723   41.7009 C   0  0  0  0  0  0  0  0  0  0  0  0
    4.0757   14.8708   41.4145 C   0  0  0  0  0  0  0  0  0  0  0  0
    3.7186   13.7826   42.2177 C   0  0  0  0  0  0  0  0  0  0  0  0
    2.8360   13.9007   43.1988 N   0  0  0  0  0  0  0  0  0  0  0  0
    2.2552   15.0727   43.4534 C   0  0  0  0  0  0  0  0  0  0  0  0
    2.5355   16.2023   42.7244 C   0  0  0  0  0  0  0  0  0  0  0  0
    1.9196   17.5001   42.9745 C   0  0  0  0  0  0  0  0  0  0  0  0
    2.2313   18.5793   42.2272 N   0  0  0  0  0  0  0  0  0  0  0  0
    1.0206   17.6295   43.9707 N   0  0  0  0  0  0  0  0  0  0  0  0
    0.4235   18.8282   44.2346 C   0  0  0  0  0  0  0  0  0  0  0  0
   -0.4842   19.2394   45.1400 N   0  0  0  0  0  0  0  0  0  0  0  0
   -1.1152   18.4068   46.1693 C   0  0  0  0  0  0  0  0  0  0  0  0
   -0.7103   20.5281   44.9414 N   0  0  0  0  0  0  0  0  0  0  0  0
    0.0210   20.9917   43.9277 C   0  0  0  0  0  0  0  0  0  0  0  0
    0.7542   19.9216   43.4602 C   0  0  0  0  0  0  0  0  0  0  0  0
    1.6766   19.7900   42.4377 C   0  0  0  0  0  0  0  0  0  0  0  0
    2.0459   20.8987   41.6130 N   0  0  0  0  0  0  0  0  0  0  0  0
    3.7108   16.9411   41.0975 H   0  0  0  0  0  0  0  0  0  0  0  0
    4.7984   14.7750   40.6109 H   0  0  0  0  0  0  0  0  0  0  0  0
    4.2201   12.8456   41.9713 H   0  0  0  0  0  0  0  0  0  0  0  0
    1.5463   15.1208   44.2580 H   0  0  0  0  0  0  0  0  0  0  0  0
   -1.4123   19.0910   46.9885 H   0  0  0  0  0  0  0  0  0  0  0  0
   -2.0785   17.9848   45.7912 H   0  0  0  0  0  0  0  0  0  0  0  0
   -0.4412   17.6045   46.4809 H   0  0  0  0  0  0  0  0  0  0  0  0
    0.0842   21.9856   43.4990 H   0  0  0  0  0  0  0  0  0  0  0  0
    3.0770   21.0913   41.4503 H   0  0  0  0  0  0  0  0  0  0  0  0
    1.3017   21.4977   41.1864 H   0  0  0  0  0  0  0  0  0  0  0  0
  1  2  2  0
  1  6  1  0
  2  3  1  0
  3  4  2  0
  4  5  1  0
  5  6  2  0
  6  7  1  0
  7  8  2  0
  7  9  1  0
  8 16  1  0
  9 10  2  0
 10 11  1  0
 10 15  1  0
 11 12  1  0
 11 13  1  0
 13 14  2  0
 14 15  1  0
 15 16  2  0
 16 17  1  0
  1 18  1  0
  2 19  1  0
  3 20  1  0
  5 21  1  0
 12 22  1  0
 12 23  1  0
 12 24  1  0
 14 25  1  0
 17 26  1  0
 17 27  1  0
M  END
>  <mol_id>  (24) 
2026-09-17-6fnk-s0-n100-0024

>  <rmsd_to_ref>  (24) 
1.5102040816381597

>  <pose_kind>  (24) 
conformer

$$$$
6fnk.A
     RDKit          3D

 27 29  0  0  0  0  0  0  0  0999 V2000
    3.3570   16.4859   41.3026 C   0  0  0  0  0  0  0  0  0  0  0  0
    3.6248   15.2127   40.7994 C   0  0  0  0  0  0  0  0  0  0  0  0
    2.8991   14.1213   41.2542 C   0  0  0  0  0  0  0  0  0  0  0  0
    1.8979   14.2994   42.2129 N   0  0  0  0  0  0  0  0  0  0  0  0
    1.6319   15.5811   42.7184 C   0  0  0  0  0  0  0  0  0  0  0  0
    2.3617   16.6779   42.2638 C   0  0  0  0  0  0  0  0  0  0  0  0
    2.0958   17.9538   42.7712 C   0  0  0  0  0  0  0  0  0  0  0  0
    2.8942   18.9911   42.4841 N   0  0  0  0  0  0  0  0  0  0  0  0
    1.0271   18.1508   43.5498 N   0  0  0  0  0  0  0  0  0  0  0  0
    0.7438   19.3612   44.0632 C   0  0  0  0  0  0  0  0  0  0  0  0
   -0.2423   19.7895   44.8660 N   0  0  0  0  0  0  0  0  0  0  0  0
   -1.3301   18.9691   45.4068 C   0  0  0  0  0  0  0  0  0  0  0  0
   -0.1234   20.9945   45.0921 N   0  0  0  0  0  0  0  0  0  0  0  0
    0.9489   21.4279   44.4091 C   0  0  0  0  0  0  0  0  0  0  0  0
    1.5236   20.3980   43.7735 C   0  0  0  0  0  0  0  0  0  0  0  0
    2.6100   20.2120   42.9744 C   0  0  0  0  0  0  0  0  0  0  0  0
    3.4284   21.2457   42.6615 N   0  0  0  0  0  0  0  0  0  0  0  0
    3.9357   17.3477   40.9387 H   0  0  0  0  0  0  0  0  0  0  0  0
    4.4110   15.0742   40.0427 H   0  0  0  0  0  0  0  0  0  0  0  0
    3.1114   13.1165   40.8603 H   0  0  0  0  0  0  0  0  0  0  0  0
    0.8458   15.7203   43.4751 H   0  0  0  0  0  0  0  0  0  0  0  0
   -1.3830   19.1031   46.4973 H   0  0  0  0  0  0  0  0  0  0  0  0
   -2.2831   19.2782   44.9527 H   0  0  0  0  0  0  0  0  0  0  0  0
   -1.1404   17.9104   45.1762 H   0  0  0  0  0  0  0  0  0  0  0  0
    1.3015   22.4694   44.3767 H   0  0  0  0  0  0  0  0  0  0  0  0
    3.2296   22.1885   43.0258 H   0  0  0  0  0  0  0  0  0  0  0  0
    4.2493   21.0888   42.0594 H   0  0  0  0  0  0  0  0  0  0  0  0
  1  2  2  0
  1  6  1  0
  2  3  1  0
  3  4  2  0
  4  5  1  0
  5  6  2  0
  6  7  1  0
  7  8  2  0
  7  9  1  0
  8 16  1  0
  9 10  2  0
 10 11  1  0
 10 15  1  0
 11 12  1  0
 11 13  1  0
 13 14  2  0
 14 15  1  0
 15 16  2  0
 16 17  1  0
  1 18  1  0
  2 19  1  0
  3 20  1  0
  5 21  1  0
 12 22  1  0
 12 23  1  0
 12 24  1  0
 14 25  1  0
 17 26  1  0
 17 27  1  0
M  END
>  <mol_id>  (25) 
2026-09-17-6fnk-s0-n100-0025

>  <rmsd_to_ref>  (25) 
1.55612244898173

>  <pose_kind>  (25) 
rigid

$$$$
6fnk.A
     RDKit          3D

 27 29  0  0  0  0  0  0  0  0999 V2000
    3.2565   15.6818   41.6882 C   0  0  0  0  0  0  0  0  0  0  0  0
    3.6042   14.4386   41.1980 C   0  0  0  0  0  0  0  0  0  0  0  0
    2.7556   13.3789   41.5355 C   0  0  0  0  0  0  0  0  0  0  0  0
    1.6781   13.5607   42.2847 N   0  0  0  0  0  0  0  0  0  0  0  0
    1.3662   14.7718   42.7447 C   0  0  0  0  0  0  0  0  0  0  0  0
    2.1322   15.8783   42.4714 C   0  0  0  0  0  0  0  0  0  0  0  0
    1.8214   17.2175   42.9574 C   0  0  0  0  0  0  0  0  0  0  0  0
    2.6091   18.2715   42.6588 N   0  0  0  0  0  0  0  0  0  0  0  0
    0.7270   17.4117   43.7202 N   0  0  0  0  0  0  0  0  0  0  0  0
    0.4040   18.6506   44.1933 C   0  0  0  0  0  0  0  0  0  0  0  0
   -0.5990   19.1265   44.9550 N   0  0  0  0  0  0  0  0  0  0  0  0
   -1.7024   18.3416   45.5184 C   0  0  0  0  0  0  0  0  0  0  0  0
   -0.4181   20.4284   45.1087 N   0  0  0  0  0  0  0  0  0  0  0  0
    0.6787   20.8380   44.4710 C   0  0  0  0  0  0  0  0  0  0  0  0
    1.2209   19.7174   43.8781 C   0  0  0  0  0  0  0  0  0  0  0  0
    2.3442   19.5193   43.0954 C   0  0  0  0  0  0  0  0  0  0  0  0
    3.2156   20.5986   42.7468 N   0  0  0  0  0  0  0  0  0  0  0  0
    3.8925   16.5302   41.4465 H   0  0  0  0  0  0  0  0  0  0  0  0
    4.4868   14.2908   40.5846 H   0  0  0  0  0  0  0  0  0  0  0  0
    3.0521   12.4080   41.1362 H   0  0  0  0  0  0  0  0  0  0  0  0
    0.4837   14.8710   43.3478 H   0  0  0  0  0  0  0  0  0  0  0  0
   -2.0491   18.8873   46.4181 H   0  0  0  0  0  0  0  0  0  0  0  0
   -2.5799   18.3524   44.8265 H   0  0  0  0  0  0  0  0  0  0  0  0
   -1.3822   17.3150   45.7154 H   0  0  0  0  0  0  0  0  0  0  0  0
    1.1197   21.8249   44.3870 H   0  0  0  0  0  0  0  0  0  0  0  0
    4.2609   20.4738   42.8832 H   0  0  0  0  0  0  0  0  0  0  0  0
    2.8140   21.4866   42.3661 H   0  0  0  0  0  0  0  0  0  0  0  0
  1  2  2  0
  1  6  1  0
  2  3  1  0
  3  4  2  0
  4  5  1  0
  5  6  2  0
  6  7  1  0
  7  8  2  0
  7  9  1  0
  8 16  1  0
  9 10  2  0
 10 11  1  0
 10 15  1  0
 11 12  1  0
 11 13  1  0
 13 14  2  0
 14 15  1  0
 15 16  2  0
 16 17  1  0
  1 18  1  0
  2 19  1  0
  3 20  1  0
  5 21  1  0
 12 22  1  0
 12 23  1  0
 12 24  1  0
 14 25  1  0
 17 26  1  0
 17 27  1  0
M  END
>  <mol_id>  (26) 
2026-09-17-6fnk-s0-n100-0026

>  <rmsd_to_ref>  (26) 
1.6020408163276607

>  <pose_kind>  (26) 
conformer

$$$$
6fnk.A
     RDKit          3D

 27 29  0  0  0  0  0  0  0  0999 V2000
    2.9332   15.5341   41.2862 C   0  0  0  0  0  0  0  0  0  0  0  0
    3.1853   14.1783   41.0765 C   0  0  0  0  0  0  0  0  0  0  0  0
    2.6102   13.2298   41.9096 C   0  0  0  0  0  0  0  0  0  0  0  0
    1.7759   13.6336   42.9556 N   0  0  0  0  0  0  0  0  0  0  0  0
    1.5254   14.9982   43.1650 C   0  0  0  0  0  0  0  0  0  0  0  0
    2.1041   15.9521   42.3300 C   0  0  0  0  0  0  0  0  0  0  0  0
    1.8544   17.3117   42.5426 C   0  0  0  0  0  0  0  0  0  0  0  0
    2.5323   18.2518   41.8697 N   0  0  0  0  0  0  0  0  0  0  0  0
    0.9222   17.6869   43.4242 N   0  0  0  0  0  0  0  0  0  0  0  0
    0.6601   18.9845   43.6621 C   0  0  0  0  0  0  0  0  0  0  0  0
   -0.2000   19.5908   44.4945 N   0  0  0  0  0  0  0  0  0  0  0  0
   -1.1325   18.9215   45.4064 C   0  0  0  0  0  0  0  0  0  0  0  0
   -0.1142   20.8150   44.3889 N   0  0  0  0  0  0  0  0  0  0  0  0
    0.8014   21.0736   43.4407 C   0  0  0  0  0  0  0  0  0  0  0  0
    1.3193   19.9231   42.9900 C   0  0  0  0  0  0  0  0  0  0  0  0
    2.2648   19.5534   42.0830 C   0  0  0  0  0  0  0  0  0  0  0  0
    2.9582   20.4837   41.3828 N   0  0  0  0  0  0  0  0  0  0  0  0
    3.3920   16.2820   40.6227 H   0  0  0  0  0  0  0  0  0  0  0  0
    3.8398   13.8615   40.2511 H   0  0  0  0  0  0  0  0  0  0  0  0
    2.8107   12.1605   41.7470 H   0  0  0  0  0  0  0  0  0  0  0  0
    0.8709   15.3158   43.9901 H   0  0  0  0  0  0  0  0  0  0  0  0
   -1.0091   19.3286   46.4208 H   0  0  0  0  0  0  0  0  0  0  0  0
   -2.1644   19.0922   45.0658 H   0  0  0  0  0  0  0  0  0  0  0  0
   -0.9237   17.8416   45.4167 H   0  0  0  0  0  0  0  0  0  0  0  0
    1.0830   22.0767   43.0882 H   0  0  0  0  0  0  0  0  0  0  0  0
    2.7697   21.4855   41.5303 H   0  0  0  0  0  0  0  0  0  0  0  0
    3.6739   20.1890   40.7032 H   0  0  0  0  0  0  0  0  0  0  0  0
  1  2  2  0
  1  6  1  0
  2  3  1  0
  3  4  2  0
  4  5  1  0
  5  6  2  0
  6  7  1  0
  7  8  2  0
  7  9  1  0
  8 16  1  0
  9 10  2  0
 10 11  1  0
 10 15  1  0
 11 12  1  0
 11 13  1  0
 13 14  2  0
 14 15  1  0
 15 16  2  0
 16 17  1  0
  1 18  1  0
  2 19  1  0
  3 20  1  0
  5 21  1  0
 12 22  1  0
 12 23  1  0
 12 24  1  0
 14 25  1  0
 17 26  1  0
 17 27  1  0
M  END
>  <mol_id>  (27) 
2026-09-17-6fnk-s0-n100-0027

>  <rmsd_to_ref>  (27) 
1.64795918367673

>  <pose_kind>  (27) 
rigid

$$$$
6fnk.A
     RDKit          3D

 27 29  0  0  0  0  0  0  0  0999 V2000
    2.4400   15.5946   40.6967 C   0  0  0  0  0  0  0  0  0  0  0  0
    2.6935   14.3788   40.0930 C   0  0  0  0  0  0  0  0  0  0  0  0
    2.1536   13.2505   40.7194 C   0  0  0  0  0  0  0  0  0  0  0  0
    1.4387   13.3457   41.8309 N   0  0  0  0  0  0  0  0  0  0  0  0
    1.2096   14.5323   42.3924 C   0  0  0  0  0  0  0  0  0  0  0  0
    1.6941   15.7009   41.8578 C   0  0  0  0  0  0  0  0  0  0  0  0
    1.4633   17.0156   42.4445 C   0  0  0  0  0  0  0  0  0  0  0  0
    1.9630   18.1334   41.8777 N   0  0  0  0  0  0  0  0  0  0  0  0
    0.7371   17.1220   43.5753 N   0  0  0  0  0  0  0  0  0  0  0  0
    0.5002   18.3355   44.1535 C   0  0  0  0  0  0  0  0  0  0  0  0
   -0.1711   18.7311   45.2515 N   0  0  0  0  0  0  0  0  0  0  0  0
   -0.8845   17.8573   46.1887 C   0  0  0  0  0  0  0  0  0  0  0  0
   -0.0767   20.0481   45.3405 N   0  0  0  0  0  0  0  0  0  0  0  0
    0.6395   20.5459   44.3322 C   0  0  0  0  0  0  0  0  0  0  0  0
    1.0189   19.4684   43.5600 C   0  0  0  0  0  0  0  0  0  0  0  0
    1.7643   19.3605   42.3997 C   0  0  0  0  0  0  0  0  0  0  0  0
    2.3188   20.5102   41.7544 N   0  0  0  0  0  0  0  0  0  0  0  0
    2.8437   16.4945   40.2384 H   0  0  0  0  0  0  0  0  0  0  0  0
    3.2790   14.3018   39.1829 H   0  0  0  0  0  0  0  0  0  0  0  0
    2.3679   12.3029   40.2232 H   0  0  0  0  0  0  0  0  0  0  0  0
    0.6251   14.5607   43.2923 H   0  0  0  0  0  0  0  0  0  0  0  0
   -0.9080   18.3903   47.1597 H   0  0  0  0  0  0  0  0  0  0  0  0
   -1.9580   17.7636   45.8925 H   0  0  0  0  0  0  0  0  0  0  0  0
   -0.4114   16.8725   46.2319 H   0  0  0  0  0  0  0  0  0  0  0  0
    0.9117   21.5687   44.0969 H   0  0  0  0  0  0  0  0  0  0  0  0
    3.3419   20.4920   41.4722 H   0  0  0  0  0  0  0  0  0  0  0  0
    1.7138   21.3441   41.5719 H   0  0  0  0  0  0  0  0  0  0  0  0
  1  2  2  0
  1  6  1  0
  2  3  1  0
  3  4  2  0
  4  5  1  0
  5  6  2  0
  6  7  1  0
  7  8  2  0
  7  9  1  0
  8 16  1  0
  9 10  2  0
 10 11  1  0
 10 15  1  0
 11 12  1  0
 11 13  1  0
 13 14  2  0
 14 15  1  0
 15 16  2  0
 16 17  1  0
  1 18  1  0
  2 19  1  0
  3 20  1  0
  5 21  1  0
 12 22  1  0
 12 23  1  0
 12 24  1  0
 14 25  1  0
 17 26  1  0
 17 27  1  0
M  END
>  <mol_id>  (28) 
2026-09-17-6fnk-s0-n100-0028

>  <rmsd_to_ref>  (28) 
1.6938775510225488

>  <pose_kind>  (28) 
conformer

$$$$
6fnk.A
     RDKit          3D

 27 29  0  0  0  0  0  0  0  0999 V2000
    3.4604   16.9576   40.5916 C   0  0  0  0  0  0  0  0  0  0  0  0
    3.9451   15.8387   39.9139 C   0  0  0  0  0  0  0  0  0  0  0  0
    3.6107   14.5653   40.3511 C   0  0  0  0  0  0  0  0  0  0  0  0
    2.7856   14.4051   41.4677 N   0  0  0  0  0  0  0  0  0  0  0  0
    2.3007   15.5323   42.1482 C   0  0  0  0  0  0  0  0  0  0  0  0
    2.6375   16.8121   41.7111 C   0  0  0  0  0  0  0  0  0  0  0  0
    2.1547   17.9337   42.3928 C   0  0  0  0  0  0  0  0  0  0  0  0
    2.6019   19.1634   42.1029 N   0  0  0  0  0  0  0  0  0  0  0  0
    1.2283   17.7856   43.3451 N   0  0  0  0  0  0  0  0  0  0  0  0
    0.7464   18.8392   44.0282 C   0  0  0  0  0  0  0  0  0  0  0  0
   -0.1553   18.9341   45.0172 N   0  0  0  0  0  0  0  0  0  0  0  0
   -0.8868   17.8188   45.6254 C   0  0  0  0  0  0  0  0  0  0  0  0
   -0.3047   20.1091   45.3553 N   0  0  0  0  0  0  0  0  0  0  0  0
    0.4838   20.8577   44.5667 C   0  0  0  0  0  0  0  0  0  0  0  0
    1.1755   20.0636   43.7385 C   0  0  0  0  0  0  0  0  0  0  0  0
    2.1124   20.2283   42.7645 C   0  0  0  0  0  0  0  0  0  0  0  0
    2.5748   21.4616   42.4457 N   0  0  0  0  0  0  0  0  0  0  0  0
    3.7288   17.9650   40.2408 H   0  0  0  0  0  0  0  0  0  0  0  0
    4.5920   15.9661   39.0335 H   0  0  0  0  0  0  0  0  0  0  0  0
    3.9947   13.6823   39.8192 H   0  0  0  0  0  0  0  0  0  0  0  0
    1.6535   15.4056   43.0286 H   0  0  0  0  0  0  0  0  0  0  0  0
   -0.7755   17.8602   46.7190 H   0  0  0  0  0  0  0  0  0  0  0  0
   -1.9523   17.8921   45.3623 H   0  0  0  0  0  0  0  0  0  0  0  0
   -0.4815   16.8671   45.2514 H   0  0  0  0  0  0  0  0  0  0  0  0
    0.5514   21.9552   44.5963 H   0  0  0  0  0  0  0  0  0  0  0  0
    2.2139   22.2904   42.9395 H   0  0  0  0  0  0  0  0  0  0  0  0
    3.2871   21.5701   41.7097 H   0  0  0  0  0  0  0  0  0  0  0  0
  1  2  2  0
  1  6  1  0
  2  3  1  0
  3  4  2  0
  4  5  1  0
  5  6  2  0
  6  7  1  0
  7  8  2  0
  7  9  1  0
  8 16  1  0
  9 10  2  0
 10 11  1  0
 10 15  1  0
 11 12  1  0
 11 13  1  0
 13 14  2  0
 14 15  1  0
 15 16  2  0
 16 17  1  0
  1 18  1  0
  2 19  1  0
  3 20  1  0
  5 21  1  0
 12 22  1  0
 12 23  1  0
 12 24  1  0
 14 25  1  0
 17 26  1  0
 17 27  1  0
M  END
>  <mol_id>  (29) 
2026-09-17-6fnk-s0-n100-0029

>  <rmsd_to_ref>  (29) 
1.739795918372865

>  <pose_kind>  (29) 
rigid

$$$$
6fnk.A
     RDKit          3D

 27 29  0  0  0  0  0  0  0  0999 V2000
    2.5468   15.5856   40.9076 C   0  0  0  0  0  0  0  0  0  0  0  0
    2.8469   14.2977   40.5101 C   0  0  0  0  0  0  0  0  0  0  0  0
    2.4375   13.2718   41.3686 C   0  0  0  0  0  0  0  0  0  0  0  0
    1.7969   13.5247   42.5005 N   0  0  0  0  0  0  0  0  0  0  0  0
    1.5200   14.7778   42.8597 C   0  0  0  0  0  0  0  0  0  0  0  0
    1.8778   15.8564   42.0888 C   0  0  0  0  0  0  0  0  0  0  0  0
    1.5916   17.2397   42.4503 C   0  0  0  0  0  0  0  0  0  0  0  0
    1.9662   18.2636   41.6553 N   0  0  0  0  0  0  0  0  0  0  0  0
    0.9403   17.5063   43.6001 N   0  0  0  0  0  0  0  0  0  0  0  0
    0.6548   18.7883   43.9716 C   0  0  0  0  0  0  0  0  0  0  0  0
    0.0344   19.3361   45.0336 N   0  0  0  0  0  0  0  0  0  0  0  0
   -0.5448   18.6062   46.1661 C   0  0  0  0  0  0  0  0  0  0  0  0
    0.0367   20.6504   44.8799 N   0  0  0  0  0  0  0  0  0  0  0  0
    0.6418   20.9985   43.7440 C   0  0  0  0  0  0  0  0  0  0  0  0
    1.0454   19.8233   43.1465 C   0  0  0  0  0  0  0  0  0  0  0  0
    1.7137   19.5509   41.9663 C   0  0  0  0  0  0  0  0  0  0  0  0
    2.1351   20.5952   41.0844 N   0  0  0  0  0  0  0  0  0  0  0  0
    2.8494   16.4096   40.2656 H   0  0  0  0  0  0  0  0  0  0  0  0
    3.3716   14.0917   39.5830 H   0  0  0  0  0  0  0  0  0  0  0  0
    2.6864   12.2644   41.0321 H   0  0  0  0  0  0  0  0  0  0  0  0
    0.9994   14.9344   43.7853 H   0  0  0  0  0  0  0  0  0  0  0  0
   -0.5400   19.3048   47.0260 H   0  0  0  0  0  0  0  0  0  0  0  0
   -1.6266   18.3954   45.9803 H   0  0  0  0  0  0  0  0  0  0  0  0
    0.0018   17.6763   46.3440 H   0  0  0  0  0  0  0  0  0  0  0  0
    0.8202   21.9759   43.3098 H   0  0  0  0  0  0  0  0  0  0  0  0
    3.1344   20.5877   40.7267 H   0  0  0  0  0  0  0  0  0  0  0  0
    1.4586   21.3437   40.8073 H   0  0  0  0  0  0  0  0  0  0  0  0
  1  2  2  0
  1  6  1  0
  2  3  1  0
  3  4  2  0
  4  5  1  0
  5  6  2  0
  6  7  1  0
  7  8  2  0
  7  9  1  0
  8 16  1  0
  9 10  2  0
 10 11  1  0
 10 15  1  0
 11 12  1  0
 11 13  1  0
 13 14  2  0
 14 15  1  0
 15 16  2  0
 16 17  1  0
  1 18  1  0
  2 19  1  0
  3 20  1  0
  5 21  1  0
 12 22  1  0
 12 23  1  0
 12 24  1  0
 14 25  1  0
 17 26  1  0
 17 27  1  0
M  END
>  <mol_id>  (30) 
2026-09-17-6fnk-s0-n100-0030

>  <rmsd_to_ref>  (30) 
1.7857142857175374

>  <pose_kind>  (30) 
conformer

$$$$
6fnk.A
     RDKit          3D

 27 29  0  0  0  0  0  0  0  0999 V2000
    3.1352   16.5332   41.2120 C   0  0  0  0  0  0  0  0  0  0  0  0
    3.5841   15.3393   40.6470 C   0  0  0  0  0  0  0  0  0  0  0  0
    3.0862   14.1272   41.1023 C   0  0  0  0  0  0  0  0  0  0  0  0
    2.1326   14.1037   42.1238 N   0  0  0  0  0  0  0  0  0  0  0  0
    1.6840   15.3062   42.6911 C   0  0  0  0  0  0  0  0  0  0  0  0
    2.1849   16.5244   42.2359 C   0  0  0  0  0  0  0  0  0  0  0  0
    1.7376   17.7212   42.8049 C   0  0  0  0  0  0  0  0  0  0  0  0
    2.3269   18.8882   42.5108 N   0  0  0  0  0  0  0  0  0  0  0  0
    0.7027   17.7094   43.6512 N   0  0  0  0  0  0  0  0  0  0  0  0
    0.2499   18.8385   44.2248 C   0  0  0  0  0  0  0  0  0  0  0  0
   -0.7417   19.0683   45.0990 N   0  0  0  0  0  0  0  0  0  0  0  0
   -1.6365   18.0580   45.6713 C   0  0  0  0  0  0  0  0  0  0  0  0
   -0.8164   20.2692   45.3625 N   0  0  0  0  0  0  0  0  0  0  0  0
    0.1202   20.8996   44.6348 C   0  0  0  0  0  0  0  0  0  0  0  0
    0.8209   20.0019   43.9290 C   0  0  0  0  0  0  0  0  0  0  0  0
    1.8699   20.0280   43.0617 C   0  0  0  0  0  0  0  0  0  0  0  0
    2.4778   21.1957   42.7404 N   0  0  0  0  0  0  0  0  0  0  0  0
    3.5335   17.4915   40.8474 H   0  0  0  0  0  0  0  0  0  0  0  0
    4.3326   15.3590   39.8412 H   0  0  0  0  0  0  0  0  0  0  0  0
    3.4418   13.1850   40.6596 H   0  0  0  0  0  0  0  0  0  0  0  0
    0.9355   15.2872   43.4968 H   0  0  0  0  0  0  0  0  0  0  0  0
   -1.6420   18.1518   46.7673 H   0  0  0  0  0  0  0  0  0  0  0  0
   -2.6553   18.2095   45.2852 H   0  0  0  0  0  0  0  0  0  0  0  0
   -1.2836   17.0546   45.3909 H   0  0  0  0  0  0  0  0  0  0  0  0
    0.2866   21.9868   44.6206 H   0  0  0  0  0  0  0  0  0  0  0  0
    2.1443   22.0798   43.1504 H   0  0  0  0  0  0  0  0  0  0  0  0
    3.2734   21.1992   42.0862 H   0  0  0  0  0  0  0  0  0  0  0  0
  1  2  2  0
  1  6  1  0
  2  3  1  0
  3  4  2  0
  4  5  1  0
  5  6  2  0
  6  7  1  0
  7  8  2  0
  7  9  1  0
  8 16  1  0
  9 10  2  0
 10 11  1  0
 10 15  1  0
 11 12  1  0
 11 13  1  0
 13 14  2  0
 14 15  1  0
 15 16  2  0
 16 17  1  0
  1 18  1  0
  2 19  1  0
  3 20  1  0
  5 21  1  0
 12 22  1  0
 12 23  1  0
 12 24  1  0
 14 25  1  0
 17 26  1  0
 17 27  1  0
M  END
>  <mol_id>  (31) 
2026-09-17-6fnk-s0-n100-0031

>  <rmsd_to_ref>  (31) 
1.8316326530668439

>  <pose_kind>  (31) 
rigid

$$$$
6fnk.A
     RDKit          3D

 27 29  0  0  0  0  0  0  0  0999 V2000
    2.6624   16.1041   41.2602 C   0  0  0  0  0  0  0  0  0  0  0  0
    2.9870   14.8285   40.8432 C   0  0  0  0  0  0  0  0  0  0  0  0
    2.3373   13.7771   41.4987 C   0  0  0  0  0  0  0  0  0  0  0  0
    1.4589   13.9961   42.4662 N   0  0  0  0  0  0  0  0  0  0  0  0
    1.1644   15.2381   42.8488 C   0  0  0  0  0  0  0  0  0  0  0  0
    1.7458   16.3396   42.2704 C   0  0  0  0  0  0  0  0  0  0  0  0
    1.4477   17.7118   42.6632 C   0  0  0  0  0  0  0  0  0  0  0  0
    2.0484   18.7592   42.0612 N   0  0  0  0  0  0  0  0  0  0  0  0
    0.5554   17.9440   43.6469 N   0  0  0  0  0  0  0  0  0  0  0  0
    0.2511   19.2145   44.0416 C   0  0  0  0  0  0  0  0  0  0  0  0
   -0.5771   19.7305   44.9693 N   0  0  0  0  0  0  0  0  0  0  0  0
   -1.4427   18.9668   45.8742 C   0  0  0  0  0  0  0  0  0  0  0  0
   -0.4761   21.0492   44.9249 N   0  0  0  0  0  0  0  0  0  0  0  0
    0.3971   21.4312   43.9927 C   0  0  0  0  0  0  0  0  0  0  0  0
    0.8748   20.2740   43.4148 C   0  0  0  0  0  0  0  0  0  0  0  0
    1.7907   20.0370   42.4054 C   0  0  0  0  0  0  0  0  0  0  0  0
    2.4583   21.1075   41.7314 N   0  0  0  0  0  0  0  0  0  0  0  0
    3.1475   16.9472   40.7737 H   0  0  0  0  0  0  0  0  0  0  0  0
    3.7063   14.6501   40.0509 H   0  0  0  0  0  0  0  0  0  0  0  0
    2.6110   12.7799   41.1510 H   0  0  0  0  0  0  0  0  0  0  0  0
    0.4469   15.3669   43.6368 H   0  0  0  0  0  0  0  0  0  0  0  0
   -1.6090   19.6057   46.7639 H   0  0  0  0  0  0  0  0  0  0  0  0
   -2.4580   18.8391   45.4250 H   0  0  0  0  0  0  0  0  0  0  0  0
   -0.9986   17.9938   46.1006 H   0  0  0  0  0  0  0  0  0  0  0  0
    0.7197   22.4213   43.6906 H   0  0  0  0  0  0  0  0  0  0  0  0
    3.5125   21.0588   41.6174 H   0  0  0  0  0  0  0  0  0  0  0  0
    1.9032   21.9147   41.3643 H   0  0  0  0  0  0  0  0  0  0  0  0
  1  2  2  0
  1  6  1  0
  2  3  1  0
  3  4  2  0
  4  5  1  0
  5  6  2  0
  6  7  1  0
  7  8  2  0
  7  9  1  0
  8 16  1  0
  9 10  2  0
 10 11  1  0
 10 15  1  0
 11 12  1  0
 11 13  1  0
 13 14  2  0
 14 15  1  0
 15 16  2  0
 16 17  1  0
  1 18  1  0
  2 19  1  0
  3 20  1  0
  5 21  1  0
 12 22  1  0
 12 23  1  0
 12 24  1  0
 14 25  1  0
 17 26  1  0
 17 27  1  0
M  END
>  <mol_id>  (32) 
2026-09-17-6fnk-s0-n100-0032

>  <rmsd_to_ref>  (32) 
1.8775510204085604

>  <pose_kind>  (32) 
conformer

$$$$
6fnk.A
     RDKit          3D

 27 29  0  0  0  0  0  0  0  0999 V2000
    0.3507   15.7728   41.9014 C   0  0  0  0  0  0  0  0  0  0  0  0
    0.0818   14.4165   41.7164 C   0  0  0  0  0  0  0  0  0  0  0  0
   -0.2642   13.6245   42.8015 C   0  0  0  0  0  0  0  0  0  0  0  0
   -0.3467   14.1873   44.0781 N   0  0  0  0  0  0  0  0  0  0  0  0
   -0.0744   15.5515   44.2614 C   0  0  0  0  0  0  0  0  0  0  0  0
    0.2753   16.3477   43.1723 C   0  0  0  0  0  0  0  0  0  0  0  0
    0.5485   17.7067   43.3585 C   0  0  0  0  0  0  0  0  0  0  0  0
    1.0544   18.4515   42.3659 N   0  0  0  0  0  0  0  0  0  0  0  0
    0.2979   18.2799   44.5399 N   0  0  0  0  0  0  0  0  0  0  0  0
    0.5554   19.5815   44.7595 C   0  0  0  0  0  0  0  0  0  0  0  0
    0.4059   20.3580   45.8434 N   0  0  0  0  0  0  0  0  0  0  0  0
   -0.1223   19.9307   47.1424 C   0  0  0  0  0  0  0  0  0  0  0  0
    0.7688   21.5103   45.6036 N   0  0  0  0  0  0  0  0  0  0  0  0
    1.1508   21.5520   44.3166 C   0  0  0  0  0  0  0  0  0  0  0  0
    1.0457   20.3304   43.7765 C   0  0  0  0  0  0  0  0  0  0  0  0
    1.2969   19.7602   42.5661 C   0  0  0  0  0  0  0  0  0  0  0  0
    1.7999   20.4929   41.5431 N   0  0  0  0  0  0  0  0  0  0  0  0
    0.6248   16.3961   41.0375 H   0  0  0  0  0  0  0  0  0  0  0  0
    0.1443   13.9754   40.7107 H   0  0  0  0  0  0  0  0  0  0  0  0
   -0.4735   12.5543   42.6572 H   0  0  0  0  0  0  0  0  0  0  0  0
   -0.1368   15.9934   45.2668 H   0  0  0  0  0  0  0  0  0  0  0  0
    0.5787   20.2241   47.9377 H   0  0  0  0  0  0  0  0  0  0  0  0
   -1.0969   20.4098   47.3175 H   0  0  0  0  0  0  0  0  0  0  0  0
   -0.2450   18.8375   47.1467 H   0  0  0  0  0  0  0  0  0  0  0  0
    1.4972   22.4517   43.7869 H   0  0  0  0  0  0  0  0  0  0  0  0
    1.9930   21.4961   41.6744 H   0  0  0  0  0  0  0  0  0  0  0  0
    1.9891   20.0467   40.6343 H   0  0  0  0  0  0  0  0  0  0  0  0
  1  2  2  0
  1  6  1  0
  2  3  1  0
  3  4  2  0
  4  5  1  0
  5  6  2  0
  6  7  1  0
  7  8  2  0
  7  9  1  0
  8 16  1  0
  9 10  2  0
 10 11  1  0
 10 15  1  0
 11 12  1  0
 11 13  1  0
 13 14  2  0
 14 15  1  0
 15 16  2  0
 16 17  1  0
  1 18  1  0
  2 19  1  0
  3 20  1  0
  5 21  1  0
 12 22  1  0
 12 23  1  0
 12 24  1  0
 14 25  1  0
 17 26  1  0
 17 27  1  0
M  END
>  <mol_id>  (33) 
2026-09-17-6fnk-s0-n100-0033

>  <rmsd_to_ref>  (33) 
1.9234693877607454

>  <pose_kind>  (33) 
rigid

$$$$
6fnk.A
     RDKit          3D

 27 29  0  0  0  0  0  0  0  0999 V2000
    4.7872   16.3787   42.4132 C   0  0  0  0  0  0  0  0  0  0  0  0
    5.5031   15.2052   42.2824 C   0  0  0  0  0  0  0  0  0  0  0  0
    4.8687   14.0388   42.7229 C   0  0  0  0  0  0  0  0  0  0  0  0
    3.6478   14.0614   43.2370 N   0  0  0  0  0  0  0  0  0  0  0  0
    2.9795   15.2085   43.3516 C   0  0  0  0  0  0  0  0  0  0  0  0
    3.5115   16.4091   42.9496 C   0  0  0  0  0  0  0  0  0  0  0  0
    2.8096   17.6824   43.0598 C   0  0  0  0  0  0  0  0  0  0  0  0
    3.3794   18.8343   42.6489 N   0  0  0  0  0  0  0  0  0  0  0  0
    1.5671   17.7148   43.5819 N   0  0  0  0  0  0  0  0  0  0  0  0
    0.8792   18.8876   43.7009 C   0  0  0  0  0  0  0  0  0  0  0  0
   -0.3405   19.2107   44.1704 N   0  0  0  0  0  0  0  0  0  0  0  0
   -1.3268   18.2779   44.7257 C   0  0  0  0  0  0  0  0  0  0  0  0
   -0.4978   20.5186   44.0448 N   0  0  0  0  0  0  0  0  0  0  0  0
    0.5832   21.0810   43.5039 C   0  0  0  0  0  0  0  0  0  0  0  0
    1.4773   20.0564   43.2755 C   0  0  0  0  0  0  0  0  0  0  0  0
    2.7522   20.0244   42.7398 C   0  0  0  0  0  0  0  0  0  0  0  0
    3.4063   21.2134   42.2877 N   0  0  0  0  0  0  0  0  0  0  0  0
    5.2481   17.3062   42.0815 H   0  0  0  0  0  0  0  0  0  0  0  0
    6.5029   15.1877   41.8612 H   0  0  0  0  0  0  0  0  0  0  0  0
    5.4550   13.1259   42.6086 H   0  0  0  0  0  0  0  0  0  0  0  0
    1.9932   15.1783   43.7742 H   0  0  0  0  0  0  0  0  0  0  0  0
   -1.9663   18.8680   45.4114 H   0  0  0  0  0  0  0  0  0  0  0  0
   -2.0221   17.9254   43.9249 H   0  0  0  0  0  0  0  0  0  0  0  0
   -0.8278   17.4292   45.2010 H   0  0  0  0  0  0  0  0  0  0  0  0
    0.7944   22.1166   43.2620 H   0  0  0  0  0  0  0  0  0  0  0  0
    4.4015   21.4000   42.6065 H   0  0  0  0  0  0  0  0  0  0  0  0
    2.8993   21.8752   41.6557 H   0  0  0  0  0  0  0  0  0  0  0  0
  1  2  2  0
  1  6  1  0
  2  3  1  0
  3  4  2  0
  4  5  1  0
  5  6  2  0
  6  7  1  0
  7  8  2  0
  7  9  1  0
  8 16  1  0
  9 10  2  0
 10 11  1  0
 10 15  1  0
 11 12  1  0
 11 13  1  0
 13 14  2  0
 14 15  1  0
 15 16  2  0
 16 17  1  0
  1 18  1  0
  2 19  1  0
  3 20  1  0
  5 21  1  0
 12 22  1  0
 12 23  1  0
 12 24  1  0
 14 25  1  0
 17 26  1  0
 17 27  1  0
M  END
>  <mol_id>  (34) 
2026-09-17-6fnk-s0-n100-0034

>  <rmsd_to_ref>  (34) 
1.9693877551062735

>  <pose_kind>  (34) 
conformer

$$$$
6fnk.A
     RDKit          3D

 27 29  0  0  0  0  0  0  0  0999 V2000
    3.7584   16.7781   41.4706 C   0  0  0  0  0  0  0  0  0  0  0  0
    4.6060   15.6711   41.4260 C   0  0  0  0  0  0  0  0  0  0  0  0
    4.5950   14.7480   42.4614 C   0  0  0  0  0  0  0  0  0  0  0  0
    3.7318   14.9261   43.5462 N   0  0  0  0  0  0  0  0  0  0  0  0
    2.8815   16.0414   43.5889 C   0  0  0  0  0  0  0  0  0  0  0  0
    2.8931   16.9705   42.5502 C   0  0  0  0  0  0  0  0  0  0  0  0
    2.0460   18.0825   42.5969 C   0  0  0  0  0  0  0  0  0  0  0  0
    2.1611   19.0760   41.7048 N   0  0  0  0  0  0  0  0  0  0  0  0
    1.1005   18.1595   43.5387 N   0  0  0  0  0  0  0  0  0  0  0  0
    0.2731   19.2167   43.6207 C   0  0  0  0  0  0  0  0  0  0  0  0
   -0.7205   19.5177   44.4706 N   0  0  0  0  0  0  0  0  0  0  0  0
   -1.1731   18.6913   45.5936 C   0  0  0  0  0  0  0  0  0  0  0  0
   -1.2271   20.6014   44.1774 N   0  0  0  0  0  0  0  0  0  0  0  0
   -0.5984   21.0557   43.0807 C   0  0  0  0  0  0  0  0  0  0  0  0
    0.3724   20.2006   42.7324 C   0  0  0  0  0  0  0  0  0  0  0  0
    1.3255   20.1296   41.7630 C   0  0  0  0  0  0  0  0  0  0  0  0
    1.4572   21.1163   40.8434 N   0  0  0  0  0  0  0  0  0  0  0  0
    3.7715   17.5071   40.6470 H   0  0  0  0  0  0  0  0  0  0  0  0
    5.2828   15.5303   40.5704 H   0  0  0  0  0  0  0  0  0  0  0  0
    5.2651   13.8762   42.4287 H   0  0  0  0  0  0  0  0  0  0  0  0
    2.2042   16.1827   44.4441 H   0  0  0  0  0  0  0  0  0  0  0  0
   -1.1963   19.2992   46.5102 H   0  0  0  0  0  0  0  0  0  0  0  0
   -2.1819   18.3070   45.3829 H   0  0  0  0  0  0  0  0  0  0  0  0
   -0.4805   17.8478   45.7306 H   0  0  0  0  0  0  0  0  0  0  0  0
   -0.8432   21.9874   42.5498 H   0  0  0  0  0  0  0  0  0  0  0  0
    0.8285   21.9316   40.8694 H   0  0  0  0  0  0  0  0  0  0  0  0
    2.1860   21.0508   40.1186 H   0  0  0  0  0  0  0  0  0  0  0  0
  1  2  2  0
  1  6  1  0
  2  3  1  0
  3  4  2  0
  4  5  1  0
  5  6  2  0
  6  7  1  0
  7  8  2  0
  7  9  1  0
  8 16  1  0
  9 10  2  0
 10 11  1  0
 10 15  1  0
 11 12  1  0
 11 13  1  0
 13 14  2  0
 14 15  1  0
 15 16  2  0
 16 17  1  0
  1 18  1  0
  2 19  1  0
  3 20  1  0
  5 21  1  0
 12 22  1  0
 12 23  1  0
 12 24  1  0
 14 25  1  0
 17 26  1  0
 17 27  1  0
M  END
>  <mol_id>  (35) 
2026-09-17-6fnk-s0-n100-0035

>  <rmsd_to_ref>  (35) 
2.015306122451059

>  <pose_kind>  (35) 
rigid

$$$$
6fnk.A
     RDKit          3D

 27 29  0  0  0  0  0  0  0  0999 V2000
    2.9550   17.0229   40.4087 C   0  0  0  0  0  0  0  0  0  0  0  0
    3.8372   16.1945   39.7439 C   0  0  0  0  0  0  0  0  0  0  0  0
    3.9198   14.8768   40.2066 C   0  0  0  0  0  0  0  0  0  0  0  0
    3.1902   14.4496   41.2268 N   0  0  0  0  0  0  0  0  0  0  0  0
    2.3463   15.2711   41.8503 C   0  0  0  0  0  0  0  0  0  0  0  0
    2.1900   16.5829   41.4751 C   0  0  0  0  0  0  0  0  0  0  0  0
    1.2769   17.5094   42.1338 C   0  0  0  0  0  0  0  0  0  0  0  0
    1.1619   18.7898   41.7243 N   0  0  0  0  0  0  0  0  0  0  0  0
    0.5308   17.0834   43.1726 N   0  0  0  0  0  0  0  0  0  0  0  0
   -0.3347   17.9217   43.8139 C   0  0  0  0  0  0  0  0  0  0  0  0
   -1.1813   17.7743   44.8504 N   0  0  0  0  0  0  0  0  0  0  0  0
   -1.3980   16.5448   45.6200 C   0  0  0  0  0  0  0  0  0  0  0  0
   -1.7866   18.9330   45.0566 N   0  0  0  0  0  0  0  0  0  0  0  0
   -1.3688   19.8527   44.1866 C   0  0  0  0  0  0  0  0  0  0  0  0
   -0.4396   19.2281   43.3817 C   0  0  0  0  0  0  0  0  0  0  0  0
    0.3256   19.6664   42.3159 C   0  0  0  0  0  0  0  0  0  0  0  0
    0.2458   21.0122   41.8381 N   0  0  0  0  0  0  0  0  0  0  0  0
    2.8635   18.0547   40.0772 H   0  0  0  0  0  0  0  0  0  0  0  0
    4.4342   16.5451   38.9086 H   0  0  0  0  0  0  0  0  0  0  0  0
    4.6234   14.2430   39.6651 H   0  0  0  0  0  0  0  0  0  0  0  0
    1.7760   14.8809   42.6717 H   0  0  0  0  0  0  0  0  0  0  0  0
   -1.7543   16.8591   46.6208 H   0  0  0  0  0  0  0  0  0  0  0  0
   -2.2478   15.9609   45.1887 H   0  0  0  0  0  0  0  0  0  0  0  0
   -0.4881   15.9390   45.6406 H   0  0  0  0  0  0  0  0  0  0  0  0
   -1.6498   20.8933   44.0697 H   0  0  0  0  0  0  0  0  0  0  0  0
    1.1466   21.5515   41.6820 H   0  0  0  0  0  0  0  0  0  0  0  0
   -0.6901   21.4411   41.6514 H   0  0  0  0  0  0  0  0  0  0  0  0
  1  2  2  0
  1  6  1  0
  2  3  1  0
  3  4  2  0
  4  5  1  0
  5  6  2  0
  6  7  1  0
  7  8  2  0
  7  9  1  0
  8 16  1  0
  9 10  2  0
 10 11  1  0
 10 15  1  0
 11 12  1  0
 11 13  1  0
 13 14  2  0
 14 15  1  0
 15 16  2  0
 16 17  1  0
  1 18  1  0
  2 19  1  0
  3 20  1  0
  5 21  1  0
 12 22  1  0
 12 23  1  0
 12 24  1  0
 14 25  1  0
 17 26  1  0
 17 27  1  0
M  END
>  <mol_id>  (36) 
2026-09-17-6fnk-s0-n100-0036

>  <rmsd_to_ref>  (36) 
2.0612244898022376

>  <pose_kind>  (36) 
conformer

$$$$
6fnk.A
     RDKit          3D

 27 29  0  0  0  0  0  0  0  0999 V2000
    2.9376   16.5450   40.3219 C   0  0  0  0  0  0  0  0  0  0  0  0
    3.1136   15.3933   39.5548 C   0  0  0  0  0  0  0  0  0  0  0  0
    2.2001   14.3533   39.6469 C   0  0  0  0  0  0  0  0  0  0  0  0
    1.1027   14.4624   40.5054 N   0  0  0  0  0  0  0  0  0  0  0  0
    0.9292   15.6214   41.2770 C   0  0  0  0  0  0  0  0  0  0  0  0
    1.8473   16.6661   41.1867 C   0  0  0  0  0  0  0  0  0  0  0  0
    1.6730   17.8192   41.9587 C   0  0  0  0  0  0  0  0  0  0  0  0
    2.6272   18.7580   42.0228 N   0  0  0  0  0  0  0  0  0  0  0  0
    0.5373   17.9977   42.6408 N   0  0  0  0  0  0  0  0  0  0  0  0
    0.3367   19.0890   43.4008 C   0  0  0  0  0  0  0  0  0  0  0  0
   -0.6924   19.4719   44.1718 N   0  0  0  0  0  0  0  0  0  0  0  0
   -1.9399   18.7290   44.3739 C   0  0  0  0  0  0  0  0  0  0  0  0
   -0.4576   20.5608   44.6974 N   0  0  0  0  0  0  0  0  0  0  0  0
    0.7467   20.9662   44.2620 C   0  0  0  0  0  0  0  0  0  0  0  0
    1.2730   20.0309   43.4601 C   0  0  0  0  0  0  0  0  0  0  0  0
    2.4305   19.8648   42.7629 C   0  0  0  0  0  0  0  0  0  0  0  0
    3.4075   20.8029   42.8033 N   0  0  0  0  0  0  0  0  0  0  0  0
    3.6651   17.3665   40.2451 H   0  0  0  0  0  0  0  0  0  0  0  0
    3.9761   15.3098   38.8771 H   0  0  0  0  0  0  0  0  0  0  0  0
    2.3395   13.4434   39.0447 H   0  0  0  0  0  0  0  0  0  0  0  0
    0.0669   15.7057   41.9546 H   0  0  0  0  0  0  0  0  0  0  0  0
   -2.1306   18.6189   45.4516 H   0  0  0  0  0  0  0  0  0  0  0  0
   -2.7724   19.2768   43.9083 H   0  0  0  0  0  0  0  0  0  0  0  0
   -1.8527   17.7338   43.9134 H   0  0  0  0  0  0  0  0  0  0  0  0
    1.2272   21.9203   44.5238 H   0  0  0  0  0  0  0  0  0  0  0  0
    3.2779   21.6577   43.3633 H   0  0  0  0  0  0  0  0  0  0  0  0
    4.2798   20.6613   42.2740 H   0  0  0  0  0  0  0  0  0  0  0  0
  1  2  2  0
  1  6  1  0
  2  3  1  0
  3  4  2  0
  4  5  1  0
  5  6  2  0
  6  7  1  0
  7  8  2  0
  7  9  1  0
  8 16  1  0
  9 10  2  0
 10 11  1  0
 10 15  1  0
 11 12  1  0
 11 13  1  0
 13 14  2  0
 14 15  1  0
 15 16  2  0
 16 17  1  0
  1 18  1  0
  2 19  1  0
  3 20  1  0
  5 21  1  0
 12 22  1  0
 12 23  1  0
 12 24  1  0
 14 25  1  0
 17 26  1  0
 17 27  1  0
M  END
>  <mol_id>  (37) 
2026-09-17-6fnk-s0-n100-0037

>  <rmsd_to_ref>  (37) 
2.1071428571486197

>  <pose_kind>  (37) 
rigid

$$$$
6fnk.A
     RDKit          3D

 27 29  0  0  0  0  0  0  0  0999 V2000
    2.6061   17.4480   40.1283 C   0  0  0  0  0  0  0  0  0  0  0  0
    3.2416   16.5943   39.2487 C   0  0  0  0  0  0  0  0  0  0  0  0
    3.1032   15.2256   39.5027 C   0  0  0  0  0  0  0  0  0  0  0  0
    2.4003   14.7757   40.5318 N   0  0  0  0  0  0  0  0  0  0  0  0
    1.7971   15.6224   41.3654 C   0  0  0  0  0  0  0  0  0  0  0  0
    1.8703   16.9844   41.2052 C   0  0  0  0  0  0  0  0  0  0  0  0
    1.2237   17.9397   42.0969 C   0  0  0  0  0  0  0  0  0  0  0  0
    1.3278   19.2694   41.8937 N   0  0  0  0  0  0  0  0  0  0  0  0
    0.5064   17.4908   43.1466 N   0  0  0  0  0  0  0  0  0  0  0  0
   -0.1129   18.3548   44.0026 C   0  0  0  0  0  0  0  0  0  0  0  0
   -0.8731   18.1946   45.1023 N   0  0  0  0  0  0  0  0  0  0  0  0
   -1.2578   16.9151   45.7070 C   0  0  0  0  0  0  0  0  0  0  0  0
   -1.2149   19.3937   45.5457 N   0  0  0  0  0  0  0  0  0  0  0  0
   -0.7047   20.3531   44.7733 C   0  0  0  0  0  0  0  0  0  0  0  0
    0.0042   19.7117   43.7796 C   0  0  0  0  0  0  0  0  0  0  0  0
    0.7399   20.1734   42.7029 C   0  0  0  0  0  0  0  0  0  0  0  0
    0.8852   21.5714   42.4377 N   0  0  0  0  0  0  0  0  0  0  0  0
    2.6911   18.5195   39.9629 H   0  0  0  0  0  0  0  0  0  0  0  0
    3.8171   16.9637   38.4063 H   0  0  0  0  0  0  0  0  0  0  0  0
    3.6144   14.5728   38.7938 H   0  0  0  0  0  0  0  0  0  0  0  0
    1.2385   15.2122   42.1851 H   0  0  0  0  0  0  0  0  0  0  0  0
   -1.4512   17.1193   46.7786 H   0  0  0  0  0  0  0  0  0  0  0  0
   -2.2424   16.5746   45.3026 H   0  0  0  0  0  0  0  0  0  0  0  0
   -0.4882   16.1592   45.5290 H   0  0  0  0  0  0  0  0  0  0  0  0
   -0.7831   21.4323   44.8429 H   0  0  0  0  0  0  0  0  0  0  0  0
    1.8569   21.9565   42.2525 H   0  0  0  0  0  0  0  0  0  0  0  0
    0.0400   22.1880   42.4302 H   0  0  0  0  0  0  0  0  0  0  0  0
  1  2  2  0
  1  6  1  0
  2  3  1  0
  3  4  2  0
  4  5  1  0
  5  6  2  0
  6  7  1  0
  7  8  2  0
  7  9  1  0
  8 16  1  0
  9 10  2  0
 10 11  1  0
 10 15  1  0
 11 12  1  0
 11 13  1  0
 13 14  2  0
 14 15  1  0
 15 16  2  0
 16 17  1  0
  1 18  1  0
  2 19  1  0
  3 20  1  0
  5 21  1  0
 12 22  1  0
 12 23  1  0
 12 24  1  0
 14 25  1  0
 17 26  1  0
 17 27  1  0
M  END
>  <mol_id>  (38) 
2026-09-17-6fnk-s0-n100-0038

>  <rmsd_to_ref>  (38) 
2.153061224494499

>  <pose_kind>  (38) 
conformer

$$$$
6fnk.A
     RDKit          3D

 27 29  0  0  0  0  0  0  0  0999 V2000
    1.6573   15.9856   40.0023 C   0  0  0  0  0  0  0  0  0  0  0  0
    1.8994   14.7905   39.3247 C   0  0  0  0  0  0  0  0  0  0  0  0
    1.7785   13.5797   39.9907 C   0  0  0  0  0  0  0  0  0  0  0  0
    1.4105   13.5584   41.3388 N   0  0  0  0  0  0  0  0  0  0  0  0
    1.1692   14.7621   42.0183 C   0  0  0  0  0  0  0  0  0  0  0  0
    1.2922   15.9792   41.3508 C   0  0  0  0  0  0  0  0  0  0  0  0
    1.0533   17.1776   42.0312 C   0  0  0  0  0  0  0  0  0  0  0  0
    1.3333   18.3601   41.4663 N   0  0  0  0  0  0  0  0  0  0  0  0
    0.5319   17.1512   43.2618 N   0  0  0  0  0  0  0  0  0  0  0  0
    0.2962   18.2820   43.9508 C   0  0  0  0  0  0  0  0  0  0  0  0
   -0.1959   18.5008   45.1797 N   0  0  0  0  0  0  0  0  0  0  0  0
   -0.6311   17.4718   46.1288 C   0  0  0  0  0  0  0  0  0  0  0  0
   -0.2475   19.7085   45.4164 N   0  0  0  0  0  0  0  0  0  0  0  0
    0.1869   20.3519   44.3203 C   0  0  0  0  0  0  0  0  0  0  0  0
    0.5595   19.4595   43.3930 C   0  0  0  0  0  0  0  0  0  0  0  0
    1.0825   19.4998   42.1368 C   0  0  0  0  0  0  0  0  0  0  0  0
    1.3663   20.6825   41.5392 N   0  0  0  0  0  0  0  0  0  0  0  0
    1.7549   16.9428   39.4694 H   0  0  0  0  0  0  0  0  0  0  0  0
    2.1861   14.8084   38.2628 H   0  0  0  0  0  0  0  0  0  0  0  0
    1.9720   12.6369   39.4581 H   0  0  0  0  0  0  0  0  0  0  0  0
    0.8822   14.7450   43.0801 H   0  0  0  0  0  0  0  0  0  0  0  0
   -0.1383   17.6355   47.0986 H   0  0  0  0  0  0  0  0  0  0  0  0
   -1.7220   17.5295   46.2576 H   0  0  0  0  0  0  0  0  0  0  0  0
   -0.3594   16.4783   45.7425 H   0  0  0  0  0  0  0  0  0  0  0  0
    0.2300   21.4446   44.2020 H   0  0  0  0  0  0  0  0  0  0  0  0
    1.1824   21.5669   42.0341 H   0  0  0  0  0  0  0  0  0  0  0  0
    1.7661   20.6972   40.5900 H   0  0  0  0  0  0  0  0  0  0  0  0
  1  2  2  0
  1  6  1  0
  2  3  1  0
  3  4  2  0
  4  5  1  0
  5  6  2  0
  6  7  1  0
  7  8  2  0
  7  9  1  0
  8 16  1  0
  9 10  2  0
 10 11  1  0
 10 15  1  0
 11 12  1  0
 11 13  1  0
 13 14  2  0
 14 15  1  0
 15 16  2  0
 16 17  1  0
  1 18  1  0
  2 19  1  0
  3 20  1  0
  5 21  1  0
 12 22  1  0
 12 23  1  0
 12 24  1  0
 14 25  1  0
 17 26  1  0
 17 27  1  0
M  END
>  <mol_id>  (39) 
2026-09-17-6fnk-s0-n100-0039

>  <rmsd_to_ref>  (39) 
2.198979591841587

>  <pose_kind>  (39) 
rigid

$$$$
6fnk.A
     RDKit          3D

 27 29  0  0  0  0  0  0  0  0999 V2000
    3.2133   16.6116   42.0625 C   0  0  0  0  0  0  0  0  0  0  0  0
    4.0318   15.5850   42.4898 C   0  0  0  0  0  0  0  0  0  0  0  0
    3.9625   15.2606   43.8488 C   0  0  0  0  0  0  0  0  0  0  0  0
    3.1548   15.9047   44.6785 N   0  0  0  0  0  0  0  0  0  0  0  0
    2.3751   16.8919   44.2388 C   0  0  0  0  0  0  0  0  0  0  0  0
    2.3672   17.2883   42.9241 C   0  0  0  0  0  0  0  0  0  0  0  0
    1.5282   18.3636   42.4083 C   0  0  0  0  0  0  0  0  0  0  0  0
    1.5594   18.7133   41.1055 N   0  0  0  0  0  0  0  0  0  0  0  0
    0.7032   19.0242   43.2453 N   0  0  0  0  0  0  0  0  0  0  0  0
   -0.0967   20.0360   42.7990 C   0  0  0  0  0  0  0  0  0  0  0  0
   -0.9930   20.8475   43.3912 N   0  0  0  0  0  0  0  0  0  0  0  0
   -1.3627   20.8358   44.8104 C   0  0  0  0  0  0  0  0  0  0  0  0
   -1.4852   21.6605   42.4702 N   0  0  0  0  0  0  0  0  0  0  0  0
   -0.9431   21.4160   41.2770 C   0  0  0  0  0  0  0  0  0  0  0  0
   -0.0519   20.3806   41.4633 C   0  0  0  0  0  0  0  0  0  0  0  0
    0.7942   19.7033   40.6036 C   0  0  0  0  0  0  0  0  0  0  0  0
    0.8697   20.0301   39.2132 N   0  0  0  0  0  0  0  0  0  0  0  0
    3.2398   16.8921   41.0121 H   0  0  0  0  0  0  0  0  0  0  0  0
    4.6930   15.0583   41.8097 H   0  0  0  0  0  0  0  0  0  0  0  0
    4.6186   14.4468   44.1609 H   0  0  0  0  0  0  0  0  0  0  0  0
    1.7370   17.3850   44.9473 H   0  0  0  0  0  0  0  0  0  0  0  0
   -1.7237   21.8555   45.0498 H   0  0  0  0  0  0  0  0  0  0  0  0
   -2.2502   20.1767   44.9754 H   0  0  0  0  0  0  0  0  0  0  0  0
   -0.5205   20.5053   45.4240 H   0  0  0  0  0  0  0  0  0  0  0  0
   -1.1125   21.8860   40.3147 H   0  0  0  0  0  0  0  0  0  0  0  0
    1.8259   20.1697   38.7740 H   0  0  0  0  0  0  0  0  0  0  0  0
   -0.0099   20.1259   38.6548 H   0  0  0  0  0  0  0  0  0  0  0  0
  1  2  2  0
  1  6  1  0
  2  3  1  0
  3  4  2  0
  4  5  1  0
  5  6  2  0
  6  7  1  0
  7  8  2  0
  7  9  1  0
  8 16  1  0
  9 10  2  0
 10 11  1  0
 10 15  1  0
 11 12  1  0
 11 13  1  0
 13 14  2  0
 14 15  1  0
 15 16  2  0
 16 17  1  0
  1 18  1  0
  2 19  1  0
  3 20  1  0
  5 21  1  0
 12 22  1  0
 12 23  1  0
 12 24  1  0
 14 25  1  0
 17 26  1  0
 17 27  1  0
M  END
>  <mol_id>  (40) 
2026-09-17-6fnk-s0-n100-0040

>  <rmsd_to_ref>  (40) 
2.2448979591882416

>  <pose_kind>  (40) 
conformer

$$$$
6fnk.A
     RDKit          3D

 27 29  0  0  0  0  0  0  0  0999 V2000
    3.1849   17.3057   40.1883 C   0  0  0  0  0  0  0  0  0  0  0  0
    3.6655   16.2752   39.3802 C   0  0  0  0  0  0  0  0  0  0  0  0
    3.3268   14.9595   39.6606 C   0  0  0  0  0  0  0  0  0  0  0  0
    2.5014   14.6684   40.7502 N   0  0  0  0  0  0  0  0  0  0  0  0
    2.0208   15.7068   41.5623 C   0  0  0  0  0  0  0  0  0  0  0  0
    2.3619   17.0288   41.2826 C   0  0  0  0  0  0  0  0  0  0  0  0
    1.8833   18.0617   42.0952 C   0  0  0  0  0  0  0  0  0  0  0  0
    2.3347   19.3157   41.9555 N   0  0  0  0  0  0  0  0  0  0  0  0
    0.9565   17.8029   43.0233 N   0  0  0  0  0  0  0  0  0  0  0  0
    0.4786   18.7679   43.8290 C   0  0  0  0  0  0  0  0  0  0  0  0
   -0.4225   18.7458   44.8228 N   0  0  0  0  0  0  0  0  0  0  0  0
   -1.1577   17.5677   45.2924 C   0  0  0  0  0  0  0  0  0  0  0  0
   -0.5676   19.8719   45.3004 N   0  0  0  0  0  0  0  0  0  0  0  0
    0.2233   20.7075   44.6073 C   0  0  0  0  0  0  0  0  0  0  0  0
    0.9119   20.0169   43.6888 C   0  0  0  0  0  0  0  0  0  0  0  0
    1.8491   20.2947   42.7413 C   0  0  0  0  0  0  0  0  0  0  0  0
    2.3157   21.5558   42.5734 N   0  0  0  0  0  0  0  0  0  0  0  0
    3.4568   18.3471   39.9615 H   0  0  0  0  0  0  0  0  0  0  0  0
    4.3127   16.5057   38.5210 H   0  0  0  0  0  0  0  0  0  0  0  0
    3.7076   14.1459   39.0258 H   0  0  0  0  0  0  0  0  0  0  0  0
    1.3734   15.4771   42.4214 H   0  0  0  0  0  0  0  0  0  0  0  0
   -1.0459   17.4765   46.3830 H   0  0  0  0  0  0  0  0  0  0  0  0
   -2.2230   17.6760   45.0409 H   0  0  0  0  0  0  0  0  0  0  0  0
   -0.7558   16.6667   44.8060 H   0  0  0  0  0  0  0  0  0  0  0  0
    0.2948   21.7932   44.7693 H   0  0  0  0  0  0  0  0  0  0  0  0
    1.9580   22.3202   43.1638 H   0  0  0  0  0  0  0  0  0  0  0  0
    3.0282   21.7500   41.8553 H   0  0  0  0  0  0  0  0  0  0  0  0
  1  2  2  0
  1  6  1  0
  2  3  1  0
  3  4  2  0
  4  5  1  0
  5  6  2  0
  6  7  1  0
  7  8  2  0
  7  9  1  0
  8 16  1  0
  9 10  2  0
 10 11  1  0
 10 15  1  0
 11 12  1  0
 11 13  1  0
 13 14  2  0
 14 15  1  0
 15 16  2  0
 16 17  1  0
  1 18  1  0
  2 19  1  0
  3 20  1  0
  5 21  1  0
 12 22  1  0
 12 23  1  0
 12 24  1  0
 14 25  1  0
 17 26  1  0
 17 27  1  0
M  END
>  <mol_id>  (41) 
2026-09-17-6fnk-s0-n100-0041

>  <rmsd_to_ref>  (41) 
2.2908163265327772

>  <pose_kind>  (41) 
rigid

$$$$
6fnk.A
     RDKit          3D

 27 29  0  0  0  0  0  0  0  0999 V2000
    2.2081   16.4846   40.5496 C   0  0  0  0  0  0  0  0  0  0  0  0
    2.1368   15.1942   40.0636 C   0  0  0  0  0  0  0  0  0  0  0  0
    1.4532   14.2683   40.8591 C   0  0  0  0  0  0  0  0  0  0  0  0
    0.9051   14.6133   42.0150 N   0  0  0  0  0  0  0  0  0  0  0  0
    0.9892   15.8666   42.4601 C   0  0  0  0  0  0  0  0  0  0  0  0
    1.6376   16.8515   41.7564 C   0  0  0  0  0  0  0  0  0  0  0  0
    1.7492   18.2320   42.2124 C   0  0  0  0  0  0  0  0  0  0  0  0
    2.3985   19.1613   41.4810 N   0  0  0  0  0  0  0  0  0  0  0  0
    1.1945   18.5919   43.3873 N   0  0  0  0  0  0  0  0  0  0  0  0
    1.2784   19.8744   43.8468 C   0  0  0  0  0  0  0  0  0  0  0  0
    0.8325   20.5009   44.9519 N   0  0  0  0  0  0  0  0  0  0  0  0
    0.0678   19.8875   46.0427 C   0  0  0  0  0  0  0  0  0  0  0  0
    1.2036   21.7695   44.8851 N   0  0  0  0  0  0  0  0  0  0  0  0
    1.8860   22.0102   43.7653 C   0  0  0  0  0  0  0  0  0  0  0  0
    1.9462   20.8120   43.0855 C   0  0  0  0  0  0  0  0  0  0  0  0
    2.5158   20.4438   41.8798 C   0  0  0  0  0  0  0  0  0  0  0  0
    3.2160   21.3855   41.0621 N   0  0  0  0  0  0  0  0  0  0  0  0
    2.7319   17.2324   39.9586 H   0  0  0  0  0  0  0  0  0  0  0  0
    2.5860   14.9125   39.1171 H   0  0  0  0  0  0  0  0  0  0  0  0
    1.4111   13.2566   40.4532 H   0  0  0  0  0  0  0  0  0  0  0  0
    0.5299   16.0997   43.4019 H   0  0  0  0  0  0  0  0  0  0  0  0
    0.2652   20.4972   46.9466 H   0  0  0  0  0  0  0  0  0  0  0  0
   -1.0290   20.0009   45.8603 H   0  0  0  0  0  0  0  0  0  0  0  0
    0.3314   18.8321   46.1506 H   0  0  0  0  0  0  0  0  0  0  0  0
    2.3327   22.9255   43.3935 H   0  0  0  0  0  0  0  0  0  0  0  0
    4.1746   21.1229   40.6893 H   0  0  0  0  0  0  0  0  0  0  0  0
    2.7773   22.3104   40.8454 H   0  0  0  0  0  0  0  0  0  0  0  0
  1  2  2  0
  1  6  1  0
  2  3  1  0
  3  4  2  0
  4  5  1  0
  5  6  2  0
  6  7  1  0
  7  8  2  0
  7  9  1  0
  8 16  1  0
  9 10  2  0
 10 11  1  0
 10 15  1  0
 11 12  1  0
 11 13  1  0
 13 14  2  0
 14 15  1  0
 15 16  2  0
 16 17  1  0
  1 18  1  0
  2 19  1  0
  3 20  1  0
  5 21  1  0
 12 22  1  0
 12 23  1  0
 12 24  1  0
 14 25  1  0
 17 26  1  0
 17 27  1  0
M  END
>  <mol_id>  (42) 
2026-09-17-6fnk-s0-n100-0042

>  <rmsd_to_ref>  (42) 
2.336734693882066

>  <pose_kind>  (42) 
conformer

$$$$
6fnk.A
     RDKit          3D

 27 29  0  0  0  0  0  0  0  0999 V2000
    3.7751   17.8101   41.7991 C   0  0  0  0  0  0  0  0  0  0  0  0
    4.9043   17.0628   41.4639 C   0  0  0  0  0  0  0  0  0  0  0  0
    4.9430   15.7040   41.7408 C   0  0  0  0  0  0  0  0  0  0  0  0
    3.8491   15.0848   42.3517 N   0  0  0  0  0  0  0  0  0  0  0  0
    2.7153   15.8394   42.6891 C   0  0  0  0  0  0  0  0  0  0  0  0
    2.6760   17.2049   42.4131 C   0  0  0  0  0  0  0  0  0  0  0  0
    1.5454   17.9549   42.7527 C   0  0  0  0  0  0  0  0  0  0  0  0
    1.5502   19.2918   42.6601 N   0  0  0  0  0  0  0  0  0  0  0  0
    0.4370   17.3353   43.1708 N   0  0  0  0  0  0  0  0  0  0  0  0
   -0.6667   18.0229   43.5144 C   0  0  0  0  0  0  0  0  0  0  0  0
   -1.8667   17.6299   43.9678 N   0  0  0  0  0  0  0  0  0  0  0  0
   -2.2860   16.2456   44.2061 C   0  0  0  0  0  0  0  0  0  0  0  0
   -2.5980   18.6031   44.1560 N   0  0  0  0  0  0  0  0  0  0  0  0
   -1.9091   19.6990   43.7974 C   0  0  0  0  0  0  0  0  0  0  0  0
   -0.6744   19.3484   43.4136 C   0  0  0  0  0  0  0  0  0  0  0  0
    0.4454   19.9903   42.9807 C   0  0  0  0  0  0  0  0  0  0  0  0
    0.4739   21.3406   42.8694 N   0  0  0  0  0  0  0  0  0  0  0  0
    3.7499   18.8873   41.5774 H   0  0  0  0  0  0  0  0  0  0  0  0
    5.7636   17.5506   40.9804 H   0  0  0  0  0  0  0  0  0  0  0  0
    5.8341   15.1143   41.4797 H   0  0  0  0  0  0  0  0  0  0  0  0
    1.8557   15.3521   43.1724 H   0  0  0  0  0  0  0  0  0  0  0  0
   -2.6929   16.1559   45.2242 H   0  0  0  0  0  0  0  0  0  0  0  0
   -3.0599   15.9660   43.4761 H   0  0  0  0  0  0  0  0  0  0  0  0
   -1.4200   15.5762   44.0970 H   0  0  0  0  0  0  0  0  0  0  0  0
   -2.2992   20.7274   43.8162 H   0  0  0  0  0  0  0  0  0  0  0  0
   -0.3604   21.8948   43.1095 H   0  0  0  0  0  0  0  0  0  0  0  0
    1.3299   21.8126   42.5448 H   0  0  0  0  0  0  0  0  0  0  0  0
  1  2  2  0
  1  6  1  0
  2  3  1  0
  3  4  2  0
  4  5  1  0
  5  6  2  0
  6  7  1  0
  7  8  2  0
  7  9  1  0
  8 16  1  0
  9 10  2  0
 10 11  1  0
 10 15  1  0
 11 12  1  0
 11 13  1  0
 13 14  2  0
 14 15  1  0
 15 16  2  0
 16 17  1  0
  1 18  1  0
  2 19  1  0
  3 20  1  0
  5 21  1  0
 12 22  1  0
 12 23  1  0
 12 24  1  0
 14 25  1  0
 17 26  1  0
 17 27  1  0
M  END
>  <mol_id>  (43) 
2026-09-17-6fnk-s0-n100-0043

>  <rmsd_to_ref>  (43) 
2.3826530612262182

>  <pose_kind>  (43) 
rigid

$$$$
6fnk.A
     RDKit          3D

 27 29  0  0  0  0  0  0  0  0999 V2000
    3.0256   15.7225   40.4682 C   0  0  0  0  0  0  0  0  0  0  0  0
    4.1747   14.9989   40.2180 C   0  0  0  0  0  0  0  0  0  0  0  0
    5.0754   14.8773   41.2813 C   0  0  0  0  0  0  0  0  0  0  0  0
    4.8368   15.4272   42.4629 N   0  0  0  0  0  0  0  0  0  0  0  0
    3.7191   16.1206   42.6769 C   0  0  0  0  0  0  0  0  0  0  0  0
    2.7703   16.2994   41.7003 C   0  0  0  0  0  0  0  0  0  0  0  0
    1.5369   17.0513   41.8988 C   0  0  0  0  0  0  0  0  0  0  0  0
    0.6371   17.1967   40.9040 N   0  0  0  0  0  0  0  0  0  0  0  0
    1.2857   17.6142   43.0977 N   0  0  0  0  0  0  0  0  0  0  0  0
    0.1422   18.3251   43.3209 C   0  0  0  0  0  0  0  0  0  0  0  0
   -0.3576   18.9784   44.3868 N   0  0  0  0  0  0  0  0  0  0  0  0
    0.2768   19.0938   45.7041 C   0  0  0  0  0  0  0  0  0  0  0  0
   -1.5235   19.5004   44.0413 N   0  0  0  0  0  0  0  0  0  0  0  0
   -1.8187   19.2149   42.7729 C   0  0  0  0  0  0  0  0  0  0  0  0
   -0.7671   18.4637   42.2920 C   0  0  0  0  0  0  0  0  0  0  0  0
   -0.5106   17.8865   41.0614 C   0  0  0  0  0  0  0  0  0  0  0  0
   -1.4274   18.0073   39.9702 N   0  0  0  0  0  0  0  0  0  0  0  0
    2.3014   15.8386   39.6651 H   0  0  0  0  0  0  0  0  0  0  0  0
    4.3692   14.5491   39.2500 H   0  0  0  0  0  0  0  0  0  0  0  0
    5.9747   14.3014   41.0581 H   0  0  0  0  0  0  0  0  0  0  0  0
    3.5685   16.5480   43.6500 H   0  0  0  0  0  0  0  0  0  0  0  0
   -0.1181   20.0216   46.1631 H   0  0  0  0  0  0  0  0  0  0  0  0
   -0.0745   18.2741   46.3778 H   0  0  0  0  0  0  0  0  0  0  0  0
    1.3658   19.0717   45.6093 H   0  0  0  0  0  0  0  0  0  0  0  0
   -2.6816   19.4792   42.1719 H   0  0  0  0  0  0  0  0  0  0  0  0
   -1.0543   18.3036   39.0217 H   0  0  0  0  0  0  0  0  0  0  0  0
   -2.4424   17.8037   40.1214 H   0  0  0  0  0  0  0  0  0  0  0  0
  1  2  2  0
  1  6  1  0
  2  3  1  0
  3  4  2  0
  4  5  1  0
  5  6  2  0
  6  7  1  0
  7  8  2  0
  7  9  1  0
  8 16  1  0
  9 10  2  0
 10 11  1  0
 10 15  1  0
 11 12  1  0
 11 13  1  0
 13 14  2  0
 14 15  1  0
 15 16  2  0
 16 17  1  0
  1 18  1  0
  2 19  1  0
  3 20  1  0
  5 21  1  0
 12 22  1  0
 12 23  1  0
 12 24  1  0
 14 25  1  0
 17 26  1  0
 17 27  1  0
M  END
>  <mol_id>  (44) 
2026-09-17-6fnk-s0-n100-0044

>  <rmsd_to_ref>  (44) 
2.4285714285751583

>  <pose_kind>  (44) 
conformer

$$$$
6fnk.A
     RDKit          3D

 27 29  0  0  0  0  0  0  0  0999 V2000
    1.0081   14.6999   40.7490 C   0  0  0  0  0  0  0  0  0  0  0  0
    1.8944   13.8470   40.0911 C   0  0  0  0  0  0  0  0  0  0  0  0
    3.2625   14.0131   40.2501 C   0  0  0  0  0  0  0  0  0  0  0  0
    3.7510   15.0323   41.0722 N   0  0  0  0  0  0  0  0  0  0  0  0
    2.8569   15.8896   41.7314 C   0  0  0  0  0  0  0  0  0  0  0  0
    1.4824   15.7249   41.5710 C   0  0  0  0  0  0  0  0  0  0  0  0
    0.5938   16.5826   42.2275 C   0  0  0  0  0  0  0  0  0  0  0  0
   -0.7180   16.5585   41.9545 N   0  0  0  0  0  0  0  0  0  0  0  0
    1.0517   17.4377   43.1474 N   0  0  0  0  0  0  0  0  0  0  0  0
    0.2294   18.2836   43.7932 C   0  0  0  0  0  0  0  0  0  0  0  0
    0.4552   19.2227   44.7245 N   0  0  0  0  0  0  0  0  0  0  0  0
    1.7577   19.5656   45.3034 C   0  0  0  0  0  0  0  0  0  0  0  0
   -0.5983   19.7716   45.0500 N   0  0  0  0  0  0  0  0  0  0  0  0
   -1.5881   19.1847   44.3571 C   0  0  0  0  0  0  0  0  0  0  0  0
   -1.0749   18.2576   43.5373 C   0  0  0  0  0  0  0  0  0  0  0  0
   -1.5545   17.3850   42.6089 C   0  0  0  0  0  0  0  0  0  0  0  0
   -2.8777   17.3341   42.3206 N   0  0  0  0  0  0  0  0  0  0  0  0
   -0.0757   14.5638   40.6192 H   0  0  0  0  0  0  0  0  0  0  0  0
    1.5088   13.0432   39.4467 H   0  0  0  0  0  0  0  0  0  0  0  0
    3.9624   13.3429   39.7294 H   0  0  0  0  0  0  0  0  0  0  0  0
    3.2419   16.6934   42.3762 H   0  0  0  0  0  0  0  0  0  0  0  0
    1.9183   20.6511   45.2276 H   0  0  0  0  0  0  0  0  0  0  0  0
    1.7793   19.2648   46.3613 H   0  0  0  0  0  0  0  0  0  0  0  0
    2.5526   19.0380   44.7560 H   0  0  0  0  0  0  0  0  0  0  0  0
   -2.6570   19.4280   44.4488 H   0  0  0  0  0  0  0  0  0  0  0  0
   -3.5357   17.9577   42.8095 H   0  0  0  0  0  0  0  0  0  0  0  0
   -3.2254   16.6717   41.6125 H   0  0  0  0  0  0  0  0  0  0  0  0
  1  2  2  0
  1  6  1  0
  2  3  1  0
  3  4  2  0
  4  5  1  0
  5  6  2  0
  6  7  1  0
  7  8  2  0
  7  9  1  0
  8 16  1  0
  9 10  2  0
 10 11  1  0
 10 15  1  0
 11 12  1  0
 11 13  1  0
 13 14  2  0
 14 15  1  0
 15 16  2  0
 16 17  1  0
  1 18  1  0
  2 19  1  0
  3 20  1  0
  5 21  1  0
 12 22  1  0
 12 23  1  0
 12 24  1  0
 14 25  1  0
 17 26  1  0
 17 27  1  0
M  END
>  <mol_id>  (45) 
2026-09-17-6fnk-s0-n100-0045

>  <rmsd_to_ref>  (45) 
2.4744897959202152

>  <pose_kind>  (45) 
rigid

$$$$
6fnk.A
     RDKit          3D

 27 29  0  0  0  0  0  0  0  0999 V2000
    3.2484   16.0920   41.1641 C   0  0  0  0  0  0  0  0  0  0  0  0
    3.2932   14.7619   40.7960 C   0  0  0  0  0  0  0  0  0  0  0  0
    2.2883   13.9397   41.3166 C   0  0  0  0  0  0  0  0  0  0  0  0
    1.3462   14.4137   42.1187 N   0  0  0  0  0  0  0  0  0  0  0  0
    1.3270   15.7024   42.4577 C   0  0  0  0  0  0  0  0  0  0  0  0
    2.2670   16.5934   42.0015 C   0  0  0  0  0  0  0  0  0  0  0  0
    2.2768   18.0089   42.3515 C   0  0  0  0  0  0  0  0  0  0  0  0
    3.2251   18.8420   41.8747 N   0  0  0  0  0  0  0  0  0  0  0  0
    1.3222   18.4998   43.1670 N   0  0  0  0  0  0  0  0  0  0  0  0
    1.2990   19.8190   43.5166 C   0  0  0  0  0  0  0  0  0  0  0  0
    0.4893   20.5650   44.2915 N   0  0  0  0  0  0  0  0  0  0  0  0
   -0.6878   20.0854   45.0232 C   0  0  0  0  0  0  0  0  0  0  0  0
    0.9389   21.8096   44.2797 N   0  0  0  0  0  0  0  0  0  0  0  0
    2.0277   21.9180   43.5182 C   0  0  0  0  0  0  0  0  0  0  0  0
    2.2767   20.6568   43.0197 C   0  0  0  0  0  0  0  0  0  0  0  0
    3.2568   20.1541   42.1828 C   0  0  0  0  0  0  0  0  0  0  0  0
    4.2870   20.9894   41.6473 N   0  0  0  0  0  0  0  0  0  0  0  0
    4.0135   16.7621   40.7787 H   0  0  0  0  0  0  0  0  0  0  0  0
    4.0650   14.3747   40.1391 H   0  0  0  0  0  0  0  0  0  0  0  0
    2.3459   12.8941   41.0110 H   0  0  0  0  0  0  0  0  0  0  0  0
    0.5446   16.0412   43.1100 H   0  0  0  0  0  0  0  0  0  0  0  0
   -0.8302   20.7766   45.8773 H   0  0  0  0  0  0  0  0  0  0  0  0
   -1.6089   20.2105   44.4027 H   0  0  0  0  0  0  0  0  0  0  0  0
   -0.5601   19.0390   45.3129 H   0  0  0  0  0  0  0  0  0  0  0  0
    2.6455   22.7788   43.2878 H   0  0  0  0  0  0  0  0  0  0  0  0
    5.2948   20.6642   41.7181 H   0  0  0  0  0  0  0  0  0  0  0  0
    4.0344   21.8999   41.1979 H   0  0  0  0  0  0  0  0  0  0  0  0
  1  2  2  0
  1  6  1  0
  2  3  1  0
  3  4  2  0
  4  5  1  0
  5  6  2  0
  6  7  1  0
  7  8  2  0
  7  9  1  0
  8 16  1  0
  9 10  2  0
 10 11  1  0
 10 15  1  0
 11 12  1  0
 11 13  1  0
 13 14  2  0
 14 15  1  0
 15 16  2  0
 16 17  1  0
  1 18  1  0
  2 19  1  0
  3 20  1  0
  5 21  1  0
 12 22  1  0
 12 23  1  0
 12 24  1  0
 14 25  1  0
 17 26  1  0
 17 27  1  0
M  END
>  <mol_id>  (46) 
2026-09-17-6fnk-s0-n100-0046

>  <rmsd_to_ref>  (46) 
2.520408163270152

>  <pose_kind>  (46) 
conformer

$$$$
6fnk.A
     RDKit          3D

 27 29  0  0  0  0  0  0  0  0999 V2000
    0.7682   14.5893   40.6562 C   0  0  0  0  0  0  0  0  0  0  0  0
    0.0762   13.4167   40.3528 C   0  0  0  0  0  0  0  0  0  0  0  0
   -1.0060   13.0302   41.1300 C   0  0  0  0  0  0  0  0  0  0  0  0
   -1.4039   13.8180   42.2136 N   0  0  0  0  0  0  0  0  0  0  0  0
   -0.7049   14.9961   42.5173 C   0  0  0  0  0  0  0  0  0  0  0  0
    0.3836   15.3845   41.7385 C   0  0  0  0  0  0  0  0  0  0  0  0
    1.0798   16.5581   42.0451 C   0  0  0  0  0  0  0  0  0  0  0  0
    2.2290   16.8611   41.4256 N   0  0  0  0  0  0  0  0  0  0  0  0
    0.5946   17.3986   42.9644 N   0  0  0  0  0  0  0  0  0  0  0  0
    1.2401   18.5321   43.2921 C   0  0  0  0  0  0  0  0  0  0  0  0
    0.9622   19.5021   44.1766 N   0  0  0  0  0  0  0  0  0  0  0  0
   -0.2090   19.5553   45.0565 C   0  0  0  0  0  0  0  0  0  0  0  0
    1.8329   20.3730   44.1513 N   0  0  0  0  0  0  0  0  0  0  0  0
    2.7233   20.0241   43.2081 C   0  0  0  0  0  0  0  0  0  0  0  0
    2.3741   18.8463   42.6737 C   0  0  0  0  0  0  0  0  0  0  0  0
    2.8738   18.0027   41.7292 C   0  0  0  0  0  0  0  0  0  0  0  0
    4.0290   18.2898   41.0816 N   0  0  0  0  0  0  0  0  0  0  0  0
    1.6257   14.8909   40.0368 H   0  0  0  0  0  0  0  0  0  0  0  0
    0.3883   12.7990   39.4978 H   0  0  0  0  0  0  0  0  0  0  0  0
   -1.5506   12.1041   40.8935 H   0  0  0  0  0  0  0  0  0  0  0  0
   -1.0166   15.6145   43.3720 H   0  0  0  0  0  0  0  0  0  0  0  0
    0.1187   19.7191   46.0937 H   0  0  0  0  0  0  0  0  0  0  0  0
   -0.8648   20.3816   44.7445 H   0  0  0  0  0  0  0  0  0  0  0  0
   -0.7599   18.6054   44.9917 H   0  0  0  0  0  0  0  0  0  0  0  0
    3.6046   20.6152   42.9186 H   0  0  0  0  0  0  0  0  0  0  0  0
    4.5389   19.1581   41.2983 H   0  0  0  0  0  0  0  0  0  0  0  0
    4.3973   17.6397   40.3726 H   0  0  0  0  0  0  0  0  0  0  0  0
  1  2  2  0
  1  6  1  0
  2  3  1  0
  3  4  2  0
  4  5  1  0
  5  6  2  0
  6  7  1  0
  7  8  2  0
  7  9  1  0
  8 16  1  0
  9 10  2  0
 10 11  1  0
 10 15  1  0
 11 12  1  0
 11 13  1  0
 13 14  2  0
 14 15  1  0
 15 16  2  0
 16 17  1  0
  1 18  1  0
  2 19  1  0
  3 20  1  0
  5 21  1  0
 12 22  1  0
 12 23  1  0
 12 24  1  0
 14 25  1  0
 17 26  1  0
 17 27  1  0
M  END
>  <mol_id>  (47) 
2026-09-17-6fnk-s0-n100-0047

>  <rmsd_to_ref>  (47) 
2.566326530616575

>  <pose_kind>  (47) 
rigid

$$$$
6fnk.A
     RDKit          3D

 27 29  0  0  0  0  0  0  0  0999 V2000
    0.9653   15.3028   42.4973 C   0  0  0  0  0  0  0  0  0  0  0  0
    0.7195   13.9455   42.4346 C   0  0  0  0  0  0  0  0  0  0  0  0
   -0.1423   13.4254   43.4061 C   0  0  0  0  0  0  0  0  0  0  0  0
   -0.6912   14.1950   44.3345 N   0  0  0  0  0  0  0  0  0  0  0  0
   -0.4364   15.5025   44.3716 C   0  0  0  0  0  0  0  0  0  0  0  0
    0.3950   16.1123   43.4645 C   0  0  0  0  0  0  0  0  0  0  0  0
    0.6963   17.5389   43.4750 C   0  0  0  0  0  0  0  0  0  0  0  0
    1.5214   18.0876   42.5591 N   0  0  0  0  0  0  0  0  0  0  0  0
    0.1423   18.3295   44.4160 N   0  0  0  0  0  0  0  0  0  0  0  0
    0.4008   19.6691   44.4573 C   0  0  0  0  0  0  0  0  0  0  0  0
   -0.0007   20.6727   45.2601 N   0  0  0  0  0  0  0  0  0  0  0  0
   -0.9094   20.5518   46.4049 C   0  0  0  0  0  0  0  0  0  0  0  0
    0.5672   21.7909   44.8379 N   0  0  0  0  0  0  0  0  0  0  0  0
    1.3382   21.5642   43.7741 C   0  0  0  0  0  0  0  0  0  0  0  0
    1.2469   20.2135   43.5128 C   0  0  0  0  0  0  0  0  0  0  0  0
    1.8160   19.4031   42.5467 C   0  0  0  0  0  0  0  0  0  0  0  0
    2.6978   19.9288   41.5508 N   0  0  0  0  0  0  0  0  0  0  0  0
    1.6306   15.7433   41.7583 H   0  0  0  0  0  0  0  0  0  0  0  0
    1.1694   13.3161   41.6740 H   0  0  0  0  0  0  0  0  0  0  0  0
   -0.3202   12.3514   43.3348 H   0  0  0  0  0  0  0  0  0  0  0  0
   -0.9036   16.0863   45.1417 H   0  0  0  0  0  0  0  0  0  0  0  0
   -0.6681   21.3901   47.0877 H   0  0  0  0  0  0  0  0  0  0  0  0
   -1.9635   20.7422   46.0862 H   0  0  0  0  0  0  0  0  0  0  0  0
   -0.8203   19.5633   46.8633 H   0  0  0  0  0  0  0  0  0  0  0  0
    1.9418   22.2429   43.1819 H   0  0  0  0  0  0  0  0  0  0  0  0
    3.6222   19.4365   41.3778 H   0  0  0  0  0  0  0  0  0  0  0  0
    2.4215   20.7824   41.0126 H   0  0  0  0  0  0  0  0  0  0  0  0
  1  2  2  0
  1  6  1  0
  2  3  1  0
  3  4  2  0
  4  5  1  0
  5  6  2  0
  6  7  1  0
  7  8  2  0
  7  9  1  0
  8 16  1  0
  9 10  2  0
 10 11  1  0
 10 15  1  0
 11 12  1  0
 11 13  1  0
 13 14  2  0
 14 15  1  0
 15 16  2  0
 16 17  1  0
  1 18  1  0
  2 19  1  0
  3 20  1  0
  5 21  1  0
 12 22  1  0
 12 23  1  0
 12 24  1  0
 14 25  1  0
 17 26  1  0
 17 27  1  0
M  END
>  <mol_id>  (48) 
2026-09-17-6fnk-s0-n100-0048

>  <rmsd_to_ref>  (48) 
2.612244897963881

>  <pose_kind>  (48) 
conformer

$$$$
6fnk.A
     RDKit          3D

 27 29  0  0  0  0  0  0  0  0999 V2000
    2.3698   14.4045   42.0135 C   0  0  0  0  0  0  0  0  0  0  0  0
    2.7577   13.1256   42.4133 C   0  0  0  0  0  0  0  0  0  0  0  0
    2.8102   12.8077   43.7626 C   0  0  0  0  0  0  0  0  0  0  0  0
    2.4707   13.7679   44.7196 N   0  0  0  0  0  0  0  0  0  0  0  0
    2.0823   15.0540   44.3145 C   0  0  0  0  0  0  0  0  0  0  0  0
    2.0311   15.3752   42.9593 C   0  0  0  0  0  0  0  0  0  0  0  0
    1.6460   16.6586   42.5587 C   0  0  0  0  0  0  0  0  0  0  0  0
    1.7566   17.0452   41.2804 N   0  0  0  0  0  0  0  0  0  0  0  0
    1.1530   17.5163   43.4579 N   0  0  0  0  0  0  0  0  0  0  0  0
    0.7802   18.7614   43.1122 C   0  0  0  0  0  0  0  0  0  0  0  0
    0.2837   19.7829   43.8265 N   0  0  0  0  0  0  0  0  0  0  0  0
    0.0052   19.7722   45.2658 C   0  0  0  0  0  0  0  0  0  0  0  0
    0.0755   20.7568   43.1019 N   0  0  0  0  0  0  0  0  0  0  0  0
    0.4022   20.4023   41.8481 C   0  0  0  0  0  0  0  0  0  0  0  0
    0.8750   19.1488   41.8441 C   0  0  0  0  0  0  0  0  0  0  0  0
    1.3673   18.2813   40.9174 C   0  0  0  0  0  0  0  0  0  0  0  0
    1.4811   18.6441   39.6167 N   0  0  0  0  0  0  0  0  0  0  0  0
    2.3303   14.6513   40.9424 H   0  0  0  0  0  0  0  0  0  0  0  0
    3.0220   12.3697   41.6591 H   0  0  0  0  0  0  0  0  0  0  0  0
    3.1188   11.8004   44.0791 H   0  0  0  0  0  0  0  0  0  0  0  0
    1.8178   15.8103   45.0682 H   0  0  0  0  0  0  0  0  0  0  0  0
    0.4877   20.6399   45.7391 H   0  0  0  0  0  0  0  0  0  0  0  0
   -1.0814   19.8223   45.4293 H   0  0  0  0  0  0  0  0  0  0  0  0
    0.4003   18.8460   45.7087 H   0  0  0  0  0  0  0  0  0  0  0  0
    0.2974   21.0432   40.9603 H   0  0  0  0  0  0  0  0  0  0  0  0
    1.1892   19.5852   39.3170 H   0  0  0  0  0  0  0  0  0  0  0  0
    1.8596   17.9785   38.9277 H   0  0  0  0  0  0  0  0  0  0  0  0
  1  2  2  0
  1  6  1  0
  2  3  1  0
  3  4  2  0
  4  5  1  0
  5  6  2  0
  6  7  1  0
  7  8  2  0
  7  9  1  0
  8 16  1  0
  9 10  2  0
 10 11  1  0
 10 15  1  0
 11 12  1  0
 11 13  1  0
 13 14  2  0
 14 15  1  0
 15 16  2  0
 16 17  1  0
  1 18  1  0
  2 19  1  0
  3 20  1  0
  5 21  1  0
 12 22  1  0
 12 23  1  0
 12 24  1  0
 14 25  1  0
 17 26  1  0
 17 27  1  0
M  END
>  <mol_id>  (49) 
2026-09-17-6fnk-s0-n100-0049

>  <rmsd_to_ref>  (49) 
2.6581632653100766

>  <pose_kind>  (49) 
rigid

$$$$
6fnk.A
     RDKit          3D

 27 29  0  0  0  0  0  0  0  0999 V2000
    2.5062   14.4752   40.8588 C   0  0  0  0  0  0  0  0  0  0  0  0
    2.1736   13.2650   40.2833 C   0  0  0  0  0  0  0  0  0  0  0  0
    0.9076   12.7572   40.5938 C   0  0  0  0  0  0  0  0  0  0  0  0
    0.0751   13.4040   41.3965 N   0  0  0  0  0  0  0  0  0  0  0  0
    0.4223   14.5709   41.9385 C   0  0  0  0  0  0  0  0  0  0  0  0
    1.6412   15.1559   41.6982 C   0  0  0  0  0  0  0  0  0  0  0  0
    2.0544   16.4305   42.2736 C   0  0  0  0  0  0  0  0  0  0  0  0
    3.2652   16.9613   42.0041 N   0  0  0  0  0  0  0  0  0  0  0  0
    1.2138   17.0955   43.0913 N   0  0  0  0  0  0  0  0  0  0  0  0
    1.5656   18.2908   43.6484 C   0  0  0  0  0  0  0  0  0  0  0  0
    0.9466   19.1523   44.4775 N   0  0  0  0  0  0  0  0  0  0  0  0
   -0.3986   18.9936   45.0398 C   0  0  0  0  0  0  0  0  0  0  0  0
    1.7625   20.1703   44.6989 N   0  0  0  0  0  0  0  0  0  0  0  0
    2.9115   20.0147   44.0409 C   0  0  0  0  0  0  0  0  0  0  0  0
    2.8080   18.8190   43.3619 C   0  0  0  0  0  0  0  0  0  0  0  0
    3.6713   18.1375   42.5230 C   0  0  0  0  0  0  0  0  0  0  0  0
    4.9669   18.6512   42.2016 N   0  0  0  0  0  0  0  0  0  0  0  0
    3.4826   14.9016   40.6405 H   0  0  0  0  0  0  0  0  0  0  0  0
    2.8558   12.7360   39.6262 H   0  0  0  0  0  0  0  0  0  0  0  0
    0.6690   11.8005   40.1269 H   0  0  0  0  0  0  0  0  0  0  0  0
   -0.2846   15.0586   42.5825 H   0  0  0  0  0  0  0  0  0  0  0  0
   -0.4154   19.5742   45.9833 H   0  0  0  0  0  0  0  0  0  0  0  0
   -1.1545   19.4948   44.3869 H   0  0  0  0  0  0  0  0  0  0  0  0
   -0.6409   17.9347   45.1635 H   0  0  0  0  0  0  0  0  0  0  0  0
    3.7909   20.6473   43.9960 H   0  0  0  0  0  0  0  0  0  0  0  0
    5.8060   18.0068   42.2868 H   0  0  0  0  0  0  0  0  0  0  0  0
    5.0676   19.6450   41.8901 H   0  0  0  0  0  0  0  0  0  0  0  0
  1  2  2  0
  1  6  1  0
  2  3  1  0
  3  4  2  0
  4  5  1  0
  5  6  2  0
  6  7  1  0
  7  8  2  0
  7  9  1  0
  8 16  1  0
  9 10  2  0
 10 11  1  0
 10 15  1  0
 11 12  1  0
 11 13  1  0
 13 14  2  0
 14 15  1  0
 15 16  2  0
 16 17  1  0
  1 18  1  0
  2 19  1  0
  3 20  1  0
  5 21  1  0
 12 22  1  0
 12 23  1  0
 12 24  1  0
 14 25  1  0
 17 26  1  0
 17 27  1  0
M  END
>  <mol_id>  (50) 
2026-09-17-6fnk-s0-n100-0050

>  <rmsd_to_ref>  (50) 
2.704081632653864

>  <pose_kind>  (50) 
conformer

$$$$
6fnk.A
     RDKit          3D

 27 29  0  0  0  0  0  0  0  0999 V2000
    3.6644   16.3164   42.7400 C   0  0  0  0  0  0  0  0  0  0  0  0
    4.8383   15.5736   42.8667 C   0  0  0  0  0  0  0  0  0  0  0  0
    5.2593   15.1517   44.1194 C   0  0  0  0  0  0  0  0  0  0  0  0
    4.5048   15.4680   45.2525 N   0  0  0  0  0  0  0  0  0  0  0  0
    3.3252   16.2166   45.1221 C   0  0  0  0  0  0  0  0  0  0  0  0
    2.9022   16.6427   43.8645 C   0  0  0  0  0  0  0  0  0  0  0  0
    1.7272   17.3907   43.7379 C   0  0  0  0  0  0  0  0  0  0  0  0
    1.3928   17.9591   42.5713 N   0  0  0  0  0  0  0  0  0  0  0  0
    0.9171   17.5401   44.7908 N   0  0  0  0  0  0  0  0  0  0  0  0
   -0.2166   18.2591   44.7100 C   0  0  0  0  0  0  0  0  0  0  0  0
   -1.1599   18.5566   45.6166 N   0  0  0  0  0  0  0  0  0  0  0  0
   -1.1747   18.1243   47.0173 C   0  0  0  0  0  0  0  0  0  0  0  0
   -2.0430   19.2501   45.1105 N   0  0  0  0  0  0  0  0  0  0  0  0
   -1.7306   19.4166   43.8148 C   0  0  0  0  0  0  0  0  0  0  0  0
   -0.5620   18.8160   43.5533 C   0  0  0  0  0  0  0  0  0  0  0  0
    0.2505   18.6636   42.4716 C   0  0  0  0  0  0  0  0  0  0  0  0
   -0.0689   19.2204   41.2781 N   0  0  0  0  0  0  0  0  0  0  0  0
    3.3353   16.6487   41.7444 H   0  0  0  0  0  0  0  0  0  0  0  0
    5.4298   15.3227   41.9739 H   0  0  0  0  0  0  0  0  0  0  0  0
    6.1864   14.5684   44.2208 H   0  0  0  0  0  0  0  0  0  0  0  0
    2.7330   16.4677   46.0145 H   0  0  0  0  0  0  0  0  0  0  0  0
   -1.3165   18.9988   47.6694 H   0  0  0  0  0  0  0  0  0  0  0  0
   -1.9993   17.4133   47.1729 H   0  0  0  0  0  0  0  0  0  0  0  0
   -0.2192   17.6366   47.2607 H   0  0  0  0  0  0  0  0  0  0  0  0
   -2.3410   19.9628   43.0806 H   0  0  0  0  0  0  0  0  0  0  0  0
   -0.9385   19.7636   41.1794 H   0  0  0  0  0  0  0  0  0  0  0  0
    0.5579   19.1003   40.4696 H   0  0  0  0  0  0  0  0  0  0  0  0
  1  2  2  0
  1  6  1  0
  2  3  1  0
  3  4  2  0
  4  5  1  0
  5  6  2  0
  6  7  1  0
  7  8  2  0
  7  9  1  0
  8 16  1  0
  9 10  2  0
 10 11  1  0
 10 15  1  0
 11 12  1  0
 11 13  1  0
 13 14  2  0
 14 15  1  0
 15 16  2  0
 16 17  1  0
  1 18  1  0
  2 19  1  0
  3 20  1  0
  5 21  1  0
 12 22  1  0
 12 23  1  0
 12 24  1  0
 14 25  1  0
 17 26  1  0
 17 27  1  0
M  END
>  <mol_id>  (51) 
2026-09-17-6fnk-s0-n100-0051

>  <rmsd_to_ref>  (51) 
2.7500000000020033

>  <pose_kind>  (51) 
rigid

$$$$
6fnk.A
     RDKit          3D

 27 29  0  0  0  0  0  0  0  0999 V2000
    0.7271   15.1260   41.2574 C   0  0  0  0  0  0  0  0  0  0  0  0
    1.5170   14.0116   41.0558 C   0  0  0  0  0  0  0  0  0  0  0  0
    2.8648   14.1337   41.4099 C   0  0  0  0  0  0  0  0  0  0  0  0
    3.3543   15.2584   41.9112 N   0  0  0  0  0  0  0  0  0  0  0  0
    2.5688   16.3190   42.0953 C   0  0  0  0  0  0  0  0  0  0  0  0
    1.2322   16.3037   41.7807 C   0  0  0  0  0  0  0  0  0  0  0  0
    0.3438   17.4446   41.9687 C   0  0  0  0  0  0  0  0  0  0  0  0
   -0.9635   17.3757   41.6423 N   0  0  0  0  0  0  0  0  0  0  0  0
    0.8332   18.5928   42.4781 N   0  0  0  0  0  0  0  0  0  0  0  0
    0.0322   19.6814   42.6683 C   0  0  0  0  0  0  0  0  0  0  0  0
    0.2422   20.9228   43.1452 N   0  0  0  0  0  0  0  0  0  0  0  0
    1.5202   21.4582   43.6258 C   0  0  0  0  0  0  0  0  0  0  0  0
   -0.9060   21.5796   43.1061 N   0  0  0  0  0  0  0  0  0  0  0  0
   -1.8799   20.8122   42.6159 C   0  0  0  0  0  0  0  0  0  0  0  0
   -1.3027   19.5933   42.3290 C   0  0  0  0  0  0  0  0  0  0  0  0
   -1.8059   18.4156   41.8061 C   0  0  0  0  0  0  0  0  0  0  0  0
   -3.1829   18.2842   41.4420 N   0  0  0  0  0  0  0  0  0  0  0  0
   -0.3265   15.0687   40.9938 H   0  0  0  0  0  0  0  0  0  0  0  0
    1.1154   13.0911   40.6452 H   0  0  0  0  0  0  0  0  0  0  0  0
    3.4671   13.2400   41.2409 H   0  0  0  0  0  0  0  0  0  0  0  0
    3.0093   17.2085   42.5042 H   0  0  0  0  0  0  0  0  0  0  0  0
    1.4686   22.5575   43.4978 H   0  0  0  0  0  0  0  0  0  0  0  0
    1.6148   21.3070   44.7290 H   0  0  0  0  0  0  0  0  0  0  0  0
    2.3557   20.9869   43.1014 H   0  0  0  0  0  0  0  0  0  0  0  0
   -2.9294   21.0254   42.4465 H   0  0  0  0  0  0  0  0  0  0  0  0
   -3.4218   17.8821   40.4893 H   0  0  0  0  0  0  0  0  0  0  0  0
   -3.9273   18.5835   42.1137 H   0  0  0  0  0  0  0  0  0  0  0  0
  1  2  2  0
  1  6  1  0
  2  3  1  0
  3  4  2  0
  4  5  1  0
  5  6  2  0
  6  7  1  0
  7  8  2  0
  7  9  1  0
  8 16  1  0
  9 10  2  0
 10 11  1  0
 10 15  1  0
 11 12  1  0
 11 13  1  0
 13 14  2  0
 14 15  1  0
 15 16  2  0
 16 17  1  0
  1 18  1  0
  2 19  1  0
  3 20  1  0
  5 21  1  0
 12 22  1  0
 12 23  1  0
 12 24  1  0
 14 25  1  0
 17 26  1  0
 17 27  1  0
M  END
>  <mol_id>  (52) 
2026-09-17-6fnk-s0-n100-0052

>  <rmsd_to_ref>  (52) 
2.795918367350887

>  <pose_kind>  (52) 
conformer

$$$$
6fnk.A
     RDKit          3D

 27 29  0  0  0  0  0  0  0  0999 V2000
    1.3480   17.3272   40.2567 C   0  0  0  0  0  0  0  0  0  0  0  0
    1.1138   16.5063   39.1534 C   0  0  0  0  0  0  0  0  0  0  0  0
    0.0755   15.5867   39.1820 C   0  0  0  0  0  0  0  0  0  0  0  0
   -0.7369   15.4863   40.3148 N   0  0  0  0  0  0  0  0  0  0  0  0
   -0.4979   16.3122   41.4237 C   0  0  0  0  0  0  0  0  0  0  0  0
    0.5459   17.2351   41.3968 C   0  0  0  0  0  0  0  0  0  0  0  0
    0.7831   18.0553   42.5045 C   0  0  0  0  0  0  0  0  0  0  0  0
    1.8800   18.8223   42.5737 N   0  0  0  0  0  0  0  0  0  0  0  0
   -0.0964   18.0850   43.5108 N   0  0  0  0  0  0  0  0  0  0  0  0
    0.1015   18.8543   44.5961 C   0  0  0  0  0  0  0  0  0  0  0  0
   -0.6170   19.0337   45.7150 N   0  0  0  0  0  0  0  0  0  0  0  0
   -1.8912   18.3826   46.0337 C   0  0  0  0  0  0  0  0  0  0  0  0
   -0.0633   19.8436   46.4596 N   0  0  0  0  0  0  0  0  0  0  0  0
    1.0500   20.2657   45.8377 C   0  0  0  0  0  0  0  0  0  0  0  0
    1.1807   19.6273   44.6671 C   0  0  0  0  0  0  0  0  0  0  0  0
    2.0794   19.6126   43.6447 C   0  0  0  0  0  0  0  0  0  0  0  0
    3.1920   20.3850   43.6855 N   0  0  0  0  0  0  0  0  0  0  0  0
    2.1727   18.0544   40.2287 H   0  0  0  0  0  0  0  0  0  0  0  0
    1.7519   16.5882   38.2611 H   0  0  0  0  0  0  0  0  0  0  0  0
   -0.1081   14.9369   38.3137 H   0  0  0  0  0  0  0  0  0  0  0  0
   -1.1359   16.2310   42.3161 H   0  0  0  0  0  0  0  0  0  0  0  0
   -1.8273   17.9195   47.0294 H   0  0  0  0  0  0  0  0  0  0  0  0
   -2.6970   19.1314   46.0285 H   0  0  0  0  0  0  0  0  0  0  0  0
   -2.1054   17.6084   45.2822 H   0  0  0  0  0  0  0  0  0  0  0  0
    1.7478   21.0203   46.2297 H   0  0  0  0  0  0  0  0  0  0  0  0
    3.3644   20.9974   44.4955 H   0  0  0  0  0  0  0  0  0  0  0  0
    3.8653   20.3599   42.9064 H   0  0  0  0  0  0  0  0  0  0  0  0
  1  2  2  0
  1  6  1  0
  2  3  1  0
  3  4  2  0
  4  5  1  0
  5  6  2  0
  6  7  1  0
  7  8  2  0
  7  9  1  0
  8 16  1  0
  9 10  2  0
 10 11  1  0
 10 15  1  0
 11 12  1  0
 11 13  1  0
 13 14  2  0
 14 15  1  0
 15 16  2  0
 16 17  1  0
  1 18  1  0
  2 19  1  0
  3 20  1  0
  5 21  1  0
 12 22  1  0
 12 23  1  0
 12 24  1  0
 14 25  1  0
 17 26  1  0
 17 27  1  0
M  END
>  <mol_id>  (53) 
2026-09-17-6fnk-s0-n100-0053

>  <rmsd_to_ref>  (53) 
2.8418367346989717

>  <pose_kind>  (53) 
rigid

$$$$
6fnk.A
     RDKit          3D

 27 29  0  0  0  0  0  0  0  0999 V2000
    4.4148   18.1105   40.5277 C   0  0  0  0  0  0  0  0  0  0  0  0
    5.3243   17.3025   39.8744 C   0  0  0  0  0  0  0  0  0  0  0  0
    4.8724   16.0306   39.5067 C   0  0  0  0  0  0  0  0  0  0  0  0
    3.6389   15.6258   39.7719 N   0  0  0  0  0  0  0  0  0  0  0  0
    2.7817   16.4267   40.4040 C   0  0  0  0  0  0  0  0  0  0  0  0
    3.1249   17.6936   40.8077 C   0  0  0  0  0  0  0  0  0  0  0  0
    2.2137   18.5965   41.5009 C   0  0  0  0  0  0  0  0  0  0  0  0
    2.6026   19.8329   41.8758 N   0  0  0  0  0  0  0  0  0  0  0  0
    0.9568   18.1930   41.7747 N   0  0  0  0  0  0  0  0  0  0  0  0
    0.0758   19.0103   42.4219 C   0  0  0  0  0  0  0  0  0  0  0  0
   -1.2047   18.8766   42.8157 N   0  0  0  0  0  0  0  0  0  0  0  0
   -2.0485   17.6928   42.6220 C   0  0  0  0  0  0  0  0  0  0  0  0
   -1.5731   20.0003   43.4098 N   0  0  0  0  0  0  0  0  0  0  0  0
   -0.5744   20.8834   43.4248 C   0  0  0  0  0  0  0  0  0  0  0  0
    0.4906   20.2716   42.7981 C   0  0  0  0  0  0  0  0  0  0  0  0
    1.7800   20.6867   42.5177 C   0  0  0  0  0  0  0  0  0  0  0  0
    2.2480   21.9857   42.8908 N   0  0  0  0  0  0  0  0  0  0  0  0
    4.7301   19.1067   40.8292 H   0  0  0  0  0  0  0  0  0  0  0  0
    6.3340   17.6348   39.6577 H   0  0  0  0  0  0  0  0  0  0  0  0
    5.6094   15.4122   38.9925 H   0  0  0  0  0  0  0  0  0  0  0  0
    1.7930   16.0560   40.5973 H   0  0  0  0  0  0  0  0  0  0  0  0
   -2.8148   17.7184   43.4217 H   0  0  0  0  0  0  0  0  0  0  0  0
   -2.6299   17.7812   41.6715 H   0  0  0  0  0  0  0  0  0  0  0  0
   -1.4403   16.7843   42.6161 H   0  0  0  0  0  0  0  0  0  0  0  0
   -0.5278   21.8900   43.8249 H   0  0  0  0  0  0  0  0  0  0  0  0
    3.1787   22.0665   43.3949 H   0  0  0  0  0  0  0  0  0  0  0  0
    1.6719   22.8290   42.6637 H   0  0  0  0  0  0  0  0  0  0  0  0
  1  2  2  0
  1  6  1  0
  2  3  1  0
  3  4  2  0
  4  5  1  0
  5  6  2  0
  6  7  1  0
  7  8  2  0
  7  9  1  0
  8 16  1  0
  9 10  2  0
 10 11  1  0
 10 15  1  0
 11 12  1  0
 11 13  1  0
 13 14  2  0
 14 15  1  0
 15 16  2  0
 16 17  1  0
  1 18  1  0
  2 19  1  0
  3 20  1  0
  5 21  1  0
 12 22  1  0
 12 23  1  0
 12 24  1  0
 14 25  1  0
 17 26  1  0
 17 27  1  0
M  END
>  <mol_id>  (54) 
2026-09-17-6fnk-s0-n100-0054

>  <rmsd_to_ref>  (54) 
2.887755102040955

>  <pose_kind>  (54) 
conformer

$$$$
6fnk.A
     RDKit          3D

 27 29  0  0  0  0  0  0  0  0999 V2000
    2.7320   19.6590   39.7151 C   0  0  0  0  0  0  0  0  0  0  0  0
    3.4422   19.2932   38.5714 C   0  0  0  0  0  0  0  0  0  0  0  0
    3.7481   17.9596   38.3430 C   0  0  0  0  0  0  0  0  0  0  0  0
    3.3413   16.9837   39.2570 N   0  0  0  0  0  0  0  0  0  0  0  0
    2.6286   17.3548   40.4073 C   0  0  0  0  0  0  0  0  0  0  0  0
    2.3222   18.6945   40.6388 C   0  0  0  0  0  0  0  0  0  0  0  0
    1.6137   19.0617   41.7873 C   0  0  0  0  0  0  0  0  0  0  0  0
    1.4599   20.3504   42.1212 N   0  0  0  0  0  0  0  0  0  0  0  0
    1.0731   18.1186   42.5655 N   0  0  0  0  0  0  0  0  0  0  0  0
    0.3924   18.4324   43.6822 C   0  0  0  0  0  0  0  0  0  0  0  0
   -0.2128   17.6751   44.6097 N   0  0  0  0  0  0  0  0  0  0  0  0
   -0.2814   16.2107   44.6147 C   0  0  0  0  0  0  0  0  0  0  0  0
   -0.7271   18.3821   45.4773 N   0  0  0  0  0  0  0  0  0  0  0  0
   -0.5064   19.6622   45.1358 C   0  0  0  0  0  0  0  0  0  0  0  0
    0.2246   19.7087   44.0140 C   0  0  0  0  0  0  0  0  0  0  0  0
    0.7628   20.6787   43.2249 C   0  0  0  0  0  0  0  0  0  0  0  0
    0.6143   21.9895   43.5350 N   0  0  0  0  0  0  0  0  0  0  0  0
    2.4923   20.7180   39.8913 H   0  0  0  0  0  0  0  0  0  0  0  0
    3.7592   20.0618   37.8512 H   0  0  0  0  0  0  0  0  0  0  0  0
    4.3107   17.6703   37.4431 H   0  0  0  0  0  0  0  0  0  0  0  0
    2.3109   16.5868   41.1279 H   0  0  0  0  0  0  0  0  0  0  0  0
    0.0594   15.8311   45.5893 H   0  0  0  0  0  0  0  0  0  0  0  0
   -1.3195   15.8916   44.4397 H   0  0  0  0  0  0  0  0  0  0  0  0
    0.3642   15.8106   43.8192 H   0  0  0  0  0  0  0  0  0  0  0  0
   -0.8701   20.5386   45.6922 H   0  0  0  0  0  0  0  0  0  0  0  0
    0.0847   22.2632   44.3750 H   0  0  0  0  0  0  0  0  0  0  0  0
    1.0310   22.7121   42.9307 H   0  0  0  0  0  0  0  0  0  0  0  0
  1  2  2  0
  1  6  1  0
  2  3  1  0
  3  4  2  0
  4  5  1  0
  5  6  2  0
  6  7  1  0
  7  8  2  0
  7  9  1  0
  8 16  1  0
  9 10  2  0
 10 11  1  0
 10 15  1  0
 11 12  1  0
 11 13  1  0
 13 14  2  0
 14 15  1  0
 15 16  2  0
 16 17  1  0
  1 18  1  0
  2 19  1  0
  3 20  1  0
  5 21  1  0
 12 22  1  0
 12 23  1  0
 12 24  1  0
 14 25  1  0
 17 26  1  0
 17 27  1  0
M  END
>  <mol_id>  (55) 
2026-09-17-6fnk-s0-n100-0055

>  <rmsd_to_ref>  (55) 
2.9336734693885553

>  <pose_kind>  (55) 
rigid

$$$$
6fnk.A
     RDKit          3D

 27 29  0  0  0  0  0  0  0  0999 V2000
    3.5944   16.5013   42.9502 C   0  0  0  0  0  0  0  0  0  0  0  0
    4.3232   15.6460   42.1479 C   0  0  0  0  0  0  0  0  0  0  0  0
    4.1163   15.7612   40.7692 C   0  0  0  0  0  0  0  0  0  0  0  0
    3.2670   16.6433   40.2633 N   0  0  0  0  0  0  0  0  0  0  0  0
    2.5762   17.4569   41.0614 C   0  0  0  0  0  0  0  0  0  0  0  0
    2.7055   17.4251   42.4281 C   0  0  0  0  0  0  0  0  0  0  0  0
    1.9664   18.2994   43.3312 C   0  0  0  0  0  0  0  0  0  0  0  0
    2.1314   18.2264   44.6684 N   0  0  0  0  0  0  0  0  0  0  0  0
    1.1002   19.2001   42.8255 N   0  0  0  0  0  0  0  0  0  0  0  0
    0.3908   20.0350   43.6394 C   0  0  0  0  0  0  0  0  0  0  0  0
   -0.5176   21.0040   43.4187 N   0  0  0  0  0  0  0  0  0  0  0  0
   -1.0144   21.4396   42.1093 C   0  0  0  0  0  0  0  0  0  0  0  0
   -0.8867   21.4979   44.5896 N   0  0  0  0  0  0  0  0  0  0  0  0
   -0.2505   20.8864   45.5890 C   0  0  0  0  0  0  0  0  0  0  0  0
    0.5720   19.9466   45.0046 C   0  0  0  0  0  0  0  0  0  0  0  0
    1.4607   19.0229   45.5247 C   0  0  0  0  0  0  0  0  0  0  0  0
    1.6767   18.9001   46.9334 N   0  0  0  0  0  0  0  0  0  0  0  0
    3.7286   16.4409   44.0278 H   0  0  0  0  0  0  0  0  0  0  0  0
    5.0184   14.9238   42.5629 H   0  0  0  0  0  0  0  0  0  0  0  0
    4.7036   15.0747   40.1575 H   0  0  0  0  0  0  0  0  0  0  0  0
    1.8997   18.1555   40.6068 H   0  0  0  0  0  0  0  0  0  0  0  0
   -2.0207   21.8699   42.2821 H   0  0  0  0  0  0  0  0  0  0  0  0
   -0.4043   22.2943   41.7268 H   0  0  0  0  0  0  0  0  0  0  0  0
   -1.0004   20.6099   41.3977 H   0  0  0  0  0  0  0  0  0  0  0  0
   -0.3104   21.0366   46.6611 H   0  0  0  0  0  0  0  0  0  0  0  0
    1.6447   17.9338   47.3713 H   0  0  0  0  0  0  0  0  0  0  0  0
    1.8614   19.7563   47.5057 H   0  0  0  0  0  0  0  0  0  0  0  0
  1  2  2  0
  1  6  1  0
  2  3  1  0
  3  4  2  0
  4  5  1  0
  5  6  2  0
  6  7  1  0
  7  8  2  0
  7  9  1  0
  8 16  1  0
  9 10  2  0
 10 11  1  0
 10 15  1  0
 11 12  1  0
 11 13  1  0
 13 14  2  0
 14 15  1  0
 15 16  2  0
 16 17  1  0
  1 18  1  0
  2 19  1  0
  3 20  1  0
  5 21  1  0
 12 22  1  0
 12 23  1  0
 12 24  1  0
 14 25  1  0
 17 26  1  0
 17 27  1  0
M  END
>  <mol_id>  (56) 
2026-09-17-6fnk-s0-n100-0056

>  <rmsd_to_ref>  (56) 
2.979591836734763

>  <pose_kind>  (56) 
conformer

$$$$
6fnk.A
     RDKit          3D

 27 29  0  0  0  0  0  0  0  0999 V2000
    3.8532   16.4713   43.6770 C   0  0  0  0  0  0  0  0  0  0  0  0
    4.2438   15.2063   44.1165 C   0  0  0  0  0  0  0  0  0  0  0  0
    3.3037   14.3383   44.6524 C   0  0  0  0  0  0  0  0  0  0  0  0
    1.9657   14.7306   44.7475 N   0  0  0  0  0  0  0  0  0  0  0  0
    1.5761   16.0043   44.3060 C   0  0  0  0  0  0  0  0  0  0  0  0
    2.5200   16.8779   43.7693 C   0  0  0  0  0  0  0  0  0  0  0  0
    2.1289   18.1476   43.3322 C   0  0  0  0  0  0  0  0  0  0  0  0
    3.0382   19.0662   42.9776 N   0  0  0  0  0  0  0  0  0  0  0  0
    0.8301   18.4550   43.2581 N   0  0  0  0  0  0  0  0  0  0  0  0
    0.4159   19.6680   42.8509 C   0  0  0  0  0  0  0  0  0  0  0  0
   -0.8074   20.2018   42.7135 N   0  0  0  0  0  0  0  0  0  0  0  0
   -2.0781   19.5262   42.9930 C   0  0  0  0  0  0  0  0  0  0  0  0
   -0.7302   21.3603   42.3025 N   0  0  0  0  0  0  0  0  0  0  0  0
    0.5713   21.6354   42.1171 C   0  0  0  0  0  0  0  0  0  0  0  0
    1.3107   20.5808   42.4857 C   0  0  0  0  0  0  0  0  0  0  0  0
    2.6363   20.2768   42.5483 C   0  0  0  0  0  0  0  0  0  0  0  0
    3.5757   21.1841   42.1870 N   0  0  0  0  0  0  0  0  0  0  0  0
    4.6028   17.1557   43.2533 H   0  0  0  0  0  0  0  0  0  0  0  0
    5.2966   14.8974   44.0384 H   0  0  0  0  0  0  0  0  0  0  0  0
    3.6111   13.3416   45.0020 H   0  0  0  0  0  0  0  0  0  0  0  0
    0.5234   16.3138   44.3836 H   0  0  0  0  0  0  0  0  0  0  0  0
   -2.6859   20.1514   43.6635 H   0  0  0  0  0  0  0  0  0  0  0  0
   -2.6217   19.3631   42.0507 H   0  0  0  0  0  0  0  0  0  0  0  0
   -1.8799   18.5572   43.4745 H   0  0  0  0  0  0  0  0  0  0  0  0
    0.9694   22.5821   41.7229 H   0  0  0  0  0  0  0  0  0  0  0  0
    3.2904   22.1167   41.8556 H   0  0  0  0  0  0  0  0  0  0  0  0
    4.5751   20.9413   42.2441 H   0  0  0  0  0  0  0  0  0  0  0  0
  1  2  2  0
  1  6  1  0
  2  3  1  0
  3  4  2  0
  4  5  1  0
  5  6  2  0
  6  7  1  0
  7  8  2  0
  7  9  1  0
  8 16  1  0
  9 10  2  0
 10 11  1  0
 10 15  1  0
 11 12  1  0
 11 13  1  0
 13 14  2  0
 14 15  1  0
 15 16  2  0
 16 17  1  0
  1 18  1  0
  2 19  1  0
  3 20  1  0
  5 21  1  0
 12 22  1  0
 12 23  1  0
 12 24  1  0
 14 25  1  0
 17 26  1  0
 17 27  1  0
M  END
>  <mol_id>  (57) 
2026-09-17-6fnk-s0-n100-0057

>  <rmsd_to_ref>  (57) 
3.0255102040834014

>  <pose_kind>  (57) 
rigid

$$$$
6fnk.A
     RDKit          3D

 27 29  0  0  0  0  0  0  0  0999 V2000
    4.1460   17.3500   40.8286 C   0  0  0  0  0  0  0  0  0  0  0  0
    4.6436   16.6215   39.7664 C   0  0  0  0  0  0  0  0  0  0  0  0
    3.7691   15.6983   39.1831 C   0  0  0  0  0  0  0  0  0  0  0  0
    2.5318   15.5339   39.6274 N   0  0  0  0  0  0  0  0  0  0  0  0
    2.0774   16.2507   40.6548 C   0  0  0  0  0  0  0  0  0  0  0  0
    2.8544   17.1829   41.2975 C   0  0  0  0  0  0  0  0  0  0  0  0
    2.3907   17.9845   42.4239 C   0  0  0  0  0  0  0  0  0  0  0  0
    3.1965   18.8878   43.0198 N   0  0  0  0  0  0  0  0  0  0  0  0
    1.1332   17.8238   42.8826 N   0  0  0  0  0  0  0  0  0  0  0  0
    0.6641   18.5561   43.9346 C   0  0  0  0  0  0  0  0  0  0  0  0
   -0.5131   18.6053   44.5860 N   0  0  0  0  0  0  0  0  0  0  0  0
   -1.6994   17.7964   44.2878 C   0  0  0  0  0  0  0  0  0  0  0  0
   -0.4162   19.5121   45.5451 N   0  0  0  0  0  0  0  0  0  0  0  0
    0.7939   20.0717   45.5542 C   0  0  0  0  0  0  0  0  0  0  0  0
    1.5020   19.4754   44.5323 C   0  0  0  0  0  0  0  0  0  0  0  0
    2.7925   19.6412   44.0624 C   0  0  0  0  0  0  0  0  0  0  0  0
    3.6913   20.5832   44.6543 N   0  0  0  0  0  0  0  0  0  0  0  0
    4.7970   18.0776   41.3078 H   0  0  0  0  0  0  0  0  0  0  0  0
    5.6569   16.7568   39.4032 H   0  0  0  0  0  0  0  0  0  0  0  0
    4.1861   15.1360   38.3465 H   0  0  0  0  0  0  0  0  0  0  0  0
    1.0683   16.0834   40.9801 H   0  0  0  0  0  0  0  0  0  0  0  0
   -2.2793   17.7293   45.2296 H   0  0  0  0  0  0  0  0  0  0  0  0
   -2.3727   18.3398   43.5803 H   0  0  0  0  0  0  0  0  0  0  0  0
   -1.4093   16.8274   43.8729 H   0  0  0  0  0  0  0  0  0  0  0  0
    1.2121   20.8393   46.1956 H   0  0  0  0  0  0  0  0  0  0  0  0
    4.6710   20.2627   44.9078 H   0  0  0  0  0  0  0  0  0  0  0  0
    3.3732   21.5649   44.8271 H   0  0  0  0  0  0  0  0  0  0  0  0
  1  2  2  0
  1  6  1  0
  2  3  1  0
  3  4  2  0
  4  5  1  0
  5  6  2  0
  6  7  1  0
  7  8  2  0
  7  9  1  0
  8 16  1  0
  9 10  2  0
 10 11  1  0
 10 15  1  0
 11 12  1  0
 11 13  1  0
 13 14  2  0
 14 15  1  0
 15 16  2  0
 16 17  1  0
  1 18  1  0
  2 19  1  0
  3 20  1  0
  5 21  1  0
 12 22  1  0
 12 23  1  0
 12 24  1  0
 14 25  1  0
 17 26  1  0
 17 27  1  0
M  END
>  <mol_id>  (58) 
2026-09-17-6fnk-s0-n100-0058

>  <rmsd_to_ref>  (58) 
3.071428571433226

>  <pose_kind>  (58) 
conformer

$$$$
6fnk.A
     RDKit          3D

 27 29  0  0  0  0  0  0  0  0999 V2000
    1.5579   19.5223   40.7484 C   0  0  0  0  0  0  0  0  0  0  0  0
    2.2125   19.1015   39.5907 C   0  0  0  0  0  0  0  0  0  0  0  0
    3.0312   17.9821   39.6257 C   0  0  0  0  0  0  0  0  0  0  0  0
    3.1961   17.2752   40.8201 N   0  0  0  0  0  0  0  0  0  0  0  0
    2.5376   17.7018   41.9833 C   0  0  0  0  0  0  0  0  0  0  0  0
    1.7164   18.8273   41.9498 C   0  0  0  0  0  0  0  0  0  0  0  0
    1.0632   19.2515   43.1115 C   0  0  0  0  0  0  0  0  0  0  0  0
    0.4128   20.4227   43.1495 N   0  0  0  0  0  0  0  0  0  0  0  0
    1.0780   18.4793   44.2027 N   0  0  0  0  0  0  0  0  0  0  0  0
    0.4688   18.8573   45.3406 C   0  0  0  0  0  0  0  0  0  0  0  0
    0.3640   18.2707   46.5427 N   0  0  0  0  0  0  0  0  0  0  0  0
    0.9315   16.9727   46.9199 C   0  0  0  0  0  0  0  0  0  0  0  0
   -0.2951   18.9728   47.3108 N   0  0  0  0  0  0  0  0  0  0  0  0
   -0.6880   20.0590   46.6255 C   0  0  0  0  0  0  0  0  0  0  0  0
   -0.1891   20.0117   45.3831 C   0  0  0  0  0  0  0  0  0  0  0  0
   -0.2188   20.8028   44.2755 C   0  0  0  0  0  0  0  0  0  0  0  0
   -0.8768   21.9874   44.2844 N   0  0  0  0  0  0  0  0  0  0  0  0
    0.9101   20.4107   40.7150 H   0  0  0  0  0  0  0  0  0  0  0  0
    2.0796   19.6569   38.6506 H   0  0  0  0  0  0  0  0  0  0  0  0
    3.5502   17.6511   38.7141 H   0  0  0  0  0  0  0  0  0  0  0  0
    2.6698   17.1467   42.9237 H   0  0  0  0  0  0  0  0  0  0  0  0
    1.5172   17.0834   47.8444 H   0  0  0  0  0  0  0  0  0  0  0  0
    0.1181   16.2509   47.0853 H   0  0  0  0  0  0  0  0  0  0  0  0
    1.5852   16.6099   46.1129 H   0  0  0  0  0  0  0  0  0  0  0  0
   -1.3226   20.8645   47.0236 H   0  0  0  0  0  0  0  0  0  0  0  0
   -1.3669   22.2979   45.1356 H   0  0  0  0  0  0  0  0  0  0  0  0
   -0.8868   22.5774   43.4402 H   0  0  0  0  0  0  0  0  0  0  0  0
  1  2  2  0
  1  6  1  0
  2  3  1  0
  3  4  2  0
  4  5  1  0
  5  6  2  0
  6  7  1  0
  7  8  2  0
  7  9  1  0
  8 16  1  0
  9 10  2  0
 10 11  1  0
 10 15  1  0
 11 12  1  0
 11 13  1  0
 13 14  2  0
 14 15  1  0
 15 16  2  0
 16 17  1  0
  1 18  1  0
  2 19  1  0
  3 20  1  0
  5 21  1  0
 12 22  1  0
 12 23  1  0
 12 24  1  0
 14 25  1  0
 17 26  1  0
 17 27  1  0
M  END
>  <mol_id>  (59) 
2026-09-17-6fnk-s0-n100-0059

>  <rmsd_to_ref>  (59) 
3.117346938778266

>  <pose_kind>  (59) 
rigid

$$$$
6fnk.A
     RDKit          3D

 27 29  0  0  0  0  0  0  0  0999 V2000
    1.1225   14.6356   41.8923 C   0  0  0  0  0  0  0  0  0  0  0  0
    0.5366   13.4005   41.6980 C   0  0  0  0  0  0  0  0  0  0  0  0
   -0.8583   13.3532   41.7943 C   0  0  0  0  0  0  0  0  0  0  0  0
   -1.5755   14.4357   42.0576 N   0  0  0  0  0  0  0  0  0  0  0  0
   -0.9837   15.6155   42.2406 C   0  0  0  0  0  0  0  0  0  0  0  0
    0.3788   15.7702   42.1675 C   0  0  0  0  0  0  0  0  0  0  0  0
    1.0599   17.0447   42.3622 C   0  0  0  0  0  0  0  0  0  0  0  0
    2.4032   17.1413   42.2793 N   0  0  0  0  0  0  0  0  0  0  0  0
    0.3380   18.1513   42.6304 N   0  0  0  0  0  0  0  0  0  0  0  0
    0.9404   19.3616   42.8186 C   0  0  0  0  0  0  0  0  0  0  0  0
    0.4844   20.5986   43.0918 N   0  0  0  0  0  0  0  0  0  0  0  0
   -0.9200   20.9807   43.2718 C   0  0  0  0  0  0  0  0  0  0  0  0
    1.5242   21.4133   43.1707 N   0  0  0  0  0  0  0  0  0  0  0  0
    2.6645   20.7563   42.9576 C   0  0  0  0  0  0  0  0  0  0  0  0
    2.3153   19.4419   42.7302 C   0  0  0  0  0  0  0  0  0  0  0  0
    3.0570   18.3072   42.4551 C   0  0  0  0  0  0  0  0  0  0  0  0
    4.4833   18.3488   42.3553 N   0  0  0  0  0  0  0  0  0  0  0  0
    2.2053   14.7116   41.8252 H   0  0  0  0  0  0  0  0  0  0  0  0
    1.1248   12.5147   41.4826 H   0  0  0  0  0  0  0  0  0  0  0  0
   -1.2965   12.3666   41.6369 H   0  0  0  0  0  0  0  0  0  0  0  0
   -1.6054   16.4649   42.4516 H   0  0  0  0  0  0  0  0  0  0  0  0
   -0.9204   21.8840   43.9134 H   0  0  0  0  0  0  0  0  0  0  0  0
   -1.3568   21.3237   42.3019 H   0  0  0  0  0  0  0  0  0  0  0  0
   -1.4966   20.1452   43.6777 H   0  0  0  0  0  0  0  0  0  0  0  0
    3.6905   21.1070   42.9479 H   0  0  0  0  0  0  0  0  0  0  0  0
    5.0525   17.6291   42.8890 H   0  0  0  0  0  0  0  0  0  0  0  0
    4.9401   19.0809   41.7637 H   0  0  0  0  0  0  0  0  0  0  0  0
  1  2  2  0
  1  6  1  0
  2  3  1  0
  3  4  2  0
  4  5  1  0
  5  6  2  0
  6  7  1  0
  7  8  2  0
  7  9  1  0
  8 16  1  0
  9 10  2  0
 10 11  1  0
 10 15  1  0
 11 12  1  0
 11 13  1  0
 13 14  2  0
 14 15  1  0
 15 16  2  0
 16 17  1  0
  1 18  1  0
  2 19  1  0
  3 20  1  0
  5 21  1  0
 12 22  1  0
 12 23  1  0
 12 24  1  0
 14 25  1  0
 17 26  1  0
 17 27  1  0
M  END
>  <mol_id>  (60) 
2026-09-17-6fnk-s0-n100-0060

>  <rmsd_to_ref>  (60) 
3.1632653061227938

>  <pose_kind>  (60) 
conformer

$$$$
6fnk.A
     RDKit          3D

 27 29  0  0  0  0  0  0  0  0999 V2000
    1.7271   18.7913   39.3202 C   0  0  0  0  0  0  0  0  0  0  0  0
    1.7714   18.2266   38.0454 C   0  0  0  0  0  0  0  0  0  0  0  0
    1.3942   16.9046   37.8598 C   0  0  0  0  0  0  0  0  0  0  0  0
    0.9665   16.1412   38.9496 N   0  0  0  0  0  0  0  0  0  0  0  0
    0.9244   16.7115   40.2310 C   0  0  0  0  0  0  0  0  0  0  0  0
    1.3050   18.0390   40.4190 C   0  0  0  0  0  0  0  0  0  0  0  0
    1.2644   18.6039   41.6977 C   0  0  0  0  0  0  0  0  0  0  0  0
    1.7877   19.8147   41.9346 N   0  0  0  0  0  0  0  0  0  0  0  0
    0.6906   17.9348   42.7027 N   0  0  0  0  0  0  0  0  0  0  0  0
    0.6400   18.4415   43.9475 C   0  0  0  0  0  0  0  0  0  0  0  0
    0.1412   17.9589   45.0958 N   0  0  0  0  0  0  0  0  0  0  0  0
   -0.5233   16.6639   45.2689 C   0  0  0  0  0  0  0  0  0  0  0  0
    0.3067   18.7653   46.0120 N   0  0  0  0  0  0  0  0  0  0  0  0
    0.9048   19.8492   45.4907 C   0  0  0  0  0  0  0  0  0  0  0  0
    1.1456   19.6471   44.1884 C   0  0  0  0  0  0  0  0  0  0  0  0
    1.7247   20.3422   43.1712 C   0  0  0  0  0  0  0  0  0  0  0  0
    2.2534   21.5721   43.3819 N   0  0  0  0  0  0  0  0  0  0  0  0
    2.0277   19.8399   39.4617 H   0  0  0  0  0  0  0  0  0  0  0  0
    2.1054   18.8292   37.1878 H   0  0  0  0  0  0  0  0  0  0  0  0
    1.4315   16.4574   36.8555 H   0  0  0  0  0  0  0  0  0  0  0  0
    0.5904   16.1096   41.0889 H   0  0  0  0  0  0  0  0  0  0  0  0
   -0.0542   16.1195   46.1018 H   0  0  0  0  0  0  0  0  0  0  0  0
   -1.5887   16.8251   45.4902 H   0  0  0  0  0  0  0  0  0  0  0  0
   -0.4257   16.0751   44.3449 H   0  0  0  0  0  0  0  0  0  0  0  0
    1.1580   20.7631   46.0480 H   0  0  0  0  0  0  0  0  0  0  0  0
    2.2162   21.9949   44.3204 H   0  0  0  0  0  0  0  0  0  0  0  0
    2.6923   22.0843   42.6035 H   0  0  0  0  0  0  0  0  0  0  0  0
  1  2  2  0
  1  6  1  0
  2  3  1  0
  3  4  2  0
  4  5  1  0
  5  6  2  0
  6  7  1  0
  7  8  2  0
  7  9  1  0
  8 16  1  0
  9 10  2  0
 10 11  1  0
 10 15  1  0
 11 12  1  0
 11 13  1  0
 13 14  2  0
 14 15  1  0
 15 16  2  0
 16 17  1  0
  1 18  1  0
  2 19  1  0
  3 20  1  0
  5 21  1  0
 12 22  1  0
 12 23  1  0
 12 24  1  0
 14 25  1  0
 17 26  1  0
 17 27  1  0
M  END
>  <mol_id>  (61) 
2026-09-17-6fnk-s0-n100-0061

>  <rmsd_to_ref>  (61) 
3.209183673472281

>  <pose_kind>  (61) 
rigid

$$$$
6fnk.A
     RDKit          3D

 27 29  0  0  0  0  0  0  0  0999 V2000
    2.3505   17.4070   39.1813 C   0  0  0  0  0  0  0  0  0  0  0  0
    2.6544   16.8093   37.9742 C   0  0  0  0  0  0  0  0  0  0  0  0
    3.2170   15.5302   38.0393 C   0  0  0  0  0  0  0  0  0  0  0  0
    3.4448   14.9273   39.1970 N   0  0  0  0  0  0  0  0  0  0  0  0
    3.1415   15.5276   40.3473 C   0  0  0  0  0  0  0  0  0  0  0  0
    2.5859   16.7825   40.3941 C   0  0  0  0  0  0  0  0  0  0  0  0
    2.2416   17.4693   41.6334 C   0  0  0  0  0  0  0  0  0  0  0  0
    1.6970   18.7037   41.6225 N   0  0  0  0  0  0  0  0  0  0  0  0
    2.4699   16.8634   42.8159 N   0  0  0  0  0  0  0  0  0  0  0  0
    2.1608   17.4749   43.9963 C   0  0  0  0  0  0  0  0  0  0  0  0
    2.2750   17.1189   45.2898 N   0  0  0  0  0  0  0  0  0  0  0  0
    2.8176   15.8522   45.7919 C   0  0  0  0  0  0  0  0  0  0  0  0
    1.8122   18.1111   46.0331 N   0  0  0  0  0  0  0  0  0  0  0  0
    1.3911   19.1223   45.2733 C   0  0  0  0  0  0  0  0  0  0  0  0
    1.6043   18.7374   43.9666 C   0  0  0  0  0  0  0  0  0  0  0  0
    1.3697   19.3601   42.7537 C   0  0  0  0  0  0  0  0  0  0  0  0
    0.7948   20.6678   42.6805 N   0  0  0  0  0  0  0  0  0  0  0  0
    1.9116   18.4019   39.1706 H   0  0  0  0  0  0  0  0  0  0  0  0
    2.4676   17.3038   37.0268 H   0  0  0  0  0  0  0  0  0  0  0  0
    3.4478   15.0801   37.0727 H   0  0  0  0  0  0  0  0  0  0  0  0
    3.3438   15.0007   41.2605 H   0  0  0  0  0  0  0  0  0  0  0  0
    3.1945   16.0547   46.8138 H   0  0  0  0  0  0  0  0  0  0  0  0
    1.9966   15.1078   45.9366 H   0  0  0  0  0  0  0  0  0  0  0  0
    3.5742   15.4601   45.1071 H   0  0  0  0  0  0  0  0  0  0  0  0
    0.9597   20.0789   45.5464 H   0  0  0  0  0  0  0  0  0  0  0  0
    1.2604   21.3951   42.0633 H   0  0  0  0  0  0  0  0  0  0  0  0
   -0.0679   20.8860   43.2308 H   0  0  0  0  0  0  0  0  0  0  0  0
  1  2  2  0
  1  6  1  0
  2  3  1  0
  3  4  2  0
  4  5  1  0
  5  6  2  0
  6  7  1  0
  7  8  2  0
  7  9  1  0
  8 16  1  0
  9 10  2  0
 10 11  1  0
 10 15  1  0
 11 12  1  0
 11 13  1  0
 13 14  2  0
 14 15  1  0
 15 16  2  0
 16 17  1  0
  1 18  1  0
  2 19  1  0
  3 20  1  0
  5 21  1  0
 12 22  1  0
 12 23  1  0
 12 24  1  0
 14 25  1  0
 17 26  1  0
 17 27  1  0
M  END
>  <mol_id>  (62) 
2026-09-17-6fnk-s0-n100-0062

>  <rmsd_to_ref>  (62) 
3.2551020408205225

>  <pose_kind>  (62) 
conformer

$$$$
6fnk.A
     RDKit          3D

 27 29  0  0  0  0  0  0  0  0999 V2000
    0.8600   14.7566   43.2405 C   0  0  0  0  0  0  0  0  0  0  0  0
    0.2886   13.6773   43.9148 C   0  0  0  0  0  0  0  0  0  0  0  0
   -0.5146   13.9000   45.0237 C   0  0  0  0  0  0  0  0  0  0  0  0
   -0.7532   15.2055   45.4617 N   0  0  0  0  0  0  0  0  0  0  0  0
   -0.1759   16.2891   44.7824 C   0  0  0  0  0  0  0  0  0  0  0  0
    0.6327   16.0665   43.6694 C   0  0  0  0  0  0  0  0  0  0  0  0
    1.2088   17.1483   42.9957 C   0  0  0  0  0  0  0  0  0  0  0  0
    2.1253   16.9560   42.0369 N   0  0  0  0  0  0  0  0  0  0  0  0
    0.8399   18.3961   43.3028 N   0  0  0  0  0  0  0  0  0  0  0  0
    1.3777   19.4616   42.6830 C   0  0  0  0  0  0  0  0  0  0  0  0
    1.1818   20.7810   42.8291 N   0  0  0  0  0  0  0  0  0  0  0  0
    0.2551   21.4148   43.7717 C   0  0  0  0  0  0  0  0  0  0  0  0
    1.8903   21.4131   42.0444 N   0  0  0  0  0  0  0  0  0  0  0  0
    2.5738   20.5194   41.3105 C   0  0  0  0  0  0  0  0  0  0  0  0
    2.2783   19.2793   41.7224 C   0  0  0  0  0  0  0  0  0  0  0  0
    2.6556   18.0130   41.3945 C   0  0  0  0  0  0  0  0  0  0  0  0
    3.5737   17.7906   40.4228 N   0  0  0  0  0  0  0  0  0  0  0  0
    1.4963   14.5742   42.3619 H   0  0  0  0  0  0  0  0  0  0  0  0
    0.4748   12.6504   43.5674 H   0  0  0  0  0  0  0  0  0  0  0  0
   -0.9633   13.0496   45.5580 H   0  0  0  0  0  0  0  0  0  0  0  0
   -0.3618   17.3163   45.1291 H   0  0  0  0  0  0  0  0  0  0  0  0
    0.7913   22.1762   44.3571 H   0  0  0  0  0  0  0  0  0  0  0  0
   -0.5656   21.8908   43.2150 H   0  0  0  0  0  0  0  0  0  0  0  0
   -0.1559   20.6527   44.4503 H   0  0  0  0  0  0  0  0  0  0  0  0
    3.2697   20.7679   40.4957 H   0  0  0  0  0  0  0  0  0  0  0  0
    3.9924   18.5849   39.9183 H   0  0  0  0  0  0  0  0  0  0  0  0
    3.8527   16.8271   40.1887 H   0  0  0  0  0  0  0  0  0  0  0  0
  1  2  2  0
  1  6  1  0
  2  3  1  0
  3  4  2  0
  4  5  1  0
  5  6  2  0
  6  7  1  0
  7  8  2  0
  7  9  1  0
  8 16  1  0
  9 10  2  0
 10 11  1  0
 10 15  1  0
 11 12  1  0
 11 13  1  0
 13 14  2  0
 14 15  1  0
 15 16  2  0
 16 17  1  0
  1 18  1  0
  2 19  1  0
  3 20  1  0
  5 21  1  0
 12 22  1  0
 12 23  1  0
 12 24  1  0
 14 25  1  0
 17 26  1  0
 17 27  1  0
M  END
>  <mol_id>  (63) 
2026-09-17-6fnk-s0-n100-0063

>  <rmsd_to_ref>  (63) 
3.301020408171018

>  <pose_kind>  (63) 
rigid

$$$$
6fnk.A
     RDKit          3D

 27 29  0  0  0  0  0  0  0  0999 V2000
    3.6610   16.2385   40.8723 C   0  0  0  0  0  0  0  0  0  0  0  0
    4.9719   15.8049   40.8854 C   0  0  0  0  0  0  0  0  0  0  0  0
    5.6398   15.8850   42.1120 C   0  0  0  0  0  0  0  0  0  0  0  0
    5.0448   16.3517   43.2001 N   0  0  0  0  0  0  0  0  0  0  0  0
    3.7782   16.7635   43.1588 C   0  0  0  0  0  0  0  0  0  0  0  0
    3.0338   16.7271   42.0054 C   0  0  0  0  0  0  0  0  0  0  0  0
    1.6467   17.1692   41.9235 C   0  0  0  0  0  0  0  0  0  0  0  0
    0.9603   17.1118   40.7633 N   0  0  0  0  0  0  0  0  0  0  0  0
    1.0334   17.6455   43.0257 N   0  0  0  0  0  0  0  0  0  0  0  0
   -0.2637   18.0684   42.9875 C   0  0  0  0  0  0  0  0  0  0  0  0
   -1.1072   18.5760   43.9059 N   0  0  0  0  0  0  0  0  0  0  0  0
   -0.7990   18.8219   45.3185 C   0  0  0  0  0  0  0  0  0  0  0  0
   -2.2660   18.8162   43.3137 N   0  0  0  0  0  0  0  0  0  0  0  0
   -2.2222   18.4833   42.0235 C   0  0  0  0  0  0  0  0  0  0  0  0
   -0.9507   18.0025   41.7923 C   0  0  0  0  0  0  0  0  0  0  0  0
   -0.3225   17.5140   40.6608 C   0  0  0  0  0  0  0  0  0  0  0  0
   -0.9997   17.4296   39.4039 N   0  0  0  0  0  0  0  0  0  0  0  0
    3.1092   16.1914   39.9363 H   0  0  0  0  0  0  0  0  0  0  0  0
    5.4582   15.4230   39.9940 H   0  0  0  0  0  0  0  0  0  0  0  0
    6.6734   15.5364   42.0959 H   0  0  0  0  0  0  0  0  0  0  0  0
    3.3380   17.1339   44.0651 H   0  0  0  0  0  0  0  0  0  0  0  0
   -1.4819   19.6274   45.6538 H   0  0  0  0  0  0  0  0  0  0  0  0
   -1.0826   17.9359   45.9381 H   0  0  0  0  0  0  0  0  0  0  0  0
    0.2616   19.0549   45.4456 H   0  0  0  0  0  0  0  0  0  0  0  0
   -2.9813   18.5460   41.2518 H   0  0  0  0  0  0  0  0  0  0  0  0
   -0.5191   17.8147   38.5393 H   0  0  0  0  0  0  0  0  0  0  0  0
   -1.9498   16.9938   39.3555 H   0  0  0  0  0  0  0  0  0  0  0  0
  1  2  2  0
  1  6  1  0
  2  3  1  0
  3  4  2  0
  4  5  1  0
  5  6  2  0
  6  7  1  0
  7  8  2  0
  7  9  1  0
  8 16  1  0
  9 10  2  0
 10 11  1  0
 10 15  1  0
 11 12  1  0
 11 13  1  0
 13 14  2  0
 14 15  1  0
 15 16  2  0
 16 17  1  0
  1 18  1  0
  2 19  1  0
  3 20  1  0
  5 21  1  0
 12 22  1  0
 12 23  1  0
 12 24  1  0
 14 25  1  0
 17 26  1  0
 17 27  1  0
M  END
>  <mol_id>  (64) 
2026-09-17-6fnk-s0-n100-0064

>  <rmsd_to_ref>  (64) 
3.346938775513577

>  <pose_kind>  (64) 
conformer

$$$$
6fnk.A
     RDKit          3D

 27 29  0  0  0  0  0  0  0  0999 V2000
    1.8952   19.8721   41.0792 C   0  0  0  0  0  0  0  0  0  0  0  0
    2.8722   19.8335   40.0843 C   0  0  0  0  0  0  0  0  0  0  0  0
    3.7729   18.7794   40.0385 C   0  0  0  0  0  0  0  0  0  0  0  0
    3.6980   17.7556   40.9869 N   0  0  0  0  0  0  0  0  0  0  0  0
    2.7152   17.7980   41.9874 C   0  0  0  0  0  0  0  0  0  0  0  0
    1.8110   18.8573   42.0356 C   0  0  0  0  0  0  0  0  0  0  0  0
    0.8339   18.8981   43.0355 C   0  0  0  0  0  0  0  0  0  0  0  0
    0.0696   19.9850   43.2102 N   0  0  0  0  0  0  0  0  0  0  0  0
    0.6492   17.8381   43.8288 N   0  0  0  0  0  0  0  0  0  0  0  0
   -0.2743   17.8430   44.8065 C   0  0  0  0  0  0  0  0  0  0  0  0
   -0.6233   16.9234   45.7191 N   0  0  0  0  0  0  0  0  0  0  0  0
   -0.0327   15.5899   45.8673 C   0  0  0  0  0  0  0  0  0  0  0  0
   -1.5341   17.3459   46.4325 N   0  0  0  0  0  0  0  0  0  0  0  0
   -1.8532   18.5741   45.9921 C   0  0  0  0  0  0  0  0  0  0  0  0
   -1.0449   18.9124   44.9786 C   0  0  0  0  0  0  0  0  0  0  0  0
   -0.8725   19.9950   44.1713 C   0  0  0  0  0  0  0  0  0  0  0  0
   -1.6380   21.1031   44.3210 N   0  0  0  0  0  0  0  0  0  0  0  0
    1.1837   20.7103   41.1111 H   0  0  0  0  0  0  0  0  0  0  0  0
    2.9284   20.6383   39.3365 H   0  0  0  0  0  0  0  0  0  0  0  0
    4.5457   18.7494   39.2561 H   0  0  0  0  0  0  0  0  0  0  0  0
    2.6583   16.9934   42.7353 H   0  0  0  0  0  0  0  0  0  0  0  0
    0.2751   15.4393   46.9126 H   0  0  0  0  0  0  0  0  0  0  0  0
   -0.7752   14.8272   45.5901 H   0  0  0  0  0  0  0  0  0  0  0  0
    0.8453   15.5027   45.2104 H   0  0  0  0  0  0  0  0  0  0  0  0
   -2.6555   19.2057   46.4011 H   0  0  0  0  0  0  0  0  0  0  0  0
   -2.3649   21.1323   45.0502 H   0  0  0  0  0  0  0  0  0  0  0  0
   -1.4929   21.9162   43.7056 H   0  0  0  0  0  0  0  0  0  0  0  0
  1  2  2  0
  1  6  1  0
  2  3  1  0
  3  4  2  0
  4  5  1  0
  5  6  2  0
  6  7  1  0
  7  8  2  0
  7  9  1  0
  8 16  1  0
  9 10  2  0
 10 11  1  0
 10 15  1  0
 11 12  1  0
 11 13  1  0
 13 14  2  0
 14 15  1  0
 15 16  2  0
 16 17  1  0
  1 18  1  0
  2 19  1  0
  3 20  1  0
  5 21  1  0
 12 22  1  0
 12 23  1  0
 12 24  1  0
 14 25  1  0
 17 26  1  0
 17 27  1  0
M  END
>  <mol_id>  (65) 
2026-09-17-6fnk-s0-n100-0065

>  <rmsd_to_ref>  (65) 
3.39285714286077

>  <pose_kind>  (65) 
rigid

$$$$
6fnk.A
     RDKit          3D

 27 29  0  0  0  0  0  0  0  0999 V2000
    3.4529   19.5140   41.2515 C   0  0  0  0  0  0  0  0  0  0  0  0
    4.7255   19.1526   40.8560 C   0  0  0  0  0  0  0  0  0  0  0  0
    5.0689   17.8069   41.0240 C   0  0  0  0  0  0  0  0  0  0  0  0
    4.2178   16.9291   41.5347 N   0  0  0  0  0  0  0  0  0  0  0  0
    2.9953   17.3056   41.9081 C   0  0  0  0  0  0  0  0  0  0  0  0
    2.5591   18.6020   41.7857 C   0  0  0  0  0  0  0  0  0  0  0  0
    1.2295   19.0491   42.1836 C   0  0  0  0  0  0  0  0  0  0  0  0
    0.8515   20.3365   42.0414 N   0  0  0  0  0  0  0  0  0  0  0  0
    0.3570   18.1630   42.7042 N   0  0  0  0  0  0  0  0  0  0  0  0
   -0.8960   18.5445   43.0879 C   0  0  0  0  0  0  0  0  0  0  0  0
   -1.9466   17.8946   43.6230 N   0  0  0  0  0  0  0  0  0  0  0  0
   -2.0000   16.4674   43.9569 C   0  0  0  0  0  0  0  0  0  0  0  0
   -2.9264   18.7670   43.7968 N   0  0  0  0  0  0  0  0  0  0  0  0
   -2.5612   19.9838   43.3928 C   0  0  0  0  0  0  0  0  0  0  0  0
   -1.2658   19.8654   42.9354 C   0  0  0  0  0  0  0  0  0  0  0  0
   -0.3714   20.7755   42.4013 C   0  0  0  0  0  0  0  0  0  0  0  0
   -0.7163   22.1527   42.2270 N   0  0  0  0  0  0  0  0  0  0  0  0
    3.1500   20.5521   41.1361 H   0  0  0  0  0  0  0  0  0  0  0  0
    5.4217   19.8719   40.4379 H   0  0  0  0  0  0  0  0  0  0  0  0
    6.0791   17.5471   40.7041 H   0  0  0  0  0  0  0  0  0  0  0  0
    2.3401   16.5598   42.3167 H   0  0  0  0  0  0  0  0  0  0  0  0
   -2.7549   16.3607   44.7607 H   0  0  0  0  0  0  0  0  0  0  0  0
   -2.4160   15.8830   43.1000 H   0  0  0  0  0  0  0  0  0  0  0  0
   -1.0067   16.0985   44.2262 H   0  0  0  0  0  0  0  0  0  0  0  0
   -3.1071   20.9206   43.3905 H   0  0  0  0  0  0  0  0  0  0  0  0
   -0.0423   22.8947   42.5758 H   0  0  0  0  0  0  0  0  0  0  0  0
   -1.6191   22.4060   41.7629 H   0  0  0  0  0  0  0  0  0  0  0  0
  1  2  2  0
  1  6  1  0
  2  3  1  0
  3  4  2  0
  4  5  1  0
  5  6  2  0
  6  7  1  0
  7  8  2  0
  7  9  1  0
  8 16  1  0
  9 10  2  0
 10 11  1  0
 10 15  1  0
 11 12  1  0
 11 13  1  0
 13 14  2  0
 14 15  1  0
 15 16  2  0
 16 17  1  0
  1 18  1  0
  2 19  1  0
  3 20  1  0
  5 21  1  0
 12 22  1  0
 12 23  1  0
 12 24  1  0
 14 25  1  0
 17 26  1  0
 17 27  1  0
M  END
>  <mol_id>  (66) 
2026-09-17-6fnk-s0-n100-0066

>  <rmsd_to_ref>  (66) 
3.4387755102092874

>  <pose_kind>  (66) 
conformer

$$$$
6fnk.A
     RDKit          3D

 27 29  0  0  0  0  0  0  0  0999 V2000
    3.5534   20.5353   40.8323 C   0  0  0  0  0  0  0  0  0  0  0  0
    4.4506   20.3131   39.7876 C   0  0  0  0  0  0  0  0  0  0  0  0
    4.6777   19.0226   39.3320 C   0  0  0  0  0  0  0  0  0  0  0  0
    4.0044   17.9472   39.9179 N   0  0  0  0  0  0  0  0  0  0  0  0
    3.1035   18.1736   40.9696 C   0  0  0  0  0  0  0  0  0  0  0  0
    2.8761   19.4694   41.4293 C   0  0  0  0  0  0  0  0  0  0  0  0
    1.9794   19.6918   42.4795 C   0  0  0  0  0  0  0  0  0  0  0  0
    1.8746   20.8979   43.0542 N   0  0  0  0  0  0  0  0  0  0  0  0
    1.2071   18.6925   42.9176 N   0  0  0  0  0  0  0  0  0  0  0  0
    0.3394   18.8657   43.9305 C   0  0  0  0  0  0  0  0  0  0  0  0
   -0.5105   18.0257   44.5407 N   0  0  0  0  0  0  0  0  0  0  0  0
   -0.7086   16.6112   44.2109 C   0  0  0  0  0  0  0  0  0  0  0  0
   -1.1293   18.6084   45.4322 N   0  0  0  0  0  0  0  0  0  0  0  0
   -0.7294   19.8907   45.4273 C   0  0  0  0  0  0  0  0  0  0  0  0
    0.2203   20.0619   44.4980 C   0  0  0  0  0  0  0  0  0  0  0  0
    0.9951   21.0899   44.0547 C   0  0  0  0  0  0  0  0  0  0  0  0
    0.9024   22.3213   44.6126 N   0  0  0  0  0  0  0  0  0  0  0  0
    3.3774   21.5607   41.1897 H   0  0  0  0  0  0  0  0  0  0  0  0
    4.9778   21.1607   39.3252 H   0  0  0  0  0  0  0  0  0  0  0  0
    5.3873   18.8459   38.5103 H   0  0  0  0  0  0  0  0  0  0  0  0
    2.5759   17.3266   41.4324 H   0  0  0  0  0  0  0  0  0  0  0  0
   -0.6132   16.0050   45.1238 H   0  0  0  0  0  0  0  0  0  0  0  0
   -1.7117   16.4718   43.7814 H   0  0  0  0  0  0  0  0  0  0  0  0
    0.0504   16.2953   43.4801 H   0  0  0  0  0  0  0  0  0  0  0  0
   -1.1217   20.6796   46.0858 H   0  0  0  0  0  0  0  0  0  0  0  0
    0.2360   22.4905   45.3796 H   0  0  0  0  0  0  0  0  0  0  0  0
    1.4983   23.0883   44.2696 H   0  0  0  0  0  0  0  0  0  0  0  0
  1  2  2  0
  1  6  1  0
  2  3  1  0
  3  4  2  0
  4  5  1  0
  5  6  2  0
  6  7  1  0
  7  8  2  0
  7  9  1  0
  8 16  1  0
  9 10  2  0
 10 11  1  0
 10 15  1  0
 11 12  1  0
 11 13  1  0
 13 14  2  0
 14 15  1  0
 15 16  2  0
 16 17  1  0
  1 18  1  0
  2 19  1  0
  3 20  1  0
  5 21  1  0
 12 22  1  0
 12 23  1  0
 12 24  1  0
 14 25  1  0
 17 26  1  0
 17 27  1  0
M  END
>  <mol_id>  (67) 
2026-09-17-6fnk-s0-n100-0067

>  <rmsd_to_ref>  (67) 
3.484693877556446

>  <pose_kind>  (67) 
rigid

$$$$
6fnk.A
     RDKit          3D

 27 29  0  0  0  0  0  0  0  0999 V2000
    2.9235   15.8144   43.5704 C   0  0  0  0  0  0  0  0  0  0  0  0
    3.4478   14.7655   44.2997 C   0  0  0  0  0  0  0  0  0  0  0  0
    3.1796   14.7690   45.6726 C   0  0  0  0  0  0  0  0  0  0  0  0
    2.4616   15.7273   46.2398 N   0  0  0  0  0  0  0  0  0  0  0  0
    1.9676   16.7281   45.5117 C   0  0  0  0  0  0  0  0  0  0  0  0
    2.1727   16.8186   44.1569 C   0  0  0  0  0  0  0  0  0  0  0  0
    1.6479   17.8984   43.3294 C   0  0  0  0  0  0  0  0  0  0  0  0
    1.8795   17.9391   42.0009 N   0  0  0  0  0  0  0  0  0  0  0  0
    0.9164   18.8777   43.8981 N   0  0  0  0  0  0  0  0  0  0  0  0
    0.4086   19.9044   43.1559 C   0  0  0  0  0  0  0  0  0  0  0  0
   -0.3354   20.9880   43.4476 N   0  0  0  0  0  0  0  0  0  0  0  0
   -0.8307   21.3629   44.7761 C   0  0  0  0  0  0  0  0  0  0  0  0
   -0.5440   21.6591   42.3263 N   0  0  0  0  0  0  0  0  0  0  0  0
    0.0398   21.0550   41.2912 C   0  0  0  0  0  0  0  0  0  0  0  0
    0.6553   19.9302   41.7983 C   0  0  0  0  0  0  0  0  0  0  0  0
    1.4059   18.9260   41.2138 C   0  0  0  0  0  0  0  0  0  0  0  0
    1.6836   18.9166   39.8107 N   0  0  0  0  0  0  0  0  0  0  0  0
    3.1112   15.8456   42.4996 H   0  0  0  0  0  0  0  0  0  0  0  0
    4.0356   13.9813   43.8344 H   0  0  0  0  0  0  0  0  0  0  0  0
    3.6045   13.9303   46.2258 H   0  0  0  0  0  0  0  0  0  0  0  0
    1.3919   17.4819   46.0144 H   0  0  0  0  0  0  0  0  0  0  0  0
   -0.9754   22.4613   44.7593 H   0  0  0  0  0  0  0  0  0  0  0  0
   -1.8546   20.9462   44.9411 H   0  0  0  0  0  0  0  0  0  0  0  0
   -0.1455   21.0153   45.5539 H   0  0  0  0  0  0  0  0  0  0  0  0
    0.0715   21.3255   40.2417 H   0  0  0  0  0  0  0  0  0  0  0  0
    2.6839   18.7632   39.4904 H   0  0  0  0  0  0  0  0  0  0  0  0
    0.9044   19.0597   39.1273 H   0  0  0  0  0  0  0  0  0  0  0  0
  1  2  2  0
  1  6  1  0
  2  3  1  0
  3  4  2  0
  4  5  1  0
  5  6  2  0
  6  7  1  0
  7  8  2  0
  7  9  1  0
  8 16  1  0
  9 10  2  0
 10 11  1  0
 10 15  1  0
 11 12  1  0
 11 13  1  0
 13 14  2  0
 14 15  1  0
 15 16  2  0
 16 17  1  0
  1 18  1  0
  2 19  1  0
  3 20  1  0
  5 21  1  0
 12 22  1  0
 12 23  1  0
 12 24  1  0
 14 25  1  0
 17 26  1  0
 17 27  1  0
M  END
>  <mol_id>  (68) 
2026-09-17-6fnk-s0-n100-0068

>  <rmsd_to_ref>  (68) 
3.530612244899808

>  <pose_kind>  (68) 
conformer

$$$$
6fnk.A
     RDKit          3D

 27 29  0  0  0  0  0  0  0  0999 V2000
    4.7986   18.3593   44.2538 C   0  0  0  0  0  0  0  0  0  0  0  0
    5.9996   17.9787   44.8530 C   0  0  0  0  0  0  0  0  0  0  0  0
    6.0110   16.9631   45.7979 C   0  0  0  0  0  0  0  0  0  0  0  0
    4.8199   16.3199   46.1456 N   0  0  0  0  0  0  0  0  0  0  0  0
    3.6133   16.7060   45.5425 C   0  0  0  0  0  0  0  0  0  0  0  0
    3.6003   17.7274   44.5945 C   0  0  0  0  0  0  0  0  0  0  0  0
    2.3957   18.1115   43.9966 C   0  0  0  0  0  0  0  0  0  0  0  0
    2.3275   19.2004   43.2183 N   0  0  0  0  0  0  0  0  0  0  0  0
    1.2925   17.3829   44.1947 N   0  0  0  0  0  0  0  0  0  0  0  0
    0.1143   17.7254   43.6440 C   0  0  0  0  0  0  0  0  0  0  0  0
   -1.1055   17.1707   43.7112 N   0  0  0  0  0  0  0  0  0  0  0  0
   -1.4609   15.9602   44.4578 C   0  0  0  0  0  0  0  0  0  0  0  0
   -1.9123   17.8171   43.0416 N   0  0  0  0  0  0  0  0  0  0  0  0
   -1.2394   18.8276   42.4667 C   0  0  0  0  0  0  0  0  0  0  0  0
    0.0408   18.7970   42.8606 C   0  0  0  0  0  0  0  0  0  0  0  0
    1.1592   19.5422   42.6440 C   0  0  0  0  0  0  0  0  0  0  0  0
    1.1196   20.6426   41.8541 N   0  0  0  0  0  0  0  0  0  0  0  0
    4.7953   19.1654   43.5055 H   0  0  0  0  0  0  0  0  0  0  0  0
    6.9369   18.4836   44.5764 H   0  0  0  0  0  0  0  0  0  0  0  0
    6.9569   16.6641   46.2732 H   0  0  0  0  0  0  0  0  0  0  0  0
    2.6757   16.2013   45.8184 H   0  0  0  0  0  0  0  0  0  0  0  0
   -2.3274   16.1683   45.1026 H   0  0  0  0  0  0  0  0  0  0  0  0
   -1.7139   15.1552   43.7520 H   0  0  0  0  0  0  0  0  0  0  0  0
   -0.6081   15.6488   45.0788 H   0  0  0  0  0  0  0  0  0  0  0  0
   -1.6733   19.5671   41.7775 H   0  0  0  0  0  0  0  0  0  0  0  0
    0.2361   20.9224   41.4048 H   0  0  0  0  0  0  0  0  0  0  0  0
    1.9730   21.1992   41.7032 H   0  0  0  0  0  0  0  0  0  0  0  0
  1  2  2  0
  1  6  1  0
  2  3  1  0
  3  4  2  0
  4  5  1  0
  5  6  2  0
  6  7  1  0
  7  8  2  0
  7  9  1  0
  8 16  1  0
  9 10  2  0
 10 11  1  0
 10 15  1  0
 11 12  1  0
 11 13  1  0
 13 14  2  0
 14 15  1  0
 15 16  2  0
 16 17  1  0
  1 18  1  0
  2 19  1  0
  3 20  1  0
  5 21  1  0
 12 22  1  0
 12 23  1  0
 12 24  1  0
 14 25  1  0
 17 26  1  0
 17 27  1  0
M  END
>  <mol_id>  (69) 
2026-09-17-6fnk-s0-n100-0069

>  <rmsd_to_ref>  (69) 
3.5765306122459477

>  <pose_kind>  (69) 
rigid

$$$$
6fnk.A
     RDKit          3D

 27 29  0  0  0  0  0  0  0  0999 V2000
    3.9679   18.4259   42.2152 C   0  0  0  0  0  0  0  0  0  0  0  0
    5.2393   18.4050   42.7534 C   0  0  0  0  0  0  0  0  0  0  0  0
    5.3381   18.6750   44.1225 C   0  0  0  0  0  0  0  0  0  0  0  0
    4.2689   18.9362   44.8601 N   0  0  0  0  0  0  0  0  0  0  0  0
    3.0533   18.9497   44.3144 C   0  0  0  0  0  0  0  0  0  0  0  0
    2.8469   18.6980   42.9803 C   0  0  0  0  0  0  0  0  0  0  0  0
    1.5322   18.7044   42.3497 C   0  0  0  0  0  0  0  0  0  0  0  0
    1.3854   18.4500   41.0328 N   0  0  0  0  0  0  0  0  0  0  0  0
    0.4387   18.9691   43.0925 N   0  0  0  0  0  0  0  0  0  0  0  0
   -0.8081   18.9840   42.5373 C   0  0  0  0  0  0  0  0  0  0  0  0
   -2.0433   19.2106   43.0228 N   0  0  0  0  0  0  0  0  0  0  0  0
   -2.3787   19.5299   44.4144 C   0  0  0  0  0  0  0  0  0  0  0  0
   -2.9059   19.0954   42.0259 N   0  0  0  0  0  0  0  0  0  0  0  0
   -2.2826   18.7979   40.8856 C   0  0  0  0  0  0  0  0  0  0  0  0
   -0.9397   18.7216   41.1888 C   0  0  0  0  0  0  0  0  0  0  0  0
    0.1817   18.4499   40.4256 C   0  0  0  0  0  0  0  0  0  0  0  0
    0.0873   18.1730   39.0255 N   0  0  0  0  0  0  0  0  0  0  0  0
    3.8515   18.2206   41.1535 H   0  0  0  0  0  0  0  0  0  0  0  0
    6.1143   18.1911   42.1487 H   0  0  0  0  0  0  0  0  0  0  0  0
    6.3526   18.6526   44.5232 H   0  0  0  0  0  0  0  0  0  0  0  0
    2.2164   19.1662   44.9509 H   0  0  0  0  0  0  0  0  0  0  0  0
   -3.3331   20.0920   44.3867 H   0  0  0  0  0  0  0  0  0  0  0  0
   -2.6175   18.5965   44.9807 H   0  0  0  0  0  0  0  0  0  0  0  0
   -1.5573   20.0694   44.8935 H   0  0  0  0  0  0  0  0  0  0  0  0
   -2.6750   18.6343   39.8882 H   0  0  0  0  0  0  0  0  0  0  0  0
    0.7330   18.6891   38.3596 H   0  0  0  0  0  0  0  0  0  0  0  0
   -0.6100   17.4729   38.6816 H   0  0  0  0  0  0  0  0  0  0  0  0
  1  2  2  0
  1  6  1  0
  2  3  1  0
  3  4  2  0
  4  5  1  0
  5  6  2  0
  6  7  1  0
  7  8  2  0
  7  9  1  0
  8 16  1  0
  9 10  2  0
 10 11  1  0
 10 15  1  0
 11 12  1  0
 11 13  1  0
 13 14  2  0
 14 15  1  0
 15 16  2  0
 16 17  1  0
  1 18  1  0
  2 19  1  0
  3 20  1  0
  5 21  1  0
 12 22  1  0
 12 23  1  0
 12 24  1  0
 14 25  1  0
 17 26  1  0
 17 27  1  0
M  END
>  <mol_id>  (70) 
2026-09-17-6fnk-s0-n100-0070

>  <rmsd_to_ref>  (70) 
3.6224489795921913

>  <pose_kind>  (70) 
conformer

$$$$
6fnk.A
     RDKit          3D

 27 29  0  0  0  0  0  0  0  0999 V2000
    1.9230   18.6638   40.7333 C   0  0  0  0  0  0  0  0  0  0  0  0
    2.0460   18.6407   39.3440 C   0  0  0  0  0  0  0  0  0  0  0  0
    1.7187   17.4920   38.6386 C   0  0  0  0  0  0  0  0  0  0  0  0
    1.2628   16.3604   39.3204 N   0  0  0  0  0  0  0  0  0  0  0  0
    1.1416   16.3861   40.7181 C   0  0  0  0  0  0  0  0  0  0  0  0
    1.4718   17.5390   41.4280 C   0  0  0  0  0  0  0  0  0  0  0  0
    1.3522   17.5608   42.8213 C   0  0  0  0  0  0  0  0  0  0  0  0
    1.8261   18.5887   43.5389 N   0  0  0  0  0  0  0  0  0  0  0  0
    0.7515   16.5476   43.4535 N   0  0  0  0  0  0  0  0  0  0  0  0
    0.6254   16.5290   44.7923 C   0  0  0  0  0  0  0  0  0  0  0  0
    0.0871   15.6325   45.6329 N   0  0  0  0  0  0  0  0  0  0  0  0
   -0.5449   14.3659   45.2518 C   0  0  0  0  0  0  0  0  0  0  0  0
    0.1834   16.0198   46.7982 N   0  0  0  0  0  0  0  0  0  0  0  0
    0.7723   17.2268   46.7734 C   0  0  0  0  0  0  0  0  0  0  0  0
    1.0817   17.5503   45.5106 C   0  0  0  0  0  0  0  0  0  0  0  0
    1.6876   18.5923   44.8777 C   0  0  0  0  0  0  0  0  0  0  0  0
    2.1674   19.6479   45.5790 N   0  0  0  0  0  0  0  0  0  0  0  0
    2.1840   19.5774   41.2877 H   0  0  0  0  0  0  0  0  0  0  0  0
    2.4021   19.5329   38.8081 H   0  0  0  0  0  0  0  0  0  0  0  0
    1.8182   17.4717   37.5432 H   0  0  0  0  0  0  0  0  0  0  0  0
    0.7852   15.4944   41.2546 H   0  0  0  0  0  0  0  0  0  0  0  0
   -0.1000   13.5447   45.8327 H   0  0  0  0  0  0  0  0  0  0  0  0
   -1.6242   14.4182   45.4579 H   0  0  0  0  0  0  0  0  0  0  0  0
   -0.3850   14.1847   44.1787 H   0  0  0  0  0  0  0  0  0  0  0  0
    0.9704   17.8538   47.6553 H   0  0  0  0  0  0  0  0  0  0  0  0
    2.0721   19.6712   46.6043 H   0  0  0  0  0  0  0  0  0  0  0  0
    2.6275   20.4268   45.0866 H   0  0  0  0  0  0  0  0  0  0  0  0
  1  2  2  0
  1  6  1  0
  2  3  1  0
  3  4  2  0
  4  5  1  0
  5  6  2  0
  6  7  1  0
  7  8  2  0
  7  9  1  0
  8 16  1  0
  9 10  2  0
 10 11  1  0
 10 15  1  0
 11 12  1  0
 11 13  1  0
 13 14  2  0
 14 15  1  0
 15 16  2  0
 16 17  1  0
  1 18  1  0
  2 19  1  0
  3 20  1  0
  5 21  1  0
 12 22  1  0
 12 23  1  0
 12 24  1  0
 14 25  1  0
 17 26  1  0
 17 27  1  0
M  END
>  <mol_id>  (71) 
2026-09-17-6fnk-s0-n100-0071

>  <rmsd_to_ref>  (71) 
3.668367346945241

>  <pose_kind>  (71) 
rigid

$$$$
6fnk.A
     RDKit          3D

 27 29  0  0  0  0  0  0  0  0999 V2000
    5.4121   18.9337   43.8214 C   0  0  0  0  0  0  0  0  0  0  0  0
    6.6995   18.6113   44.2029 C   0  0  0  0  0  0  0  0  0  0  0  0
    6.8267   17.8114   45.3434 C   0  0  0  0  0  0  0  0  0  0  0  0
    5.7686   17.3875   46.0188 N   0  0  0  0  0  0  0  0  0  0  0  0
    4.5372   17.7138   45.6280 C   0  0  0  0  0  0  0  0  0  0  0  0
    4.3026   18.4942   44.5226 C   0  0  0  0  0  0  0  0  0  0  0  0
    2.9699   18.8707   44.0661 C   0  0  0  0  0  0  0  0  0  0  0  0
    2.7955   19.6405   42.9719 N   0  0  0  0  0  0  0  0  0  0  0  0
    1.8875   18.4439   44.7472 N   0  0  0  0  0  0  0  0  0  0  0  0
    0.6246   18.7760   44.3502 C   0  0  0  0  0  0  0  0  0  0  0  0
   -0.6053   18.5003   44.8236 N   0  0  0  0  0  0  0  0  0  0  0  0
   -0.9134   17.6900   46.0066 C   0  0  0  0  0  0  0  0  0  0  0  0
   -1.4918   19.0879   44.0361 N   0  0  0  0  0  0  0  0  0  0  0  0
   -0.8895   19.7497   43.0477 C   0  0  0  0  0  0  0  0  0  0  0  0
    0.4648   19.5641   43.2287 C   0  0  0  0  0  0  0  0  0  0  0  0
    1.5747   20.0026   42.5291 C   0  0  0  0  0  0  0  0  0  0  0  0
    1.4512   20.8206   41.3623 N   0  0  0  0  0  0  0  0  0  0  0  0
    5.2734   19.5543   42.9391 H   0  0  0  0  0  0  0  0  0  0  0  0
    7.5654   18.9589   43.6493 H   0  0  0  0  0  0  0  0  0  0  0  0
    7.8533   17.5710   45.6237 H   0  0  0  0  0  0  0  0  0  0  0  0
    3.7102   17.3475   46.2062 H   0  0  0  0  0  0  0  0  0  0  0  0
   -1.8998   18.0343   46.3754 H   0  0  0  0  0  0  0  0  0  0  0  0
   -1.0780   16.6237   45.7151 H   0  0  0  0  0  0  0  0  0  0  0  0
   -0.1101   17.7661   46.7442 H   0  0  0  0  0  0  0  0  0  0  0  0
   -1.3039   20.3345   42.2342 H   0  0  0  0  0  0  0  0  0  0  0  0
    2.0432   21.6988   41.2908 H   0  0  0  0  0  0  0  0  0  0  0  0
    0.7857   20.5442   40.6037 H   0  0  0  0  0  0  0  0  0  0  0  0
  1  2  2  0
  1  6  1  0
  2  3  1  0
  3  4  2  0
  4  5  1  0
  5  6  2  0
  6  7  1  0
  7  8  2  0
  7  9  1  0
  8 16  1  0
  9 10  2  0
 10 11  1  0
 10 15  1  0
 11 12  1  0
 11 13  1  0
 13 14  2  0
 14 15  1  0
 15 16  2  0
 16 17  1  0
  1 18  1  0
  2 19  1  0
  3 20  1  0
  5 21  1  0
 12 22  1  0
 12 23  1  0
 12 24  1  0
 14 25  1  0
 17 26  1  0
 17 27  1  0
M  END
>  <mol_id>  (72) 
2026-09-17-6fnk-s0-n100-0072

>  <rmsd_to_ref>  (72) 
3.714285714291869

>  <pose_kind>  (72) 
conformer

$$$$
6fnk.A
     RDKit          3D

 27 29  0  0  0  0  0  0  0  0999 V2000
    1.3231   19.7584   40.1294 C   0  0  0  0  0  0  0  0  0  0  0  0
    0.8210   19.3754   38.8855 C   0  0  0  0  0  0  0  0  0  0  0  0
    0.3876   18.0730   38.6845 C   0  0  0  0  0  0  0  0  0  0  0  0
    0.4510   17.1472   39.7296 N   0  0  0  0  0  0  0  0  0  0  0  0
    0.9580   17.5348   40.9792 C   0  0  0  0  0  0  0  0  0  0  0  0
    1.3954   18.8425   41.1819 C   0  0  0  0  0  0  0  0  0  0  0  0
    1.9024   19.2254   42.4278 C   0  0  0  0  0  0  0  0  0  0  0  0
    2.4888   20.4184   42.5976 N   0  0  0  0  0  0  0  0  0  0  0  0
    1.7985   18.3965   43.4715 N   0  0  0  0  0  0  0  0  0  0  0  0
    2.2816   18.7259   44.6827 C   0  0  0  0  0  0  0  0  0  0  0  0
    2.3079   18.0661   45.8507 N   0  0  0  0  0  0  0  0  0  0  0  0
    1.7653   16.7265   46.0953 C   0  0  0  0  0  0  0  0  0  0  0  0
    2.8517   18.7479   46.7206 N   0  0  0  0  0  0  0  0  0  0  0  0
    3.1853   19.9224   46.1607 C   0  0  0  0  0  0  0  0  0  0  0  0
    2.8535   19.9123   44.8628 C   0  0  0  0  0  0  0  0  0  0  0  0
    2.9575   20.7688   43.8097 C   0  0  0  0  0  0  0  0  0  0  0  0
    3.5378   21.9845   43.9566 N   0  0  0  0  0  0  0  0  0  0  0  0
    1.6656   20.7922   40.2833 H   0  0  0  0  0  0  0  0  0  0  0  0
    0.7687   20.1057   38.0646 H   0  0  0  0  0  0  0  0  0  0  0  0
   -0.0057   17.7691   37.7032 H   0  0  0  0  0  0  0  0  0  0  0  0
    1.0102   16.8052   41.8006 H   0  0  0  0  0  0  0  0  0  0  0  0
    2.5360   16.0993   46.5670 H   0  0  0  0  0  0  0  0  0  0  0  0
    0.8936   16.8001   46.7623 H   0  0  0  0  0  0  0  0  0  0  0  0
    1.4589   16.2749   45.1402 H   0  0  0  0  0  0  0  0  0  0  0  0
    3.6587   20.7641   46.6876 H   0  0  0  0  0  0  0  0  0  0  0  0
    3.9033   22.2731   44.8753 H   0  0  0  0  0  0  0  0  0  0  0  0
    3.6133   22.6201   43.1496 H   0  0  0  0  0  0  0  0  0  0  0  0
  1  2  2  0
  1  6  1  0
  2  3  1  0
  3  4  2  0
  4  5  1  0
  5  6  2  0
  6  7  1  0
  7  8  2  0
  7  9  1  0
  8 16  1  0
  9 10  2  0
 10 11  1  0
 10 15  1  0
 11 12  1  0
 11 13  1  0
 13 14  2  0
 14 15  1  0
 15 16  2  0
 16 17  1  0
  1 18  1  0
  2 19  1  0
  3 20  1  0
  5 21  1  0
 12 22  1  0
 12 23  1  0
 12 24  1  0
 14 25  1  0
 17 26  1  0
 17 27  1  0
M  END
>  <mol_id>  (73) 
2026-09-17-6fnk-s0-n100-0073

>  <rmsd_to_ref>  (73) 
3.7602040816334683

>  <pose_kind>  (73) 
rigid

$$$$
6fnk.A
     RDKit          3D

 27 29  0  0  0  0  0  0  0  0999 V2000
   -1.1102   17.5848   39.6425 C   0  0  0  0  0  0  0  0  0  0  0  0
   -1.9439   17.3285   38.5721 C   0  0  0  0  0  0  0  0  0  0  0  0
   -1.6170   16.2213   37.7820 C   0  0  0  0  0  0  0  0  0  0  0  0
   -0.5646   15.4616   38.0484 N   0  0  0  0  0  0  0  0  0  0  0  0
    0.2234   15.7321   39.0884 C   0  0  0  0  0  0  0  0  0  0  0  0
   -0.0092   16.7951   39.9262 C   0  0  0  0  0  0  0  0  0  0  0  0
    0.8311   17.1207   41.0724 C   0  0  0  0  0  0  0  0  0  0  0  0
    0.5571   18.1782   41.8642 N   0  0  0  0  0  0  0  0  0  0  0  0
    1.9039   16.3533   41.3509 N   0  0  0  0  0  0  0  0  0  0  0  0
    2.7135   16.6269   42.4152 C   0  0  0  0  0  0  0  0  0  0  0  0
    3.8210   16.0497   42.9181 N   0  0  0  0  0  0  0  0  0  0  0  0
    4.4936   14.8609   42.3838 C   0  0  0  0  0  0  0  0  0  0  0  0
    4.2003   16.7411   43.9808 N   0  0  0  0  0  0  0  0  0  0  0  0
    3.3772   17.7659   44.2039 C   0  0  0  0  0  0  0  0  0  0  0  0
    2.4183   17.7126   43.2145 C   0  0  0  0  0  0  0  0  0  0  0  0
    1.3177   18.5007   42.9297 C   0  0  0  0  0  0  0  0  0  0  0  0
    0.9782   19.6340   43.7335 N   0  0  0  0  0  0  0  0  0  0  0  0
   -1.3325   18.4377   40.2797 H   0  0  0  0  0  0  0  0  0  0  0  0
   -2.8054   17.9512   38.3547 H   0  0  0  0  0  0  0  0  0  0  0  0
   -2.2908   16.0404   36.9433 H   0  0  0  0  0  0  0  0  0  0  0  0
    1.0644   15.0890   39.2654 H   0  0  0  0  0  0  0  0  0  0  0  0
    5.5530   14.9300   42.7006 H   0  0  0  0  0  0  0  0  0  0  0  0
    4.1091   13.9388   42.8846 H   0  0  0  0  0  0  0  0  0  0  0  0
    4.3552   14.7952   41.3013 H   0  0  0  0  0  0  0  0  0  0  0  0
    3.3892   18.5260   44.9770 H   0  0  0  0  0  0  0  0  0  0  0  0
    0.7716   20.5570   43.2515 H   0  0  0  0  0  0  0  0  0  0  0  0
    0.9388   19.5378   44.7746 H   0  0  0  0  0  0  0  0  0  0  0  0
  1  2  2  0
  1  6  1  0
  2  3  1  0
  3  4  2  0
  4  5  1  0
  5  6  2  0
  6  7  1  0
  7  8  2  0
  7  9  1  0
  8 16  1  0
  9 10  2  0
 10 11  1  0
 10 15  1  0
 11 12  1  0
 11 13  1  0
 13 14  2  0
 14 15  1  0
 15 16  2  0
 16 17  1  0
  1 18  1  0
  2 19  1  0
  3 20  1  0
  5 21  1  0
 12 22  1  0
 12 23  1  0
 12 24  1  0
 14 25  1  0
 17 26  1  0
 17 27  1  0
M  END
>  <mol_id>  (74) 
2026-09-17-6fnk-s0-n100-0074

>  <rmsd_to_ref>  (74) 
3.8061224489839853

>  <pose_kind>  (74) 
conformer

$$$$
6fnk.A
     RDKit          3D

 27 29  0  0  0  0  0  0  0  0999 V2000
    2.4123   19.5239   42.0219 C   0  0  0  0  0  0  0  0  0  0  0  0
    3.3947   19.8271   41.0790 C   0  0  0  0  0  0  0  0  0  0  0  0
    3.8809   18.8338   40.2413 C   0  0  0  0  0  0  0  0  0  0  0  0
    3.3832   17.5316   40.3407 N   0  0  0  0  0  0  0  0  0  0  0  0
    2.3962   17.2294   41.2912 C   0  0  0  0  0  0  0  0  0  0  0  0
    1.9083   18.2259   42.1344 C   0  0  0  0  0  0  0  0  0  0  0  0
    0.9262   17.9212   43.0824 C   0  0  0  0  0  0  0  0  0  0  0  0
    0.5685   18.8125   44.0171 N   0  0  0  0  0  0  0  0  0  0  0  0
    0.3261   16.7269   43.0582 N   0  0  0  0  0  0  0  0  0  0  0  0
   -0.6164   16.3944   43.9583 C   0  0  0  0  0  0  0  0  0  0  0  0
   -1.3320   15.2741   44.1395 N   0  0  0  0  0  0  0  0  0  0  0  0
   -1.2476   14.0574   43.3262 C   0  0  0  0  0  0  0  0  0  0  0  0
   -2.0982   15.4000   45.0957 N   0  0  0  0  0  0  0  0  0  0  0  0
   -1.9407   16.6444   45.5759 C   0  0  0  0  0  0  0  0  0  0  0  0
   -0.9858   17.2770   44.8811 C   0  0  0  0  0  0  0  0  0  0  0  0
   -0.3883   18.5000   44.9106 C   0  0  0  0  0  0  0  0  0  0  0  0
   -0.7378   19.4226   45.8396 N   0  0  0  0  0  0  0  0  0  0  0  0
    2.0306   20.3153   42.6836 H   0  0  0  0  0  0  0  0  0  0  0  0
    3.7836   20.8529   40.9997 H   0  0  0  0  0  0  0  0  0  0  0  0
    4.6577   19.0710   39.4996 H   0  0  0  0  0  0  0  0  0  0  0  0
    2.0067   16.2038   41.3708 H   0  0  0  0  0  0  0  0  0  0  0  0
   -1.0962   13.1875   43.9822 H   0  0  0  0  0  0  0  0  0  0  0  0
   -2.1811   13.9303   42.7583 H   0  0  0  0  0  0  0  0  0  0  0  0
   -0.4021   14.1413   42.6275 H   0  0  0  0  0  0  0  0  0  0  0  0
   -2.5090   17.0779   46.4121 H   0  0  0  0  0  0  0  0  0  0  0  0
   -1.4676   19.2044   46.5329 H   0  0  0  0  0  0  0  0  0  0  0  0
   -0.2736   20.3420   45.8523 H   0  0  0  0  0  0  0  0  0  0  0  0
  1  2  2  0
  1  6  1  0
  2  3  1  0
  3  4  2  0
  4  5  1  0
  5  6  2  0
  6  7  1  0
  7  8  2  0
  7  9  1  0
  8 16  1  0
  9 10  2  0
 10 11  1  0
 10 15  1  0
 11 12  1  0
 11 13  1  0
 13 14  2  0
 14 15  1  0
 15 16  2  0
 16 17  1  0
  1 18  1  0
  2 19  1  0
  3 20  1  0
  5 21  1  0
 12 22  1  0
 12 23  1  0
 12 24  1  0
 14 25  1  0
 17 26  1  0
 17 27  1  0
M  END
>  <mol_id>  (75) 
2026-09-17-6fnk-s0-n100-0075

>  <rmsd_to_ref>  (75) 
3.8520408163331195

>  <pose_kind>  (75) 
rigid

$$$$
6fnk.A
     RDKit          3D

 27 29  0  0  0  0  0  0  0  0999 V2000
   -1.2900   18.3699   39.5719 C   0  0  0  0  0  0  0  0  0  0  0  0
   -1.7950   18.0261   38.3336 C   0  0  0  0  0  0  0  0  0  0  0  0
   -2.0171   16.6631   38.1105 C   0  0  0  0  0  0  0  0  0  0  0  0
   -1.7564   15.7537   39.0382 N   0  0  0  0  0  0  0  0  0  0  0  0
   -1.2692   16.1137   40.2251 C   0  0  0  0  0  0  0  0  0  0  0  0
   -1.0154   17.4248   40.5453 C   0  0  0  0  0  0  0  0  0  0  0  0
   -0.4829   17.8547   41.8328 C   0  0  0  0  0  0  0  0  0  0  0  0
   -0.2517   19.1577   42.0957 N   0  0  0  0  0  0  0  0  0  0  0  0
   -0.2147   16.9363   42.7826 N   0  0  0  0  0  0  0  0  0  0  0  0
    0.2844   17.3010   43.9995 C   0  0  0  0  0  0  0  0  0  0  0  0
    0.6361   16.6196   45.1062 N   0  0  0  0  0  0  0  0  0  0  0  0
    0.5581   15.1661   45.2864 C   0  0  0  0  0  0  0  0  0  0  0  0
    1.0658   17.4888   46.0067 N   0  0  0  0  0  0  0  0  0  0  0  0
    1.0117   18.7341   45.5339 C   0  0  0  0  0  0  0  0  0  0  0  0
    0.5148   18.6382   44.2512 C   0  0  0  0  0  0  0  0  0  0  0  0
    0.2399   19.5814   43.2774 C   0  0  0  0  0  0  0  0  0  0  0  0
    0.4648   20.9764   43.4992 N   0  0  0  0  0  0  0  0  0  0  0  0
   -1.1042   19.4207   39.7820 H   0  0  0  0  0  0  0  0  0  0  0  0
   -2.0082   18.7714   37.5745 H   0  0  0  0  0  0  0  0  0  0  0  0
   -2.4162   16.4179   37.1252 H   0  0  0  0  0  0  0  0  0  0  0  0
   -1.0733   15.3423   40.9456 H   0  0  0  0  0  0  0  0  0  0  0  0
    1.3141   14.9032   46.0524 H   0  0  0  0  0  0  0  0  0  0  0  0
   -0.4202   14.8835   45.7472 H   0  0  0  0  0  0  0  0  0  0  0  0
    0.6942   14.6527   44.3308 H   0  0  0  0  0  0  0  0  0  0  0  0
    1.2821   19.6772   45.9955 H   0  0  0  0  0  0  0  0  0  0  0  0
    0.9944   21.5302   42.7646 H   0  0  0  0  0  0  0  0  0  0  0  0
    0.1074   21.4262   44.3737 H   0  0  0  0  0  0  0  0  0  0  0  0
  1  2  2  0
  1  6  1  0
  2  3  1  0
  3  4  2  0
  4  5  1  0
  5  6  2  0
  6  7  1  0
  7  8  2  0
  7  9  1  0
  8 16  1  0
  9 10  2  0
 10 11  1  0
 10 15  1  0
 11 12  1  0
 11 13  1  0
 13 14  2  0
 14 15  1  0
 15 16  2  0
 16 17  1  0
  1 18  1  0
  2 19  1  0
  3 20  1  0
  5 21  1  0
 12 22  1  0
 12 23  1  0
 12 24  1  0
 14 25  1  0
 17 26  1  0
 17 27  1  0
M  END
>  <mol_id>  (76) 
2026-09-17-6fnk-s0-n100-0076

>  <rmsd_to_ref>  (76) 
3.8979591836735072

>  <pose_kind>  (76) 
conformer

$$$$
6fnk.A
     RDKit          3D

 27 29  0  0  0  0  0  0  0  0999 V2000
    1.1584   17.5904   45.0275 C   0  0  0  0  0  0  0  0  0  0  0  0
    0.8780   16.2436   45.2584 C   0  0  0  0  0  0  0  0  0  0  0  0
   -0.1292   15.6131   44.5426 C   0  0  0  0  0  0  0  0  0  0  0  0
   -0.8593   16.3272   43.5884 N   0  0  0  0  0  0  0  0  0  0  0  0
   -0.5760   17.6822   43.3595 C   0  0  0  0  0  0  0  0  0  0  0  0
    0.4344   18.3172   44.0793 C   0  0  0  0  0  0  0  0  0  0  0  0
    0.7130   19.6685   43.8506 C   0  0  0  0  0  0  0  0  0  0  0  0
    1.5534   20.3446   44.6461 N   0  0  0  0  0  0  0  0  0  0  0  0
    0.1411   20.3006   42.8208 N   0  0  0  0  0  0  0  0  0  0  0  0
    0.3776   21.6014   42.5742 C   0  0  0  0  0  0  0  0  0  0  0  0
   -0.0832   22.4366   41.6306 N   0  0  0  0  0  0  0  0  0  0  0  0
   -1.0233   22.0916   40.5600 C   0  0  0  0  0  0  0  0  0  0  0  0
    0.4020   23.5598   41.7726 N   0  0  0  0  0  0  0  0  0  0  0  0
    1.2446   23.5047   42.8171 C   0  0  0  0  0  0  0  0  0  0  0  0
    1.2194   22.2762   43.3510 C   0  0  0  0  0  0  0  0  0  0  0  0
    1.8149   21.6412   44.3976 C   0  0  0  0  0  0  0  0  0  0  0  0
    2.6754   22.2993   45.2119 N   0  0  0  0  0  0  0  0  0  0  0  0
    1.9581   18.0855   45.5981 H   0  0  0  0  0  0  0  0  0  0  0  0
    1.4552   15.6818   46.0075 H   0  0  0  0  0  0  0  0  0  0  0  0
   -0.3533   14.5519   44.7260 H   0  0  0  0  0  0  0  0  0  0  0  0
   -1.1526   18.2446   42.6103 H   0  0  0  0  0  0  0  0  0  0  0  0
   -1.8567   22.8095   40.5584 H   0  0  0  0  0  0  0  0  0  0  0  0
   -0.5048   22.1295   39.5906 H   0  0  0  0  0  0  0  0  0  0  0  0
   -1.4136   21.0769   40.7276 H   0  0  0  0  0  0  0  0  0  0  0  0
    1.8615   24.3406   43.1789 H   0  0  0  0  0  0  0  0  0  0  0  0
    2.8899   23.2920   45.0401 H   0  0  0  0  0  0  0  0  0  0  0  0
    3.1149   21.8068   46.0026 H   0  0  0  0  0  0  0  0  0  0  0  0
  1  2  2  0
  1  6  1  0
  2  3  1  0
  3  4  2  0
  4  5  1  0
  5  6  2  0
  6  7  1  0
  7  8  2  0
  7  9  1  0
  8 16  1  0
  9 10  2  0
 10 11  1  0
 10 15  1  0
 11 12  1  0
 11 13  1  0
 13 14  2  0
 14 15  1  0
 15 16  2  0
 16 17  1  0
  1 18  1  0
  2 19  1  0
  3 20  1  0
  5 21  1  0
 12 22  1  0
 12 23  1  0
 12 24  1  0
 14 25  1  0
 17 26  1  0
 17 27  1  0
M  END
>  <mol_id>  (77) 
2026-09-17-6fnk-s0-n100-0077

>  <rmsd_to_ref>  (77) 
3.9438775510231

>  <pose_kind>  (77) 
rigid

$$$$
6fnk.A
     RDKit          3D

 27 29  0  0  0  0  0  0  0  0999 V2000
   -0.5490   16.7483   42.6524 C   0  0  0  0  0  0  0  0  0  0  0  0
   -1.8379   16.3188   42.4056 C   0  0  0  0  0  0  0  0  0  0  0  0
   -2.7918   16.6251   43.3820 C   0  0  0  0  0  0  0  0  0  0  0  0
   -2.4734   17.2909   44.4824 N   0  0  0  0  0  0  0  0  0  0  0  0
   -1.2210   17.6936   44.6951 C   0  0  0  0  0  0  0  0  0  0  0  0
   -0.2099   17.4443   43.7999 C   0  0  0  0  0  0  0  0  0  0  0  0
    1.1705   17.8693   43.9996 C   0  0  0  0  0  0  0  0  0  0  0  0
    2.1264   17.5978   43.0869 N   0  0  0  0  0  0  0  0  0  0  0  0
    1.5035   18.5473   45.1163 N   0  0  0  0  0  0  0  0  0  0  0  0
    2.7849   18.9615   45.3378 C   0  0  0  0  0  0  0  0  0  0  0  0
    3.3886   19.6368   46.3340 N   0  0  0  0  0  0  0  0  0  0  0  0
    2.7422   20.1426   47.5496 C   0  0  0  0  0  0  0  0  0  0  0  0
    4.6694   19.7666   46.0276 N   0  0  0  0  0  0  0  0  0  0  0  0
    4.9407   19.1966   44.8533 C   0  0  0  0  0  0  0  0  0  0  0  0
    3.7499   18.6751   44.3936 C   0  0  0  0  0  0  0  0  0  0  0  0
    3.4094   17.9795   43.2475 C   0  0  0  0  0  0  0  0  0  0  0  0
    4.3799   17.6633   42.2454 N   0  0  0  0  0  0  0  0  0  0  0  0
    0.2202   16.5286   41.9156 H   0  0  0  0  0  0  0  0  0  0  0  0
   -2.0976   15.7736   41.5043 H   0  0  0  0  0  0  0  0  0  0  0  0
   -3.8016   16.2750   43.1635 H   0  0  0  0  0  0  0  0  0  0  0  0
   -1.0100   18.2299   45.6007 H   0  0  0  0  0  0  0  0  0  0  0  0
    3.5339   20.2104   48.3216 H   0  0  0  0  0  0  0  0  0  0  0  0
    2.4035   21.1971   47.3996 H   0  0  0  0  0  0  0  0  0  0  0  0
    1.8993   19.5055   47.8299 H   0  0  0  0  0  0  0  0  0  0  0  0
    5.8732   19.1165   44.3059 H   0  0  0  0  0  0  0  0  0  0  0  0
    4.4309   16.6673   41.8819 H   0  0  0  0  0  0  0  0  0  0  0  0
    5.0190   18.4110   41.8889 H   0  0  0  0  0  0  0  0  0  0  0  0
  1  2  2  0
  1  6  1  0
  2  3  1  0
  3  4  2  0
  4  5  1  0
  5  6  2  0
  6  7  1  0
  7  8  2  0
  7  9  1  0
  8 16  1  0
  9 10  2  0
 10 11  1  0
 10 15  1  0
 11 12  1  0
 11 13  1  0
 13 14  2  0
 14 15  1  0
 15 16  2  0
 16 17  1  0
  1 18  1  0
  2 19  1  0
  3 20  1  0
  5 21  1  0
 12 22  1  0
 12 23  1  0
 12 24  1  0
 14 25  1  0
 17 26  1  0
 17 27  1  0
M  END
>  <mol_id>  (78) 
2026-09-17-6fnk-s0-n100-0078

>  <rmsd_to_ref>  (78) 
3.9897959183702714

>  <pose_kind>  (78) 
conformer

$$$$
6fnk.A
     RDKit          3D

 27 29  0  0  0  0  0  0  0  0999 V2000
   -0.5356   14.3870   43.6861 C   0  0  0  0  0  0  0  0  0  0  0  0
   -1.1974   13.5510   44.5856 C   0  0  0  0  0  0  0  0  0  0  0  0
   -1.6516   14.0559   45.7952 C   0  0  0  0  0  0  0  0  0  0  0  0
   -1.4491   15.4026   46.1094 N   0  0  0  0  0  0  0  0  0  0  0  0
   -0.7818   16.2408   45.2033 C   0  0  0  0  0  0  0  0  0  0  0  0
   -0.3233   15.7341   43.9887 C   0  0  0  0  0  0  0  0  0  0  0  0
    0.3435   16.5715   43.0886 C   0  0  0  0  0  0  0  0  0  0  0  0
    0.9455   16.0744   41.9992 N   0  0  0  0  0  0  0  0  0  0  0  0
    0.3798   17.8896   43.3080 N   0  0  0  0  0  0  0  0  0  0  0  0
    1.0185   18.7255   42.4699 C   0  0  0  0  0  0  0  0  0  0  0  0
    1.2002   20.0546   42.4900 N   0  0  0  0  0  0  0  0  0  0  0  0
    0.6966   20.9772   43.5119 C   0  0  0  0  0  0  0  0  0  0  0  0
    1.8533   20.4170   41.5105 N   0  0  0  0  0  0  0  0  0  0  0  0
    2.1083   19.3250   40.7709 C   0  0  0  0  0  0  0  0  0  0  0  0
    1.6076   18.2421   41.3806 C   0  0  0  0  0  0  0  0  0  0  0  0
    1.5700   16.9024   41.1414 C   0  0  0  0  0  0  0  0  0  0  0  0
    2.1628   16.3752   40.0428 N   0  0  0  0  0  0  0  0  0  0  0  0
   -0.1773   13.9813   42.7285 H   0  0  0  0  0  0  0  0  0  0  0  0
   -1.3589   12.4919   44.3360 H   0  0  0  0  0  0  0  0  0  0  0  0
   -2.1709   13.3969   46.5065 H   0  0  0  0  0  0  0  0  0  0  0  0
   -0.6202   17.3000   45.4522 H   0  0  0  0  0  0  0  0  0  0  0  0
    1.5240   21.5996   43.8836 H   0  0  0  0  0  0  0  0  0  0  0  0
   -0.0791   21.6221   43.0735 H   0  0  0  0  0  0  0  0  0  0  0  0
    0.2674   20.4021   44.3455 H   0  0  0  0  0  0  0  0  0  0  0  0
    2.6459   19.3206   39.8114 H   0  0  0  0  0  0  0  0  0  0  0  0
    2.6463   16.9906   39.3731 H   0  0  0  0  0  0  0  0  0  0  0  0
    2.1299   15.3591   39.8774 H   0  0  0  0  0  0  0  0  0  0  0  0
  1  2  2  0
  1  6  1  0
  2  3  1  0
  3  4  2  0
  4  5  1  0
  5  6  2  0
  6  7  1  0
  7  8  2  0
  7  9  1  0
  8 16  1  0
  9 10  2  0
 10 11  1  0
 10 15  1  0
 11 12  1  0
 11 13  1  0
 13 14  2  0
 14 15  1  0
 15 16  2  0
 16 17  1  0
  1 18  1  0
  2 19  1  0
  3 20  1  0
  5 21  1  0
 12 22  1  0
 12 23  1  0
 12 24  1  0
 14 25  1  0
 17 26  1  0
 17 27  1  0
M  END
>  <mol_id>  (79) 
2026-09-17-6fnk-s0-n100-0079

>  <rmsd_to_ref>  (79) 
4.035714285716131

>  <pose_kind>  (79) 
rigid

$$$$
6fnk.A
     RDKit          3D

 27 29  0  0  0  0  0  0  0  0999 V2000
    3.2046   18.7473   39.8779 C   0  0  0  0  0  0  0  0  0  0  0  0
    3.4479   18.8266   38.5210 C   0  0  0  0  0  0  0  0  0  0  0  0
    2.3829   18.4897   37.6789 C   0  0  0  0  0  0  0  0  0  0  0  0
    1.2063   18.1154   38.1592 N   0  0  0  0  0  0  0  0  0  0  0  0
    0.9990   18.0476   39.4739 C   0  0  0  0  0  0  0  0  0  0  0  0
    1.9777   18.3571   40.3862 C   0  0  0  0  0  0  0  0  0  0  0  0
    1.7864   18.2942   41.8303 C   0  0  0  0  0  0  0  0  0  0  0  0
    2.7830   18.6093   42.6835 N   0  0  0  0  0  0  0  0  0  0  0  0
    0.5924   17.9143   42.3280 N   0  0  0  0  0  0  0  0  0  0  0  0
    0.3762   17.8437   43.6738 C   0  0  0  0  0  0  0  0  0  0  0  0
   -0.6838   17.5060   44.4322 N   0  0  0  0  0  0  0  0  0  0  0  0
   -2.0004   17.0887   43.9389 C   0  0  0  0  0  0  0  0  0  0  0  0
   -0.3330   17.6155   45.7036 N   0  0  0  0  0  0  0  0  0  0  0  0
    0.9330   18.0173   45.8178 C   0  0  0  0  0  0  0  0  0  0  0  0
    1.4067   18.1696   44.5319 C   0  0  0  0  0  0  0  0  0  0  0  0
    2.6323   18.5594   44.0223 C   0  0  0  0  0  0  0  0  0  0  0  0
    3.7250   18.9051   44.8781 N   0  0  0  0  0  0  0  0  0  0  0  0
    4.0090   19.0017   40.5641 H   0  0  0  0  0  0  0  0  0  0  0  0
    4.4118   19.1331   38.1286 H   0  0  0  0  0  0  0  0  0  0  0  0
    2.6006   18.5604   36.6122 H   0  0  0  0  0  0  0  0  0  0  0  0
    0.0296   17.7395   39.8170 H   0  0  0  0  0  0  0  0  0  0  0  0
   -2.4512   16.4645   44.7356 H   0  0  0  0  0  0  0  0  0  0  0  0
   -2.6810   17.9711   43.8533 H   0  0  0  0  0  0  0  0  0  0  0  0
   -1.9066   16.5820   42.9747 H   0  0  0  0  0  0  0  0  0  0  0  0
    1.5368   18.2076   46.6981 H   0  0  0  0  0  0  0  0  0  0  0  0
    4.6758   18.4720   44.6903 H   0  0  0  0  0  0  0  0  0  0  0  0
    3.5727   19.5732   45.6687 H   0  0  0  0  0  0  0  0  0  0  0  0
  1  2  2  0
  1  6  1  0
  2  3  1  0
  3  4  2  0
  4  5  1  0
  5  6  2  0
  6  7  1  0
  7  8  2  0
  7  9  1  0
  8 16  1  0
  9 10  2  0
 10 11  1  0
 10 15  1  0
 11 12  1  0
 11 13  1  0
 13 14  2  0
 14 15  1  0
 15 16  2  0
 16 17  1  0
  1 18  1  0
  2 19  1  0
  3 20  1  0
  5 21  1  0
 12 22  1  0
 12 23  1  0
 12 24  1  0
 14 25  1  0
 17 26  1  0
 17 27  1  0
M  END
>  <mol_id>  (80) 
2026-09-17-6fnk-s0-n100-0080

>  <rmsd_to_ref>  (80) 
4.08163265306494

>  <pose_kind>  (80) 
conformer

$$$$
6fnk.A
     RDKit          3D

 27 29  0  0  0  0  0  0  0  0999 V2000
    3.7834   14.3707   44.8882 C   0  0  0  0  0  0  0  0  0  0  0  0
    4.7173   13.3347   44.8675 C   0  0  0  0  0  0  0  0  0  0  0  0
    5.2121   12.8722   43.6569 C   0  0  0  0  0  0  0  0  0  0  0  0
    4.7773   13.4473   42.4596 N   0  0  0  0  0  0  0  0  0  0  0  0
    3.8368   14.4883   42.4835 C   0  0  0  0  0  0  0  0  0  0  0  0
    3.3375   14.9525   43.6990 C   0  0  0  0  0  0  0  0  0  0  0  0
    2.3983   15.9887   43.7195 C   0  0  0  0  0  0  0  0  0  0  0  0
    1.7746   16.3328   44.8547 N   0  0  0  0  0  0  0  0  0  0  0  0
    2.1179   16.6548   42.5950 N   0  0  0  0  0  0  0  0  0  0  0  0
    1.2146   17.6510   42.5735 C   0  0  0  0  0  0  0  0  0  0  0  0
    0.7648   18.4366   41.5832 N   0  0  0  0  0  0  0  0  0  0  0  0
    1.1958   18.3887   40.1828 C   0  0  0  0  0  0  0  0  0  0  0  0
   -0.0727   19.2330   42.0091 N   0  0  0  0  0  0  0  0  0  0  0  0
   -0.1903   19.0243   43.3308 C   0  0  0  0  0  0  0  0  0  0  0  0
    0.6005   18.0070   43.6975 C   0  0  0  0  0  0  0  0  0  0  0  0
    0.8839   17.3419   44.8511 C   0  0  0  0  0  0  0  0  0  0  0  0
    0.2740   17.6759   46.0143 N   0  0  0  0  0  0  0  0  0  0  0  0
    3.3942   14.7335   45.8510 H   0  0  0  0  0  0  0  0  0  0  0  0
    5.0611   12.8847   45.8105 H   0  0  0  0  0  0  0  0  0  0  0  0
    5.9463   12.0532   43.6392 H   0  0  0  0  0  0  0  0  0  0  0  0
    3.4927   14.9390   41.5409 H   0  0  0  0  0  0  0  0  0  0  0  0
    0.3136   18.3144   39.5300 H   0  0  0  0  0  0  0  0  0  0  0  0
    1.7558   19.3038   39.9400 H   0  0  0  0  0  0  0  0  0  0  0  0
    1.8415   17.5117   40.0277 H   0  0  0  0  0  0  0  0  0  0  0  0
   -0.8372   19.6007   44.0085 H   0  0  0  0  0  0  0  0  0  0  0  0
   -0.4109   18.4450   46.0343 H   0  0  0  0  0  0  0  0  0  0  0  0
    0.4954   17.1607   46.8782 H   0  0  0  0  0  0  0  0  0  0  0  0
  1  2  2  0
  1  6  1  0
  2  3  1  0
  3  4  2  0
  4  5  1  0
  5  6  2  0
  6  7  1  0
  7  8  2  0
  7  9  1  0
  8 16  1  0
  9 10  2  0
 10 11  1  0
 10 15  1  0
 11 12  1  0
 11 13  1  0
 13 14  2  0
 14 15  1  0
 15 16  2  0
 16 17  1  0
  1 18  1  0
  2 19  1  0
  3 20  1  0
  5 21  1  0
 12 22  1  0
 12 23  1  0
 12 24  1  0
 14 25  1  0
 17 26  1  0
 17 27  1  0
M  END
>  <mol_id>  (81) 
2026-09-17-6fnk-s0-n100-0081

>  <rmsd_to_ref>  (81) 
4.127551020409601

>  <pose_kind>  (81) 
rigid

$$$$
6fnk.A
     RDKit          3D

 27 29  0  0  0  0  0  0  0  0999 V2000
    3.2584   15.7369   42.1750 C   0  0  0  0  0  0  0  0  0  0  0  0
    3.7030   14.5789   41.5684 C   0  0  0  0  0  0  0  0  0  0  0  0
    4.6466   14.7360   40.5476 C   0  0  0  0  0  0  0  0  0  0  0  0
    5.0878   15.9313   40.1846 N   0  0  0  0  0  0  0  0  0  0  0  0
    4.6414   17.0327   40.7873 C   0  0  0  0  0  0  0  0  0  0  0  0
    3.7153   16.9887   41.8005 C   0  0  0  0  0  0  0  0  0  0  0  0
    3.2049   18.1723   42.4819 C   0  0  0  0  0  0  0  0  0  0  0  0
    2.2942   18.0724   43.4725 N   0  0  0  0  0  0  0  0  0  0  0  0
    3.6482   19.3926   42.1191 N   0  0  0  0  0  0  0  0  0  0  0  0
    3.1934   20.5232   42.7340 C   0  0  0  0  0  0  0  0  0  0  0  0
    3.4521   21.8358   42.5835 N   0  0  0  0  0  0  0  0  0  0  0  0
    4.3850   22.4269   41.6185 C   0  0  0  0  0  0  0  0  0  0  0  0
    2.7177   22.5039   43.4586 N   0  0  0  0  0  0  0  0  0  0  0  0
    1.9740   21.6748   44.1913 C   0  0  0  0  0  0  0  0  0  0  0  0
    2.2620   20.4023   43.7452 C   0  0  0  0  0  0  0  0  0  0  0  0
    1.8064   19.1506   44.1184 C   0  0  0  0  0  0  0  0  0  0  0  0
    0.8419   18.9834   45.1612 N   0  0  0  0  0  0  0  0  0  0  0  0
    2.5244   15.6544   42.9732 H   0  0  0  0  0  0  0  0  0  0  0  0
    3.3412   13.6004   41.8664 H   0  0  0  0  0  0  0  0  0  0  0  0
    4.9817   13.8067   40.0847 H   0  0  0  0  0  0  0  0  0  0  0  0
    5.0273   17.9794   40.4598 H   0  0  0  0  0  0  0  0  0  0  0  0
    4.0312   23.4600   41.4313 H   0  0  0  0  0  0  0  0  0  0  0  0
    5.3942   22.5541   42.0814 H   0  0  0  0  0  0  0  0  0  0  0  0
    4.4509   21.8083   40.7195 H   0  0  0  0  0  0  0  0  0  0  0  0
    1.2675   21.8775   44.9884 H   0  0  0  0  0  0  0  0  0  0  0  0
   -0.0011   18.3640   44.9809 H   0  0  0  0  0  0  0  0  0  0  0  0
    0.9800   19.4692   46.0776 H   0  0  0  0  0  0  0  0  0  0  0  0
  1  2  2  0
  1  6  1  0
  2  3  1  0
  3  4  2  0
  4  5  1  0
  5  6  2  0
  6  7  1  0
  7  8  2  0
  7  9  1  0
  8 16  1  0
  9 10  2  0
 10 11  1  0
 10 15  1  0
 11 12  1  0
 11 13  1  0
 13 14  2  0
 14 15  1  0
 15 16  2  0
 16 17  1  0
  1 18  1  0
  2 19  1  0
  3 20  1  0
  5 21  1  0
 12 22  1  0
 12 23  1  0
 12 24  1  0
 14 25  1  0
 17 26  1  0
 17 27  1  0
M  END
>  <mol_id>  (82) 
2026-09-17-6fnk-s0-n100-0082

>  <rmsd_to_ref>  (82) 
4.173469387755513

>  <pose_kind>  (82) 
conformer

$$$$
6fnk.A
     RDKit          3D

 27 29  0  0  0  0  0  0  0  0999 V2000
   -0.4397   18.1137   39.5455 C   0  0  0  0  0  0  0  0  0  0  0  0
   -1.3793   17.5371   38.6907 C   0  0  0  0  0  0  0  0  0  0  0  0
   -2.2465   16.5656   39.1688 C   0  0  0  0  0  0  0  0  0  0  0  0
   -2.1803   16.1686   40.5071 N   0  0  0  0  0  0  0  0  0  0  0  0
   -1.2331   16.7493   41.3642 C   0  0  0  0  0  0  0  0  0  0  0  0
   -0.3601   17.7239   40.8846 C   0  0  0  0  0  0  0  0  0  0  0  0
    0.5845   18.2991   41.7406 C   0  0  0  0  0  0  0  0  0  0  0  0
    1.5453   19.1047   41.2673 N   0  0  0  0  0  0  0  0  0  0  0  0
    0.5307   18.0516   43.0533 N   0  0  0  0  0  0  0  0  0  0  0  0
    1.4264   18.5795   43.9064 C   0  0  0  0  0  0  0  0  0  0  0  0
    1.5806   18.4642   45.2342 N   0  0  0  0  0  0  0  0  0  0  0  0
    0.7337   17.6758   46.1341 C   0  0  0  0  0  0  0  0  0  0  0  0
    2.5441   19.1292   45.6172 N   0  0  0  0  0  0  0  0  0  0  0  0
    3.0576   19.7494   44.5421 C   0  0  0  0  0  0  0  0  0  0  0  0
    2.3752   19.3894   43.4468 C   0  0  0  0  0  0  0  0  0  0  0  0
    2.4351   19.6563   42.1131 C   0  0  0  0  0  0  0  0  0  0  0  0
    3.3910   20.4744   41.6098 N   0  0  0  0  0  0  0  0  0  0  0  0
    0.2457   18.8835   39.1611 H   0  0  0  0  0  0  0  0  0  0  0  0
   -1.4324   17.8526   37.6382 H   0  0  0  0  0  0  0  0  0  0  0  0
   -2.9858   16.1082   38.4949 H   0  0  0  0  0  0  0  0  0  0  0  0
   -1.1795   16.4345   42.4168 H   0  0  0  0  0  0  0  0  0  0  0  0
    1.3647   17.0137   46.7453 H   0  0  0  0  0  0  0  0  0  0  0  0
    0.1678   18.3523   46.7915 H   0  0  0  0  0  0  0  0  0  0  0  0
    0.0330   17.0698   45.5411 H   0  0  0  0  0  0  0  0  0  0  0  0
    3.9085   20.4463   44.5583 H   0  0  0  0  0  0  0  0  0  0  0  0
    4.0820   20.9072   42.2392 H   0  0  0  0  0  0  0  0  0  0  0  0
    3.4265   20.6635   40.5980 H   0  0  0  0  0  0  0  0  0  0  0  0
  1  2  2  0
  1  6  1  0
  2  3  1  0
  3  4  2  0
  4  5  1  0
  5  6  2  0
  6  7  1  0
  7  8  2  0
  7  9  1  0
  8 16  1  0
  9 10  2  0
 10 11  1  0
 10 15  1  0
 11 12  1  0
 11 13  1  0
 13 14  2  0
 14 15  1  0
 15 16  2  0
 16 17  1  0
  1 18  1  0
  2 19  1  0
  3 20  1  0
  5 21  1  0
 12 22  1  0
 12 23  1  0
 12 24  1  0
 14 25  1  0
 17 26  1  0
 17 27  1  0
M  END
>  <mol_id>  (83) 
2026-09-17-6fnk-s0-n100-0083

>  <rmsd_to_ref>  (83) 
4.219387755102335

>  <pose_kind>  (83) 
rigid

$$$$
6fnk.A
     RDKit          3D

 27 29  0  0  0  0  0  0  0  0999 V2000
   -0.7641   18.3277   43.1081 C   0  0  0  0  0  0  0  0  0  0  0  0
   -1.8566   17.6327   43.5875 C   0  0  0  0  0  0  0  0  0  0  0  0
   -1.6190   16.7655   44.6591 C   0  0  0  0  0  0  0  0  0  0  0  0
   -0.4110   16.6207   45.1836 N   0  0  0  0  0  0  0  0  0  0  0  0
    0.6261   17.3043   44.7010 C   0  0  0  0  0  0  0  0  0  0  0  0
    0.5005   18.1810   43.6515 C   0  0  0  0  0  0  0  0  0  0  0  0
    1.6124   18.9450   43.0981 C   0  0  0  0  0  0  0  0  0  0  0  0
    1.4335   19.7940   42.0648 N   0  0  0  0  0  0  0  0  0  0  0  0
    2.8450   18.8040   43.6255 N   0  0  0  0  0  0  0  0  0  0  0  0
    3.9097   19.5023   43.1341 C   0  0  0  0  0  0  0  0  0  0  0  0
    5.2162   19.5596   43.4543 N   0  0  0  0  0  0  0  0  0  0  0  0
    5.8772   18.8034   44.5230 C   0  0  0  0  0  0  0  0  0  0  0  0
    5.8041   20.4182   42.6366 N   0  0  0  0  0  0  0  0  0  0  0  0
    4.9272   20.9379   41.7773 C   0  0  0  0  0  0  0  0  0  0  0  0
    3.7088   20.3663   42.0769 C   0  0  0  0  0  0  0  0  0  0  0  0
    2.4444   20.5118   41.5349 C   0  0  0  0  0  0  0  0  0  0  0  0
    2.1949   21.3968   40.4393 N   0  0  0  0  0  0  0  0  0  0  0  0
   -0.9101   19.0117   42.2751 H   0  0  0  0  0  0  0  0  0  0  0  0
   -2.8455   17.7518   43.1574 H   0  0  0  0  0  0  0  0  0  0  0  0
   -2.4978   16.2286   45.0192 H   0  0  0  0  0  0  0  0  0  0  0  0
    1.5861   17.1547   45.1577 H   0  0  0  0  0  0  0  0  0  0  0  0
    6.9422   18.7123   44.2314 H   0  0  0  0  0  0  0  0  0  0  0  0
    5.8937   19.3996   45.4680 H   0  0  0  0  0  0  0  0  0  0  0  0
    5.3752   17.8455   44.6828 H   0  0  0  0  0  0  0  0  0  0  0  0
    5.0625   21.6617   40.9813 H   0  0  0  0  0  0  0  0  0  0  0  0
    1.6465   21.0338   39.6059 H   0  0  0  0  0  0  0  0  0  0  0  0
    2.5529   22.3793   40.4749 H   0  0  0  0  0  0  0  0  0  0  0  0
  1  2  2  0
  1  6  1  0
  2  3  1  0
  3  4  2  0
  4  5  1  0
  5  6  2  0
  6  7  1  0
  7  8  2  0
  7  9  1  0
  8 16  1  0
  9 10  2  0
 10 11  1  0
 10 15  1  0
 11 12  1  0
 11 13  1  0
 13 14  2  0
 14 15  1  0
 15 16  2  0
 16 17  1  0
  1 18  1  0
  2 19  1  0
  3 20  1  0
  5 21  1  0
 12 22  1  0
 12 23  1  0
 12 24  1  0
 14 25  1  0
 17 26  1  0
 17 27  1  0
M  END
>  <mol_id>  (84) 
2026-09-17-6fnk-s0-n100-0084

>  <rmsd_to_ref>  (84) 
4.265306122453909

>  <pose_kind>  (84) 
conformer

$$$$
6fnk.A
     RDKit          3D

 27 29  0  0  0  0  0  0  0  0999 V2000
   -2.3435   15.9993   43.8276 C   0  0  0  0  0  0  0  0  0  0  0  0
   -3.5347   15.5052   44.3592 C   0  0  0  0  0  0  0  0  0  0  0  0
   -3.8791   15.7922   45.6721 C   0  0  0  0  0  0  0  0  0  0  0  0
   -3.0339   16.5793   46.4592 N   0  0  0  0  0  0  0  0  0  0  0  0
   -1.8356   17.0736   45.9221 C   0  0  0  0  0  0  0  0  0  0  0  0
   -1.4876   16.7843   44.6040 C   0  0  0  0  0  0  0  0  0  0  0  0
   -0.2914   17.2765   44.0722 C   0  0  0  0  0  0  0  0  0  0  0  0
    0.1497   16.8712   42.8734 N   0  0  0  0  0  0  0  0  0  0  0  0
    0.4252   18.1700   44.7615 N   0  0  0  0  0  0  0  0  0  0  0  0
    1.5845   18.6594   44.2869 C   0  0  0  0  0  0  0  0  0  0  0  0
    2.4669   19.5336   44.7942 N   0  0  0  0  0  0  0  0  0  0  0  0
    2.3566   20.2166   46.0867 C   0  0  0  0  0  0  0  0  0  0  0  0
    3.4045   19.7043   44.0138 N   0  0  0  0  0  0  0  0  0  0  0  0
    3.1601   18.9598   42.9228 C   0  0  0  0  0  0  0  0  0  0  0  0
    2.0230   18.2721   43.0932 C   0  0  0  0  0  0  0  0  0  0  0  0
    1.2976   17.3691   42.3776 C   0  0  0  0  0  0  0  0  0  0  0  0
    1.7166   16.9496   41.1591 N   0  0  0  0  0  0  0  0  0  0  0  0
   -2.0752   15.7683   42.7861 H   0  0  0  0  0  0  0  0  0  0  0  0
   -4.2006   14.8882   43.7379 H   0  0  0  0  0  0  0  0  0  0  0  0
   -4.8168   15.4007   46.0933 H   0  0  0  0  0  0  0  0  0  0  0  0
   -1.1693   17.6907   46.5428 H   0  0  0  0  0  0  0  0  0  0  0  0
    3.2862   20.0740   46.6572 H   0  0  0  0  0  0  0  0  0  0  0  0
    2.1896   21.2910   45.9204 H   0  0  0  0  0  0  0  0  0  0  0  0
    1.5114   19.7972   46.6519 H   0  0  0  0  0  0  0  0  0  0  0  0
    3.7963   18.9207   42.0263 H   0  0  0  0  0  0  0  0  0  0  0  0
    2.5922   17.3177   40.7607 H   0  0  0  0  0  0  0  0  0  0  0  0
    1.1594   16.2626   40.6313 H   0  0  0  0  0  0  0  0  0  0  0  0
  1  2  2  0
  1  6  1  0
  2  3  1  0
  3  4  2  0
  4  5  1  0
  5  6  2  0
  6  7  1  0
  7  8  2  0
  7  9  1  0
  8 16  1  0
  9 10  2  0
 10 11  1  0
 10 15  1  0
 11 12  1  0
 11 13  1  0
 13 14  2  0
 14 15  1  0
 15 16  2  0
 16 17  1  0
  1 18  1  0
  2 19  1  0
  3 20  1  0
  5 21  1  0
 12 22  1  0
 12 23  1  0
 12 24  1  0
 14 25  1  0
 17 26  1  0
 17 27  1  0
M  END
>  <mol_id>  (85) 
2026-09-17-6fnk-s0-n100-0085

>  <rmsd_to_ref>  (85) 
4.311224489798775

>  <pose_kind>  (85) 
rigid

$$$$
6fnk.A
     RDKit          3D

 27 29  0  0  0  0  0  0  0  0999 V2000
    3.5255   20.4089   40.5900 C   0  0  0  0  0  0  0  0  0  0  0  0
    3.7743   20.8065   39.2914 C   0  0  0  0  0  0  0  0  0  0  0  0
    2.8999   20.3181   38.3145 C   0  0  0  0  0  0  0  0  0  0  0  0
    1.8893   19.5180   38.6213 N   0  0  0  0  0  0  0  0  0  0  0  0
    1.6724   19.1500   39.8836 C   0  0  0  0  0  0  0  0  0  0  0  0
    2.4715   19.5733   40.9171 C   0  0  0  0  0  0  0  0  0  0  0  0
    2.2642   19.1911   42.3089 C   0  0  0  0  0  0  0  0  0  0  0  0
    3.0803   19.6361   43.2868 N   0  0  0  0  0  0  0  0  0  0  0  0
    1.2384   18.3775   42.6302 N   0  0  0  0  0  0  0  0  0  0  0  0
    1.0129   17.9983   43.9218 C   0  0  0  0  0  0  0  0  0  0  0  0
    0.0922   17.2175   44.5181 N   0  0  0  0  0  0  0  0  0  0  0  0
   -1.0061   16.5126   43.8488 C   0  0  0  0  0  0  0  0  0  0  0  0
    0.3489   17.1949   45.8162 N   0  0  0  0  0  0  0  0  0  0  0  0
    1.4163   17.9391   46.1061 C   0  0  0  0  0  0  0  0  0  0  0  0
    1.8576   18.4629   44.9093 C   0  0  0  0  0  0  0  0  0  0  0  0
    2.9105   19.2978   44.5808 C   0  0  0  0  0  0  0  0  0  0  0  0
    3.8079   19.8004   45.5747 N   0  0  0  0  0  0  0  0  0  0  0  0
    4.1845   20.7685   41.3770 H   0  0  0  0  0  0  0  0  0  0  0  0
    4.6020   21.4616   39.0411 H   0  0  0  0  0  0  0  0  0  0  0  0
    3.1178   20.6466   37.2973 H   0  0  0  0  0  0  0  0  0  0  0  0
    0.8415   18.5008   40.0847 H   0  0  0  0  0  0  0  0  0  0  0  0
   -1.2594   15.6449   44.4894 H   0  0  0  0  0  0  0  0  0  0  0  0
   -1.9293   17.1423   43.8488 H   0  0  0  0  0  0  0  0  0  0  0  0
   -0.7245   16.2452   42.8268 H   0  0  0  0  0  0  0  0  0  0  0  0
    1.8992   18.1416   47.0555 H   0  0  0  0  0  0  0  0  0  0  0  0
    4.8526   19.7235   45.4034 H   0  0  0  0  0  0  0  0  0  0  0  0
    3.4251   20.2324   46.4475 H   0  0  0  0  0  0  0  0  0  0  0  0
  1  2  2  0
  1  6  1  0
  2  3  1  0
  3  4  2  0
  4  5  1  0
  5  6  2  0
  6  7  1  0
  7  8  2  0
  7  9  1  0
  8 16  1  0
  9 10  2  0
 10 11  1  0
 10 15  1  0
 11 12  1  0
 11 13  1  0
 13 14  2  0
 14 15  1  0
 15 16  2  0
 16 17  1  0
  1 18  1  0
  2 19  1  0
  3 20  1  0
  5 21  1  0
 12 22  1  0
 12 23  1  0
 12 24  1  0
 14 25  1  0
 17 26  1  0
 17 27  1  0
M  END
>  <mol_id>  (86) 
2026-09-17-6fnk-s0-n100-0086

>  <rmsd_to_ref>  (86) 
4.3571428571489275

>  <pose_kind>  (86) 
conformer

$$$$
6fnk.A
     RDKit          3D

 27 29  0  0  0  0  0  0  0  0999 V2000
    1.0209   17.1711   45.2283 C   0  0  0  0  0  0  0  0  0  0  0  0
    0.4516   16.3505   46.2020 C   0  0  0  0  0  0  0  0  0  0  0  0
   -0.7692   16.6898   46.7667 C   0  0  0  0  0  0  0  0  0  0  0  0
   -1.4290   17.8516   46.3566 N   0  0  0  0  0  0  0  0  0  0  0  0
   -0.8532   18.6760   45.3779 C   0  0  0  0  0  0  0  0  0  0  0  0
    0.3741   18.3370   44.8113 C   0  0  0  0  0  0  0  0  0  0  0  0
    0.9467   19.1619   43.8378 C   0  0  0  0  0  0  0  0  0  0  0  0
    2.1986   18.9547   43.4067 N   0  0  0  0  0  0  0  0  0  0  0  0
    0.2384   20.1704   43.3199 N   0  0  0  0  0  0  0  0  0  0  0  0
    0.7577   20.9900   42.3886 C   0  0  0  0  0  0  0  0  0  0  0  0
    0.2555   22.0562   41.7474 N   0  0  0  0  0  0  0  0  0  0  0  0
   -1.0884   22.6141   41.9261 C   0  0  0  0  0  0  0  0  0  0  0  0
    1.0831   22.5171   40.9602 N   0  0  0  0  0  0  0  0  0  0  0  0
    2.1768   21.7402   41.0261 C   0  0  0  0  0  0  0  0  0  0  0  0
    1.9944   20.7840   41.9465 C   0  0  0  0  0  0  0  0  0  0  0  0
    2.7228   19.7547   42.4597 C   0  0  0  0  0  0  0  0  0  0  0  0
    3.9877   19.5180   42.0347 N   0  0  0  0  0  0  0  0  0  0  0  0
    1.9892   16.8973   44.7839 H   0  0  0  0  0  0  0  0  0  0  0  0
    0.9703   15.4347   46.5219 H   0  0  0  0  0  0  0  0  0  0  0  0
   -1.2176   16.0450   47.5369 H   0  0  0  0  0  0  0  0  0  0  0  0
   -1.3715   19.5916   45.0573 H   0  0  0  0  0  0  0  0  0  0  0  0
   -1.0138   23.6932   42.1259 H   0  0  0  0  0  0  0  0  0  0  0  0
   -1.6779   22.4504   41.0119 H   0  0  0  0  0  0  0  0  0  0  0  0
   -1.5818   22.1174   42.7745 H   0  0  0  0  0  0  0  0  0  0  0  0
    3.0838   21.8695   40.4172 H   0  0  0  0  0  0  0  0  0  0  0  0
    4.4085   20.1179   41.3108 H   0  0  0  0  0  0  0  0  0  0  0  0
    4.5281   18.7382   42.4355 H   0  0  0  0  0  0  0  0  0  0  0  0
  1  2  2  0
  1  6  1  0
  2  3  1  0
  3  4  2  0
  4  5  1  0
  5  6  2  0
  6  7  1  0
  7  8  2  0
  7  9  1  0
  8 16  1  0
  9 10  2  0
 10 11  1  0
 10 15  1  0
 11 12  1  0
 11 13  1  0
 13 14  2  0
 14 15  1  0
 15 16  2  0
 16 17  1  0
  1 18  1  0
  2 19  1  0
  3 20  1  0
  5 21  1  0
 12 22  1  0
 12 23  1  0
 12 24  1  0
 14 25  1  0
 17 26  1  0
 17 27  1  0
M  END
>  <mol_id>  (87) 
2026-09-17-6fnk-s0-n100-0087

>  <rmsd_to_ref>  (87) 
4.403061224492224

>  <pose_kind>  (87) 
rigid

$$$$
6fnk.A
     RDKit          3D

 27 29  0  0  0  0  0  0  0  0999 V2000
    1.5488   18.1427   44.9839 C   0  0  0  0  0  0  0  0  0  0  0  0
    2.2954   16.9894   45.1218 C   0  0  0  0  0  0  0  0  0  0  0  0
    3.2665   16.7578   44.1418 C   0  0  0  0  0  0  0  0  0  0  0  0
    3.4574   17.6006   43.1374 N   0  0  0  0  0  0  0  0  0  0  0  0
    2.7222   18.7067   43.0287 C   0  0  0  0  0  0  0  0  0  0  0  0
    1.7433   19.0271   43.9370 C   0  0  0  0  0  0  0  0  0  0  0  0
    0.9203   20.2276   43.8496 C   0  0  0  0  0  0  0  0  0  0  0  0
   -0.0291   20.4949   44.7703 N   0  0  0  0  0  0  0  0  0  0  0  0
    1.1077   21.0906   42.8310 N   0  0  0  0  0  0  0  0  0  0  0  0
    0.3568   22.2246   42.7162 C   0  0  0  0  0  0  0  0  0  0  0  0
    0.3251   23.2373   41.8296 N   0  0  0  0  0  0  0  0  0  0  0  0
    1.1832   23.3776   40.6484 C   0  0  0  0  0  0  0  0  0  0  0  0
   -0.6160   24.0874   42.2075 N   0  0  0  0  0  0  0  0  0  0  0  0
   -1.2160   23.6720   43.3232 C   0  0  0  0  0  0  0  0  0  0  0  0
   -0.6099   22.4822   43.6669 C   0  0  0  0  0  0  0  0  0  0  0  0
   -0.8030   21.5973   44.7125 C   0  0  0  0  0  0  0  0  0  0  0  0
   -1.7942   21.8283   45.7176 N   0  0  0  0  0  0  0  0  0  0  0  0
    0.7839   18.3565   45.7270 H   0  0  0  0  0  0  0  0  0  0  0  0
    2.1383   16.2998   45.9446 H   0  0  0  0  0  0  0  0  0  0  0  0
    3.8423   15.8406   44.2733 H   0  0  0  0  0  0  0  0  0  0  0  0
    2.9124   19.3598   42.1984 H   0  0  0  0  0  0  0  0  0  0  0  0
    0.6238   24.0043   39.9261 H   0  0  0  0  0  0  0  0  0  0  0  0
    2.0923   23.9780   40.8976 H   0  0  0  0  0  0  0  0  0  0  0  0
    1.4668   22.3956   40.2607 H   0  0  0  0  0  0  0  0  0  0  0  0
   -2.0183   24.1169   43.9012 H   0  0  0  0  0  0  0  0  0  0  0  0
   -2.4563   21.0383   45.9712 H   0  0  0  0  0  0  0  0  0  0  0  0
   -1.8515   22.7633   46.1836 H   0  0  0  0  0  0  0  0  0  0  0  0
  1  2  2  0
  1  6  1  0
  2  3  1  0
  3  4  2  0
  4  5  1  0
  5  6  2  0
  6  7  1  0
  7  8  2  0
  7  9  1  0
  8 16  1  0
  9 10  2  0
 10 11  1  0
 10 15  1  0
 11 12  1  0
 11 13  1  0
 13 14  2  0
 14 15  1  0
 15 16  2  0
 16 17  1  0
  1 18  1  0
  2 19  1  0
  3 20  1  0
  5 21  1  0
 12 22  1  0
 12 23  1  0
 12 24  1  0
 14 25  1  0
 17 26  1  0
 17 27  1  0
M  END
>  <mol_id>  (88) 
2026-09-17-6fnk-s0-n100-0088

>  <rmsd_to_ref>  (88) 
4.448979591838181

>  <pose_kind>  (88) 
conformer

$$$$
6fnk.A
     RDKit          3D

 27 29  0  0  0  0  0  0  0  0999 V2000
    4.3614   18.0363   43.4571 C   0  0  0  0  0  0  0  0  0  0  0  0
    5.6808   18.2934   43.0842 C   0  0  0  0  0  0  0  0  0  0  0  0
    6.4349   17.3006   42.4760 C   0  0  0  0  0  0  0  0  0  0  0  0
    5.8706   16.0450   42.2341 N   0  0  0  0  0  0  0  0  0  0  0  0
    4.5438   15.7888   42.6118 C   0  0  0  0  0  0  0  0  0  0  0  0
    3.7857   16.7848   43.2246 C   0  0  0  0  0  0  0  0  0  0  0  0
    2.4643   16.5257   43.6019 C   0  0  0  0  0  0  0  0  0  0  0  0
    1.7743   17.4012   44.3459 N   0  0  0  0  0  0  0  0  0  0  0  0
    1.8713   15.3924   43.2130 N   0  0  0  0  0  0  0  0  0  0  0  0
    0.6052   15.1044   43.5632 C   0  0  0  0  0  0  0  0  0  0  0  0
   -0.1793   14.0455   43.3113 N   0  0  0  0  0  0  0  0  0  0  0  0
    0.1935   12.8652   42.5258 C   0  0  0  0  0  0  0  0  0  0  0  0
   -1.2873   14.1951   43.8281 N   0  0  0  0  0  0  0  0  0  0  0  0
   -1.2921   15.3968   44.4282 C   0  0  0  0  0  0  0  0  0  0  0  0
   -0.0904   15.9729   44.2907 C   0  0  0  0  0  0  0  0  0  0  0  0
    0.4995   17.1346   44.6856 C   0  0  0  0  0  0  0  0  0  0  0  0
   -0.1788   18.0407   45.4307 N   0  0  0  0  0  0  0  0  0  0  0  0
    3.7681   18.8271   43.9393 H   0  0  0  0  0  0  0  0  0  0  0  0
    6.1229   19.2829   43.2724 H   0  0  0  0  0  0  0  0  0  0  0  0
    7.4764   17.5013   42.1843 H   0  0  0  0  0  0  0  0  0  0  0  0
    4.1009   14.7996   42.4237 H   0  0  0  0  0  0  0  0  0  0  0  0
   -0.0212   11.9557   43.1062 H   0  0  0  0  0  0  0  0  0  0  0  0
   -0.3861   12.8488   41.5909 H   0  0  0  0  0  0  0  0  0  0  0  0
    1.2672   12.9053   42.2908 H   0  0  0  0  0  0  0  0  0  0  0  0
   -2.1515   15.8402   44.9524 H   0  0  0  0  0  0  0  0  0  0  0  0
   -1.1553   17.8570   45.7018 H   0  0  0  0  0  0  0  0  0  0  0  0
    0.2823   18.9133   45.7258 H   0  0  0  0  0  0  0  0  0  0  0  0
  1  2  2  0
  1  6  1  0
  2  3  1  0
  3  4  2  0
  4  5  1  0
  5  6  2  0
  6  7  1  0
  7  8  2  0
  7  9  1  0
  8 16  1  0
  9 10  2  0
 10 11  1  0
 10 15  1  0
 11 12  1  0
 11 13  1  0
 13 14  2  0
 14 15  1  0
 15 16  2  0
 16 17  1  0
  1 18  1  0
  2 19  1  0
  3 20  1  0
  5 21  1  0
 12 22  1  0
 12 23  1  0
 12 24  1  0
 14 25  1  0
 17 26  1  0
 17 27  1  0
M  END
>  <mol_id>  (89) 
2026-09-17-6fnk-s0-n100-0089

>  <rmsd_to_ref>  (89) 
4.4948979591841365

>  <pose_kind>  (89) 
rigid

$$$$
6fnk.A
     RDKit          3D

 27 29  0  0  0  0  0  0  0  0999 V2000
    0.6479   15.1605   43.8133 C   0  0  0  0  0  0  0  0  0  0  0  0
   -0.3583   14.7849   44.6809 C   0  0  0  0  0  0  0  0  0  0  0  0
   -1.0708   15.8225   45.2916 C   0  0  0  0  0  0  0  0  0  0  0  0
   -0.7930   17.0951   45.0492 N   0  0  0  0  0  0  0  0  0  0  0  0
    0.1840   17.4293   44.2069 C   0  0  0  0  0  0  0  0  0  0  0  0
    0.9430   16.4882   43.5557 C   0  0  0  0  0  0  0  0  0  0  0  0
    2.0190   16.8173   42.6283 C   0  0  0  0  0  0  0  0  0  0  0  0
    2.7346   15.8522   42.0145 N   0  0  0  0  0  0  0  0  0  0  0  0
    2.3084   18.1095   42.3756 N   0  0  0  0  0  0  0  0  0  0  0  0
    3.3083   18.4559   41.5137 C   0  0  0  0  0  0  0  0  0  0  0  0
    3.8042   19.6315   41.0835 N   0  0  0  0  0  0  0  0  0  0  0  0
    3.3370   20.9632   41.4824 C   0  0  0  0  0  0  0  0  0  0  0  0
    4.7888   19.3786   40.2363 N   0  0  0  0  0  0  0  0  0  0  0  0
    4.9663   18.0658   40.0868 C   0  0  0  0  0  0  0  0  0  0  0  0
    4.0301   17.4558   40.8946 C   0  0  0  0  0  0  0  0  0  0  0  0
    3.7340   16.1294   41.1531 C   0  0  0  0  0  0  0  0  0  0  0  0
    4.4585   15.0641   40.5320 N   0  0  0  0  0  0  0  0  0  0  0  0
    1.2238   14.3813   43.3194 H   0  0  0  0  0  0  0  0  0  0  0  0
   -0.5850   13.7426   44.8789 H   0  0  0  0  0  0  0  0  0  0  0  0
   -1.8599   15.4995   45.9721 H   0  0  0  0  0  0  0  0  0  0  0  0
    0.3729   18.4730   44.0414 H   0  0  0  0  0  0  0  0  0  0  0  0
    4.1945   21.6513   41.3458 H   0  0  0  0  0  0  0  0  0  0  0  0
    2.5618   21.3335   40.7674 H   0  0  0  0  0  0  0  0  0  0  0  0
    2.9401   20.9421   42.5008 H   0  0  0  0  0  0  0  0  0  0  0  0
    5.6741   17.5136   39.4787 H   0  0  0  0  0  0  0  0  0  0  0  0
    4.8282   14.2767   41.1405 H   0  0  0  0  0  0  0  0  0  0  0  0
    4.6120   15.0762   39.4970 H   0  0  0  0  0  0  0  0  0  0  0  0
  1  2  2  0
  1  6  1  0
  2  3  1  0
  3  4  2  0
  4  5  1  0
  5  6  2  0
  6  7  1  0
  7  8  2  0
  7  9  1  0
  8 16  1  0
  9 10  2  0
 10 11  1  0
 10 15  1  0
 11 12  1  0
 11 13  1  0
 13 14  2  0
 14 15  1  0
 15 16  2  0
 16 17  1  0
  1 18  1  0
  2 19  1  0
  3 20  1  0
  5 21  1  0
 12 22  1  0
 12 23  1  0
 12 24  1  0
 14 25  1  0
 17 26  1  0
 17 27  1  0
M  END
>  <mol_id>  (90) 
2026-09-17-6fnk-s0-n100-0090

>  <rmsd_to_ref>  (90) 
4.540816326531542

>  <pose_kind>  (90) 
conformer

$$$$
6fnk.A
     RDKit          3D

 27 29  0  0  0  0  0  0  0  0999 V2000
    2.3780   19.9799   42.2708 C   0  0  0  0  0  0  0  0  0  0  0  0
    3.1869   21.0383   41.8570 C   0  0  0  0  0  0  0  0  0  0  0  0
    3.2610   22.1936   42.6215 C   0  0  0  0  0  0  0  0  0  0  0  0
    2.5278   22.2940   43.8072 N   0  0  0  0  0  0  0  0  0  0  0  0
    1.7138   21.2284   44.2200 C   0  0  0  0  0  0  0  0  0  0  0  0
    1.6371   20.0680   43.4518 C   0  0  0  0  0  0  0  0  0  0  0  0
    0.8230   19.0083   43.8647 C   0  0  0  0  0  0  0  0  0  0  0  0
    0.5953   17.9594   43.0624 N   0  0  0  0  0  0  0  0  0  0  0  0
    0.2651   19.0321   45.0793 N   0  0  0  0  0  0  0  0  0  0  0  0
   -0.5304   18.0360   45.5081 C   0  0  0  0  0  0  0  0  0  0  0  0
   -1.2007   17.8503   46.6555 N   0  0  0  0  0  0  0  0  0  0  0  0
   -1.2152   18.7641   47.8017 C   0  0  0  0  0  0  0  0  0  0  0  0
   -1.8131   16.7819   46.6307 N   0  0  0  0  0  0  0  0  0  0  0  0
   -1.5423   16.1903   45.4557 C   0  0  0  0  0  0  0  0  0  0  0  0
   -0.7514   16.9860   44.7233 C   0  0  0  0  0  0  0  0  0  0  0  0
   -0.1818   16.9460   43.4875 C   0  0  0  0  0  0  0  0  0  0  0  0
   -0.3885   15.8929   42.6601 N   0  0  0  0  0  0  0  0  0  0  0  0
    2.3227   19.0663   41.6607 H   0  0  0  0  0  0  0  0  0  0  0  0
    3.7658   20.9570   40.9253 H   0  0  0  0  0  0  0  0  0  0  0  0
    3.8962   23.0300   42.2947 H   0  0  0  0  0  0  0  0  0  0  0  0
    1.1348   21.3088   45.1518 H   0  0  0  0  0  0  0  0  0  0  0  0
   -2.2558   18.9779   48.0869 H   0  0  0  0  0  0  0  0  0  0  0  0
   -0.6913   18.2977   48.6490 H   0  0  0  0  0  0  0  0  0  0  0  0
   -0.7095   19.7022   47.5292 H   0  0  0  0  0  0  0  0  0  0  0  0
   -1.9130   15.2031   45.1425 H   0  0  0  0  0  0  0  0  0  0  0  0
   -0.9797   15.1066   42.9651 H   0  0  0  0  0  0  0  0  0  0  0  0
    0.0456   15.8787   41.7262 H   0  0  0  0  0  0  0  0  0  0  0  0
  1  2  2  0
  1  6  1  0
  2  3  1  0
  3  4  2  0
  4  5  1  0
  5  6  2  0
  6  7  1  0
  7  8  2  0
  7  9  1  0
  8 16  1  0
  9 10  2  0
 10 11  1  0
 10 15  1  0
 11 12  1  0
 11 13  1  0
 13 14  2  0
 14 15  1  0
 15 16  2  0
 16 17  1  0
  1 18  1  0
  2 19  1  0
  3 20  1  0
  5 21  1  0
 12 22  1  0
 12 23  1  0
 12 24  1  0
 14 25  1  0
 17 26  1  0
 17 27  1  0
M  END
>  <mol_id>  (91) 
2026-09-17-6fnk-s0-n100-0091

>  <rmsd_to_ref>  (91) 
4.586734693878652

>  <pose_kind>  (91) 
rigid

$$$$
6fnk.A
     RDKit          3D

 27 29  0  0  0  0  0  0  0  0999 V2000
   -0.7638   17.8546   43.5908 C   0  0  0  0  0  0  0  0  0  0  0  0
   -2.0809   17.5564   43.3031 C   0  0  0  0  0  0  0  0  0  0  0  0
   -2.3720   16.2112   43.0519 C   0  0  0  0  0  0  0  0  0  0  0  0
   -1.4335   15.2766   43.0888 N   0  0  0  0  0  0  0  0  0  0  0  0
   -0.1698   15.5928   43.3694 C   0  0  0  0  0  0  0  0  0  0  0  0
    0.2212   16.8830   43.6309 C   0  0  0  0  0  0  0  0  0  0  0  0
    1.5938   17.2651   43.9413 C   0  0  0  0  0  0  0  0  0  0  0  0
    1.9243   18.5493   44.1908 N   0  0  0  0  0  0  0  0  0  0  0  0
    2.5551   16.3208   43.9809 N   0  0  0  0  0  0  0  0  0  0  0  0
    3.8506   16.6405   44.2679 C   0  0  0  0  0  0  0  0  0  0  0  0
    4.9868   15.9260   44.3736 N   0  0  0  0  0  0  0  0  0  0  0  0
    5.1163   14.4773   44.1853 C   0  0  0  0  0  0  0  0  0  0  0  0
    5.9703   16.7576   44.6778 N   0  0  0  0  0  0  0  0  0  0  0  0
    5.5244   18.0098   44.7787 C   0  0  0  0  0  0  0  0  0  0  0  0
    4.1709   17.9590   44.5204 C   0  0  0  0  0  0  0  0  0  0  0  0
    3.1852   18.9288   44.4800 C   0  0  0  0  0  0  0  0  0  0  0  0
    3.4763   20.3056   44.7358 N   0  0  0  0  0  0  0  0  0  0  0  0
   -0.4993   18.8902   43.7917 H   0  0  0  0  0  0  0  0  0  0  0  0
   -2.8487   18.3223   43.2731 H   0  0  0  0  0  0  0  0  0  0  0  0
   -3.4189   16.0020   42.8273 H   0  0  0  0  0  0  0  0  0  0  0  0
    0.5562   14.8024   43.3881 H   0  0  0  0  0  0  0  0  0  0  0  0
    6.1659   14.2922   43.8825 H   0  0  0  0  0  0  0  0  0  0  0  0
    5.0071   13.9469   45.1629 H   0  0  0  0  0  0  0  0  0  0  0  0
    4.3749   14.1154   43.4680 H   0  0  0  0  0  0  0  0  0  0  0  0
    6.0490   18.9298   45.0108 H   0  0  0  0  0  0  0  0  0  0  0  0
    3.1161   21.0373   44.0563 H   0  0  0  0  0  0  0  0  0  0  0  0
    4.0346   20.5689   45.5807 H   0  0  0  0  0  0  0  0  0  0  0  0
  1  2  2  0
  1  6  1  0
  2  3  1  0
  3  4  2  0
  4  5  1  0
  5  6  2  0
  6  7  1  0
  7  8  2  0
  7  9  1  0
  8 16  1  0
  9 10  2  0
 10 11  1  0
 10 15  1  0
 11 12  1  0
 11 13  1  0
 13 14  2  0
 14 15  1  0
 15 16  2  0
 16 17  1  0
  1 18  1  0
  2 19  1  0
  3 20  1  0
  5 21  1  0
 12 22  1  0
 12 23  1  0
 12 24  1  0
 14 25  1  0
 17 26  1  0
 17 27  1  0
M  END
>  <mol_id>  (92) 
2026-09-17-6fnk-s0-n100-0092

>  <rmsd_to_ref>  (92) 
4.632653061226943

>  <pose_kind>  (92) 
conformer

$$$$
6fnk.A
     RDKit          3D

 27 29  0  0  0  0  0  0  0  0999 V2000
    3.1126   16.9298   43.3026 C   0  0  0  0  0  0  0  0  0  0  0  0
    4.1879   17.5449   43.9440 C   0  0  0  0  0  0  0  0  0  0  0  0
    3.9611   18.3910   45.0197 C   0  0  0  0  0  0  0  0  0  0  0  0
    2.6559   18.6230   45.4620 N   0  0  0  0  0  0  0  0  0  0  0  0
    1.5761   18.0041   44.8140 C   0  0  0  0  0  0  0  0  0  0  0  0
    1.8026   17.1554   43.7320 C   0  0  0  0  0  0  0  0  0  0  0  0
    0.7241   16.5418   43.0866 C   0  0  0  0  0  0  0  0  0  0  0  0
    0.8979   15.8656   41.9427 N   0  0  0  0  0  0  0  0  0  0  0  0
   -0.5007   16.6211   43.6163 N   0  0  0  0  0  0  0  0  0  0  0  0
   -1.5635   16.0516   43.0205 C   0  0  0  0  0  0  0  0  0  0  0  0
   -2.8641   16.0116   43.3475 N   0  0  0  0  0  0  0  0  0  0  0  0
   -3.4736   16.6256   44.5310 C   0  0  0  0  0  0  0  0  0  0  0  0
   -3.5009   15.3689   42.5117 N   0  0  0  0  0  0  0  0  0  0  0  0
   -2.6256   14.9214   41.5964 C   0  0  0  0  0  0  0  0  0  0  0  0
   -1.3978   15.3686   41.8920 C   0  0  0  0  0  0  0  0  0  0  0  0
   -0.1537   15.2731   41.3474 C   0  0  0  0  0  0  0  0  0  0  0  0
    0.0508   14.5879   40.1963 N   0  0  0  0  0  0  0  0  0  0  0  0
    3.2982   16.2601   42.4500 H   0  0  0  0  0  0  0  0  0  0  0  0
    5.2151   17.3593   43.5968 H   0  0  0  0  0  0  0  0  0  0  0  0
    4.8081   18.8789   45.5242 H   0  0  0  0  0  0  0  0  0  0  0  0
    0.5487   18.1891   45.1608 H   0  0  0  0  0  0  0  0  0  0  0  0
   -4.3275   17.2470   44.2231 H   0  0  0  0  0  0  0  0  0  0  0  0
   -3.8214   15.8374   45.2150 H   0  0  0  0  0  0  0  0  0  0  0  0
   -2.7292   17.2531   45.0430 H   0  0  0  0  0  0  0  0  0  0  0  0
   -2.8784   14.2850   40.7356 H   0  0  0  0  0  0  0  0  0  0  0  0
   -0.7399   14.1268   39.7240 H   0  0  0  0  0  0  0  0  0  0  0  0
    0.9970   14.5281   39.7937 H   0  0  0  0  0  0  0  0  0  0  0  0
  1  2  2  0
  1  6  1  0
  2  3  1  0
  3  4  2  0
  4  5  1  0
  5  6  2  0
  6  7  1  0
  7  8  2  0
  7  9  1  0
  8 16  1  0
  9 10  2  0
 10 11  1  0
 10 15  1  0
 11 12  1  0
 11 13  1  0
 13 14  2  0
 14 15  1  0
 15 16  2  0
 16 17  1  0
  1 18  1  0
  2 19  1  0
  3 20  1  0
  5 21  1  0
 12 22  1  0
 12 23  1  0
 12 24  1  0
 14 25  1  0
 17 26  1  0
 17 27  1  0
M  END
>  <mol_id>  (93) 
2026-09-17-6fnk-s0-n100-0093

>  <rmsd_to_ref>  (93) 
4.678571428571712

>  <pose_kind>  (93) 
rigid

$$$$
6fnk.A
     RDKit          3D

 27 29  0  0  0  0  0  0  0  0999 V2000
    4.8943   15.8370   41.5462 C   0  0  0  0  0  0  0  0  0  0  0  0
    6.2553   15.6719   41.3818 C   0  0  0  0  0  0  0  0  0  0  0  0
    6.8226   16.2789   40.2563 C   0  0  0  0  0  0  0  0  0  0  0  0
    6.0919   16.9737   39.3967 N   0  0  0  0  0  0  0  0  0  0  0  0
    4.7798   17.1171   39.5801 C   0  0  0  0  0  0  0  0  0  0  0  0
    4.1254   16.5617   40.6519 C   0  0  0  0  0  0  0  0  0  0  0  0
    2.6923   16.6980   40.8840 C   0  0  0  0  0  0  0  0  0  0  0  0
    2.0988   16.1311   41.9548 N   0  0  0  0  0  0  0  0  0  0  0  0
    1.9411   17.4033   40.0146 N   0  0  0  0  0  0  0  0  0  0  0  0
    0.5970   17.5525   40.1988 C   0  0  0  0  0  0  0  0  0  0  0  0
   -0.3746   18.1841   39.5132 N   0  0  0  0  0  0  0  0  0  0  0  0
   -0.2003   18.9439   38.2710 C   0  0  0  0  0  0  0  0  0  0  0  0
   -1.5177   18.0011   40.1544 N   0  0  0  0  0  0  0  0  0  0  0  0
   -1.3388   17.2642   41.2510 C   0  0  0  0  0  0  0  0  0  0  0  0
    0.0065   16.9658   41.2996 C   0  0  0  0  0  0  0  0  0  0  0  0
    0.7763   16.2419   42.1923 C   0  0  0  0  0  0  0  0  0  0  0  0
    0.2023   15.6189   43.3448 N   0  0  0  0  0  0  0  0  0  0  0  0
    4.4176   15.3793   42.4099 H   0  0  0  0  0  0  0  0  0  0  0  0
    6.8528   15.1026   42.0861 H   0  0  0  0  0  0  0  0  0  0  0  0
    7.8985   16.1335   40.1492 H   0  0  0  0  0  0  0  0  0  0  0  0
    4.2286   17.6887   38.8577 H   0  0  0  0  0  0  0  0  0  0  0  0
   -1.1772   18.9213   37.7488 H   0  0  0  0  0  0  0  0  0  0  0  0
   -0.0266   20.0244   38.4973 H   0  0  0  0  0  0  0  0  0  0  0  0
    0.6281   18.5371   37.6847 H   0  0  0  0  0  0  0  0  0  0  0  0
   -2.0480   16.9270   41.9986 H   0  0  0  0  0  0  0  0  0  0  0  0
    0.4348   14.6024   43.5433 H   0  0  0  0  0  0  0  0  0  0  0  0
   -0.4321   16.1689   43.9692 H   0  0  0  0  0  0  0  0  0  0  0  0
  1  2  2  0
  1  6  1  0
  2  3  1  0
  3  4  2  0
  4  5  1  0
  5  6  2  0
  6  7  1  0
  7  8  2  0
  7  9  1  0
  8 16  1  0
  9 10  2  0
 10 11  1  0
 10 15  1  0
 11 12  1  0
 11 13  1  0
 13 14  2  0
 14 15  1  0
 15 16  2  0
 16 17  1  0
  1 18  1  0
  2 19  1  0
  3 20  1  0
  5 21  1  0
 12 22  1  0
 12 23  1  0
 12 24  1  0
 14 25  1  0
 17 26  1  0
 17 27  1  0
M  END
>  <mol_id>  (94) 
2026-09-17-6fnk-s0-n100-0094

>  <rmsd_to_ref>  (94) 
4.724489795919655

>  <pose_kind>  (94) 
conformer

$$$$
6fnk.A
     RDKit          3D

 27 29  0  0  0  0  0  0  0  0999 V2000
   -1.0755   14.4701   43.2049 C   0  0  0  0  0  0  0  0  0  0  0  0
   -2.0711   14.2865   44.1645 C   0  0  0  0  0  0  0  0  0  0  0  0
   -1.9845   14.9385   45.3860 C   0  0  0  0  0  0  0  0  0  0  0  0
   -0.9020   15.7814   45.6521 N   0  0  0  0  0  0  0  0  0  0  0  0
    0.0987   15.9629   44.6854 C   0  0  0  0  0  0  0  0  0  0  0  0
    0.0139   15.3069   43.4587 C   0  0  0  0  0  0  0  0  0  0  0  0
    1.0141   15.4879   42.4981 C   0  0  0  0  0  0  0  0  0  0  0  0
    1.0485   14.7387   41.3874 N   0  0  0  0  0  0  0  0  0  0  0  0
    1.9499   16.4249   42.6805 N   0  0  0  0  0  0  0  0  0  0  0  0
    2.9324   16.6225   41.7834 C   0  0  0  0  0  0  0  0  0  0  0  0
    3.9696   17.4734   41.7577 N   0  0  0  0  0  0  0  0  0  0  0  0
    4.2920   18.4692   42.7841 C   0  0  0  0  0  0  0  0  0  0  0  0
    4.6320   17.3171   40.7312 N   0  0  0  0  0  0  0  0  0  0  0  0
    4.0304   16.3597   40.0062 C   0  0  0  0  0  0  0  0  0  0  0  0
    2.9667   15.8922   40.6732 C   0  0  0  0  0  0  0  0  0  0  0  0
    2.0140   14.9407   40.4718 C   0  0  0  0  0  0  0  0  0  0  0  0
    2.0207   14.1758   39.3532 N   0  0  0  0  0  0  0  0  0  0  0  0
   -1.1489   13.9504   42.2382 H   0  0  0  0  0  0  0  0  0  0  0  0
   -2.9243   13.6252   43.9529 H   0  0  0  0  0  0  0  0  0  0  0  0
   -2.7676   14.7921   46.1446 H   0  0  0  0  0  0  0  0  0  0  0  0
    0.9520   16.6242   44.8963 H   0  0  0  0  0  0  0  0  0  0  0  0
    5.3429   18.3551   43.0883 H   0  0  0  0  0  0  0  0  0  0  0  0
    4.1357   19.4791   42.3771 H   0  0  0  0  0  0  0  0  0  0  0  0
    3.6394   18.3206   43.6571 H   0  0  0  0  0  0  0  0  0  0  0  0
    4.3605   16.0126   39.0160 H   0  0  0  0  0  0  0  0  0  0  0  0
    2.7505   14.3135   38.6395 H   0  0  0  0  0  0  0  0  0  0  0  0
    1.2960   13.4567   39.2167 H   0  0  0  0  0  0  0  0  0  0  0  0
  1  2  2  0
  1  6  1  0
  2  3  1  0
  3  4  2  0
  4  5  1  0
  5  6  2  0
  6  7  1  0
  7  8  2  0
  7  9  1  0
  8 16  1  0
  9 10  2  0
 10 11  1  0
 10 15  1  0
 11 12  1  0
 11 13  1  0
 13 14  2  0
 14 15  1  0
 15 16  2  0
 16 17  1  0
  1 18  1  0
  2 19  1  0
  3 20  1  0
  5 21  1  0
 12 22  1  0
 12 23  1  0
 12 24  1  0
 14 25  1  0
 17 26  1  0
 17 27  1  0
M  END
>  <mol_id>  (95) 
2026-09-17-6fnk-s0-n100-0095

>  <rmsd_to_ref>  (95) 
4.770408163270917

>  <pose_kind>  (95) 
rigid

$$$$
6fnk.A
     RDKit          3D

 27 29  0  0  0  0  0  0  0  0999 V2000
    2.4036   16.7507   43.3030 C   0  0  0  0  0  0  0  0  0  0  0  0
    2.9256   16.2716   44.4881 C   0  0  0  0  0  0  0  0  0  0  0  0
    3.4910   14.9927   44.4451 C   0  0  0  0  0  0  0  0  0  0  0  0
    3.5225   14.2821   43.3272 N   0  0  0  0  0  0  0  0  0  0  0  0
    3.0109   14.7693   42.1973 C   0  0  0  0  0  0  0  0  0  0  0  0
    2.4334   16.0135   42.1318 C   0  0  0  0  0  0  0  0  0  0  0  0
    1.8642   16.5781   40.9139 C   0  0  0  0  0  0  0  0  0  0  0  0
    1.3079   17.8072   40.9048 N   0  0  0  0  0  0  0  0  0  0  0  0
    1.8919   15.8622   39.7719 N   0  0  0  0  0  0  0  0  0  0  0  0
    1.3692   16.3576   38.6125 C   0  0  0  0  0  0  0  0  0  0  0  0
    1.2607   15.8797   37.3585 N   0  0  0  0  0  0  0  0  0  0  0  0
    1.7292   14.5714   36.8896 C   0  0  0  0  0  0  0  0  0  0  0  0
    0.6567   16.7958   36.6186 N   0  0  0  0  0  0  0  0  0  0  0  0
    0.3574   17.8745   37.3427 C   0  0  0  0  0  0  0  0  0  0  0  0
    0.8040   17.6167   38.6215 C   0  0  0  0  0  0  0  0  0  0  0  0
    0.7750   18.3521   39.7927 C   0  0  0  0  0  0  0  0  0  0  0  0
    0.1985   19.6602   39.8432 N   0  0  0  0  0  0  0  0  0  0  0  0
    1.9555   17.7417   43.2975 H   0  0  0  0  0  0  0  0  0  0  0  0
    2.8993   16.8542   45.4030 H   0  0  0  0  0  0  0  0  0  0  0  0
    3.8961   14.6374   45.3936 H   0  0  0  0  0  0  0  0  0  0  0  0
    3.0591   14.1578   41.3163 H   0  0  0  0  0  0  0  0  0  0  0  0
    1.1050   14.3097   36.0125 H   0  0  0  0  0  0  0  0  0  0  0  0
    2.7670   14.6531   36.4830 H   0  0  0  0  0  0  0  0  0  0  0  0
    1.6913   13.8372   37.6989 H   0  0  0  0  0  0  0  0  0  0  0  0
   -0.1324   18.8001   37.0615 H   0  0  0  0  0  0  0  0  0  0  0  0
   -0.4914   19.8832   40.6185 H   0  0  0  0  0  0  0  0  0  0  0  0
    0.4627   20.3710   39.1224 H   0  0  0  0  0  0  0  0  0  0  0  0
  1  2  2  0
  1  6  1  0
  2  3  1  0
  3  4  2  0
  4  5  1  0
  5  6  2  0
  6  7  1  0
  7  8  2  0
  7  9  1  0
  8 16  1  0
  9 10  2  0
 10 11  1  0
 10 15  1  0
 11 12  1  0
 11 13  1  0
 13 14  2  0
 14 15  1  0
 15 16  2  0
 16 17  1  0
  1 18  1  0
  2 19  1  0
  3 20  1  0
  5 21  1  0
 12 22  1  0
 12 23  1  0
 12 24  1  0
 14 25  1  0
 17 26  1  0
 17 27  1  0
M  END
>  <mol_id>  (96) 
2026-09-17-6fnk-s0-n100-0096

>  <rmsd_to_ref>  (96) 
4.816326530616163

>  <pose_kind>  (96) 
conformer

$$$$
6fnk.A
     RDKit          3D

 27 29  0  0  0  0  0  0  0  0999 V2000
   -0.8949   15.3656   45.6033 C   0  0  0  0  0  0  0  0  0  0  0  0
   -1.5676   14.8583   46.7150 C   0  0  0  0  0  0  0  0  0  0  0  0
   -2.0422   15.7222   47.6913 C   0  0  0  0  0  0  0  0  0  0  0  0
   -1.8491   17.0998   47.5578 N   0  0  0  0  0  0  0  0  0  0  0  0
   -1.1707   17.6071   46.4392 C   0  0  0  0  0  0  0  0  0  0  0  0
   -0.6918   16.7401   45.4587 C   0  0  0  0  0  0  0  0  0  0  0  0
   -0.0140   17.2486   44.3460 C   0  0  0  0  0  0  0  0  0  0  0  0
    0.6063   16.4321   43.4830 N   0  0  0  0  0  0  0  0  0  0  0  0
    0.0145   18.5674   44.1297 N   0  0  0  0  0  0  0  0  0  0  0  0
    0.6632   19.0940   43.0758 C   0  0  0  0  0  0  0  0  0  0  0  0
    0.8400   20.3604   42.6692 N   0  0  0  0  0  0  0  0  0  0  0  0
    0.3177   21.5587   43.3327 C   0  0  0  0  0  0  0  0  0  0  0  0
    1.5069   20.3933   41.6342 N   0  0  0  0  0  0  0  0  0  0  0  0
    1.7769   19.1236   41.2892 C   0  0  0  0  0  0  0  0  0  0  0  0
    1.2706   18.2905   42.2083 C   0  0  0  0  0  0  0  0  0  0  0  0
    1.2412   16.9450   42.4127 C   0  0  0  0  0  0  0  0  0  0  0  0
    1.8527   16.0969   41.5506 N   0  0  0  0  0  0  0  0  0  0  0  0
   -0.5205   14.6761   44.8324 H   0  0  0  0  0  0  0  0  0  0  0  0
   -1.7216   13.7740   46.8176 H   0  0  0  0  0  0  0  0  0  0  0  0
   -2.5701   15.3230   48.5699 H   0  0  0  0  0  0  0  0  0  0  0  0
   -1.0166   18.6914   46.3359 H   0  0  0  0  0  0  0  0  0  0  0  0
    1.1370   22.2743   43.4953 H   0  0  0  0  0  0  0  0  0  0  0  0
   -0.4535   22.0217   42.6995 H   0  0  0  0  0  0  0  0  0  0  0  0
   -0.1226   21.2791   44.3012 H   0  0  0  0  0  0  0  0  0  0  0  0
    2.3294   18.8149   40.3895 H   0  0  0  0  0  0  0  0  0  0  0  0
    2.3444   16.4678   40.7250 H   0  0  0  0  0  0  0  0  0  0  0  0
    1.8258   15.0814   41.7209 H   0  0  0  0  0  0  0  0  0  0  0  0
  1  2  2  0
  1  6  1  0
  2  3  1  0
  3  4  2  0
  4  5  1  0
  5  6  2  0
  6  7  1  0
  7  8  2  0
  7  9  1  0
  8 16  1  0
  9 10  2  0
 10 11  1  0
 10 15  1  0
 11 12  1  0
 11 13  1  0
 13 14  2  0
 14 15  1  0
 15 16  2  0
 16 17  1  0
  1 18  1  0
  2 19  1  0
  3 20  1  0
  5 21  1  0
 12 22  1  0
 12 23  1  0
 12 24  1  0
 14 25  1  0
 17 26  1  0
 17 27  1  0
M  END
>  <mol_id>  (97) 
2026-09-17-6fnk-s0-n100-0097

>  <rmsd_to_ref>  (97) 
4.862244897960793

>  <pose_kind>  (97) 
rigid

$$$$
6fnk.A
     RDKit          3D

 27 29  0  0  0  0  0  0  0  0999 V2000
    0.8652   20.8893   42.5442 C   0  0  0  0  0  0  0  0  0  0  0  0
    1.3532   21.7863   41.6147 C   0  0  0  0  0  0  0  0  0  0  0  0
    2.1241   21.2485   40.5786 C   0  0  0  0  0  0  0  0  0  0  0  0
    2.3710   19.9494   40.4959 N   0  0  0  0  0  0  0  0  0  0  0  0
    1.8871   19.1060   41.4071 C   0  0  0  0  0  0  0  0  0  0  0  0
    1.1194   19.5310   42.4634 C   0  0  0  0  0  0  0  0  0  0  0  0
    0.5738   18.6374   43.4783 C   0  0  0  0  0  0  0  0  0  0  0  0
   -0.1754   19.1081   44.4968 N   0  0  0  0  0  0  0  0  0  0  0  0
    0.8199   17.3140   43.4019 N   0  0  0  0  0  0  0  0  0  0  0  0
    0.3262   16.4470   44.3332 C   0  0  0  0  0  0  0  0  0  0  0  0
    0.4088   15.1140   44.5038 N   0  0  0  0  0  0  0  0  0  0  0  0
    1.1270   14.1755   43.6354 C   0  0  0  0  0  0  0  0  0  0  0  0
   -0.2711   14.7946   45.5933 N   0  0  0  0  0  0  0  0  0  0  0  0
   -0.8074   15.8770   46.1574 C   0  0  0  0  0  0  0  0  0  0  0  0
   -0.4382   16.9458   45.3683 C   0  0  0  0  0  0  0  0  0  0  0  0
   -0.6914   18.3035   45.4476 C   0  0  0  0  0  0  0  0  0  0  0  0
   -1.4787   18.8596   46.5044 N   0  0  0  0  0  0  0  0  0  0  0  0
    0.2614   21.2705   43.3644 H   0  0  0  0  0  0  0  0  0  0  0  0
    1.1506   22.8499   41.6833 H   0  0  0  0  0  0  0  0  0  0  0  0
    2.4977   21.9773   39.8580 H   0  0  0  0  0  0  0  0  0  0  0  0
    2.1130   18.0621   41.2993 H   0  0  0  0  0  0  0  0  0  0  0  0
    1.3897   13.3025   44.2650 H   0  0  0  0  0  0  0  0  0  0  0  0
    0.4401   13.7642   42.8555 H   0  0  0  0  0  0  0  0  0  0  0  0
    1.9869   14.6641   43.1695 H   0  0  0  0  0  0  0  0  0  0  0  0
   -1.4170   15.9807   47.0480 H   0  0  0  0  0  0  0  0  0  0  0  0
   -1.1045   19.7031   47.0289 H   0  0  0  0  0  0  0  0  0  0  0  0
   -2.4030   18.4309   46.7426 H   0  0  0  0  0  0  0  0  0  0  0  0
  1  2  2  0
  1  6  1  0
  2  3  1  0
  3  4  2  0
  4  5  1  0
  5  6  2  0
  6  7  1  0
  7  8  2  0
  7  9  1  0
  8 16  1  0
  9 10  2  0
 10 11  1  0
 10 15  1  0
 11 12  1  0
 11 13  1  0
 13 14  2  0
 14 15  1  0
 15 16  2  0
 16 17  1  0
  1 18  1  0
  2 19  1  0
  3 20  1  0
  5 21  1  0
 12 22  1  0
 12 23  1  0
 12 24  1  0
 14 25  1  0
 17 26  1  0
 17 27  1  0
M  END
>  <mol_id>  (98) 
2026-09-17-6fnk-s0-n100-0098

>  <rmsd_to_ref>  (98) 
4.908163265308384

>  <pose_kind>  (98) 
conformer

$$$$
6fnk.A
     RDKit          3D

 27 29  0  0  0  0  0  0  0  0999 V2000
   -0.1875   15.1073   38.3150 C   0  0  0  0  0  0  0  0  0  0  0  0
   -1.2139   15.3489   37.4016 C   0  0  0  0  0  0  0  0  0  0  0  0
   -1.9596   16.5152   37.4900 C   0  0  0  0  0  0  0  0  0  0  0  0
   -1.6794   17.4485   38.4918 N   0  0  0  0  0  0  0  0  0  0  0  0
   -0.6474   17.2020   39.4102 C   0  0  0  0  0  0  0  0  0  0  0  0
    0.1012   16.0298   39.3234 C   0  0  0  0  0  0  0  0  0  0  0  0
    1.1276   15.7858   40.2416 C   0  0  0  0  0  0  0  0  0  0  0  0
    1.7426   14.5960   40.2897 N   0  0  0  0  0  0  0  0  0  0  0  0
    1.5110   16.7513   41.0829 N   0  0  0  0  0  0  0  0  0  0  0  0
    2.4880   16.5515   41.9854 C   0  0  0  0  0  0  0  0  0  0  0  0
    3.0221   17.3474   42.9243 N   0  0  0  0  0  0  0  0  0  0  0  0
    2.6348   18.7341   43.1997 C   0  0  0  0  0  0  0  0  0  0  0  0
    3.9106   16.7557   43.5387 N   0  0  0  0  0  0  0  0  0  0  0  0
    4.0250   15.5307   42.9997 C   0  0  0  0  0  0  0  0  0  0  0  0
    3.1115   15.3783   42.0316 C   0  0  0  0  0  0  0  0  0  0  0  0
    2.7362   14.3900   41.1740 C   0  0  0  0  0  0  0  0  0  0  0  0
    3.3478   13.1808   41.1957 N   0  0  0  0  0  0  0  0  0  0  0  0
    0.4005   14.1806   38.2403 H   0  0  0  0  0  0  0  0  0  0  0  0
   -1.4316   14.6150   36.6116 H   0  0  0  0  0  0  0  0  0  0  0  0
   -2.7711   16.7054   36.7721 H   0  0  0  0  0  0  0  0  0  0  0  0
   -0.4290   17.9356   40.2001 H   0  0  0  0  0  0  0  0  0  0  0  0
    2.4216   18.8491   44.2726 H   0  0  0  0  0  0  0  0  0  0  0  0
    3.4563   19.4078   42.9148 H   0  0  0  0  0  0  0  0  0  0  0  0
    1.7357   18.9860   42.6181 H   0  0  0  0  0  0  0  0  0  0  0  0
    4.7569   14.7689   43.3064 H   0  0  0  0  0  0  0  0  0  0  0  0
    4.1105   13.0014   41.8643 H   0  0  0  0  0  0  0  0  0  0  0  0
    3.0498   12.4412   40.5438 H   0  0  0  0  0  0  0  0  0  0  0  0
  1  2  2  0
  1  6  1  0
  2  3  1  0
  3  4  2  0
  4  5  1  0
  5  6  2  0
  6  7  1  0
  7  8  2  0
  7  9  1  0
  8 16  1  0
  9 10  2  0
 10 11  1  0
 10 15  1  0
 11 12  1  0
 11 13  1  0
 13 14  2  0
 14 15  1  0
 15 16  2  0
 16 17  1  0
  1 18  1  0
  2 19  1  0
  3 20  1  0
  5 21  1  0
 12 22  1  0
 12 23  1  0
 12 24  1  0
 14 25  1  0
 17 26  1  0
 17 27  1  0
M  END
>  <mol_id>  (99) 
2026-09-17-6fnk-s0-n100-0099

>  <rmsd_to_ref>  (99) 
4.954081632656076

>  <pose_kind>  (99) 
rigid

$$$$
6fnk.A
     RDKit          3D

 27 29  0  0  0  0  0  0  0  0999 V2000
    5.3784   16.7082   42.5311 C   0  0  0  0  0  0  0  0  0  0  0  0
    6.2884   17.1111   41.5739 C   0  0  0  0  0  0  0  0  0  0  0  0
    6.4411   18.4913   41.4047 C   0  0  0  0  0  0  0  0  0  0  0  0
    5.7494   19.3623   42.1247 N   0  0  0  0  0  0  0  0  0  0  0  0
    4.8774   18.9455   43.0422 C   0  0  0  0  0  0  0  0  0  0  0  0
    4.6526   17.6130   43.2865 C   0  0  0  0  0  0  0  0  0  0  0  0
    3.7070   17.1212   44.2816 C   0  0  0  0  0  0  0  0  0  0  0  0
    3.5244   15.7995   44.4817 N   0  0  0  0  0  0  0  0  0  0  0  0
    2.9989   18.0003   45.0188 N   0  0  0  0  0  0  0  0  0  0  0  0
    2.1048   17.5774   45.9594 C   0  0  0  0  0  0  0  0  0  0  0  0
    1.2830   18.2110   46.8173 N   0  0  0  0  0  0  0  0  0  0  0  0
    1.1377   19.6634   46.9604 C   0  0  0  0  0  0  0  0  0  0  0  0
    0.6265   17.2956   47.5118 N   0  0  0  0  0  0  0  0  0  0  0  0
    0.9859   16.0659   47.1428 C   0  0  0  0  0  0  0  0  0  0  0  0
    1.9307   16.2218   46.1507 C   0  0  0  0  0  0  0  0  0  0  0  0
    2.6568   15.3190   45.3949 C   0  0  0  0  0  0  0  0  0  0  0  0
    2.5052   13.9067   45.5630 N   0  0  0  0  0  0  0  0  0  0  0  0
    5.2325   15.6424   42.6909 H   0  0  0  0  0  0  0  0  0  0  0  0
    6.8543   16.3972   40.9847 H   0  0  0  0  0  0  0  0  0  0  0  0
    7.1655   18.7834   40.6430 H   0  0  0  0  0  0  0  0  0  0  0  0
    4.3396   19.6874   43.6015 H   0  0  0  0  0  0  0  0  0  0  0  0
    0.1207   19.8394   47.3631 H   0  0  0  0  0  0  0  0  0  0  0  0
    1.8253   20.0465   47.7537 H   0  0  0  0  0  0  0  0  0  0  0  0
    1.3334   20.1646   46.0088 H   0  0  0  0  0  0  0  0  0  0  0  0
    0.6537   15.0968   47.4977 H   0  0  0  0  0  0  0  0  0  0  0  0
    2.3623   13.3036   44.7014 H   0  0  0  0  0  0  0  0  0  0  0  0
    2.5372   13.4929   46.5235 H   0  0  0  0  0  0  0  0  0  0  0  0
  1  2  2  0
  1  6  1  0
  2  3  1  0
  3  4  2  0
  4  5  1  0
  5  6  2  0
  6  7  1  0
  7  8  2  0
  7  9  1  0
  8 16  1  0
  9 10  2  0
 10 11  1  0
 10 15  1  0
 11 12  1  0
 11 13  1  0
 13 14  2  0
 14 15  1  0
 15 16  2  0
 16 17  1  0
  1 18  1  0
  2 19  1  0
  3 20  1  0
  5 21  1  0
 12 22  1  0
 12 23  1  0
 12 24  1  0
 14 25  1  0
 17 26  1  0
 17 27  1  0
M  END
>  <mol_id>  (100) 
2026-09-17-6fnk-s0-n100-0100

>  <rmsd_to_ref>  (100) 
5.000000000000223

>  <pose_kind>  (100) 
conformer

$$$$
