
     RDKit          3D

 27 29  0  0  0  0  0  0  0  0999 V2000
    2.9250   19.9150   37.8480 C   0  0  0  0  0  0  0  0  0  0  0  0
    1.5790   17.2230   41.3850 N   0  0  0  0  0  0  0  0  0  0  0  0
    1.4820   21.3040   39.5580 C   0  0  0  0  0  0  0  0  0  0  0  0
    2.5470   17.4750   39.4820 C   0  0  0  0  0  0  0  0  0  0  0  0
    2.2170   16.5810   40.3810 N   0  0  0  0  0  0  0  0  0  0  0  0
    3.4720   18.6410   37.3890 C   0  0  0  0  0  0  0  0  0  0  0  0
    0.6370   19.5780   42.1090 C   0  0  0  0  0  0  0  0  0  0  0  0
    1.0360   16.4430   42.6370 C   0  0  0  0  0  0  0  0  0  0  0  0
    0.0600   19.0640   43.1000 O   0  0  0  0  0  0  0  0  0  0  0  0
    0.4970   21.0600   41.9340 C   0  0  0  0  0  0  0  0  0  0  0  0
    2.2480   19.9990   39.0860 C   0  0  0  0  0  0  0  0  0  0  0  0
    2.0350   18.8030   39.8900 C   0  0  0  0  0  0  0  0  0  0  0  0
    3.2510   17.4490   38.1770 C   0  0  0  0  0  0  0  0  0  0  0  0
    1.3860   18.5930   41.1550 C   0  0  0  0  0  0  0  0  0  0  0  0
    1.6120   21.6630   40.9970 C   0  0  0  0  0  0  0  0  0  0  0  0
    3.0406   20.8150   37.2263 H   0  0  0  0  0  0  0  0  0  0  0  0
    0.4126   21.1604   39.3440 H   0  0  0  0  0  0  0  0  0  0  0  0
    1.9492   22.1331   39.0063 H   0  0  0  0  0  0  0  0  0  0  0  0
    4.0468   18.5888   36.4526 H   0  0  0  0  0  0  0  0  0  0  0  0
    1.3813   16.9390   43.5561 H   0  0  0  0  0  0  0  0  0  0  0  0
   -0.0638   16.4352   42.6155 H   0  0  0  0  0  0  0  0  0  0  0  0
    1.4105   15.4089   42.6155 H   0  0  0  0  0  0  0  0  0  0  0  0
   -0.4879   21.2720   41.4925 H   0  0  0  0  0  0  0  0  0  0  0  0
    0.6037   21.5260   42.9247 H   0  0  0  0  0  0  0  0  0  0  0  0
    3.6192   16.4859   37.7938 H   0  0  0  0  0  0  0  0  0  0  0  0
    2.5887   21.3027   41.3523 H   0  0  0  0  0  0  0  0  0  0  0  0
    1.5048   22.7563   41.0535 H   0  0  0  0  0  0  0  0  0  0  0  0
  1 11  2  0
  2  8  1  0
  3 15  1  0
  4 12  1  0
  4  5  2  0
  5  2  1  0
  6  1  1  0
  6 13  2  0
  7  9  2  0
 10  7  1  0
 11  3  1  0
 11 12  1  0
 12 14  2  0
 13  4  1  0
 14  2  1  0
 14  7  1  0
 15 10  1  0
  1 16  1  0
  3 17  1  0
  3 18  1  0
  6 19  1  0
  8 20  1  0
  8 21  1  0
  8 22  1  0
 10 23  1  0
 10 24  1  0
 13 25  1  0
 15 26  1  0
 15 27  1  0
M  END
>  <mol_id>  (1) 
2026-08-24-6tgu-s0-n100-seed1-0001

>  <rmsd_to_ref>  (1) 


$$$$

     RDKit          3D

 26 27  0  0  0  0  0  0  0  0999 V2000
    2.9010   20.3300   37.6980 C   0  0  0  0  0  0  0  0  0  0  0  0
    1.0420   20.6130   40.8690 C   0  0  0  0  0  0  0  0  0  0  0  0
    1.3600   19.2010   40.7960 C   0  0  0  0  0  0  0  0  0  0  0  0
    2.2880   19.0810   39.7460 C   0  0  0  0  0  0  0  0  0  0  0  0
    0.6540   18.6000   41.9350 C   0  0  0  0  0  0  0  0  0  0  0  0
    3.4240   20.2270   36.6920 N   0  0  0  0  0  0  0  0  0  0  0  0
    2.2320   20.2470   38.9680 C   0  0  0  0  0  0  0  0  0  0  0  0
    2.9550   18.1210   39.1870 O   0  0  0  0  0  0  0  0  0  0  0  0
    1.8390   16.5580   42.2820 C   0  0  0  0  0  0  0  0  0  0  0  0
    1.1490   15.6140   40.1690 O   0  0  0  0  0  0  0  0  0  0  0  0
    0.2230   20.7680   42.0050 C   0  0  0  0  0  0  0  0  0  0  0  0
    0.5220   17.2650   42.2850 C   0  0  0  0  0  0  0  0  0  0  0  0
    1.5650   21.1540   39.6950 N   0  0  0  0  0  0  0  0  0  0  0  0
    0.0990   19.5880   42.6020 N   0  0  0  0  0  0  0  0  0  0  0  0
    2.2480   16.0000   40.9310 C   0  0  0  0  0  0  0  0  0  0  0  0
    3.5666   18.3166   38.4335 H   0  0  0  0  0  0  0  0  0  0  0  0
    2.6120   17.2691   42.6088 H   0  0  0  0  0  0  0  0  0  0  0  0
    1.7347   15.6971   42.9587 H   0  0  0  0  0  0  0  0  0  0  0  0
    0.4063   15.3532   40.7694 H   0  0  0  0  0  0  0  0  0  0  0  0
    0.6831   21.4875   42.6982 H   0  0  0  0  0  0  0  0  0  0  0  0
   -0.7667   21.1440   41.7064 H   0  0  0  0  0  0  0  0  0  0  0  0
    0.0865   17.2025   43.2932 H   0  0  0  0  0  0  0  0  0  0  0  0
   -0.1286   16.7794   41.5428 H   0  0  0  0  0  0  0  0  0  0  0  0
    1.4515   22.1395   39.4178 H   0  0  0  0  0  0  0  0  0  0  0  0
    2.8945   15.1243   41.0900 H   0  0  0  0  0  0  0  0  0  0  0  0
    2.7778   16.7933   40.3834 H   0  0  0  0  0  0  0  0  0  0  0  0
  1  7  1  0
  2 11  1  0
  3  2  2  0
  3  5  1  0
  4  3  1  0
  5 12  1  0
  5 14  2  0
  6  1  3  0
  7 13  1  0
  7  4  2  0
  8  4  1  0
  9 12  1  0
 10 15  1  0
 11 14  1  0
 13  2  1  0
 15  9  1  0
  8 16  1  0
  9 17  1  0
  9 18  1  0
 10 19  1  0
 11 20  1  0
 11 21  1  0
 12 22  1  0
 12 23  1  0
 13 24  1  0
 15 25  1  0
 15 26  1  0
M  END
>  <mol_id>  (2) 
2026-08-24-6tgu-s0-n100-seed1-0003

>  <rmsd_to_ref>  (2) 


$$$$

     RDKit          3D

 32 33  0  0  0  0  0  0  0  0999 V2000
    3.3730   17.5210   38.3400 C   0  0  0  0  0  0  0  0  0  0  0  0
    2.7750   20.3640   38.2810 C   0  0  0  0  0  0  0  0  0  0  0  0
    1.9380   16.9860   40.5180 C   0  0  0  0  0  0  0  0  0  0  0  0
    3.6760   20.2960   36.1270 O   0  0  0  0  0  0  0  0  0  0  0  0
    2.5140   18.1180   39.3880 C   0  0  0  0  0  0  0  0  0  0  0  0
    1.2070   17.5360   41.4830 C   0  0  0  0  0  0  0  0  0  0  0  0
    1.6330   14.7690   41.5670 C   0  0  0  0  0  0  0  0  0  0  0  0
    2.1260   15.6060   40.5540 C   0  0  0  0  0  0  0  0  0  0  0  0
    2.2470   19.4690   39.2670 C   0  0  0  0  0  0  0  0  0  0  0  0
    0.9310   15.3880   42.6610 C   0  0  0  0  0  0  0  0  0  0  0  0
    0.8000   20.6570   40.7100 C   0  0  0  0  0  0  0  0  0  0  0  0
    1.6540   19.8070   40.2740 O   0  0  0  0  0  0  0  0  0  0  0  0
    0.2930   19.9650   42.7360 O   0  0  0  0  0  0  0  0  0  0  0  0
    0.5440   20.7420   41.7590 C   0  0  0  0  0  0  0  0  0  0  0  0
    3.6630   18.3000   37.1800 N   0  0  0  0  0  0  0  0  0  0  0  0
    3.4210   19.6480   37.1830 C   0  0  0  0  0  0  0  0  0  0  0  0
    0.7290   16.7360   42.6130 C   0  0  0  0  0  0  0  0  0  0  0  0
    3.5030   16.2380   38.3180 O   0  0  0  0  0  0  0  0  0  0  0  0
    0.4900   14.5130   43.7870 C   0  0  0  0  0  0  0  0  0  0  0  0
    1.9521   20.9702   37.8744 H   0  0  0  0  0  0  0  0  0  0  0  0
    3.5324   20.9968   38.7667 H   0  0  0  0  0  0  0  0  0  0  0  0
    0.9579   18.6062   41.4320 H   0  0  0  0  0  0  0  0  0  0  0  0
    1.7777   13.6793   41.5266 H   0  0  0  0  0  0  0  0  0  0  0  0
    2.6974   15.1428   39.7361 H   0  0  0  0  0  0  0  0  0  0  0  0
   -0.1412   20.4413   40.1830 H   0  0  0  0  0  0  0  0  0  0  0  0
    1.3190   21.6096   40.5281 H   0  0  0  0  0  0  0  0  0  0  0  0
    0.4840   21.7963   42.0670 H   0  0  0  0  0  0  0  0  0  0  0  0
    4.0542   17.8486   36.3408 H   0  0  0  0  0  0  0  0  0  0  0  0
    0.1971   17.2317   43.4384 H   0  0  0  0  0  0  0  0  0  0  0  0
    0.7338   14.9967   44.7444 H   0  0  0  0  0  0  0  0  0  0  0  0
   -0.5964   14.3530   43.7232 H   0  0  0  0  0  0  0  0  0  0  0  0
    1.0077   13.5445   43.7232 H   0  0  0  0  0  0  0  0  0  0  0  0
  1  5  1  0
  2  9  1  0
  3  8  1  0
  3  6  2  0
  4 16  2  0
  5  3  1  0
  6 17  1  0
  7 10  1  0
  8  7  2  0
  9  5  2  0
  9 12  1  0
 10 19  1  0
 11 14  1  0
 12 11  1  0
 14 13  2  0
 15 16  1  0
 15  1  1  0
 16  2  1  0
 17 10  2  0
 18  1  2  0
  2 20  1  0
  2 21  1  0
  6 22  1  0
  7 23  1  0
  8 24  1  0
 11 25  1  0
 11 26  1  0
 14 27  1  0
 15 28  1  0
 17 29  1  0
 19 30  1  0
 19 31  1  0
 19 32  1  0
M  END
>  <mol_id>  (3) 
2026-08-24-6tgu-s0-n100-seed1-0004

>  <rmsd_to_ref>  (3) 


$$$$

     RDKit          3D

 47 48  0  0  0  0  0  0  0  0999 V2000
    2.0010   20.0140   39.2940 C   0  0  0  0  0  0  0  0  0  0  0  0
    0.0650   18.5100   43.4210 C   0  0  0  0  0  0  0  0  0  0  0  0
    1.3930   20.3490   40.5570 O   0  0  0  0  0  0  0  0  0  0  0  0
    3.9230   21.7360   35.1140 C   0  0  0  0  0  0  0  0  0  0  0  0
    1.1780   15.2290   40.8300 O   0  0  0  0  0  0  0  0  0  0  0  0
    0.5280   20.2370   41.7410 C   0  0  0  0  0  0  0  0  0  0  0  0
    0.8010   14.7570   43.0740 N   0  0  0  0  0  0  0  0  0  0  0  0
    3.2500   20.1880   36.7400 C   0  0  0  0  0  0  0  0  0  0  0  0
   -0.8400   19.4030   44.0170 C   0  0  0  0  0  0  0  0  0  0  0  0
    0.1620   12.3610   44.7670 C   0  0  0  0  0  0  0  0  0  0  0  0
    3.4560   19.0150   37.3570 C   0  0  0  0  0  0  0  0  0  0  0  0
    0.9020   13.3810   42.7400 C   0  0  0  0  0  0  0  0  0  0  0  0
    1.1710   15.6010   41.9990 C   0  0  0  0  0  0  0  0  0  0  0  0
   -0.3860   14.9390   43.9190 C   0  0  0  0  0  0  0  0  0  0  0  0
    1.5970   16.7570   42.3040 N   0  0  0  0  0  0  0  0  0  0  0  0
    2.5600   21.2830   37.2810 C   0  0  0  0  0  0  0  0  0  0  0  0
   -0.1690   12.4940   43.3050 C   0  0  0  0  0  0  0  0  0  0  0  0
    1.8800   21.1460   38.4890 C   0  0  0  0  0  0  0  0  0  0  0  0
   -1.0310   20.7180   43.4850 N   0  0  0  0  0  0  0  0  0  0  0  0
    0.7140   18.9060   42.2040 C   0  0  0  0  0  0  0  0  0  0  0  0
    1.4950   17.9740   41.6010 N   0  0  0  0  0  0  0  0  0  0  0  0
    4.1570   18.0350   36.7240 O   0  0  0  0  0  0  0  0  0  0  0  0
    2.7730   18.7320   38.5980 C   0  0  0  0  0  0  0  0  0  0  0  0
    3.8310   20.4170   35.5220 O   0  0  0  0  0  0  0  0  0  0  0  0
   -0.3240   21.1210   42.4900 C   0  0  0  0  0  0  0  0  0  0  0  0
    0.2716   17.5301   43.8762 H   0  0  0  0  0  0  0  0  0  0  0  0
    3.9687   22.3906   35.9969 H   0  0  0  0  0  0  0  0  0  0  0  0
    4.8327   21.8705   34.5104 H   0  0  0  0  0  0  0  0  0  0  0  0
    3.0408   21.9955   34.5104 H   0  0  0  0  0  0  0  0  0  0  0  0
   -1.4093   19.0880   44.9039 H   0  0  0  0  0  0  0  0  0  0  0  0
   -0.6922   12.7042   45.3690 H   0  0  0  0  0  0  0  0  0  0  0  0
    0.3752   11.3074   45.0003 H   0  0  0  0  0  0  0  0  0  0  0  0
    1.0450   12.9742   45.0003 H   0  0  0  0  0  0  0  0  0  0  0  0
    0.8679   13.2959   41.6438 H   0  0  0  0  0  0  0  0  0  0  0  0
    1.8457   13.0328   43.1852 H   0  0  0  0  0  0  0  0  0  0  0  0
   -0.0925   14.8940   44.9782 H   0  0  0  0  0  0  0  0  0  0  0  0
   -0.8412   15.9174   43.7059 H   0  0  0  0  0  0  0  0  0  0  0  0
   -1.1135   14.1419   43.7059 H   0  0  0  0  0  0  0  0  0  0  0  0
    2.0940   16.8145   43.2043 H   0  0  0  0  0  0  0  0  0  0  0  0
    2.5559   22.2477   36.7525 H   0  0  0  0  0  0  0  0  0  0  0  0
   -1.1598   12.9534   43.1737 H   0  0  0  0  0  0  0  0  0  0  0  0
   -0.2037   11.5174   42.8001 H   0  0  0  0  0  0  0  0  0  0  0  0
    1.2220   21.9627   38.8207 H   0  0  0  0  0  0  0  0  0  0  0  0
    1.9732   18.1422   40.7044 H   0  0  0  0  0  0  0  0  0  0  0  0
    4.3120   17.1673   37.1747 H   0  0  0  0  0  0  0  0  0  0  0  0
    2.7678   17.7288   39.0491 H   0  0  0  0  0  0  0  0  0  0  0  0
   -0.3724   22.1812   42.2007 H   0  0  0  0  0  0  0  0  0  0  0  0
  1  3  1  0
  2  9  2  0
  3  6  1  0
  4 24  1  0
  5 13  2  0
  6 20  2  0
  6 25  1  0
  7 14  1  0
  8 16  2  0
  8 11  1  0
 11 23  2  0
 12  7  1  0
 12 17  1  0
 13 15  1  0
 13  7  1  0
 16 18  1  0
 17 10  1  0
 18  1  2  0
 19  9  1  0
 20  2  1  0
 21 20  1  0
 21 15  1  0
 22 11  1  0
 23  1  1  0
 24  8  1  0
 25 19  2  0
  2 26  1  0
  4 27  1  0
  4 28  1  0
  4 29  1  0
  9 30  1  0
 10 31  1  0
 10 32  1  0
 10 33  1  0
 12 34  1  0
 12 35  1  0
 14 36  1  0
 14 37  1  0
 14 38  1  0
 15 39  1  0
 16 40  1  0
 17 41  1  0
 17 42  1  0
 18 43  1  0
 21 44  1  0
 22 45  1  0
 23 46  1  0
 25 47  1  0
M  END
>  <mol_id>  (4) 
2026-08-24-6tgu-s0-n100-seed1-0005

>  <rmsd_to_ref>  (4) 


$$$$

     RDKit          3D

 27 28  0  0  0  0  0  0  0  0999 V2000
    3.0600   17.4290   38.3980 C   0  0  0  0  0  0  0  0  0  0  0  0
    2.2150   16.8820   40.4570 O   0  0  0  0  0  0  0  0  0  0  0  0
    0.5530   16.9710   42.5860 C   0  0  0  0  0  0  0  0  0  0  0  0
   -0.6320   18.8100   44.7730 N   0  0  0  0  0  0  0  0  0  0  0  0
   -0.8360   19.5620   43.8310 C   0  0  0  0  0  0  0  0  0  0  0  0
    1.0240   19.2830   41.0070 C   0  0  0  0  0  0  0  0  0  0  0  0
    1.9970   19.0560   39.7250 C   0  0  0  0  0  0  0  0  0  0  0  0
    2.2610   20.0040   38.7370 C   0  0  0  0  0  0  0  0  0  0  0  0
    3.6890   15.9480   38.1400 Cl  0  0  0  0  0  0  0  0  0  0  0  0
    3.4090   18.4340   37.3270 C   0  0  0  0  0  0  0  0  0  0  0  0
    0.4830   18.4140   42.1270 C   0  0  0  0  0  0  0  0  0  0  0  0
    2.4490   17.9630   39.5220 C   0  0  0  0  0  0  0  0  0  0  0  0
    2.9350   19.6870   37.5050 C   0  0  0  0  0  0  0  0  0  0  0  0
   -0.0590   19.3610   42.7420 C   0  0  0  0  0  0  0  0  0  0  0  0
    3.1480   20.5640   36.6520 O   0  0  0  0  0  0  0  0  0  0  0  0
   -1.6600   20.4550   43.8750 O   0  0  0  0  0  0  0  0  0  0  0  0
    1.8960   21.6630   38.9740 Cl  0  0  0  0  0  0  0  0  0  0  0  0
    0.3900   20.7010   41.5900 S   0  0  0  0  0  0  0  0  0  0  0  0
    1.7827   17.0661   41.3284 H   0  0  0  0  0  0  0  0  0  0  0  0
    0.5547   16.9356   43.6854 H   0  0  0  0  0  0  0  0  0  0  0  0
   -0.3196   16.4216   42.2028 H   0  0  0  0  0  0  0  0  0  0  0  0
    1.4746   16.5086   42.2028 H   0  0  0  0  0  0  0  0  0  0  0  0
    0.0758   18.0659   44.6940 H   0  0  0  0  0  0  0  0  0  0  0  0
   -1.1679   18.9205   45.6456 H   0  0  0  0  0  0  0  0  0  0  0  0
    1.9051   19.4113   41.6530 H   0  0  0  0  0  0  0  0  0  0  0  0
    3.2641   20.1644   39.1590 H   0  0  0  0  0  0  0  0  0  0  0  0
    4.0153   18.1616   36.4505 H   0  0  0  0  0  0  0  0  0  0  0  0
  1 12  1  0
  5 16  2  0
  5  4  1  0
  6  7  1  0
  6 18  1  0
  6 11  1  0
  8 17  1  0
  8  7  1  0
  9  1  1  0
 10 13  1  0
 10  1  2  0
 11  3  1  0
 11 14  2  0
 12  7  2  0
 12  2  1  0
 13  8  1  0
 14  5  1  0
 15 13  2  0
 18 14  1  0
  2 19  1  0
  3 20  1  0
  3 21  1  0
  3 22  1  0
  4 23  1  0
  4 24  1  0
  6 25  1  0
  8 26  1  0
 10 27  1  0
M  END
>  <mol_id>  (5) 
2026-08-24-6tgu-s0-n100-seed1-0006

>  <rmsd_to_ref>  (5) 


$$$$

     RDKit          3D

 47 50  0  0  0  0  0  0  0  0999 V2000
    1.7130   18.8690   40.3640 C   0  0  0  0  0  0  0  0  0  0  0  0
    1.0980   18.6510   41.5540 C   0  0  0  0  0  0  0  0  0  0  0  0
    2.4580   21.7270   36.5360 C   0  0  0  0  0  0  0  0  0  0  0  0
    1.6960   20.4350   40.5880 N   0  0  0  0  0  0  0  0  0  0  0  0
   -0.6360   16.1020   45.5250 C   0  0  0  0  0  0  0  0  0  0  0  0
   -0.6590   17.7800   46.0520 C   0  0  0  0  0  0  0  0  0  0  0  0
    2.3420   20.2570   38.4480 C   0  0  0  0  0  0  0  0  0  0  0  0
    3.4600   19.3670   36.6080 C   0  0  0  0  0  0  0  0  0  0  0  0
    0.4880   19.7610   42.0430 C   0  0  0  0  0  0  0  0  0  0  0  0
    3.0590   16.6670   39.1280 C   0  0  0  0  0  0  0  0  0  0  0  0
    3.8570   19.6550   35.4410 O   0  0  0  0  0  0  0  0  0  0  0  0
    0.0070   17.4450   43.4110 C   0  0  0  0  0  0  0  0  0  0  0  0
   -0.9780   15.5990   46.5210 O   0  0  0  0  0  0  0  0  0  0  0  0
    2.4550   19.0360   39.2390 C   0  0  0  0  0  0  0  0  0  0  0  0
   -0.3870   18.7880   43.9380 C   0  0  0  0  0  0  0  0  0  0  0  0
   -0.7190   18.7090   45.3570 C   0  0  0  0  0  0  0  0  0  0  0  0
    2.7340   20.4910   37.2690 C   0  0  0  0  0  0  0  0  0  0  0  0
    3.9520   15.5970   38.4330 O   0  0  0  0  0  0  0  0  0  0  0  0
    0.6680   17.4520   42.2660 N   0  0  0  0  0  0  0  0  0  0  0  0
    3.0120   17.9630   38.5080 C   0  0  0  0  0  0  0  0  0  0  0  0
    3.7430   18.1070   37.2000 C   0  0  0  0  0  0  0  0  0  0  0  0
   -0.3750   19.8520   43.0920 C   0  0  0  0  0  0  0  0  0  0  0  0
    2.3390   16.3050   40.1310 O   0  0  0  0  0  0  0  0  0  0  0  0
    3.2250   15.7820   36.8470 C   0  0  0  0  0  0  0  0  0  0  0  0
    0.9090   22.0260   41.7400 O   0  0  0  0  0  0  0  0  0  0  0  0
   -0.2480   16.2100   44.1060 C   0  0  0  0  0  0  0  0  0  0  0  0
    0.9130   20.9910   41.3550 C   0  0  0  0  0  0  0  0  0  0  0  0
    1.6199   17.7941   40.1495 H   0  0  0  0  0  0  0  0  0  0  0  0
    2.2756   22.5437   37.2499 H   0  0  0  0  0  0  0  0  0  0  0  0
    3.3220   21.9789   35.9035 H   0  0  0  0  0  0  0  0  0  0  0  0
    1.5689   21.5875   35.9035 H   0  0  0  0  0  0  0  0  0  0  0  0
    2.3708   21.0141   40.0682 H   0  0  0  0  0  0  0  0  0  0  0  0
   -1.5289   17.8617   46.7203 H   0  0  0  0  0  0  0  0  0  0  0  0
    0.3750   17.8798   46.4139 H   0  0  0  0  0  0  0  0  0  0  0  0
    1.8422   21.0976   38.9516 H   0  0  0  0  0  0  0  0  0  0  0  0
    3.2228   19.1889   40.0117 H   0  0  0  0  0  0  0  0  0  0  0  0
   -0.0734   19.4591   45.8371 H   0  0  0  0  0  0  0  0  0  0  0  0
   -1.8132   18.7893   45.2782 H   0  0  0  0  0  0  0  0  0  0  0  0
    2.1297   18.2934   37.9403 H   0  0  0  0  0  0  0  0  0  0  0  0
    3.4238   17.3062   36.5168 H   0  0  0  0  0  0  0  0  0  0  0  0
    4.8247   18.0368   37.3873 H   0  0  0  0  0  0  0  0  0  0  0  0
   -1.0206   20.7294   43.2450 H   0  0  0  0  0  0  0  0  0  0  0  0
    2.1645   16.0519   36.9590 H   0  0  0  0  0  0  0  0  0  0  0  0
    3.7488   16.5755   36.2938 H   0  0  0  0  0  0  0  0  0  0  0  0
    3.3058   14.8347   36.2938 H   0  0  0  0  0  0  0  0  0  0  0  0
   -1.0549   15.7180   43.5431 H   0  0  0  0  0  0  0  0  0  0  0  0
    0.7686   15.7917   44.1462 H   0  0  0  0  0  0  0  0  0  0  0  0
  1  4  1  0
  1  2  1  0
  2  9  2  0
  2 19  1  0
  3 17  1  0
  4 27  1  0
  5  6  1  0
  5 13  2  0
  8 21  1  0
  8 17  1  0
  9 22  1  0
 10 23  2  0
 11  8  2  0
 12 15  1  0
 12 26  1  0
 14  7  1  0
 14  1  1  0
 15 16  1  0
 16  6  1  0
 17  7  2  0
 18 10  1  0
 19 12  2  0
 20 10  1  0
 20 14  1  0
 21 20  1  0
 22 15  2  0
 24 18  1  0
 26  5  1  0
 27 25  2  0
 27  9  1  0
  1 28  1  0
  3 29  1  0
  3 30  1  0
  3 31  1  0
  4 32  1  0
  6 33  1  0
  6 34  1  0
  7 35  1  0
 14 36  1  0
 16 37  1  0
 16 38  1  0
 20 39  1  0
 21 40  1  0
 21 41  1  0
 22 42  1  0
 24 43  1  0
 24 44  1  0
 24 45  1  0
 26 46  1  0
 26 47  1  0
M  END
>  <mol_id>  (6) 
2026-08-24-6tgu-s0-n100-seed1-0007

>  <rmsd_to_ref>  (6) 


$$$$

     RDKit          3D

 64 67  0  0  0  0  0  0  0  0999 V2000
    0.6290   21.8100   41.5140 C   0  0  0  0  0  0  0  0  0  0  0  0
    5.6920   13.7120   35.4630 C   0  0  0  0  0  0  0  0  0  0  0  0
   -1.0170   15.8910   46.9900 C   0  0  0  0  0  0  0  0  0  0  0  0
    2.8290   19.9320   37.8370 C   0  0  0  0  0  0  0  0  0  0  0  0
   -1.4120   16.8200   49.2000 C   0  0  0  0  0  0  0  0  0  0  0  0
    2.6060   20.9280   36.9610 N   0  0  0  0  0  0  0  0  0  0  0  0
    3.8820   17.8650   36.5840 N   0  0  0  0  0  0  0  0  0  0  0  0
    2.8010   18.7600   39.7240 C   0  0  0  0  0  0  0  0  0  0  0  0
    3.7090   16.6750   38.5420 C   0  0  0  0  0  0  0  0  0  0  0  0
    1.1370   20.8630   40.8240 N   0  0  0  0  0  0  0  0  0  0  0  0
    3.2890   17.9000   38.7580 C   0  0  0  0  0  0  0  0  0  0  0  0
    3.5060   20.8920   36.0220 O   0  0  0  0  0  0  0  0  0  0  0  0
   -0.3240   17.5880   43.2360 C   0  0  0  0  0  0  0  0  0  0  0  0
    5.3800   13.5810   37.9890 C   0  0  0  0  0  0  0  0  0  0  0  0
   -0.7690   19.6960   44.3140 O   0  0  0  0  0  0  0  0  0  0  0  0
   -0.2140   16.1790   43.3340 C   0  0  0  0  0  0  0  0  0  0  0  0
   -0.3830   15.6260   44.6320 C   0  0  0  0  0  0  0  0  0  0  0  0
   -0.5510   18.3960   44.3520 C   0  0  0  0  0  0  0  0  0  0  0  0
    0.7950   19.7140   41.2100 N   0  0  0  0  0  0  0  0  0  0  0  0
    5.1060   14.2920   36.7310 C   0  0  0  0  0  0  0  0  0  0  0  0
    4.4680   15.4030   36.6260 N   0  0  0  0  0  0  0  0  0  0  0  0
   -1.3340   14.6410   47.4590 C   0  0  0  0  0  0  0  0  0  0  0  0
    2.0660   21.0860   39.9320 C   0  0  0  0  0  0  0  0  0  0  0  0
   -1.9030   14.5030   48.7150 C   0  0  0  0  0  0  0  0  0  0  0  0
   -0.3550   21.2170   42.3120 C   0  0  0  0  0  0  0  0  0  0  0  0
   -0.7710   17.7590   45.6130 C   0  0  0  0  0  0  0  0  0  0  0  0
    2.5080   19.9610   39.2020 C   0  0  0  0  0  0  0  0  0  0  0  0
   -1.0100   17.0510   47.9390 C   0  0  0  0  0  0  0  0  0  0  0  0
   -2.2500   15.3990   50.8750 F   0  0  0  0  0  0  0  0  0  0  0  0
   -0.1310   19.8220   42.1600 N   0  0  0  0  0  0  0  0  0  0  0  0
    4.0110   16.6180   37.1870 C   0  0  0  0  0  0  0  0  0  0  0  0
   -0.6760   16.4270   45.6990 C   0  0  0  0  0  0  0  0  0  0  0  0
   -1.8730   15.5630   49.5880 C   0  0  0  0  0  0  0  0  0  0  0  0
   -1.0800   21.7530   43.0640 O   0  0  0  0  0  0  0  0  0  0  0  0
    3.3700   18.6150   37.5990 C   0  0  0  0  0  0  0  0  0  0  0  0
    0.1812   22.5671   40.8535 H   0  0  0  0  0  0  0  0  0  0  0  0
    1.3902   22.3196   42.1230 H   0  0  0  0  0  0  0  0  0  0  0  0
    6.4520   12.9598   35.7210 H   0  0  0  0  0  0  0  0  0  0  0  0
    4.8933   13.2389   34.8729 H   0  0  0  0  0  0  0  0  0  0  0  0
    6.1569   14.5155   34.8729 H   0  0  0  0  0  0  0  0  0  0  0  0
   -1.3768   17.6353   49.9376 H   0  0  0  0  0  0  0  0  0  0  0  0
    1.8403   21.6140   37.0239 H   0  0  0  0  0  0  0  0  0  0  0  0
    2.6698   18.4943   40.7833 H   0  0  0  0  0  0  0  0  0  0  0  0
    4.6049   16.4642   39.1444 H   0  0  0  0  0  0  0  0  0  0  0  0
    2.9507   15.9290   38.8222 H   0  0  0  0  0  0  0  0  0  0  0  0
    4.4073   20.8559   36.4300 H   0  0  0  0  0  0  0  0  0  0  0  0
   -0.2274   18.0613   42.2478 H   0  0  0  0  0  0  0  0  0  0  0  0
    5.1293   14.2315   38.8399 H   0  0  0  0  0  0  0  0  0  0  0  0
    4.7697   12.6669   38.0340 H   0  0  0  0  0  0  0  0  0  0  0  0
    6.4459   13.3129   38.0340 H   0  0  0  0  0  0  0  0  0  0  0  0
   -0.9217   20.1971   45.1541 H   0  0  0  0  0  0  0  0  0  0  0  0
   -0.0095   15.5492   42.4557 H   0  0  0  0  0  0  0  0  0  0  0  0
   -0.2767   14.5411   44.7792 H   0  0  0  0  0  0  0  0  0  0  0  0
    0.4104   19.1849   40.4143 H   0  0  0  0  0  0  0  0  0  0  0  0
    4.1978   13.6881   36.5875 H   0  0  0  0  0  0  0  0  0  0  0  0
    4.1175   15.4133   35.6575 H   0  0  0  0  0  0  0  0  0  0  0  0
   -1.1374   13.7526   46.8408 H   0  0  0  0  0  0  0  0  0  0  0  0
    1.6727   21.8200   39.2132 H   0  0  0  0  0  0  0  0  0  0  0  0
    2.9424   21.4342   40.4983 H   0  0  0  0  0  0  0  0  0  0  0  0
   -2.3741   13.5538   49.0100 H   0  0  0  0  0  0  0  0  0  0  0  0
   -1.0157   18.3575   46.5029 H   0  0  0  0  0  0  0  0  0  0  0  0
    1.4909   19.6121   38.9702 H   0  0  0  0  0  0  0  0  0  0  0  0
   -0.6884   18.0521   47.6158 H   0  0  0  0  0  0  0  0  0  0  0  0
   -0.5883   19.0566   42.6757 H   0  0  0  0  0  0  0  0  0  0  0  0
  1 25  1  0
  2 20  1  0
  3 22  1  0
  3 28  2  0
  4 27  1  0
  5 33  2  0
  6  4  1  0
  7 31  2  0
  7 35  1  0
  9 11  1  0
 10 19  1  0
 10  1  1  0
 11  8  2  0
 12  6  1  0
 13 16  2  0
 13 18  1  0
 15 18  1  0
 16 17  1  0
 17 32  2  0
 18 26  2  0
 19 30  1  0
 20 14  1  0
 21 20  1  0
 21 31  1  0
 22 24  2  0
 23 10  1  0
 24 33  1  0
 25 34  2  0
 26 32  1  0
 27  8  1  0
 27 23  1  0
 28  5  1  0
 30 25  1  0
 31  9  1  0
 32  3  1  0
 33 29  1  0
 35  4  2  0
 35 11  1  0
  1 36  1  0
  1 37  1  0
  2 38  1  0
  2 39  1  0
  2 40  1  0
  5 41  1  0
  6 42  1  0
  8 43  1  0
  9 44  1  0
  9 45  1  0
 12 46  1  0
 13 47  1  0
 14 48  1  0
 14 49  1  0
 14 50  1  0
 15 51  1  0
 16 52  1  0
 17 53  1  0
 19 54  1  0
 20 55  1  0
 21 56  1  0
 22 57  1  0
 23 58  1  0
 23 59  1  0
 24 60  1  0
 26 61  1  0
 27 62  1  0
 28 63  1  0
 30 64  1  0
M  END
>  <mol_id>  (7) 
2026-08-24-6tgu-s0-n100-seed1-0008

>  <rmsd_to_ref>  (7) 


$$$$

     RDKit          3D

 40 43  0  0  0  0  0  0  0  0999 V2000
    2.0810   18.5070   39.7240 C   0  0  0  0  0  0  0  0  0  0  0  0
   -0.7280   19.9830   44.1360 N   0  0  0  0  0  0  0  0  0  0  0  0
    0.6930   18.5070   42.0210 C   0  0  0  0  0  0  0  0  0  0  0  0
    3.3630   18.2670   37.6690 C   0  0  0  0  0  0  0  0  0  0  0  0
    3.0490   16.3580   39.0070 C   0  0  0  0  0  0  0  0  0  0  0  0
    3.2200   19.6630   37.3360 C   0  0  0  0  0  0  0  0  0  0  0  0
    4.1470   14.1210   38.3290 C   0  0  0  0  0  0  0  0  0  0  0  0
   -0.3150   20.5680   42.9770 C   0  0  0  0  0  0  0  0  0  0  0  0
    3.7770   15.5860   38.0590 C   0  0  0  0  0  0  0  0  0  0  0  0
   -1.8140   17.2390   45.8970 N   0  0  0  0  0  4  0  0  0  0  0  0
    4.5120   13.6480   37.0520 O   0  0  0  0  0  0  0  0  0  0  0  0
    2.8250   17.7150   38.8460 C   0  0  0  0  0  0  0  0  0  0  0  0
    4.2610   16.2570   36.9940 N   0  0  0  0  0  0  0  0  0  0  0  0
    2.5080   20.5150   38.2850 C   0  0  0  0  0  0  0  0  0  0  0  0
    0.3660   19.9230   41.9320 C   0  0  0  0  0  0  0  0  0  0  0  0
    0.0940   17.8480   43.1670 C   0  0  0  0  0  0  0  0  0  0  0  0
    1.9610   19.8810   39.3930 C   0  0  0  0  0  0  0  0  0  0  0  0
    4.0720   17.4910   36.8020 N   0  0  0  0  0  0  0  0  0  0  0  0
   -0.8500   18.1590   45.6040 C   0  0  0  0  0  0  0  0  0  0  0  0
   -0.5560   18.5790   44.1850 C   0  0  0  0  0  0  0  0  0  0  0  0
   -0.4920   17.3030   46.6790 C   0  0  0  0  0  0  0  0  0  0  0  0
    3.8190   20.0610   36.2680 O   0  0  0  0  0  0  0  0  0  0  0  0
    1.5180   17.8300   40.9710 C   0  0  0  0  0  0  0  0  0  0  0  0
    2.6491   15.8580   39.9015 H   0  0  0  0  0  0  0  0  0  0  0  0
    4.9888   14.0488   39.0333 H   0  0  0  0  0  0  0  0  0  0  0  0
    3.3309   13.5445   38.7889 H   0  0  0  0  0  0  0  0  0  0  0  0
   -0.5340   21.6383   42.8487 H   0  0  0  0  0  0  0  0  0  0  0  0
   -1.9990   16.4572   45.2525 H   0  0  0  0  0  0  0  0  0  0  0  0
   -2.8153   17.2701   46.1366 H   0  0  0  0  0  0  0  0  0  0  0  0
    5.1139   12.8680   37.1486 H   0  0  0  0  0  0  0  0  0  0  0  0
    2.4104   21.5997   38.1305 H   0  0  0  0  0  0  0  0  0  0  0  0
    0.6554   20.4933   41.0370 H   0  0  0  0  0  0  0  0  0  0  0  0
    0.1478   16.7520   43.2443 H   0  0  0  0  0  0  0  0  0  0  0  0
    1.3762   20.5071   40.0829 H   0  0  0  0  0  0  0  0  0  0  0  0
   -0.5734   19.2231   45.5707 H   0  0  0  0  0  0  0  0  0  0  0  0
   -0.4661   17.6771   47.7131 H   0  0  0  0  0  0  0  0  0  0  0  0
    0.3336   16.6194   46.9260 H   0  0  0  0  0  0  0  0  0  0  0  0
    3.7564   21.0089   35.9894 H   0  0  0  0  0  0  0  0  0  0  0  0
    0.8963   17.0023   40.5991 H   0  0  0  0  0  0  0  0  0  0  0  0
    2.4460   17.6522   41.5343 H   0  0  0  0  0  0  0  0  0  0  0  0
  1 23  1  0
  2 20  2  0
  3 16  2  0
  4 12  2  0
  6  4  1  0
  6 14  2  0
  8  2  1  0
  9  7  1  0
  9  5  2  0
 10 21  1  0
 11  7  1  0
 12  5  1  0
 12  1  1  0
 13  9  1  0
 14 17  1  0
 15  3  1  0
 15  8  2  0
 16 20  1  0
 17  1  2  0
 18 13  2  0
 18  4  1  0
 19 20  1  0
 19 10  1  0
 19 21  1  0
 22  6  1  0
 23  3  1  0
  5 24  1  0
  7 25  1  0
  7 26  1  0
  8 27  1  0
 10 28  1  0
 10 29  1  0
 11 30  1  0
 14 31  1  0
 15 32  1  0
 16 33  1  0
 17 34  1  0
 19 35  1  0
 21 36  1  0
 21 37  1  0
 22 38  1  0
 23 39  1  0
 23 40  1  0
M  CHG  1  10   1
M  END
>  <mol_id>  (8) 
2026-08-24-6tgu-s0-n100-seed1-0009

>  <rmsd_to_ref>  (8) 


$$$$

     RDKit          3D

 38 41  0  0  0  0  0  0  0  0999 V2000
    3.7290   17.9120   39.3690 F   0  0  0  0  0  0  0  0  0  0  0  0
   -0.4510   18.0910   44.0980 C   0  0  0  0  0  0  0  0  0  0  0  0
    2.4130   20.5880   38.8090 C   0  0  0  0  0  0  0  0  0  0  0  0
    1.9770   19.1990   40.1640 N   0  0  0  0  0  0  0  0  0  0  0  0
    0.3210   20.7580   41.7380 C   0  0  0  0  0  0  0  0  0  0  0  0
    2.2830   21.0720   37.5520 C   0  0  0  0  0  0  0  0  0  0  0  0
    3.7890   18.9920   37.6480 C   0  0  0  0  0  0  0  0  0  0  0  0
    1.9630   20.4190   39.9070 C   0  0  0  0  0  0  0  0  0  0  0  0
    3.2930   19.0310   38.7460 C   0  0  0  0  0  0  0  0  0  0  0  0
    1.1330   21.3470   40.6630 C   0  0  0  0  0  0  0  0  0  0  0  0
    4.5930   18.6570   37.0060 C   0  0  0  0  0  0  0  0  0  0  0  0
    1.6670   17.1160   40.8880 O   0  0  0  0  0  0  0  0  0  0  0  0
    3.0540   20.7830   36.4900 C   0  0  0  0  0  0  0  0  0  0  0  0
   -0.8560   20.1240   43.3440 C   0  0  0  0  0  0  0  0  0  0  0  0
    0.3400   17.6270   43.0990 C   0  0  0  0  0  0  0  0  0  0  0  0
   -1.0300   19.2930   44.2560 C   0  0  0  0  0  0  0  0  0  0  0  0
    0.7510   18.6630   42.0740 C   0  0  0  0  0  0  0  0  0  0  0  0
    1.4880   18.3660   40.8570 C   0  0  0  0  0  0  0  0  0  0  0  0
    3.8800   19.6540   36.5810 C   0  0  0  0  0  0  0  0  0  0  0  0
   -1.2740   17.3540   46.2800 C   0  0  0  0  0  0  0  0  0  0  0  0
    0.2120   19.9260   42.3700 C   0  0  0  0  0  0  0  0  0  0  0  0
   -0.5630   17.0500   45.1470 C   0  0  0  0  0  0  0  0  0  0  0  0
    2.6672   18.7453   39.5486 H   0  0  0  0  0  0  0  0  0  0  0  0
   -0.6698   20.7692   41.2603 H   0  0  0  0  0  0  0  0  0  0  0  0
    0.9298   21.2712   42.4969 H   0  0  0  0  0  0  0  0  0  0  0  0
    1.4571   21.7782   37.3811 H   0  0  0  0  0  0  0  0  0  0  0  0
    2.5701   21.0831   40.5398 H   0  0  0  0  0  0  0  0  0  0  0  0
    1.7959   22.0991   41.1157 H   0  0  0  0  0  0  0  0  0  0  0  0
    0.4134   21.7577   39.9394 H   0  0  0  0  0  0  0  0  0  0  0  0
    5.6360   18.8286   37.3106 H   0  0  0  0  0  0  0  0  0  0  0  0
    4.8653   17.6814   36.5770 H   0  0  0  0  0  0  0  0  0  0  0  0
    3.0376   21.4078   35.5848 H   0  0  0  0  0  0  0  0  0  0  0  0
   -1.5079   21.0072   43.2732 H   0  0  0  0  0  0  0  0  0  0  0  0
    0.6593   16.5761   43.0378 H   0  0  0  0  0  0  0  0  0  0  0  0
   -1.6287   19.5320   45.1473 H   0  0  0  0  0  0  0  0  0  0  0  0
   -1.3790   16.6069   47.0805 H   0  0  0  0  0  0  0  0  0  0  0  0
   -1.7392   18.3449   46.3881 H   0  0  0  0  0  0  0  0  0  0  0  0
   -0.0908   16.0645   45.0209 H   0  0  0  0  0  0  0  0  0  0  0  0
  2 16  2  0
  2 22  1  0
  4 18  1  0
  5 21  1  0
  6  3  2  0
  7  9  2  0
  8  3  1  0
  8  4  1  0
  8 10  1  0
  9  3  1  0
  9  1  1  0
 10  5  1  0
 11  7  1  0
 13 19  2  0
 13  6  1  0
 14 16  1  0
 15  2  1  0
 17 21  1  0
 17 15  2  0
 18 12  2  0
 18 17  1  0
 19 11  1  0
 19  7  1  0
 21 14  2  0
 22 20  2  3
  4 23  1  0
  5 24  1  0
  5 25  1  0
  6 26  1  0
  8 27  1  0
 10 28  1  0
 10 29  1  0
 11 30  1  0
 11 31  1  0
 13 32  1  0
 14 33  1  0
 15 34  1  0
 16 35  1  0
 20 36  1  0
 20 37  1  0
 22 38  1  0
M  END
>  <mol_id>  (9) 
2026-08-24-6tgu-s0-n100-seed1-0010

>  <rmsd_to_ref>  (9) 


$$$$

     RDKit          3D

 56 58  0  0  0  0  0  0  0  0999 V2000
    1.0380   21.0220   41.3860 N   0  0  0  0  0  0  0  0  0  0  0  0
    2.9400   17.2090   39.0550 C   0  0  0  0  0  0  0  0  0  0  0  0
    2.4420   18.5190   39.5660 C   0  0  0  0  0  0  0  0  0  0  0  0
    3.0320   14.8370   39.1590 C   0  0  0  0  0  0  0  0  0  0  0  0
    1.8070   18.5990   40.9570 C   0  0  0  0  0  0  0  0  0  0  0  0
    3.8710   16.0190   37.1890 C   0  0  0  0  0  0  0  0  0  0  0  0
    0.6330   18.2110   42.8160 C   0  0  0  0  0  0  0  0  0  0  0  0
    3.5870   13.6970   37.0980 O   0  0  0  0  0  0  0  0  0  0  0  0
    1.6400   21.6220   40.1470 C   0  0  0  0  0  0  0  0  0  0  0  0
    3.7930   19.6810   36.3580 O   0  0  0  0  0  0  0  0  0  0  0  0
   -0.0010   17.3490   43.6440 N   0  0  0  0  0  0  0  0  0  0  0  0
   -0.8110   20.1460   42.7820 O   0  0  0  0  0  0  0  0  0  0  0  0
    1.0400   19.7530   41.5480 N   0  0  0  0  0  0  0  0  0  0  0  0
   -0.6900   14.7520   43.8090 O   0  0  0  0  0  0  0  0  0  0  0  0
    3.1690   19.5590   39.0280 O   0  0  0  0  0  0  0  0  0  0  0  0
    0.0900   19.4190   42.5130 C   0  0  0  0  0  0  0  0  0  0  0  0
   -0.8510   16.4480   45.5480 N   0  0  0  0  0  0  0  0  0  0  0  0
   -1.2360   13.4640   43.4730 C   0  0  0  0  0  0  0  0  0  0  0  0
    3.0430   20.5640   36.7190 C   0  0  0  0  0  0  0  0  0  0  0  0
    3.6100   17.1560   37.8140 C   0  0  0  0  0  0  0  0  0  0  0  0
    2.6340   20.6040   38.2290 C   0  0  0  0  0  0  0  0  0  0  0  0
   -0.7670   15.1440   45.1470 C   0  0  0  0  0  0  0  0  0  0  0  0
    1.3310   20.8530   38.8950 C   0  0  0  0  0  0  0  0  0  0  0  0
   -0.7590   16.7050   46.9780 C   0  0  0  0  0  0  0  0  0  0  0  0
    2.6100   21.5430   36.0000 N   0  0  0  0  0  0  0  0  0  0  0  0
    1.6470   17.7170   41.8650 C   0  0  0  0  0  0  0  0  0  0  0  0
    2.7270   15.9740   39.6730 C   0  0  0  0  0  0  0  0  0  0  0  0
   -0.8210   14.2510   45.9790 O   0  0  0  0  0  0  0  0  0  0  0  0
    3.5210   14.8080   37.8120 C   0  0  0  0  0  0  0  0  0  0  0  0
   -0.6530   17.5270   44.7140 C   0  0  0  0  0  0  0  0  0  0  0  0
   -0.8900   18.7180   45.0670 O   0  0  0  0  0  0  0  0  0  0  0  0
    0.0536   21.3239   41.4145 H   0  0  0  0  0  0  0  0  0  0  0  0
    1.4294   18.6808   39.1680 H   0  0  0  0  0  0  0  0  0  0  0  0
    2.9207   13.9085   39.7383 H   0  0  0  0  0  0  0  0  0  0  0  0
    2.7424   19.0143   41.3601 H   0  0  0  0  0  0  0  0  0  0  0  0
    4.3529   16.0213   36.2002 H   0  0  0  0  0  0  0  0  0  0  0  0
    1.2474   18.4922   43.6840 H   0  0  0  0  0  0  0  0  0  0  0  0
    3.3467   12.8292   37.5094 H   0  0  0  0  0  0  0  0  0  0  0  0
    1.2514   22.6446   40.0318 H   0  0  0  0  0  0  0  0  0  0  0  0
    2.7321   21.6014   40.2767 H   0  0  0  0  0  0  0  0  0  0  0  0
    0.0580   16.3641   43.3483 H   0  0  0  0  0  0  0  0  0  0  0  0
   -1.4697   12.9128   44.3958 H   0  0  0  0  0  0  0  0  0  0  0  0
   -2.1548   13.5978   42.8832 H   0  0  0  0  0  0  0  0  0  0  0  0
   -0.5010   12.8967   42.8832 H   0  0  0  0  0  0  0  0  0  0  0  0
    3.9287   18.0994   37.3466 H   0  0  0  0  0  0  0  0  0  0  0  0
    3.0448   21.6213   38.1495 H   0  0  0  0  0  0  0  0  0  0  0  0
    0.6736   21.4419   38.2384 H   0  0  0  0  0  0  0  0  0  0  0  0
    0.8105   19.9108   39.1218 H   0  0  0  0  0  0  0  0  0  0  0  0
   -1.0792   15.8106   47.5326 H   0  0  0  0  0  0  0  0  0  0  0  0
    0.2814   16.9466   47.2409 H   0  0  0  0  0  0  0  0  0  0  0  0
   -1.4098   17.5520   47.2409 H   0  0  0  0  0  0  0  0  0  0  0  0
    1.9729   22.2407   36.4101 H   0  0  0  0  0  0  0  0  0  0  0  0
    2.9012   21.6272   35.0156 H   0  0  0  0  0  0  0  0  0  0  0  0
    1.3047   16.7747   41.4123 H   0  0  0  0  0  0  0  0  0  0  0  0
    2.5979   17.5324   42.3863 H   0  0  0  0  0  0  0  0  0  0  0  0
    2.2650   15.9756   40.6713 H   0  0  0  0  0  0  0  0  0  0  0  0
  1 13  1  0
  2 27  1  0
  3  2  1  0
  3  5  1  0
  4 27  2  0
  5 13  1  0
  5 26  1  0
  6 29  2  0
  6 20  1  0
  7 11  1  0
  8 29  1  0
  9  1  1  0
 10 19  2  0
 11 30  1  0
 13 16  1  0
 14 22  1  0
 15  3  1  0
 16 12  2  0
 16  7  1  0
 17 24  1  0
 18 14  1  0
 20  2  2  0
 21 19  1  0
 21 23  1  0
 21 15  1  0
 22 17  1  0
 22 28  2  0
 23  9  1  0
 25 19  1  0
 26  7  1  0
 29  4  1  0
 30 31  2  0
 30 17  1  0
  1 32  1  0
  3 33  1  0
  4 34  1  0
  5 35  1  0
  6 36  1  0
  7 37  1  0
  8 38  1  0
  9 39  1  0
  9 40  1  0
 11 41  1  0
 18 42  1  0
 18 43  1  0
 18 44  1  0
 20 45  1  0
 21 46  1  0
 23 47  1  0
 23 48  1  0
 24 49  1  0
 24 50  1  0
 24 51  1  0
 25 52  1  0
 25 53  1  0
 26 54  1  0
 26 55  1  0
 27 56  1  0
M  END
>  <mol_id>  (10) 
2026-08-24-6tgu-s0-n100-seed1-0011

>  <rmsd_to_ref>  (10) 


$$$$

     RDKit          3D

 26 27  0  0  0  0  0  0  0  0999 V2000
    0.0030   20.3490   42.4010 C   0  0  0  0  0  0  0  0  0  0  0  0
    1.9190   21.1480   39.3420 S   0  0  0  0  0  0  0  0  0  0  0  0
    1.6870   15.5930   42.3540 O   0  0  0  0  0  0  0  0  0  0  0  0
   -0.0860   15.5750   43.8300 N   0  0  0  0  0  0  0  0  0  0  0  0
    0.9180   18.2770   41.3620 C   0  0  0  0  0  0  0  0  0  0  0  0
   -0.2570   18.3670   43.4650 C   0  0  0  0  0  0  0  0  0  0  0  0
    3.3770   19.8850   38.1500 N   0  0  0  0  0  0  0  0  0  0  0  0
    2.6930   20.0720   39.1900 C   0  0  0  0  0  0  0  0  0  0  0  0
   -0.5030   19.6970   43.4600 N   0  0  0  0  0  0  0  0  0  0  0  0
    0.8170   16.1170   42.8210 C   0  0  0  0  0  0  0  0  0  0  0  0
    3.2470   20.0440   36.8800 C   0  0  0  0  0  0  0  0  0  0  0  0
    3.7520   18.9200   36.3430 O   0  0  0  0  0  1  0  0  0  0  0  0
    2.8200   20.9870   36.3380 O   0  0  0  0  0  0  0  0  0  0  0  0
    0.4800   17.5630   42.5570 C   0  0  0  0  0  0  0  0  0  0  0  0
    0.6250   19.7180   41.2830 C   0  0  0  0  0  0  0  0  0  0  0  0
    3.1280   18.9740   39.4490 N   0  0  0  0  0  0  0  0  0  0  0  0
    1.1740   20.5890   40.5130 C   0  0  0  0  0  0  0  0  0  0  0  0
   -0.0670   21.4468   42.3950 H   0  0  0  0  0  0  0  0  0  0  0  0
   -0.8593   16.1511   44.1918 H   0  0  0  0  0  0  0  0  0  0  0  0
    0.0496   14.6161   44.1807 H   0  0  0  0  0  0  0  0  0  0  0  0
    1.4477   17.7577   40.5498 H   0  0  0  0  0  0  0  0  0  0  0  0
   -0.7001   17.8197   44.3100 H   0  0  0  0  0  0  0  0  0  0  0  0
    3.5349   20.6131   39.6464 H   0  0  0  0  0  0  0  0  0  0  0  0
    2.5297   18.1364   39.4112 H   0  0  0  0  0  0  0  0  0  0  0  0
    1.8225   21.0312   41.2836 H   0  0  0  0  0  0  0  0  0  0  0  0
    0.3136   20.4612   39.8397 H   0  0  0  0  0  0  0  0  0  0  0  0
  1  9  2  0
  2 17  1  0
  3 10  2  0
  5 14  1  0
  7  8  1  0
  7 16  1  0
  8  2  1  0
  8 16  1  0
  9  6  1  0
 10  4  1  0
 11  7  1  0
 12 11  1  0
 13 11  2  0
 14 10  1  0
 14  6  2  0
 15  5  2  0
 15  1  1  0
 17 15  1  0
  1 18  1  0
  4 19  1  0
  4 20  1  0
  5 21  1  0
  6 22  1  0
  8 23  1  0
 16 24  1  0
 17 25  1  0
 17 26  1  0
M  CHG  1  12  -1
M  END
>  <mol_id>  (11) 
2026-08-24-6tgu-s0-n100-seed1-0012

>  <rmsd_to_ref>  (11) 


$$$$

     RDKit          3D

 54 59  0  0  0  0  0  0  0  0999 V2000
    1.7320   15.2080   41.5440 C   0  0  0  0  0  0  0  0  0  0  0  0
    3.2730   22.4500   34.4190 C   0  0  0  0  0  0  0  0  0  0  0  0
    2.8840   20.5350   38.3600 C   0  0  0  0  0  0  0  0  0  0  0  0
   -0.7320   20.3000   44.0430 N   0  0  0  0  0  4  0  0  0  0  0  0
    0.4320   14.8380   43.4560 C   0  0  0  0  0  0  0  0  0  0  0  0
   -1.0900   18.5120   45.4020 N   0  0  0  0  0  4  0  0  0  0  0  0
    3.4300   16.4590   38.4460 C   0  0  0  0  0  0  0  0  0  0  0  0
    0.7070   17.1180   42.5740 C   0  0  0  0  0  0  0  0  0  0  0  0
    3.3850   19.8480   37.1850 C   0  0  0  0  0  0  0  0  0  0  0  0
    0.7530   13.5430   43.4740 N   0  0  0  0  0  0  0  0  0  0  0  0
    0.7250   19.1990   41.5770 C   0  0  0  0  0  0  0  0  0  0  0  0
   -0.0300   20.8990   42.8900 C   0  0  0  0  0  0  0  0  0  0  0  0
    2.7410   21.5890   35.6640 C   0  0  0  0  0  0  0  0  0  0  0  0
    0.7420   20.9120   40.9840 C   0  0  0  0  0  0  0  0  0  0  0  0
    3.1610   17.8230   38.4230 C   0  0  0  0  0  0  0  0  0  0  0  0
    0.9520   15.7290   42.5360 C   0  0  0  0  0  0  0  0  0  0  0  0
    2.1840   16.0700   40.4840 C   0  0  0  0  0  0  0  0  0  0  0  0
    3.5390   18.5240   37.2570 C   0  0  0  0  0  0  0  0  0  0  0  0
   -0.6130   15.3280   44.6770 C   0  0  0  0  0  0  0  0  0  0  0  0
    0.0820   18.0340   43.5010 C   0  0  0  0  0  0  0  0  0  0  0  0
    2.4120   18.2730   39.4760 C   0  0  0  0  0  0  0  0  0  0  0  0
    1.1630   17.8790   41.5530 C   0  0  0  0  0  0  0  0  0  0  0  0
    2.9910   15.5840   39.4630 C   0  0  0  0  0  0  0  0  0  0  0  0
    2.2710   19.9580   39.4340 C   0  0  0  0  0  0  0  0  0  0  0  0
    0.4250   20.2580   41.8820 C   0  0  0  0  0  0  0  0  0  0  0  0
    1.5370   13.0360   42.5160 C   0  0  0  0  0  0  0  0  0  0  0  0
    1.5820   21.1970   39.9270 O   0  0  0  0  0  0  0  0  0  0  0  0
    2.0470   13.8910   41.5130 C   0  0  0  0  0  0  0  0  0  0  0  0
    1.9200   17.4170   40.5220 C   0  0  0  0  0  0  0  0  0  0  0  0
   -0.6370   19.0280   44.2210 C   0  0  0  0  0  0  0  0  0  0  0  0
    3.6120   20.6120   36.0080 N   0  0  0  0  0  0  0  0  0  0  0  0
    1.6680   21.8570   36.1430 O   0  0  0  0  0  0  0  0  0  0  0  0
    3.8176   23.3313   34.7887 H   0  0  0  0  0  0  0  0  0  0  0  0
    3.9471   21.8324   33.8074 H   0  0  0  0  0  0  0  0  0  0  0  0
    2.4190   22.7766   33.8074 H   0  0  0  0  0  0  0  0  0  0  0  0
    3.0105   21.6273   38.3881 H   0  0  0  0  0  0  0  0  0  0  0  0
   -1.7329   20.5196   43.9385 H   0  0  0  0  0  0  0  0  0  0  0  0
   -0.2648   20.7078   44.8654 H   0  0  0  0  0  0  0  0  0  0  0  0
   -0.6500   19.0132   46.1869 H   0  0  0  0  0  0  0  0  0  0  0  0
   -2.1128   18.6217   45.4548 H   0  0  0  0  0  0  0  0  0  0  0  0
   -0.8488   17.5120   45.4548 H   0  0  0  0  0  0  0  0  0  0  0  0
    4.0214   16.0357   37.6208 H   0  0  0  0  0  0  0  0  0  0  0  0
   -0.7324   21.6356   42.4729 H   0  0  0  0  0  0  0  0  0  0  0  0
    0.9137   21.1945   43.3718 H   0  0  0  0  0  0  0  0  0  0  0  0
   -0.2055   20.8808   40.4262 H   0  0  0  0  0  0  0  0  0  0  0  0
    1.4481   21.4317   41.6483 H   0  0  0  0  0  0  0  0  0  0  0  0
    3.9629   17.9757   36.4028 H   0  0  0  0  0  0  0  0  0  0  0  0
   -0.1587   15.1150   45.6559 H   0  0  0  0  0  0  0  0  0  0  0  0
   -0.8009   16.4081   44.5873 H   0  0  0  0  0  0  0  0  0  0  0  0
   -1.5635   14.7817   44.5873 H   0  0  0  0  0  0  0  0  0  0  0  0
    3.2859   14.5244   39.4472 H   0  0  0  0  0  0  0  0  0  0  0  0
    1.7824   11.9637   42.5090 H   0  0  0  0  0  0  0  0  0  0  0  0
    2.6921   13.4917   40.7165 H   0  0  0  0  0  0  0  0  0  0  0  0
    4.4359   20.4228   35.4195 H   0  0  0  0  0  0  0  0  0  0  0  0
  1 16  2  0
  2 13  1  0
  3 24  2  0
  4 30  1  0
  5 10  2  0
  5 19  1  0
  7 23  2  0
  8 20  2  0
  9 18  2  0
  9  3  1  0
 11 25  2  0
 12  4  1  0
 13 31  1  0
 13 32  2  0
 14 25  1  0
 15  7  1  0
 15 21  2  0
 16  8  1  0
 16  5  1  0
 17 29  2  0
 17  1  1  0
 18 15  1  0
 20 30  2  0
 21 29  1  0
 22 11  2  0
 22  8  1  0
 23 17  1  0
 24 21  1  0
 24 27  1  0
 25 12  1  0
 26 10  1  0
 27 14  1  0
 28  1  1  0
 28 26  2  0
 29 22  1  0
 30  6  1  0
 31  9  1  0
  2 33  1  0
  2 34  1  0
  2 35  1  0
  3 36  1  0
  4 37  1  0
  4 38  1  0
  6 39  1  0
  6 40  1  0
  6 41  1  0
  7 42  1  0
 12 43  1  0
 12 44  1  0
 14 45  1  0
 14 46  1  0
 18 47  1  0
 19 48  1  0
 19 49  1  0
 19 50  1  0
 23 51  1  0
 26 52  1  0
 28 53  1  0
 31 54  1  0
M  CHG  2   4   1   6   1
M  END
>  <mol_id>  (12) 
2026-08-24-6tgu-s0-n100-seed1-0013

>  <rmsd_to_ref>  (12) 


$$$$

     RDKit          3D

 38 40  0  0  0  0  0  0  0  0999 V2000
    0.9880   22.0840   40.7130 F   0  0  0  0  0  0  0  0  0  0  0  0
    1.4520   17.4950   41.0790 C   0  0  0  0  0  0  0  0  0  0  0  0
   -0.7060   19.9740   42.5150 O   0  0  0  0  0  0  0  0  0  0  0  0
    0.1820   19.2780   41.8910 C   0  0  0  0  0  0  0  0  0  0  0  0
    2.0510   20.9740   39.0100 C   0  0  0  0  0  0  0  0  0  0  0  0
    1.3350   20.9350   40.1860 C   0  0  0  0  0  0  0  0  0  0  0  0
    3.7730   18.7230   36.7480 O   0  0  0  0  0  1  0  0  0  0  0  0
    2.4060   18.5830   39.1160 C   0  0  0  0  0  0  0  0  0  0  0  0
    2.5590   19.8170   38.4240 C   0  0  0  0  0  0  0  0  0  0  0  0
    2.4700   13.9680   41.8490 C   0  0  0  0  0  0  0  0  0  0  0  0
    3.2500   19.8070   37.0890 C   0  0  0  0  0  0  0  0  0  0  0  0
    2.0300   16.2890   41.0580 C   0  0  0  0  0  0  0  0  0  0  0  0
    1.7310   15.2440   42.0170 C   0  0  0  0  0  0  0  0  0  0  0  0
    3.2790   20.8150   36.4800 O   0  0  0  0  0  0  0  0  0  0  0  0
    0.7990   15.5770   43.0730 C   0  0  0  0  0  0  0  0  0  0  0  0
   -1.0480   18.1550   44.7300 N   0  0  0  0  0  4  0  0  0  0  0  0
    1.0620   19.7680   40.8490 C   0  0  0  0  0  0  0  0  0  0  0  0
   -0.9300   16.8490   44.1330 C   0  0  0  0  0  0  0  0  0  0  0  0
    0.1830   16.7920   43.1230 C   0  0  0  0  0  0  0  0  0  0  0  0
    0.5040   17.8580   42.1980 C   0  0  0  0  0  0  0  0  0  0  0  0
   -0.7450   17.9230   46.1220 C   0  0  0  0  0  0  0  0  0  0  0  0
    1.6950   18.5990   40.2780 C   0  0  0  0  0  0  0  0  0  0  0  0
   -0.8680   20.9159   42.2567 H   0  0  0  0  0  0  0  0  0  0  0  0
    2.2261   21.9437   38.5211 H   0  0  0  0  0  0  0  0  0  0  0  0
    2.8449   17.6521   38.7277 H   0  0  0  0  0  0  0  0  0  0  0  0
    2.7114   13.5512   42.8379 H   0  0  0  0  0  0  0  0  0  0  0  0
    1.8460   13.2534   41.2923 H   0  0  0  0  0  0  0  0  0  0  0  0
    3.4004   14.1537   41.2923 H   0  0  0  0  0  0  0  0  0  0  0  0
    1.8037   15.8638   40.0691 H   0  0  0  0  0  0  0  0  0  0  0  0
    3.0655   16.5414   41.3300 H   0  0  0  0  0  0  0  0  0  0  0  0
    0.5827   14.8324   43.8533 H   0  0  0  0  0  0  0  0  0  0  0  0
   -2.0028   18.5250   44.6186 H   0  0  0  0  0  0  0  0  0  0  0  0
   -0.4242   18.8503   44.2960 H   0  0  0  0  0  0  0  0  0  0  0  0
   -0.7292   16.1128   44.9252 H   0  0  0  0  0  0  0  0  0  0  0  0
   -1.8734   16.6254   43.6134 H   0  0  0  0  0  0  0  0  0  0  0  0
   -1.4622   18.4721   46.7498 H   0  0  0  0  0  0  0  0  0  0  0  0
   -0.8170   16.8469   46.3385 H   0  0  0  0  0  0  0  0  0  0  0  0
    0.2751   18.2732   46.3385 H   0  0  0  0  0  0  0  0  0  0  0  0
  2 20  1  0
  4 20  1  0
  4  3  1  0
  5  6  2  0
  6  1  1  0
  6 17  1  0
  7 11  1  0
  8 22  1  0
  9  5  1  0
  9  8  2  0
 10 13  1  0
 11  9  1  0
 12  2  1  0
 12 13  1  0
 13 15  2  0
 14 11  2  0
 15 19  1  0
 16 21  1  0
 17  4  2  0
 18 16  1  0
 19 18  1  0
 20 19  2  0
 22 17  1  0
 22  2  2  0
  3 23  1  0
  5 24  1  0
  8 25  1  0
 10 26  1  0
 10 27  1  0
 10 28  1  0
 12 29  1  0
 12 30  1  0
 15 31  1  0
 16 32  1  0
 16 33  1  0
 18 34  1  0
 18 35  1  0
 21 36  1  0
 21 37  1  0
 21 38  1  0
M  CHG  2   7  -1  16   1
M  END
>  <mol_id>  (13) 
2026-08-24-6tgu-s0-n100-seed1-0014

>  <rmsd_to_ref>  (13) 


$$$$

     RDKit          3D

 41 43  0  0  0  0  0  0  0  0999 V2000
    2.7040   15.3350   40.1720 C   0  0  0  0  0  0  0  0  0  0  0  0
    2.3190   20.8110   38.6770 N   0  0  0  0  0  0  0  0  0  0  0  0
    1.1640   17.7060   41.4020 C   0  0  0  0  0  0  0  0  0  0  0  0
    4.4470   21.3970   35.2000 O   0  0  0  0  0  0  0  0  0  0  0  0
   -0.2220   18.3910   45.6630 C   0  0  0  0  0  0  0  0  0  0  0  0
   -0.6740   17.5380   44.5980 O   0  0  0  0  0  0  0  0  0  0  0  0
    2.0970   18.9560   39.8800 C   0  0  0  0  0  0  0  0  0  0  0  0
   -0.6340   20.8530   43.7320 F   0  0  0  0  0  0  0  0  0  0  0  0
    2.6000   16.5700   39.5890 C   0  0  0  0  0  0  0  0  0  0  0  0
    0.6600   19.0230   41.6220 C   0  0  0  0  0  0  0  0  0  0  0  0
    3.5790   15.5140   37.6140 C   0  0  0  0  0  0  0  0  0  0  0  0
    1.9780   17.6070   40.2640 N   0  0  0  0  0  0  0  0  0  0  0  0
    3.7180   14.2990   38.2720 C   0  0  0  0  0  0  0  0  0  0  0  0
   -2.2860   19.1160   43.8550 F   0  0  0  0  0  0  0  0  0  0  0  0
    0.6310   16.8760   42.5330 C   0  0  0  0  0  0  0  0  0  0  0  0
    3.4840   20.0660   36.7910 C   0  0  0  0  0  0  0  0  0  0  0  0
   -1.9430   20.5010   42.3340 F   0  0  0  0  0  0  0  0  0  0  0  0
   -0.2480   17.8160   43.3580 C   0  0  0  0  0  0  0  0  0  0  0  0
    2.3130   21.9470   35.8650 O   0  0  0  0  0  1  0  0  0  0  0  0
   -0.3060   19.0910   42.7310 C   0  0  0  0  0  0  0  0  0  0  0  0
    4.2530   19.0970   36.5250 O   0  0  0  0  0  0  0  0  0  0  0  0
    3.3010   14.2040   39.5680 C   0  0  0  0  0  0  0  0  0  0  0  0
    2.8150   20.1970   37.9190 C   0  0  0  0  0  0  0  0  0  0  0  0
   -1.3070   19.9090   43.2800 C   0  0  0  0  0  0  0  0  0  0  0  0
    1.2190   19.7070   40.7740 N   0  0  0  0  0  0  0  0  0  0  0  0
    2.6880   19.3920   39.0050 C   0  0  0  0  0  0  0  0  0  0  0  0
    3.0600   16.6080   38.2850 C   0  0  0  0  0  0  0  0  0  0  0  0
    4.3670   13.0080   37.5760 Cl  0  0  0  0  0  0  0  0  0  0  0  0
    3.3110   21.2500   35.9120 C   0  0  0  0  0  0  0  0  0  0  0  0
    2.2928   15.2138   41.1850 H   0  0  0  0  0  0  0  0  0  0  0  0
    1.8813   20.3647   39.4956 H   0  0  0  0  0  0  0  0  0  0  0  0
   -0.4665   17.9296   46.6312 H   0  0  0  0  0  0  0  0  0  0  0  0
    0.8668   18.5275   45.5864 H   0  0  0  0  0  0  0  0  0  0  0  0
   -0.7204   19.3686   45.5864 H   0  0  0  0  0  0  0  0  0  0  0  0
    3.8811   15.6071   36.5604 H   0  0  0  0  0  0  0  0  0  0  0  0
    0.0357   16.0363   42.1450 H   0  0  0  0  0  0  0  0  0  0  0  0
    1.4426   16.4445   43.1373 H   0  0  0  0  0  0  0  0  0  0  0  0
    3.4266   13.2674   40.1310 H   0  0  0  0  0  0  0  0  0  0  0  0
    2.9651   18.4431   38.5225 H   0  0  0  0  0  0  0  0  0  0  0  0
    2.9178   20.2628   39.6366 H   0  0  0  0  0  0  0  0  0  0  0  0
    3.0103   17.5667   37.7480 H   0  0  0  0  0  0  0  0  0  0  0  0
  3 10  2  0
  3 15  1  0
  4 29  2  0
  6  5  1  0
  7 12  1  0
  7 25  2  0
  9  1  2  0
  9 12  1  0
 10 20  1  0
 11 13  1  0
 11 27  2  0
 12  3  1  0
 13 22  2  0
 15 18  1  0
 16 23  1  0
 17 24  1  0
 18  6  1  0
 19 29  1  0
 20 24  1  0
 20 18  2  0
 21 16  2  0
 22  1  1  0
 23  2  2  3
 23 26  1  0
 24  8  1  0
 24 14  1  0
 25 10  1  0
 26  7  1  0
 27  9  1  0
 28 13  1  0
 29 16  1  0
  1 30  1  0
  2 31  1  0
  5 32  1  0
  5 33  1  0
  5 34  1  0
 11 35  1  0
 15 36  1  0
 15 37  1  0
 22 38  1  0
 26 39  1  0
 26 40  1  0
 27 41  1  0
M  CHG  1  19  -1
M  END
>  <mol_id>  (14) 
2026-08-24-6tgu-s0-n100-seed1-0015

>  <rmsd_to_ref>  (14) 


$$$$

     RDKit          3D

 39 40  0  0  0  0  0  0  0  0999 V2000
    3.2620   20.0520   38.5430 O   0  0  0  0  0  0  0  0  0  0  0  0
    2.1770   21.3600   36.7700 O   0  0  0  0  0  1  0  0  0  0  0  0
   -0.2900   20.2360   41.5520 C   0  0  0  0  0  0  0  0  0  0  0  0
    3.5950   17.5150   37.6940 O   0  0  0  0  0  0  0  0  0  0  0  0
    0.5190   17.7670   42.4250 C   0  0  0  0  0  0  0  0  0  0  0  0
    0.9850   20.2050   41.1380 O   0  0  0  0  0  0  0  0  0  0  0  0
    1.4330   17.9930   41.1660 C   0  0  0  0  0  0  0  0  0  0  0  0
    1.8370   19.2730   40.3880 C   0  0  0  0  0  0  0  0  0  0  0  0
    0.4360   15.3410   43.2600 C   0  0  0  0  0  0  0  0  0  0  0  0
    0.7330   16.4490   42.7060 C   0  0  0  0  0  0  0  0  0  0  0  0
    2.6670   18.9930   39.2800 C   0  0  0  0  0  0  0  0  0  0  0  0
    3.2680   20.9750   40.7650 F   0  0  0  0  0  0  0  0  0  0  0  0
   -0.5590   16.6830   45.2380 C   0  0  0  0  0  0  0  0  0  0  0  0
   -0.6820   17.8020   44.5870 C   0  0  0  0  0  0  0  0  0  0  0  0
    3.7080   19.8160   36.2960 O   0  0  0  0  0  0  0  0  0  0  0  0
   -0.2960   18.5330   43.4940 C   0  0  0  0  0  0  0  0  0  0  0  0
   -0.3370   20.8350   42.8940 C   0  0  0  0  0  0  0  0  0  0  0  0
   -0.6740   19.8510   43.7600 O   0  0  0  0  0  0  0  0  0  0  0  0
    3.0560   20.4700   37.1670 C   0  0  0  0  0  0  0  0  0  0  0  0
    2.5350   16.6150   39.6260 C   0  0  0  0  0  0  0  0  0  0  0  0
   -0.3150   15.2990   44.5240 C   0  0  0  0  0  0  0  0  0  0  0  0
    2.9810   15.1890   39.2750 C   0  0  0  0  0  0  0  0  0  0  0  0
    2.9520   17.7160   38.8550 C   0  0  0  0  0  0  0  0  0  0  0  0
    1.8650   16.7990   40.7890 N   0  0  0  0  0  0  0  0  0  0  0  0
   -0.6917   19.2127   41.5894 H   0  0  0  0  0  0  0  0  0  0  0  0
   -0.8955   20.8331   40.8543 H   0  0  0  0  0  0  0  0  0  0  0  0
    3.7974   16.5937   37.3933 H   0  0  0  0  0  0  0  0  0  0  0  0
    0.7467   14.3989   42.7846 H   0  0  0  0  0  0  0  0  0  0  0  0
    1.6609   16.2203   42.1613 H   0  0  0  0  0  0  0  0  0  0  0  0
    3.2680   20.9750   41.7060 H   0  0  0  0  0  0  0  0  0  0  0  0
   -0.6283   16.7031   46.3356 H   0  0  0  0  0  0  0  0  0  0  0  0
   -1.3952   18.4220   45.1499 H   0  0  0  0  0  0  0  0  0  0  0  0
    0.6181   18.6751   44.0891 H   0  0  0  0  0  0  0  0  0  0  0  0
    0.6481   21.2476   43.1572 H   0  0  0  0  0  0  0  0  0  0  0  0
   -1.0696   21.6548   42.9302 H   0  0  0  0  0  0  0  0  0  0  0  0
   -0.6859   14.3540   44.9476 H   0  0  0  0  0  0  0  0  0  0  0  0
    3.1583   14.6220   40.2008 H   0  0  0  0  0  0  0  0  0  0  0  0
    2.1950   14.6934   38.6863 H   0  0  0  0  0  0  0  0  0  0  0  0
    3.9093   15.2296   38.6863 H   0  0  0  0  0  0  0  0  0  0  0  0
  1 11  1  0
  2 19  1  0
  3 17  1  0
  4 23  1  0
  5 10  2  0
  5 16  1  0
  6  3  1  0
  7  5  1  0
  8  6  1  0
  8  7  2  0
  9 21  2  0
 10  9  1  0
 11  8  1  0
 14 13  2  0
 15 19  2  0
 16 18  1  0
 16 14  1  0
 17 18  1  0
 19  1  1  0
 20 24  2  0
 21 13  1  0
 22 20  1  0
 23 11  2  0
 23 20  1  0
 24  7  1  0
  3 25  1  0
  3 26  1  0
  4 27  1  0
  9 28  1  0
 10 29  1  0
 12 30  1  0
 13 31  1  0
 14 32  1  0
 16 33  1  0
 17 34  1  0
 17 35  1  0
 21 36  1  0
 22 37  1  0
 22 38  1  0
 22 39  1  0
M  CHG  1   2  -1
M  END
>  <mol_id>  (15) 
2026-08-24-6tgu-s0-n100-seed1-0016

>  <rmsd_to_ref>  (15) 


$$$$

     RDKit          3D

 48 52  0  0  0  0  0  0  0  0999 V2000
    5.3660   13.1120   39.2110 N   0  0  0  0  0  0  0  0  0  0  0  0
    0.4330   20.5850   42.0170 C   0  0  0  0  0  0  0  0  0  0  0  0
    4.3350   20.4820   35.5040 C   0  0  0  0  0  0  0  0  0  0  0  0
   -0.7350   17.1620   46.0040 C   0  0  0  0  0  0  0  0  0  0  0  0
    4.9060   13.9890   37.1690 C   0  0  0  0  0  0  0  0  0  0  0  0
   -0.9630   20.0650   43.9450 C   0  0  0  0  0  0  0  0  0  0  0  0
    3.2810   15.4860   38.8070 C   0  0  0  0  0  0  0  0  0  0  0  0
    2.4050   19.6420   38.4030 C   0  0  0  0  0  0  0  0  0  0  0  0
    2.1390   17.5550   40.4810 C   0  0  0  0  0  0  0  0  0  0  0  0
    2.7320   18.4240   38.1480 C   0  0  0  0  0  0  0  0  0  0  0  0
    1.7290   18.9080   40.6730 C   0  0  0  0  0  0  0  0  0  0  0  0
    3.5590   19.9110   36.6280 C   0  0  0  0  0  0  0  0  0  0  0  0
    0.8200   21.6050   41.1620 C   0  0  0  0  0  0  0  0  0  0  0  0
   -0.5410   17.9030   45.1370 C   0  0  0  0  0  0  0  0  0  0  0  0
    1.9430   20.0020   39.7130 C   0  0  0  0  0  0  0  0  0  0  0  0
    5.9640   13.2300   36.9950 N   0  0  0  0  0  0  0  0  0  0  0  0
   -0.3210   18.6890   44.0130 C   0  0  0  0  0  0  0  0  0  0  0  0
    0.8150   19.2120   41.8120 C   0  0  0  0  0  0  0  0  0  0  0  0
    3.4870   18.5550   36.9940 O   0  0  0  0  0  0  0  0  0  0  0  0
   -0.5400   20.9390   42.8930 N   0  0  0  0  0  0  0  0  0  0  0  0
    2.7330   17.1920   39.0450 C   0  0  0  0  0  0  0  0  0  0  0  0
    4.4790   13.9590   38.4440 N   0  0  0  0  0  0  0  0  0  0  0  0
    4.2970   14.8140   36.1830 N   0  0  0  0  0  0  0  0  0  0  0  0
    1.6130   21.2690   40.0520 C   0  0  0  0  0  0  0  0  0  0  0  0
    6.1730   12.6980   38.3500 N   0  0  0  0  0  0  0  0  0  0  0  0
    1.8490   16.5350   41.3390 C   0  0  0  0  0  0  0  0  0  0  0  0
    0.5870   18.2240   42.9390 C   0  0  0  0  0  0  0  0  0  0  0  0
    2.8680   14.7370   39.9700 C   0  0  0  0  0  0  0  0  0  0  0  0
    2.2030   15.1170   41.1280 C   0  0  0  0  0  0  0  0  0  0  0  0
    2.7030   20.6290   37.4170 C   0  0  0  0  0  0  0  0  0  0  0  0
    5.1614   21.0901   35.9005 H   0  0  0  0  0  0  0  0  0  0  0  0
    4.7424   19.6667   34.8881 H   0  0  0  0  0  0  0  0  0  0  0  0
    3.6778   21.1135   34.8881 H   0  0  0  0  0  0  0  0  0  0  0  0
   -0.9195   16.4574   46.8284 H   0  0  0  0  0  0  0  0  0  0  0  0
   -1.7234   20.3773   44.6760 H   0  0  0  0  0  0  0  0  0  0  0  0
    3.8276   15.0918   37.9376 H   0  0  0  0  0  0  0  0  0  0  0  0
    2.6934   19.7773   35.9625 H   0  0  0  0  0  0  0  0  0  0  0  0
    0.5156   22.6457   41.3469 H   0  0  0  0  0  0  0  0  0  0  0  0
    3.6564   14.4568   38.8133 H   0  0  0  0  0  0  0  0  0  0  0  0
    4.6527   14.8094   35.2164 H   0  0  0  0  0  0  0  0  0  0  0  0
    3.5003   15.4159   36.4357 H   0  0  0  0  0  0  0  0  0  0  0  0
    1.9887   22.0869   39.4196 H   0  0  0  0  0  0  0  0  0  0  0  0
    1.3079   16.7892   42.2624 H   0  0  0  0  0  0  0  0  0  0  0  0
    1.0622   17.2321   42.9578 H   0  0  0  0  0  0  0  0  0  0  0  0
    3.1280   13.6689   39.9316 H   0  0  0  0  0  0  0  0  0  0  0  0
    1.9407   14.3642   41.8859 H   0  0  0  0  0  0  0  0  0  0  0  0
    3.1919   21.5117   37.8550 H   0  0  0  0  0  0  0  0  0  0  0  0
    1.8294   21.0493   36.8972 H   0  0  0  0  0  0  0  0  0  0  0  0
  2 20  2  0
  5 22  1  0
  6 17  2  0
  7 21  1  0
  7 28  2  0
  8 15  2  0
  9 11  2  0
  9 26  1  0
 10  8  1  0
 10 21  2  0
 11 18  1  0
 12  3  1  0
 12 19  1  0
 12 30  1  0
 13  2  1  0
 14  4  3  0
 15 24  1  0
 15 11  1  0
 16  5  2  0
 16 25  1  0
 17 14  1  0
 18  2  1  0
 18 27  2  0
 19 10  1  0
 20  6  1  0
 21  9  1  0
 22  1  1  0
 23  5  1  0
 24 13  2  0
 25  1  2  0
 27 17  1  0
 28 29  1  0
 29 26  2  0
 30  8  1  0
  3 31  1  0
  3 32  1  0
  3 33  1  0
  4 34  1  0
  6 35  1  0
  7 36  1  0
 12 37  1  0
 13 38  1  0
 22 39  1  0
 23 40  1  0
 23 41  1  0
 24 42  1  0
 26 43  1  0
 27 44  1  0
 28 45  1  0
 29 46  1  0
 30 47  1  0
 30 48  1  0
M  END
>  <mol_id>  (16) 
2026-08-24-6tgu-s0-n100-seed1-0017

>  <rmsd_to_ref>  (16) 


$$$$

     RDKit          3D

 30 32  0  0  0  0  0  0  0  0999 V2000
    4.8050   15.3750   37.4000 C   0  0  0  0  0  0  0  0  0  0  0  0
   -0.7640   20.6110   43.6090 N   0  0  0  0  0  0  0  0  0  0  0  0
    2.6590   18.1690   38.8630 C   0  0  0  0  0  0  0  0  0  0  0  0
   -0.3970   19.3300   43.4260 C   0  0  0  0  0  0  0  0  0  0  0  0
    1.7780   17.3550   41.0240 C   0  0  0  0  0  0  0  0  0  0  0  0
    1.9940   18.3910   40.0890 C   0  0  0  0  0  0  0  0  0  0  0  0
    2.6290   20.8660   37.7420 Cl  0  0  0  0  0  0  0  0  0  0  0  0
    1.0390   17.5990   42.1610 C   0  0  0  0  0  0  0  0  0  0  0  0
    3.7730   18.6390   36.8960 O   0  0  0  0  0  0  0  0  0  0  0  0
    4.9200   14.1630   36.8140 C   0  0  0  0  0  0  0  0  0  0  0  0
    4.8070   16.5420   36.7090 N   0  0  0  0  0  0  0  0  0  0  0  0
    0.4470   21.2350   41.6460 C   0  0  0  0  0  0  0  0  0  0  0  0
    0.7920   19.9360   41.4450 C   0  0  0  0  0  0  0  0  0  0  0  0
    3.2590   17.0850   38.4430 N   0  0  0  0  0  0  0  0  0  0  0  0
   -0.9810   18.4390   44.3020 N   0  0  0  0  0  0  0  0  0  0  0  0
    3.0280   19.1880   37.8340 C   0  0  0  0  0  0  0  0  0  0  0  0
    0.4540   18.9100   42.3540 C   0  0  0  0  0  0  0  0  0  0  0  0
    3.8970   17.4000   37.2800 C   0  0  0  0  0  0  0  0  0  0  0  0
    1.5800   19.5920   40.2650 N   0  0  0  0  0  0  0  0  0  0  0  0
   -0.3670   21.5190   42.7070 C   0  0  0  0  0  0  0  0  0  0  0  0
    4.7045   15.4174   38.4946 H   0  0  0  0  0  0  0  0  0  0  0  0
    2.1991   16.3547   40.8449 H   0  0  0  0  0  0  0  0  0  0  0  0
    0.8951   16.8086   42.9123 H   0  0  0  0  0  0  0  0  0  0  0  0
    4.9116   13.2514   37.4296 H   0  0  0  0  0  0  0  0  0  0  0  0
    5.0220   14.0878   35.7213 H   0  0  0  0  0  0  0  0  0  0  0  0
    5.3948   16.7515   35.8895 H   0  0  0  0  0  0  0  0  0  0  0  0
    0.8100   22.0302   40.9783 H   0  0  0  0  0  0  0  0  0  0  0  0
   -0.7603   17.4349   44.2387 H   0  0  0  0  0  0  0  0  0  0  0  0
   -1.6378   18.7777   45.0195 H   0  0  0  0  0  0  0  0  0  0  0  0
   -0.7170   22.5548   42.8275 H   0  0  0  0  0  0  0  0  0  0  0  0
  3  6  1  0
  4  2  2  0
  4 15  1  0
  5  8  1  0
  6 19  1  0
  6  5  2  0
  7 16  1  0
  8 17  2  0
  9 18  1  0
  9 16  1  0
 10  1  2  3
 11 18  1  0
 11  1  1  0
 12 20  2  0
 13 12  1  0
 13 17  1  0
 14  3  1  0
 16  3  2  0
 17  4  1  0
 18 14  2  0
 19 13  2  0
 20  2  1  0
  1 21  1  0
  5 22  1  0
  8 23  1  0
 10 24  1  0
 10 25  1  0
 11 26  1  0
 12 27  1  0
 15 28  1  0
 15 29  1  0
 20 30  1  0
M  END
>  <mol_id>  (17) 
2026-08-24-6tgu-s0-n100-seed1-0018

>  <rmsd_to_ref>  (17) 


$$$$

     RDKit          3D

 52 54  0  0  0  0  0  0  0  0999 V2000
    1.0940   19.1770   41.0590 C   0  0  0  0  0  0  0  0  0  0  0  0
   -0.2200   19.9690   44.2920 O   0  0  0  0  0  0  0  0  0  0  0  0
   -0.5700   17.6970   42.9150 C   0  0  0  0  0  0  0  0  0  0  0  0
   -0.8310   20.2340   42.9570 C   0  0  0  0  0  0  0  0  0  0  0  0
    2.7570   15.9540   39.5020 C   0  0  0  0  0  0  0  0  0  0  0  0
    3.4200   17.4020   37.7340 C   0  0  0  0  0  0  0  0  0  0  0  0
    1.1440   22.6780   41.4210 O   0  0  0  0  0  0  0  0  0  0  0  0
    2.1840   14.7300   41.5110 C   0  0  0  0  0  0  0  0  0  0  0  0
   -1.6790   18.9520   42.5320 C   0  0  0  0  0  0  0  0  0  0  0  0
    0.1760   16.9010   44.1460 C   0  0  0  0  0  0  0  0  0  0  0  0
    1.7050   20.6250   40.8080 C   0  0  0  0  0  0  0  0  0  0  0  0
    2.6030   17.0880   39.9980 C   0  0  0  0  0  0  0  0  0  0  0  0
    4.0080   17.5330   36.6320 O   0  0  0  0  0  0  0  0  0  0  0  0
    3.1770   16.1110   38.1990 C   0  0  0  0  0  0  0  0  0  0  0  0
    0.6820   18.1800   42.0430 C   0  0  0  0  0  0  0  0  0  0  0  0
   -0.4360   15.3710   44.2080 C   0  0  0  0  0  0  0  0  0  0  0  0
    3.2500   19.8320   38.1320 C   0  0  0  0  0  0  0  0  0  0  0  0
    0.7720   21.5870   41.4580 C   0  0  0  0  0  0  0  0  0  0  0  0
    3.6960   20.1230   36.8470 C   0  0  0  0  0  0  0  0  0  0  0  0
    2.1750   18.4650   40.0010 C   0  0  0  0  0  0  0  0  0  0  0  0
    1.0420   16.6990   41.8450 C   0  0  0  0  0  0  0  0  0  0  0  0
   -0.4410   21.0690   41.9630 N   0  0  0  0  0  0  0  0  0  0  0  0
    2.4370   16.1400   41.3440 C   0  0  0  0  0  0  0  0  0  0  0  0
    2.8990   18.5990   38.6490 C   0  0  0  0  0  0  0  0  0  0  0  0
    3.8480   20.6110   35.8800 O   0  0  0  0  0  0  0  0  0  0  0  0
    0.0428   19.4564   41.2229 H   0  0  0  0  0  0  0  0  0  0  0  0
   -1.3757   16.9486   42.9415 H   0  0  0  0  0  0  0  0  0  0  0  0
    3.5139   15.3966   40.0733 H   0  0  0  0  0  0  0  0  0  0  0  0
    1.8116   15.3925   39.5330 H   0  0  0  0  0  0  0  0  0  0  0  0
    2.1409   14.4897   42.5836 H   0  0  0  0  0  0  0  0  0  0  0  0
    1.2250   14.4710   41.0384 H   0  0  0  0  0  0  0  0  0  0  0  0
    2.9931   14.1538   41.0384 H   0  0  0  0  0  0  0  0  0  0  0  0
   -1.9228   18.9644   41.4594 H   0  0  0  0  0  0  0  0  0  0  0  0
   -2.6566   18.8654   43.0288 H   0  0  0  0  0  0  0  0  0  0  0  0
    1.2600   16.8624   43.9630 H   0  0  0  0  0  0  0  0  0  0  0  0
    0.0013   17.4215   45.0992 H   0  0  0  0  0  0  0  0  0  0  0  0
    2.7056   20.7002   41.2587 H   0  0  0  0  0  0  0  0  0  0  0  0
    1.8128   20.8343   39.7335 H   0  0  0  0  0  0  0  0  0  0  0  0
    3.0175   17.8865   39.3651 H   0  0  0  0  0  0  0  0  0  0  0  0
    2.4029   15.6723   37.5523 H   0  0  0  0  0  0  0  0  0  0  0  0
    4.1622   15.6225   38.1707 H   0  0  0  0  0  0  0  0  0  0  0  0
    1.1057   19.1083   42.4539 H   0  0  0  0  0  0  0  0  0  0  0  0
   -0.5576   15.0670   45.2581 H   0  0  0  0  0  0  0  0  0  0  0  0
   -1.4132   15.3463   43.7036 H   0  0  0  0  0  0  0  0  0  0  0  0
    0.2546   14.6791   43.7036 H   0  0  0  0  0  0  0  0  0  0  0  0
    3.1665   20.6863   38.8199 H   0  0  0  0  0  0  0  0  0  0  0  0
    1.9205   19.3988   40.5237 H   0  0  0  0  0  0  0  0  0  0  0  0
    0.8780   16.2285   42.8257 H   0  0  0  0  0  0  0  0  0  0  0  0
    0.4213   16.4705   40.9661 H   0  0  0  0  0  0  0  0  0  0  0  0
   -1.2494   21.4218   41.4311 H   0  0  0  0  0  0  0  0  0  0  0  0
    3.4574   16.1954   41.7512 H   0  0  0  0  0  0  0  0  0  0  0  0
    3.8385   18.5711   39.2204 H   0  0  0  0  0  0  0  0  0  0  0  0
  1 11  1  0
  1 15  1  0
  3 10  1  0
  4  2  2  0
  6 14  1  0
  6 24  1  0
  7 18  2  0
  9  3  1  0
  9  4  1  0
 10 16  1  0
 11 18  1  0
 12  5  1  0
 12 20  1  0
 12 23  1  0
 13  6  2  0
 14  5  1  0
 15 21  1  0
 15  3  1  0
 17 24  1  0
 18 22  1  0
 19 17  2  0
 20  1  1  0
 22  4  1  0
 23  8  1  0
 23 21  1  0
 24 20  1  0
 25 19  2  0
  1 26  1  0
  3 27  1  0
  5 28  1  0
  5 29  1  0
  8 30  1  0
  8 31  1  0
  8 32  1  0
  9 33  1  0
  9 34  1  0
 10 35  1  0
 10 36  1  0
 11 37  1  0
 11 38  1  0
 12 39  1  0
 14 40  1  0
 14 41  1  0
 15 42  1  0
 16 43  1  0
 16 44  1  0
 16 45  1  0
 17 46  1  0
 20 47  1  0
 21 48  1  0
 21 49  1  0
 22 50  1  0
 23 51  1  0
 24 52  1  0
M  END
>  <mol_id>  (18) 
2026-08-24-6tgu-s0-n100-seed1-0019

>  <rmsd_to_ref>  (18) 


$$$$

     RDKit          3D

 30 30  0  0  0  0  0  0  0  0999 V2000
    1.2680   20.7410   40.6320 C   0  0  0  0  0  0  0  0  0  0  0  0
    3.9270   17.3430   37.1060 C   0  0  0  0  0  0  0  0  0  0  0  0
    1.1460   17.9750   41.8370 C   0  0  0  0  0  0  0  0  0  0  0  0
    3.2670   20.0550   39.6550 C   0  0  0  0  0  0  0  0  0  0  0  0
    0.0370   20.0210   42.7030 C   0  0  0  0  0  0  0  0  0  0  0  0
   -0.3580   17.5520   44.0140 Cl  0  0  0  0  0  0  0  0  0  0  0  0
    2.1190   19.6520   40.3540 C   0  0  0  0  0  0  0  0  0  0  0  0
    0.3340   18.6510   42.7550 C   0  0  0  0  0  0  0  0  0  0  0  0
    3.3580   19.4910   37.2950 C   0  0  0  0  0  0  0  0  0  0  0  0
    0.4890   21.0250   41.7220 C   0  0  0  0  0  0  0  0  0  0  0  0
    3.6160   18.5370   36.4860 O   0  0  0  0  0  0  0  0  0  0  0  0
    3.7240   19.1500   38.6080 C   0  0  0  0  0  0  0  0  0  0  0  0
   -0.7580   20.4510   43.5670 O   0  0  0  0  0  0  0  0  0  0  0  0
    2.8870   20.6150   36.9760 O   0  0  0  0  0  0  0  0  0  0  0  0
    1.8800   18.3370   40.7210 C   0  0  0  0  0  0  0  0  0  0  0  0
    0.5546   20.7360   39.7947 H   0  0  0  0  0  0  0  0  0  0  0  0
    2.0594   21.4756   40.8415 H   0  0  0  0  0  0  0  0  0  0  0  0
    3.8922   17.4766   38.1973 H   0  0  0  0  0  0  0  0  0  0  0  0
    3.1991   16.5743   36.8073 H   0  0  0  0  0  0  0  0  0  0  0  0
    4.9374   17.0270   36.8073 H   0  0  0  0  0  0  0  0  0  0  0  0
    1.2179   16.8991   42.0545 H   0  0  0  0  0  0  0  0  0  0  0  0
    3.0541   21.0288   39.1898 H   0  0  0  0  0  0  0  0  0  0  0  0
    4.0758   20.0815   40.4001 H   0  0  0  0  0  0  0  0  0  0  0  0
    2.6417   19.8170   41.3077 H   0  0  0  0  0  0  0  0  0  0  0  0
    1.2157   18.8657   43.3767 H   0  0  0  0  0  0  0  0  0  0  0  0
    1.0494   21.7742   42.3005 H   0  0  0  0  0  0  0  0  0  0  0  0
   -0.4633   21.2806   41.2343 H   0  0  0  0  0  0  0  0  0  0  0  0
    3.3139   18.1523   38.8232 H   0  0  0  0  0  0  0  0  0  0  0  0
    4.8226   19.2003   38.6318 H   0  0  0  0  0  0  0  0  0  0  0  0
    2.2965   17.5374   40.0908 H   0  0  0  0  0  0  0  0  0  0  0  0
  1 10  1  0
  3  8  1  0
  5  8  1  0
  5 13  2  0
  7  4  1  0
  7  1  1  0
  7 15  1  0
  8  6  1  0
  9 12  1  0
 10  5  1  0
 11  2  1  0
 11  9  1  0
 12  4  1  0
 14  9  2  0
 15  3  2  0
  1 16  1  0
  1 17  1  0
  2 18  1  0
  2 19  1  0
  2 20  1  0
  3 21  1  0
  4 22  1  0
  4 23  1  0
  7 24  1  0
  8 25  1  0
 10 26  1  0
 10 27  1  0
 12 28  1  0
 12 29  1  0
 15 30  1  0
M  END
>  <mol_id>  (19) 
2026-08-24-6tgu-s0-n100-seed1-0020

>  <rmsd_to_ref>  (19) 


$$$$

     RDKit          3D

 28 29  0  0  0  0  0  0  0  0999 V2000
    2.1900   17.2120   40.4150 C   0  0  0  0  0  0  0  0  0  0  0  0
    2.2670   19.3710   38.5840 N   0  0  0  0  0  0  0  0  0  0  0  0
    1.3640   19.7590   40.8520 C   0  0  0  0  0  0  0  0  0  0  0  0
    2.8070   20.2250   37.7410 C   0  0  0  0  0  0  0  0  0  0  0  0
    2.9650   14.8790   39.6190 C   0  0  0  0  0  0  0  0  0  0  0  0
    0.7940   18.8760   41.7850 C   0  0  0  0  0  0  0  0  0  0  0  0
    1.6960   15.4880   41.7520 N   0  0  0  0  0  0  0  0  0  0  0  0
    2.6420   18.1110   39.1360 C   0  0  0  0  0  0  0  0  0  0  0  0
   -0.4680   20.6150   42.7340 C   0  0  0  0  0  0  0  0  0  0  0  0
    3.4930   17.5410   38.4680 O   0  0  0  0  0  0  0  0  0  0  0  0
    1.3990   17.6850   41.5440 C   0  0  0  0  0  0  0  0  0  0  0  0
    1.1160   21.1620   40.9050 C   0  0  0  0  0  0  0  0  0  0  0  0
    0.1140   21.5360   41.8550 C   0  0  0  0  0  0  0  0  0  0  0  0
    3.6140   20.1060   36.5650 O   0  0  0  0  0  0  0  0  0  0  0  0
    2.2780   15.8350   40.5700 C   0  0  0  0  0  0  0  0  0  0  0  0
    1.2190   16.5060   42.3030 N   0  0  0  0  0  0  0  0  0  0  0  0
   -0.1590   19.3000   42.7010 C   0  0  0  0  0  0  0  0  0  0  0  0
    2.3960   21.2850   38.0120 O   0  0  0  0  0  1  0  0  0  0  0  0
    1.3506   19.6904   38.9290 H   0  0  0  0  0  0  0  0  0  0  0  0
    2.0167   19.3583   40.0624 H   0  0  0  0  0  0  0  0  0  0  0  0
    3.5118   14.1182   40.1953 H   0  0  0  0  0  0  0  0  0  0  0  0
    2.2119   14.3879   38.9852 H   0  0  0  0  0  0  0  0  0  0  0  0
    3.6706   15.4361   38.9852 H   0  0  0  0  0  0  0  0  0  0  0  0
   -1.1991   20.9726   43.4740 H   0  0  0  0  0  0  0  0  0  0  0  0
    1.5142   18.7547   41.7731 H   0  0  0  0  0  0  0  0  0  0  0  0
    1.6464   21.8899   40.2735 H   0  0  0  0  0  0  0  0  0  0  0  0
   -0.2112   22.5860   41.8963 H   0  0  0  0  0  0  0  0  0  0  0  0
   -0.6483   18.5863   43.3801 H   0  0  0  0  0  0  0  0  0  0  0  0
  1 15  2  0
  1 11  1  0
  2  8  1  0
  3 12  2  0
  3  6  1  0
  4 18  1  0
  4  2  1  0
  5 15  1  0
  6 17  2  0
  7 16  2  0
  8  1  1  0
 10  8  2  0
 11  6  1  0
 11 16  1  0
 12 13  1  0
 13  9  2  0
 14  4  2  0
 15  7  1  0
 17  9  1  0
  2 19  1  0
  3 20  1  0
  5 21  1  0
  5 22  1  0
  5 23  1  0
  9 24  1  0
 11 25  1  0
 12 26  1  0
 13 27  1  0
 17 28  1  0
M  CHG  1  18  -1
M  END
>  <mol_id>  (20) 
2026-08-24-6tgu-s0-n100-seed1-0021

>  <rmsd_to_ref>  (20) 


$$$$

     RDKit          3D

 48 50  0  0  0  0  0  0  0  0999 V2000
    1.0440   14.6690   42.0830 C   0  0  0  0  0  0  0  0  0  0  0  0
    1.5470   16.0000   42.5960 C   0  0  0  0  0  0  0  0  0  0  0  0
    2.6950   17.4200   39.1860 N   0  0  0  0  0  0  0  0  0  0  0  0
    0.2250   18.2130   42.7830 C   0  0  0  0  0  0  0  0  0  0  0  0
    0.8690   20.8610   41.3960 C   0  0  0  0  0  0  0  0  0  0  0  0
    1.9010   20.8820   38.5480 C   0  0  0  0  0  0  0  0  0  0  0  0
    2.0050   13.5740   41.9900 C   0  0  0  0  0  0  0  0  0  0  0  0
    4.7550   15.4610   38.1800 S   0  0  0  0  0  0  0  0  0  0  0  0
   -1.2460   14.7510   43.9160 N   0  0  0  0  0  0  0  0  0  0  0  0
   -0.5640   15.7630   43.7090 C   0  0  0  0  0  0  0  0  0  0  0  0
    3.8030   17.6450   37.1220 O   0  0  0  0  0  0  0  0  0  0  0  0
    3.5580   16.7880   38.1290 C   0  0  0  0  0  0  0  0  0  0  0  0
    0.3480   16.7770   43.1590 C   0  0  0  0  0  0  0  0  0  0  0  0
    3.2780   18.9630   37.5890 C   0  0  0  0  0  0  0  0  0  0  0  0
    1.9250   19.7930   39.4830 C   0  0  0  0  0  0  0  0  0  0  0  0
    3.5350   19.8710   36.6410 C   0  0  0  0  0  0  0  0  0  0  0  0
    5.0570   15.3840   36.4440 C   0  0  0  0  0  0  0  0  0  0  0  0
    2.7830   18.8280   38.9230 C   0  0  0  0  0  0  0  0  0  0  0  0
   -0.3860   19.0520   43.6660 C   0  0  0  0  0  0  0  0  0  0  0  0
    3.1900   21.7080   35.3440 O   0  0  0  0  0  0  0  0  0  0  0  0
    2.1110   21.4860   37.3970 C   0  0  0  0  0  0  0  0  0  0  0  0
   -0.5590   20.4200   43.4180 C   0  0  0  0  0  0  0  0  0  0  0  0
    2.9510   21.1400   36.3740 C   0  0  0  0  0  0  0  0  0  0  0  0
    0.1080   21.1420   42.5050 C   0  0  0  0  0  0  0  0  0  0  0  0
    0.9640   18.4620   41.6110 C   0  0  0  0  0  0  0  0  0  0  0  0
    1.2100   19.6800   40.8350 C   0  0  0  0  0  0  0  0  0  0  0  0
    0.2360   14.3417   42.7538 H   0  0  0  0  0  0  0  0  0  0  0  0
    0.7431   14.8658   41.0434 H   0  0  0  0  0  0  0  0  0  0  0  0
    2.2915   15.8369   43.3892 H   0  0  0  0  0  0  0  0  0  0  0  0
    2.0216   16.5679   41.7822 H   0  0  0  0  0  0  0  0  0  0  0  0
    1.2674   21.7458   40.8780 H   0  0  0  0  0  0  0  0  0  0  0  0
    2.2899   13.2493   43.0016 H   0  0  0  0  0  0  0  0  0  0  0  0
    1.5495   12.7314   41.4491 H   0  0  0  0  0  0  0  0  0  0  0  0
    2.8996   13.9162   41.4491 H   0  0  0  0  0  0  0  0  0  0  0  0
    0.1000   17.5129   43.9381 H   0  0  0  0  0  0  0  0  0  0  0  0
    4.2471   19.1817   38.0612 H   0  0  0  0  0  0  0  0  0  0  0  0
    4.6027   20.0976   36.7779 H   0  0  0  0  0  0  0  0  0  0  0  0
    3.0607   19.3302   35.8088 H   0  0  0  0  0  0  0  0  0  0  0  0
    6.1089   15.1158   36.2664 H   0  0  0  0  0  0  0  0  0  0  0  0
    4.4033   14.6238   35.9915 H   0  0  0  0  0  0  0  0  0  0  0  0
    4.8471   16.3644   35.9915 H   0  0  0  0  0  0  0  0  0  0  0  0
    3.4704   19.2538   39.6688 H   0  0  0  0  0  0  0  0  0  0  0  0
   -1.3941   18.6423   43.8267 H   0  0  0  0  0  0  0  0  0  0  0  0
    0.3366   19.0663   44.4952 H   0  0  0  0  0  0  0  0  0  0  0  0
    1.5255   22.4028   37.2341 H   0  0  0  0  0  0  0  0  0  0  0  0
   -1.3080   20.9489   44.0257 H   0  0  0  0  0  0  0  0  0  0  0  0
    0.0255   22.2233   42.6893 H   0  0  0  0  0  0  0  0  0  0  0  0
    1.4520   17.5673   41.1970 H   0  0  0  0  0  0  0  0  0  0  0  0
  1  2  1  0
  4 13  1  0
  4 19  1  0
  5 24  1  0
  6 15  2  0
  7  1  1  0
 10  9  3  0
 11 14  1  0
 11 12  1  0
 12  8  1  0
 12  3  2  0
 13  2  1  0
 13 10  1  0
 14 16  1  0
 14 18  1  0
 15 26  1  0
 17  8  1  0
 18  3  1  0
 18 15  1  0
 20 23  2  0
 21  6  2  0
 22 19  1  0
 23 16  1  0
 23 21  1  0
 24 22  2  0
 25  4  2  0
 26  5  2  0
 26 25  1  0
  1 27  1  0
  1 28  1  0
  2 29  1  0
  2 30  1  0
  5 31  1  0
  7 32  1  0
  7 33  1  0
  7 34  1  0
 13 35  1  0
 14 36  1  0
 16 37  1  0
 16 38  1  0
 17 39  1  0
 17 40  1  0
 17 41  1  0
 18 42  1  0
 19 43  1  0
 19 44  1  0
 21 45  1  0
 22 46  1  0
 24 47  1  0
 25 48  1  0
M  END
>  <mol_id>  (21) 
2026-08-24-6tgu-s0-n100-seed1-0022

>  <rmsd_to_ref>  (21) 


$$$$

     RDKit          3D

 44 46  0  0  0  0  0  0  0  0999 V2000
    3.2340   18.0990   37.8770 C   0  0  0  0  0  0  0  0  0  0  0  0
    2.6650   15.9860   39.6190 C   0  0  0  0  0  0  0  0  0  0  0  0
    2.7320   19.6040   38.1300 C   0  0  0  0  0  0  0  0  0  0  0  0
    3.0770   15.5720   38.4380 C   0  0  0  0  0  0  0  0  0  0  0  0
   -1.1510   19.7140   44.4590 N   0  0  0  0  0  0  0  0  0  0  0  0
    2.5080   17.4420   39.9530 C   0  0  0  0  0  0  0  0  0  0  0  0
    3.5200   16.0010   37.2850 C   0  0  0  0  0  0  0  0  0  0  0  0
    0.3150   18.4490   43.0700 C   0  0  0  0  0  0  0  0  0  0  0  0
    3.6700   17.3100   36.8570 C   0  0  0  0  0  0  0  0  0  0  0  0
   -0.4820   18.5330   44.2560 C   0  0  0  0  0  0  0  0  0  0  0  0
    3.8970   20.1920   36.0900 O   0  0  0  0  0  0  0  0  0  0  0  0
    2.9700   20.4460   36.8120 C   0  0  0  0  0  0  0  0  0  0  0  0
    2.1780   21.3690   36.7420 O   0  0  0  0  0  1  0  0  0  0  0  0
   -0.2660   20.6110   42.4920 C   0  0  0  0  0  0  0  0  0  0  0  0
    1.2080   17.3290   42.4920 C   0  0  0  0  0  0  0  0  0  0  0  0
    2.9540   20.3300   39.3280 C   0  0  0  0  0  0  0  0  0  0  0  0
    1.3820   19.2310   41.1810 N   0  0  0  0  0  0  0  0  0  0  0  0
    0.4860   19.4470   42.2680 C   0  0  0  0  0  0  0  0  0  0  0  0
    2.2670   14.9170   40.6310 C   0  0  0  0  0  0  0  0  0  0  0  0
    2.0100   17.9070   41.3750 C   0  0  0  0  0  0  0  0  0  0  0  0
   -0.9820   20.6800   43.5960 C   0  0  0  0  0  0  0  0  0  0  0  0
   -0.6680   17.4440   45.3010 C   0  0  0  0  0  0  0  0  0  0  0  0
    2.8160   18.3650   38.7500 C   0  0  0  0  0  0  0  0  0  0  0  0
    2.6127   18.7565   37.2512 H   0  0  0  0  0  0  0  0  0  0  0  0
    4.0919   17.7315   38.4591 H   0  0  0  0  0  0  0  0  0  0  0  0
    3.6833   16.0004   40.0347 H   0  0  0  0  0  0  0  0  0  0  0  0
    2.0656   19.3293   37.2990 H   0  0  0  0  0  0  0  0  0  0  0  0
    3.0324   14.4732   38.4131 H   0  0  0  0  0  0  0  0  0  0  0  0
    3.8105   15.2236   36.5630 H   0  0  0  0  0  0  0  0  0  0  0  0
    4.7274   17.5202   36.6384 H   0  0  0  0  0  0  0  0  0  0  0  0
    3.0989   17.4967   35.9356 H   0  0  0  0  0  0  0  0  0  0  0  0
    0.3829   18.9278   44.8092 H   0  0  0  0  0  0  0  0  0  0  0  0
   -0.2578   21.4396   41.7685 H   0  0  0  0  0  0  0  0  0  0  0  0
    1.2459   16.2871   42.8428 H   0  0  0  0  0  0  0  0  0  0  0  0
    2.7552   19.6800   40.1928 H   0  0  0  0  0  0  0  0  0  0  0  0
    3.9984   20.6739   39.3601 H   0  0  0  0  0  0  0  0  0  0  0  0
    2.2806   21.1992   39.3601 H   0  0  0  0  0  0  0  0  0  0  0  0
    2.4114   15.3050   41.6501 H   0  0  0  0  0  0  0  0  0  0  0  0
    1.2095   14.6508   40.4864 H   0  0  0  0  0  0  0  0  0  0  0  0
    2.8929   14.0241   40.4864 H   0  0  0  0  0  0  0  0  0  0  0  0
   -1.4819   21.6362   43.8100 H   0  0  0  0  0  0  0  0  0  0  0  0
   -0.5929   17.8839   46.3064 H   0  0  0  0  0  0  0  0  0  0  0  0
   -1.6582   16.9814   45.1763 H   0  0  0  0  0  0  0  0  0  0  0  0
    0.1125   16.6790   45.1763 H   0  0  0  0  0  0  0  0  0  0  0  0
  1 23  1  0
  2  6  1  0
  2 19  1  0
  3 23  1  0
  3 16  1  0
  4  2  1  0
  6 20  1  0
  7  4  2  0
  8 10  1  0
  9  7  1  0
  9  1  1  0
 10  5  1  0
 10 22  1  0
 11 12  2  0
 12  3  1  0
 13 12  1  0
 14 21  1  0
 15  8  2  0
 17 20  2  0
 17 18  1  0
 18 14  2  0
 18  8  1  0
 20 15  1  0
 21  5  2  0
 23  6  2  0
  1 24  1  0
  1 25  1  0
  2 26  1  0
  3 27  1  0
  4 28  1  0
  7 29  1  0
  9 30  1  0
  9 31  1  0
 10 32  1  0
 14 33  1  0
 15 34  1  0
 16 35  1  0
 16 36  1  0
 16 37  1  0
 19 38  1  0
 19 39  1  0
 19 40  1  0
 21 41  1  0
 22 42  1  0
 22 43  1  0
 22 44  1  0
M  CHG  1  13  -1
M  END
>  <mol_id>  (22) 
2026-08-24-6tgu-s0-n100-seed1-0023

>  <rmsd_to_ref>  (22) 


$$$$

     RDKit          3D

 55 58  0  0  0  0  0  0  0  0999 V2000
    3.5390   12.2760   35.0830 C   0  0  0  0  0  0  0  0  0  0  0  0
    2.5420   18.6340   40.0870 C   0  0  0  0  0  0  0  0  0  0  0  0
    2.4440   19.6890   39.1950 C   0  0  0  0  0  0  0  0  0  0  0  0
    3.1460   17.0770   38.5130 C   0  0  0  0  0  0  0  0  0  0  0  0
   -0.5080   18.6690   44.2330 C   0  0  0  0  0  0  0  0  0  0  0  0
   -0.7690   15.5300   45.5960 C   0  0  0  0  0  0  0  0  0  0  0  0
    3.9790   20.4980   35.8830 C   0  0  0  0  0  0  0  0  0  0  0  0
   -1.0220   17.5260   46.8180 C   0  0  0  0  0  0  0  0  0  0  0  0
   -0.5530   16.3000   44.9260 N   0  0  0  0  0  0  0  0  0  0  0  0
   -1.1990   19.8360   43.9200 N   0  0  0  0  0  0  0  0  0  0  0  0
    0.6110   18.8490   42.1830 C   0  0  0  0  0  0  0  0  0  0  0  0
    3.1200   20.4980   36.9560 C   0  0  0  0  0  0  0  0  0  0  0  0
    2.2500   21.5370   36.7770 C   0  0  0  0  0  0  0  0  0  0  0  0
    4.1020   13.4420   35.6420 N   0  0  0  0  0  0  0  0  0  0  0  0
   -0.8450   20.5060   42.8820 C   0  0  0  0  0  0  0  0  0  0  0  0
   -2.3080   16.9660   47.5150 C   0  0  0  0  0  0  0  0  0  0  0  0
    0.7580   20.8860   40.8420 C   0  0  0  0  0  0  0  0  0  0  0  0
    3.0400   17.4120   39.8380 C   0  0  0  0  0  0  0  0  0  0  0  0
    3.2610   18.0690   37.5960 C   0  0  0  0  0  0  0  0  0  0  0  0
    0.2500   20.1150   41.9160 C   0  0  0  0  0  0  0  0  0  0  0  0
    3.6460   13.8750   36.8690 C   0  0  0  0  0  0  0  0  0  0  0  0
   -0.7610   17.5790   45.4050 C   0  0  0  0  0  0  0  0  0  0  0  0
    2.5420   22.0670   35.5060 N   0  0  0  0  0  0  0  0  0  0  0  0
    3.5860   15.2000   37.1020 N   0  0  0  0  0  0  0  0  0  0  0  0
    1.7840   21.1570   39.6320 S   0  0  0  0  0  0  0  0  0  0  0  0
    3.1080   15.6420   38.2520 C   0  0  0  0  0  0  0  0  0  0  0  0
    2.6120   14.8880   39.0670 O   0  0  0  0  0  0  0  0  0  0  0  0
   -0.5790   15.2840   44.4100 O   0  0  0  0  0  0  0  0  0  0  0  0
   -0.0760   17.8220   47.4490 O   0  0  0  0  0  0  0  0  0  0  0  0
    0.2520   18.0740   43.2190 C   0  0  0  0  0  0  0  0  0  0  0  0
    3.6010   21.5040   35.0150 N   0  0  0  0  0  0  0  0  0  0  0  0
    3.3460   13.0160   37.7050 O   0  0  0  0  0  0  0  0  0  0  0  0
    3.0390   19.4330   37.9400 C   0  0  0  0  0  0  0  0  0  0  0  0
    3.2139   11.6027   35.8898 H   0  0  0  0  0  0  0  0  0  0  0  0
    2.6732   12.5485   34.4616 H   0  0  0  0  0  0  0  0  0  0  0  0
    4.2908   11.7674   34.4616 H   0  0  0  0  0  0  0  0  0  0  0  0
    2.1729   18.8163   41.1071 H   0  0  0  0  0  0  0  0  0  0  0  0
   -0.0244   15.2284   46.3474 H   0  0  0  0  0  0  0  0  0  0  0  0
   -1.5757   15.3256   46.3153 H   0  0  0  0  0  0  0  0  0  0  0  0
    4.8263   19.8114   35.7394 H   0  0  0  0  0  0  0  0  0  0  0  0
    1.2924   18.3847   41.4549 H   0  0  0  0  0  0  0  0  0  0  0  0
    3.4221   20.3778   38.0069 H   0  0  0  0  0  0  0  0  0  0  0  0
    1.4805   21.8868   37.4809 H   0  0  0  0  0  0  0  0  0  0  0  0
    4.8395   13.9600   35.1433 H   0  0  0  0  0  0  0  0  0  0  0  0
   -1.3843   21.4431   42.6794 H   0  0  0  0  0  0  0  0  0  0  0  0
   -2.1859   17.0192   48.6069 H   0  0  0  0  0  0  0  0  0  0  0  0
   -3.1792   17.5662   47.2138 H   0  0  0  0  0  0  0  0  0  0  0  0
   -2.4620   15.9193   47.2138 H   0  0  0  0  0  0  0  0  0  0  0  0
   -0.1759   20.9743   40.2676 H   0  0  0  0  0  0  0  0  0  0  0  0
    1.5194   21.2809   41.5307 H   0  0  0  0  0  0  0  0  0  0  0  0
    3.3425   16.7261   40.6430 H   0  0  0  0  0  0  0  0  0  0  0  0
    3.5324   17.8140   36.5610 H   0  0  0  0  0  0  0  0  0  0  0  0
   -1.8205   17.5147   45.1165 H   0  0  0  0  0  0  0  0  0  0  0  0
    3.9113   15.8661   36.3869 H   0  0  0  0  0  0  0  0  0  0  0  0
    0.5433   17.0144   43.2690 H   0  0  0  0  0  0  0  0  0  0  0  0
  1 14  1  0
  3 25  1  0
  3  2  2  0
  4 18  2  0
  5 22  1  0
  7 12  1  0
  8 29  2  0
  8 16  1  0
  9 22  1  0
  9  6  1  0
 10  5  2  0
 11 30  2  0
 12 33  1  0
 13 12  1  0
 14 21  1  0
 15 10  1  0
 17 20  1  0
 18  2  1  0
 19 33  2  0
 19  4  1  0
 20 11  1  0
 20 15  2  0
 21 24  1  0
 21 32  2  0
 22  8  1  0
 23 13  2  0
 24 26  1  0
 25 17  1  0
 26  4  1  0
 26 27  2  0
 28  9  1  0
 28  6  1  0
 30  5  1  0
 31 23  1  0
 31  7  2  0
 33  3  1  0
  1 34  1  0
  1 35  1  0
  1 36  1  0
  2 37  1  0
  6 38  1  0
  6 39  1  0
  7 40  1  0
 11 41  1  0
 12 42  1  0
 13 43  1  0
 14 44  1  0
 15 45  1  0
 16 46  1  0
 16 47  1  0
 16 48  1  0
 17 49  1  0
 17 50  1  0
 18 51  1  0
 19 52  1  0
 22 53  1  0
 24 54  1  0
 30 55  1  0
M  END
>  <mol_id>  (23) 
2026-08-24-6tgu-s0-n100-seed1-0024

>  <rmsd_to_ref>  (23) 


$$$$

     RDKit          3D

 39 41  0  0  0  0  0  0  0  0999 V2000
    1.6520   21.3100   39.4560 C   0  0  0  0  0  0  0  0  0  0  0  0
    2.8510   17.3760   39.2000 C   0  0  0  0  0  0  0  0  0  0  0  0
    2.2920   19.0110   39.2730 C   0  0  0  0  0  0  0  0  0  0  0  0
    2.7630   16.1970   39.8450 N   0  0  0  0  0  0  0  0  0  0  0  0
    1.2680   18.2250   41.2190 N   0  0  0  0  0  0  0  0  0  0  0  0
    1.6250   19.1790   40.4010 N   0  0  0  0  0  0  0  0  0  0  0  0
   -0.0780   19.5120   42.9240 C   0  0  0  0  0  0  0  0  0  0  0  0
    2.9820   20.2670   37.1880 C   0  0  0  0  0  0  0  0  0  0  0  0
    0.2830   16.9950   43.0240 C   0  0  0  0  0  0  0  0  0  0  0  0
   -0.4990   17.0760   44.1620 C   0  0  0  0  0  0  0  0  0  0  0  0
    3.4020   18.9670   37.2710 C   0  0  0  0  0  0  0  0  0  0  0  0
   -0.8420   15.6140   44.8030 C   0  0  0  0  0  0  0  0  0  0  0  0
   -0.8470   19.4400   44.0480 N   0  0  0  0  0  0  0  0  0  0  0  0
    2.9370   18.3770   38.5380 C   0  0  0  0  0  0  0  0  0  0  0  0
    3.2720   14.0610   39.3500 O   0  0  0  0  0  0  0  0  0  0  0  0
    0.9320   15.4830   42.6770 Cl  0  0  0  0  0  0  0  0  0  0  0  0
    3.1710   15.2900   39.0030 C   0  0  0  0  0  0  0  0  0  0  0  0
   -1.0780   18.2430   44.6200 C   0  0  0  0  0  0  0  0  0  0  0  0
    3.5480   15.6460   37.5700 C   0  0  0  0  0  0  0  0  0  0  0  0
    0.4230   18.3140   42.3280 C   0  0  0  0  0  0  0  0  0  0  0  0
    2.2660   20.6590   38.4030 C   0  0  0  0  0  0  0  0  0  0  0  0
    1.0670   20.4160   40.6930 C   0  0  0  0  0  0  0  0  0  0  0  0
    1.5590   22.4060   39.4616 H   0  0  0  0  0  0  0  0  0  0  0  0
    1.9108   17.7242   39.6526 H   0  0  0  0  0  0  0  0  0  0  0  0
    3.9455   17.3534   39.3080 H   0  0  0  0  0  0  0  0  0  0  0  0
    2.4383   16.0431   40.8103 H   0  0  0  0  0  0  0  0  0  0  0  0
    1.6576   17.2921   41.0220 H   0  0  0  0  0  0  0  0  0  0  0  0
    0.1559   20.4897   42.4775 H   0  0  0  0  0  0  0  0  0  0  0  0
    3.1584   20.9271   36.3259 H   0  0  0  0  0  0  0  0  0  0  0  0
    3.9961   18.4428   36.5080 H   0  0  0  0  0  0  0  0  0  0  0  0
   -0.8260   15.6821   45.9008 H   0  0  0  0  0  0  0  0  0  0  0  0
   -1.8399   15.2926   44.4700 H   0  0  0  0  0  0  0  0  0  0  0  0
   -0.0911   14.8823   44.4700 H   0  0  0  0  0  0  0  0  0  0  0  0
    1.9627   18.1562   38.0776 H   0  0  0  0  0  0  0  0  0  0  0  0
   -1.7544   18.1929   45.4860 H   0  0  0  0  0  0  0  0  0  0  0  0
    4.3478   16.4012   37.5781 H   0  0  0  0  0  0  0  0  0  0  0  0
    3.9008   14.7439   37.0488 H   0  0  0  0  0  0  0  0  0  0  0  0
    2.6676   16.0499   37.0488 H   0  0  0  0  0  0  0  0  0  0  0  0
    0.4125   20.7124   41.5260 H   0  0  0  0  0  0  0  0  0  0  0  0
  1 22  2  0
  2  4  1  0
  3  6  1  0
  5 20  1  0
  6 22  1  0
  6  5  1  0
  7 13  2  0
  8 11  2  0
  8 21  1  0
  9 10  1  0
 10 18  2  0
 10 12  1  0
 11 14  1  0
 13 18  1  0
 14  2  1  0
 14  3  1  0
 16  9  1  0
 17 15  2  0
 17  4  1  0
 19 17  1  0
 20  7  1  0
 20  9  2  0
 21  3  2  0
 21  1  1  0
  1 23  1  0
  2 24  1  0
  2 25  1  0
  4 26  1  0
  5 27  1  0
  7 28  1  0
  8 29  1  0
 11 30  1  0
 12 31  1  0
 12 32  1  0
 12 33  1  0
 14 34  1  0
 18 35  1  0
 19 36  1  0
 19 37  1  0
 19 38  1  0
 22 39  1  0
M  END
>  <mol_id>  (24) 
2026-08-24-6tgu-s0-n100-seed1-0025

>  <rmsd_to_ref>  (24) 


$$$$

     RDKit          3D

 34 36  0  0  0  0  0  0  0  0999 V2000
    0.5340   17.3250   42.3480 C   0  0  0  0  0  0  0  0  0  0  0  0
    3.9550   19.1130   36.7210 N   0  0  0  0  0  0  0  0  0  0  0  0
    1.8830   17.7930   40.4280 C   0  0  0  0  0  0  0  0  0  0  0  0
    2.4960   20.5690   38.0520 C   0  0  0  0  0  0  0  0  0  0  0  0
    1.6000   20.7800   40.7930 Cl  0  0  0  0  0  0  0  0  0  0  0  0
    1.4190   16.8100   41.4470 C   0  0  0  0  0  0  0  0  0  0  0  0
    2.0470   15.6180   41.4990 N   0  0  0  0  0  0  0  0  0  0  0  0
    3.1420   18.3840   38.8290 C   0  0  0  0  0  0  0  0  0  0  0  0
   -0.4780   19.2980   42.3270 C   0  0  0  0  0  0  0  0  0  0  0  0
    2.8810   17.3580   39.6570 O   0  0  0  0  0  0  0  0  0  0  0  0
   -0.0030   16.9530   43.4630 C   0  0  0  0  0  0  0  0  0  0  0  0
    2.5110   14.6000   41.4970 N   0  0  0  0  0  0  0  0  0  0  0  0
   -0.8840   17.7740   44.1430 C   0  0  0  0  0  0  0  0  0  0  0  0
    1.7600   19.1820   40.2950 C   0  0  0  0  0  0  0  0  0  0  0  0
    2.4420   19.5090   39.0500 C   0  0  0  0  0  0  0  0  0  0  0  0
    3.8790   18.2220   37.7240 C   0  0  0  0  0  0  0  0  0  0  0  0
    0.2660   18.5980   41.7690 N   0  0  0  0  0  0  0  0  0  0  0  0
    0.1940   15.7680   44.0980 O   0  0  0  0  0  0  0  0  0  0  0  0
    3.3260   21.2120   35.8950 O   0  0  0  0  0  0  0  0  0  0  0  0
    3.2390   20.2810   36.8880 C   0  0  0  0  0  0  0  0  0  0  0  0
   -1.0780   18.9140   43.6430 C   0  0  0  0  0  0  0  0  0  0  0  0
    0.7837   17.7748   40.3933 H   0  0  0  0  0  0  0  0  0  0  0  0
    1.4643   20.7967   37.7458 H   0  0  0  0  0  0  0  0  0  0  0  0
    3.0153   21.4087   38.5369 H   0  0  0  0  0  0  0  0  0  0  0  0
    0.7149   15.9690   41.3633 H   0  0  0  0  0  0  0  0  0  0  0  0
    2.9212   16.0400   41.1548 H   0  0  0  0  0  0  0  0  0  0  0  0
   -0.7464   20.2648   41.8762 H   0  0  0  0  0  0  0  0  0  0  0  0
    2.6541   14.2860   42.4675 H   0  0  0  0  0  0  0  0  0  0  0  0
    1.8878   13.9396   41.0108 H   0  0  0  0  0  0  0  0  0  0  0  0
   -1.3861   17.4505   45.0667 H   0  0  0  0  0  0  0  0  0  0  0  0
    1.0133   18.8850   41.0461 H   0  0  0  0  0  0  0  0  0  0  0  0
    4.4634   17.2948   37.6301 H   0  0  0  0  0  0  0  0  0  0  0  0
   -0.2689   15.5816   44.9530 H   0  0  0  0  0  0  0  0  0  0  0  0
   -1.7007   19.6414   44.1845 H   0  0  0  0  0  0  0  0  0  0  0  0
  1 11  1  0
  2 20  1  0
  2 16  2  0
  3  6  1  0
  4 15  1  0
  6  7  1  0
  6  1  1  0
  8 15  2  0
  8 10  1  0
  9 21  2  0
 10  3  1  0
 11 18  1  0
 11 13  2  0
 12  7  1  0
 14  3  1  0
 14  5  1  0
 15 14  1  0
 16  8  1  0
 17  9  1  0
 17  1  2  0
 19 20  2  0
 20  4  1  0
 21 13  1  0
  3 22  1  0
  4 23  1  0
  4 24  1  0
  6 25  1  0
  7 26  1  0
  9 27  1  0
 12 28  1  0
 12 29  1  0
 13 30  1  0
 14 31  1  0
 16 32  1  0
 18 33  1  0
 21 34  1  0
M  END
>  <mol_id>  (25) 
2026-08-24-6tgu-s0-n100-seed1-0026

>  <rmsd_to_ref>  (25) 


$$$$

     RDKit          3D

 21 21  0  0  0  0  0  0  0  0999 V2000
    2.2230   21.0430   38.0200 O   0  0  0  0  0  0  0  0  0  0  0  0
    1.6060   19.3040   40.5980 C   0  0  0  0  0  0  0  0  0  0  0  0
    3.2060   18.0030   39.4020 O   0  0  0  0  0  0  0  0  0  0  0  0
    2.6630   19.8400   38.1830 C   0  0  0  0  0  0  0  0  0  0  0  0
    0.7480   18.6800   42.7600 C   0  0  0  0  0  0  0  0  0  0  0  0
    3.4700   19.2890   37.0530 C   0  0  0  0  0  0  0  0  0  0  0  0
   -0.0210   19.7890   42.8100 C   0  0  0  0  0  0  0  0  0  0  0  0
    1.5160   18.3370   41.6330 C   0  0  0  0  0  0  0  0  0  0  0  0
    2.4730   18.9430   39.3470 C   0  0  0  0  0  0  0  0  0  0  0  0
    0.0500   20.7340   41.8020 C   0  0  0  0  0  0  0  0  0  0  0  0
    0.9120   20.5260   40.6830 C   0  0  0  0  0  0  0  0  0  0  0  0
    2.0701   21.4611   38.9043 H   0  0  0  0  0  0  0  0  0  0  0  0
    1.7466   19.4424   37.7224 H   0  0  0  0  0  0  0  0  0  0  0  0
    0.7748   18.0173   43.6375 H   0  0  0  0  0  0  0  0  0  0  0  0
    4.3159   18.7114   37.4540 H   0  0  0  0  0  0  0  0  0  0  0  0
    2.8377   18.6332   36.4365 H   0  0  0  0  0  0  0  0  0  0  0  0
    3.8506   20.1167   36.4365 H   0  0  0  0  0  0  0  0  0  0  0  0
   -0.7071   19.9417   43.6562 H   0  0  0  0  0  0  0  0  0  0  0  0
    2.0236   17.3641   41.5571 H   0  0  0  0  0  0  0  0  0  0  0  0
   -0.5592   21.6479   41.8628 H   0  0  0  0  0  0  0  0  0  0  0  0
    1.0305   21.2987   39.9091 H   0  0  0  0  0  0  0  0  0  0  0  0
  1  4  1  0
  2 11  2  0
  2  8  1  0
  4  6  1  0
  4  9  1  0
  5  7  1  0
  8  5  2  0
  9  3  2  0
  9  2  1  0
 10  7  2  0
 11 10  1  0
  1 12  1  0
  4 13  1  0
  5 14  1  0
  6 15  1  0
  6 16  1  0
  6 17  1  0
  7 18  1  0
  8 19  1  0
 10 20  1  0
 11 21  1  0
M  END
>  <mol_id>  (26) 
2026-08-24-6tgu-s0-n100-seed1-0027

>  <rmsd_to_ref>  (26) 


$$$$

     RDKit          3D

 38 40  0  0  0  0  0  0  0  0999 V2000
    3.2460   21.0120   35.9590 F   0  0  0  0  0  0  0  0  0  0  0  0
    0.3860   15.1400   43.0860 C   0  0  0  0  0  0  0  0  0  0  0  0
    1.0110   18.1460   41.6920 C   0  0  0  0  0  0  0  0  0  0  0  0
    3.0670   20.2830   37.8940 C   0  0  0  0  0  0  0  0  0  0  0  0
   -0.9180   18.1000   45.4320 C   0  0  0  0  0  0  0  0  0  0  0  0
    4.0370   19.3940   36.4600 F   0  0  0  0  0  0  0  0  0  0  0  0
    1.7740   21.3500   39.5550 C   0  0  0  0  0  0  0  0  0  0  0  0
    1.0800   19.2170   40.8330 C   0  0  0  0  0  0  0  0  0  0  0  0
    0.8840   21.4650   40.5860 C   0  0  0  0  0  0  0  0  0  0  0  0
   -0.2560   14.8790   45.2480 C   0  0  0  0  0  0  0  0  0  0  0  0
    1.7980   17.0620   41.0610 C   0  0  0  0  0  0  0  0  0  0  0  0
   -0.6080   17.0090   44.6530 C   0  0  0  0  0  0  0  0  0  0  0  0
    4.9500   20.2950   37.2600 F   0  0  0  0  0  0  0  0  0  0  0  0
    2.0400   18.8720   39.6570 C   0  0  0  0  0  0  0  0  0  0  0  0
   -0.0300   14.3940   43.8290 C   0  0  0  0  0  0  0  0  0  0  0  0
   -0.0310   17.0410   43.3140 C   0  0  0  0  0  0  0  0  0  0  0  0
    2.6240   20.8780   38.6750 C   0  0  0  0  0  0  0  0  0  0  0  0
    2.6580   19.0890   38.3020 O   0  0  0  0  0  0  0  0  0  0  0  0
    0.6630   16.2280   42.7910 N   0  0  0  0  0  0  0  0  0  0  0  0
    0.5630   20.4870   41.1740 C   0  0  0  0  0  0  0  0  0  0  0  0
    3.5680   20.4170   36.5880 C   0  0  0  0  0  0  0  0  0  0  0  0
   -0.8610   15.9740   45.3700 C   0  0  0  0  0  0  0  0  0  0  0  0
    0.2620   18.2310   42.6700 N   0  0  0  0  0  0  0  0  0  0  0  0
    2.4080   17.5230   39.9410 N   0  0  0  0  0  0  0  0  0  0  0  0
    0.6662   14.5347   42.2113 H   0  0  0  0  0  0  0  0  0  0  0  0
    3.9465   20.8944   37.6439 H   0  0  0  0  0  0  0  0  0  0  0  0
   -0.7843   19.1164   45.0332 H   0  0  0  0  0  0  0  0  0  0  0  0
   -1.2996   17.9558   46.4536 H   0  0  0  0  0  0  0  0  0  0  0  0
    0.2003   19.6639   40.3469 H   0  0  0  0  0  0  0  0  0  0  0  0
    0.4733   22.4466   40.8649 H   0  0  0  0  0  0  0  0  0  0  0  0
    0.7283   14.9840   45.7277 H   0  0  0  0  0  0  0  0  0  0  0  0
   -0.9094   14.1277   45.7156 H   0  0  0  0  0  0  0  0  0  0  0  0
    2.5596   16.7048   41.7698 H   0  0  0  0  0  0  0  0  0  0  0  0
    1.1233   16.2363   40.7908 H   0  0  0  0  0  0  0  0  0  0  0  0
   -0.2608   13.3598   43.5338 H   0  0  0  0  0  0  0  0  0  0  0  0
   -0.1538   20.5701   42.0042 H   0  0  0  0  0  0  0  0  0  0  0  0
   -1.9253   15.7487   45.2070 H   0  0  0  0  0  0  0  0  0  0  0  0
   -0.5058   16.3056   46.3568 H   0  0  0  0  0  0  0  0  0  0  0  0
  1 21  1  0
  2 15  2  0
  3 23  2  3
  4 21  1  0
  4 18  1  0
  4 17  1  0
  6 21  1  0
  7  9  1  0
  8 20  1  0
  8  3  1  0
  9 20  2  0
 10 22  1  0
 11  3  1  0
 12 22  1  0
 12  5  2  3
 14 24  2  0
 14  8  1  0
 15 10  1  0
 16 12  1  0
 17  7  3  0
 18 14  1  0
 19  2  1  0
 19 16  2  0
 21 13  1  0
 23 16  1  0
 24 11  1  0
  2 25  1  0
  4 26  1  0
  5 27  1  0
  5 28  1  0
  8 29  1  0
  9 30  1  0
 10 31  1  0
 10 32  1  0
 11 33  1  0
 11 34  1  0
 15 35  1  0
 20 36  1  0
 22 37  1  0
 22 38  1  0
M  END
>  <mol_id>  (27) 
2026-08-24-6tgu-s0-n100-seed1-0028

>  <rmsd_to_ref>  (27) 


$$$$

     RDKit          3D

 31 33  0  0  0  0  0  0  0  0999 V2000
   -0.9610   19.6920   44.6910 N   0  0  0  0  0  0  0  0  0  0  0  0
    1.2990   18.0160   41.7340 C   0  0  0  0  0  0  0  0  0  0  0  0
    3.3280   18.7650   37.7700 C   0  0  0  0  0  0  0  0  0  0  0  0
    0.5290   18.4010   42.8060 C   0  0  0  0  0  0  0  0  0  0  0  0
    1.8140   20.7450   39.0240 C   0  0  0  0  0  0  0  0  0  0  0  0
   -0.7410   20.3420   43.5380 C   0  0  0  0  0  0  0  0  0  0  0  0
    0.4690   20.1660   41.4340 N   0  0  0  0  0  0  0  0  0  0  0  0
   -1.0480   17.7040   46.0750 N   0  0  0  0  0  4  0  0  0  0  0  0
    2.8060   17.2880   39.5100 O   0  0  0  0  0  0  0  0  0  0  0  0
    3.8950   20.2750   36.1000 O   0  0  0  0  0  0  0  0  0  0  0  0
    1.2690   19.2230   40.8640 C   0  0  0  0  0  0  0  0  0  0  0  0
    2.6670   18.5570   38.9820 C   0  0  0  0  0  0  0  0  0  0  0  0
    1.9250   19.5150   39.6310 C   0  0  0  0  0  0  0  0  0  0  0  0
    3.9680   17.7370   37.0780 C   0  0  0  0  0  0  0  0  0  0  0  0
    3.2520   19.9750   37.1930 C   0  0  0  0  0  0  0  0  0  0  0  0
    2.5040   21.0460   37.8020 C   0  0  0  0  0  0  0  0  0  0  0  0
    4.4650   16.9210   36.5320 N   0  0  0  0  0  0  0  0  0  0  0  0
   -0.5770   18.4070   44.9080 C   0  0  0  0  0  0  0  0  0  0  0  0
    0.2290   17.7260   43.9260 C   0  0  0  0  0  0  0  0  0  0  0  0
    0.0460   19.7250   42.6140 C   0  0  0  0  0  0  0  0  0  0  0  0
    1.8091   17.0567   41.5625 H   0  0  0  0  0  0  0  0  0  0  0  0
   -0.3627   17.9834   42.3155 H   0  0  0  0  0  0  0  0  0  0  0  0
    1.1809   21.5164   39.4867 H   0  0  0  0  0  0  0  0  0  0  0  0
   -1.1786   21.3330   43.3470 H   0  0  0  0  0  0  0  0  0  0  0  0
   -0.7226   18.1897   46.9230 H   0  0  0  0  0  0  0  0  0  0  0  0
   -2.0776   17.6781   46.0679 H   0  0  0  0  0  0  0  0  0  0  0  0
   -0.6803   16.7419   46.0679 H   0  0  0  0  0  0  0  0  0  0  0  0
    2.3682   17.0580   40.3677 H   0  0  0  0  0  0  0  0  0  0  0  0
    3.8102   21.1803   35.7084 H   0  0  0  0  0  0  0  0  0  0  0  0
    2.4638   22.0484   37.3508 H   0  0  0  0  0  0  0  0  0  0  0  0
    0.5829   16.6971   44.0879 H   0  0  0  0  0  0  0  0  0  0  0  0
  1 18  1  0
  3 12  2  0
  4  2  1  0
  4 19  1  0
  5 13  2  0
  6  1  2  0
  7 20  2  0
 10 15  1  0
 11  7  1  0
 11  2  2  0
 12  9  1  0
 12 13  1  0
 13 11  1  0
 14  3  1  0
 15  3  1  0
 15 16  2  0
 16  5  1  0
 17 14  3  0
 18  8  1  0
 19 18  2  0
 20  4  1  0
 20  6  1  0
  2 21  1  0
  4 22  1  0
  5 23  1  0
  6 24  1  0
  8 25  1  0
  8 26  1  0
  8 27  1  0
  9 28  1  0
 10 29  1  0
 16 30  1  0
 19 31  1  0
M  CHG  1   8   1
M  END
>  <mol_id>  (28) 
2026-08-24-6tgu-s0-n100-seed1-0029

>  <rmsd_to_ref>  (28) 


$$$$

     RDKit          3D

 58 63  0  0  0  0  0  0  0  0999 V2000
    2.6740   19.0870   38.9750 C   0  0  0  0  0  0  0  0  0  0  0  0
   -1.3070   20.2780   43.7610 N   0  0  0  0  0  0  0  0  0  0  0  0
    2.1680   17.9830   40.7490 C   0  0  0  0  0  0  0  0  0  0  0  0
   -1.6900   15.5170   47.3740 C   0  0  0  0  0  0  0  0  0  0  0  0
    0.6450   18.6000   42.6510 C   0  0  0  0  0  0  0  0  0  0  0  0
    4.0000   17.9910   36.7310 C   0  0  0  0  0  0  0  0  0  0  0  0
   -0.8860   16.5190   46.8810 C   0  0  0  0  0  0  0  0  0  0  0  0
    2.0450   19.2030   40.1940 O   0  0  0  0  0  0  0  0  0  0  0  0
    3.1300   17.7370   38.9000 C   0  0  0  0  0  0  0  0  0  0  0  0
    2.6650   20.2500   38.1960 C   0  0  0  0  0  0  0  0  0  0  0  0
   -0.5630   15.1120   46.6060 C   0  0  0  0  0  0  0  0  0  0  0  0
   -1.0720   19.1480   44.3550 C   0  0  0  0  0  0  0  0  0  0  0  0
    3.5570   14.8810   36.3590 C   0  0  0  0  0  0  0  0  0  0  0  0
    1.5530   17.5350   42.1050 C   0  0  0  0  0  0  0  0  0  0  0  0
    2.9910   20.3270   36.9250 C   0  0  0  0  0  0  0  0  0  0  0  0
    5.0700   13.2390   37.8570 C   0  0  0  0  0  0  0  0  0  0  0  0
    3.3800   21.8640   35.0010 C   0  0  0  0  0  0  0  0  0  0  0  0
   -0.5420   20.7050   42.7880 C   0  0  0  0  0  0  0  0  0  0  0  0
    4.8130   14.4020   35.6290 C   0  0  0  0  0  0  0  0  0  0  0  0
    4.8500   14.6930   38.3990 C   0  0  0  0  0  0  0  0  0  0  0  0
    2.7080   21.4690   36.1900 O   0  0  0  0  0  0  0  0  0  0  0  0
    0.3970   19.8750   42.1750 C   0  0  0  0  0  0  0  0  0  0  0  0
    3.9050   15.5300   37.6490 C   0  0  0  0  0  0  0  0  0  0  0  0
    5.4700   13.2820   36.3730 C   0  0  0  0  0  0  0  0  0  0  0  0
    3.5960   19.1720   36.3810 C   0  0  0  0  0  0  0  0  0  0  0  0
   -0.8630   17.3390   45.6540 C   0  0  0  0  0  0  0  0  0  0  0  0
   -1.5220   18.5310   45.4630 N   0  0  0  0  0  0  0  0  0  0  0  0
   -0.1450   17.0930   44.5050 N   0  0  0  0  0  0  0  0  0  0  0  0
    3.8180   17.0880   37.8040 C   0  0  0  0  0  0  0  0  0  0  0  0
    2.7680   17.0740   39.9930 O   0  0  0  0  0  0  0  0  0  0  0  0
   -0.1520   18.2460   43.8100 C   0  0  0  0  0  0  0  0  0  0  0  0
    1.2573   17.6538   40.2272 H   0  0  0  0  0  0  0  0  0  0  0  0
   -1.7059   15.3198   48.4561 H   0  0  0  0  0  0  0  0  0  0  0  0
   -2.7678   15.3079   47.3063 H   0  0  0  0  0  0  0  0  0  0  0  0
    4.6802   17.5701   35.9760 H   0  0  0  0  0  0  0  0  0  0  0  0
   -0.6026   17.4367   47.4172 H   0  0  0  0  0  0  0  0  0  0  0  0
    4.0971   18.0399   39.3277 H   0  0  0  0  0  0  0  0  0  0  0  0
    2.3577   21.1826   38.6917 H   0  0  0  0  0  0  0  0  0  0  0  0
   -0.6953   14.6954   45.5966 H   0  0  0  0  0  0  0  0  0  0  0  0
    0.3040   14.4509   46.7520 H   0  0  0  0  0  0  0  0  0  0  0  0
    2.9040   14.0178   36.5554 H   0  0  0  0  0  0  0  0  0  0  0  0
    3.0425   15.6174   35.7242 H   0  0  0  0  0  0  0  0  0  0  0  0
    0.9758   16.6111   41.9526 H   0  0  0  0  0  0  0  0  0  0  0  0
    2.3674   17.3606   42.8235 H   0  0  0  0  0  0  0  0  0  0  0  0
    5.8694   12.7525   38.4351 H   0  0  0  0  0  0  0  0  0  0  0  0
    4.1337   12.6711   37.9607 H   0  0  0  0  0  0  0  0  0  0  0  0
    4.3010   22.4054   35.2630 H   0  0  0  0  0  0  0  0  0  0  0  0
    3.6346   20.9718   34.4101 H   0  0  0  0  0  0  0  0  0  0  0  0
    2.7243   22.5204   34.4101 H   0  0  0  0  0  0  0  0  0  0  0  0
   -0.6423   21.7453   42.4449 H   0  0  0  0  0  0  0  0  0  0  0  0
    4.5339   14.0518   34.6243 H   0  0  0  0  0  0  0  0  0  0  0  0
    5.5210   15.2411   35.5611 H   0  0  0  0  0  0  0  0  0  0  0  0
    5.3742   15.0657   39.2914 H   0  0  0  0  0  0  0  0  0  0  0  0
    0.9501   20.2410   41.2974 H   0  0  0  0  0  0  0  0  0  0  0  0
    5.1810   12.3303   35.9031 H   0  0  0  0  0  0  0  0  0  0  0  0
    6.5568   13.4455   36.3269 H   0  0  0  0  0  0  0  0  0  0  0  0
    3.7869   19.3251   35.3086 H   0  0  0  0  0  0  0  0  0  0  0  0
    0.3055   16.2076   44.2328 H   0  0  0  0  0  0  0  0  0  0  0  0
  1  8  1  0
  2 12  2  0
  3 14  1  0
  5 31  2  0
  6 29  2  0
  7  4  1  0
  8  3  1  0
  9 29  1  0
  9  1  1  0
  9 30  1  0
 10  1  2  0
 11  7  1  0
 11  4  1  0
 12 27  1  0
 13 23  1  0
 14  5  1  0
 15 10  1  0
 16 20  1  0
 17 21  1  0
 18  2  1  0
 19 13  1  0
 19 24  1  0
 21 15  1  0
 22  5  1  0
 22 18  2  0
 23 29  1  0
 23 20  2  0
 24 16  1  0
 25  6  1  0
 25 15  2  0
 26  7  1  0
 27 26  2  0
 28 26  1  0
 30  3  1  0
 31 12  1  0
 31 28  1  0
  3 32  1  0
  4 33  1  0
  4 34  1  0
  6 35  1  0
  7 36  1  0
  9 37  1  0
 10 38  1  0
 11 39  1  0
 11 40  1  0
 13 41  1  0
 13 42  1  0
 14 43  1  0
 14 44  1  0
 16 45  1  0
 16 46  1  0
 17 47  1  0
 17 48  1  0
 17 49  1  0
 18 50  1  0
 19 51  1  0
 19 52  1  0
 20 53  1  0
 22 54  1  0
 24 55  1  0
 24 56  1  0
 25 57  1  0
 28 58  1  0
M  END
>  <mol_id>  (29) 
2026-08-24-6tgu-s0-n100-seed1-0030

>  <rmsd_to_ref>  (29) 


$$$$

     RDKit          3D

 63 67  0  0  0  0  0  0  0  0999 V2000
    3.7470   21.2320   35.6670 C   0  0  0  0  0  0  0  0  0  0  0  0
   -0.9170   12.8360   44.0620 C   0  0  0  0  0  0  0  0  0  0  0  0
   -0.0530   16.5310   43.6720 C   0  0  0  0  0  0  0  0  0  0  0  0
   -0.6500   17.5670   44.3580 C   0  0  0  0  0  0  0  0  0  0  0  0
    0.8920   16.8080   42.7320 O   0  0  0  0  0  0  0  0  0  0  0  0
    1.0020   13.2020   42.6720 C   0  0  0  0  0  0  0  0  0  0  0  0
    3.6550   19.7460   35.9190 C   0  0  0  0  0  0  0  0  0  0  0  0
   -1.2270   21.0560   43.5990 N   0  0  0  0  0  0  0  0  0  0  0  0
   -1.1030   14.3010   44.2270 C   0  0  0  0  0  0  0  0  0  0  0  0
   -0.1540   15.0930   43.6210 C   0  0  0  0  0  0  0  0  0  0  0  0
    3.1330   16.8960   39.4280 C   0  0  0  0  0  0  0  0  0  0  0  0
    3.2140   17.4530   37.2630 C   0  0  0  0  0  0  0  0  0  0  0  0
    2.9090   18.7680   37.6670 C   0  0  0  0  0  0  0  0  0  0  0  0
   -1.0710   19.8200   43.9950 C   0  0  0  0  0  0  0  0  0  0  0  0
    0.1400   12.3280   43.3200 C   0  0  0  0  0  0  0  0  0  0  0  0
    2.1670   20.1560   39.0580 C   0  0  0  0  0  0  0  0  0  0  0  0
    2.8000   19.1240   39.3520 C   0  0  0  0  0  0  0  0  0  0  0  0
    0.5170   20.6790   42.0120 C   0  0  0  0  0  0  0  0  0  0  0  0
    3.0890   19.5570   38.1370 C   0  0  0  0  0  0  0  0  0  0  0  0
    0.8710   14.5580   42.7930 C   0  0  0  0  0  0  0  0  0  0  0  0
   -0.1850   18.8130   43.5600 C   0  0  0  0  0  0  0  0  0  0  0  0
    0.6090   19.3800   42.4200 C   0  0  0  0  0  0  0  0  0  0  0  0
    3.3070   16.5870   38.1580 C   0  0  0  0  0  0  0  0  0  0  0  0
    2.8930   20.0440   37.4520 N   0  0  0  0  0  0  0  0  0  0  0  0
    2.7530   21.0480   36.8210 C   0  0  0  0  0  0  0  0  0  0  0  0
    0.2790   10.9300   43.1500 C   0  0  0  0  0  0  0  0  0  0  0  0
   -0.5230   21.4290   42.6070 C   0  0  0  0  0  0  0  0  0  0  0  0
    1.5050   15.5770   42.3020 C   0  0  0  0  0  0  0  0  0  0  0  0
    2.8600   18.0480   39.8770 C   0  0  0  0  0  0  0  0  0  0  0  0
    1.3330   21.3970   41.1170 C   0  0  0  0  0  0  0  0  0  0  0  0
    1.6100   21.1490   39.7720 C   0  0  0  0  0  0  0  0  0  0  0  0
    4.7025   21.7280   35.8929 H   0  0  0  0  0  0  0  0  0  0  0  0
    3.6129   21.7803   34.7229 H   0  0  0  0  0  0  0  0  0  0  0  0
   -1.6283   12.1433   44.5354 H   0  0  0  0  0  0  0  0  0  0  0  0
   -1.7459   17.4729   44.3444 H   0  0  0  0  0  0  0  0  0  0  0  0
   -0.3763   17.6020   45.4228 H   0  0  0  0  0  0  0  0  0  0  0  0
    1.8096   12.7943   42.0463 H   0  0  0  0  0  0  0  0  0  0  0  0
    3.0195   19.2083   35.2000 H   0  0  0  0  0  0  0  0  0  0  0  0
    4.5558   19.1173   35.8609 H   0  0  0  0  0  0  0  0  0  0  0  0
   -1.9437   14.7248   44.7959 H   0  0  0  0  0  0  0  0  0  0  0  0
    3.2338   16.0822   40.1612 H   0  0  0  0  0  0  0  0  0  0  0  0
    3.3629   17.1735   36.2096 H   0  0  0  0  0  0  0  0  0  0  0  0
    2.9831   18.4953   37.5281 H   0  0  0  0  0  0  0  0  0  0  0  0
    2.7226   17.9511   38.3797 H   0  0  0  0  0  0  0  0  0  0  0  0
    2.0208   18.9125   37.0344 H   0  0  0  0  0  0  0  0  0  0  0  0
    3.7720   18.5130   37.0344 H   0  0  0  0  0  0  0  0  0  0  0  0
   -1.7468   19.5128   44.8068 H   0  0  0  0  0  0  0  0  0  0  0  0
    1.2697   20.7738   38.9056 H   0  0  0  0  0  0  0  0  0  0  0  0
    3.1296   18.7684   40.3394 H   0  0  0  0  0  0  0  0  0  0  0  0
    1.3016   18.7136   41.8850 H   0  0  0  0  0  0  0  0  0  0  0  0
    3.5383   15.5476   37.8819 H   0  0  0  0  0  0  0  0  0  0  0  0
    2.8648   21.9006   37.5070 H   0  0  0  0  0  0  0  0  0  0  0  0
    1.7558   20.9856   36.3610 H   0  0  0  0  0  0  0  0  0  0  0  0
    0.3273   10.4438   44.1355 H   0  0  0  0  0  0  0  0  0  0  0  0
   -0.5849   10.5409   42.5912 H   0  0  0  0  0  0  0  0  0  0  0  0
    1.2026   10.7186   42.5912 H   0  0  0  0  0  0  0  0  0  0  0  0
   -0.7419   22.4173   42.1766 H   0  0  0  0  0  0  0  0  0  0  0  0
    2.3874   15.5109   41.6486 H   0  0  0  0  0  0  0  0  0  0  0  0
    2.6351   18.0646   40.9536 H   0  0  0  0  0  0  0  0  0  0  0  0
    0.9127   22.4135   41.1237 H   0  0  0  0  0  0  0  0  0  0  0  0
    2.3075   21.0951   41.5283 H   0  0  0  0  0  0  0  0  0  0  0  0
    2.2312   22.0139   39.4964 H   0  0  0  0  0  0  0  0  0  0  0  0
    0.5786   20.8516   39.5315 H   0  0  0  0  0  0  0  0  0  0  0  0
  1  7  1  0
  1 25  1  0
  2  9  2  0
  3  4  1  0
  5  3  1  0
  6 20  1  0
  6 15  2  0
  7 24  1  0
  8 14  2  0
 10  3  2  0
 10  9  1  0
 11 29  2  3
 12 23  2  3
 15  2  1  0
 16 17  1  0
 16 31  1  0
 17 29  1  0
 18 22  1  0
 18 27  2  0
 19 13  1  0
 19 16  1  0
 19 17  1  0
 20 10  1  0
 21 14  1  0
 21  4  1  0
 22 21  2  0
 23 11  1  0
 24 19  1  0
 25 24  1  0
 26 15  1  0
 27  8  1  0
 28  5  1  0
 28 20  2  0
 30 18  1  0
 31 30  1  0
  1 32  1  0
  1 33  1  0
  2 34  1  0
  4 35  1  0
  4 36  1  0
  6 37  1  0
  7 38  1  0
  7 39  1  0
  9 40  1  0
 11 41  1  0
 12 42  1  0
 12 43  1  0
 13 44  1  0
 13 45  1  0
 13 46  1  0
 14 47  1  0
 16 48  1  0
 17 49  1  0
 22 50  1  0
 23 51  1  0
 25 52  1  0
 25 53  1  0
 26 54  1  0
 26 55  1  0
 26 56  1  0
 27 57  1  0
 28 58  1  0
 29 59  1  0
 30 60  1  0
 30 61  1  0
 31 62  1  0
 31 63  1  0
M  END
>  <mol_id>  (30) 
2026-08-24-6tgu-s0-n100-seed1-0031

>  <rmsd_to_ref>  (30) 


$$$$

     RDKit          3D

 30 33  0  0  0  0  0  0  0  0999 V2000
    0.8170   19.1110   41.1440 C   0  0  0  0  0  0  0  0  0  0  0  0
    1.6340   18.5310   40.3040 N   0  0  0  0  0  0  0  0  0  0  0  0
    0.6790   18.2230   42.1120 C   0  0  0  0  0  0  0  0  0  0  0  0
    2.6650   20.8600   37.7240 C   0  0  0  0  0  0  0  0  0  0  0  0
    2.9450   18.0820   38.3330 C   0  0  0  0  0  0  0  0  0  0  0  0
    2.5260   16.3270   39.9280 C   0  0  0  0  0  0  0  0  0  0  0  0
    1.8140   17.1670   40.7330 C   0  0  0  0  0  0  0  0  0  0  0  0
   -0.4090   20.5250   42.6870 C   0  0  0  0  0  0  0  0  0  0  0  0
   -0.5940   19.4050   43.6270 C   0  0  0  0  0  0  0  0  0  0  0  0
    0.1920   20.2760   41.4570 C   0  0  0  0  0  0  0  0  0  0  0  0
    3.0380   16.6800   38.6990 N   0  0  0  0  0  0  0  0  0  0  0  0
    3.4220   20.0280   36.8560 C   0  0  0  0  0  0  0  0  0  0  0  0
    3.7290   18.6960   37.0680 C   0  0  0  0  0  0  0  0  0  0  0  0
    2.6790   14.9390   40.5590 C   0  0  0  0  0  0  0  0  0  0  0  0
    2.0370   20.4320   38.8480 C   0  0  0  0  0  0  0  0  0  0  0  0
    0.0990   18.2470   43.3090 C   0  0  0  0  0  0  0  0  0  0  0  0
    1.2130   17.0340   41.8000 N   0  0  0  0  0  0  0  0  0  0  0  0
   -0.8600   21.7160   43.0090 O   0  0  0  0  0  0  0  0  0  0  0  0
    2.1740   18.8450   39.1720 C   0  0  0  0  0  0  0  0  0  0  0  0
    2.5822   21.9263   37.4666 H   0  0  0  0  0  0  0  0  0  0  0  0
   -1.2358   19.4823   44.5170 H   0  0  0  0  0  0  0  0  0  0  0  0
    0.1592   21.0679   40.6942 H   0  0  0  0  0  0  0  0  0  0  0  0
    3.7989   20.4856   35.9294 H   0  0  0  0  0  0  0  0  0  0  0  0
    4.4291   18.1217   36.4434 H   0  0  0  0  0  0  0  0  0  0  0  0
    2.6688   15.0314   41.6551 H   0  0  0  0  0  0  0  0  0  0  0  0
    1.8463   14.2962   40.2374 H   0  0  0  0  0  0  0  0  0  0  0  0
    3.6317   14.4930   40.2374 H   0  0  0  0  0  0  0  0  0  0  0  0
    1.4713   21.1153   39.4984 H   0  0  0  0  0  0  0  0  0  0  0  0
    0.1653   17.3981   44.0054 H   0  0  0  0  0  0  0  0  0  0  0  0
   -0.7413   22.4756   42.3852 H   0  0  0  0  0  0  0  0  0  0  0  0
  1 10  2  0
  1  3  1  0
  2  7  1  0
  2  1  1  0
  3 16  2  0
  4 15  2  0
  5 11  1  0
  5 19  2  0
  6 14  1  0
  6  7  1  0
  7 17  2  0
  8 18  1  0
  8  9  2  0
 10  8  1  0
 11  6  2  0
 12 13  2  0
 12  4  1  0
 13  5  1  0
 15 19  1  0
 16  9  1  0
 17  3  1  0
 19  2  1  0
  4 20  1  0
  9 21  1  0
 10 22  1  0
 12 23  1  0
 13 24  1  0
 14 25  1  0
 14 26  1  0
 14 27  1  0
 15 28  1  0
 16 29  1  0
 18 30  1  0
M  END
>  <mol_id>  (31) 
2026-08-24-6tgu-s0-n100-seed1-0032

>  <rmsd_to_ref>  (31) 


$$$$

     RDKit          3D

 20 22  0  0  0  0  0  0  0  0999 V2000
   -0.6810   19.3680   44.1040 N   0  0  0  0  0  0  0  0  0  0  0  0
    2.9560   19.9650   37.4550 C   0  0  0  0  0  0  0  0  0  0  0  0
    1.3830   17.7510   41.6480 C   0  0  0  0  0  0  0  0  0  0  0  0
   -0.0020   17.2560   43.7220 N   0  0  0  0  0  0  0  0  0  0  0  0
    2.1040   18.6970   39.5330 N   0  0  0  0  0  0  0  0  0  0  0  0
    1.6000   18.7710   40.7070 C   0  0  0  0  0  0  0  0  0  0  0  0
    3.5030   18.9240   36.9030 O   0  0  0  0  0  1  0  0  0  0  0  0
    1.6970   21.0800   39.7130 S   0  0  0  0  0  0  0  0  0  0  0  0
    0.0790   19.3490   42.9530 C   0  0  0  0  0  0  0  0  0  0  0  0
    2.3210   19.7390   38.7980 C   0  0  0  0  0  0  0  0  0  0  0  0
   -0.7080   18.0770   44.5370 C   0  0  0  0  0  0  0  0  0  0  0  0
    0.5130   18.0980   42.8080 C   0  0  0  0  0  0  0  0  0  0  0  0
    1.8330   16.6130   41.4420 O   0  0  0  0  0  0  0  0  0  0  0  0
    2.7520   21.0700   36.8680 O   0  0  0  0  0  0  0  0  0  0  0  0
    1.2090   20.1190   40.9810 C   0  0  0  0  0  0  0  0  0  0  0  0
    0.4760   20.4000   42.1030 C   0  0  0  0  0  0  0  0  0  0  0  0
   -0.2765   18.0318   45.5478 H   0  0  0  0  0  0  0  0  0  0  0  0
   -1.7549   17.7393   44.5374 H   0  0  0  0  0  0  0  0  0  0  0  0
    1.0747   21.0944   42.7108 H   0  0  0  0  0  0  0  0  0  0  0  0
   -0.4747   20.7813   41.7020 H   0  0  0  0  0  0  0  0  0  0  0  0
  1 11  1  0
  2 10  1  0
  3 12  1  0
  4 11  1  0
  5  6  1  0
  6 15  2  0
  6  3  1  0
  7  2  1  0
  8 15  1  0
  9  1  2  0
 10  5  2  0
 10  8  1  0
 12  9  1  0
 12  4  2  0
 13  3  2  0
 14  2  2  0
 15 16  1  0
 16  9  1  0
 11 17  1  0
 11 18  1  0
 16 19  1  0
 16 20  1  0
M  CHG  1   7  -1
M  END
>  <mol_id>  (32) 
2026-08-24-6tgu-s0-n100-seed1-0033

>  <rmsd_to_ref>  (32) 


$$$$

     RDKit          3D

 52 54  0  0  0  0  0  0  0  0999 V2000
    3.8430   20.8060   36.0870 O   0  0  0  0  0  0  0  0  0  0  0  0
    2.1650   20.6210   40.5310 C   0  0  0  0  0  0  0  0  0  0  0  0
   -0.5360   19.0060   43.8030 S   0  0  0  0  0  6  0  0  0  0  0  0
    0.3450   17.2000   42.6060 C   0  0  0  0  0  0  0  0  0  0  0  0
    1.9740   21.8790   36.3910 O   0  0  0  0  0  1  0  0  0  0  0  0
    2.2720   16.6610   40.5980 N   0  0  0  0  0  0  0  0  0  0  0  0
    4.2150   15.0960   36.7270 C   0  0  0  0  0  0  0  0  0  0  0  0
    2.4780   20.9830   39.1760 O   0  0  0  0  0  0  0  0  0  0  0  0
   -1.1280   13.0980   44.1810 C   0  0  0  0  0  0  0  0  0  0  0  0
   -1.7390   19.8410   43.5060 O   0  0  0  0  0  0  0  0  0  0  0  0
   -0.1660   15.3040   43.8920 C   0  0  0  0  0  0  0  0  0  0  0  0
   -0.2170   17.5560   43.6840 N   0  0  0  0  0  0  0  0  0  0  0  0
    3.2170   16.3220   38.5660 C   0  0  0  0  0  0  0  0  0  0  0  0
    0.5200   15.7440   42.4940 C   0  0  0  0  0  0  0  0  0  0  0  0
    3.7850   17.4340   36.7460 N   0  0  0  0  0  0  0  0  0  0  0  0
   -0.4540   16.6330   44.5890 C   0  0  0  0  0  0  0  0  0  0  0  0
    2.9420   19.0060   38.3060 C   0  0  0  0  0  0  0  0  0  0  0  0
    2.2370   15.5310   40.8750 O   0  0  0  0  0  0  0  0  0  0  0  0
    0.6100   18.1830   41.8910 N   0  0  0  0  0  0  0  0  0  0  0  0
    0.2900   20.5350   42.1410 C   0  0  0  0  0  0  0  0  0  0  0  0
    3.7350   16.3340   37.4370 C   0  0  0  0  0  0  0  0  0  0  0  0
    0.2170   19.2390   42.4560 C   0  0  0  0  0  0  0  0  0  0  0  0
   -0.1670   19.3700   45.1400 O   0  0  0  0  0  0  0  0  0  0  0  0
    3.1930   18.5360   37.1190 C   0  0  0  0  0  0  0  0  0  0  0  0
    2.6880   20.4470   38.0260 C   0  0  0  0  0  0  0  0  0  0  0  0
    2.8140   21.0780   36.7470 C   0  0  0  0  0  0  0  0  0  0  0  0
    2.6710   18.5120   39.3480 N   0  0  0  0  0  0  0  0  0  0  0  0
    0.8960   20.9930   40.7990 C   0  0  0  0  0  0  0  0  0  0  0  0
   -1.2560   14.3610   43.8630 C   0  0  0  0  0  0  0  0  0  0  0  0
    2.7910   17.1720   39.4120 C   0  0  0  0  0  0  0  0  0  0  0  0
    2.8535   21.1336   41.2189 H   0  0  0  0  0  0  0  0  0  0  0  0
    2.2709   19.5339   40.6611 H   0  0  0  0  0  0  0  0  0  0  0  0
    4.5087   14.3386   37.4687 H   0  0  0  0  0  0  0  0  0  0  0  0
    3.4061   14.6978   36.0968 H   0  0  0  0  0  0  0  0  0  0  0  0
    5.0809   15.3472   36.0968 H   0  0  0  0  0  0  0  0  0  0  0  0
   -2.0001   12.4290   44.1382 H   0  0  0  0  0  0  0  0  0  0  0  0
   -0.1483   12.7055   44.4911 H   0  0  0  0  0  0  0  0  0  0  0  0
    0.5226   14.6593   44.4579 H   0  0  0  0  0  0  0  0  0  0  0  0
    3.9604   15.7643   39.1544 H   0  0  0  0  0  0  0  0  0  0  0  0
    2.2119   16.0959   38.1804 H   0  0  0  0  0  0  0  0  0  0  0  0
   -0.0112   15.3295   41.6245 H   0  0  0  0  0  0  0  0  0  0  0  0
    1.5539   15.4000   42.3432 H   0  0  0  0  0  0  0  0  0  0  0  0
   -1.5026   16.6763   44.9185 H   0  0  0  0  0  0  0  0  0  0  0  0
    0.1668   16.7690   45.4868 H   0  0  0  0  0  0  0  0  0  0  0  0
    3.5790   18.4225   38.9870 H   0  0  0  0  0  0  0  0  0  0  0  0
   -0.0878   21.2868   42.8495 H   0  0  0  0  0  0  0  0  0  0  0  0
    3.7853   19.3296   36.6401 H   0  0  0  0  0  0  0  0  0  0  0  0
    2.1656   18.2294   36.8732 H   0  0  0  0  0  0  0  0  0  0  0  0
    3.7422   20.6748   38.2423 H   0  0  0  0  0  0  0  0  0  0  0  0
    0.8637   22.0924   40.7806 H   0  0  0  0  0  0  0  0  0  0  0  0
    0.2882   20.4925   40.0308 H   0  0  0  0  0  0  0  0  0  0  0  0
   -2.2488   14.7225   43.5571 H   0  0  0  0  0  0  0  0  0  0  0  0
  1 26  2  0
  2 28  1  0
  3 23  2  0
  4 12  1  0
  5 26  1  0
  6 18  2  0
  7 21  1  0
  8  2  1  0
 10  3  2  0
 11 29  1  0
 11 16  1  0
 12  3  1  0
 12 16  1  0
 13 30  1  0
 14  4  1  0
 14 11  1  0
 15 24  1  0
 15 21  2  0
 17 25  1  0
 17 27  1  0
 19 22  1  0
 19  4  2  0
 20 22  2  3
 21 13  1  0
 22  3  1  0
 24 17  1  0
 25 26  1  0
 25  8  1  0
 27 30  2  0
 28 20  1  0
 29  9  2  3
 30  6  1  0
  2 31  1  0
  2 32  1  0
  7 33  1  0
  7 34  1  0
  7 35  1  0
  9 36  1  0
  9 37  1  0
 11 38  1  0
 13 39  1  0
 13 40  1  0
 14 41  1  0
 14 42  1  0
 16 43  1  0
 16 44  1  0
 17 45  1  0
 20 46  1  0
 24 47  1  0
 24 48  1  0
 25 49  1  0
 28 50  1  0
 28 51  1  0
 29 52  1  0
M  CHG  1   5  -1
M  END
>  <mol_id>  (33) 
2026-08-24-6tgu-s0-n100-seed1-0034

>  <rmsd_to_ref>  (33) 


$$$$

     RDKit          3D

 25 25  0  0  0  0  0  0  0  0999 V2000
    0.0180   18.2700   42.9990 N   0  0  0  0  0  0  0  0  0  0  0  0
    0.2050   19.4710   42.3950 C   0  0  0  0  0  0  0  0  0  0  0  0
    2.8230   20.0340   37.9100 C   0  0  0  0  0  0  0  0  0  0  0  0
    0.3500   15.8710   43.0840 C   0  0  0  0  0  0  0  0  0  0  0  0
    1.8320   18.6170   40.8570 C   0  0  0  0  0  0  0  0  0  0  0  0
    3.3350   19.7650   36.7880 O   0  0  0  0  0  0  0  0  0  0  0  0
    1.1490   20.9000   40.8050 N   0  0  0  0  0  0  0  0  0  0  0  0
    2.1030   15.9850   40.6800 C   0  0  0  0  0  0  0  0  0  0  0  0
    2.2410   21.0860   38.1330 O   0  0  0  0  0  1  0  0  0  0  0  0
    3.1180   18.9490   38.9330 C   0  0  0  0  0  0  0  0  0  0  0  0
    2.9370   18.9680   40.1530 O   0  0  0  0  0  0  0  0  0  0  0  0
    1.0460   19.6580   41.3170 C   0  0  0  0  0  0  0  0  0  0  0  0
    0.6150   17.1510   42.4050 C   0  0  0  0  0  0  0  0  0  0  0  0
    1.4990   17.2900   41.3270 C   0  0  0  0  0  0  0  0  0  0  0  0
   -0.3428   20.3413   42.7854 H   0  0  0  0  0  0  0  0  0  0  0  0
    0.3810   16.0205   44.1734 H   0  0  0  0  0  0  0  0  0  0  0  0
   -0.6439   15.5004   42.7929 H   0  0  0  0  0  0  0  0  0  0  0  0
    1.1151   15.1362   42.7929 H   0  0  0  0  0  0  0  0  0  0  0  0
    0.5513   21.6571   41.1661 H   0  0  0  0  0  0  0  0  0  0  0  0
    1.8255   21.0924   40.0525 H   0  0  0  0  0  0  0  0  0  0  0  0
    2.4222   15.2954   41.4753 H   0  0  0  0  0  0  0  0  0  0  0  0
    1.3390   15.4974   40.0567 H   0  0  0  0  0  0  0  0  0  0  0  0
    2.9692   16.2519   40.0567 H   0  0  0  0  0  0  0  0  0  0  0  0
    2.5432   18.0786   38.5837 H   0  0  0  0  0  0  0  0  0  0  0  0
    4.2152   19.0279   38.9349 H   0  0  0  0  0  0  0  0  0  0  0  0
  2  1  2  0
  3  9  1  0
  3 10  1  0
  5 12  2  0
  5 14  1  0
  6  3  2  0
  7 12  1  0
  8 14  1  0
 10 11  1  0
 11  5  1  0
 12  2  1  0
 13  1  1  0
 13  4  1  0
 14 13  2  0
  2 15  1  0
  4 16  1  0
  4 17  1  0
  4 18  1  0
  7 19  1  0
  7 20  1  0
  8 21  1  0
  8 22  1  0
  8 23  1  0
 10 24  1  0
 10 25  1  0
M  CHG  1   9  -1
M  END
>  <mol_id>  (34) 
2026-08-24-6tgu-s0-n100-seed1-0035

>  <rmsd_to_ref>  (34) 


$$$$

     RDKit          3D

 56 60  0  0  0  0  0  0  0  0999 V2000
    2.2340   16.1150   41.4900 C   0  0  0  0  0  0  0  0  0  0  0  0
   -0.6760   16.1750   46.0890 C   0  0  0  0  0  0  0  0  0  0  0  0
    0.4780   17.4960   42.7740 N   0  0  0  0  0  0  0  0  0  0  0  0
    2.3380   19.3740   39.9300 C   0  0  0  0  0  0  0  0  0  0  0  0
    4.7440   14.1820   36.1050 C   0  0  0  0  0  0  0  0  0  0  0  0
    2.6430   20.4910   37.0780 O   0  0  0  0  0  0  0  0  0  0  0  0
    3.6660   18.4370   36.6400 N   0  0  0  0  0  0  0  0  0  0  0  0
    5.5850   15.2390   36.1950 N   0  0  0  0  0  0  0  0  0  0  0  0
    3.3260   18.9430   38.8950 C   0  0  0  0  0  0  0  0  0  0  0  0
    5.7990   13.4750   34.0570 O   0  0  0  0  0  0  0  0  0  0  0  0
    3.9430   16.9720   37.2080 C   0  0  0  0  0  0  0  0  0  0  0  0
   -0.6140   14.8690   45.9660 C   0  0  0  0  0  0  0  0  0  0  0  0
    5.0610   13.0100   35.2120 C   0  0  0  0  0  0  0  0  0  0  0  0
    0.1320   18.8240   42.7940 C   0  0  0  0  0  0  0  0  0  0  0  0
   -0.6490   19.2790   43.9110 C   0  0  0  0  0  0  0  0  0  0  0  0
   -1.0900   21.1860   42.9110 C   0  0  0  0  0  0  0  0  0  0  0  0
    1.0870   20.8240   41.0070 C   0  0  0  0  0  0  0  0  0  0  0  0
    1.6680   18.5870   41.0340 C   0  0  0  0  0  0  0  0  0  0  0  0
    1.4750   17.3220   41.7140 C   0  0  0  0  0  0  0  0  0  0  0  0
    0.7970   19.5910   41.7220 C   0  0  0  0  0  0  0  0  0  0  0  0
    4.9000   11.8830   35.4450 O   0  0  0  0  0  1  0  0  0  0  0  0
   -0.3660   14.2910   44.6460 C   0  0  0  0  0  0  0  0  0  0  0  0
    5.1630   16.5010   36.7320 C   0  0  0  0  0  0  0  0  0  0  0  0
    3.1200   15.4990   37.3620 C   0  0  0  0  0  0  0  0  0  0  0  0
   -0.0110   15.1030   43.5650 C   0  0  0  0  0  0  0  0  0  0  0  0
    2.1050   20.6650   40.0800 C   0  0  0  0  0  0  0  0  0  0  0  0
   -0.0060   16.4990   43.7310 C   0  0  0  0  0  0  0  0  0  0  0  0
    3.4690   14.4030   36.8300 C   0  0  0  0  0  0  0  0  0  0  0  0
   -0.6670   12.5820   44.4660 Cl  0  0  0  0  0  0  0  0  0  0  0  0
   -0.7350   20.5400   44.0150 O   0  0  0  0  0  0  0  0  0  0  0  0
   -1.8680   21.3830   42.2610 O   0  0  0  0  0  0  0  0  0  0  0  0
    3.2150   19.4060   37.3590 C   0  0  0  0  0  0  0  0  0  0  0  0
    3.1070   17.6520   38.7690 O   0  0  0  0  0  0  0  0  0  0  0  0
   -0.6440   17.0500   44.9330 C   0  0  0  0  0  0  0  0  0  0  0  0
   -1.3000   18.4150   44.9840 C   0  0  0  0  0  0  0  0  0  0  0  0
    2.5125   15.6721   42.4576 H   0  0  0  0  0  0  0  0  0  0  0  0
    1.6237   15.3984   40.9208 H   0  0  0  0  0  0  0  0  0  0  0  0
    3.1443   16.3546   40.9208 H   0  0  0  0  0  0  0  0  0  0  0  0
   -0.7541   16.6161   47.0937 H   0  0  0  0  0  0  0  0  0  0  0  0
    2.1391   18.5674   39.2090 H   0  0  0  0  0  0  0  0  0  0  0  0
    3.8582   18.6178   35.6444 H   0  0  0  0  0  0  0  0  0  0  0  0
    4.2679   19.3685   39.2714 H   0  0  0  0  0  0  0  0  0  0  0  0
   -0.7467   14.2191   46.8435 H   0  0  0  0  0  0  0  0  0  0  0  0
    0.2543   19.2888   44.5386 H   0  0  0  0  0  0  0  0  0  0  0  0
   -0.2048   21.7251   42.5425 H   0  0  0  0  0  0  0  0  0  0  0  0
    0.1776   21.1511   40.4817 H   0  0  0  0  0  0  0  0  0  0  0  0
    1.4151   21.5722   41.7436 H   0  0  0  0  0  0  0  0  0  0  0  0
    5.9683   17.2490   36.7765 H   0  0  0  0  0  0  0  0  0  0  0  0
    2.2066   15.4936   37.9749 H   0  0  0  0  0  0  0  0  0  0  0  0
    0.2608   14.6557   42.5975 H   0  0  0  0  0  0  0  0  0  0  0  0
    3.0155   21.1670   40.4392 H   0  0  0  0  0  0  0  0  0  0  0  0
    1.8106   21.1089   39.1175 H   0  0  0  0  0  0  0  0  0  0  0  0
    2.7754   13.5531   36.9119 H   0  0  0  0  0  0  0  0  0  0  0  0
    3.0371   17.2400   39.6665 H   0  0  0  0  0  0  0  0  0  0  0  0
   -1.1467   18.8681   45.9746 H   0  0  0  0  0  0  0  0  0  0  0  0
   -2.3825   18.3304   44.8079 H   0  0  0  0  0  0  0  0  0  0  0  0
  1 19  1  0
  3 14  1  0
  3 27  1  0
  4  9  1  0
  4 26  1  0
  4 18  1  0
  5  8  2  0
  5 28  1  0
  6 32  2  0
  7 11  1  0
  7 32  1  0
  8 23  1  0
  9 33  1  0
 10 13  2  0
 11 24  1  0
 12  2  2  0
 13 21  1  0
 13  5  1  0
 14 15  1  0
 15 30  1  0
 15 35  1  0
 16 30  1  0
 17 20  1  0
 18 19  2  0
 18 20  1  0
 19  3  1  0
 20 14  2  0
 22 12  1  0
 23 11  2  0
 25 27  1  0
 25 22  2  0
 26 17  1  0
 27 34  2  0
 28 24  2  0
 29 22  1  0
 31 16  2  0
 32  9  1  0
 34 35  1  0
 34  2  1  0
  1 36  1  0
  1 37  1  0
  1 38  1  0
  2 39  1  0
  4 40  1  0
  7 41  1  0
  9 42  1  0
 12 43  1  0
 15 44  1  0
 16 45  1  0
 17 46  1  0
 17 47  1  0
 23 48  1  0
 24 49  1  0
 25 50  1  0
 26 51  1  0
 26 52  1  0
 28 53  1  0
 33 54  1  0
 35 55  1  0
 35 56  1  0
M  CHG  1  21  -1
M  END
>  <mol_id>  (35) 
2026-08-24-6tgu-s0-n100-seed1-0036

>  <rmsd_to_ref>  (35) 


$$$$

     RDKit          3D

 41 42  0  0  0  0  0  0  0  0999 V2000
   -0.4200   14.9840   44.9970 C   0  0  0  0  0  0  0  0  0  0  0  0
    0.6170   12.8790   43.3250 C   0  0  0  0  0  0  0  0  0  0  0  0
    1.8730   20.7250   39.0490 C   0  0  0  0  0  0  0  0  0  0  0  0
    1.9950   19.2840   41.1490 C   0  0  0  0  0  0  0  0  0  0  0  0
    3.0390   20.5000   37.0190 C   0  0  0  0  0  0  0  0  0  0  0  0
    0.0990   15.3190   43.7100 C   0  0  0  0  0  0  0  0  0  0  0  0
    1.8950   16.9060   41.1440 O   0  0  0  0  0  0  0  0  0  0  0  0
    0.6100   14.2320   42.8240 C   0  0  0  0  0  0  0  0  0  0  0  0
    2.3170   19.5040   39.6530 C   0  0  0  0  0  0  0  0  0  0  0  0
    0.0220   16.8420   43.2940 C   0  0  0  0  0  0  0  0  0  0  0  0
    3.1030   18.6880   38.7170 C   0  0  0  0  0  0  0  0  0  0  0  0
    3.3670   17.2520   38.8510 C   0  0  0  0  0  0  0  0  0  0  0  0
   -0.6790   17.5520   44.4820 C   0  0  0  0  0  0  0  0  0  0  0  0
    2.1700   21.2100   37.7920 C   0  0  0  0  0  0  0  0  0  0  0  0
    0.1550   12.5650   44.6350 C   0  0  0  0  0  0  0  0  0  0  0  0
    1.4560   17.9690   41.5210 C   0  0  0  0  0  0  0  0  0  0  0  0
    2.2260   21.8310   35.6440 O   0  0  0  0  0  0  0  0  0  0  0  0
    0.5480   17.9770   42.4280 N   0  0  0  0  0  0  0  0  0  0  0  0
    3.3990   21.2050   35.8590 O   0  0  0  0  0  0  0  0  0  0  0  0
    3.3990   19.2360   37.4340 C   0  0  0  0  0  0  0  0  0  0  0  0
   -0.3260   13.6040   45.4830 C   0  0  0  0  0  0  0  0  0  0  0  0
    1.1090   20.4700   41.6300 C   0  0  0  0  0  0  0  0  0  0  0  0
   -0.8888   15.7585   45.6218 H   0  0  0  0  0  0  0  0  0  0  0  0
    0.9884   12.0698   42.6790 H   0  0  0  0  0  0  0  0  0  0  0  0
    1.2130   21.3542   39.6642 H   0  0  0  0  0  0  0  0  0  0  0  0
    2.9559   19.2720   41.6843 H   0  0  0  0  0  0  0  0  0  0  0  0
    0.9735   14.4576   41.8106 H   0  0  0  0  0  0  0  0  0  0  0  0
    3.4159   16.9861   39.9173 H   0  0  0  0  0  0  0  0  0  0  0  0
    2.5582   16.6839   38.3681 H   0  0  0  0  0  0  0  0  0  0  0  0
    4.3249   17.0087   38.3681 H   0  0  0  0  0  0  0  0  0  0  0  0
   -0.2867   17.1547   45.4298 H   0  0  0  0  0  0  0  0  0  0  0  0
   -0.4845   18.6334   44.4293 H   0  0  0  0  0  0  0  0  0  0  0  0
   -1.7628   17.3713   44.4293 H   0  0  0  0  0  0  0  0  0  0  0  0
    1.7182   22.1431   37.4243 H   0  0  0  0  0  0  0  0  0  0  0  0
    0.1695   11.5242   44.9908 H   0  0  0  0  0  0  0  0  0  0  0  0
    1.8072   22.0545   36.5127 H   0  0  0  0  0  0  0  0  0  0  0  0
    3.9544   18.6046   36.7249 H   0  0  0  0  0  0  0  0  0  0  0  0
   -0.6301   13.3682   46.5135 H   0  0  0  0  0  0  0  0  0  0  0  0
    1.0921   20.4926   42.7296 H   0  0  0  0  0  0  0  0  0  0  0  0
    1.5239   21.4153   41.2501 H   0  0  0  0  0  0  0  0  0  0  0  0
    0.0849   20.3402   41.2501 H   0  0  0  0  0  0  0  0  0  0  0  0
  1 21  2  0
  2 15  2  0
  3  9  2  0
  4 16  1  0
  4 22  1  0
  5 20  1  0
  5 14  2  0
  6  1  1  0
  7 16  2  0
  8  2  1  0
  8  6  2  0
  9  4  1  0
 10  6  1  0
 10 13  1  0
 11 12  1  0
 11  9  1  0
 14  3  1  0
 15 21  1  0
 16 18  1  0
 17 19  1  0
 18 10  2  3
 19  5  1  0
 20 11  2  0
  1 23  1  0
  2 24  1  0
  3 25  1  0
  4 26  1  0
  8 27  1  0
 12 28  1  0
 12 29  1  0
 12 30  1  0
 13 31  1  0
 13 32  1  0
 13 33  1  0
 14 34  1  0
 15 35  1  0
 17 36  1  0
 20 37  1  0
 21 38  1  0
 22 39  1  0
 22 40  1  0
 22 41  1  0
M  END
>  <mol_id>  (36) 
2026-08-24-6tgu-s0-n100-seed1-0037

>  <rmsd_to_ref>  (36) 


$$$$

     RDKit          3D

 50 53  0  0  0  0  0  0  0  0999 V2000
   -0.4480   18.2340   43.8550 C   0  0  0  0  0  0  0  0  0  0  0  0
    2.3290   20.7590   38.3060 C   0  0  0  0  0  0  0  0  0  0  0  0
    3.2650   18.2980   38.8740 N   0  0  0  0  0  0  0  0  0  0  0  0
   -0.7760   17.1790   44.6140 C   0  0  0  0  0  0  0  0  0  0  0  0
    1.5070   16.6310   41.0370 N   0  0  0  0  0  0  0  0  0  0  0  0
    3.9150   16.3030   37.1220 C   0  0  0  0  0  0  0  0  0  0  0  0
    3.6850   15.3270   38.4320 C   0  0  0  0  0  0  0  0  0  0  0  0
    2.7380   15.2830   39.2440 C   0  0  0  0  0  0  0  0  0  0  0  0
   -0.8090   21.0730   42.1280 C   0  0  0  0  0  0  0  0  0  0  0  0
    1.9770   13.6200   41.9380 C   0  0  0  0  0  0  0  0  0  0  0  0
    0.4480   18.1530   42.7610 C   0  0  0  0  0  0  0  0  0  0  0  0
    3.3740   18.7230   37.6380 C   0  0  0  0  0  0  0  0  0  0  0  0
    3.9200   21.1450   35.0680 N   0  0  0  0  0  0  0  0  0  0  0  0
   -0.1960   15.8860   44.2980 C   0  0  0  0  0  0  0  0  0  0  0  0
    1.4580   22.0210   40.8100 O   0  0  0  0  0  0  0  0  0  0  0  0
    0.9750   19.3250   42.2500 N   0  0  0  0  0  0  0  0  0  0  0  0
    0.9060   16.8750   42.2690 C   0  0  0  0  0  0  0  0  0  0  0  0
    2.1480   15.4730   40.5410 C   0  0  0  0  0  0  0  0  0  0  0  0
    1.2870   14.4460   42.7310 C   0  0  0  0  0  0  0  0  0  0  0  0
    2.4810   14.2160   40.7540 N   0  0  0  0  0  0  0  0  0  0  0  0
    2.9790   20.0970   37.2880 C   0  0  0  0  0  0  0  0  0  0  0  0
    0.6920   15.6980   43.0910 C   0  0  0  0  0  0  0  0  0  0  0  0
    1.2690   20.9590   40.6700 C   0  0  0  0  0  0  0  0  0  0  0  0
    3.8300   17.8860   36.7940 O   0  0  0  0  0  0  0  0  0  0  0  0
    3.4610   20.6030   36.0260 C   0  0  0  0  0  0  0  0  0  0  0  0
    2.6990   19.0910   39.8160 N   0  0  0  0  0  0  0  0  0  0  0  0
    0.3950   20.3960   41.7570 C   0  0  0  0  0  0  0  0  0  0  0  0
   -1.5380   17.3460   45.7860 N   0  0  0  0  0  0  0  0  0  0  0  0
    2.1620   20.2700   39.6010 C   0  0  0  0  0  0  0  0  0  0  0  0
   -0.8963   19.2098   44.0933 H   0  0  0  0  0  0  0  0  0  0  0  0
    1.9091   21.7502   38.0798 H   0  0  0  0  0  0  0  0  0  0  0  0
    4.9472   16.0601   36.8295 H   0  0  0  0  0  0  0  0  0  0  0  0
    2.9269   16.0840   36.6910 H   0  0  0  0  0  0  0  0  0  0  0  0
    3.7320   14.3085   38.0192 H   0  0  0  0  0  0  0  0  0  0  0  0
    4.4232   15.8002   39.0962 H   0  0  0  0  0  0  0  0  0  0  0  0
    2.0227   15.8881   38.6677 H   0  0  0  0  0  0  0  0  0  0  0  0
    3.1409   14.3260   39.6071 H   0  0  0  0  0  0  0  0  0  0  0  0
   -0.8832   21.1147   43.2247 H   0  0  0  0  0  0  0  0  0  0  0  0
   -0.7947   22.0954   41.7223 H   0  0  0  0  0  0  0  0  0  0  0  0
   -1.6751   20.5296   41.7223 H   0  0  0  0  0  0  0  0  0  0  0  0
    2.8286   13.2261   42.5122 H   0  0  0  0  0  0  0  0  0  0  0  0
    1.2725   12.8390   41.6161 H   0  0  0  0  0  0  0  0  0  0  0  0
   -0.4076   15.0262   44.9507 H   0  0  0  0  0  0  0  0  0  0  0  0
    2.0042   19.3655   42.2571 H   0  0  0  0  0  0  0  0  0  0  0  0
    0.3795   13.8304   42.8176 H   0  0  0  0  0  0  0  0  0  0  0  0
    2.2491   14.8489   43.0804 H   0  0  0  0  0  0  0  0  0  0  0  0
    3.0761   13.6938   40.0952 H   0  0  0  0  0  0  0  0  0  0  0  0
    0.9526   20.9771   42.5063 H   0  0  0  0  0  0  0  0  0  0  0  0
   -1.7840   16.5278   46.3613 H   0  0  0  0  0  0  0  0  0  0  0  0
   -1.8495   18.2864   46.0681 H   0  0  0  0  0  0  0  0  0  0  0  0
  1  4  2  0
  2 29  2  0
  3 26  2  0
  4 28  1  0
  5 17  1  0
  6  7  1  0
  7  8  1  0
  8 18  1  0
 10 19  1  0
 11  1  1  0
 12  3  1  0
 13 25  3  0
 14  4  1  0
 16 11  1  0
 17 11  2  0
 17 22  1  0
 18 20  1  0
 18  5  2  0
 19 22  1  0
 20 10  1  0
 21 12  2  0
 21  2  1  0
 22 14  2  0
 23 15  2  0
 23 27  1  0
 24  6  1  0
 24 12  1  0
 25 21  1  0
 27  9  1  0
 27 16  1  0
 29 26  1  0
 29 23  1  0
  1 30  1  0
  2 31  1  0
  6 32  1  0
  6 33  1  0
  7 34  1  0
  7 35  1  0
  8 36  1  0
  8 37  1  0
  9 38  1  0
  9 39  1  0
  9 40  1  0
 10 41  1  0
 10 42  1  0
 14 43  1  0
 16 44  1  0
 19 45  1  0
 19 46  1  0
 20 47  1  0
 27 48  1  0
 28 49  1  0
 28 50  1  0
M  END
>  <mol_id>  (37) 
2026-08-24-6tgu-s0-n100-seed1-0039

>  <rmsd_to_ref>  (37) 


$$$$

     RDKit          3D

 43 46  0  0  0  0  0  0  0  0999 V2000
   -1.1910   18.8600   44.5660 C   0  0  0  0  0  0  0  0  0  0  0  0
   -0.6460   16.4890   44.7710 C   0  0  0  0  0  0  0  0  0  0  0  0
   -1.1850   19.9840   43.9200 C   0  0  0  0  0  0  0  0  0  0  0  0
    4.7640   15.8990   36.7020 N   0  0  0  0  0  0  0  0  0  0  0  0
    0.6220   15.4520   43.0690 C   0  0  0  0  0  0  0  0  0  0  0  0
    3.3250   15.9540   38.2860 C   0  0  0  0  0  0  0  0  0  0  0  0
    3.5480   17.1840   37.8070 C   0  0  0  0  0  0  0  0  0  0  0  0
    2.6150   20.8250   38.0270 C   0  0  0  0  0  0  0  0  0  0  0  0
    3.2860   19.5990   37.5500 C   0  0  0  0  0  0  0  0  0  0  0  0
    2.4620   18.4130   39.6530 C   0  0  0  0  0  0  0  0  0  0  0  0
   -1.1500   16.6140   45.9890 N   0  0  0  0  0  0  0  0  0  0  0  0
    0.1990   17.8210   42.9980 C   0  0  0  0  0  0  0  0  0  0  0  0
    2.4200   15.5100   39.2990 N   0  0  0  0  0  0  0  0  0  0  0  0
    1.6930   20.7020   40.1550 C   0  0  0  0  0  0  0  0  0  0  0  0
   -0.1320   15.3820   44.2060 C   0  0  0  0  0  0  0  0  0  0  0  0
    3.1040   18.4060   38.3300 C   0  0  0  0  0  0  0  0  0  0  0  0
   -0.3710   20.0480   42.9150 C   0  0  0  0  0  0  0  0  0  0  0  0
    1.8770   19.4030   40.5280 C   0  0  0  0  0  0  0  0  0  0  0  0
    1.5040   19.1740   41.5880 N   0  0  0  0  0  0  0  0  0  0  0  0
    4.4710   17.1380   36.7720 O   0  0  0  0  0  0  0  0  0  0  0  0
    0.3770   18.9890   42.3980 C   0  0  0  0  0  0  0  0  0  0  0  0
    4.1740   15.2040   37.6310 N   0  0  0  0  0  0  0  0  0  0  0  0
   -0.5710   17.7420   44.1340 C   0  0  0  0  0  0  0  0  0  0  0  0
    0.8070   16.6490   42.4440 C   0  0  0  0  0  0  0  0  0  0  0  0
    2.4090   21.7150   37.0280 F   0  0  0  0  0  0  0  0  0  0  0  0
    3.8190   19.6490   36.3000 O   0  0  0  0  0  0  0  0  0  0  0  0
    1.9230   21.0320   39.0790 C   0  0  0  0  0  0  0  0  0  0  0  0
   -1.7331   18.8150   45.5221 H   0  0  0  0  0  0  0  0  0  0  0  0
   -1.8293   20.8282   44.2069 H   0  0  0  0  0  0  0  0  0  0  0  0
    1.0806   14.5409   42.6572 H   0  0  0  0  0  0  0  0  0  0  0  0
    2.4150   17.4042   40.0891 H   0  0  0  0  0  0  0  0  0  0  0  0
   -1.5150   17.5241   46.3044 H   0  0  0  0  0  0  0  0  0  0  0  0
   -1.1771   15.8012   46.6211 H   0  0  0  0  0  0  0  0  0  0  0  0
    2.3758   14.5116   39.5484 H   0  0  0  0  0  0  0  0  0  0  0  0
    1.8120   16.1884   39.7797 H   0  0  0  0  0  0  0  0  0  0  0  0
    1.3234   21.4356   40.8865 H   0  0  0  0  0  0  0  0  0  0  0  0
   -0.3223   14.4020   44.6680 H   0  0  0  0  0  0  0  0  0  0  0  0
   -0.2588   21.0259   42.4240 H   0  0  0  0  0  0  0  0  0  0  0  0
    2.3341   19.0571   42.1865 H   0  0  0  0  0  0  0  0  0  0  0  0
    1.4136   16.7136   41.5287 H   0  0  0  0  0  0  0  0  0  0  0  0
    4.2812   18.8570   35.9269 H   0  0  0  0  0  0  0  0  0  0  0  0
    2.1789   22.0861   39.2618 H   0  0  0  0  0  0  0  0  0  0  0  0
    1.1487   20.3466   38.7039 H   0  0  0  0  0  0  0  0  0  0  0  0
  2 11  1  0
  3  1  2  0
  4 20  1  0
  4 22  2  0
  5 15  1  0
  6 13  1  0
  7  6  2  0
  7 16  1  0
  8 27  1  0
  9  8  2  0
  9 16  1  0
 10 18  1  0
 12 23  2  0
 14 18  2  0
 15  2  2  0
 16 10  2  0
 17  3  1  0
 18 19  1  0
 19 21  1  0
 20  7  1  0
 21 17  2  0
 21 12  1  0
 22  6  1  0
 23  1  1  0
 23  2  1  0
 24 12  1  0
 24  5  2  0
 25  8  1  0
 26  9  1  0
 27 14  1  0
  1 28  1  0
  3 29  1  0
  5 30  1  0
 10 31  1  0
 11 32  1  0
 11 33  1  0
 13 34  1  0
 13 35  1  0
 14 36  1  0
 15 37  1  0
 17 38  1  0
 19 39  1  0
 24 40  1  0
 26 41  1  0
 27 42  1  0
 27 43  1  0
M  END
>  <mol_id>  (38) 
2026-08-24-6tgu-s0-n100-seed1-0040

>  <rmsd_to_ref>  (38) 


$$$$

     RDKit          3D

 41 43  0  0  0  0  0  0  0  0999 V2000
    5.0770   16.2550   36.9030 C   0  0  0  0  0  0  0  0  0  0  0  0
   -0.0270   16.3650   43.8590 C   0  0  0  0  0  0  0  0  0  0  0  0
    0.3840   17.1350   42.7850 C   0  0  0  0  0  0  0  0  0  0  0  0
    0.1080   14.6420   43.6440 Cl  0  0  0  0  0  0  0  0  0  0  0  0
    3.1810   17.2370   38.1600 C   0  0  0  0  0  0  0  0  0  0  0  0
   -0.6650   16.1730   46.3570 C   0  0  0  0  0  0  0  0  0  0  0  0
    3.2400   14.8260   37.6070 C   0  0  0  0  0  0  0  0  0  0  0  0
    2.5640   15.9290   38.1850 C   0  0  0  0  0  0  0  0  0  0  0  0
    4.3130   20.2560   36.9830 O   0  0  0  0  0  1  0  0  0  0  0  0
    2.4550   20.0420   38.4360 C   0  0  0  0  0  0  0  0  0  0  0  0
   -0.8880   18.3520   45.0420 C   0  0  0  0  0  0  0  0  0  0  0  0
    3.1180   20.5810   37.1700 C   0  0  0  0  0  0  0  0  0  0  0  0
    1.3420   19.3920   40.8330 C   0  0  0  0  0  0  0  0  0  0  0  0
    1.8150   20.9970   39.1230 C   0  0  0  0  0  0  0  0  0  0  0  0
    2.0550   18.4040   40.2340 C   0  0  0  0  0  0  0  0  0  0  0  0
    1.2460   20.7170   40.3190 C   0  0  0  0  0  0  0  0  0  0  0  0
    2.5640   18.6030   38.8280 C   0  0  0  0  0  0  0  0  0  0  0  0
    5.1670   13.8150   36.2980 C   0  0  0  0  0  0  0  0  0  0  0  0
    4.4830   15.0130   36.9700 C   0  0  0  0  0  0  0  0  0  0  0  0
    0.1550   18.5220   42.8120 C   0  0  0  0  0  0  0  0  0  0  0  0
    2.2470   17.1920   40.7730 F   0  0  0  0  0  0  0  0  0  0  0  0
    0.5950   19.2130   41.8720 O   0  0  0  0  0  0  0  0  0  0  0  0
   -0.4810   16.9490   45.0630 C   0  0  0  0  0  0  0  0  0  0  0  0
    2.5110   21.4590   36.4970 O   0  0  0  0  0  0  0  0  0  0  0  0
   -0.5110   19.1090   43.9210 C   0  0  0  0  0  0  0  0  0  0  0  0
    4.4540   17.4290   37.4900 C   0  0  0  0  0  0  0  0  0  0  0  0
    6.0459   16.3599   36.3929 H   0  0  0  0  0  0  0  0  0  0  0  0
    0.8827   16.6686   41.9226 H   0  0  0  0  0  0  0  0  0  0  0  0
   -0.5057   16.8449   47.2133 H   0  0  0  0  0  0  0  0  0  0  0  0
   -1.6851   15.7635   46.3971 H   0  0  0  0  0  0  0  0  0  0  0  0
    0.0627   15.3491   46.3971 H   0  0  0  0  0  0  0  0  0  0  0  0
    2.7937   13.8218   37.6556 H   0  0  0  0  0  0  0  0  0  0  0  0
    1.5765   15.7915   38.6497 H   0  0  0  0  0  0  0  0  0  0  0  0
   -1.4641   18.7955   45.8675 H   0  0  0  0  0  0  0  0  0  0  0  0
    1.7513   22.0156   38.7127 H   0  0  0  0  0  0  0  0  0  0  0  0
    0.7185   21.4994   40.8843 H   0  0  0  0  0  0  0  0  0  0  0  0
    5.5556   13.1343   37.0698 H   0  0  0  0  0  0  0  0  0  0  0  0
    4.4379   13.2806   35.6712 H   0  0  0  0  0  0  0  0  0  0  0  0
    5.9978   14.1713   35.6712 H   0  0  0  0  0  0  0  0  0  0  0  0
   -0.7374   20.1853   43.9011 H   0  0  0  0  0  0  0  0  0  0  0  0
    4.9267   18.4204   37.4292 H   0  0  0  0  0  0  0  0  0  0  0  0
  1 19  2  0
  1 26  1  0
  2 23  2  0
  3 20  2  0
  3  2  1  0
  4  2  1  0
  5  8  1  0
  5 17  1  0
  7  8  2  0
  9 12  1  0
 10 17  2  0
 10 14  1  0
 11 23  1  0
 12 10  1  0
 13 22  1  0
 14 16  2  0
 15 21  1  0
 15 13  2  0
 16 13  1  0
 17 15  1  0
 18 19  1  0
 19  7  1  0
 20 25  1  0
 22 20  1  0
 23  6  1  0
 24 12  2  0
 25 11  2  0
 26  5  2  0
  1 27  1  0
  3 28  1  0
  6 29  1  0
  6 30  1  0
  6 31  1  0
  7 32  1  0
  8 33  1  0
 11 34  1  0
 14 35  1  0
 16 36  1  0
 18 37  1  0
 18 38  1  0
 18 39  1  0
 25 40  1  0
 26 41  1  0
M  CHG  1   9  -1
M  END
>  <mol_id>  (39) 
2026-08-24-6tgu-s0-n100-seed1-0041

>  <rmsd_to_ref>  (39) 


$$$$

     RDKit          3D

 25 26  0  0  0  0  0  0  0  0999 V2000
    0.7650   17.9960   42.0490 C   0  0  0  0  0  0  0  0  0  0  0  0
   -0.0750   14.8850   44.2580 C   0  0  0  0  0  0  0  0  0  0  0  0
    2.6740   19.8470   38.7470 C   0  0  0  0  0  0  0  0  0  0  0  0
    2.1430   21.3390   36.8970 O   0  0  0  0  0  1  0  0  0  0  0  0
   -0.6890   17.1540   43.5640 C   0  0  0  0  0  0  0  0  0  0  0  0
    0.0400   16.1220   43.4850 C   0  0  0  0  0  0  0  0  0  0  0  0
    2.5340   16.6280   40.2660 O   0  0  0  0  0  0  0  0  0  0  0  0
    3.0340   18.4360   39.0090 C   0  0  0  0  0  0  0  0  0  0  0  0
    2.3640   17.9410   40.0900 C   0  0  0  0  0  0  0  0  0  0  0  0
    1.2680   20.0560   40.6890 C   0  0  0  0  0  0  0  0  0  0  0  0
   -0.2640   18.3830   42.8300 C   0  0  0  0  0  0  0  0  0  0  0  0
    2.0650   20.5990   39.5610 C   0  0  0  0  0  0  0  0  0  0  0  0
    3.7620   19.9530   36.6530 O   0  0  0  0  0  0  0  0  0  0  0  0
    1.3090   16.4340   42.4170 S   0  0  0  0  0  0  0  0  0  0  0  0
    2.8460   20.4450   37.4040 C   0  0  0  0  0  0  0  0  0  0  0  0
    1.4870   18.7000   40.9330 C   0  0  0  0  0  0  0  0  0  0  0  0
   -0.0531   15.1206   45.3323 H   0  0  0  0  0  0  0  0  0  0  0  0
   -1.0235   14.3854   44.0114 H   0  0  0  0  0  0  0  0  0  0  0  0
    0.7651   14.2191   44.0114 H   0  0  0  0  0  0  0  0  0  0  0  0
   -1.6139   17.1456   44.1594 H   0  0  0  0  0  0  0  0  0  0  0  0
    2.0907   16.1685   41.0226 H   0  0  0  0  0  0  0  0  0  0  0  0
    3.7517   17.8584   38.4079 H   0  0  0  0  0  0  0  0  0  0  0  0
    0.5686   20.6668   41.2787 H   0  0  0  0  0  0  0  0  0  0  0  0
   -0.6983   19.3905   42.9095 H   0  0  0  0  0  0  0  0  0  0  0  0
    2.1279   21.6892   39.4289 H   0  0  0  0  0  0  0  0  0  0  0  0
  1 14  1  0
  1 11  2  0
  3  8  2  0
  3 12  1  0
  4 15  1  0
  6  5  2  0
  6  2  1  0
  8  9  1  0
  9  7  1  0
  9 16  2  0
 10 16  1  0
 11  5  1  0
 12 10  2  0
 13 15  2  0
 14  6  1  0
 15  3  1  0
 16  1  1  0
  2 17  1  0
  2 18  1  0
  2 19  1  0
  5 20  1  0
  7 21  1  0
  8 22  1  0
 10 23  1  0
 11 24  1  0
 12 25  1  0
M  CHG  1   4  -1
M  END
>  <mol_id>  (40) 
2026-08-24-6tgu-s0-n100-seed1-0042

>  <rmsd_to_ref>  (40) 


$$$$

     RDKit          3D

 28 30  0  0  0  0  0  0  0  0999 V2000
    1.6470   16.9980   41.9630 C   0  0  0  0  0  0  0  0  0  0  0  0
   -0.6800   17.6350   43.3990 C   0  0  0  0  0  0  0  0  0  0  0  0
    1.0550   16.0490   42.8230 C   0  0  0  0  0  0  0  0  0  0  0  0
   -0.0090   18.6340   42.6840 C   0  0  0  0  0  0  0  0  0  0  0  0
    3.9010   18.1550   37.0580 C   0  0  0  0  0  0  0  0  0  0  0  0
    1.0890   18.3290   41.8210 C   0  0  0  0  0  0  0  0  0  0  0  0
    2.5740   20.3380   37.9000 C   0  0  0  0  0  0  0  0  0  0  0  0
   -1.0480   20.2700   43.8090 O   0  0  0  0  0  0  0  0  0  0  0  0
    3.3990   18.0920   38.3040 C   0  0  0  0  0  0  0  0  0  0  0  0
    3.7700   19.3550   36.3590 N   0  0  0  0  0  0  0  0  0  0  0  0
    3.1550   20.4520   36.7560 N   0  0  0  0  0  0  0  0  0  0  0  0
   -0.0130   16.4810   43.7540 C   0  0  0  0  0  0  0  0  0  0  0  0
    1.5320   19.3500   40.9340 C   0  0  0  0  0  0  0  0  0  0  0  0
    2.6740   19.2780   38.7970 C   0  0  0  0  0  0  0  0  0  0  0  0
   -0.3040   20.0710   42.9140 C   0  0  0  0  0  0  0  0  0  0  0  0
    1.3340   21.0390   40.9810 S   0  0  0  0  0  0  0  0  0  0  0  0
    2.0500   18.9860   39.7920 O   0  0  0  0  0  0  0  0  0  0  0  0
    0.4180   21.2690   42.2660 C   0  0  0  0  0  0  0  0  0  0  0  0
    2.5459   16.7240   41.3912 H   0  0  0  0  0  0  0  0  0  0  0  0
   -1.7358   17.7698   43.6769 H   0  0  0  0  0  0  0  0  0  0  0  0
    1.3832   14.9993   42.8023 H   0  0  0  0  0  0  0  0  0  0  0  0
    4.3999   17.2863   36.6037 H   0  0  0  0  0  0  0  0  0  0  0  0
    1.9251   21.1731   38.2026 H   0  0  0  0  0  0  0  0  0  0  0  0
    3.5237   17.1950   38.9283 H   0  0  0  0  0  0  0  0  0  0  0  0
   -0.2578   15.9191   44.6674 H   0  0  0  0  0  0  0  0  0  0  0  0
    1.6827   19.3663   42.0235 H   0  0  0  0  0  0  0  0  0  0  0  0
    1.0612   21.7110   43.0412 H   0  0  0  0  0  0  0  0  0  0  0  0
   -0.4067   21.8892   41.8848 H   0  0  0  0  0  0  0  0  0  0  0  0
  1  3  2  0
  2 12  2  0
  3 12  1  0
  4 15  1  0
  4  2  1  0
  5  9  2  0
  6  1  1  0
  6  4  2  0
  7 14  2  0
  9 14  1  0
 10 11  2  0
 10  5  1  0
 11  7  1  0
 13 17  1  0
 13 16  1  0
 13  6  1  0
 14 17  1  0
 15  8  2  0
 16 18  1  0
 18 15  1  0
  1 19  1  0
  2 20  1  0
  3 21  1  0
  5 22  1  0
  7 23  1  0
  9 24  1  0
 12 25  1  0
 13 26  1  0
 18 27  1  0
 18 28  1  0
M  END
>  <mol_id>  (41) 
2026-08-24-6tgu-s0-n100-seed1-0043

>  <rmsd_to_ref>  (41) 


$$$$

     RDKit          3D

 47 51  0  0  0  0  0  0  0  0999 V2000
    2.8080   14.9520   40.5380 N   0  0  0  0  0  0  0  0  0  0  0  0
   -1.2440   20.6530   43.6400 O   0  0  0  0  0  0  0  0  0  0  0  0
   -0.4800   21.2030   42.4080 C   0  0  0  0  0  0  0  0  0  0  0  0
   -0.9200   19.4490   43.7950 C   0  0  0  0  0  0  0  0  0  0  0  0
    2.2400   17.3810   40.1010 N   0  0  0  0  0  0  0  0  0  0  0  0
    1.3330   16.3670   41.9790 C   0  0  0  0  0  0  0  0  0  0  0  0
   -0.8130   17.4190   44.5870 C   0  0  0  0  0  0  0  0  0  0  0  0
   -0.0420   17.4410   43.5070 C   0  0  0  0  0  0  0  0  0  0  0  0
    1.0030   18.8720   41.8020 C   0  0  0  0  0  0  0  0  0  0  0  0
   -1.3180   18.6250   44.8250 N   0  0  0  0  0  0  0  0  0  0  0  0
    2.0740   21.4660   37.7450 C   0  0  0  0  0  0  0  0  0  0  0  0
    2.8070   22.0330   35.1560 O   0  0  0  0  0  0  0  0  0  0  0  0
    3.2080   13.8790   39.9240 C   0  0  0  0  0  0  0  0  0  0  0  0
    0.0700   18.7510   42.9260 C   0  0  0  0  0  0  0  0  0  0  0  0
    1.6910   21.1260   38.9650 C   0  0  0  0  0  0  0  0  0  0  0  0
    3.0450   19.2240   38.9720 C   0  0  0  0  0  0  0  0  0  0  0  0
    2.5810   15.9930   39.8140 C   0  0  0  0  0  0  0  0  0  0  0  0
    0.8440   20.7920   41.6360 C   0  0  0  0  0  0  0  0  0  0  0  0
    3.4980   21.0840   35.8260 O   0  0  0  0  0  0  0  0  0  0  0  0
    2.1270   20.0620   39.6540 C   0  0  0  0  0  0  0  0  0  0  0  0
    0.6410   16.3040   43.0320 C   0  0  0  0  0  0  0  0  0  0  0  0
    3.0320   15.6160   38.1360 S   0  0  0  0  0  0  0  0  0  0  0  0
    1.5260   17.5160   41.2960 C   0  0  0  0  0  0  0  0  0  0  0  0
    3.5700   13.9920   38.4790 C   0  0  0  0  0  0  0  0  0  0  0  0
   -0.9770   16.1570   45.4390 C   0  0  0  0  0  0  0  0  0  0  0  0
    3.5440   19.5110   37.7200 C   0  0  0  0  0  0  0  0  0  0  0  0
    3.0400   20.6670   37.0810 C   0  0  0  0  0  0  0  0  0  0  0  0
    1.7360   20.0400   41.1300 C   0  0  0  0  0  0  0  0  0  0  0  0
   -1.2427   21.1745   41.6158 H   0  0  0  0  0  0  0  0  0  0  0  0
   -0.0185   22.0424   42.9488 H   0  0  0  0  0  0  0  0  0  0  0  0
    2.4958   18.1721   39.4930 H   0  0  0  0  0  0  0  0  0  0  0  0
    1.7997   15.4456   41.6006 H   0  0  0  0  0  0  0  0  0  0  0  0
    0.0905   17.6852   45.1552 H   0  0  0  0  0  0  0  0  0  0  0  0
    1.6501   22.3541   37.2534 H   0  0  0  0  0  0  0  0  0  0  0  0
    2.3660   22.6387   35.8031 H   0  0  0  0  0  0  0  0  0  0  0  0
    3.2780   12.9166   40.4521 H   0  0  0  0  0  0  0  0  0  0  0  0
    0.9499   21.7731   39.4569 H   0  0  0  0  0  0  0  0  0  0  0  0
    3.3753   18.2988   39.4669 H   0  0  0  0  0  0  0  0  0  0  0  0
    0.6154   21.3414   40.7108 H   0  0  0  0  0  0  0  0  0  0  0  0
    1.2888   20.5738   42.6181 H   0  0  0  0  0  0  0  0  0  0  0  0
    0.5704   15.3546   43.5831 H   0  0  0  0  0  0  0  0  0  0  0  0
    4.0447   13.2549   37.8147 H   0  0  0  0  0  0  0  0  0  0  0  0
   -0.9419   16.4270   46.5048 H   0  0  0  0  0  0  0  0  0  0  0  0
   -1.9441   15.6845   45.2121 H   0  0  0  0  0  0  0  0  0  0  0  0
   -0.1628   15.4530   45.2121 H   0  0  0  0  0  0  0  0  0  0  0  0
    4.2990   18.8708   37.2403 H   0  0  0  0  0  0  0  0  0  0  0  0
    2.8103   20.2211   41.2820 H   0  0  0  0  0  0  0  0  0  0  0  0
  2  4  1  0
  3  2  1  0
  4 10  2  0
  5 23  1  0
  6 21  1  0
  7 10  1  0
  7 25  1  0
  8  7  1  0
  9 14  2  0
 11 15  2  0
 12 19  1  0
 13  1  1  0
 14  8  1  0
 14  4  1  0
 15 20  1  0
 16 20  2  0
 17  5  1  0
 17  1  2  0
 18  3  1  0
 19 27  1  0
 21  8  2  0
 22 24  1  0
 22 17  1  0
 23  9  1  0
 23  6  2  0
 24 13  2  0
 26 16  1  0
 27 26  2  0
 27 11  1  0
 28 20  1  0
 28 18  1  0
 28  9  1  0
  3 29  1  0
  3 30  1  0
  5 31  1  0
  6 32  1  0
  7 33  1  0
 11 34  1  0
 12 35  1  0
 13 36  1  0
 15 37  1  0
 16 38  1  0
 18 39  1  0
 18 40  1  0
 21 41  1  0
 24 42  1  0
 25 43  1  0
 25 44  1  0
 25 45  1  0
 26 46  1  0
 28 47  1  0
M  END
>  <mol_id>  (42) 
2026-08-24-6tgu-s0-n100-seed1-0044

>  <rmsd_to_ref>  (42) 


$$$$

     RDKit          3D

 50 50  0  0  0  0  0  0  0  0999 V2000
   -0.0920   18.9480   45.4090 C   0  0  0  0  0  0  0  0  0  0  0  0
    2.6520   21.1560   36.9320 O   0  0  0  0  0  0  0  0  0  0  0  0
    0.0810   17.6960   43.3990 C   0  0  0  0  0  0  0  0  0  0  0  0
    4.6550   16.1320   36.5310 N   0  0  0  0  0  4  0  0  0  0  0  0
   -0.4410   15.8650   44.8370 C   0  0  0  0  0  0  0  0  0  0  0  0
    1.6220   15.2180   41.8030 C   0  0  0  0  0  0  0  0  0  0  0  0
    0.2140   19.9750   42.3410 C   0  0  0  0  0  0  0  0  0  0  0  0
    0.2100   16.3140   43.5730 C   0  0  0  0  0  0  0  0  0  0  0  0
    1.5070   20.2520   40.2920 C   0  0  0  0  0  0  0  0  0  0  0  0
    0.6480   15.3960   42.8880 C   0  0  0  0  0  0  0  0  0  0  0  0
    3.3290   16.1620   38.4380 C   0  0  0  0  0  0  0  0  0  0  0  0
   -1.3920   16.8540   45.4800 C   0  0  0  0  0  0  0  0  0  0  0  0
   -0.5550   20.5020   43.2650 O   0  0  0  0  0  0  0  0  0  0  0  0
   -0.6140   18.3440   44.4440 C   0  0  0  0  0  0  0  0  0  0  0  0
    0.7840   20.7990   41.3970 N   0  0  0  0  0  0  0  0  0  0  0  0
    3.8370   14.8320   38.7290 O   0  0  0  0  0  0  0  0  0  0  0  0
    1.8150   21.0430   39.1700 C   0  0  0  0  0  0  0  0  0  0  0  0
    3.6000   18.3440   37.1730 C   0  0  0  0  0  0  0  0  0  0  0  0
    4.1190   16.9510   37.5390 C   0  0  0  0  0  0  0  0  0  0  0  0
    2.4380   20.4340   38.1670 C   0  0  0  0  0  0  0  0  0  0  0  0
    2.8840   19.0550   38.2210 C   0  0  0  0  0  0  0  0  0  0  0  0
   -0.4780   14.7100   45.2780 O   0  0  0  0  0  0  0  0  0  0  0  0
    3.7700   18.9310   36.1030 O   0  0  0  0  0  0  0  0  0  0  0  0
    2.2470   15.0130   41.0780 N   0  0  0  0  0  0  0  0  0  0  0  0
   -1.8680   18.9540   44.1320 O   0  0  0  0  0  0  0  0  0  0  0  0
    0.4020   18.6120   42.3980 C   0  0  0  0  0  0  0  0  0  0  0  0
    2.5360   18.2880   39.3530 C   0  0  0  0  0  0  0  0  0  0  0  0
    1.8100   18.9060   40.3910 C   0  0  0  0  0  0  0  0  0  0  0  0
   -0.7287   19.4203   46.1716 H   0  0  0  0  0  0  0  0  0  0  0  0
    1.0032   19.0062   45.4940 H   0  0  0  0  0  0  0  0  0  0  0  0
    2.3623   22.0994   36.8536 H   0  0  0  0  0  0  0  0  0  0  0  0
    5.1675   15.3489   36.9612 H   0  0  0  0  0  0  0  0  0  0  0  0
    3.8915   15.7628   35.9464 H   0  0  0  0  0  0  0  0  0  0  0  0
    5.2989   16.6839   35.9464 H   0  0  0  0  0  0  0  0  0  0  0  0
   -0.2697   14.9856   42.4414 H   0  0  0  0  0  0  0  0  0  0  0  0
    1.3490   15.0585   43.6656 H   0  0  0  0  0  0  0  0  0  0  0  0
    2.3271   16.0512   37.9977 H   0  0  0  0  0  0  0  0  0  0  0  0
    3.3408   16.7015   39.3965 H   0  0  0  0  0  0  0  0  0  0  0  0
   -1.3171   16.7761   46.5747 H   0  0  0  0  0  0  0  0  0  0  0  0
   -1.1272   17.8745   45.1661 H   0  0  0  0  0  0  0  0  0  0  0  0
   -2.4220   16.6294   45.1661 H   0  0  0  0  0  0  0  0  0  0  0  0
    0.6885   21.8205   41.4879 H   0  0  0  0  0  0  0  0  0  0  0  0
    3.8857   14.7046   39.7096 H   0  0  0  0  0  0  0  0  0  0  0  0
    1.5535   22.1105   39.1255 H   0  0  0  0  0  0  0  0  0  0  0  0
    4.9853   17.3315   38.0999 H   0  0  0  0  0  0  0  0  0  0  0  0
   -2.3828   19.4171   44.8395 H   0  0  0  0  0  0  0  0  0  0  0  0
   -0.1265   18.2330   41.5109 H   0  0  0  0  0  0  0  0  0  0  0  0
    1.4892   18.6270   42.5648 H   0  0  0  0  0  0  0  0  0  0  0  0
    2.8255   17.2291   39.4240 H   0  0  0  0  0  0  0  0  0  0  0  0
    1.4886   18.3255   41.2684 H   0  0  0  0  0  0  0  0  0  0  0  0
  2 20  1  0
  3  8  2  3
  3 14  1  0
  5 22  2  0
  5 12  1  0
  6 10  1  0
  7 26  1  0
  7 13  2  0
  8  5  1  0
  9 28  2  0
  9 15  1  0
 10  8  1  0
 11 16  1  0
 14  1  2  3
 15  7  1  0
 17  9  1  0
 18 19  1  0
 18 21  1  0
 19  4  1  0
 19 11  1  0
 20 21  1  0
 20 17  2  0
 21 27  2  0
 23 18  2  0
 24  6  3  0
 25 14  1  0
 26  3  1  0
 27 28  1  0
  1 29  1  0
  1 30  1  0
  2 31  1  0
  4 32  1  0
  4 33  1  0
  4 34  1  0
 10 35  1  0
 10 36  1  0
 11 37  1  0
 11 38  1  0
 12 39  1  0
 12 40  1  0
 12 41  1  0
 15 42  1  0
 16 43  1  0
 17 44  1  0
 19 45  1  0
 25 46  1  0
 26 47  1  0
 26 48  1  0
 27 49  1  0
 28 50  1  0
M  CHG  1   4   1
M  END
>  <mol_id>  (43) 
2026-08-24-6tgu-s0-n100-seed1-0045

>  <rmsd_to_ref>  (43) 


$$$$

     RDKit          3D

 37 38  0  0  0  0  0  0  0  0999 V2000
   -0.2790   19.1460   43.1450 C   0  0  0  0  0  0  0  0  0  0  0  0
    0.1750   21.1890   42.3740 N   0  0  0  0  0  0  0  0  0  0  0  0
    3.4620   18.8010   37.9860 C   0  0  0  0  0  0  0  0  0  0  0  0
    0.7060   19.0540   42.0800 C   0  0  0  0  0  0  0  0  0  0  0  0
    2.2320   15.7180   41.2800 N   0  0  0  0  0  0  0  0  0  0  0  0
    1.3160   16.5620   41.8480 C   0  0  0  0  0  0  0  0  0  0  0  0
    0.8930   20.3430   41.5690 C   0  0  0  0  0  0  0  0  0  0  0  0
    1.5860   20.8690   40.4430 C   0  0  0  0  0  0  0  0  0  0  0  0
    3.1820   13.5220   40.8800 C   0  0  0  0  0  0  0  0  0  0  0  0
    1.3840   17.9570   41.3150 C   0  0  0  0  0  0  0  0  0  0  0  0
    2.0590   14.3660   41.4940 C   0  0  0  0  0  0  0  0  0  0  0  0
   -0.9680   18.1940   44.0550 C   0  0  0  0  0  0  0  0  0  0  0  0
   -0.4710   20.4190   43.3190 N   0  0  0  0  0  0  0  0  0  0  0  0
   -2.4300   18.3800   43.8900 N   0  0  0  0  0  4  0  0  0  0  0  0
    2.5680   16.9090   36.9780 O   0  0  0  0  0  0  0  0  0  0  0  0
    0.5400   16.1840   42.7010 O   0  0  0  0  0  0  0  0  0  0  0  0
    2.6600   19.0780   39.1980 C   0  0  0  0  0  0  0  0  0  0  0  0
    3.6220   17.5010   37.3510 C   0  0  0  0  0  0  0  0  0  0  0  0
    4.7060   16.9170   37.2660 O   0  0  0  0  0  1  0  0  0  0  0  0
    2.2130   18.1060   40.1280 C   0  0  0  0  0  0  0  0  0  0  0  0
    2.2820   20.3870   39.3780 C   0  0  0  0  0  0  0  0  0  0  0  0
    3.0437   19.4546   37.2063 H   0  0  0  0  0  0  0  0  0  0  0  0
    4.4747   18.9402   38.3922 H   0  0  0  0  0  0  0  0  0  0  0  0
    3.0165   16.0768   40.7172 H   0  0  0  0  0  0  0  0  0  0  0  0
    1.5487   21.9683   40.4301 H   0  0  0  0  0  0  0  0  0  0  0  0
    3.7826   13.0706   41.6834 H   0  0  0  0  0  0  0  0  0  0  0  0
    2.7450   12.7269   40.2580 H   0  0  0  0  0  0  0  0  0  0  0  0
    3.8242   14.1629   40.2580 H   0  0  0  0  0  0  0  0  0  0  0  0
    2.0327   14.1817   42.5781 H   0  0  0  0  0  0  0  0  0  0  0  0
    1.1173   14.0703   41.0085 H   0  0  0  0  0  0  0  0  0  0  0  0
   -0.6912   17.1617   43.7946 H   0  0  0  0  0  0  0  0  0  0  0  0
   -0.6740   18.3814   45.0983 H   0  0  0  0  0  0  0  0  0  0  0  0
   -2.8757   18.4367   44.8169 H   0  0  0  0  0  0  0  0  0  0  0  0
   -2.6087   19.2505   43.3693 H   0  0  0  0  0  0  0  0  0  0  0  0
   -2.8210   17.5820   43.3693 H   0  0  0  0  0  0  0  0  0  0  0  0
    2.6393   17.1279   39.8606 H   0  0  0  0  0  0  0  0  0  0  0  0
    2.5661   21.1055   38.5951 H   0  0  0  0  0  0  0  0  0  0  0  0
  1 13  2  0
  1 12  1  0
  2 13  1  0
  3 17  1  0
  4  1  1  0
  5 11  1  0
  5  6  1  0
  6 16  2  0
  7  4  1  0
  7  2  2  0
  8  7  1  0
  9 11  1  0
 10  6  1  0
 10  4  2  0
 14 12  1  0
 15 18  2  0
 17 21  1  0
 17 20  2  0
 18  3  1  0
 19 18  1  0
 20 10  1  0
 21  8  2  0
  3 22  1  0
  3 23  1  0
  5 24  1  0
  8 25  1  0
  9 26  1  0
  9 27  1  0
  9 28  1  0
 11 29  1  0
 11 30  1  0
 12 31  1  0
 12 32  1  0
 14 33  1  0
 14 34  1  0
 14 35  1  0
 20 36  1  0
 21 37  1  0
M  CHG  2  14   1  19  -1
M  END
>  <mol_id>  (44) 
2026-08-24-6tgu-s0-n100-seed1-0046

>  <rmsd_to_ref>  (44) 


$$$$

     RDKit          3D

 31 35  0  0  0  0  0  0  0  0999 V2000
    3.5060   19.5200   36.7190 N   0  0  0  0  0  0  0  0  0  0  0  0
   -0.6120   19.3530   43.8450 C   0  0  0  0  0  0  0  0  0  0  0  0
    2.5240   20.3060   38.6280 C   0  0  0  0  0  0  0  0  0  0  0  0
    0.6980   18.4700   42.0560 C   0  0  0  0  0  0  0  0  0  0  0  0
    0.0240   17.9930   43.4250 C   0  0  0  0  0  0  0  0  0  0  0  0
    0.1350   21.0790   42.2440 C   0  0  0  0  0  0  0  0  0  0  0  0
    1.4950   15.6420   41.6940 C   0  0  0  0  0  0  0  0  0  0  0  0
    3.7690   18.1980   37.1690 C   0  0  0  0  0  0  0  0  0  0  0  0
    1.2310   19.0150   41.1940 C   0  0  0  0  0  0  0  0  0  0  0  0
    1.0020   20.5900   41.0340 C   0  0  0  0  0  0  0  0  0  0  0  0
   -0.0890   16.5960   43.8030 N   0  0  0  0  0  4  0  0  0  0  0  0
    1.7980   21.1710   39.8550 S   0  0  0  0  0  0  0  0  0  0  0  0
    2.8790   20.4890   37.4470 C   0  0  0  0  0  0  0  0  0  0  0  0
    2.0300   18.2520   40.5300 C   0  0  0  0  0  0  0  0  0  0  0  0
    3.1570   17.8090   38.5370 C   0  0  0  0  0  0  0  0  0  0  0  0
    2.1590   16.5810   40.6540 C   0  0  0  0  0  0  0  0  0  0  0  0
    0.7220   15.7870   42.9370 C   0  0  0  0  0  0  0  0  0  0  0  0
    3.0000   16.6320   39.1690 N   0  0  0  0  0  0  0  0  0  0  0  0
   -0.4660   20.5380   43.2100 N   0  0  0  0  0  0  0  0  0  0  0  0
    2.4880   18.8190   39.2750 C   0  0  0  0  0  0  0  0  0  0  0  0
   -1.6964   19.1689   43.8615 H   0  0  0  0  0  0  0  0  0  0  0  0
   -0.0236   19.5577   44.7516 H   0  0  0  0  0  0  0  0  0  0  0  0
    0.0224   22.1732   42.2521 H   0  0  0  0  0  0  0  0  0  0  0  0
    1.6412   14.5837   41.4320 H   0  0  0  0  0  0  0  0  0  0  0  0
    4.3724   17.4919   36.5796 H   0  0  0  0  0  0  0  0  0  0  0  0
    0.0863   20.3981   40.4555 H   0  0  0  0  0  0  0  0  0  0  0  0
    0.2286   16.4789   44.7758 H   0  0  0  0  0  0  0  0  0  0  0  0
   -1.0723   16.3010   43.7192 H   0  0  0  0  0  0  0  0  0  0  0  0
    2.6803   21.4633   36.9765 H   0  0  0  0  0  0  0  0  0  0  0  0
    0.0314   14.9413   42.8036 H   0  0  0  0  0  0  0  0  0  0  0  0
    1.6189   16.1958   43.4254 H   0  0  0  0  0  0  0  0  0  0  0  0
  1  8  2  0
  1 13  1  0
  3 20  1  0
  3 12  1  0
  4  5  2  0
  5 11  1  0
  5  2  1  0
  6 19  2  0
  7 17  1  0
  8 15  1  0
  9  4  2  0
 10  9  1  0
 10  6  1  0
 12 10  1  0
 13  3  2  0
 14 16  1  0
 14  9  1  0
 15 18  2  0
 15 20  1  0
 16  7  2  0
 17 11  1  0
 18 16  1  0
 19  2  1  0
 20 14  2  0
  2 21  1  0
  2 22  1  0
  6 23  1  0
  7 24  1  0
  8 25  1  0
 10 26  1  0
 11 27  1  0
 11 28  1  0
 13 29  1  0
 17 30  1  0
 17 31  1  0
M  CHG  1  11   1
M  END
>  <mol_id>  (45) 
2026-08-24-6tgu-s0-n100-seed1-0047

>  <rmsd_to_ref>  (45) 


$$$$

     RDKit          3D

 26 27  0  0  0  0  0  0  0  0999 V2000
    2.0470   16.3590   41.1040 N   0  0  0  0  0  0  0  0  0  0  0  0
    3.0050   21.5040   35.4710 N   0  0  0  0  0  0  0  0  0  0  0  0
    2.8440   20.1090   37.6510 C   0  0  0  0  0  0  0  0  0  0  0  0
    2.9500   20.9040   36.4890 C   0  0  0  0  0  0  0  0  0  0  0  0
   -0.2570   16.4760   43.9040 C   0  0  0  0  0  0  0  0  0  0  0  0
    3.4450   18.9430   37.5820 C   0  0  0  0  0  0  0  0  0  0  0  0
    2.0410   19.4900   39.7560 C   0  0  0  0  0  0  0  0  0  0  0  0
    2.3780   17.2520   40.4220 N   0  0  0  0  0  0  0  0  0  0  0  0
    1.0200   18.0260   42.1140 C   0  0  0  0  0  0  0  0  0  0  0  0
    3.2770   17.9730   38.5250 C   0  0  0  0  0  0  0  0  0  0  0  0
    0.1820   18.6280   43.1280 N   0  0  0  0  0  0  0  0  0  0  0  0
    2.1840   20.5060   38.8020 C   0  0  0  0  0  0  0  0  0  0  0  0
   -0.4250   17.8350   43.9130 C   0  0  0  0  0  0  0  0  0  0  0  0
    0.5380   15.9020   42.9520 C   0  0  0  0  0  0  0  0  0  0  0  0
    2.5350   18.2250   39.6760 C   0  0  0  0  0  0  0  0  0  0  0  0
    1.0970   16.7080   42.0240 C   0  0  0  0  0  0  0  0  0  0  0  0
    2.4323   15.4075   41.0194 H   0  0  0  0  0  0  0  0  0  0  0  0
   -0.7583   15.8508   44.6576 H   0  0  0  0  0  0  0  0  0  0  0  0
    4.1102   18.7413   36.7295 H   0  0  0  0  0  0  0  0  0  0  0  0
    1.4708   19.7409   40.6626 H   0  0  0  0  0  0  0  0  0  0  0  0
    3.3860   17.0912   40.5600 H   0  0  0  0  0  0  0  0  0  0  0  0
    1.5908   18.6612   41.4207 H   0  0  0  0  0  0  0  0  0  0  0  0
    3.7316   16.9826   38.3753 H   0  0  0  0  0  0  0  0  0  0  0  0
    1.8058   21.5278   38.9536 H   0  0  0  0  0  0  0  0  0  0  0  0
   -1.1267   18.2652   44.6428 H   0  0  0  0  0  0  0  0  0  0  0  0
    0.7170   14.8167   42.9420 H   0  0  0  0  0  0  0  0  0  0  0  0
  1 16  1  0
  2  4  3  0
  3 12  2  0
  4  3  1  0
  5 13  2  0
  6  3  1  0
  6 10  2  0
  8  1  1  0
  9 11  2  0
 10 15  1  0
 11 13  1  0
 12  7  1  0
 14  5  1  0
 15  7  2  0
 15  8  1  0
 16  9  1  0
 16 14  2  0
  1 17  1  0
  5 18  1  0
  6 19  1  0
  7 20  1  0
  8 21  1  0
  9 22  1  0
 10 23  1  0
 12 24  1  0
 13 25  1  0
 14 26  1  0
M  END
>  <mol_id>  (46) 
2026-08-24-6tgu-s0-n100-seed1-0048

>  <rmsd_to_ref>  (46) 


$$$$

     RDKit          3D

 60 62  0  0  0  0  0  0  0  0999 V2000
    3.3520   21.1770   35.9810 N   0  0  0  0  0  0  0  0  0  0  0  0
    0.7080   14.8530   42.9580 C   0  0  0  0  0  0  0  0  0  0  0  0
   -1.3660   17.4820   45.4670 C   0  0  0  0  0  0  0  0  0  0  0  0
    2.6560   18.3340   39.0130 C   0  0  0  0  0  0  0  0  0  0  0  0
    0.8980   19.3570   42.0250 C   0  0  0  0  0  0  0  0  0  0  0  0
    0.8930   20.6120   41.0580 C   0  0  0  0  0  0  0  0  0  0  0  0
   -0.1380   17.3900   43.2250 C   0  0  0  0  0  0  0  0  0  0  0  0
    3.0090   17.1180   38.9120 N   0  0  0  0  0  0  0  0  0  0  0  0
    0.0570   14.1290   44.2100 C   0  0  0  0  0  0  0  0  0  0  0  0
    3.5620   14.4280   38.4700 C   0  0  0  0  0  0  0  0  0  0  0  0
   -1.0520   16.9890   44.1220 O   0  0  0  0  0  0  0  0  0  0  0  0
    3.2960   21.2200   40.5780 F   0  0  0  0  0  0  0  0  0  0  0  0
    0.6610   20.9710   39.9440 F   0  0  0  0  0  0  0  0  0  0  0  0
    0.7670   16.3050   42.6340 C   0  0  0  0  0  0  0  0  0  0  0  0
    2.6140   21.3550   36.7030 C   0  0  0  0  0  0  0  0  0  0  0  0
    1.6450   18.1860   41.4070 C   0  0  0  0  0  0  0  0  0  0  0  0
    3.2350   19.9610   40.4810 C   0  0  0  0  0  0  0  0  0  0  0  0
    3.7280   15.4380   37.4060 N   0  0  0  0  0  0  0  0  0  0  0  0
    1.0550   20.5910   41.9000 O   0  0  0  0  0  0  0  0  0  0  0  0
   -0.0770   18.7400   42.9310 C   0  0  0  0  0  0  0  0  0  0  0  0
    3.9440   17.7370   36.9440 N   0  0  0  0  0  0  0  0  0  0  0  0
    1.6180   13.8950   42.2530 C   0  0  0  0  0  0  0  0  0  0  0  0
    2.3590   18.8710   40.2600 C   0  0  0  0  0  0  0  0  0  0  0  0
    2.2710   20.5680   37.7280 C   0  0  0  0  0  0  0  0  0  0  0  0
    4.6470   19.4990   40.7150 C   0  0  0  0  0  0  0  0  0  0  0  0
    2.8160   19.4100   37.9380 C   0  0  0  0  0  0  0  0  0  0  0  0
    1.5780   16.8490   41.6670 C   0  0  0  0  0  0  0  0  0  0  0  0
    3.6390   16.9140   37.7860 C   0  0  0  0  0  0  0  0  0  0  0  0
    5.1150   15.4270   36.9110 C   0  0  0  0  0  0  0  0  0  0  0  0
    3.5240   19.0370   36.9340 C   0  0  0  0  0  0  0  0  0  0  0  0
    3.7370   20.3750   35.9780 N   0  0  0  0  0  0  0  0  0  0  0  0
   -0.2077   15.3207   42.5673 H   0  0  0  0  0  0  0  0  0  0  0  0
   -0.9335   16.8030   46.2166 H   0  0  0  0  0  0  0  0  0  0  0  0
   -0.9425   18.4889   45.5966 H   0  0  0  0  0  0  0  0  0  0  0  0
   -2.4575   17.5239   45.5966 H   0  0  0  0  0  0  0  0  0  0  0  0
    1.8932   17.7348   38.4942 H   0  0  0  0  0  0  0  0  0  0  0  0
    1.7866   20.0334   40.7809 H   0  0  0  0  0  0  0  0  0  0  0  0
   -0.1285   20.9280   41.3161 H   0  0  0  0  0  0  0  0  0  0  0  0
    0.4539   14.5704   45.1361 H   0  0  0  0  0  0  0  0  0  0  0  0
   -1.0351   14.2578   44.1811 H   0  0  0  0  0  0  0  0  0  0  0  0
    0.3007   13.0567   44.1811 H   0  0  0  0  0  0  0  0  0  0  0  0
    3.6420   14.9147   39.4532 H   0  0  0  0  0  0  0  0  0  0  0  0
    2.5739   13.9541   38.3748 H   0  0  0  0  0  0  0  0  0  0  0  0
    4.3464   13.6627   38.3748 H   0  0  0  0  0  0  0  0  0  0  0  0
    2.0569   22.2986   36.6066 H   0  0  0  0  0  0  0  0  0  0  0  0
    3.4377   20.0343   39.4023 H   0  0  0  0  0  0  0  0  0  0  0  0
   -0.8140   19.3999   43.4120 H   0  0  0  0  0  0  0  0  0  0  0  0
    2.1770   13.3065   42.9954 H   0  0  0  0  0  0  0  0  0  0  0  0
    1.0215   13.2189   41.6229 H   0  0  0  0  0  0  0  0  0  0  0  0
    2.3239   14.4560   41.6229 H   0  0  0  0  0  0  0  0  0  0  0  0
    1.2794   19.0763   40.2120 H   0  0  0  0  0  0  0  0  0  0  0  0
    1.4933   20.9176   38.4229 H   0  0  0  0  0  0  0  0  0  0  0  0
    4.8379   19.4365   41.7965 H   0  0  0  0  0  0  0  0  0  0  0  0
    4.7886   18.5077   40.2598 H   0  0  0  0  0  0  0  0  0  0  0  0
    5.3472   20.2149   40.2598 H   0  0  0  0  0  0  0  0  0  0  0  0
    2.2061   16.1702   41.0714 H   0  0  0  0  0  0  0  0  0  0  0  0
    5.8089   15.4215   37.7645 H   0  0  0  0  0  0  0  0  0  0  0  0
    5.2789   14.5275   36.2994 H   0  0  0  0  0  0  0  0  0  0  0  0
    5.2932   16.3238   36.2994 H   0  0  0  0  0  0  0  0  0  0  0  0
    4.4484   20.2551   35.2429 H   0  0  0  0  0  0  0  0  0  0  0  0
  1 15  2  0
  2  9  1  0
  4 23  1  0
  5 20  2  0
  6 19  1  0
  7 11  1  0
  8  4  1  0
 11  3  1  0
 13  6  1  0
 14  2  1  0
 14  7  2  0
 15 24  1  0
 16 27  2  0
 16  5  1  0
 17 12  1  0
 17 25  1  0
 18 28  1  0
 18 10  1  0
 19  5  1  0
 20  7  1  0
 21 28  1  0
 22  2  1  0
 23 17  1  0
 23 16  1  0
 24 26  2  0
 26  4  1  0
 27 14  1  0
 28  8  2  0
 29 18  1  0
 30 21  2  0
 30 26  1  0
 31  1  1  0
 31 30  1  0
  2 32  1  0
  3 33  1  0
  3 34  1  0
  3 35  1  0
  4 36  1  0
  6 37  1  0
  6 38  1  0
  9 39  1  0
  9 40  1  0
  9 41  1  0
 10 42  1  0
 10 43  1  0
 10 44  1  0
 15 45  1  0
 17 46  1  0
 20 47  1  0
 22 48  1  0
 22 49  1  0
 22 50  1  0
 23 51  1  0
 24 52  1  0
 25 53  1  0
 25 54  1  0
 25 55  1  0
 27 56  1  0
 29 57  1  0
 29 58  1  0
 29 59  1  0
 31 60  1  0
M  END
>  <mol_id>  (47) 
2026-08-24-6tgu-s0-n100-seed1-0049

>  <rmsd_to_ref>  (47) 


$$$$

     RDKit          3D

 20 21  0  0  0  0  0  0  0  0999 V2000
    0.1570   16.8600   43.3330 N   0  0  0  0  0  0  0  0  0  0  0  0
    2.1060   18.7430   40.6600 C   0  0  0  0  0  0  0  0  0  0  0  0
    1.2000   16.9670   42.4680 N   0  0  0  0  0  0  0  0  0  0  0  0
    3.4040   19.4460   37.1880 O   0  0  0  0  0  1  0  0  0  0  0  0
   -0.5070   17.9820   43.2250 C   0  0  0  0  0  0  0  0  0  0  0  0
    2.5400   20.6100   39.0890 C   0  0  0  0  0  0  0  0  0  0  0  0
    0.1870   18.8400   42.2830 C   0  0  0  0  0  0  0  0  0  0  0  0
   -0.1150   20.1340   41.8000 C   0  0  0  0  0  0  0  0  0  0  0  0
    1.3310   18.1290   41.7580 C   0  0  0  0  0  0  0  0  0  0  0  0
    0.6830   20.7120   40.7660 C   0  0  0  0  0  0  0  0  0  0  0  0
    2.7590   20.3550   37.6460 C   0  0  0  0  0  0  0  0  0  0  0  0
    1.7020   19.9730   40.1900 C   0  0  0  0  0  0  0  0  0  0  0  0
    2.3070   21.2200   36.8340 O   0  0  0  0  0  0  0  0  0  0  0  0
    2.9805   18.2324   40.2303 H   0  0  0  0  0  0  0  0  0  0  0  0
   -1.4356   18.2328   43.7587 H   0  0  0  0  0  0  0  0  0  0  0  0
    2.1961   21.6548   39.0991 H   0  0  0  0  0  0  0  0  0  0  0  0
    3.4807   20.1370   39.4074 H   0  0  0  0  0  0  0  0  0  0  0  0
   -0.9631   20.6947   42.2199 H   0  0  0  0  0  0  0  0  0  0  0  0
    1.9787   18.6277   42.4940 H   0  0  0  0  0  0  0  0  0  0  0  0
    0.4885   21.7407   40.4286 H   0  0  0  0  0  0  0  0  0  0  0  0
  3  1  2  0
  4 11  1  0
  5  1  1  0
  6 12  1  0
  7  5  2  0
  8  7  1  0
  9  2  1  0
  9  7  1  0
  9  3  1  0
 10  8  2  0
 11  6  1  0
 12  2  2  0
 12 10  1  0
 13 11  2  0
  2 14  1  0
  5 15  1  0
  6 16  1  0
  6 17  1  0
  8 18  1  0
  9 19  1  0
 10 20  1  0
M  CHG  1   4  -1
M  END
>  <mol_id>  (48) 
2026-08-24-6tgu-s0-n100-seed1-0050

>  <rmsd_to_ref>  (48) 


$$$$

     RDKit          3D

 44 46  0  0  0  0  0  0  0  0999 V2000
    3.1820   19.7790   37.2650 C   0  0  0  0  0  0  0  0  0  0  0  0
   -0.5300   14.0560   44.6840 C   0  0  0  0  0  0  0  0  0  0  0  0
   -0.4140   20.4970   42.4000 N   0  0  0  0  0  0  0  0  0  0  0  0
   -1.0500   13.3030   45.6110 N   0  0  0  0  0  0  0  0  0  0  0  0
    3.6950   16.2670   37.4570 N   0  0  0  0  0  0  0  0  0  0  0  0
    0.9630   16.3770   42.5850 C   0  0  0  0  0  0  0  0  0  0  0  0
    1.4960   19.4940   40.4520 C   0  0  0  0  0  0  0  0  0  0  0  0
    2.5870   20.1040   38.3780 C   0  0  0  0  0  0  0  0  0  0  0  0
    3.6110   18.5210   36.9110 N   0  0  0  0  0  0  0  0  0  0  0  0
   -0.4720   18.5040   43.4050 C   0  0  0  0  0  0  0  0  0  0  0  0
   -0.9760   17.3010   43.8500 C   0  0  0  0  0  0  0  0  0  0  0  0
    1.3640   17.2090   41.6690 C   0  0  0  0  0  0  0  0  0  0  0  0
   -0.2130   16.0550   43.5230 C   0  0  0  0  0  0  0  0  0  0  0  0
   -0.3830   13.3460   43.5220 O   0  0  0  0  0  0  0  0  0  0  0  0
    1.0310   18.6980   41.4370 C   0  0  0  0  0  0  0  0  0  0  0  0
    0.1100   19.2010   42.4060 C   0  0  0  0  0  0  0  0  0  0  0  0
    3.4560   20.6120   36.3770 C   0  0  0  0  0  0  0  0  0  0  0  0
    3.4420   17.5960   37.7660 C   0  0  0  0  0  0  0  0  0  0  0  0
    4.0010   20.9760   35.4480 N   0  0  0  0  0  0  0  0  0  0  0  0
   -0.0880   15.2170   44.7040 N   0  0  0  0  0  0  0  0  0  0  0  0
    2.8640   17.8370   39.0790 C   0  0  0  0  0  0  0  0  0  0  0  0
    0.1820   21.0810   41.5780 C   0  0  0  0  0  0  0  0  0  0  0  0
    1.0210   20.7370   40.6710 C   0  0  0  0  0  0  0  0  0  0  0  0
    2.3260   19.1040   39.2830 C   0  0  0  0  0  0  0  0  0  0  0  0
   -1.3614   12.3478   45.3841 H   0  0  0  0  0  0  0  0  0  0  0  0
   -1.1498   13.6628   46.5709 H   0  0  0  0  0  0  0  0  0  0  0  0
    3.5499   15.5363   38.1683 H   0  0  0  0  0  0  0  0  0  0  0  0
    4.0278   16.0113   36.5164 H   0  0  0  0  0  0  0  0  0  0  0  0
    1.7821   16.4693   43.3134 H   0  0  0  0  0  0  0  0  0  0  0  0
    0.5753   15.6860   41.8220 H   0  0  0  0  0  0  0  0  0  0  0  0
    2.3028   21.1461   38.5862 H   0  0  0  0  0  0  0  0  0  0  0  0
   -1.3575   19.1361   43.5672 H   0  0  0  0  0  0  0  0  0  0  0  0
    0.5240   18.2105   43.7681 H   0  0  0  0  0  0  0  0  0  0  0  0
   -1.0484   17.3620   44.9459 H   0  0  0  0  0  0  0  0  0  0  0  0
   -1.9298   17.1877   43.3139 H   0  0  0  0  0  0  0  0  0  0  0  0
    2.4599   17.1959   41.7631 H   0  0  0  0  0  0  0  0  0  0  0  0
    0.7560   16.8056   40.8458 H   0  0  0  0  0  0  0  0  0  0  0  0
   -0.7381   15.3386   42.8741 H   0  0  0  0  0  0  0  0  0  0  0  0
    2.8158   21.4678   36.6372 H   0  0  0  0  0  0  0  0  0  0  0  0
    3.8132   21.9182   35.0767 H   0  0  0  0  0  0  0  0  0  0  0  0
    0.3648   15.5838   45.5533 H   0  0  0  0  0  0  0  0  0  0  0  0
    2.8529   17.0650   39.8625 H   0  0  0  0  0  0  0  0  0  0  0  0
   -0.0228   22.1617   41.5856 H   0  0  0  0  0  0  0  0  0  0  0  0
    1.3889   21.5333   40.0072 H   0  0  0  0  0  0  0  0  0  0  0  0
  1  8  2  0
  2 20  1  0
  2  4  1  0
  3 16  2  0
  5 18  1  0
  6 13  1  0
  7 23  1  0
  7 15  2  0
  8 24  1  0
  9  1  1  0
  9 18  2  0
 10 11  1  0
 12  6  1  0
 13 11  1  0
 13 20  1  0
 14  2  2  0
 15 12  1  0
 15 16  1  0
 16 10  1  0
 17  1  1  0
 18 21  1  0
 19 17  2  3
 21 24  2  0
 22  3  1  0
 23 22  2  0
 24  7  1  0
  4 25  1  0
  4 26  1  0
  5 27  1  0
  5 28  1  0
  6 29  1  0
  6 30  1  0
  8 31  1  0
 10 32  1  0
 10 33  1  0
 11 34  1  0
 11 35  1  0
 12 36  1  0
 12 37  1  0
 13 38  1  0
 17 39  1  0
 19 40  1  0
 20 41  1  0
 21 42  1  0
 22 43  1  0
 23 44  1  0
M  END
>  <mol_id>  (49) 
2026-08-24-6tgu-s0-n100-seed1-0051

>  <rmsd_to_ref>  (49) 


$$$$

     RDKit          3D

 34 35  0  0  0  0  0  0  0  0999 V2000
    0.2530   17.4270   42.9610 C   0  0  0  0  0  0  0  0  0  0  0  0
    2.1370   18.0730   40.6740 N   0  0  0  0  0  0  0  0  0  0  0  0
   -1.5550   18.2240   44.2060 C   0  0  0  0  0  0  0  0  0  0  0  0
   -1.5590   19.4490   43.5090 C   0  0  0  0  0  0  0  0  0  0  0  0
   -0.5820   19.6690   42.5300 C   0  0  0  0  0  0  0  0  0  0  0  0
    1.3260   18.8770   41.1800 C   0  0  0  0  0  0  0  0  0  0  0  0
    1.3360   16.1710   42.6530 Cl  0  0  0  0  0  0  0  0  0  0  0  0
    2.8320   20.4430   38.1820 C   0  0  0  0  0  0  0  0  0  0  0  0
    2.9310   19.0610   38.7010 C   0  0  0  0  0  0  0  0  0  0  0  0
    3.4580   18.3880   37.6510 C   0  0  0  0  0  0  0  0  0  0  0  0
   -0.6800   17.2240   43.9160 C   0  0  0  0  0  0  0  0  0  0  0  0
    3.2700   20.3580   36.8970 C   0  0  0  0  0  0  0  0  0  0  0  0
    3.2030   21.3810   35.9950 O   0  0  0  0  0  0  0  0  0  0  0  0
    2.9120   18.4330   39.8430 C   0  0  0  0  0  0  0  0  0  0  0  0
    3.6810   19.1630   36.5670 N   0  0  0  0  0  0  0  0  0  0  0  0
    2.6960   19.2880   40.0320 C   0  0  0  0  0  0  0  0  0  0  0  0
    1.7480   20.0110   40.7450 N   0  0  0  0  0  0  0  0  0  0  0  0
    0.3090   18.7000   42.2090 C   0  0  0  0  0  0  0  0  0  0  0  0
   -2.2860   18.0712   45.0137 H   0  0  0  0  0  0  0  0  0  0  0  0
   -2.3147   20.2172   43.7296 H   0  0  0  0  0  0  0  0  0  0  0  0
   -0.5374   20.6402   42.0154 H   0  0  0  0  0  0  0  0  0  0  0  0
    3.6757   20.2793   38.8685 H   0  0  0  0  0  0  0  0  0  0  0  0
    2.4042   21.4409   38.3583 H   0  0  0  0  0  0  0  0  0  0  0  0
    2.0619   19.6775   38.3583 H   0  0  0  0  0  0  0  0  0  0  0  0
    3.5168   19.9822   38.8357 H   0  0  0  0  0  0  0  0  0  0  0  0
    1.8749   19.2256   38.4413 H   0  0  0  0  0  0  0  0  0  0  0  0
    4.4154   17.9473   37.9659 H   0  0  0  0  0  0  0  0  0  0  0  0
    2.7225   17.6253   37.3556 H   0  0  0  0  0  0  0  0  0  0  0  0
   -0.7315   16.2644   44.4512 H   0  0  0  0  0  0  0  0  0  0  0  0
    3.5862   17.5641   39.8194 H   0  0  0  0  0  0  0  0  0  0  0  0
    4.0900   18.8720   35.6676 H   0  0  0  0  0  0  0  0  0  0  0  0
    3.6316   19.6556   40.4786 H   0  0  0  0  0  0  0  0  0  0  0  0
    2.1516   19.4127   39.0843 H   0  0  0  0  0  0  0  0  0  0  0  0
    1.4976   21.0024   40.8687 H   0  0  0  0  0  0  0  0  0  0  0  0
  1 11  2  0
  2  6  2  0
  4  3  2  0
  5  4  1  0
  6 18  1  0
  7  1  1  0
 10  9  1  0
 11  3  1  0
 12  8  1  0
 13 12  2  0
 14  9  1  0
 14 16  1  0
 14  2  1  0
 15 12  1  0
 15 10  1  0
 16 17  1  0
 17  6  1  0
 18  5  2  0
 18  1  1  0
  3 19  1  0
  4 20  1  0
  5 21  1  0
  8 22  1  0
  8 23  1  0
  8 24  1  0
  9 25  1  0
  9 26  1  0
 10 27  1  0
 10 28  1  0
 11 29  1  0
 14 30  1  0
 15 31  1  0
 16 32  1  0
 16 33  1  0
 17 34  1  0
M  END
>  <mol_id>  (50) 
2026-08-24-6tgu-s0-n100-seed1-0052

>  <rmsd_to_ref>  (50) 


$$$$

     RDKit          3D

 24 25  0  0  0  0  0  0  0  0999 V2000
    3.4980   18.5010   37.8480 C   0  0  0  0  0  0  0  0  0  0  0  0
    0.7690   20.1330   41.4250 C   0  0  0  0  0  0  0  0  0  0  0  0
    3.0920   18.1120   39.1090 C   0  0  0  0  0  0  0  0  0  0  0  0
   -0.1970   18.1430   43.6830 C   0  0  0  0  0  0  0  0  0  0  0  0
    3.1230   20.4780   36.6770 O   0  0  0  0  0  0  0  0  0  0  0  0
    2.8650   19.8290   37.6000 C   0  0  0  0  0  0  0  0  0  0  0  0
   -0.1280   20.2450   42.4440 C   0  0  0  0  0  0  0  0  0  0  0  0
    2.0870   20.0180   38.7060 O   0  0  0  0  0  0  0  0  0  0  0  0
    2.2640   19.0980   39.7040 C   0  0  0  0  0  0  0  0  0  0  0  0
   -0.5000   19.4570   43.4090 C   0  0  0  0  0  0  0  0  0  0  0  0
    0.5950   17.4450   42.8170 C   0  0  0  0  0  0  0  0  0  0  0  0
    1.2540   17.8350   41.6280 C   0  0  0  0  0  0  0  0  0  0  0  0
    4.1510   17.9160   36.9280 O   0  0  0  0  0  0  0  0  0  0  0  0
    1.4200   18.9530   40.9370 C   0  0  0  0  0  0  0  0  0  0  0  0
   -0.7730   17.6870   44.8710 C   0  0  0  0  0  0  0  0  0  0  0  0
    1.1120   21.3060   40.8180 O   0  0  0  0  0  0  0  0  0  0  0  0
   -1.2210   17.4520   45.8950 N   0  0  0  0  0  0  0  0  0  0  0  0
    3.3734   17.1630   39.5887 H   0  0  0  0  0  0  0  0  0  0  0  0
    0.2113   21.1461   42.9758 H   0  0  0  0  0  0  0  0  0  0  0  0
   -1.0176   20.0739   41.8200 H   0  0  0  0  0  0  0  0  0  0  0  0
   -1.1789   19.9248   44.1372 H   0  0  0  0  0  0  0  0  0  0  0  0
    0.7477   16.3913   43.0935 H   0  0  0  0  0  0  0  0  0  0  0  0
    1.7636   16.9851   41.1506 H   0  0  0  0  0  0  0  0  0  0  0  0
    1.7590   21.3049   40.0687 H   0  0  0  0  0  0  0  0  0  0  0  0
  1  3  1  0
  2  7  1  0
  3  9  2  0
  4 15  1  0
  5  6  2  0
  6  1  1  0
  6  8  1  0
  7 10  1  0
  8  9  1  0
  9 14  1  0
 10  4  2  0
 11  4  1  0
 12 11  2  0
 13  1  2  0
 14  2  2  0
 14 12  1  0
 15 17  3  0
 16  2  1  0
  3 18  1  0
  7 19  1  0
  7 20  1  0
 10 21  1  0
 11 22  1  0
 12 23  1  0
 16 24  1  0
M  END
>  <mol_id>  (51) 
2026-08-24-6tgu-s0-n100-seed1-0053

>  <rmsd_to_ref>  (51) 


$$$$

     RDKit          3D

 41 44  0  0  0  0  0  0  0  0999 V2000
    4.6250   14.3260   36.9120 C   0  0  0  0  0  0  0  0  0  0  0  0
    2.3110   19.2090   39.2530 C   0  0  0  0  0  0  0  0  0  0  0  0
   -0.1670   20.1620   42.7910 C   0  0  0  0  0  0  0  0  0  0  0  0
    1.0920   20.6790   40.8140 C   0  0  0  0  0  0  0  0  0  0  0  0
   -1.9810   17.7790   45.1710 N   0  0  0  0  0  4  0  0  0  0  0  0
    3.5710   18.0230   37.2180 C   0  0  0  0  0  0  0  0  0  0  0  0
    1.3420   16.7920   41.8110 S   0  0  0  0  0  0  0  0  0  0  0  0
    1.6130   21.6260   39.8910 O   0  0  0  0  0  0  0  0  0  0  0  0
    0.2630   21.0680   41.8410 C   0  0  0  0  0  0  0  0  0  0  0  0
    3.2030   15.6800   38.7140 C   0  0  0  0  0  0  0  0  0  0  0  0
    2.9420   18.1030   38.5900 C   0  0  0  0  0  0  0  0  0  0  0  0
    5.6120   13.5590   37.7530 C   0  0  0  0  0  0  0  0  0  0  0  0
   -0.5730   18.1630   45.0830 C   0  0  0  0  0  0  0  0  0  0  0  0
   -1.0200   20.5090   43.7200 O   0  0  0  0  0  0  0  0  0  0  0  0
    0.5050   16.5970   43.2970 C   0  0  0  0  0  0  0  0  0  0  0  0
   -0.0090   17.8210   43.6700 C   0  0  0  0  0  0  0  0  0  0  0  0
    2.8280   14.6620   39.2960 O   0  0  0  0  0  0  0  0  0  0  0  0
    4.3080   12.9160   37.4100 C   0  0  0  0  0  0  0  0  0  0  0  0
    3.9970   15.5950   37.5480 C   0  0  0  0  0  0  0  0  0  0  0  0
    3.7180   19.0320   36.4890 O   0  0  0  0  0  0  0  0  0  0  0  0
    2.7700   16.8760   39.1890 N   0  0  0  0  0  0  0  0  0  0  0  0
    1.0940   18.3870   41.6320 C   0  0  0  0  0  0  0  0  0  0  0  0
    4.1400   16.8330   36.8630 N   0  0  0  0  0  0  0  0  0  0  0  0
    1.5020   19.3220   40.5140 C   0  0  0  0  0  0  0  0  0  0  0  0
    0.2970   18.8370   42.7620 C   0  0  0  0  0  0  0  0  0  0  0  0
    4.5919   14.7974   35.9187 H   0  0  0  0  0  0  0  0  0  0  0  0
    1.6382   19.6151   38.4833 H   0  0  0  0  0  0  0  0  0  0  0  0
    3.2354   19.6331   39.6722 H   0  0  0  0  0  0  0  0  0  0  0  0
   -2.2552   17.7042   46.1610 H   0  0  0  0  0  0  0  0  0  0  0  0
   -2.5611   18.4925   44.7070 H   0  0  0  0  0  0  0  0  0  0  0  0
   -2.1186   16.8698   44.7070 H   0  0  0  0  0  0  0  0  0  0  0  0
    2.2081   21.3274   39.1583 H   0  0  0  0  0  0  0  0  0  0  0  0
   -0.0624   22.1167   41.9066 H   0  0  0  0  0  0  0  0  0  0  0  0
    6.5418   13.1849   37.2996 H   0  0  0  0  0  0  0  0  0  0  0  0
    6.1465   13.7636   38.6924 H   0  0  0  0  0  0  0  0  0  0  0  0
   -0.4797   19.2447   45.2595 H   0  0  0  0  0  0  0  0  0  0  0  0
   -0.0015   17.6081   45.8416 H   0  0  0  0  0  0  0  0  0  0  0  0
   -1.3166   19.8457   44.3924 H   0  0  0  0  0  0  0  0  0  0  0  0
    0.3971   15.6560   43.8564 H   0  0  0  0  0  0  0  0  0  0  0  0
    3.5464   12.7656   38.1893 H   0  0  0  0  0  0  0  0  0  0  0  0
    4.0066   11.9711   36.9342 H   0  0  0  0  0  0  0  0  0  0  0  0
  1 18  1  0
  1 19  1  0
  1 12  1  0
  2 24  1  0
  3 14  1  0
  4  9  1  0
  6 11  1  0
  7 15  1  0
  8  4  1  0
  9  3  2  0
 10 21  1  0
 10 17  2  0
 11 21  2  0
 11  2  1  0
 13  5  1  0
 15 16  2  0
 16 13  1  0
 18 12  1  0
 19 10  1  0
 20  6  2  0
 22  7  1  0
 22 25  2  0
 23  6  1  0
 23 19  2  0
 24  4  2  0
 24 22  1  0
 25  3  1  0
 25 16  1  0
  1 26  1  0
  2 27  1  0
  2 28  1  0
  5 29  1  0
  5 30  1  0
  5 31  1  0
  8 32  1  0
  9 33  1  0
 12 34  1  0
 12 35  1  0
 13 36  1  0
 13 37  1  0
 14 38  1  0
 15 39  1  0
 18 40  1  0
 18 41  1  0
M  CHG  1   5   1
M  END
>  <mol_id>  (52) 
2026-08-24-6tgu-s0-n100-seed1-0054

>  <rmsd_to_ref>  (52) 


$$$$

     RDKit          3D

 51 53  0  0  0  0  0  0  0  0999 V2000
   -1.1980   18.8170   44.0040 C   0  0  0  0  0  0  0  0  0  0  0  0
    1.6000   16.2370   41.4560 O   0  0  0  0  0  0  0  0  0  0  0  0
    0.3590   21.1330   41.7000 C   0  0  0  0  0  0  0  0  0  0  0  0
    2.2880   18.2420   40.3180 N   0  0  0  0  0  0  0  0  0  0  0  0
   -0.2810   20.5870   42.7480 C   0  0  0  0  0  0  0  0  0  0  0  0
    1.1210   20.3440   40.7890 C   0  0  0  0  0  0  0  0  0  0  0  0
    2.7240   18.6950   39.1200 C   0  0  0  0  0  0  0  0  0  0  0  0
    2.7610   20.4120   37.3700 C   0  0  0  0  0  0  0  0  0  0  0  0
   -0.5020   15.5410   44.1120 C   0  0  0  0  0  0  0  0  0  0  0  0
    0.5980   16.8080   42.2820 C   0  0  0  0  0  0  0  0  0  0  0  0
    3.9170   18.2800   37.0850 C   0  0  0  0  0  0  0  0  0  0  0  0
   -0.4570   18.5430   45.2190 N   0  0  0  0  0  4  0  0  0  0  0  0
   -0.8160   17.0650   47.3610 C   0  0  0  0  0  0  0  0  0  0  0  0
    2.1250   14.9900   41.8000 C   0  0  0  0  0  0  0  0  0  0  0  0
    2.4110   21.5860   36.8910 N   0  0  0  0  0  0  0  0  0  0  0  0
    3.9620   21.7050   34.9670 N   0  0  0  0  0  4  0  0  0  0  0  0
    0.5860   18.3700   42.2160 C   0  0  0  0  0  0  0  0  0  0  0  0
   -0.6110   17.8000   46.3370 C   0  0  0  0  0  0  0  0  0  0  0  0
   -0.2970   19.2140   43.0190 N   0  0  0  0  0  0  0  0  0  0  0  0
    2.3850   20.0260   38.7030 C   0  0  0  0  0  0  0  0  0  0  0  0
    3.4990   17.9350   38.3610 C   0  0  0  0  0  0  0  0  0  0  0  0
    1.5610   20.8620   39.5600 C   0  0  0  0  0  0  0  0  0  0  0  0
    1.4420   18.9680   41.1070 C   0  0  0  0  0  0  0  0  0  0  0  0
    2.6040   21.9240   35.4710 C   0  0  0  0  0  0  0  0  0  0  0  0
    3.5030   19.4920   36.5840 C   0  0  0  0  0  0  0  0  0  0  0  0
    0.6120   16.2780   43.6160 O   0  0  0  0  0  0  0  0  0  0  0  0
   -1.7273   17.9091   43.6791 H   0  0  0  0  0  0  0  0  0  0  0  0
   -1.9364   19.6124   44.1832 H   0  0  0  0  0  0  0  0  0  0  0  0
    0.2931   22.2194   41.5405 H   0  0  0  0  0  0  0  0  0  0  0  0
    0.1472   21.0638   43.6420 H   0  0  0  0  0  0  0  0  0  0  0  0
   -1.3309   20.7606   42.4695 H   0  0  0  0  0  0  0  0  0  0  0  0
   -0.4876   15.5505   45.2119 H   0  0  0  0  0  0  0  0  0  0  0  0
   -1.4348   16.0008   43.7535 H   0  0  0  0  0  0  0  0  0  0  0  0
   -0.4437   14.5027   43.7535 H   0  0  0  0  0  0  0  0  0  0  0  0
   -0.3712   16.4970   41.8650 H   0  0  0  0  0  0  0  0  0  0  0  0
    4.5571   17.6082   36.4943 H   0  0  0  0  0  0  0  0  0  0  0  0
    0.4384   18.1924   44.8499 H   0  0  0  0  0  0  0  0  0  0  0  0
   -0.7602   19.4140   45.6777 H   0  0  0  0  0  0  0  0  0  0  0  0
   -0.9926   16.4319   48.2430 H   0  0  0  0  0  0  0  0  0  0  0  0
    2.1637   14.8980   42.8955 H   0  0  0  0  0  0  0  0  0  0  0  0
    1.4847   14.1962   41.3878 H   0  0  0  0  0  0  0  0  0  0  0  0
    3.1402   14.8932   41.3878 H   0  0  0  0  0  0  0  0  0  0  0  0
    1.9930   22.2838   37.5228 H   0  0  0  0  0  0  0  0  0  0  0  0
    4.6101   21.6005   35.7607 H   0  0  0  0  0  0  0  0  0  0  0  0
    3.9815   20.8500   34.3930 H   0  0  0  0  0  0  0  0  0  0  0  0
    4.2492   22.5105   34.3930 H   0  0  0  0  0  0  0  0  0  0  0  0
    3.8320   16.9692   38.7688 H   0  0  0  0  0  0  0  0  0  0  0  0
    1.2870   21.8817   39.2517 H   0  0  0  0  0  0  0  0  0  0  0  0
    2.3558   22.9870   35.3354 H   0  0  0  0  0  0  0  0  0  0  0  0
    1.9490   21.2494   34.9001 H   0  0  0  0  0  0  0  0  0  0  0  0
    3.7537   19.7556   35.5459 H   0  0  0  0  0  0  0  0  0  0  0  0
  1 12  1  0
  2 14  1  0
  2 10  1  0
  3  5  1  0
  4 23  1  0
  5 19  1  0
  6 23  1  0
  6  3  2  0
  7  4  2  0
  8 20  1  0
 10 26  1  0
 11 21  2  0
 12 18  1  0
 15  8  1  0
 16 24  1  0
 17 10  1  0
 17 19  1  0
 18 13  3  0
 19  1  1  0
 20  7  1  0
 20 22  2  0
 21  7  1  0
 22  6  1  0
 23 17  2  0
 24 15  1  0
 25 11  1  0
 25  8  2  0
 26  9  1  0
  1 27  1  0
  1 28  1  0
  3 29  1  0
  5 30  1  0
  5 31  1  0
  9 32  1  0
  9 33  1  0
  9 34  1  0
 10 35  1  0
 11 36  1  0
 12 37  1  0
 12 38  1  0
 13 39  1  0
 14 40  1  0
 14 41  1  0
 14 42  1  0
 15 43  1  0
 16 44  1  0
 16 45  1  0
 16 46  1  0
 21 47  1  0
 22 48  1  0
 24 49  1  0
 24 50  1  0
 25 51  1  0
M  CHG  2  12   1  16   1
M  END
>  <mol_id>  (53) 
2026-08-24-6tgu-s0-n100-seed1-0055

>  <rmsd_to_ref>  (53) 


$$$$

     RDKit          3D

 41 43  0  0  0  0  0  0  0  0999 V2000
    1.4290   21.0570   39.9350 C   0  0  0  0  0  0  0  0  0  0  0  0
    0.6230   18.8910   40.9860 O   0  0  0  0  0  0  0  0  0  0  0  0
    2.2640   13.9730   41.4790 C   0  0  0  0  0  0  0  0  0  0  0  0
    1.4060   14.8010   42.2400 C   0  0  0  0  0  0  0  0  0  0  0  0
    0.1860   20.8500   42.1970 C   0  0  0  0  0  0  0  0  0  0  0  0
    1.9260   16.7310   41.3880 O   0  0  0  0  0  0  0  0  0  0  0  0
    2.2070   20.0700   39.0980 C   0  0  0  0  0  0  0  0  0  0  0  0
    3.3410   20.1330   36.7870 C   0  0  0  0  0  0  0  0  0  0  0  0
    0.7540   14.3200   43.3190 C   0  0  0  0  0  0  0  0  0  0  0  0
    3.7680   18.8550   36.6770 N   0  0  0  0  0  0  0  0  0  0  0  0
    3.6140   17.9160   37.5700 C   0  0  0  0  0  0  0  0  0  0  0  0
   -0.9880   16.2130   45.8990 C   0  0  0  0  0  0  0  0  0  0  0  0
    3.5100   20.9630   35.8510 O   0  0  0  0  0  0  0  0  0  0  0  0
    2.3400   18.7550   39.4550 N   0  0  0  0  0  0  0  0  0  0  0  0
   -0.2140   16.4560   43.7320 C   0  0  0  0  0  0  0  0  0  0  0  0
    0.3690   17.0440   42.6500 C   0  0  0  0  0  0  0  0  0  0  0  0
   -0.0950   15.1690   44.0570 C   0  0  0  0  0  0  0  0  0  0  0  0
    1.3020   16.1990   42.0250 C   0  0  0  0  0  0  0  0  0  0  0  0
   -0.2120   19.6680   42.8510 N   0  0  0  0  0  0  0  0  0  0  0  0
    2.6190   20.6020   37.8970 C   0  0  0  0  0  0  0  0  0  0  0  0
    3.0560   13.1940   40.9030 N   0  0  0  0  0  0  0  0  0  0  0  0
   -1.0320   17.3170   44.5280 O   0  0  0  0  0  0  0  0  0  0  0  0
    0.1440   18.4590   42.1920 C   0  0  0  0  0  0  0  0  0  0  0  0
    3.0700   17.9670   38.7260 C   0  0  0  0  0  0  0  0  0  0  0  0
    1.1050   20.2250   41.1790 C   0  0  0  0  0  0  0  0  0  0  0  0
    2.0397   21.9360   40.1888 H   0  0  0  0  0  0  0  0  0  0  0  0
    0.5422   21.4679   39.4302 H   0  0  0  0  0  0  0  0  0  0  0  0
   -0.6610   21.3728   41.7287 H   0  0  0  0  0  0  0  0  0  0  0  0
    0.6292   21.6294   42.8343 H   0  0  0  0  0  0  0  0  0  0  0  0
    0.8845   13.2704   43.6211 H   0  0  0  0  0  0  0  0  0  0  0  0
    4.2599   18.5991   35.8090 H   0  0  0  0  0  0  0  0  0  0  0  0
    4.0127   16.9312   37.2850 H   0  0  0  0  0  0  0  0  0  0  0  0
   -1.0110   16.7900   46.8353 H   0  0  0  0  0  0  0  0  0  0  0  0
   -1.8602   15.5439   45.8591 H   0  0  0  0  0  0  0  0  0  0  0  0
   -0.0653   15.6154   45.8591 H   0  0  0  0  0  0  0  0  0  0  0  0
    1.2031   17.3814   43.2828 H   0  0  0  0  0  0  0  0  0  0  0  0
   -0.6639   14.7662   44.9080 H   0  0  0  0  0  0  0  0  0  0  0  0
    3.2042   21.4789   38.2110 H   0  0  0  0  0  0  0  0  0  0  0  0
    1.6363   20.5008   37.4131 H   0  0  0  0  0  0  0  0  0  0  0  0
    3.2925   17.0449   39.2830 H   0  0  0  0  0  0  0  0  0  0  0  0
    2.1361   20.1883   41.5603 H   0  0  0  0  0  0  0  0  0  0  0  0
  2 25  1  0
  2 23  1  0
  3  4  1  0
  4  9  2  0
  5 19  1  0
  6 18  2  0
  7 14  2  0
  7  1  1  0
  8 20  1  0
  9 17  1  0
 10  8  1  0
 10 11  1  0
 11 24  2  0
 13  8  2  0
 15 17  2  0
 15 22  1  0
 16 23  1  0
 16 15  1  0
 18  4  1  0
 18 16  1  0
 20  7  1  0
 21  3  3  0
 22 12  1  0
 23 19  2  0
 24 14  1  0
 25  1  1  0
 25  5  1  0
  1 26  1  0
  1 27  1  0
  5 28  1  0
  5 29  1  0
  9 30  1  0
 10 31  1  0
 11 32  1  0
 12 33  1  0
 12 34  1  0
 12 35  1  0
 16 36  1  0
 17 37  1  0
 20 38  1  0
 20 39  1  0
 24 40  1  0
 25 41  1  0
M  END
>  <mol_id>  (54) 
2026-08-24-6tgu-s0-n100-seed1-0056

>  <rmsd_to_ref>  (54) 


$$$$

     RDKit          3D

 21 21  0  0  0  0  0  0  0  0999 V2000
    3.4810   20.1570   36.6970 C   0  0  0  0  0  0  0  0  0  0  0  0
    3.1090   17.5140   39.4950 C   0  0  0  0  0  0  0  0  0  0  0  0
    0.7380   21.3400   41.7300 C   0  0  0  0  0  0  0  0  0  0  0  0
    3.0910   19.8190   37.8090 C   0  0  0  0  0  0  0  0  0  0  0  0
    2.0650   20.7790   39.5610 N   0  0  0  0  0  0  0  0  0  0  0  0
    2.5300   19.6430   39.0580 C   0  0  0  0  0  0  0  0  0  0  0  0
    1.4240   20.3970   40.8290 C   0  0  0  0  0  0  0  0  0  0  0  0
    1.4950   19.0360   40.9530 C   0  0  0  0  0  0  0  0  0  0  0  0
   -0.2940   20.6540   42.4600 N   0  0  0  0  0  4  0  0  0  0  0  0
    2.3130   18.5100   39.9380 C   0  0  0  0  0  0  0  0  0  0  0  0
    3.8309   20.4603   35.6992 H   0  0  0  0  0  0  0  0  0  0  0  0
    3.5377   16.9775   40.3543 H   0  0  0  0  0  0  0  0  0  0  0  0
    2.5174   16.8157   38.8848 H   0  0  0  0  0  0  0  0  0  0  0  0
    3.9206   17.9371   38.8848 H   0  0  0  0  0  0  0  0  0  0  0  0
    0.2887   22.1502   41.1370 H   0  0  0  0  0  0  0  0  0  0  0  0
    1.4666   21.7595   42.4393 H   0  0  0  0  0  0  0  0  0  0  0  0
    0.4583   20.2995   40.3114 H   0  0  0  0  0  0  0  0  0  0  0  0
    0.9887   18.4435   41.7293 H   0  0  0  0  0  0  0  0  0  0  0  0
   -0.1299   20.7631   43.4710 H   0  0  0  0  0  0  0  0  0  0  0  0
   -1.2112   21.0542   42.2159 H   0  0  0  0  0  0  0  0  0  0  0  0
   -0.2800   19.6534   42.2159 H   0  0  0  0  0  0  0  0  0  0  0  0
  1  4  3  0
  2 10  1  0
  3  9  1  0
  4  6  1  0
  5  7  1  0
  6  5  2  0
  6 10  1  0
  7  8  1  0
  7  3  1  0
 10  8  2  0
  1 11  1  0
  2 12  1  0
  2 13  1  0
  2 14  1  0
  3 15  1  0
  3 16  1  0
  7 17  1  0
  8 18  1  0
  9 19  1  0
  9 20  1  0
  9 21  1  0
M  CHG  1   9   1
M  END
>  <mol_id>  (55) 
2026-08-24-6tgu-s0-n100-seed1-0057

>  <rmsd_to_ref>  (55) 


$$$$

     RDKit          3D

 49 50  0  0  0  0  0  0  0  0999 V2000
    3.5780   19.1880   38.3630 C   0  0  0  0  0  0  0  0  0  0  0  0
    4.9040   16.2990   37.0740 C   0  0  0  0  0  0  0  0  0  0  0  0
   -0.8820   16.1400   45.9390 C   0  0  0  0  0  0  0  0  0  0  0  0
   -0.2900   17.4190   43.9470 C   0  0  0  0  0  0  0  0  0  0  0  0
   -0.6360   20.4380   43.1810 C   0  0  0  0  0  0  0  0  0  0  0  0
    1.2070   19.6900   39.7690 N   0  0  0  0  0  0  0  0  0  0  0  0
    0.5780   18.8170   42.0530 C   0  0  0  0  0  0  0  0  0  0  0  0
    1.7680   20.9850   39.5160 C   0  0  0  0  0  0  0  0  0  0  0  0
    2.3980   21.3190   38.2970 N   0  0  0  0  0  0  0  0  0  0  0  0
    5.4120   15.4110   35.9530 O   0  0  0  0  0  0  0  0  0  0  0  0
   -0.8640   17.3640   45.2830 C   0  0  0  0  0  0  0  0  0  0  0  0
    4.0170   17.3700   36.6660 C   0  0  0  0  0  0  0  0  0  0  0  0
    4.0430   18.0110   35.6270 O   0  0  0  0  0  0  0  0  0  0  0  0
   -1.2480   19.6190   43.8520 N   0  0  0  0  0  0  0  0  0  0  0  0
    1.7180   18.2520   42.0710 O   0  0  0  0  0  0  0  0  0  0  0  0
    3.0400   20.4090   37.6130 C   0  0  0  0  0  0  0  0  0  0  0  0
    0.1820   16.3290   43.3530 C   0  0  0  0  0  0  0  0  0  0  0  0
    0.1260   14.9900   43.9070 C   0  0  0  0  0  0  0  0  0  0  0  0
    1.5840   21.8260   40.3840 O   0  0  0  0  0  0  0  0  0  0  0  0
    0.1420   19.7090   40.9330 C   0  0  0  0  0  0  0  0  0  0  0  0
   -0.6950   21.7360   43.1160 N   0  0  0  0  0  0  0  0  0  0  0  0
    3.0220   17.7010   37.7670 C   0  0  0  0  0  0  0  0  0  0  0  0
   -0.4840   14.8970   45.2790 C   0  0  0  0  0  0  0  0  0  0  0  0
    3.3140   21.6070   35.9020 O   0  0  0  0  0  0  0  0  0  0  0  0
    3.1520   20.5160   36.3790 C   0  0  0  0  0  0  0  0  0  0  0  0
   -0.2340   18.8900   43.3250 C   0  0  0  0  0  0  0  0  0  0  0  0
   -0.6030   13.5400   45.8950 C   0  0  0  0  0  0  0  0  0  0  0  0
    4.6758   19.1978   38.2942 H   0  0  0  0  0  0  0  0  0  0  0  0
    3.2133   19.2684   39.3977 H   0  0  0  0  0  0  0  0  0  0  0  0
    4.3622   15.6642   37.7906 H   0  0  0  0  0  0  0  0  0  0  0  0
    5.7929   16.7876   37.4997 H   0  0  0  0  0  0  0  0  0  0  0  0
   -1.2063   16.1042   46.9895 H   0  0  0  0  0  0  0  0  0  0  0  0
    1.4702   18.8411   39.2484 H   0  0  0  0  0  0  0  0  0  0  0  0
    2.3512   22.2858   37.9448 H   0  0  0  0  0  0  0  0  0  0  0  0
    5.8648   14.6195   36.3384 H   0  0  0  0  0  0  0  0  0  0  0  0
   -1.2724   18.2670   45.7602 H   0  0  0  0  0  0  0  0  0  0  0  0
   -2.0687   19.5323   44.4683 H   0  0  0  0  0  0  0  0  0  0  0  0
    3.9770   20.9696   37.7466 H   0  0  0  0  0  0  0  0  0  0  0  0
    0.6511   16.4512   42.3656 H   0  0  0  0  0  0  0  0  0  0  0  0
    0.5011   14.1092   43.3652 H   0  0  0  0  0  0  0  0  0  0  0  0
    0.0344   20.7371   41.3092 H   0  0  0  0  0  0  0  0  0  0  0  0
   -0.8205   19.3471   40.5423 H   0  0  0  0  0  0  0  0  0  0  0  0
   -1.5921   22.2014   42.9171 H   0  0  0  0  0  0  0  0  0  0  0  0
    2.0035   17.7949   37.3622 H   0  0  0  0  0  0  0  0  0  0  0  0
    2.9630   16.9222   38.5416 H   0  0  0  0  0  0  0  0  0  0  0  0
    3.1035   19.6260   35.7344 H   0  0  0  0  0  0  0  0  0  0  0  0
   -0.5949   13.6329   46.9910 H   0  0  0  0  0  0  0  0  0  0  0  0
   -1.5456   13.0728   45.5736 H   0  0  0  0  0  0  0  0  0  0  0  0
    0.2439   12.9159   45.5736 H   0  0  0  0  0  0  0  0  0  0  0  0
  4 11  1  0
  5 26  1  0
  5 14  1  0
  6 20  1  0
  7 15  2  0
  8  6  1  0
  8 19  2  0
  9  8  1  0
 10  2  1  0
 11  3  2  0
 12  2  1  0
 12 22  1  0
 13 12  2  0
 16 25  1  0
 16  9  1  0
 16  1  1  0
 17 18  1  0
 17  4  2  0
 18 23  2  0
 20  7  1  0
 21  5  2  3
 22  1  1  0
 23 27  1  0
 23  3  1  0
 24 25  2  0
 26  7  1  0
 26 14  1  0
 26  4  1  0
  1 28  1  0
  1 29  1  0
  2 30  1  0
  2 31  1  0
  3 32  1  0
  6 33  1  0
  9 34  1  0
 10 35  1  0
 11 36  1  0
 14 37  1  0
 16 38  1  0
 17 39  1  0
 18 40  1  0
 20 41  1  0
 20 42  1  0
 21 43  1  0
 22 44  1  0
 22 45  1  0
 25 46  1  0
 27 47  1  0
 27 48  1  0
 27 49  1  0
M  END
>  <mol_id>  (56) 
2026-08-24-6tgu-s0-n100-seed1-0058

>  <rmsd_to_ref>  (56) 


$$$$

     RDKit          3D

 33 35  0  0  0  0  0  0  0  0999 V2000
    1.5250   19.3520   40.7440 C   0  0  0  0  0  0  0  0  0  0  0  0
    2.7900   20.7850   37.5290 C   0  0  0  0  0  0  0  0  0  0  0  0
    1.6930   20.3540   39.7440 C   0  0  0  0  0  0  0  0  0  0  0  0
    0.9230   19.5870   41.9530 N   0  0  0  0  0  0  0  0  0  0  0  0
   -0.4360   18.3940   44.5250 C   0  0  0  0  0  0  0  0  0  0  0  0
    2.8690   18.8390   38.4540 C   0  0  0  0  0  0  0  0  0  0  0  0
    3.6840   17.4800   36.8620 O   0  0  0  0  0  0  0  0  0  0  0  0
    0.7330   18.5880   42.4800 O   0  0  0  0  0  0  0  0  0  0  0  0
   -0.0070   17.8400   43.2810 C   0  0  0  0  0  0  0  0  0  0  0  0
    3.5340   21.3750   35.2170 O   0  0  0  0  0  0  0  0  0  0  0  0
    0.2840   16.4040   43.1830 C   0  0  0  0  0  0  0  0  0  0  0  0
    3.4870   18.7050   37.3250 N   0  0  0  0  0  0  0  0  0  0  0  0
    1.9240   18.1780   40.6050 N   0  0  0  0  0  0  0  0  0  0  0  0
   -0.7720   17.5460   45.5740 C   0  0  0  0  0  0  0  0  0  0  0  0
   -0.1550   15.6610   44.2490 C   0  0  0  0  0  0  0  0  0  0  0  0
   -1.2450   17.9750   46.7570 O   0  0  0  0  0  0  0  0  0  0  0  0
    4.2060   20.4330   35.7650 O   0  0  0  0  0  0  0  0  0  0  0  0
   -0.9930   15.3460   46.4340 F   0  0  0  0  0  0  0  0  0  0  0  0
   -0.6340   16.1450   45.4050 C   0  0  0  0  0  0  0  0  0  0  0  0
    3.5770   19.9990   36.7970 C   0  0  0  0  0  0  0  0  0  0  0  0
    2.3910   20.0290   38.6550 C   0  0  0  0  0  0  0  0  0  0  0  0
    2.7840   18.0050   39.3920 N   0  0  0  0  0  0  0  0  0  0  0  0
    2.5051   21.8228   37.3014 H   0  0  0  0  0  0  0  0  0  0  0  0
    0.6896   20.6596   39.4126 H   0  0  0  0  0  0  0  0  0  0  0  0
    2.2881   21.1394   40.2329 H   0  0  0  0  0  0  0  0  0  0  0  0
    0.6800   20.5150   42.3281 H   0  0  0  0  0  0  0  0  0  0  0  0
   -0.5002   19.4847   44.6525 H   0  0  0  0  0  0  0  0  0  0  0  0
    4.1538   17.3459   36.0010 H   0  0  0  0  0  0  0  0  0  0  0  0
    3.1288   21.9430   35.9193 H   0  0  0  0  0  0  0  0  0  0  0  0
    0.8108   15.9606   42.3251 H   0  0  0  0  0  0  0  0  0  0  0  0
   -0.1102   14.5667   44.1467 H   0  0  0  0  0  0  0  0  0  0  0  0
   -1.4672   17.3222   47.4674 H   0  0  0  0  0  0  0  0  0  0  0  0
    3.3447   17.1439   39.3204 H   0  0  0  0  0  0  0  0  0  0  0  0
  1  4  1  0
  2 21  1  0
  3  1  1  0
  4  8  1  0
  5 14  2  0
  6 21  2  0
  6 22  1  0
  7 12  1  0
  8  9  1  0
  9  5  1  0
 10 17  1  0
 11  9  2  0
 11 15  1  0
 12  6  1  0
 13  1  2  0
 14 16  1  0
 15 19  2  0
 17 20  1  0
 19 14  1  0
 19 18  1  0
 20 12  1  0
 20  2  2  0
 21  3  1  0
 22 13  1  0
  2 23  1  0
  3 24  1  0
  3 25  1  0
  4 26  1  0
  5 27  1  0
  7 28  1  0
 10 29  1  0
 11 30  1  0
 15 31  1  0
 16 32  1  0
 22 33  1  0
M  END
>  <mol_id>  (57) 
2026-08-24-6tgu-s0-n100-seed1-0060

>  <rmsd_to_ref>  (57) 


$$$$

     RDKit          3D

 30 30  0  0  0  0  0  0  0  0999 V2000
    2.4190   20.5830   38.3230 C   0  0  0  0  0  0  0  0  0  0  0  0
   -0.6630   17.8850   46.0690 C   0  0  0  0  0  0  0  0  0  0  0  0
   -0.1340   18.6980   45.0120 O   0  0  0  0  0  0  0  0  0  0  0  0
    1.5050   17.0690   40.9400 C   0  0  0  0  0  0  0  0  0  0  0  0
    2.9000   20.6680   36.9920 C   0  0  0  0  0  0  0  0  0  0  0  0
    2.4800   21.4290   36.2290 O   0  0  0  0  0  0  0  0  0  0  0  0
    0.3040   18.6160   42.6770 N   0  0  0  0  0  0  0  0  0  0  0  0
    0.8020   19.2560   41.5690 C   0  0  0  0  0  0  0  0  0  0  0  0
   -1.8580   18.9850   43.6320 O   0  0  0  0  0  0  0  0  0  0  0  0
    2.8420   17.1980   39.1570 C   0  0  0  0  0  0  0  0  0  0  0  0
    2.8510   19.4830   38.9580 O   0  0  0  0  0  0  0  0  0  0  0  0
    3.6130   19.5620   36.7360 O   0  0  0  0  0  1  0  0  0  0  0  0
    3.6640   16.7970   38.1650 O   0  0  0  0  0  0  0  0  0  0  0  0
   -0.7070   16.3390   45.9990 C   0  0  0  0  0  0  0  0  0  0  0  0
    1.0320   16.4650   41.9190 O   0  0  0  0  0  0  0  0  0  0  0  0
    1.5660   18.4190   40.7010 C   0  0  0  0  0  0  0  0  0  0  0  0
    0.6020   20.6060   41.3160 C   0  0  0  0  0  0  0  0  0  0  0  0
    2.4770   18.4570   39.5900 C   0  0  0  0  0  0  0  0  0  0  0  0
   -0.6390   18.8000   43.7120 C   0  0  0  0  0  0  0  0  0  0  0  0
    2.2600   16.2750   40.0180 O   0  0  0  0  0  0  0  0  0  0  0  0
    1.3193   20.5676   38.3000 H   0  0  0  0  0  0  0  0  0  0  0  0
    2.8009   21.4564   38.8719 H   0  0  0  0  0  0  0  0  0  0  0  0
   -0.0747   18.1317   46.9651 H   0  0  0  0  0  0  0  0  0  0  0  0
   -1.7326   18.1387   46.0291 H   0  0  0  0  0  0  0  0  0  0  0  0
   -0.7188   15.9260   47.0185 H   0  0  0  0  0  0  0  0  0  0  0  0
   -1.6145   16.0218   45.4644 H   0  0  0  0  0  0  0  0  0  0  0  0
    0.1810   15.9707   45.4644 H   0  0  0  0  0  0  0  0  0  0  0  0
    0.5215   21.1496   42.2689 H   0  0  0  0  0  0  0  0  0  0  0  0
    1.4515   21.0008   40.7393 H   0  0  0  0  0  0  0  0  0  0  0  0
   -0.3254   20.7375   40.7393 H   0  0  0  0  0  0  0  0  0  0  0  0
  1 11  1  0
  3  2  1  0
  4 15  2  0
  5  1  1  0
  6  5  2  0
  7 19  1  0
  8  7  2  3
  9 19  2  0
 10 18  1  0
 10 20  1  0
 11 18  1  0
 12  5  1  0
 13 10  2  0
 14  2  1  0
 16  4  1  0
 16  8  1  0
 17  8  1  0
 18 16  2  0
 19  3  1  0
 20  4  1  0
  1 21  1  0
  1 22  1  0
  2 23  1  0
  2 24  1  0
 14 25  1  0
 14 26  1  0
 14 27  1  0
 17 28  1  0
 17 29  1  0
 17 30  1  0
M  CHG  1  12  -1
M  END
>  <mol_id>  (58) 
2026-08-24-6tgu-s0-n100-seed1-0061

>  <rmsd_to_ref>  (58) 


$$$$

     RDKit          3D

 21 21  0  0  0  0  0  0  0  0999 V2000
    2.2220   21.1320   37.1790 O   0  0  0  0  0  1  0  0  0  0  0  0
    1.4100   16.9100   42.4010 O   0  0  0  0  0  0  0  0  0  0  0  0
    3.7330   19.9960   36.1920 O   0  0  0  0  0  0  0  0  0  0  0  0
    0.0650   21.4480   41.7230 F   0  0  0  0  0  0  0  0  0  0  0  0
    2.1880   18.1930   40.4650 C   0  0  0  0  0  0  0  0  0  0  0  0
    0.7160   20.3840   41.3530 C   0  0  0  0  0  0  0  0  0  0  0  0
    1.4260   18.0940   41.6510 C   0  0  0  0  0  0  0  0  0  0  0  0
    3.0230   20.1870   37.2120 C   0  0  0  0  0  0  0  0  0  0  0  0
    1.5020   20.4720   40.2030 C   0  0  0  0  0  0  0  0  0  0  0  0
    0.2320   16.4880   43.0570 C   0  0  0  0  0  0  0  0  0  0  0  0
    3.2510   19.4150   38.4980 C   0  0  0  0  0  0  0  0  0  0  0  0
    2.2600   19.3690   39.7110 C   0  0  0  0  0  0  0  0  0  0  0  0
    0.6960   19.1880   42.0770 C   0  0  0  0  0  0  0  0  0  0  0  0
    2.7468   17.3101   40.1211 H   0  0  0  0  0  0  0  0  0  0  0  0
    1.5380   21.4261   39.6568 H   0  0  0  0  0  0  0  0  0  0  0  0
    0.3796   16.5409   44.1458 H   0  0  0  0  0  0  0  0  0  0  0  0
   -0.6033   17.1428   42.7680 H   0  0  0  0  0  0  0  0  0  0  0  0
    0.0025   15.4518   42.7680 H   0  0  0  0  0  0  0  0  0  0  0  0
    3.3854   18.3675   38.1903 H   0  0  0  0  0  0  0  0  0  0  0  0
    4.0713   20.0021   38.9367 H   0  0  0  0  0  0  0  0  0  0  0  0
    0.0935   19.1169   42.9946 H   0  0  0  0  0  0  0  0  0  0  0  0
  1  8  1  0
  2 10  1  0
  3  8  2  0
  5  7  2  0
  6  4  1  0
  6 13  2  0
  7 13  1  0
  7  2  1  0
  8 11  1  0
  9  6  1  0
 11 12  1  0
 12  9  2  0
 12  5  1  0
  5 14  1  0
  9 15  1  0
 10 16  1  0
 10 17  1  0
 10 18  1  0
 11 19  1  0
 11 20  1  0
 13 21  1  0
M  CHG  1   1  -1
M  END
>  <mol_id>  (59) 
2026-08-24-6tgu-s0-n100-seed1-0062

>  <rmsd_to_ref>  (59) 


$$$$

     RDKit          3D

 35 39  0  0  0  0  0  0  0  0999 V2000
   -0.8110   20.7290   43.9030 N   0  0  0  0  0  0  0  0  0  0  0  0
    3.5360   17.7090   37.4420 C   0  0  0  0  0  0  0  0  0  0  0  0
    1.6930   19.0260   40.5160 C   0  0  0  0  0  0  0  0  0  0  0  0
    0.3860   13.3420   43.7820 Cl  0  0  0  0  0  0  0  0  0  0  0  0
    2.7460   15.7750   39.7930 O   0  0  0  0  0  0  0  0  0  0  0  0
    2.3540   21.0010   38.9880 C   0  0  0  0  0  0  0  0  0  0  0  0
    4.9710   15.7510   36.9310 C   0  0  0  0  0  0  0  0  0  0  0  0
    0.6680   17.5670   42.2150 C   0  0  0  0  0  0  0  0  0  0  0  0
   -0.2020   16.0090   43.8640 C   0  0  0  0  0  0  0  0  0  0  0  0
    1.2530   15.1270   42.1290 C   0  0  0  0  0  0  0  0  0  0  0  0
    2.8290   18.4620   38.5470 C   0  0  0  0  0  0  0  0  0  0  0  0
    1.3230   16.4110   41.5890 C   0  0  0  0  0  0  0  0  0  0  0  0
    2.8260   19.8760   38.1690 C   0  0  0  0  0  0  0  0  0  0  0  0
    0.5680   20.1320   41.9650 C   0  0  0  0  0  0  0  0  0  0  0  0
    3.4070   19.9400   36.8400 N   0  0  0  0  0  0  0  0  0  0  0  0
    1.0390   21.0410   41.1580 N   0  0  0  0  0  0  0  0  0  0  0  0
    0.9210   18.8500   41.6020 C   0  0  0  0  0  0  0  0  0  0  0  0
    3.8500   16.3870   37.5370 N   0  0  0  0  0  0  0  0  0  0  0  0
    1.7500   20.3880   40.1990 C   0  0  0  0  0  0  0  0  0  0  0  0
    2.2690   17.9950   39.7660 C   0  0  0  0  0  0  0  0  0  0  0  0
    3.8410   18.6390   36.5390 N   0  0  0  0  0  0  0  0  0  0  0  0
   -0.3070   20.4750   43.0430 C   0  0  0  0  0  0  0  0  0  0  0  0
   -0.1280   17.3190   43.3610 C   0  0  0  0  0  0  0  0  0  0  0  0
    0.4750   14.9290   43.2820 C   0  0  0  0  0  0  0  0  0  0  0  0
    2.1700   16.6840   40.3480 C   0  0  0  0  0  0  0  0  0  0  0  0
    2.4316   22.0729   38.7535 H   0  0  0  0  0  0  0  0  0  0  0  0
    5.6434   15.3695   37.7135 H   0  0  0  0  0  0  0  0  0  0  0  0
    4.6245   14.9150   36.3057 H   0  0  0  0  0  0  0  0  0  0  0  0
    5.5109   16.4773   36.3057 H   0  0  0  0  0  0  0  0  0  0  0  0
   -0.8194   15.8229   44.7551 H   0  0  0  0  0  0  0  0  0  0  0  0
    1.7937   14.2898   41.6635 H   0  0  0  0  0  0  0  0  0  0  0  0
    3.4851   20.7726   36.2387 H   0  0  0  0  0  0  0  0  0  0  0  0
    1.8112   18.9130   42.2451 H   0  0  0  0  0  0  0  0  0  0  0  0
    3.2206   15.7944   38.0970 H   0  0  0  0  0  0  0  0  0  0  0  0
   -0.6782   18.1375   43.8481 H   0  0  0  0  0  0  0  0  0  0  0  0
  2 18  1  0
  2 11  1  0
  5 25  2  0
  6 19  1  0
  7 18  1  0
  8 23  2  0
 10 24  1  0
 11 20  2  0
 12 10  2  0
 12  8  1  0
 13 11  1  0
 13  6  2  0
 14 22  1  0
 15 13  1  0
 16 14  2  0
 17  3  1  0
 17 14  1  0
 17  8  1  0
 19  3  2  0
 19 16  1  0
 20 25  1  0
 20  3  1  0
 21 15  1  0
 21  2  2  0
 22  1  3  0
 23  9  1  0
 24  4  1  0
 24  9  2  0
 25 12  1  0
  6 26  1  0
  7 27  1  0
  7 28  1  0
  7 29  1  0
  9 30  1  0
 10 31  1  0
 15 32  1  0
 17 33  1  0
 18 34  1  0
 23 35  1  0
M  END
>  <mol_id>  (60) 
2026-08-24-6tgu-s0-n100-seed1-0063

>  <rmsd_to_ref>  (60) 


$$$$

     RDKit          3D

 47 48  0  0  0  0  0  0  0  0999 V2000
    1.0230   15.3460   43.0830 C   0  0  0  0  0  0  0  0  0  0  0  0
   -0.8490   14.9310   44.7720 N   0  0  0  0  0  4  0  0  0  0  0  0
   -0.6580   19.8820   43.5280 C   0  0  0  0  0  0  0  0  0  0  0  0
    3.1460   20.6140   36.8160 C   0  0  0  0  0  0  0  0  0  0  0  0
    2.8800   15.1600   40.2340 O   0  0  0  0  0  0  0  0  0  0  0  0
   -0.8510   21.1810   43.4690 O   0  0  0  0  0  0  0  0  0  0  0  0
    0.6660   20.7000   40.7060 C   0  0  0  0  0  0  0  0  0  0  0  0
    2.4670   19.0600   39.3440 C   0  0  0  0  0  0  0  0  0  0  0  0
   -1.2120   19.3210   44.5750 N   0  0  0  0  0  0  0  0  0  0  0  0
    0.2320   14.4340   43.8400 C   0  0  0  0  0  0  0  0  0  0  0  0
    0.9620   19.4480   41.2010 C   0  0  0  0  0  0  0  0  0  0  0  0
    1.7250   15.6610   42.0740 C   0  0  0  0  0  0  0  0  0  0  0  0
    1.8760   18.6490   40.5060 C   0  0  0  0  0  0  0  0  0  0  0  0
    3.5330   19.3620   36.6160 O   0  0  0  0  0  1  0  0  0  0  0  0
    2.2780   13.5280   41.7570 C   0  0  0  0  0  0  0  0  0  0  0  0
    3.0520   21.3760   35.8770 O   0  0  0  0  0  0  0  0  0  0  0  0
    0.4670   13.1540   43.5890 C   0  0  0  0  0  0  0  0  0  0  0  0
   -0.5850   16.9070   43.7050 O   0  0  0  0  0  0  0  0  0  0  0  0
    0.1470   19.0520   42.5660 C   0  0  0  0  0  0  0  0  0  0  0  0
    2.1860   20.4260   38.8790 C   0  0  0  0  0  0  0  0  0  0  0  0
    1.2850   12.7320   42.6400 C   0  0  0  0  0  0  0  0  0  0  0  0
    3.0280   21.0240   38.0280 O   0  0  0  0  0  0  0  0  0  0  0  0
    0.1970   17.5510   42.6910 C   0  0  0  0  0  0  0  0  0  0  0  0
    2.1080   14.6820   41.0160 C   0  0  0  0  0  0  0  0  0  0  0  0
    1.2430   21.1410   39.5490 C   0  0  0  0  0  0  0  0  0  0  0  0
    0.9920   16.8330   41.8130 N   0  0  0  0  0  0  0  0  0  0  0  0
    0.2878   16.1613   43.0146 H   0  0  0  0  0  0  0  0  0  0  0  0
    1.9186   14.8791   43.5187 H   0  0  0  0  0  0  0  0  0  0  0  0
   -0.5505   14.7938   45.7482 H   0  0  0  0  0  0  0  0  0  0  0  0
   -1.0153   15.9331   44.6015 H   0  0  0  0  0  0  0  0  0  0  0  0
   -1.7179   14.4049   44.6015 H   0  0  0  0  0  0  0  0  0  0  0  0
    3.6105   15.6123   40.7259 H   0  0  0  0  0  0  0  0  0  0  0  0
   -0.0395   21.3483   41.2463 H   0  0  0  0  0  0  0  0  0  0  0  0
    3.1304   18.3912   38.7760 H   0  0  0  0  0  0  0  0  0  0  0  0
   -1.1241   18.3053   44.7220 H   0  0  0  0  0  0  0  0  0  0  0  0
   -1.7353   19.8958   45.2508 H   0  0  0  0  0  0  0  0  0  0  0  0
    0.9622   14.4823   44.6612 H   0  0  0  0  0  0  0  0  0  0  0  0
    2.8128   15.7562   42.2067 H   0  0  0  0  0  0  0  0  0  0  0  0
    2.1276   17.6565   40.9081 H   0  0  0  0  0  0  0  0  0  0  0  0
    3.1015   13.7746   42.4433 H   0  0  0  0  0  0  0  0  0  0  0  0
    2.2978   12.8260   40.9103 H   0  0  0  0  0  0  0  0  0  0  0  0
   -0.0471   12.4010   44.2044 H   0  0  0  0  0  0  0  0  0  0  0  0
   -0.7847   18.9727   41.9867 H   0  0  0  0  0  0  0  0  0  0  0  0
    1.2560   11.6493   42.4479 H   0  0  0  0  0  0  0  0  0  0  0  0
    1.4172   14.3840   40.2135 H   0  0  0  0  0  0  0  0  0  0  0  0
    0.9320   22.1147   39.1425 H   0  0  0  0  0  0  0  0  0  0  0  0
    1.0540   17.2016   40.8532 H   0  0  0  0  0  0  0  0  0  0  0  0
  1 10  1  0
  3  9  1  0
  4 22  1  0
  6  3  2  0
  7 11  2  0
  8 13  2  0
 10  2  1  0
 11 19  1  0
 12 26  1  0
 12  1  1  0
 13 11  1  0
 14  4  1  0
 15 21  1  0
 16  4  2  0
 17 10  1  0
 19 23  1  0
 19  3  1  0
 20  8  1  0
 20 25  2  0
 21 17  2  0
 22 20  1  0
 23 18  2  0
 24  5  1  0
 24 15  1  0
 24 12  1  0
 25  7  1  0
 26 23  1  0
  1 27  1  0
  1 28  1  0
  2 29  1  0
  2 30  1  0
  2 31  1  0
  5 32  1  0
  7 33  1  0
  8 34  1  0
  9 35  1  0
  9 36  1  0
 10 37  1  0
 12 38  1  0
 13 39  1  0
 15 40  1  0
 15 41  1  0
 17 42  1  0
 19 43  1  0
 21 44  1  0
 24 45  1  0
 25 46  1  0
 26 47  1  0
M  CHG  2   2   1  14  -1
M  END
>  <mol_id>  (61) 
2026-08-24-6tgu-s0-n100-seed1-0064

>  <rmsd_to_ref>  (61) 


$$$$

     RDKit          3D

 55 60  0  0  0  0  0  0  0  0999 V2000
   -1.3650   14.1010   45.1620 O   0  0  0  0  0  0  0  0  0  0  0  0
    1.3710   14.2430   42.6380 C   0  0  0  0  0  0  0  0  0  0  0  0
    1.7210   12.0560   41.7840 C   0  0  0  0  0  0  0  0  0  0  0  0
    1.3510   20.0090   40.6500 C   0  0  0  0  0  0  0  0  0  0  0  0
    2.3890   20.7490   38.6240 C   0  0  0  0  0  0  0  0  0  0  0  0
    2.0400   18.2490   38.9360 C   0  0  0  0  0  0  0  0  0  0  0  0
    3.3670   20.8520   36.7020 C   0  0  0  0  0  0  0  0  0  0  0  0
    2.6140   19.4270   38.1550 C   0  0  0  0  0  0  0  0  0  0  0  0
   -0.0130   20.1350   42.8500 C   0  0  0  0  0  0  0  0  0  0  0  0
    3.3450   19.5400   37.0060 C   0  0  0  0  0  0  0  0  0  0  0  0
    2.0790   16.8470   38.4970 C   0  0  0  0  0  0  0  0  0  0  0  0
    0.7430   20.5010   41.9330 N   0  0  0  0  0  0  0  0  0  0  0  0
    2.4580   15.6460   39.3550 C   0  0  0  0  0  0  0  0  0  0  0  0
    1.8420   20.9470   39.8460 C   0  0  0  0  0  0  0  0  0  0  0  0
   -0.3190   16.0860   44.0830 C   0  0  0  0  0  0  0  0  0  0  0  0
   -1.0960   19.0210   44.1960 C   0  0  0  0  0  0  0  0  0  0  0  0
    4.9530   15.9960   36.3880 C   0  0  0  0  0  0  0  0  0  0  0  0
    0.4000   13.6780   43.6050 C   0  0  0  0  0  0  0  0  0  0  0  0
    1.5040   18.6590   40.2330 C   0  0  0  0  0  0  0  0  0  0  0  0
   -0.9560   13.3340   46.3190 C   0  0  0  0  0  0  0  0  0  0  0  0
   -0.1450   18.7220   43.2130 C   0  0  0  0  0  0  0  0  0  0  0  0
    3.7490   21.4160   35.4520 C   0  0  0  0  0  0  0  0  0  0  0  0
    1.4710   15.5890   42.4450 C   0  0  0  0  0  0  0  0  0  0  0  0
    4.3870   16.4740   37.5800 O   0  0  0  0  0  0  0  0  0  0  0  0
    0.6570   17.7250   42.7740 N   0  0  0  0  0  0  0  0  0  0  0  0
    0.5900   16.5320   43.1030 C   0  0  0  0  0  0  0  0  0  0  0  0
   -0.4580   14.6760   44.2950 C   0  0  0  0  0  0  0  0  0  0  0  0
   -1.0620   20.3180   43.5800 N   0  0  0  0  0  0  0  0  0  0  0  0
    2.7900   21.6560   37.5800 O   0  0  0  0  0  0  0  0  0  0  0  0
    3.9620   21.7540   34.3650 N   0  0  0  0  0  0  0  0  0  0  0  0
    3.1260   15.8370   37.9900 C   0  0  0  0  0  0  0  0  0  0  0  0
    2.9360   14.3740   38.6340 C   0  0  0  0  0  0  0  0  0  0  0  0
    2.1900   13.3830   41.9380 O   0  0  0  0  0  0  0  0  0  0  0  0
    1.5620   11.6060   42.7751 H   0  0  0  0  0  0  0  0  0  0  0  0
    0.7715   12.0648   41.2286 H   0  0  0  0  0  0  0  0  0  0  0  0
    2.4651   11.4662   41.2286 H   0  0  0  0  0  0  0  0  0  0  0  0
    3.8201   18.7234   36.4425 H   0  0  0  0  0  0  0  0  0  0  0  0
    1.2210   17.3129   37.9902 H   0  0  0  0  0  0  0  0  0  0  0  0
    1.0582   21.4648   42.1135 H   0  0  0  0  0  0  0  0  0  0  0  0
    2.1824   15.5985   40.4189 H   0  0  0  0  0  0  0  0  0  0  0  0
    1.7996   21.9845   40.2091 H   0  0  0  0  0  0  0  0  0  0  0  0
   -0.9085   16.8042   44.6719 H   0  0  0  0  0  0  0  0  0  0  0  0
   -2.0505   18.4803   44.1152 H   0  0  0  0  0  0  0  0  0  0  0  0
   -0.9488   18.8442   45.2717 H   0  0  0  0  0  0  0  0  0  0  0  0
    5.7738   15.3028   36.6240 H   0  0  0  0  0  0  0  0  0  0  0  0
    4.1849   15.4691   35.8029 H   0  0  0  0  0  0  0  0  0  0  0  0
    5.3439   16.8415   35.8029 H   0  0  0  0  0  0  0  0  0  0  0  0
    0.3203   12.5980   43.7979 H   0  0  0  0  0  0  0  0  0  0  0  0
    1.1982   17.8684   40.9341 H   0  0  0  0  0  0  0  0  0  0  0  0
   -1.2425   13.8713   47.2351 H   0  0  0  0  0  0  0  0  0  0  0  0
   -1.4498   12.3512   46.3007 H   0  0  0  0  0  0  0  0  0  0  0  0
    0.1352   13.1964   46.3007 H   0  0  0  0  0  0  0  0  0  0  0  0
    2.2473   15.9720   41.7663 H   0  0  0  0  0  0  0  0  0  0  0  0
    3.8060   13.8162   39.0108 H   0  0  0  0  0  0  0  0  0  0  0  0
    2.4749   13.4269   38.3171 H   0  0  0  0  0  0  0  0  0  0  0  0
  1 20  1  0
  2 18  2  0
  3 33  1  0
  4 12  1  0
  5 14  1  0
  6 19  2  0
  7 10  2  0
  7 29  1  0
  8  5  2  0
  8  6  1  0
  9 21  1  0
  9 28  2  0
 10  8  1  0
 11  6  1  0
 11 13  1  0
 12  9  1  0
 13 32  1  0
 14  4  2  0
 15 27  2  0
 17 24  1  0
 18 27  1  0
 19  4  1  0
 21 16  1  0
 22  7  1  0
 23  2  1  0
 23 26  2  0
 25 26  1  0
 25 21  2  3
 26 15  1  0
 27  1  1  0
 28 16  1  0
 29  5  1  0
 30 22  3  0
 31 24  1  0
 31 11  1  0
 31 32  1  0
 31 13  1  0
 33  2  1  0
  3 34  1  0
  3 35  1  0
  3 36  1  0
 10 37  1  0
 11 38  1  0
 12 39  1  0
 13 40  1  0
 14 41  1  0
 15 42  1  0
 16 43  1  0
 16 44  1  0
 17 45  1  0
 17 46  1  0
 17 47  1  0
 18 48  1  0
 19 49  1  0
 20 50  1  0
 20 51  1  0
 20 52  1  0
 23 53  1  0
 32 54  1  0
 32 55  1  0
M  END
>  <mol_id>  (62) 
2026-08-24-6tgu-s0-n100-seed1-0065

>  <rmsd_to_ref>  (62) 


$$$$

     RDKit          3D

 44 47  0  0  0  0  0  0  0  0999 V2000
   -0.1890   19.9000   43.2620 C   0  0  0  0  0  0  0  0  0  0  0  0
    0.0690   17.2930   43.1880 C   0  0  0  0  0  0  0  0  0  0  0  0
    1.5170   16.2400   41.5620 C   0  0  0  0  0  0  0  0  0  0  0  0
    0.3210   21.0700   42.8240 C   0  0  0  0  0  0  0  0  0  0  0  0
   -0.7450   12.8930   46.0640 C   0  0  0  0  0  0  0  0  0  0  0  0
   -0.1610   13.2500   44.6590 C   0  0  0  0  0  0  0  0  0  0  0  0
    1.1140   18.6630   41.4550 C   0  0  0  0  0  0  0  0  0  0  0  0
    3.3050   16.9930   38.3000 C   0  0  0  0  0  0  0  0  0  0  0  0
    3.2210   19.4300   38.2300 C   0  0  0  0  0  0  0  0  0  0  0  0
    0.7180   16.1010   42.6650 C   0  0  0  0  0  0  0  0  0  0  0  0
    1.6890   17.4340   40.8990 C   0  0  0  0  0  0  0  0  0  0  0  0
    1.2310   21.0030   40.7400 C   0  0  0  0  0  0  0  0  0  0  0  0
    4.0260   18.0370   36.3950 N   0  0  0  0  0  0  0  0  0  0  0  0
    3.7250   19.3060   36.9100 C   0  0  0  0  0  0  0  0  0  0  0  0
   -0.2680   14.5590   44.2310 N   0  0  0  0  0  0  0  0  0  0  0  0
   -0.9120   19.6750   44.2790 O   0  0  0  0  0  0  0  0  0  0  0  0
    1.4690   13.3710   42.7190 S   0  0  0  0  0  0  0  0  0  0  0  0
    3.7860   16.8750   37.1000 C   0  0  0  0  0  0  0  0  0  0  0  0
    0.6760   12.4580   43.9650 N   0  0  0  0  0  0  0  0  0  0  0  0
    3.0540   18.2280   38.9490 C   0  0  0  0  0  0  0  0  0  0  0  0
    0.7320   21.6040   41.8350 C   0  0  0  0  0  0  0  0  0  0  0  0
    1.3990   19.7150   40.6790 C   0  0  0  0  0  0  0  0  0  0  0  0
    0.4030   18.6430   42.6260 C   0  0  0  0  0  0  0  0  0  0  0  0
    0.5610   14.7520   43.2040 C   0  0  0  0  0  0  0  0  0  0  0  0
    3.8340   20.3350   36.2830 O   0  0  0  0  0  0  0  0  0  0  0  0
    2.4590   17.6020   39.7570 N   0  0  0  0  0  0  0  0  0  0  0  0
   -0.6694   17.2041   43.9985 H   0  0  0  0  0  0  0  0  0  0  0  0
    2.0482   15.3529   41.1867 H   0  0  0  0  0  0  0  0  0  0  0  0
   -0.4743   21.7687   43.1227 H   0  0  0  0  0  0  0  0  0  0  0  0
    1.3369   20.7826   43.1327 H   0  0  0  0  0  0  0  0  0  0  0  0
   -0.0865   13.2955   46.8478 H   0  0  0  0  0  0  0  0  0  0  0  0
   -1.7482   13.3324   46.1665 H   0  0  0  0  0  0  0  0  0  0  0  0
   -0.8113   11.7998   46.1665 H   0  0  0  0  0  0  0  0  0  0  0  0
    3.0761   16.0695   38.8521 H   0  0  0  0  0  0  0  0  0  0  0  0
    2.2399   19.9238   38.1695 H   0  0  0  0  0  0  0  0  0  0  0  0
    3.9820   20.0001   38.7830 H   0  0  0  0  0  0  0  0  0  0  0  0
    1.5049   21.6190   39.8708 H   0  0  0  0  0  0  0  0  0  0  0  0
    3.9941   15.8876   36.6622 H   0  0  0  0  0  0  0  0  0  0  0  0
    0.8249   11.4551   44.1465 H   0  0  0  0  0  0  0  0  0  0  0  0
    0.6981   22.7034   41.8198 H   0  0  0  0  0  0  0  0  0  0  0  0
    0.8954   19.4558   39.7360 H   0  0  0  0  0  0  0  0  0  0  0  0
    2.4553   19.7564   40.9832 H   0  0  0  0  0  0  0  0  0  0  0  0
    1.3112   14.9737   43.9773 H   0  0  0  0  0  0  0  0  0  0  0  0
    2.5819   16.6346   39.4256 H   0  0  0  0  0  0  0  0  0  0  0  0
  1 16  2  0
  3 10  1  0
  4  1  1  0
  6  5  1  0
  7 23  2  0
  8 20  2  0
  9 20  1  0
 10  2  2  0
 11  7  1  0
 11  3  2  0
 12 21  2  0
 13 14  1  0
 13 18  2  0
 14  9  1  0
 15  6  2  0
 17 24  1  0
 17 19  1  0
 18  8  1  0
 19  6  1  0
 20 26  1  0
 21  4  1  0
 22 12  1  0
 22  7  1  0
 23  2  1  0
 23  1  1  0
 24 10  1  0
 24 15  1  0
 25 14  2  0
 26 11  1  0
  2 27  1  0
  3 28  1  0
  4 29  1  0
  4 30  1  0
  5 31  1  0
  5 32  1  0
  5 33  1  0
  8 34  1  0
  9 35  1  0
  9 36  1  0
 12 37  1  0
 18 38  1  0
 19 39  1  0
 21 40  1  0
 22 41  1  0
 22 42  1  0
 24 43  1  0
 26 44  1  0
M  END
>  <mol_id>  (63) 
2026-08-24-6tgu-s0-n100-seed1-0066

>  <rmsd_to_ref>  (63) 


$$$$

     RDKit          3D

 37 39  0  0  0  0  0  0  0  0999 V2000
    0.1580   19.6590   42.7940 C   0  0  0  0  0  0  0  0  0  0  0  0
    3.6710   19.0900   37.7450 C   0  0  0  0  0  0  0  0  0  0  0  0
    0.8610   20.0360   41.6470 C   0  0  0  0  0  0  0  0  0  0  0  0
    1.7820   20.7040   38.8920 C   0  0  0  0  0  0  0  0  0  0  0  0
   -0.9930   20.1180   44.4940 N   0  0  0  0  0  0  0  0  0  0  0  0
    3.0810   18.6630   38.9270 C   0  0  0  0  0  0  0  0  0  0  0  0
    1.5450   19.0690   40.9130 C   0  0  0  0  0  0  0  0  0  0  0  0
   -0.5470   17.5960   44.4560 N   0  0  0  0  0  0  0  0  0  0  0  0
   -1.0510   17.8100   45.7690 C   0  0  0  0  0  0  0  0  0  0  0  0
    3.3690   20.2470   37.0840 C   0  0  0  0  0  0  0  0  0  0  0  0
    2.3360   21.0270   37.7000 C   0  0  0  0  0  0  0  0  0  0  0  0
    2.1440   19.4690   39.5870 C   0  0  0  0  0  0  0  0  0  0  0  0
    4.0490   20.6410   35.8050 C   0  0  0  0  0  0  0  0  0  0  0  0
    0.1350   18.3230   43.2560 C   0  0  0  0  0  0  0  0  0  0  0  0
    0.9680   17.4370   42.5120 C   0  0  0  0  0  0  0  0  0  0  0  0
   -0.6990   16.7730   46.8030 C   0  0  0  0  0  0  0  0  0  0  0  0
   -0.4690   20.7520   43.5760 N   0  0  0  0  0  0  0  0  0  0  0  0
    3.6170   21.4930   34.8910 N   0  0  0  0  0  0  0  0  0  0  0  0
   -0.2090   17.9230   46.9650 C   0  0  0  0  0  0  0  0  0  0  0  0
    1.6860   17.7800   41.4060 N   0  0  0  0  0  0  0  0  0  0  0  0
    4.4448   18.4440   37.3047 H   0  0  0  0  0  0  0  0  0  0  0  0
    0.8744   21.0880   41.3259 H   0  0  0  0  0  0  0  0  0  0  0  0
    1.0457   21.3831   39.3466 H   0  0  0  0  0  0  0  0  0  0  0  0
   -0.6782   20.4989   45.3977 H   0  0  0  0  0  0  0  0  0  0  0  0
   -2.0176   20.1984   44.4257 H   0  0  0  0  0  0  0  0  0  0  0  0
    3.3514   17.6838   39.3489 H   0  0  0  0  0  0  0  0  0  0  0  0
   -0.6803   16.6050   44.2089 H   0  0  0  0  0  0  0  0  0  0  0  0
   -1.9001   18.3668   45.3460 H   0  0  0  0  0  0  0  0  0  0  0  0
    1.9776   21.9281   37.1809 H   0  0  0  0  0  0  0  0  0  0  0  0
    5.0203   20.1652   35.6048 H   0  0  0  0  0  0  0  0  0  0  0  0
    1.0364   16.3950   42.8579 H   0  0  0  0  0  0  0  0  0  0  0  0
   -1.4754   16.4139   47.4945 H   0  0  0  0  0  0  0  0  0  0  0  0
   -0.2632   15.7646   46.7471 H   0  0  0  0  0  0  0  0  0  0  0  0
   -0.4671   21.7668   43.3996 H   0  0  0  0  0  0  0  0  0  0  0  0
    4.1832   21.6777   34.0506 H   0  0  0  0  0  0  0  0  0  0  0  0
    0.8752   18.0607   46.8401 H   0  0  0  0  0  0  0  0  0  0  0  0
   -0.2275   18.6190   47.8166 H   0  0  0  0  0  0  0  0  0  0  0  0
  1 14  2  0
  1 17  1  0
  2  6  2  0
  3  1  1  0
  4 12  2  0
  6 12  1  0
  7 20  1  0
  7  3  2  0
  8  9  1  0
  9 16  1  0
  9 19  1  0
 10 11  2  0
 10  2  1  0
 11  4  1  0
 12  7  1  0
 13 10  1  0
 14  8  1  0
 15 14  1  0
 16 19  1  0
 17  5  1  0
 18 13  2  3
 20 15  2  0
  2 21  1  0
  3 22  1  0
  4 23  1  0
  5 24  1  0
  5 25  1  0
  6 26  1  0
  8 27  1  0
  9 28  1  0
 11 29  1  0
 13 30  1  0
 15 31  1  0
 16 32  1  0
 16 33  1  0
 17 34  1  0
 18 35  1  0
 19 36  1  0
 19 37  1  0
M  END
>  <mol_id>  (64) 
2026-08-24-6tgu-s0-n100-seed1-0067

>  <rmsd_to_ref>  (64) 


$$$$

     RDKit          3D

 59 63  0  0  0  0  0  0  0  0999 V2000
   -0.6180   19.4650   43.6770 C   0  0  0  0  0  0  0  0  0  0  0  0
    1.7480   20.8630   40.1290 C   0  0  0  0  0  0  0  0  0  0  0  0
    3.2000   17.0870   37.7160 C   0  0  0  0  0  0  0  0  0  0  0  0
    5.5110   14.2830   37.9630 O   0  0  0  0  0  0  0  0  0  0  0  0
   -0.3800   20.5710   42.9300 N   0  0  0  0  0  0  0  0  0  0  0  0
    2.5420   21.4980   36.0930 O   0  0  0  0  0  1  0  0  0  0  0  0
    0.6180   15.9610   42.9600 C   0  0  0  0  0  0  0  0  0  0  0  0
    3.3560   20.5160   36.1740 C   0  0  0  0  0  0  0  0  0  0  0  0
    5.3010   14.4260   35.7310 O   0  0  0  0  0  0  0  0  0  0  0  0
   -1.0810   17.1160   46.2310 N   0  0  0  0  0  4  0  0  0  0  0  0
   -0.4890   14.9110   45.6410 S   0  0  0  0  0  0  0  0  0  0  0  0
   -0.0020   18.2640   43.3350 C   0  0  0  0  0  0  0  0  0  0  0  0
   -1.0340   16.0970   48.4900 C   0  0  0  0  0  0  0  0  0  0  0  0
    0.4320   20.4900   41.8550 C   0  0  0  0  0  0  0  0  0  0  0  0
   -2.4310   15.9660   49.1420 C   0  0  0  0  0  0  0  0  0  0  0  0
    3.9330   19.1020   38.9880 C   0  0  0  0  0  0  0  0  0  0  0  0
    1.2290   16.6810   41.8230 C   0  0  0  0  0  0  0  0  0  0  0  0
    2.4400   17.2910   39.1050 C   0  0  0  0  0  0  0  0  0  0  0  0
    2.9500   18.5490   39.8560 C   0  0  0  0  0  0  0  0  0  0  0  0
    4.4420   16.4230   37.3600 N   0  0  0  0  0  0  0  0  0  0  0  0
    2.9220   19.3680   36.8140 N   0  0  0  0  0  0  0  0  0  0  0  0
    3.6050   13.7240   37.7290 O   0  0  0  0  0  0  0  0  0  0  0  0
   -0.1410   16.9420   43.9150 N   0  0  0  0  0  0  0  0  0  0  0  0
    0.7830   18.1800   42.2310 C   0  0  0  0  0  0  0  0  0  0  0  0
    1.9360   19.5190   40.4770 N   0  0  0  0  0  0  0  0  0  0  0  0
    4.5100   20.4620   35.5960 O   0  0  0  0  0  0  0  0  0  0  0  0
   -1.0670   16.0640   47.0670 C   0  0  0  0  0  0  0  0  0  0  0  0
    4.6340   14.8350   37.1600 P   0  0  0  0  0  5  0  0  0  0  0  0
    0.8650   21.3970   40.9670 N   0  0  0  0  0  0  0  0  0  0  0  0
    3.8000   18.5060   37.5460 C   0  0  0  0  0  0  0  0  0  0  0  0
   -0.6500   16.5460   45.0240 C   0  0  0  0  0  0  0  0  0  0  0  0
   -3.3930   16.6230   48.3560 O   0  0  0  0  0  0  0  0  0  0  0  0
    1.0770   19.2760   41.5350 C   0  0  0  0  0  0  0  0  0  0  0  0
   -0.3104   19.7012   44.7064 H   0  0  0  0  0  0  0  0  0  0  0  0
   -1.6869   19.2649   43.5113 H   0  0  0  0  0  0  0  0  0  0  0  0
    2.2472   21.3882   39.3014 H   0  0  0  0  0  0  0  0  0  0  0  0
    2.4295   16.4974   37.1977 H   0  0  0  0  0  0  0  0  0  0  0  0
    5.2479   14.4486   38.9029 H   0  0  0  0  0  0  0  0  0  0  0  0
    0.6877   14.8743   43.1153 H   0  0  0  0  0  0  0  0  0  0  0  0
   -2.0293   17.5078   46.1406 H   0  0  0  0  0  0  0  0  0  0  0  0
   -0.4952   17.9018   46.5478 H   0  0  0  0  0  0  0  0  0  0  0  0
   -0.5903   17.0526   48.8061 H   0  0  0  0  0  0  0  0  0  0  0  0
   -0.4399   15.2322   48.8204 H   0  0  0  0  0  0  0  0  0  0  0  0
   -2.6950   14.9015   49.2263 H   0  0  0  0  0  0  0  0  0  0  0  0
   -2.4070   16.4253   50.1412 H   0  0  0  0  0  0  0  0  0  0  0  0
    3.8000   20.1929   38.9410 H   0  0  0  0  0  0  0  0  0  0  0  0
    4.9300   18.8545   39.3813 H   0  0  0  0  0  0  0  0  0  0  0  0
    1.8084   16.3109   40.9643 H   0  0  0  0  0  0  0  0  0  0  0  0
    1.3634   17.4040   38.9096 H   0  0  0  0  0  0  0  0  0  0  0  0
    2.6347   16.4113   39.7360 H   0  0  0  0  0  0  0  0  0  0  0  0
    3.3714   18.2532   40.8281 H   0  0  0  0  0  0  0  0  0  0  0  0
    4.7298   16.8462   36.4661 H   0  0  0  0  0  0  0  0  0  0  0  0
    1.9230   19.1230   36.7613 H   0  0  0  0  0  0  0  0  0  0  0  0
    3.6182   13.7382   38.7188 H   0  0  0  0  0  0  0  0  0  0  0  0
   -1.7261   15.6299   47.8332 H   0  0  0  0  0  0  0  0  0  0  0  0
    4.7549   18.4359   37.0044 H   0  0  0  0  0  0  0  0  0  0  0  0
   -1.0951   17.0780   44.1703 H   0  0  0  0  0  0  0  0  0  0  0  0
   -4.0500   17.0717   48.9452 H   0  0  0  0  0  0  0  0  0  0  0  0
    1.8825   19.5170   42.2443 H   0  0  0  0  0  0  0  0  0  0  0  0
  2 25  1  0
  2 29  2  0
  3 20  1  0
  3 18  1  0
  5  1  1  0
  6  8  1  0
  7 23  1  0
  8 21  1  0
  9 28  2  0
 10 27  1  0
 11 27  1  0
 12  1  1  0
 12 23  1  0
 13 15  1  0
 14  5  2  0
 17 24  1  0
 17  7  2  0
 18 19  1  0
 19 16  1  0
 19 25  1  0
 24 12  2  0
 25 33  1  0
 26  8  2  0
 27 13  1  0
 28 20  1  0
 28 22  1  0
 28  4  1  0
 29 14  1  0
 30 21  1  0
 30  3  1  0
 30 16  1  0
 31 23  1  0
 31 11  1  0
 31 10  1  0
 32 15  1  0
 33 14  1  0
 33 24  1  0
  1 34  1  0
  1 35  1  0
  2 36  1  0
  3 37  1  0
  4 38  1  0
  7 39  1  0
 10 40  1  0
 10 41  1  0
 13 42  1  0
 13 43  1  0
 15 44  1  0
 15 45  1  0
 16 46  1  0
 16 47  1  0
 17 48  1  0
 18 49  1  0
 18 50  1  0
 19 51  1  0
 20 52  1  0
 21 53  1  0
 22 54  1  0
 27 55  1  0
 30 56  1  0
 31 57  1  0
 32 58  1  0
 33 59  1  0
M  CHG  2   6  -1  10   1
M  END
>  <mol_id>  (65) 
2026-08-24-6tgu-s0-n100-seed1-0068

>  <rmsd_to_ref>  (65) 


$$$$

     RDKit          3D

 17 18  0  0  0  0  0  0  0  0999 V2000
    3.2730   18.4540   38.2170 C   0  0  0  0  0  0  0  0  0  0  0  0
    2.1560   20.4440   38.8610 O   0  0  0  0  0  0  0  0  0  0  0  0
    0.8470   18.8030   42.3820 C   0  0  0  0  0  0  0  0  0  0  0  0
    1.7810   19.8320   39.9980 C   0  0  0  0  0  0  0  0  0  0  0  0
    2.8250   19.7340   37.9510 C   0  0  0  0  0  0  0  0  0  0  0  0
    2.9790   20.3730   36.8480 O   0  0  0  0  0  0  0  0  0  0  0  0
    2.0510   18.5010   40.2480 C   0  0  0  0  0  0  0  0  0  0  0  0
    2.8340   17.7920   39.3460 C   0  0  0  0  0  0  0  0  0  0  0  0
    0.6220   20.1500   42.0350 C   0  0  0  0  0  0  0  0  0  0  0  0
    1.5710   17.9280   41.4650 C   0  0  0  0  0  0  0  0  0  0  0  0
    1.0480   20.6510   40.8100 C   0  0  0  0  0  0  0  0  0  0  0  0
    3.9783   17.9634   37.5301 H   0  0  0  0  0  0  0  0  0  0  0  0
    0.4780   18.4118   43.3416 H   0  0  0  0  0  0  0  0  0  0  0  0
    3.0954   16.7387   39.5253 H   0  0  0  0  0  0  0  0  0  0  0  0
    0.1028   20.8135   42.7422 H   0  0  0  0  0  0  0  0  0  0  0  0
    1.7405   16.8674   41.7023 H   0  0  0  0  0  0  0  0  0  0  0  0
    0.8018   21.6782   40.5030 H   0  0  0  0  0  0  0  0  0  0  0  0
  1  8  2  0
  2  4  1  0
  4  7  2  0
  4 11  1  0
  5  1  1  0
  5  2  1  0
  6  5  2  0
  7 10  1  0
  8  7  1  0
  9  3  1  0
 10  3  2  0
 11  9  2  0
  1 12  1  0
  3 13  1  0
  8 14  1  0
  9 15  1  0
 10 16  1  0
 11 17  1  0
M  END
>  <mol_id>  (66) 
2026-08-24-6tgu-s0-n100-seed1-0069

>  <rmsd_to_ref>  (66) 


$$$$

     RDKit          3D

 24 26  0  0  0  0  0  0  0  0999 V2000
    1.7850   18.2880   40.7440 C   0  0  0  0  0  0  0  0  0  0  0  0
    3.5950   17.1590   37.9250 O   0  0  0  0  0  0  0  0  0  0  0  0
    1.4710   19.6360   40.3330 C   0  0  0  0  0  0  0  0  0  0  0  0
    2.0970   20.1450   38.9990 C   0  0  0  0  0  0  0  0  0  0  0  0
    3.1010   17.9690   38.7190 C   0  0  0  0  0  0  0  0  0  0  0  0
    3.1390   20.7070   36.3090 N   0  0  0  0  0  0  0  0  0  0  0  0
    0.0270   17.8290   43.8930 O   0  0  0  0  0  0  0  0  0  0  0  0
    1.3070   17.6910   41.9140 C   0  0  0  0  0  0  0  0  0  0  0  0
    2.5880   17.5110   39.8760 N   0  0  0  0  0  0  0  0  0  0  0  0
    2.8200   19.2120   38.2480 C   0  0  0  0  0  0  0  0  0  0  0  0
    0.0630   19.7880   42.4190 C   0  0  0  0  0  0  0  0  0  0  0  0
    0.5770   20.3640   41.2280 C   0  0  0  0  0  0  0  0  0  0  0  0
    3.3610   19.5080   36.9110 C   0  0  0  0  0  0  0  0  0  0  0  0
    0.4190   18.4270   42.8460 C   0  0  0  0  0  0  0  0  0  0  0  0
    1.8460   21.3630   38.3560 C   0  0  0  0  0  0  0  0  0  0  0  0
    2.4110   21.6100   37.0260 C   0  0  0  0  0  0  0  0  0  0  0  0
    0.6030   19.2622   39.7701 H   0  0  0  0  0  0  0  0  0  0  0  0
    0.7548   16.7923   41.6019 H   0  0  0  0  0  0  0  0  0  0  0  0
    2.2236   17.5624   42.5085 H   0  0  0  0  0  0  0  0  0  0  0  0
   -0.6239   20.3790   43.0427 H   0  0  0  0  0  0  0  0  0  0  0  0
    0.2917   21.3947   40.9706 H   0  0  0  0  0  0  0  0  0  0  0  0
    3.9563   18.7444   36.3889 H   0  0  0  0  0  0  0  0  0  0  0  0
    1.2284   22.1302   38.8459 H   0  0  0  0  0  0  0  0  0  0  0  0
    2.2346   22.5967   36.5729 H   0  0  0  0  0  0  0  0  0  0  0  0
  1  8  1  0
  2  5  2  0
  3  1  1  0
  3 12  1  0
  4  3  1  0
  5  9  1  0
  6 13  2  0
  6 16  1  0
  8 14  1  0
  9  1  2  0
 10  5  1  0
 10  4  2  0
 11 14  1  0
 12 11  2  0
 13 10  1  0
 14  7  2  0
 15  4  1  0
 16 15  2  0
  3 17  1  0
  8 18  1  0
  8 19  1  0
 11 20  1  0
 12 21  1  0
 13 22  1  0
 15 23  1  0
 16 24  1  0
M  END
>  <mol_id>  (67) 
2026-08-24-6tgu-s0-n100-seed1-0070

>  <rmsd_to_ref>  (67) 


$$$$

     RDKit          3D

 47 51  0  0  0  0  0  0  0  0999 V2000
    2.5180   16.9160   40.3140 O   0  0  0  0  0  0  0  0  0  0  0  0
   -2.0270   19.3100   45.9970 N   0  0  0  0  0  0  0  0  0  0  0  0
    2.9970   15.4640   40.0290 C   0  0  0  0  0  0  0  0  0  0  0  0
    0.1440   20.8690   41.9260 C   0  0  0  0  0  0  0  0  0  0  0  0
    0.8720   15.2010   42.4100 C   0  0  0  0  0  0  0  0  0  0  0  0
    3.9840   17.4650   37.1790 C   0  0  0  0  0  0  0  0  0  0  0  0
    0.1540   15.7940   43.5270 C   0  0  0  0  0  0  0  0  0  0  0  0
   -1.0930   16.8210   45.8850 C   0  0  0  0  0  0  0  0  0  0  0  0
   -0.2280   14.9610   44.6580 C   0  0  0  0  0  0  0  0  0  0  0  0
    3.3550   17.3920   38.3040 N   0  0  0  0  0  0  0  0  0  0  0  0
   -0.9060   20.1390   43.9440 N   0  0  0  0  0  0  0  0  0  0  0  0
   -0.7440   17.7570   44.7850 C   0  0  0  0  0  0  0  0  0  0  0  0
    2.2100   21.1200   37.9850 C   0  0  0  0  0  0  0  0  0  0  0  0
    2.7510   17.9030   39.4070 C   0  0  0  0  0  0  0  0  0  0  0  0
   -1.1070   19.0900   44.7360 C   0  0  0  0  0  0  0  0  0  0  0  0
    1.3260   21.7100   39.0950 O   0  0  0  0  0  0  0  0  0  0  0  0
    1.6650   19.6170   40.6500 C   0  0  0  0  0  0  0  0  0  0  0  0
   -0.0990   17.2580   43.5510 C   0  0  0  0  0  0  0  0  0  0  0  0
   -0.8020   15.4620   45.8440 C   0  0  0  0  0  0  0  0  0  0  0  0
    3.2270   20.2650   38.5030 C   0  0  0  0  0  0  0  0  0  0  0  0
   -0.2030   19.7970   42.8660 C   0  0  0  0  0  0  0  0  0  0  0  0
    4.0380   20.1470   37.3720 C   0  0  0  0  0  0  0  0  0  0  0  0
    0.3580   18.5210   42.5870 C   0  0  0  0  0  0  0  0  0  0  0  0
    1.2330   18.6110   41.5690 N   0  0  0  0  0  0  0  0  0  0  0  0
    2.0920   21.4830   36.9160 O   0  0  0  0  0  0  0  0  0  0  0  0
    4.4090   16.1240   36.5850 C   0  0  0  0  0  0  0  0  0  0  0  0
    4.2420   18.7400   36.5720 N   0  0  0  0  0  0  0  0  0  0  0  0
    1.1100   21.0000   40.5750 C   0  0  0  0  0  0  0  0  0  0  0  0
    2.5860   19.3740   39.7540 N   0  0  0  0  0  0  0  0  0  0  0  0
   -2.2133   18.5283   46.6413 H   0  0  0  0  0  0  0  0  0  0  0  0
   -2.4419   20.2355   46.1766 H   0  0  0  0  0  0  0  0  0  0  0  0
    3.1695   14.9412   40.9813 H   0  0  0  0  0  0  0  0  0  0  0  0
    2.2272   14.9305   39.4520 H   0  0  0  0  0  0  0  0  0  0  0  0
    3.9331   15.4933   39.4520 H   0  0  0  0  0  0  0  0  0  0  0  0
   -0.3554   21.8173   42.1738 H   0  0  0  0  0  0  0  0  0  0  0  0
    1.6672   14.5442   42.7925 H   0  0  0  0  0  0  0  0  0  0  0  0
    0.1740   14.6126   41.7963 H   0  0  0  0  0  0  0  0  0  0  0  0
    1.3179   15.9976   41.7963 H   0  0  0  0  0  0  0  0  0  0  0  0
   -1.6050   17.2216   46.7724 H   0  0  0  0  0  0  0  0  0  0  0  0
   -0.0588   13.8767   44.5827 H   0  0  0  0  0  0  0  0  0  0  0  0
   -1.0110   14.8052   46.7013 H   0  0  0  0  0  0  0  0  0  0  0  0
    4.0798   20.2984   39.1970 H   0  0  0  0  0  0  0  0  0  0  0  0
    3.6381   20.8598   36.6358 H   0  0  0  0  0  0  0  0  0  0  0  0
    5.0390   20.3059   37.7996 H   0  0  0  0  0  0  0  0  0  0  0  0
    4.6329   15.4174   37.3978 H   0  0  0  0  0  0  0  0  0  0  0  0
    3.5939   15.7229   35.9647 H   0  0  0  0  0  0  0  0  0  0  0  0
    5.3063   16.2656   35.9647 H   0  0  0  0  0  0  0  0  0  0  0  0
  3  1  1  0
  4 21  2  0
  5  7  1  0
  6 10  1  0
  7 18  2  0
  7  9  1  0
  9 19  2  0
 10 14  2  0
 11 15  2  0
 12  8  2  0
 13 20  1  0
 13 16  1  0
 14 29  1  0
 14  1  1  0
 15 12  1  0
 15  2  1  0
 16 28  1  0
 17 24  1  0
 18 12  1  0
 19  8  1  0
 20 22  1  0
 20 29  1  0
 21 11  1  0
 23 21  1  0
 23 18  1  0
 24 23  2  0
 25 13  2  0
 26  6  1  0
 27  6  2  0
 27 22  1  0
 28 17  2  0
 28  4  1  0
 29 17  1  0
  2 30  1  0
  2 31  1  0
  3 32  1  0
  3 33  1  0
  3 34  1  0
  4 35  1  0
  5 36  1  0
  5 37  1  0
  5 38  1  0
  8 39  1  0
  9 40  1  0
 19 41  1  0
 20 42  1  0
 22 43  1  0
 22 44  1  0
 26 45  1  0
 26 46  1  0
 26 47  1  0
M  END
>  <mol_id>  (68) 
2026-08-24-6tgu-s0-n100-seed1-0071

>  <rmsd_to_ref>  (68) 


$$$$

     RDKit          3D

 39 40  0  0  0  0  0  0  0  0999 V2000
   -0.4600   17.6770   44.2600 C   0  0  0  0  0  0  0  0  0  0  0  0
    1.5220   21.3090   39.4900 C   0  0  0  0  0  0  0  0  0  0  0  0
    3.1350   19.8010   38.4240 C   0  0  0  0  0  0  0  0  0  0  0  0
    1.4940   13.9500   42.6880 C   0  0  0  0  0  0  0  0  0  0  0  0
    1.2260   19.3400   41.0360 C   0  0  0  0  0  0  0  0  0  0  0  0
    4.0850   16.8710   36.5090 N   0  0  0  0  0  0  0  0  0  0  0  0
    0.1720   17.7540   43.1290 C   0  0  0  0  0  0  0  0  0  0  0  0
    3.0310   18.7980   39.3240 C   0  0  0  0  0  0  0  0  0  0  0  0
    2.5370   14.0450   41.7310 C   0  0  0  0  0  0  0  0  0  0  0  0
   -0.9040   18.8610   44.8700 N   0  0  0  0  0  0  0  0  0  0  0  0
    0.3690   19.0050   42.3240 C   0  0  0  0  0  0  0  0  0  0  0  0
    0.7050   16.4220   42.5610 C   0  0  0  0  0  0  0  0  0  0  0  0
    1.1330   12.8110   43.2190 O   0  0  0  0  0  0  0  0  0  0  0  0
    0.5990   15.0980   43.1750 C   0  0  0  0  0  0  0  0  0  0  0  0
    3.5790   19.3940   37.0500 C   0  0  0  0  0  0  0  0  0  0  0  0
    1.5180   16.4830   41.6130 O   0  0  0  0  0  0  0  0  0  0  0  0
    2.1520   18.4850   40.4110 C   0  0  0  0  0  0  0  0  0  0  0  0
   -0.6210   19.8840   44.2030 C   0  0  0  0  0  0  0  0  0  0  0  0
    3.7970   18.1110   36.9240 N   0  0  0  0  0  0  0  0  0  0  0  0
    2.4060   20.9290   38.4700 C   0  0  0  0  0  0  0  0  0  0  0  0
    3.6610   20.1620   36.2220 O   0  0  0  0  0  0  0  0  0  0  0  0
    1.0060   20.5950   40.5070 C   0  0  0  0  0  0  0  0  0  0  0  0
   -0.1270   20.0670   42.9330 N   0  0  0  0  0  0  0  0  0  0  0  0
   -0.6446   16.7009   44.7325 H   0  0  0  0  0  0  0  0  0  0  0  0
    1.1984   22.3597   39.4527 H   0  0  0  0  0  0  0  0  0  0  0  0
    4.2269   16.2599   37.3259 H   0  0  0  0  0  0  0  0  0  0  0  0
    3.3056   16.5094   35.9409 H   0  0  0  0  0  0  0  0  0  0  0  0
    3.8124   18.0357   39.1887 H   0  0  0  0  0  0  0  0  0  0  0  0
    3.5033   14.1330   42.2493 H   0  0  0  0  0  0  0  0  0  0  0  0
    2.5397   13.1434   41.1009 H   0  0  0  0  0  0  0  0  0  0  0  0
    2.3768   14.9323   41.1009 H   0  0  0  0  0  0  0  0  0  0  0  0
    1.6244   11.9817   42.9932 H   0  0  0  0  0  0  0  0  0  0  0  0
   -0.1230   14.9252   43.9867 H   0  0  0  0  0  0  0  0  0  0  0  0
    2.2075   17.4583   40.8018 H   0  0  0  0  0  0  0  0  0  0  0  0
   -0.8050   20.8248   44.7425 H   0  0  0  0  0  0  0  0  0  0  0  0
    3.5764   17.8593   37.8981 H   0  0  0  0  0  0  0  0  0  0  0  0
    2.5134   21.6231   37.6235 H   0  0  0  0  0  0  0  0  0  0  0  0
    1.1708   21.2538   41.3723 H   0  0  0  0  0  0  0  0  0  0  0  0
    0.0951   20.3059   39.9623 H   0  0  0  0  0  0  0  0  0  0  0  0
  1 10  2  0
  2 22  1  0
  3 20  1  0
  3  8  2  0
  4 14  2  3
  4 13  1  0
  5 11  1  0
  6 19  1  0
  7  1  1  0
  8 17  1  0
  9  4  1  0
 11 23  1  0
 11  7  2  0
 12  7  1  0
 12 14  1  0
 15  3  1  0
 16 12  2  0
 17  5  2  0
 18 10  1  0
 19 15  1  0
 20  2  2  0
 21 15  2  0
 22  5  1  0
 23 18  2  0
  1 24  1  0
  2 25  1  0
  6 26  1  0
  6 27  1  0
  8 28  1  0
  9 29  1  0
  9 30  1  0
  9 31  1  0
 13 32  1  0
 14 33  1  0
 17 34  1  0
 18 35  1  0
 19 36  1  0
 20 37  1  0
 22 38  1  0
 22 39  1  0
M  END
>  <mol_id>  (69) 
2026-08-24-6tgu-s0-n100-seed1-0072

>  <rmsd_to_ref>  (69) 


$$$$

     RDKit          3D

 28 28  0  0  0  0  0  0  0  0999 V2000
    3.9880   20.2320   36.2560 O   0  0  0  0  0  0  0  0  0  0  0  0
   -0.1420   19.2810   43.0450 C   0  0  0  0  0  0  0  0  0  0  0  0
    3.2260   20.0290   37.2110 C   0  0  0  0  0  0  0  0  0  0  0  0
    0.2670   16.8940   43.1270 C   0  0  0  0  0  0  0  0  0  0  0  0
    3.8050   17.8430   37.9040 O   0  0  0  0  0  0  0  0  0  0  0  0
   -1.5350   17.8040   44.4520 C   0  0  0  0  0  0  0  0  0  0  0  0
    1.5600   18.3360   41.5710 C   0  0  0  0  0  0  0  0  0  0  0  0
    2.1090   20.1400   39.9690 C   0  0  0  0  0  0  0  0  0  0  0  0
    1.0250   19.3920   40.6160 C   0  0  0  0  0  0  0  0  0  0  0  0
    3.4510   19.0180   38.2090 C   0  0  0  0  0  0  0  0  0  0  0  0
    2.2860   20.8170   37.2040 O   0  0  0  0  0  1  0  0  0  0  0  0
   -1.1840   19.1000   43.9300 C   0  0  0  0  0  0  0  0  0  0  0  0
    0.5550   18.1630   42.6210 C   0  0  0  0  0  0  0  0  0  0  0  0
   -0.7380   16.7370   43.9950 C   0  0  0  0  0  0  0  0  0  0  0  0
    3.4240   19.3810   39.6470 C   0  0  0  0  0  0  0  0  0  0  0  0
    0.1275   20.2853   42.6863 H   0  0  0  0  0  0  0  0  0  0  0  0
    0.8650   16.0260   42.8126 H   0  0  0  0  0  0  0  0  0  0  0  0
   -2.3664   17.6584   45.1574 H   0  0  0  0  0  0  0  0  0  0  0  0
    2.5117   18.6703   42.0098 H   0  0  0  0  0  0  0  0  0  0  0  0
    1.7466   17.3881   41.0450 H   0  0  0  0  0  0  0  0  0  0  0  0
    1.7156   20.5311   39.0191 H   0  0  0  0  0  0  0  0  0  0  0  0
    2.4024   20.8974   40.7108 H   0  0  0  0  0  0  0  0  0  0  0  0
    0.3941   20.0951   41.1796 H   0  0  0  0  0  0  0  0  0  0  0  0
    0.4455   18.8824   39.8321 H   0  0  0  0  0  0  0  0  0  0  0  0
   -1.7678   19.9762   44.2486 H   0  0  0  0  0  0  0  0  0  0  0  0
   -0.9524   15.7254   44.3701 H   0  0  0  0  0  0  0  0  0  0  0  0
    3.4773   18.4667   40.2562 H   0  0  0  0  0  0  0  0  0  0  0  0
    4.2839   20.0275   39.8763 H   0  0  0  0  0  0  0  0  0  0  0  0
  1  3  2  0
  2 12  2  0
  3 10  1  0
  4 14  1  0
  5 10  2  0
  7 13  1  0
  8  9  1  0
  9  7  1  0
 10 15  1  0
 11  3  1  0
 12  6  1  0
 13  2  1  0
 13  4  2  0
 14  6  2  0
 15  8  1  0
  2 16  1  0
  4 17  1  0
  6 18  1  0
  7 19  1  0
  7 20  1  0
  8 21  1  0
  8 22  1  0
  9 23  1  0
  9 24  1  0
 12 25  1  0
 14 26  1  0
 15 27  1  0
 15 28  1  0
M  CHG  1  11  -1
M  END
>  <mol_id>  (70) 
2026-08-24-6tgu-s0-n100-seed1-0073

>  <rmsd_to_ref>  (70) 


$$$$

     RDKit          3D

 49 54  0  0  0  0  0  0  0  0999 V2000
    3.5990   18.9560   36.9800 C   0  0  0  0  0  0  0  0  0  0  0  0
    0.8590   16.0360   42.2940 C   0  0  0  0  0  0  0  0  0  0  0  0
   -0.6520   14.3310   45.6170 C   0  0  0  0  0  0  0  0  0  0  0  0
   -0.8730   20.7700   43.5390 C   0  0  0  0  0  0  0  0  0  0  0  0
    3.0480   22.0550   35.0610 N   0  0  0  0  0  0  0  0  0  0  0  0
    2.9420   19.3160   38.2180 C   0  0  0  0  0  0  0  0  0  0  0  0
   -0.4790   13.0130   45.7600 C   0  0  0  0  0  0  0  0  0  0  0  0
    2.7440   18.3650   39.2710 C   0  0  0  0  0  0  0  0  0  0  0  0
    2.3140   20.5450   38.3250 C   0  0  0  0  0  0  0  0  0  0  0  0
   -0.1600   14.9370   44.4890 C   0  0  0  0  0  0  0  0  0  0  0  0
   -0.0560   21.0750   42.2560 C   0  0  0  0  0  0  0  0  0  0  0  0
    0.5700   12.7990   43.6540 N   0  0  0  0  0  0  0  0  0  0  0  0
   -0.1560   18.3440   42.9720 C   0  0  0  0  0  0  0  0  0  0  0  0
    1.8630   18.8160   40.2820 C   0  0  0  0  0  0  0  0  0  0  0  0
    2.9960   21.1300   36.1350 C   0  0  0  0  0  0  0  0  0  0  0  0
   -1.0810   20.3060   44.1360 N   0  0  0  0  0  4  0  0  0  0  0  0
    1.0020   14.7310   42.3830 C   0  0  0  0  0  0  0  0  0  0  0  0
    0.4470   14.1190   43.5050 C   0  0  0  0  0  0  0  0  0  0  0  0
    3.3420   17.1300   39.2450 O   0  0  0  0  0  0  0  0  0  0  0  0
   -1.0580   18.8980   44.0150 C   0  0  0  0  0  0  0  0  0  0  0  0
    3.6280   19.8460   36.0140 C   0  0  0  0  0  0  0  0  0  0  0  0
    1.4410   20.0850   40.4690 C   0  0  0  0  0  0  0  0  0  0  0  0
   -0.3250   16.2470   44.3050 C   0  0  0  0  0  0  0  0  0  0  0  0
    1.6640   21.0030   39.5560 C   0  0  0  0  0  0  0  0  0  0  0  0
    0.5110   18.8240   41.9200 C   0  0  0  0  0  0  0  0  0  0  0  0
    1.3750   18.1060   41.1970 N   0  0  0  0  0  0  0  0  0  0  0  0
    0.6520   20.2080   41.6290 C   0  0  0  0  0  0  0  0  0  0  0  0
    2.3430   21.4570   37.2680 C   0  0  0  0  0  0  0  0  0  0  0  0
    0.1820   16.8740   43.1570 C   0  0  0  0  0  0  0  0  0  0  0  0
    0.1040   12.2670   44.7890 C   0  0  0  0  0  0  0  0  0  0  0  0
    4.0607   17.9659   36.8514 H   0  0  0  0  0  0  0  0  0  0  0  0
    1.3364   16.5170   41.4276 H   0  0  0  0  0  0  0  0  0  0  0  0
   -1.1770   14.9162   46.3864 H   0  0  0  0  0  0  0  0  0  0  0  0
   -1.4742   21.6787   43.6902 H   0  0  0  0  0  0  0  0  0  0  0  0
    3.5458   21.8094   34.1934 H   0  0  0  0  0  0  0  0  0  0  0  0
    2.5879   22.9724   35.1487 H   0  0  0  0  0  0  0  0  0  0  0  0
   -0.8168   12.5231   46.6852 H   0  0  0  0  0  0  0  0  0  0  0  0
   -0.0856   22.1002   41.8584 H   0  0  0  0  0  0  0  0  0  0  0  0
   -0.4553   20.5413   44.9196 H   0  0  0  0  0  0  0  0  0  0  0  0
   -2.0869   20.5052   44.2334 H   0  0  0  0  0  0  0  0  0  0  0  0
    1.5322   14.1532   41.6116 H   0  0  0  0  0  0  0  0  0  0  0  0
    3.1893   16.4904   39.9851 H   0  0  0  0  0  0  0  0  0  0  0  0
   -1.6727   18.2493   44.6563 H   0  0  0  0  0  0  0  0  0  0  0  0
    4.1545   19.5992   35.0803 H   0  0  0  0  0  0  0  0  0  0  0  0
   -0.8627   16.8407   45.0589 H   0  0  0  0  0  0  0  0  0  0  0  0
    1.3792   22.0547   39.7069 H   0  0  0  0  0  0  0  0  0  0  0  0
    1.6070   17.1166   41.3647 H   0  0  0  0  0  0  0  0  0  0  0  0
    1.8390   22.4305   37.3588 H   0  0  0  0  0  0  0  0  0  0  0  0
    0.1972   11.1816   44.9410 H   0  0  0  0  0  0  0  0  0  0  0  0
  1  6  2  0
  2 17  2  0
  2 29  1  0
  3  7  1  0
  4 16  1  0
  5 15  1  0
  6  9  1  0
  6  8  1  0
  8 14  2  0
  9 24  1  0
 10  3  2  0
 11  4  2  0
 12 30  1  0
 13 29  1  0
 13 20  2  0
 14 22  1  0
 14 26  1  0
 15 28  1  0
 17 18  1  0
 18 12  2  0
 18 10  1  0
 19  8  1  0
 20 16  1  0
 21 15  2  0
 21  1  1  0
 22 27  1  0
 23 10  1  0
 24 22  2  0
 25 13  1  0
 26 25  1  0
 27 25  2  0
 27 11  1  0
 28  9  2  0
 29 23  2  0
 30  7  2  0
  1 31  1  0
  2 32  1  0
  3 33  1  0
  4 34  1  0
  5 35  1  0
  5 36  1  0
  7 37  1  0
 11 38  1  0
 16 39  1  0
 16 40  1  0
 17 41  1  0
 19 42  1  0
 20 43  1  0
 21 44  1  0
 23 45  1  0
 24 46  1  0
 26 47  1  0
 28 48  1  0
 30 49  1  0
M  CHG  1  16   1
M  END
>  <mol_id>  (71) 
2026-08-24-6tgu-s0-n100-seed1-0074

>  <rmsd_to_ref>  (71) 


$$$$

     RDKit          3D

 32 33  0  0  0  0  0  0  0  0999 V2000
    0.0710   18.5520   46.0110 N   0  0  0  0  0  0  0  0  0  0  0  0
    3.0260   16.8460   39.3310 O   0  0  0  0  0  0  0  0  0  0  0  0
    2.7400   21.4890   35.9750 O   0  0  0  0  0  0  0  0  0  0  0  0
    2.4370   20.6010   38.6110 C   0  0  0  0  0  0  0  0  0  0  0  0
   -0.6870   20.4570   43.8400 N   0  0  0  0  0  4  0  0  0  0  0  0
    2.8190   18.0410   38.9800 C   0  0  0  0  0  0  0  0  0  0  0  0
    3.9200   17.9500   36.8890 O   0  0  0  0  0  0  0  0  0  0  0  0
    0.7830   19.4110   41.7240 N   0  0  0  0  0  4  0  0  0  0  0  0
   -0.7190   18.3710   45.1890 C   0  0  0  0  0  0  0  0  0  0  0  0
    1.9260   20.0910   39.6850 C   0  0  0  0  0  0  0  0  0  0  0  0
   -1.5790   17.6770   45.1050 O   0  0  0  0  0  0  0  0  0  0  0  0
    0.0290   19.2970   42.2620 C   0  0  0  0  0  0  0  0  0  0  0  0
    2.0580   18.7160   39.8070 C   0  0  0  0  0  0  0  0  0  0  0  0
    3.5180   20.5030   36.3590 O   0  0  0  0  0  0  0  0  0  0  0  0
    3.1340   19.9650   37.6190 C   0  0  0  0  0  0  0  0  0  0  0  0
    0.4180   17.9190   42.9300 S   0  0  0  0  0  0  0  0  0  0  0  0
   -0.3870   19.1300   43.7670 C   0  0  0  0  0  0  0  0  0  0  0  0
    1.5220   18.4730   40.8050 C   0  0  0  0  0  0  0  0  0  0  0  0
    3.3510   18.5860   37.7720 C   0  0  0  0  0  0  0  0  0  0  0  0
    0.8002   19.2668   45.8760 H   0  0  0  0  0  0  0  0  0  0  0  0
    0.0467   17.9987   46.8794 H   0  0  0  0  0  0  0  0  0  0  0  0
    2.3755   21.9510   36.7711 H   0  0  0  0  0  0  0  0  0  0  0  0
    2.2930   21.6834   38.4782 H   0  0  0  0  0  0  0  0  0  0  0  0
   -0.7511   20.7406   44.8281 H   0  0  0  0  0  0  0  0  0  0  0  0
    0.0520   21.0022   43.3735 H   0  0  0  0  0  0  0  0  0  0  0  0
   -1.5886   20.6313   43.3735 H   0  0  0  0  0  0  0  0  0  0  0  0
    0.5240   20.1960   41.1095 H   0  0  0  0  0  0  0  0  0  0  0  0
    1.4732   19.3898   42.4883 H   0  0  0  0  0  0  0  0  0  0  0  0
    1.4228   20.7045   40.4468 H   0  0  0  0  0  0  0  0  0  0  0  0
   -0.5843   19.9625   41.6367 H   0  0  0  0  0  0  0  0  0  0  0  0
    3.6784   20.8604   37.9534 H   0  0  0  0  0  0  0  0  0  0  0  0
    1.5572   17.4206   41.1230 H   0  0  0  0  0  0  0  0  0  0  0  0
  3 14  1  0
  4 10  2  0
  6  2  2  0
  6 13  1  0
  7 19  2  0
  9  1  1  0
 10 13  1  0
 11  9  2  0
 12  8  1  0
 12 16  1  0
 12 17  1  0
 13 18  2  3
 15 14  1  0
 15 19  1  0
 15  4  1  0
 16 17  1  0
 17  5  1  0
 17  9  1  0
 18  8  1  0
 19  6  1  0
  1 20  1  0
  1 21  1  0
  3 22  1  0
  4 23  1  0
  5 24  1  0
  5 25  1  0
  5 26  1  0
  8 27  1  0
  8 28  1  0
 10 29  1  0
 12 30  1  0
 15 31  1  0
 18 32  1  0
M  CHG  2   5   1   8   1
M  END
>  <mol_id>  (72) 
2026-08-24-6tgu-s0-n100-seed1-0075

>  <rmsd_to_ref>  (72) 


$$$$

     RDKit          3D

 28 29  0  0  0  0  0  0  0  0999 V2000
    1.6190   18.8080   41.1500 C   0  0  0  0  0  0  0  0  0  0  0  0
    3.8750   20.4950   36.0900 O   0  0  0  0  0  0  0  0  0  0  0  0
   -0.0730   16.7870   43.5710 N   0  0  0  0  0  0  0  0  0  0  0  0
    0.7130   16.9360   42.3990 C   0  0  0  0  0  0  0  0  0  0  0  0
   -1.2850   17.9710   45.1010 N   0  0  0  0  0  0  0  0  0  0  0  0
    2.4710   18.9810   40.2360 N   0  0  0  0  0  0  0  0  0  0  0  0
   -0.5030   17.8770   44.0990 C   0  0  0  0  0  0  0  0  0  0  0  0
    3.0080   20.3890   37.0210 C   0  0  0  0  0  0  0  0  0  0  0  0
    1.8880   20.8580   37.0330 O   0  0  0  0  0  1  0  0  0  0  0  0
    2.8280   20.1400   39.5330 C   0  0  0  0  0  0  0  0  0  0  0  0
    2.9030   17.7720   39.5660 C   0  0  0  0  0  0  0  0  0  0  0  0
    0.9010   18.2590   42.1440 C   0  0  0  0  0  0  0  0  0  0  0  0
    3.5100   18.1000   38.1970 C   0  0  0  0  0  0  0  0  0  0  0  0
    0.1490   19.1910   43.2740 S   0  0  0  0  0  0  0  0  0  0  0  0
    3.5140   19.6250   38.2550 C   0  0  0  0  0  0  0  0  0  0  0  0
    1.3400   20.3140   40.7850 C   0  0  0  0  0  0  0  0  0  0  0  0
    2.3818   19.1253   41.8763 H   0  0  0  0  0  0  0  0  0  0  0  0
    1.1091   16.1095   41.7907 H   0  0  0  0  0  0  0  0  0  0  0  0
   -1.5701   18.8985   45.4465 H   0  0  0  0  0  0  0  0  0  0  0  0
   -1.6319   17.1195   45.5652 H   0  0  0  0  0  0  0  0  0  0  0  0
    1.9356   20.7324   39.2826 H   0  0  0  0  0  0  0  0  0  0  0  0
    3.4838   20.7986   40.1213 H   0  0  0  0  0  0  0  0  0  0  0  0
    2.8086   16.7581   39.9820 H   0  0  0  0  0  0  0  0  0  0  0  0
    3.8480   17.4251   37.3969 H   0  0  0  0  0  0  0  0  0  0  0  0
    4.5892   19.8568   38.2696 H   0  0  0  0  0  0  0  0  0  0  0  0
    1.2312   20.9011   41.7088 H   0  0  0  0  0  0  0  0  0  0  0  0
    2.1800   20.7101   40.1956 H   0  0  0  0  0  0  0  0  0  0  0  0
    0.4138   20.3829   40.1956 H   0  0  0  0  0  0  0  0  0  0  0  0
  1 16  1  0
  1 12  1  0
  2  8  2  0
  3  7  2  0
  4  3  1  0
  6  1  1  0
  7  5  1  0
  8  9  1  0
 10  6  1  0
 11  6  1  0
 12  4  2  0
 12 14  1  0
 13 15  1  0
 13 11  2  0
 14  7  1  0
 15  8  1  0
 15 10  1  0
  1 17  1  0
  4 18  1  0
  5 19  1  0
  5 20  1  0
 10 21  1  0
 10 22  1  0
 11 23  1  0
 13 24  1  0
 15 25  1  0
 16 26  1  0
 16 27  1  0
 16 28  1  0
M  CHG  1   9  -1
M  END
>  <mol_id>  (73) 
2026-08-24-6tgu-s0-n100-seed1-0076

>  <rmsd_to_ref>  (73) 


$$$$

     RDKit          3D

 48 51  0  0  0  0  0  0  0  0999 V2000
    2.3670   14.9320   41.2510 C   0  0  0  0  0  0  0  0  0  0  0  0
   -1.0710   21.0680   43.6040 O   0  0  0  0  0  0  0  0  0  0  0  0
    2.5510   19.6130   37.7930 C   0  0  0  0  0  0  0  0  0  0  0  0
    1.4530   19.2410   41.1760 C   0  0  0  0  0  0  0  0  0  0  0  0
   -0.5630   20.0370   43.2390 C   0  0  0  0  0  0  0  0  0  0  0  0
    3.9510   13.2860   37.8360 O   0  0  0  0  0  0  0  0  0  0  0  0
    2.5260   19.1420   38.9520 N   0  0  0  0  0  0  0  0  0  0  0  0
    1.9570   19.8480   40.0930 C   0  0  0  0  0  0  0  0  0  0  0  0
    2.6270   13.5940   41.2610 C   0  0  0  0  0  0  0  0  0  0  0  0
    2.6870   15.7670   40.1140 C   0  0  0  0  0  0  0  0  0  0  0  0
    3.4280   13.7600   38.9900 C   0  0  0  0  0  0  0  0  0  0  0  0
    2.8310   17.7600   38.8890 C   0  0  0  0  0  0  0  0  0  0  0  0
    0.8730   16.2930   42.6160 N   0  0  0  0  0  0  0  0  0  0  0  0
    2.2400   21.4720   36.5780 O   0  0  0  0  0  0  0  0  0  0  0  0
    3.2210   17.0450   37.7330 C   0  0  0  0  0  0  0  0  0  0  0  0
    0.6220   21.4270   41.7880 C   0  0  0  0  0  0  0  0  0  0  0  0
    3.4950   15.7530   37.8250 N   0  0  0  0  0  0  0  0  0  0  0  0
    0.4880   20.0230   42.0480 C   0  0  0  0  0  0  0  0  0  0  0  0
    1.6620   15.5200   42.1930 N   0  0  0  0  0  0  0  0  0  0  0  0
    3.0740   20.4030   36.8210 C   0  0  0  0  0  0  0  0  0  0  0  0
    4.1840   21.0720   34.9400 O   0  0  0  0  0  0  0  0  0  0  0  0
   -1.0130   18.8380   43.9650 N   0  0  0  0  0  0  0  0  0  0  0  0
    4.1650   20.1820   36.0340 N   0  0  0  0  0  0  0  0  0  0  0  0
    1.0510   21.9290   40.7060 N   0  0  0  0  0  0  0  0  0  0  0  0
    3.1840   12.9470   40.0900 C   0  0  0  0  0  0  0  0  0  0  0  0
    3.1770   15.1330   39.0080 C   0  0  0  0  0  0  0  0  0  0  0  0
   -0.9610   16.3810   44.3960 C   0  0  0  0  0  0  0  0  0  0  0  0
    2.6020   17.1120   40.1030 N   0  0  0  0  0  0  0  0  0  0  0  0
    0.4500   17.5610   42.8740 N   0  0  0  0  0  0  0  0  0  0  0  0
    1.7140   21.1850   39.8410 C   0  0  0  0  0  0  0  0  0  0  0  0
   -0.5370   17.6440   43.7660 C   0  0  0  0  0  0  0  0  0  0  0  0
    2.5873   18.6596   37.2456 H   0  0  0  0  0  0  0  0  0  0  0  0
    2.0191   20.4959   38.1770 H   0  0  0  0  0  0  0  0  0  0  0  0
    1.7305   18.2063   41.4257 H   0  0  0  0  0  0  0  0  0  0  0  0
    4.1570   12.3219   37.7451 H   0  0  0  0  0  0  0  0  0  0  0  0
    2.4128   13.0020   42.1630 H   0  0  0  0  0  0  0  0  0  0  0  0
    0.1117   15.6994   42.9751 H   0  0  0  0  0  0  0  0  0  0  0  0
    3.2962   17.5591   36.7634 H   0  0  0  0  0  0  0  0  0  0  0  0
    0.3300   22.1218   42.5893 H   0  0  0  0  0  0  0  0  0  0  0  0
    1.9731   15.0299   43.0438 H   0  0  0  0  0  0  0  0  0  0  0  0
    4.2039   22.0040   35.2732 H   0  0  0  0  0  0  0  0  0  0  0  0
    4.8792   19.4620   36.2141 H   0  0  0  0  0  0  0  0  0  0  0  0
    3.4021   11.8690   40.0729 H   0  0  0  0  0  0  0  0  0  0  0  0
   -0.9254   16.4871   45.4903 H   0  0  0  0  0  0  0  0  0  0  0  0
   -1.9885   16.1424   44.0840 H   0  0  0  0  0  0  0  0  0  0  0  0
   -0.2856   15.5708   44.0840 H   0  0  0  0  0  0  0  0  0  0  0  0
    0.8592   18.3886   42.4173 H   0  0  0  0  0  0  0  0  0  0  0  0
    2.0785   21.6354   38.9060 H   0  0  0  0  0  0  0  0  0  0  0  0
  1  9  1  0
  1 19  1  0
  3  7  1  0
  4 18  2  0
  5  2  2  0
  5 22  1  0
  6 11  1  0
  7  8  1  0
  8  4  1  0
 10  1  2  0
 11 26  2  0
 11 25  1  0
 12  7  1  0
 12 28  2  0
 13 29  1  0
 14 20  2  0
 15 17  2  0
 15 12  1  0
 16 18  1  0
 17 26  1  0
 18  5  1  0
 19 13  1  0
 20  3  1  0
 21 23  1  0
 23 20  1  0
 24 16  2  0
 25  9  2  0
 26 10  1  0
 28 10  1  0
 29 31  1  0
 30  8  2  0
 30 24  1  0
 31 22  2  0
 31 27  1  0
  3 32  1  0
  3 33  1  0
  4 34  1  0
  6 35  1  0
  9 36  1  0
 13 37  1  0
 15 38  1  0
 16 39  1  0
 19 40  1  0
 21 41  1  0
 23 42  1  0
 25 43  1  0
 27 44  1  0
 27 45  1  0
 27 46  1  0
 29 47  1  0
 30 48  1  0
M  END
>  <mol_id>  (74) 
2026-08-24-6tgu-s0-n100-seed1-0077

>  <rmsd_to_ref>  (74) 


$$$$

     RDKit          3D

 37 42  0  0  0  0  0  0  0  0999 V2000
    2.7660   18.5620   38.5660 C   0  0  0  0  0  0  0  0  0  0  0  0
    0.5810   20.5320   41.8640 C   0  0  0  0  0  0  0  0  0  0  0  0
    0.7180   19.1770   42.0630 C   0  0  0  0  0  0  0  0  0  0  0  0
    1.2070   20.9270   40.7730 O   0  0  0  0  0  0  0  0  0  0  0  0
    0.2120   17.1430   43.2700 C   0  0  0  0  0  0  0  0  0  0  0  0
    3.7940   16.8640   37.4220 C   0  0  0  0  0  0  0  0  0  0  0  0
    3.6690   20.7590   36.0290 O   0  0  0  0  0  0  0  0  0  0  0  0
    3.3060   18.8360   37.3470 C   0  0  0  0  0  0  0  0  0  0  0  0
    2.3070   20.6820   38.0660 C   0  0  0  0  0  0  0  0  0  0  0  0
   -0.9690   20.6590   43.7360 N   0  0  0  0  0  0  0  0  0  0  0  0
    0.9700   14.8310   42.8450 C   0  0  0  0  0  0  0  0  0  0  0  0
    3.0930   17.1310   38.6360 C   0  0  0  0  0  0  0  0  0  0  0  0
    0.9190   16.2000   42.5330 C   0  0  0  0  0  0  0  0  0  0  0  0
    0.1760   14.3570   43.9280 C   0  0  0  0  0  0  0  0  0  0  0  0
   -0.5780   15.3040   44.5920 C   0  0  0  0  0  0  0  0  0  0  0  0
   -0.5640   16.5900   44.3770 C   0  0  0  0  0  0  0  0  0  0  0  0
   -0.6330   19.2900   43.9230 C   0  0  0  0  0  0  0  0  0  0  0  0
    1.6040   18.7880   41.0360 C   0  0  0  0  0  0  0  0  0  0  0  0
    1.7790   19.8090   40.2550 C   0  0  0  0  0  0  0  0  0  0  0  0
    1.7360   16.4510   41.3310 N   0  0  0  0  0  0  0  0  0  0  0  0
    3.9810   17.8930   36.7080 N   0  0  0  0  0  0  0  0  0  0  0  0
   -0.3150   21.2510   42.6990 C   0  0  0  0  0  0  0  0  0  0  0  0
    0.1190   18.5160   43.0480 C   0  0  0  0  0  0  0  0  0  0  0  0
    1.9950   17.5860   40.8550 N   0  0  0  0  0  0  0  0  0  0  0  0
    2.2460   19.6850   39.0500 N   0  0  0  0  0  0  0  0  0  0  0  0
    3.1120   20.2160   37.0010 C   0  0  0  0  0  0  0  0  0  0  0  0
    4.1390   15.8600   37.1339 H   0  0  0  0  0  0  0  0  0  0  0  0
    1.2942   20.9007   37.6968 H   0  0  0  0  0  0  0  0  0  0  0  0
    2.7384   21.6014   38.4887 H   0  0  0  0  0  0  0  0  0  0  0  0
    1.6063   14.1437   42.2681 H   0  0  0  0  0  0  0  0  0  0  0  0
    3.7305   16.9202   39.5073 H   0  0  0  0  0  0  0  0  0  0  0  0
    2.1972   16.5026   38.7482 H   0  0  0  0  0  0  0  0  0  0  0  0
    0.1641   13.2963   44.2191 H   0  0  0  0  0  0  0  0  0  0  0  0
   -1.2555   14.9386   45.3778 H   0  0  0  0  0  0  0  0  0  0  0  0
   -1.1389   17.2612   45.0320 H   0  0  0  0  0  0  0  0  0  0  0  0
   -0.9997   18.8023   44.8383 H   0  0  0  0  0  0  0  0  0  0  0  0
   -0.4859   22.3196   42.5017 H   0  0  0  0  0  0  0  0  0  0  0  0
  1 12  1  0
  1 25  1  0
  2  3  2  0
  2 22  1  0
  3 23  1  0
  4  2  1  0
  5 16  2  0
  6 12  1  0
  7 26  2  0
  8  1  2  0
  9 25  1  0
 10 17  1  0
 11 14  1  0
 13 11  2  0
 13  5  1  0
 14 15  2  0
 16 15  1  0
 18  3  1  0
 19  4  1  0
 19 18  2  0
 20 13  1  0
 21  8  1  0
 21  6  2  0
 22 10  2  0
 23  5  1  0
 23 17  2  0
 24 18  1  0
 24 20  2  0
 25 19  1  0
 26  8  1  0
 26  9  1  0
  6 27  1  0
  9 28  1  0
  9 29  1  0
 11 30  1  0
 12 31  1  0
 12 32  1  0
 14 33  1  0
 15 34  1  0
 16 35  1  0
 17 36  1  0
 22 37  1  0
M  END
>  <mol_id>  (75) 
2026-08-24-6tgu-s0-n100-seed1-0078

>  <rmsd_to_ref>  (75) 


$$$$

     RDKit          3D

 39 40  0  0  0  0  0  0  0  0999 V2000
    0.4390   16.8490   42.8920 C   0  0  0  0  0  0  0  0  0  0  0  0
    5.3120   15.5720   36.3030 O   0  0  0  0  0  0  0  0  0  0  0  0
    1.4790   18.5410   40.8990 C   0  0  0  0  0  0  0  0  0  0  0  0
   -0.7360   21.0330   41.2940 C   0  0  0  0  0  0  0  0  0  0  0  0
    1.7050   17.1790   40.8390 C   0  0  0  0  0  0  0  0  0  0  0  0
    0.3990   20.4570   41.8670 O   0  0  0  0  0  0  0  0  0  0  0  0
   -0.8440   16.6330   44.8900 C   0  0  0  0  0  0  0  0  0  0  0  0
    4.1490   19.4500   37.7710 C   0  0  0  0  0  0  0  0  0  0  0  0
    4.3940   15.7320   37.2490 C   0  0  0  0  0  0  0  0  0  0  0  0
    3.8930   20.4330   35.6710 O   0  0  0  0  0  0  0  0  0  0  0  0
    1.1580   16.3210   41.8840 C   0  0  0  0  0  0  0  0  0  0  0  0
   -0.9540   17.9690   45.0780 N   0  0  0  0  0  0  0  0  0  0  0  0
    3.2220   17.3800   38.5590 C   0  0  0  0  0  0  0  0  0  0  0  0
    3.8610   16.9860   37.4080 C   0  0  0  0  0  0  0  0  0  0  0  0
    3.8050   14.7820   37.7960 O   0  0  0  0  0  1  0  0  0  0  0  0
    0.6580   19.0260   41.9220 C   0  0  0  0  0  0  0  0  0  0  0  0
   -0.4880   20.0570   44.3590 O   0  0  0  0  0  0  0  0  0  0  0  0
    3.4480   20.3330   36.8750 C   0  0  0  0  0  0  0  0  0  0  0  0
    0.2660   18.3080   42.9720 C   0  0  0  0  0  0  0  0  0  0  0  0
   -0.4170   18.8610   44.1710 C   0  0  0  0  0  0  0  0  0  0  0  0
    3.0650   18.8090   38.5880 N   0  0  0  0  0  4  0  0  0  0  0  0
    2.5880   16.5830   39.7380 C   0  0  0  0  0  0  0  0  0  0  0  0
    2.3760   20.9800   37.2650 O   0  0  0  0  0  1  0  0  0  0  0  0
   -0.1580   16.0640   43.8120 C   0  0  0  0  0  0  0  0  0  0  0  0
    1.9313   19.2232   40.1641 H   0  0  0  0  0  0  0  0  0  0  0  0
   -1.4138   21.3770   42.0892 H   0  0  0  0  0  0  0  0  0  0  0  0
   -0.4379   21.8889   40.6706 H   0  0  0  0  0  0  0  0  0  0  0  0
   -1.2508   20.2871   40.6706 H   0  0  0  0  0  0  0  0  0  0  0  0
   -1.3176   15.9615   45.6213 H   0  0  0  0  0  0  0  0  0  0  0  0
    4.8385   20.0159   38.4147 H   0  0  0  0  0  0  0  0  0  0  0  0
    4.7631   18.7108   37.2358 H   0  0  0  0  0  0  0  0  0  0  0  0
    1.3341   15.2358   41.8481 H   0  0  0  0  0  0  0  0  0  0  0  0
   -1.4456   18.3255   45.9100 H   0  0  0  0  0  0  0  0  0  0  0  0
    4.6931   17.6911   37.2649 H   0  0  0  0  0  0  0  0  0  0  0  0
    3.0312   16.9694   36.6861 H   0  0  0  0  0  0  0  0  0  0  0  0
    3.1269   19.1412   39.5610 H   0  0  0  0  0  0  0  0  0  0  0  0
    2.1463   19.0608   38.1961 H   0  0  0  0  0  0  0  0  0  0  0  0
    2.7912   15.5029   39.7837 H   0  0  0  0  0  0  0  0  0  0  0  0
   -0.1051   14.9697   43.7140 H   0  0  0  0  0  0  0  0  0  0  0  0
  1 19  2  0
  1 24  1  0
  2  9  2  0
  3 16  2  0
  4  6  1  0
  5  3  1  0
  5 11  2  0
  6 16  1  0
  7 12  1  0
  8 21  1  0
  9 14  1  0
  9 15  1  0
 10 18  2  0
 11  1  1  0
 13 21  1  0
 13 22  2  3
 14 13  1  0
 16 19  1  0
 18 23  1  0
 18  8  1  0
 19 20  1  0
 20 17  2  0
 20 12  1  0
 22  5  1  0
 24  7  2  0
  3 25  1  0
  4 26  1  0
  4 27  1  0
  4 28  1  0
  7 29  1  0
  8 30  1  0
  8 31  1  0
 11 32  1  0
 12 33  1  0
 14 34  1  0
 14 35  1  0
 21 36  1  0
 21 37  1  0
 22 38  1  0
 24 39  1  0
M  CHG  3  15  -1  21   1  23  -1
M  END
>  <mol_id>  (76) 
2026-08-24-6tgu-s0-n100-seed1-0080

>  <rmsd_to_ref>  (76) 


$$$$

     RDKit          3D

 41 45  0  0  0  0  0  0  0  0999 V2000
    0.9310   21.2720   40.4990 O   0  0  0  0  0  0  0  0  0  0  0  0
   -0.8660   19.4250   44.1990 N   0  0  0  0  0  0  0  0  0  0  0  0
    1.6140   20.2330   40.4350 C   0  0  0  0  0  0  0  0  0  0  0  0
    1.3200   18.9350   41.1530 C   0  0  0  0  0  0  0  0  0  0  0  0
    0.8790   15.1590   42.6940 C   0  0  0  0  0  0  0  0  0  0  0  0
    3.1390   13.3030   40.5440 C   0  0  0  0  0  0  0  0  0  0  0  0
   -0.8280   18.1870   44.6560 C   0  0  0  0  0  0  0  0  0  0  0  0
    3.1150   14.5660   40.1160 N   0  0  0  0  0  0  0  0  0  0  0  0
   -0.1080   21.0880   42.7820 N   0  0  0  0  0  0  0  0  0  0  0  0
    0.5220   18.7790   42.4080 C   0  0  0  0  0  0  0  0  0  0  0  0
    4.0120   20.4840   35.3870 C   0  0  0  0  0  0  0  0  0  0  0  0
    3.5670   21.3230   34.8080 O   0  0  0  0  0  0  0  0  0  0  0  0
   -0.1580   19.7930   43.0820 C   0  0  0  0  0  0  0  0  0  0  0  0
    2.1500   13.0920   41.5520 C   0  0  0  0  0  0  0  0  0  0  0  0
    0.3990   17.5090   42.8790 C   0  0  0  0  0  0  0  0  0  0  0  0
    3.9640   18.7640   37.0720 N   0  0  0  0  0  0  0  0  0  0  0  0
   -0.2710   17.1920   43.9640 C   0  0  0  0  0  0  0  0  0  0  0  0
    2.8380   20.5970   37.4640 C   0  0  0  0  0  0  0  0  0  0  0  0
    2.3070   15.2740   40.9710 C   0  0  0  0  0  0  0  0  0  0  0  0
    2.7890   20.3060   39.8090 N   0  0  0  0  0  0  0  0  0  0  0  0
    2.8360   19.7840   38.5590 C   0  0  0  0  0  0  0  0  0  0  0  0
    1.7460   16.5460   41.2010 C   0  0  0  0  0  0  0  0  0  0  0  0
   -1.5770   17.8420   45.9260 N   0  0  0  0  0  0  0  0  0  0  0  0
    1.0020   16.4310   42.3250 C   0  0  0  0  0  0  0  0  0  0  0  0
    1.8320   17.7800   40.6430 C   0  0  0  0  0  0  0  0  0  0  0  0
    1.6350   14.3770   41.8640 C   0  0  0  0  0  0  0  0  0  0  0  0
    3.4600   18.6290   38.2620 C   0  0  0  0  0  0  0  0  0  0  0  0
    3.5650   20.0170   36.5780 N   0  0  0  0  0  0  0  0  0  0  0  0
    0.2673   14.7942   43.5323 H   0  0  0  0  0  0  0  0  0  0  0  0
    3.8267   12.5296   40.1713 H   0  0  0  0  0  0  0  0  0  0  0  0
   -0.6467   21.7668   43.3387 H   0  0  0  0  0  0  0  0  0  0  0  0
    0.4694   21.4119   41.9930 H   0  0  0  0  0  0  0  0  0  0  0  0
    4.8938   19.9891   34.9541 H   0  0  0  0  0  0  0  0  0  0  0  0
    1.8492   12.1313   41.9954 H   0  0  0  0  0  0  0  0  0  0  0  0
   -0.3688   16.1458   44.2893 H   0  0  0  0  0  0  0  0  0  0  0  0
    2.3186   21.5610   37.3599 H   0  0  0  0  0  0  0  0  0  0  0  0
    3.6147   20.7350   40.2506 H   0  0  0  0  0  0  0  0  0  0  0  0
   -1.5545   16.8794   46.2919 H   0  0  0  0  0  0  0  0  0  0  0  0
   -2.1090   18.5699   46.4240 H   0  0  0  0  0  0  0  0  0  0  0  0
    2.3675   17.8551   39.6851 H   0  0  0  0  0  0  0  0  0  0  0  0
    3.5300   17.7392   38.9050 H   0  0  0  0  0  0  0  0  0  0  0  0
  2  7  2  0
  3  1  2  0
  3  4  1  0
  4 10  1  0
  6 14  2  0
  7 23  1  0
  8  6  1  0
  8 19  2  0
  9 13  1  0
 10 15  1  0
 10 13  2  0
 11 28  1  0
 12 11  2  0
 13  2  1  0
 14 26  1  0
 15 17  2  0
 16 27  2  0
 17  7  1  0
 18 21  2  0
 19 22  1  0
 19 26  1  0
 20  3  1  0
 21 20  1  0
 22 24  2  0
 24  5  1  0
 24 15  1  0
 25  4  2  0
 25 22  1  0
 26  5  2  0
 27 21  1  0
 28 16  1  0
 28 18  1  0
  5 29  1  0
  6 30  1  0
  9 31  1  0
  9 32  1  0
 11 33  1  0
 14 34  1  0
 17 35  1  0
 18 36  1  0
 20 37  1  0
 23 38  1  0
 23 39  1  0
 25 40  1  0
 27 41  1  0
M  END
>  <mol_id>  (77) 
2026-08-24-6tgu-s0-n100-seed1-0081

>  <rmsd_to_ref>  (77) 


$$$$

     RDKit          3D

108112  0  0  0  0  0  0  0  0999 V2000
    0.7960   19.9660   44.9140 O   0  0  0  0  0  0  0  0  0  0  0  0
    6.4970   13.5660   36.3860 C   0  0  0  0  0  0  0  0  0  0  0  0
    3.4150   12.3130   35.6590 C   0  0  0  0  0  0  0  0  0  0  0  0
    2.9290   18.5920   38.0080 C   0  0  0  0  0  0  0  0  0  0  0  0
   -0.0500   16.6580   48.7690 C   0  0  0  0  0  0  0  0  0  0  0  0
    2.7250   20.0870   38.2820 C   0  0  0  0  0  0  0  0  0  0  0  0
    2.4510   21.0280   37.1140 O   0  0  0  0  0  0  0  0  0  0  0  0
    3.4340   12.2410   39.5440 C   0  0  0  0  0  0  0  0  0  0  0  0
   -1.4060   16.4440   48.8300 C   0  0  0  0  0  0  0  0  0  0  0  0
   -2.0610   17.5770   46.6620 C   0  0  0  0  0  0  0  0  0  0  0  0
    0.2610   17.9510   46.8410 C   0  0  0  0  0  0  0  0  0  0  0  0
   -1.4670   20.9220   42.7730 O   0  0  0  0  0  0  0  0  0  0  0  0
   -0.9510   18.7690   44.8050 C   0  0  0  0  0  0  0  0  0  0  0  0
    4.0810   13.4940   36.0740 C   0  0  0  0  0  0  0  0  0  0  0  0
   -2.1930   16.8640   47.8490 C   0  0  0  0  0  0  0  0  0  0  0  0
   -5.6700   22.1960   41.8780 C   0  0  0  0  0  0  0  0  0  0  0  0
   -6.9770   22.7950   42.3150 C   0  0  0  0  0  0  0  0  0  0  0  0
    5.3600   13.9020   35.4070 C   0  0  0  0  0  0  0  0  0  0  0  0
   -4.0130   23.0460   43.3170 C   0  0  0  0  0  0  0  0  0  0  0  0
    7.6940   13.7570   34.4420 O   0  0  0  0  0  0  0  0  0  0  0  0
    2.6210   14.3520   40.9250 C   0  0  0  0  0  0  0  0  0  0  0  0
    1.6840   20.2950   39.2140 C   0  0  0  0  0  0  0  0  0  0  0  0
    3.6050   13.4950   40.1790 O   0  0  0  0  0  0  0  0  0  0  0  0
   -5.0210   23.9890   43.6380 C   0  0  0  0  0  0  0  0  0  0  0  0
   -4.2160   25.1700   44.1430 C   0  0  0  0  0  0  0  0  0  0  0  0
    1.4400   15.9200   41.9580 C   0  0  0  0  0  0  0  0  0  0  0  0
    0.5440   20.3800   41.5840 C   0  0  0  0  0  0  0  0  0  0  0  0
    3.3330   21.0680   36.2510 C   0  0  0  0  0  0  0  0  0  0  0  0
    2.2710   13.7270   42.0560 N   0  0  0  0  0  0  0  0  0  0  0  0
    4.1360   12.1860   38.2280 C   0  0  0  0  0  0  0  0  0  0  0  0
    6.3710   13.1130   34.8740 C   0  0  0  0  0  0  0  0  0  0  0  0
    2.4490   16.6470   39.5670 C   0  0  0  0  0  0  0  0  0  0  0  0
    3.2140   14.6610   37.8290 C   0  0  0  0  0  0  0  0  0  0  0  0
   -0.9070   18.1010   46.1710 C   0  0  0  0  0  0  0  0  0  0  0  0
    1.4960   14.6520   42.6480 C   0  0  0  0  0  0  0  0  0  0  0  0
    1.1030   18.9520   41.3540 C   0  0  0  0  0  0  0  0  0  0  0  0
   -4.6950   21.8840   42.8990 C   0  0  0  0  0  0  0  0  0  0  0  0
    0.6510   17.4260   47.9140 C   0  0  0  0  0  0  0  0  0  0  0  0
    0.2650   20.8660   39.0550 C   0  0  0  0  0  0  0  0  0  0  0  0
   -0.2910   20.6910   40.4360 O   0  0  0  0  0  0  0  0  0  0  0  0
   -7.3440   23.9450   41.9410 O   0  0  0  0  0  0  0  0  0  0  0  0
    2.3430   21.5470   39.6270 F   0  0  0  0  0  0  0  0  0  0  0  0
   -0.1180   20.5520   42.9610 C   0  0  0  0  0  0  0  0  0  0  0  0
    2.4420   18.1480   36.8280 F   0  0  0  0  0  0  0  0  0  0  0  0
   -7.7520   21.9990   42.8950 O   0  0  0  0  0  1  0  0  0  0  0  0
   -3.0540   23.4810   42.6760 F   0  0  0  0  0  0  0  0  0  0  0  0
    2.0960   15.7210   40.7260 C   0  0  0  0  0  0  0  0  0  0  0  0
    4.1750   13.5040   37.5220 C   0  0  0  0  0  0  0  0  0  0  0  0
    2.2460   18.0150   39.2510 C   0  0  0  0  0  0  0  0  0  0  0  0
    3.3460   16.0160   38.5600 C   0  0  0  0  0  0  0  0  0  0  0  0
    4.1870   21.2860   35.7360 O   0  0  0  0  0  0  0  0  0  0  0  0
    3.9730   20.3860   39.2100 F   0  0  0  0  0  0  0  0  0  0  0  0
    3.8080   20.1920   35.5110 O   0  0  0  0  0  0  0  0  0  0  0  0
   -5.7110   23.4340   44.6590 O   0  0  0  0  0  0  0  0  0  0  0  0
    1.5360   18.9210   39.9620 C   0  0  0  0  0  0  0  0  0  0  0  0
    4.7040   21.0720   38.4870 F   0  0  0  0  0  0  0  0  0  0  0  0
   -0.0800   19.6420   44.2570 C   0  0  0  0  0  0  0  0  0  0  0  0
    7.2280   14.3288   36.6922 H   0  0  0  0  0  0  0  0  0  0  0  0
    6.6132   13.0954   37.3734 H   0  0  0  0  0  0  0  0  0  0  0  0
    3.0937   11.7432   36.5434 H   0  0  0  0  0  0  0  0  0  0  0  0
    2.5350   12.5810   35.0558 H   0  0  0  0  0  0  0  0  0  0  0  0
    4.0996   11.6986   35.0558 H   0  0  0  0  0  0  0  0  0  0  0  0
    3.9788   18.2908   37.8768 H   0  0  0  0  0  0  0  0  0  0  0  0
    0.5467   16.1270   49.5253 H   0  0  0  0  0  0  0  0  0  0  0  0
    3.7273   20.3562   38.6465 H   0  0  0  0  0  0  0  0  0  0  0  0
    3.8385   11.4533   40.1966 H   0  0  0  0  0  0  0  0  0  0  0  0
    2.3590   12.0923   39.3646 H   0  0  0  0  0  0  0  0  0  0  0  0
   -1.5515   15.3565   48.9088 H   0  0  0  0  0  0  0  0  0  0  0  0
   -1.7188   17.0626   49.6841 H   0  0  0  0  0  0  0  0  0  0  0  0
   -2.9732   17.7307   46.0668 H   0  0  0  0  0  0  0  0  0  0  0  0
    1.0963   18.4159   46.2969 H   0  0  0  0  0  0  0  0  0  0  0  0
   -1.9023   21.0414   43.6541 H   0  0  0  0  0  0  0  0  0  0  0  0
   -0.9833   17.9317   44.0924 H   0  0  0  0  0  0  0  0  0  0  0  0
   -1.7721   19.4735   45.0035 H   0  0  0  0  0  0  0  0  0  0  0  0
    3.4309   14.2971   35.6966 H   0  0  0  0  0  0  0  0  0  0  0  0
   -3.2380   16.5667   48.0213 H   0  0  0  0  0  0  0  0  0  0  0  0
   -5.8995   21.2604   41.3470 H   0  0  0  0  0  0  0  0  0  0  0  0
   -5.1945   22.9819   41.2727 H   0  0  0  0  0  0  0  0  0  0  0  0
    4.8805   14.7286   34.8622 H   0  0  0  0  0  0  0  0  0  0  0  0
   -3.4000   22.7598   44.1844 H   0  0  0  0  0  0  0  0  0  0  0  0
    8.2151   14.0107   35.2446 H   0  0  0  0  0  0  0  0  0  0  0  0
   -5.7095   24.2684   42.8269 H   0  0  0  0  0  0  0  0  0  0  0  0
   -4.2159   25.1702   45.2430 H   0  0  0  0  0  0  0  0  0  0  0  0
   -3.1818   25.0926   43.7762 H   0  0  0  0  0  0  0  0  0  0  0  0
   -4.6661   26.1043   43.7762 H   0  0  0  0  0  0  0  0  0  0  0  0
    0.9794   16.8510   42.3201 H   0  0  0  0  0  0  0  0  0  0  0  0
    1.3514   21.1252   41.6375 H   0  0  0  0  0  0  0  0  0  0  0  0
    2.6651   21.7620   36.7824 H   0  0  0  0  0  0  0  0  0  0  0  0
    5.1697   11.8502   38.3976 H   0  0  0  0  0  0  0  0  0  0  0  0
    3.5736   11.4904   37.5879 H   0  0  0  0  0  0  0  0  0  0  0  0
    6.2298   12.2734   34.1775 H   0  0  0  0  0  0  0  0  0  0  0  0
    2.4002   14.1646   38.3779 H   0  0  0  0  0  0  0  0  0  0  0  0
    3.2512   15.0910   36.8172 H   0  0  0  0  0  0  0  0  0  0  0  0
    0.9486   14.4591   43.5824 H   0  0  0  0  0  0  0  0  0  0  0  0
    1.9530   18.7595   42.0251 H   0  0  0  0  0  0  0  0  0  0  0  0
    0.3476   18.1802   41.5630 H   0  0  0  0  0  0  0  0  0  0  0  0
   -5.2089   21.4378   43.7632 H   0  0  0  0  0  0  0  0  0  0  0  0
   -3.9622   21.1783   42.4807 H   0  0  0  0  0  0  0  0  0  0  0  0
    1.6984   17.6184   48.1897 H   0  0  0  0  0  0  0  0  0  0  0  0
    0.2901   21.9267   38.7645 H   0  0  0  0  0  0  0  0  0  0  0  0
   -0.3282   20.3744   38.2698 H   0  0  0  0  0  0  0  0  0  0  0  0
    0.6815   21.2287   43.2970 H   0  0  0  0  0  0  0  0  0  0  0  0
    1.6901   16.3141   39.8932 H   0  0  0  0  0  0  0  0  0  0  0  0
    5.1621   13.6890   37.9707 H   0  0  0  0  0  0  0  0  0  0  0  0
    4.3199   15.9544   39.0677 H   0  0  0  0  0  0  0  0  0  0  0  0
    3.0935   16.6669   37.7099 H   0  0  0  0  0  0  0  0  0  0  0  0
   -5.3300   23.7404   45.5199 H   0  0  0  0  0  0  0  0  0  0  0  0
    0.6419   18.2935   40.0922 H   0  0  0  0  0  0  0  0  0  0  0  0
  4 44  1  0
  4  6  1  0
  4 49  1  0
  5  9  1  0
  6  7  1  0
  6 22  1  0
  8 23  1  0
 10 15  2  0
 11 38  1  0
 13 34  1  0
 14  3  1  0
 15  9  1  0
 16 17  1  0
 16 37  1  0
 17 45  1  0
 18 14  1  0
 18  2  1  0
 19 46  1  0
 19 24  1  0
 21 29  2  0
 22 42  1  0
 22 55  1  0
 23 21  1  0
 24 25  1  0
 24 54  1  0
 26 35  2  0
 27 43  1  0
 28  7  1  0
 29 35  1  0
 30  8  1  0
 31 20  1  0
 31 18  1  0
 31  2  1  0
 32 47  1  0
 33 50  1  0
 34 10  1  0
 34 11  2  0
 36 27  1  0
 37 19  1  0
 38  5  2  0
 39 22  1  0
 39 40  1  0
 40 27  1  0
 41 17  2  0
 43 12  1  0
 43 57  1  0
 47 21  1  0
 47 26  1  0
 48 14  1  0
 48 33  1  0
 48 30  1  0
 49 32  2  3
 49 55  1  0
 50 32  1  0
 51 28  1  0
 53 51  1  0
 53 28  1  0
 55 36  1  0
 56 52  1  0
 57 13  1  0
 57  1  2  0
  2 58  1  0
  2 59  1  0
  3 60  1  0
  3 61  1  0
  3 62  1  0
  4 63  1  0
  5 64  1  0
  6 65  1  0
  8 66  1  0
  8 67  1  0
  9 68  1  0
  9 69  1  0
 10 70  1  0
 11 71  1  0
 12 72  1  0
 13 73  1  0
 13 74  1  0
 14 75  1  0
 15 76  1  0
 16 77  1  0
 16 78  1  0
 18 79  1  0
 19 80  1  0
 20 81  1  0
 24 82  1  0
 25 83  1  0
 25 84  1  0
 25 85  1  0
 26 86  1  0
 27 87  1  0
 28 88  1  0
 30 89  1  0
 30 90  1  0
 31 91  1  0
 33 92  1  0
 33 93  1  0
 35 94  1  0
 36 95  1  0
 36 96  1  0
 37 97  1  0
 37 98  1  0
 38 99  1  0
 39100  1  0
 39101  1  0
 43102  1  0
 47103  1  0
 48104  1  0
 50105  1  0
 50106  1  0
 54107  1  0
 55108  1  0
M  CHG  1  45  -1
M  END
>  <mol_id>  (78) 
2026-08-24-6tgu-s0-n100-seed1-0082

>  <rmsd_to_ref>  (78) 


$$$$

     RDKit          3D

 29 30  0  0  0  0  0  0  0  0999 V2000
    2.0460   20.3840   39.4830 C   0  0  0  0  0  0  0  0  0  0  0  0
    1.8690   19.1110   39.9500 C   0  0  0  0  0  0  0  0  0  0  0  0
    1.9070   16.2230   41.4280 O   0  0  0  0  0  0  0  0  0  0  0  0
    1.2970   21.3230   40.3900 O   0  0  0  0  0  0  0  0  0  0  0  0
    0.1600   17.0080   42.6460 C   0  0  0  0  0  0  0  0  0  0  0  0
    0.9030   15.9320   42.1890 C   0  0  0  0  0  0  0  0  0  0  0  0
    2.9900   19.8100   37.4590 C   0  0  0  0  0  0  0  0  0  0  0  0
    0.8070   20.5100   41.4590 C   0  0  0  0  0  0  0  0  0  0  0  0
    0.5410   18.2870   42.2070 C   0  0  0  0  0  0  0  0  0  0  0  0
    3.1650   18.5090   37.8480 C   0  0  0  0  0  0  0  0  0  0  0  0
    0.4110   21.2900   42.5330 C   0  0  0  0  0  0  0  0  0  0  0  0
    2.5160   18.0550   39.1300 C   0  0  0  0  0  0  0  0  0  0  0  0
   -0.7460   16.8660   43.7680 N   0  0  0  0  0  4  0  0  0  0  0  0
    1.1810   19.1380   41.2180 C   0  0  0  0  0  0  0  0  0  0  0  0
    2.4750   20.8110   38.2470 C   0  0  0  0  0  0  0  0  0  0  0  0
    2.4799   15.5010   41.0667 H   0  0  0  0  0  0  0  0  0  0  0  0
    0.6544   14.8945   42.4568 H   0  0  0  0  0  0  0  0  0  0  0  0
    3.2854   20.0753   36.4332 H   0  0  0  0  0  0  0  0  0  0  0  0
   -0.4479   18.7684   42.2235 H   0  0  0  0  0  0  0  0  0  0  0  0
    1.5218   18.1354   42.6814 H   0  0  0  0  0  0  0  0  0  0  0  0
    3.7634   17.8137   37.2409 H   0  0  0  0  0  0  0  0  0  0  0  0
    0.6702   20.7795   43.4722 H   0  0  0  0  0  0  0  0  0  0  0  0
    0.9250   22.2616   42.4898 H   0  0  0  0  0  0  0  0  0  0  0  0
   -0.6767   21.4484   42.4898 H   0  0  0  0  0  0  0  0  0  0  0  0
    2.5211   17.0000   39.4413 H   0  0  0  0  0  0  0  0  0  0  0  0
   -0.2178   16.9488   44.6484 H   0  0  0  0  0  0  0  0  0  0  0  0
   -1.4623   17.6050   43.7266 H   0  0  0  0  0  0  0  0  0  0  0  0
   -1.2019   15.9433   43.7266 H   0  0  0  0  0  0  0  0  0  0  0  0
    2.4114   21.8592   37.9194 H   0  0  0  0  0  0  0  0  0  0  0  0
  1  2  2  0
  1  4  1  0
  2 14  1  0
  3  6  1  0
  4  8  1  0
  5 13  1  0
  6  5  2  3
  7 10  1  0
  7 15  2  0
  8 11  1  0
  9  5  1  0
 10 12  2  0
 12  2  1  0
 14  8  2  0
 14  9  1  0
 15  1  1  0
  3 16  1  0
  6 17  1  0
  7 18  1  0
  9 19  1  0
  9 20  1  0
 10 21  1  0
 11 22  1  0
 11 23  1  0
 11 24  1  0
 12 25  1  0
 13 26  1  0
 13 27  1  0
 13 28  1  0
 15 29  1  0
M  CHG  1  13   1
M  END
>  <mol_id>  (79) 
2026-08-24-6tgu-s0-n100-seed1-0083

>  <rmsd_to_ref>  (79) 


$$$$

     RDKit          3D

 39 43  0  0  0  0  0  0  0  0999 V2000
    4.0720   20.3970   35.5410 O   0  0  0  0  0  0  0  0  0  0  0  0
    1.9170   20.8580   38.8740 C   0  0  0  0  0  0  0  0  0  0  0  0
   -0.5100   19.2090   44.0240 N   0  0  0  0  0  0  0  0  0  0  0  0
    4.6550   16.6450   37.4180 C   0  0  0  0  0  0  0  0  0  0  0  0
   -0.8590   17.3360   47.0110 C   0  0  0  0  0  0  0  0  0  0  0  0
    2.6910   17.4270   40.3930 O   0  0  0  0  0  0  0  0  0  0  0  0
    1.0540   17.6870   42.6210 C   0  0  0  0  0  0  0  0  0  0  0  0
    3.2790   20.3920   36.4040 C   0  0  0  0  0  0  0  0  0  0  0  0
   -0.6790   17.8710   45.5870 C   0  0  0  0  0  0  0  0  0  0  0  0
    4.0580   18.1040   36.9970 O   0  0  0  0  0  0  0  0  0  0  0  0
    2.2150   19.6690   39.6780 C   0  0  0  0  0  0  0  0  0  0  0  0
    1.8960   21.5950   37.8560 C   0  0  0  0  0  0  0  0  0  0  0  0
   -1.0470   15.9110   47.0530 C   0  0  0  0  0  0  0  0  0  0  0  0
    3.3670   19.2980   37.5220 C   0  0  0  0  0  0  0  0  0  0  0  0
    3.9190   15.6150   37.7600 C   0  0  0  0  0  0  0  0  0  0  0  0
    5.1340   14.5510   36.4120 O   0  0  0  0  0  0  0  0  0  0  0  0
   -0.8730   19.1670   45.1820 N   0  0  0  0  0  0  0  0  0  0  0  0
    4.7210   15.3830   37.1020 C   0  0  0  0  0  0  0  0  0  0  0  0
    1.6210   16.6290   42.7020 O   0  0  0  0  0  0  0  0  0  0  0  0
   -0.0670   18.0310   43.6240 C   0  0  0  0  0  0  0  0  0  0  0  0
   -2.0080   16.8210   47.6850 C   0  0  0  0  0  0  0  0  0  0  0  0
   -0.1590   17.1310   44.6400 N   0  0  0  0  0  0  0  0  0  0  0  0
    1.2030   20.9510   40.1800 S   0  0  0  0  0  0  0  0  0  0  0  0
    2.0960   18.4680   40.6200 C   0  0  0  0  0  0  0  0  0  0  0  0
    3.3670   18.9970   38.8190 O   0  0  0  0  0  0  0  0  0  0  0  0
    1.3300   18.6270   41.7460 N   0  0  0  0  0  0  0  0  0  0  0  0
    2.5110   21.3760   36.4970 O   0  0  0  0  0  0  0  0  0  0  0  0
    5.4256   17.4012   37.6288 H   0  0  0  0  0  0  0  0  0  0  0  0
   -0.1989   18.1451   47.3569 H   0  0  0  0  0  0  0  0  0  0  0  0
    1.3470   22.5409   37.9743 H   0  0  0  0  0  0  0  0  0  0  0  0
   -1.3227   15.3624   46.1403 H   0  0  0  0  0  0  0  0  0  0  0  0
   -0.4474   15.0503   47.3841 H   0  0  0  0  0  0  0  0  0  0  0  0
    2.5286   19.9832   37.7157 H   0  0  0  0  0  0  0  0  0  0  0  0
    3.9578   15.2521   38.7977 H   0  0  0  0  0  0  0  0  0  0  0  0
    2.8368   15.4249   37.7091 H   0  0  0  0  0  0  0  0  0  0  0  0
   -2.0751   16.8770   48.7815 H   0  0  0  0  0  0  0  0  0  0  0  0
   -3.0935   16.9831   47.6121 H   0  0  0  0  0  0  0  0  0  0  0  0
    0.1081   16.1364   44.6592 H   0  0  0  0  0  0  0  0  0  0  0  0
    0.9376   19.5632   41.9206 H   0  0  0  0  0  0  0  0  0  0  0  0
  1  8  2  0
  2 11  1  0
  2 23  1  0
  3 17  1  0
  4 10  1  0
  4 15  1  0
  5 13  1  0
  5 21  1  0
  6 24  2  0
  7 19  2  0
  7 20  1  0
  8 27  1  0
  8 14  1  0
  9  5  1  0
 11 23  1  0
 11 24  1  0
 12  2  2  0
 13 21  1  0
 14 10  1  0
 14 25  1  0
 16 18  2  0
 17  9  2  0
 18  4  1  0
 18 15  1  0
 20  3  2  0
 20 22  1  0
 22  9  1  0
 24 26  1  0
 25 11  1  0
 26  7  1  0
 27 12  1  0
  4 28  1  0
  5 29  1  0
 12 30  1  0
 13 31  1  0
 13 32  1  0
 14 33  1  0
 15 34  1  0
 15 35  1  0
 21 36  1  0
 21 37  1  0
 22 38  1  0
 26 39  1  0
M  END
>  <mol_id>  (80) 
2026-08-24-6tgu-s0-n100-seed1-0084

>  <rmsd_to_ref>  (80) 


$$$$

     RDKit          3D

 28 31  0  0  0  0  0  0  0  0999 V2000
    2.2000   19.8550   39.1740 C   0  0  0  0  0  0  0  0  0  0  0  0
    1.6880   16.5010   42.1320 O   0  0  0  0  0  0  0  0  0  0  0  0
    2.1030   17.8620   40.5350 N   0  0  0  0  0  0  0  0  0  0  0  0
    2.5030   20.5670   38.0340 C   0  0  0  0  0  0  0  0  0  0  0  0
    3.3200   19.9950   37.0440 C   0  0  0  0  0  0  0  0  0  0  0  0
    1.4850   20.3370   40.3190 C   0  0  0  0  0  0  0  0  0  0  0  0
    3.7160   18.5690   37.2170 C   0  0  0  0  0  0  0  0  0  0  0  0
    1.4120   17.6190   41.6840 C   0  0  0  0  0  0  0  0  0  0  0  0
    0.9610   20.0440   41.4620 N   0  0  0  0  0  0  0  0  0  0  0  0
   -1.2030   18.6590   44.4300 C   0  0  0  0  0  0  0  0  0  0  0  0
    3.7070   20.6920   35.9960 O   0  0  0  0  0  0  0  0  0  0  0  0
   -1.1600   20.0050   43.7250 N   0  0  0  0  0  0  0  0  0  0  0  0
    2.5870   18.4430   39.3200 C   0  0  0  0  0  0  0  0  0  0  0  0
    0.4970   18.5950   42.5020 C   0  0  0  0  0  0  0  0  0  0  0  0
   -0.2320   19.8600   42.4810 C   0  0  0  0  0  0  0  0  0  0  0  0
    3.3570   17.9280   38.4320 C   0  0  0  0  0  0  0  0  0  0  0  0
   -0.1340   17.7960   43.7290 C   0  0  0  0  0  0  0  0  0  0  0  0
    2.7166   17.0350   40.5560 H   0  0  0  0  0  0  0  0  0  0  0  0
    2.1052   21.5836   37.8987 H   0  0  0  0  0  0  0  0  0  0  0  0
    2.1610   21.1473   40.6295 H   0  0  0  0  0  0  0  0  0  0  0  0
    0.5318   20.1034   39.8221 H   0  0  0  0  0  0  0  0  0  0  0  0
    4.2671   18.0318   36.4311 H   0  0  0  0  0  0  0  0  0  0  0  0
   -1.8575   18.3633   45.2632 H   0  0  0  0  0  0  0  0  0  0  0  0
    3.4318   21.6383   35.9018 H   0  0  0  0  0  0  0  0  0  0  0  0
   -0.9989   20.6242   42.2862 H   0  0  0  0  0  0  0  0  0  0  0  0
    3.7654   16.9249   38.6246 H   0  0  0  0  0  0  0  0  0  0  0  0
   -0.5988   16.8700   43.3597 H   0  0  0  0  0  0  0  0  0  0  0  0
    0.6620   17.5541   44.4486 H   0  0  0  0  0  0  0  0  0  0  0  0
  1 13  2  0
  1  6  1  0
  3  8  1  0
  4  1  1  0
  5  7  1  0
  5  4  2  0
  7 16  2  0
  8  2  2  0
  8 14  1  0
  9  6  1  0
  9 15  1  0
  9 14  1  0
 11  5  1  0
 12 10  2  0
 13  3  1  0
 14 17  1  0
 15 14  1  0
 15 12  1  0
 16 13  1  0
 17 10  1  0
  3 18  1  0
  4 19  1  0
  6 20  1  0
  6 21  1  0
  7 22  1  0
 10 23  1  0
 11 24  1  0
 15 25  1  0
 16 26  1  0
 17 27  1  0
 17 28  1  0
M  END
>  <mol_id>  (81) 
2026-08-24-6tgu-s0-n100-seed1-0086

>  <rmsd_to_ref>  (81) 


$$$$

     RDKit          3D

 23 24  0  0  0  0  0  0  0  0999 V2000
    0.1080   19.0260   42.5300 C   0  0  0  0  0  0  0  0  0  0  0  0
    1.5510   19.9160   40.3090 C   0  0  0  0  0  0  0  0  0  0  0  0
    3.4860   19.8410   36.9790 C   0  0  0  0  0  0  0  0  0  0  0  0
    0.1240   20.4090   42.1470 C   0  0  0  0  0  0  0  0  0  0  0  0
    2.4590   17.6210   39.9440 C   0  0  0  0  0  0  0  0  0  0  0  0
    0.8520   18.1250   41.8070 C   0  0  0  0  0  0  0  0  0  0  0  0
    2.8420   20.9980   36.5130 O   0  0  0  0  0  0  0  0  0  0  0  0
    0.8750   20.8810   41.1000 C   0  0  0  0  0  0  0  0  0  0  0  0
    2.9480   19.3470   38.2380 C   0  0  0  0  0  0  0  0  0  0  0  0
    3.0870   17.9900   38.7130 C   0  0  0  0  0  0  0  0  0  0  0  0
   -0.5270   21.3250   42.8720 O   0  0  0  0  0  0  0  0  0  0  0  0
    1.6790   18.4940   40.7260 C   0  0  0  0  0  0  0  0  0  0  0  0
    2.1830   20.3190   39.0360 C   0  0  0  0  0  0  0  0  0  0  0  0
   -0.4912   18.6921   43.3899 H   0  0  0  0  0  0  0  0  0  0  0  0
    4.5527   20.0690   37.1212 H   0  0  0  0  0  0  0  0  0  0  0  0
    3.3255   19.0548   36.2266 H   0  0  0  0  0  0  0  0  0  0  0  0
    2.5940   16.5898   40.3024 H   0  0  0  0  0  0  0  0  0  0  0  0
    0.7999   17.0621   42.0855 H   0  0  0  0  0  0  0  0  0  0  0  0
    2.5399   21.5407   37.2839 H   0  0  0  0  0  0  0  0  0  0  0  0
    0.9495   21.9570   40.8839 H   0  0  0  0  0  0  0  0  0  0  0  0
    3.6661   17.2527   38.1377 H   0  0  0  0  0  0  0  0  0  0  0  0
   -0.5094   22.2764   42.5988 H   0  0  0  0  0  0  0  0  0  0  0  0
    2.0810   21.3552   38.6811 H   0  0  0  0  0  0  0  0  0  0  0  0
  2 12  1  0
  2  8  2  0
  3  9  1  0
  4  1  2  0
  4 11  1  0
  5 12  1  0
  6  1  1  0
  7  3  1  0
  8  4  1  0
  9 10  1  0
  9 13  2  0
 10  5  2  0
 12  6  2  0
 13  2  1  0
  1 14  1  0
  3 15  1  0
  3 16  1  0
  5 17  1  0
  6 18  1  0
  7 19  1  0
  8 20  1  0
 10 21  1  0
 11 22  1  0
 13 23  1  0
M  END
>  <mol_id>  (82) 
2026-08-24-6tgu-s0-n100-seed1-0087

>  <rmsd_to_ref>  (82) 


$$$$

     RDKit          3D

 42 44  0  0  0  0  0  0  0  0999 V2000
    2.4500   13.8600   40.9460 S   0  0  0  0  0  0  0  0  0  0  0  0
    2.2270   21.7260   36.1310 O   0  0  0  0  0  1  0  0  0  0  0  0
   -0.0610   17.4130   43.9610 C   0  0  0  0  0  0  0  0  0  0  0  0
    1.9250   18.9050   40.0330 C   0  0  0  0  0  0  0  0  0  0  0  0
    4.1450   20.6200   36.1170 O   0  0  0  0  0  0  0  0  0  0  0  0
    3.7510   16.0880   37.1400 C   0  0  0  0  0  0  0  0  0  0  0  0
    4.1820   15.1320   37.1700 O   0  0  0  0  0  0  0  0  0  0  0  0
    2.8520   19.0440   38.8030 C   0  0  0  0  0  0  0  0  0  0  0  0
    1.8520   15.3690   41.1500 C   0  0  0  0  0  0  0  0  0  0  0  0
    1.3930   21.3780   39.9350 C   0  0  0  0  0  0  0  0  0  0  0  0
    1.3410   20.0270   40.5320 C   0  0  0  0  0  0  0  0  0  0  0  0
   -0.5060   19.5900   42.8430 C   0  0  0  0  0  0  0  0  0  0  0  0
   -0.6260   17.9160   45.1800 C   0  0  0  0  0  0  0  0  0  0  0  0
   -1.0840   19.2070   45.1920 C   0  0  0  0  0  0  0  0  0  0  0  0
    3.7200   17.9040   38.6020 C   0  0  0  0  0  0  0  0  0  0  0  0
    3.1690   17.4060   37.2950 C   0  0  0  0  0  0  0  0  0  0  0  0
   -0.9650   20.0370   44.0870 N   0  0  0  0  0  0  0  0  0  0  0  0
    1.0450   17.3140   41.8510 C   0  0  0  0  0  0  0  0  0  0  0  0
    1.9260   21.4980   38.6800 C   0  0  0  0  0  0  0  0  0  0  0  0
    2.6150   20.3430   38.1150 C   0  0  0  0  0  0  0  0  0  0  0  0
    1.0490   15.8800   42.1440 N   0  0  0  0  0  0  0  0  0  0  0  0
    0.1900   18.0800   42.8230 C   0  0  0  0  0  0  0  0  0  0  0  0
    2.1760   16.3070   40.2060 O   0  0  0  0  0  0  0  0  0  0  0  0
    3.0490   20.7810   36.8100 C   0  0  0  0  0  0  0  0  0  0  0  0
   -0.7650   20.5510   41.9510 N   0  0  0  0  0  0  0  0  0  0  0  0
    1.6720   17.5620   40.7070 C   0  0  0  0  0  0  0  0  0  0  0  0
    0.1999   16.3444   43.9583 H   0  0  0  0  0  0  0  0  0  0  0  0
    4.5261   16.4633   36.4556 H   0  0  0  0  0  0  0  0  0  0  0  0
    2.9051   15.6857   37.7167 H   0  0  0  0  0  0  0  0  0  0  0  0
    4.3066   14.8556   38.1124 H   0  0  0  0  0  0  0  0  0  0  0  0
    1.0166   22.2562   40.4801 H   0  0  0  0  0  0  0  0  0  0  0  0
    0.7759   19.9188   41.4695 H   0  0  0  0  0  0  0  0  0  0  0  0
   -0.6895   17.2840   46.0781 H   0  0  0  0  0  0  0  0  0  0  0  0
   -1.5598   19.5966   46.1041 H   0  0  0  0  0  0  0  0  0  0  0  0
    4.7757   18.2011   38.5166 H   0  0  0  0  0  0  0  0  0  0  0  0
    3.7268   17.1685   39.4199 H   0  0  0  0  0  0  0  0  0  0  0  0
    3.4716   18.0653   36.4681 H   0  0  0  0  0  0  0  0  0  0  0  0
    2.0693   17.3838   37.2837 H   0  0  0  0  0  0  0  0  0  0  0  0
    1.8374   22.4373   38.1144 H   0  0  0  0  0  0  0  0  0  0  0  0
    0.5698   15.3780   42.9051 H   0  0  0  0  0  0  0  0  0  0  0  0
   -0.5037   20.4208   40.9632 H   0  0  0  0  0  0  0  0  0  0  0  0
   -1.2259   21.4218   42.2513 H   0  0  0  0  0  0  0  0  0  0  0  0
  1  9  2  0
  2 24  1  0
  3 13  2  0
  4 11  1  0
  4 26  1  0
  5 24  2  0
  6  7  1  0
  6 16  1  0
  8  4  2  0
  9 21  1  0
 10 11  2  0
 12 17  1  0
 13 14  1  0
 15  8  1  0
 16 15  1  0
 17 14  2  0
 18 21  1  0
 18 22  1  0
 19 10  1  0
 20 19  2  0
 20  8  1  0
 22 12  2  0
 22  3  1  0
 23 26  1  0
 23  9  1  0
 24 20  1  0
 25 12  1  0
 26 18  2  0
  3 27  1  0
  6 28  1  0
  6 29  1  0
  7 30  1  0
 10 31  1  0
 11 32  1  0
 13 33  1  0
 14 34  1  0
 15 35  1  0
 15 36  1  0
 16 37  1  0
 16 38  1  0
 19 39  1  0
 21 40  1  0
 25 41  1  0
 25 42  1  0
M  CHG  1   2  -1
M  END
>  <mol_id>  (83) 
2026-08-24-6tgu-s0-n100-seed1-0088

>  <rmsd_to_ref>  (83) 


$$$$

     RDKit          3D

 34 37  0  0  0  0  0  0  0  0999 V2000
    1.5270   21.4920   39.7470 C   0  0  0  0  0  0  0  0  0  0  0  0
    2.0660   19.0750   39.7850 C   0  0  0  0  0  0  0  0  0  0  0  0
    3.2660   18.8550   37.4750 C   0  0  0  0  0  0  0  0  0  0  0  0
    0.8890   16.3200   42.3280 C   0  0  0  0  0  0  0  0  0  0  0  0
    0.6930   18.7750   42.2900 C   0  0  0  0  0  0  0  0  0  0  0  0
   -0.2930   17.5250   44.1220 C   0  0  0  0  0  0  0  0  0  0  0  0
   -0.1960   15.0470   44.2670 C   0  0  0  0  0  0  0  0  0  0  0  0
    2.6330   16.6250   39.4090 C   0  0  0  0  0  0  0  0  0  0  0  0
    0.7770   20.1300   41.7180 C   0  0  0  0  0  0  0  0  0  0  0  0
    2.3320   21.1260   38.2830 S   0  0  0  0  0  0  0  0  0  0  0  0
    3.9820   15.2320   37.5030 C   0  0  0  0  0  0  0  0  0  0  0  0
    2.6000   19.5680   38.5260 C   0  0  0  0  0  0  0  0  0  0  0  0
    1.2000   17.5270   41.6430 C   0  0  0  0  0  0  0  0  0  0  0  0
    1.8810   17.6490   40.3620 C   0  0  0  0  0  0  0  0  0  0  0  0
    3.3070   16.3220   37.9390 C   0  0  0  0  0  0  0  0  0  0  0  0
    3.4760   17.6450   37.4100 N   0  0  0  0  0  0  0  0  0  0  0  0
    0.0050   18.7590   43.5410 C   0  0  0  0  0  0  0  0  0  0  0  0
    2.6810   15.3690   40.1500 O   0  0  0  0  0  0  0  0  0  0  0  0
    3.6010   19.7200   36.3410 O   0  0  0  0  0  0  0  0  0  0  0  0
    0.1610   16.2930   43.5620 C   0  0  0  0  0  0  0  0  0  0  0  0
    1.5380   20.1780   40.4860 C   0  0  0  0  0  0  0  0  0  0  0  0
    1.1034   22.4540   40.0712 H   0  0  0  0  0  0  0  0  0  0  0  0
    1.2215   15.3664   41.8919 H   0  0  0  0  0  0  0  0  0  0  0  0
   -0.8971   17.5014   45.0409 H   0  0  0  0  0  0  0  0  0  0  0  0
   -0.1482   15.2137   45.3532 H   0  0  0  0  0  0  0  0  0  0  0  0
   -1.2164   14.7465   43.9867 H   0  0  0  0  0  0  0  0  0  0  0  0
    0.5104   14.2518   43.9867 H   0  0  0  0  0  0  0  0  0  0  0  0
    1.6700   16.3281   38.9681 H   0  0  0  0  0  0  0  0  0  0  0  0
    0.3105   21.0134   42.1784 H   0  0  0  0  0  0  0  0  0  0  0  0
    4.3406   14.6530   38.3668 H   0  0  0  0  0  0  0  0  0  0  0  0
    3.3133   14.6059   36.8940 H   0  0  0  0  0  0  0  0  0  0  0  0
    4.8405   15.5517   36.8940 H   0  0  0  0  0  0  0  0  0  0  0  0
   -0.2838   19.6979   44.0360 H   0  0  0  0  0  0  0  0  0  0  0  0
    2.6738   15.5586   41.1216 H   0  0  0  0  0  0  0  0  0  0  0  0
  1 21  2  0
  2 14  1  0
  2 21  1  0
  3 12  1  0
  4 20  2  0
  5 17  1  0
  8 18  1  0
  8 14  1  0
  9  5  2  0
 10 12  1  0
 10  1  1  0
 11 15  1  0
 12  2  2  0
 13  5  1  0
 13  4  1  0
 14 13  2  0
 15  8  1  0
 16  3  1  0
 16 15  2  0
 17  6  2  0
 19  3  2  0
 20  6  1  0
 20  7  1  0
 21  9  1  0
  1 22  1  0
  4 23  1  0
  6 24  1  0
  7 25  1  0
  7 26  1  0
  7 27  1  0
  8 28  1  0
  9 29  1  0
 11 30  1  0
 11 31  1  0
 11 32  1  0
 17 33  1  0
 18 34  1  0
M  END
>  <mol_id>  (84) 
2026-08-24-6tgu-s0-n100-seed1-0089

>  <rmsd_to_ref>  (84) 


$$$$

     RDKit          3D

 32 35  0  0  0  0  0  0  0  0999 V2000
    2.8180   17.6180   39.6720 N   0  0  0  0  0  0  0  0  0  0  0  0
    4.3980   16.7810   36.5060 O   0  0  0  0  0  0  0  0  0  0  0  0
    1.4690   19.1040   40.7720 C   0  0  0  0  0  0  0  0  0  0  0  0
    0.1610   16.8960   42.7880 N   0  0  0  0  0  4  0  0  0  0  0  0
    0.5410   19.3320   41.8850 C   0  0  0  0  0  0  0  0  0  0  0  0
    0.1590   20.5850   42.0770 C   0  0  0  0  0  0  0  0  0  0  0  0
    2.4820   19.6700   38.5760 C   0  0  0  0  0  0  0  0  0  0  0  0
    1.0920   15.7180   42.5460 O   0  0  0  0  0  0  0  0  0  0  0  0
    3.0850   21.4570   36.4360 C   0  0  0  0  0  0  0  0  0  0  0  0
    3.4750   17.9620   37.3760 C   0  0  0  0  0  0  0  0  0  0  0  0
   -0.4330   16.2450   43.8890 O   0  0  0  0  0  1  0  0  0  0  0  0
    3.0840   20.1120   37.1670 C   0  0  0  0  0  0  0  0  0  0  0  0
    3.7480   16.5760   37.6490 O   0  0  0  0  0  0  0  0  0  0  0  0
    3.5880   19.1260   36.5630 N   0  0  0  0  0  4  0  0  0  0  0  0
   -0.6530   20.8040   43.0740 C   0  0  0  0  0  0  0  0  0  0  0  0
    1.7110   20.1460   39.7360 C   0  0  0  0  0  0  0  0  0  0  0  0
    0.0610   18.2940   42.7460 C   0  0  0  0  0  0  0  0  0  0  0  0
   -0.9860   20.0340   44.0110 N   0  0  0  0  0  0  0  0  0  0  0  0
    2.9550   18.4350   38.5540 C   0  0  0  0  0  0  0  0  0  0  0  0
   -0.6780   18.7780   43.7950 C   0  0  0  0  0  0  0  0  0  0  0  0
    2.0840   17.9110   40.6530 C   0  0  0  0  0  0  0  0  0  0  0  0
    0.5091   21.4011   41.4278 H   0  0  0  0  0  0  0  0  0  0  0  0
    3.0856   22.2744   37.1721 H   0  0  0  0  0  0  0  0  0  0  0  0
    3.9832   21.5309   35.8053 H   0  0  0  0  0  0  0  0  0  0  0  0
    2.1869   21.5322   35.8053 H   0  0  0  0  0  0  0  0  0  0  0  0
    4.0332   20.3769   37.6557 H   0  0  0  0  0  0  0  0  0  0  0  0
    3.0875   18.9747   35.6756 H   0  0  0  0  0  0  0  0  0  0  0  0
    4.5820   19.3139   36.3692 H   0  0  0  0  0  0  0  0  0  0  0  0
   -1.1114   21.8036   43.0988 H   0  0  0  0  0  0  0  0  0  0  0  0
    1.3460   21.1795   39.8293 H   0  0  0  0  0  0  0  0  0  0  0  0
   -1.0475   18.0424   44.5246 H   0  0  0  0  0  0  0  0  0  0  0  0
    1.9391   17.1619   41.4453 H   0  0  0  0  0  0  0  0  0  0  0  0
  1 21  2  0
  2 10  1  0
  2 13  1  0
  3  5  1  0
  4 11  1  0
  5  6  2  0
  5 17  1  0
  6 15  1  0
  7 16  1  0
  8  4  2  0
 10 13  1  0
 10 19  1  0
 12  9  1  0
 12  7  1  0
 14 12  1  0
 14 10  1  0
 15 18  2  0
 16  3  2  0
 17  4  1  0
 17 20  2  0
 19  7  2  0
 19  1  1  0
 20 18  1  0
 21  3  1  0
  6 22  1  0
  9 23  1  0
  9 24  1  0
  9 25  1  0
 12 26  1  0
 14 27  1  0
 14 28  1  0
 15 29  1  0
 16 30  1  0
 20 31  1  0
 21 32  1  0
M  CHG  3   4   1  11  -1  14   1
M  END
>  <mol_id>  (85) 
2026-08-24-6tgu-s0-n100-seed1-0090

>  <rmsd_to_ref>  (85) 


$$$$

     RDKit          3D

 51 52  0  0  0  0  0  0  0  0999 V2000
    4.0890   19.0780   36.2260 O   0  0  0  0  0  0  0  0  0  0  0  0
    1.8220   19.0650   40.4220 C   0  0  0  0  0  0  0  0  0  0  0  0
    1.0780   18.2390   41.2170 C   0  0  0  0  0  0  0  0  0  0  0  0
    3.7940   21.6190   34.9510 O   0  0  0  0  0  0  0  0  0  0  0  0
    2.5930   15.0180   40.2550 C   0  0  0  0  0  0  0  0  0  0  0  0
    2.5180   18.1190   39.5700 N   0  0  0  0  0  0  0  0  0  0  0  0
    2.0440   20.6280   38.7520 C   0  0  0  0  0  0  0  0  0  0  0  0
    2.8530   19.8080   37.9870 C   0  0  0  0  0  0  0  0  0  0  0  0
    0.1350   17.8550   43.2070 O   0  0  0  0  0  0  0  0  0  0  0  0
    3.9760   17.6320   37.8740 O   0  0  0  0  0  0  0  0  0  0  0  0
   -0.8940   17.4160   43.0370 C   0  0  0  0  0  0  0  0  0  0  0  0
   -1.0260   18.7400   45.0560 N   0  0  0  0  0  0  0  0  0  0  0  0
    1.4360   20.3260   39.9410 C   0  0  0  0  0  0  0  0  0  0  0  0
    2.5220   15.9170   41.1730 N   0  0  0  0  0  0  0  0  0  0  0  0
    0.7150   18.9360   42.6650 C   0  0  0  0  0  0  0  0  0  0  0  0
    2.0210   21.9470   36.1350 O   0  0  0  0  0  1  0  0  0  0  0  0
    2.4750   15.4400   39.1150 O   0  0  0  0  0  0  0  0  0  0  0  0
    0.1220   19.0120   45.4060 C   0  0  0  0  0  0  0  0  0  0  0  0
    2.8600   13.7330   40.5060 N   0  0  0  0  0  0  0  0  0  0  0  0
    1.5760   16.8620   41.3280 C   0  0  0  0  0  0  0  0  0  0  0  0
   -1.6050   18.2170   43.8770 C   0  0  0  0  0  0  0  0  0  0  0  0
   -0.0400   18.0340   47.2120 C   0  0  0  0  0  0  0  0  0  0  0  0
   -0.3410   17.8200   45.8090 C   0  0  0  0  0  0  0  0  0  0  0  0
    3.6600   20.2530   36.7320 C   0  0  0  0  0  0  0  0  0  0  0  0
    3.0640   18.5670   38.4820 C   0  0  0  0  0  0  0  0  0  0  0  0
    3.0470   21.3460   35.9550 C   0  0  0  0  0  0  0  0  0  0  0  0
    4.3140   18.4618   36.9675 H   0  0  0  0  0  0  0  0  0  0  0  0
    2.4406   19.7171   41.0561 H   0  0  0  0  0  0  0  0  0  0  0  0
    0.1257   18.1101   40.6817 H   0  0  0  0  0  0  0  0  0  0  0  0
    2.5767   17.1219   39.8215 H   0  0  0  0  0  0  0  0  0  0  0  0
    1.8685   21.6406   38.3597 H   0  0  0  0  0  0  0  0  0  0  0  0
   -1.2202   17.5207   41.9917 H   0  0  0  0  0  0  0  0  0  0  0  0
   -0.9852   16.3354   43.2214 H   0  0  0  0  0  0  0  0  0  0  0  0
    1.7102   21.0891   40.6843 H   0  0  0  0  0  0  0  0  0  0  0  0
    0.3491   20.3081   39.7727 H   0  0  0  0  0  0  0  0  0  0  0  0
    3.2786   15.9130   41.8719 H   0  0  0  0  0  0  0  0  0  0  0  0
    1.6105   19.2579   43.2167 H   0  0  0  0  0  0  0  0  0  0  0  0
    0.1203   19.8610   42.6385 H   0  0  0  0  0  0  0  0  0  0  0  0
    0.9196   19.0511   44.6495 H   0  0  0  0  0  0  0  0  0  0  0  0
    0.5620   19.8669   45.9403 H   0  0  0  0  0  0  0  0  0  0  0  0
    2.9048   13.0555   39.7315 H   0  0  0  0  0  0  0  0  0  0  0  0
    3.0211   13.4200   41.4740 H   0  0  0  0  0  0  0  0  0  0  0  0
    1.4026   16.7258   42.4057 H   0  0  0  0  0  0  0  0  0  0  0  0
    1.3006   16.7125   40.2736 H   0  0  0  0  0  0  0  0  0  0  0  0
   -1.9324   19.0814   43.2806 H   0  0  0  0  0  0  0  0  0  0  0  0
   -2.3709   17.5321   44.2698 H   0  0  0  0  0  0  0  0  0  0  0  0
   -0.7813   17.5069   47.8306 H   0  0  0  0  0  0  0  0  0  0  0  0
    0.9652   17.6467   47.4346 H   0  0  0  0  0  0  0  0  0  0  0  0
   -0.0757   19.1107   47.4346 H   0  0  0  0  0  0  0  0  0  0  0  0
   -0.3754   16.7231   45.7334 H   0  0  0  0  0  0  0  0  0  0  0  0
    4.5646   20.8628   36.8728 H   0  0  0  0  0  0  0  0  0  0  0  0
  2  3  1  0
  3 20  1  0
  3 15  1  0
  4 26  2  0
  5 19  1  0
  5 14  1  0
  6  2  1  0
  7 13  1  0
  8 25  1  0
  8  7  2  0
 10 25  2  0
 11  9  1  0
 11 21  1  0
 12 18  1  0
 12 23  1  0
 13  2  1  0
 14 20  1  0
 15  9  1  0
 17  5  2  0
 18 23  1  0
 21 12  1  0
 23 22  1  0
 24  1  1  0
 24  8  1  0
 25  6  1  0
 26 16  1  0
 26 24  1  0
  1 27  1  0
  2 28  1  0
  3 29  1  0
  6 30  1  0
  7 31  1  0
 11 32  1  0
 11 33  1  0
 13 34  1  0
 13 35  1  0
 14 36  1  0
 15 37  1  0
 15 38  1  0
 18 39  1  0
 18 40  1  0
 19 41  1  0
 19 42  1  0
 20 43  1  0
 20 44  1  0
 21 45  1  0
 21 46  1  0
 22 47  1  0
 22 48  1  0
 22 49  1  0
 23 50  1  0
 24 51  1  0
M  CHG  1  16  -1
M  END
>  <mol_id>  (86) 
2026-08-24-6tgu-s0-n100-seed1-0091

>  <rmsd_to_ref>  (86) 


$$$$

     RDKit          3D

 48 53  0  0  0  0  0  0  0  0999 V2000
    3.4960   14.3520   39.3440 C   0  0  0  0  0  0  0  0  0  0  0  0
    3.4700   19.3080   36.6170 C   0  0  0  0  0  0  0  0  0  0  0  0
    2.4920   18.7090   39.1770 C   0  0  0  0  0  0  0  0  0  0  0  0
    0.6860   14.9170   43.0830 C   0  0  0  0  0  0  0  0  0  0  0  0
    2.4500   21.5820   36.6970 C   0  0  0  0  0  0  0  0  0  0  0  0
   -0.2270   15.4010   43.9970 C   0  0  0  0  0  0  0  0  0  0  0  0
    3.0160   17.6000   38.3860 C   0  0  0  0  0  0  0  0  0  0  0  0
   -0.4290   18.9410   43.7180 C   0  0  0  0  0  0  0  0  0  0  0  0
    2.2120   15.1010   41.2650 O   0  0  0  0  0  0  0  0  0  0  0  0
    1.9590   18.7680   40.3950 N   0  0  0  0  0  0  0  0  0  0  0  0
   -0.6040   20.0730   43.2980 N   0  0  0  0  0  0  0  0  0  0  0  0
   -1.0560   19.4580   44.4540 N   0  0  0  0  0  0  0  0  0  0  0  0
    2.7930   20.3130   37.2870 C   0  0  0  0  0  0  0  0  0  0  0  0
    1.7420   20.2620   40.5000 C   0  0  0  0  0  0  0  0  0  0  0  0
    0.8900   20.8450   41.5260 C   0  0  0  0  0  0  0  0  0  0  0  0
    1.9700   20.8940   39.3920 N   0  0  0  0  0  0  0  0  0  0  0  0
    0.0900   20.6410   42.2890 C   0  0  0  0  0  0  0  0  0  0  0  0
    1.2890   15.7600   42.1490 C   0  0  0  0  0  0  0  0  0  0  0  0
    4.0780   19.7270   35.3990 O   0  0  0  0  0  0  0  0  0  0  0  0
    0.0730   17.6110   43.2010 C   0  0  0  0  0  0  0  0  0  0  0  0
   -0.5010   16.7480   44.1060 C   0  0  0  0  0  0  0  0  0  0  0  0
    3.7700   15.1300   38.1930 C   0  0  0  0  0  0  0  0  0  0  0  0
    2.4180   19.9380   38.5580 C   0  0  0  0  0  0  0  0  0  0  0  0
    2.9790   16.2680   38.9030 N   0  0  0  0  0  0  0  0  0  0  0  0
    3.5430   17.9880   37.1140 C   0  0  0  0  0  0  0  0  0  0  0  0
    2.8550   15.3640   40.0460 C   0  0  0  0  0  0  0  0  0  0  0  0
    1.0380   17.0680   42.1360 C   0  0  0  0  0  0  0  0  0  0  0  0
    2.8374   13.4965   39.1332 H   0  0  0  0  0  0  0  0  0  0  0  0
    4.3486   13.8597   39.8347 H   0  0  0  0  0  0  0  0  0  0  0  0
    0.9431   13.8475   43.0907 H   0  0  0  0  0  0  0  0  0  0  0  0
    2.2519   22.3149   37.4930 H   0  0  0  0  0  0  0  0  0  0  0  0
    3.2851   21.9343   36.0738 H   0  0  0  0  0  0  0  0  0  0  0  0
    1.5511   21.4656   36.0738 H   0  0  0  0  0  0  0  0  0  0  0  0
   -0.7505   14.6933   44.6566 H   0  0  0  0  0  0  0  0  0  0  0  0
    0.2235   18.0558   43.7431 H   0  0  0  0  0  0  0  0  0  0  0  0
   -2.0502   19.2099   44.5580 H   0  0  0  0  0  0  0  0  0  0  0  0
    1.6555   21.3004   42.1715 H   0  0  0  0  0  0  0  0  0  0  0  0
    0.1227   21.0713   40.7710 H   0  0  0  0  0  0  0  0  0  0  0  0
    1.8386   21.8965   39.1952 H   0  0  0  0  0  0  0  0  0  0  0  0
   -0.7339   20.5954   41.5616 H   0  0  0  0  0  0  0  0  0  0  0  0
    0.7981   21.0014   43.0497 H   0  0  0  0  0  0  0  0  0  0  0  0
    3.9927   20.6672   35.1010 H   0  0  0  0  0  0  0  0  0  0  0  0
   -1.1639   17.1244   44.8990 H   0  0  0  0  0  0  0  0  0  0  0  0
    3.3147   14.7589   37.2630 H   0  0  0  0  0  0  0  0  0  0  0  0
    4.7898   15.2726   37.8060 H   0  0  0  0  0  0  0  0  0  0  0  0
    4.0287   17.2211   36.4928 H   0  0  0  0  0  0  0  0  0  0  0  0
    2.6689   15.9934   40.9288 H   0  0  0  0  0  0  0  0  0  0  0  0
    1.5028   17.7325   41.3928 H   0  0  0  0  0  0  0  0  0  0  0  0
  2 25  2  0
  2 13  1  0
  3 10  1  0
  4  6  2  0
  5 13  1  0
  6 21  1  0
  7 24  1  0
  7  3  2  0
  8 20  1  0
  8 12  1  0
  9 18  1  0
 10 14  2  0
 11 17  1  0
 11  8  1  0
 11 12  1  0
 13 23  2  0
 14 15  1  0
 15 17  1  0
 16 14  1  0
 18  4  1  0
 19  2  1  0
 20 21  2  0
 22 24  1  0
 22  1  1  0
 23  3  1  0
 23 16  1  0
 24 26  1  0
 25  7  1  0
 26  1  1  0
 26  9  1  0
 27 18  2  0
 27 20  1  0
  1 28  1  0
  1 29  1  0
  4 30  1  0
  5 31  1  0
  5 32  1  0
  5 33  1  0
  6 34  1  0
  8 35  1  0
 12 36  1  0
 15 37  1  0
 15 38  1  0
 16 39  1  0
 17 40  1  0
 17 41  1  0
 19 42  1  0
 21 43  1  0
 22 44  1  0
 22 45  1  0
 25 46  1  0
 26 47  1  0
 27 48  1  0
M  END
>  <mol_id>  (87) 
2026-08-24-6tgu-s0-n100-seed1-0092

>  <rmsd_to_ref>  (87) 


$$$$

     RDKit          3D

 31 33  0  0  0  0  0  0  0  0999 V2000
    3.8700   17.3830   37.5460 C   0  0  0  0  0  0  0  0  0  0  0  0
    2.7200   16.9850   39.1940 N   0  0  0  0  0  0  0  0  0  0  0  0
    1.4490   20.8080   40.5590 N   0  0  0  0  0  0  0  0  0  0  0  0
    3.3050   18.5080   37.7480 N   0  0  0  0  0  0  0  0  0  0  0  0
   -0.6910   15.8650   44.9280 C   0  0  0  0  0  0  0  0  0  0  0  0
    4.7700   16.8450   36.5730 N   0  0  0  0  0  0  0  0  0  0  0  0
    2.0320   21.2640   39.4980 O   0  0  0  0  0  0  0  0  0  0  0  0
    2.6420   18.2250   39.0440 C   0  0  0  0  0  0  0  0  0  0  0  0
   -0.5140   19.9570   43.2360 O   0  0  0  0  0  0  0  0  0  0  0  0
    0.7890   18.7810   41.7790 C   0  0  0  0  0  0  0  0  0  0  0  0
    3.4600   16.4320   38.2980 N   0  0  0  0  0  0  0  0  0  0  0  0
    0.0020   17.7390   43.6490 N   0  0  0  0  0  0  0  0  0  0  0  0
    1.4750   19.5310   40.7070 C   0  0  0  0  0  0  0  0  0  0  0  0
    0.6920   16.7900   42.9170 C   0  0  0  0  0  0  0  0  0  0  0  0
    2.6400   20.2140   39.0230 C   0  0  0  0  0  0  0  0  0  0  0  0
    2.2900   19.2610   39.6090 C   0  0  0  0  0  0  0  0  0  0  0  0
   -0.6850   17.4050   44.8750 C   0  0  0  0  0  0  0  0  0  0  0  0
    0.0350   18.9340   42.9550 C   0  0  0  0  0  0  0  0  0  0  0  0
    1.2260   17.3430   41.7990 C   0  0  0  0  0  0  0  0  0  0  0  0
   -0.6923   15.5342   45.9771 H   0  0  0  0  0  0  0  0  0  0  0  0
   -1.5906   15.4842   44.4224 H   0  0  0  0  0  0  0  0  0  0  0  0
    0.2056   15.4772   44.4224 H   0  0  0  0  0  0  0  0  0  0  0  0
    5.0826   15.8663   36.6462 H   0  0  0  0  0  0  0  0  0  0  0  0
    5.1054   17.4363   35.7992 H   0  0  0  0  0  0  0  0  0  0  0  0
    0.2206   19.6654   41.4554 H   0  0  0  0  0  0  0  0  0  0  0  0
    3.6777   15.4296   38.2051 H   0  0  0  0  0  0  0  0  0  0  0  0
    0.7939   15.7324   43.2019 H   0  0  0  0  0  0  0  0  0  0  0  0
    3.3691   20.2208   38.1994 H   0  0  0  0  0  0  0  0  0  0  0  0
   -0.1496   17.8187   45.7423 H   0  0  0  0  0  0  0  0  0  0  0  0
   -1.7028   17.8213   44.9025 H   0  0  0  0  0  0  0  0  0  0  0  0
    1.8561   16.8374   41.0525 H   0  0  0  0  0  0  0  0  0  0  0  0
  1  4  2  0
  1 11  1  0
  3 13  2  0
  4  8  1  0
  6  1  1  0
  7  3  1  0
  8  2  2  0
  8 16  1  0
 10 13  1  0
 10 19  1  0
 10 18  1  0
 11  2  1  0
 12 17  1  0
 14 12  1  0
 15  7  1  0
 15 16  2  0
 16 13  1  0
 17  5  1  0
 18  9  2  0
 18 12  1  0
 19 14  2  0
  5 20  1  0
  5 21  1  0
  5 22  1  0
  6 23  1  0
  6 24  1  0
 10 25  1  0
 11 26  1  0
 14 27  1  0
 15 28  1  0
 17 29  1  0
 17 30  1  0
 19 31  1  0
M  END
>  <mol_id>  (88) 
2026-08-24-6tgu-s0-n100-seed1-0093

>  <rmsd_to_ref>  (88) 


$$$$

     RDKit          3D

 41 45  0  0  0  0  0  0  0  0999 V2000
    1.4080   18.1530   41.0510 C   0  0  0  0  0  0  0  0  0  0  0  0
   -0.3090   21.1260   42.5390 C   0  0  0  0  0  0  0  0  0  0  0  0
    0.3960   16.1340   43.1340 C   0  0  0  0  0  0  0  0  0  0  0  0
    3.2550   20.8690   36.0220 N   0  0  0  0  0  4  0  0  0  0  0  0
    0.0440   18.4880   43.1510 C   0  0  0  0  0  0  0  0  0  0  0  0
    0.0300   17.1340   43.8120 C   0  0  0  0  0  0  0  0  0  0  0  0
   -0.4060   19.3730   44.0100 N   0  0  0  0  0  0  0  0  0  0  0  0
    1.0670   15.7860   42.1640 C   0  0  0  0  0  0  0  0  0  0  0  0
    2.4120   19.5090   38.7470 C   0  0  0  0  0  0  0  0  0  0  0  0
    3.2460   18.9700   37.5900 C   0  0  0  0  0  0  0  0  0  0  0  0
    2.4800   21.3550   37.0730 C   0  0  0  0  0  0  0  0  0  0  0  0
    3.6180   19.7890   36.5970 C   0  0  0  0  0  0  0  0  0  0  0  0
    2.1920   20.9940   38.5110 C   0  0  0  0  0  0  0  0  0  0  0  0
    2.6170   17.1750   39.5430 C   0  0  0  0  0  0  0  0  0  0  0  0
   -0.7070   20.6570   43.8010 N   0  0  0  0  0  0  0  0  0  0  0  0
   -1.1280   17.7620   45.8070 N   0  0  0  0  0  0  0  0  0  0  0  0
    1.5440   16.7570   41.2870 C   0  0  0  0  0  0  0  0  0  0  0  0
    2.3440   16.1990   40.2850 N   0  0  0  0  0  0  0  0  0  0  0  0
    2.0250   18.5770   39.7310 C   0  0  0  0  0  0  0  0  0  0  0  0
    0.5960   18.9680   41.9700 C   0  0  0  0  0  0  0  0  0  0  0  0
   -0.4920   15.6950   45.4660 O   0  0  0  0  0  0  0  0  0  0  0  0
    0.3240   20.3080   41.6460 C   0  0  0  0  0  0  0  0  0  0  0  0
    3.4760   16.7850   38.4550 C   0  0  0  0  0  0  0  0  0  0  0  0
    3.6730   17.6990   37.4980 C   0  0  0  0  0  0  0  0  0  0  0  0
   -0.5670   16.7900   45.1120 C   0  0  0  0  0  0  0  0  0  0  0  0
   -0.5105   22.1718   42.2638 H   0  0  0  0  0  0  0  0  0  0  0  0
   -0.0556   15.2349   43.5785 H   0  0  0  0  0  0  0  0  0  0  0  0
    4.0497   21.4849   35.7983 H   0  0  0  0  0  0  0  0  0  0  0  0
    2.7919   20.7759   35.1067 H   0  0  0  0  0  0  0  0  0  0  0  0
    1.2875   14.7222   41.9914 H   0  0  0  0  0  0  0  0  0  0  0  0
    2.8427   22.3894   37.1652 H   0  0  0  0  0  0  0  0  0  0  0  0
    1.5573   20.8872   36.6992 H   0  0  0  0  0  0  0  0  0  0  0  0
    3.6496   19.0931   35.7457 H   0  0  0  0  0  0  0  0  0  0  0  0
    4.3314   20.3210   37.2436 H   0  0  0  0  0  0  0  0  0  0  0  0
    2.8624   21.5672   39.1683 H   0  0  0  0  0  0  0  0  0  0  0  0
    1.1419   21.2353   38.7324 H   0  0  0  0  0  0  0  0  0  0  0  0
   -1.5564   17.5601   46.7217 H   0  0  0  0  0  0  0  0  0  0  0  0
   -1.1373   18.7223   45.4346 H   0  0  0  0  0  0  0  0  0  0  0  0
    0.6236   20.7024   40.6638 H   0  0  0  0  0  0  0  0  0  0  0  0
    3.9443   15.7906   38.4130 H   0  0  0  0  0  0  0  0  0  0  0  0
    4.2123   17.3944   36.5889 H   0  0  0  0  0  0  0  0  0  0  0  0
  1 17  1  0
  1 20  1  0
  2 15  2  0
  3  6  2  0
  4 12  1  0
  4 11  1  0
  5  6  1  0
  5  7  2  0
  6 25  1  0
  8  3  1  0
  9 19  1  0
 10  9  2  0
 11 13  1  0
 12 10  1  0
 13  9  1  0
 14 19  1  0
 14 18  2  0
 15  7  1  0
 17  8  2  0
 18 17  1  0
 19  1  2  0
 20  5  1  0
 22 20  2  0
 22  2  1  0
 23 14  1  0
 24 10  1  0
 24 23  2  0
 25 21  2  0
 25 16  1  0
  2 26  1  0
  3 27  1  0
  4 28  1  0
  4 29  1  0
  8 30  1  0
 11 31  1  0
 11 32  1  0
 12 33  1  0
 12 34  1  0
 13 35  1  0
 13 36  1  0
 16 37  1  0
 16 38  1  0
 22 39  1  0
 23 40  1  0
 24 41  1  0
M  CHG  1   4   1
M  END
>  <mol_id>  (89) 
2026-08-24-6tgu-s0-n100-seed1-0094

>  <rmsd_to_ref>  (89) 


$$$$

     RDKit          3D

 42 44  0  0  0  0  0  0  0  0999 V2000
    2.7320   15.9660   39.1880 O   0  0  0  0  0  0  0  0  0  0  0  0
    0.4460   20.8470   41.8030 N   0  0  0  0  0  0  0  0  0  0  0  0
    1.6100   21.2410   39.6520 N   0  0  0  0  0  0  0  0  0  0  0  0
    0.5560   19.4600   41.8120 C   0  0  0  0  0  0  0  0  0  0  0  0
   -0.3290   21.1340   42.8510 N   0  0  0  0  0  0  0  0  0  0  0  0
   -0.0740   18.8910   42.8960 C   0  0  0  0  0  0  0  0  0  0  0  0
    2.6970   20.6780   37.6300 C   0  0  0  0  0  0  0  0  0  0  0  0
    3.4900   19.6750   37.1800 C   0  0  0  0  0  0  0  0  0  0  0  0
    1.9030   15.9770   41.4100 C   0  0  0  0  0  0  0  0  0  0  0  0
    1.3440   16.6540   42.4910 N   0  0  0  0  0  4  0  0  0  0  0  0
    2.3730   18.8250   38.9950 C   0  0  0  0  0  0  0  0  0  0  0  0
   -0.5930   16.7750   44.0400 C   0  0  0  0  0  0  0  0  0  0  0  0
    2.2860   16.6430   40.0710 C   0  0  0  0  0  0  0  0  0  0  0  0
    0.5180   17.5330   43.3110 C   0  0  0  0  0  0  0  0  0  0  0  0
    2.2950   14.5900   41.5060 C   0  0  0  0  0  0  0  0  0  0  0  0
    2.1540   20.3230   38.9290 C   0  0  0  0  0  0  0  0  0  0  0  0
    1.4090   18.5920   40.9790 N   0  0  0  0  0  0  0  0  0  0  0  0
    1.9820   17.9220   40.0210 N   0  0  0  0  0  0  0  0  0  0  0  0
    2.7120   13.5310   41.1930 C   0  0  0  0  0  0  0  0  0  0  0  0
   -0.7620   20.0260   43.4020 C   0  0  0  0  0  0  0  0  0  0  0  0
    3.1390   18.3370   37.7740 C   0  0  0  0  0  0  0  0  0  0  0  0
    1.2202   21.0055   40.5758 H   0  0  0  0  0  0  0  0  0  0  0  0
   -0.5535   22.0845   43.1782 H   0  0  0  0  0  0  0  0  0  0  0  0
   -0.8421   18.1838   43.2421 H   0  0  0  0  0  0  0  0  0  0  0  0
    1.8724   20.8395   36.9201 H   0  0  0  0  0  0  0  0  0  0  0  0
    3.2899   21.6001   37.7211 H   0  0  0  0  0  0  0  0  0  0  0  0
    3.3879   19.6109   36.0866 H   0  0  0  0  0  0  0  0  0  0  0  0
    4.5212   19.9094   37.4827 H   0  0  0  0  0  0  0  0  0  0  0  0
    0.8986   15.6705   41.0826 H   0  0  0  0  0  0  0  0  0  0  0  0
    1.1153   15.8004   43.0201 H   0  0  0  0  0  0  0  0  0  0  0  0
    1.8052   17.5029   42.1339 H   0  0  0  0  0  0  0  0  0  0  0  0
    1.4228   18.6421   38.4719 H   0  0  0  0  0  0  0  0  0  0  0  0
   -0.4510   16.8719   45.1265 H   0  0  0  0  0  0  0  0  0  0  0  0
   -1.5696   17.1960   43.7588 H   0  0  0  0  0  0  0  0  0  0  0  0
   -0.5572   15.7121   43.7588 H   0  0  0  0  0  0  0  0  0  0  0  0
    1.3925   17.8789   43.8816 H   0  0  0  0  0  0  0  0  0  0  0  0
    2.0229   18.2637   41.7381 H   0  0  0  0  0  0  0  0  0  0  0  0
    3.1006   12.5441   40.9013 H   0  0  0  0  0  0  0  0  0  0  0  0
   -0.6067   20.0829   44.4895 H   0  0  0  0  0  0  0  0  0  0  0  0
   -1.8306   19.9166   43.1649 H   0  0  0  0  0  0  0  0  0  0  0  0
    2.5079   17.7378   37.1012 H   0  0  0  0  0  0  0  0  0  0  0  0
    3.9880   17.6683   37.9790 H   0  0  0  0  0  0  0  0  0  0  0  0
  1 13  2  0
  2  4  2  0
  2  5  1  0
  4  6  1  0
  5 20  1  0
  6 14  1  0
  6 20  1  0
  7 16  1  0
  8  7  1  0
  8 21  1  0
  9 15  1  0
  9 10  1  0
 10 14  1  0
 11 21  1  0
 11 18  1  0
 13  9  1  0
 14 12  1  0
 16 11  1  0
 16  3  2  3
 17  4  1  0
 18 13  1  0
 18 17  1  0
 19 15  3  0
  3 22  1  0
  5 23  1  0
  6 24  1  0
  7 25  1  0
  7 26  1  0
  8 27  1  0
  8 28  1  0
  9 29  1  0
 10 30  1  0
 10 31  1  0
 11 32  1  0
 12 33  1  0
 12 34  1  0
 12 35  1  0
 14 36  1  0
 17 37  1  0
 19 38  1  0
 20 39  1  0
 20 40  1  0
 21 41  1  0
 21 42  1  0
M  CHG  1  10   1
M  END
>  <mol_id>  (90) 
2026-08-24-6tgu-s0-n100-seed1-0095

>  <rmsd_to_ref>  (90) 


$$$$

     RDKit          3D

 49 52  0  0  0  0  0  0  0  0999 V2000
   -0.0240   14.7670   44.1830 C   0  0  0  0  0  0  0  0  0  0  0  0
    2.5110   20.6400   38.0310 C   0  0  0  0  0  0  0  0  0  0  0  0
    1.0000   16.1160   42.2240 C   0  0  0  0  0  0  0  0  0  0  0  0
    1.5520   13.7440   42.8010 O   0  0  0  0  0  0  0  0  0  0  0  0
    0.2970   21.1300   41.6110 C   0  0  0  0  0  0  0  0  0  0  0  0
    2.9670   18.4340   38.3500 C   0  0  0  0  0  0  0  0  0  0  0  0
    3.2840   20.1280   36.8900 C   0  0  0  0  0  0  0  0  0  0  0  0
    0.6150   18.6660   42.0400 C   0  0  0  0  0  0  0  0  0  0  0  0
   -1.4170   19.4510   44.2540 N   0  0  0  0  0  0  0  0  0  0  0  0
    3.5940   20.7500   35.8380 O   0  0  0  0  0  0  0  0  0  0  0  0
    2.1320   19.8190   40.4520 C   0  0  0  0  0  0  0  0  0  0  0  0
    0.8420   14.8840   43.0270 C   0  0  0  0  0  0  0  0  0  0  0  0
    0.2930   17.3680   42.8250 C   0  0  0  0  0  0  0  0  0  0  0  0
    3.5670   18.8040   37.2420 C   0  0  0  0  0  0  0  0  0  0  0  0
    1.5010   18.6170   40.9420 C   0  0  0  0  0  0  0  0  0  0  0  0
    0.0230   19.9550   42.2940 C   0  0  0  0  0  0  0  0  0  0  0  0
    2.1650   13.2810   41.7330 C   0  0  0  0  0  0  0  0  0  0  0  0
    2.4690   19.5950   38.9970 N   0  0  0  0  0  0  0  0  0  0  0  0
    1.4630   21.1700   40.6030 C   0  0  0  0  0  0  0  0  0  0  0  0
    4.2420   17.8930   36.4300 O   0  0  0  0  0  0  0  0  0  0  0  0
   -0.6780   15.8260   44.6700 C   0  0  0  0  0  0  0  0  0  0  0  0
   -0.9380   20.0820   43.2680 C   0  0  0  0  0  0  0  0  0  0  0  0
   -0.5430   17.1400   44.0000 C   0  0  0  0  0  0  0  0  0  0  0  0
    4.2430   16.6190   37.2500 C   0  0  0  0  0  0  0  0  0  0  0  0
   -1.3630   18.1530   44.4730 C   0  0  0  0  0  0  0  0  0  0  0  0
   -0.1455   13.7877   44.6691 H   0  0  0  0  0  0  0  0  0  0  0  0
    3.0027   21.5283   38.4543 H   0  0  0  0  0  0  0  0  0  0  0  0
    1.4973   20.9352   37.7223 H   0  0  0  0  0  0  0  0  0  0  0  0
    1.5682   16.1460   41.2826 H   0  0  0  0  0  0  0  0  0  0  0  0
   -0.6145   21.3971   41.0561 H   0  0  0  0  0  0  0  0  0  0  0  0
    0.6190   21.8202   42.4047 H   0  0  0  0  0  0  0  0  0  0  0  0
    3.6840   17.9206   39.0075 H   0  0  0  0  0  0  0  0  0  0  0  0
    2.1412   17.7442   38.1213 H   0  0  0  0  0  0  0  0  0  0  0  0
    2.9863   19.9356   41.1351 H   0  0  0  0  0  0  0  0  0  0  0  0
    4.6629   18.7323   37.1804 H   0  0  0  0  0  0  0  0  0  0  0  0
    0.9347   18.1932   40.0996 H   0  0  0  0  0  0  0  0  0  0  0  0
    2.3488   18.0372   41.3358 H   0  0  0  0  0  0  0  0  0  0  0  0
    3.0077   12.6445   42.0409 H   0  0  0  0  0  0  0  0  0  0  0  0
    1.4586   12.6890   41.1325 H   0  0  0  0  0  0  0  0  0  0  0  0
    2.5413   14.1224   41.1325 H   0  0  0  0  0  0  0  0  0  0  0  0
    2.2094   21.8984   40.9527 H   0  0  0  0  0  0  0  0  0  0  0  0
    1.0541   21.4571   39.6230 H   0  0  0  0  0  0  0  0  0  0  0  0
   -1.7482   15.5719   44.6625 H   0  0  0  0  0  0  0  0  0  0  0  0
   -0.2100   15.9884   45.6521 H   0  0  0  0  0  0  0  0  0  0  0  0
   -1.4595   21.0437   43.1529 H   0  0  0  0  0  0  0  0  0  0  0  0
    4.2428   16.8720   38.3205 H   0  0  0  0  0  0  0  0  0  0  0  0
    3.3453   16.0293   37.0124 H   0  0  0  0  0  0  0  0  0  0  0  0
    5.1416   16.0307   37.0124 H   0  0  0  0  0  0  0  0  0  0  0  0
   -2.1287   17.7988   45.1788 H   0  0  0  0  0  0  0  0  0  0  0  0
  1 21  1  0
  3 13  2  0
  3 12  1  0
  4 12  1  0
  5 16  1  0
  6 18  1  0
  7 14  1  0
  7  2  1  0
  8 16  2  0
  8 13  1  0
  9 25  1  0
 10  7  2  0
 11 19  1  0
 11 15  1  0
 12  1  2  0
 13 23  1  0
 14 20  1  0
 14  6  1  0
 15  8  1  0
 16 22  1  0
 17  4  1  0
 18  2  1  0
 18 11  1  0
 19  5  1  0
 20 24  1  0
 22  9  2  0
 23 25  2  0
 23 21  1  0
  1 26  1  0
  2 27  1  0
  2 28  1  0
  3 29  1  0
  5 30  1  0
  5 31  1  0
  6 32  1  0
  6 33  1  0
 11 34  1  0
 14 35  1  0
 15 36  1  0
 15 37  1  0
 17 38  1  0
 17 39  1  0
 17 40  1  0
 19 41  1  0
 19 42  1  0
 21 43  1  0
 21 44  1  0
 22 45  1  0
 24 46  1  0
 24 47  1  0
 24 48  1  0
 25 49  1  0
M  END
>  <mol_id>  (91) 
2026-08-24-6tgu-s0-n100-seed1-0096

>  <rmsd_to_ref>  (91) 


$$$$

     RDKit          3D

 38 41  0  0  0  0  0  0  0  0999 V2000
    2.9100   18.6370   38.5090 C   0  0  0  0  0  0  0  0  0  0  0  0
    1.7290   13.9960   41.8960 N   0  0  0  0  0  0  0  0  0  0  0  0
    3.5530   19.6610   36.3710 N   0  0  0  0  0  0  0  0  0  0  0  0
    1.7020   19.9060   40.1480 C   0  0  0  0  0  0  0  0  0  0  0  0
    3.4100   20.8670   35.9080 C   0  0  0  0  0  0  0  0  0  0  0  0
    2.2910   18.6310   39.7270 C   0  0  0  0  0  0  0  0  0  0  0  0
   -0.4750   15.7540   44.2130 C   0  0  0  0  0  0  0  0  0  0  0  0
    1.7950   20.9400   39.1510 C   0  0  0  0  0  0  0  0  0  0  0  0
    0.2890   21.2300   41.5380 C   0  0  0  0  0  0  0  0  0  0  0  0
    1.0860   15.1950   42.4470 C   0  0  0  0  0  0  0  0  0  0  0  0
    0.1870   19.7650   43.5330 O   0  0  0  0  0  0  0  0  0  0  0  0
    2.9970   19.4910   37.5800 C   0  0  0  0  0  0  0  0  0  0  0  0
    1.2620   16.5740   42.0340 C   0  0  0  0  0  0  0  0  0  0  0  0
    0.3070   13.4570   43.6070 N   0  0  0  0  0  0  0  0  0  0  0  0
    1.3780   11.4490   42.3440 C   0  0  0  0  0  0  0  0  0  0  0  0
    2.4420   20.7000   37.9630 C   0  0  0  0  0  0  0  0  0  0  0  0
    0.3330   14.8050   43.4850 C   0  0  0  0  0  0  0  0  0  0  0  0
    0.6540   19.1010   42.6120 C   0  0  0  0  0  0  0  0  0  0  0  0
    1.0070   19.9410   41.3670 N   0  0  0  0  0  0  0  0  0  0  0  0
    0.4910   17.5620   42.8430 C   0  0  0  0  0  0  0  0  0  0  0  0
    1.1390   12.9200   42.6280 C   0  0  0  0  0  0  0  0  0  0  0  0
    3.6850   21.4320   34.8990 O   0  0  0  0  0  0  0  0  0  0  0  0
   -0.3610   17.0620   43.8420 C   0  0  0  0  0  0  0  0  0  0  0  0
    2.6630   21.5430   36.8950 O   0  0  0  0  0  0  0  0  0  0  0  0
    3.4459   17.7016   38.2900 H   0  0  0  0  0  0  0  0  0  0  0  0
    4.0433   18.9120   35.8615 H   0  0  0  0  0  0  0  0  0  0  0  0
    2.2379   17.7273   40.3519 H   0  0  0  0  0  0  0  0  0  0  0  0
   -1.1475   15.4391   45.0245 H   0  0  0  0  0  0  0  0  0  0  0  0
    1.3463   21.9262   39.3410 H   0  0  0  0  0  0  0  0  0  0  0  0
    0.1699   21.4439   42.6104 H   0  0  0  0  0  0  0  0  0  0  0  0
    0.8673   22.0374   41.0651 H   0  0  0  0  0  0  0  0  0  0  0  0
   -0.7019   21.1633   41.0651 H   0  0  0  0  0  0  0  0  0  0  0  0
    1.9097   16.8668   41.1945 H   0  0  0  0  0  0  0  0  0  0  0  0
   -0.2334   12.9224   44.3020 H   0  0  0  0  0  0  0  0  0  0  0  0
    1.4669   10.9019   43.2941 H   0  0  0  0  0  0  0  0  0  0  0  0
    0.5337   11.0453   41.7660 H   0  0  0  0  0  0  0  0  0  0  0  0
    2.3067   11.3333   41.7660 H   0  0  0  0  0  0  0  0  0  0  0  0
   -0.9925   17.7900   44.3723 H   0  0  0  0  0  0  0  0  0  0  0  0
  1  6  2  0
  2 10  1  0
  2 21  2  0
  3 12  1  0
  4 19  1  0
  5  3  1  0
  5 24  1  0
  6  4  1  0
  8  4  2  0
 10 17  2  0
 12 16  2  0
 12  1  1  0
 13 10  1  0
 13 20  2  0
 15 21  1  0
 16  8  1  0
 17 14  1  0
 17  7  1  0
 18 20  1  0
 18 11  2  0
 19  9  1  0
 19 18  1  0
 20 23  1  0
 21 14  1  0
 22  5  2  0
 23  7  2  0
 24 16  1  0
  1 25  1  0
  3 26  1  0
  6 27  1  0
  7 28  1  0
  8 29  1  0
  9 30  1  0
  9 31  1  0
  9 32  1  0
 13 33  1  0
 14 34  1  0
 15 35  1  0
 15 36  1  0
 15 37  1  0
 23 38  1  0
M  END
>  <mol_id>  (92) 
2026-08-24-6tgu-s0-n100-seed1-0097

>  <rmsd_to_ref>  (92) 


$$$$

     RDKit          3D

 39 42  0  0  0  0  0  0  0  0999 V2000
    4.0460   18.4770   37.6750 C   0  0  0  0  0  0  0  0  0  0  0  0
    1.7750   18.0930   40.6320 N   0  0  0  0  0  0  0  0  0  0  0  0
    0.3330   17.4010   42.6110 C   0  0  0  0  0  0  0  0  0  0  0  0
    3.2130   20.3980   36.9420 C   0  0  0  0  0  0  0  0  0  0  0  0
    2.4930   20.4310   38.0520 C   0  0  0  0  0  0  0  0  0  0  0  0
   -0.5890   14.1980   44.3250 C   0  0  0  0  0  0  0  0  0  0  0  0
    2.5510   19.4720   38.9450 C   0  0  0  0  0  0  0  0  0  0  0  0
   -0.1440   13.0370   43.9510 C   0  0  0  0  0  0  0  0  0  0  0  0
    1.1930   21.5010   40.6840 C   0  0  0  0  0  0  0  0  0  0  0  0
   -0.3740   15.5150   43.8710 C   0  0  0  0  0  0  0  0  0  0  0  0
    4.0410   19.3360   36.6670 N   0  0  0  0  0  0  0  0  0  0  0  0
    0.4190   15.9590   42.8870 C   0  0  0  0  0  0  0  0  0  0  0  0
    0.9050   12.7910   43.0690 C   0  0  0  0  0  0  0  0  0  0  0  0
    3.3410   18.4800   38.8100 C   0  0  0  0  0  0  0  0  0  0  0  0
    3.2350   21.3030   36.0170 O   0  0  0  0  0  0  0  0  0  0  0  0
    1.3760   15.0990   42.2690 C   0  0  0  0  0  0  0  0  0  0  0  0
    0.5200   19.5940   41.7250 C   0  0  0  0  0  0  0  0  0  0  0  0
    1.1620   20.2620   40.7370 C   0  0  0  0  0  0  0  0  0  0  0  0
   -0.4720   19.8700   42.5870 C   0  0  0  0  0  0  0  0  0  0  0  0
   -0.8370   18.4240   43.4080 S   0  0  0  0  0  0  0  0  0  0  0  0
    1.8620   19.2350   40.0600 C   0  0  0  0  0  0  0  0  0  0  0  0
    1.5130   13.7530   42.3060 C   0  0  0  0  0  0  0  0  0  0  0  0
    0.9090   18.2270   41.7290 C   0  0  0  0  0  0  0  0  0  0  0  0
    4.7379   17.6296   37.5600 H   0  0  0  0  0  0  0  0  0  0  0  0
   -0.3888   17.2036   41.8047 H   0  0  0  0  0  0  0  0  0  0  0  0
    2.7750   21.3567   38.5750 H   0  0  0  0  0  0  0  0  0  0  0  0
    1.4680   20.3272   37.6666 H   0  0  0  0  0  0  0  0  0  0  0  0
   -1.2813   14.1419   45.1779 H   0  0  0  0  0  0  0  0  0  0  0  0
    0.1429   12.5285   44.8833 H   0  0  0  0  0  0  0  0  0  0  0  0
   -0.9868   12.7167   43.3208 H   0  0  0  0  0  0  0  0  0  0  0  0
    1.2033   21.9115   41.7045 H   0  0  0  0  0  0  0  0  0  0  0  0
    2.0995   21.8226   40.1503 H   0  0  0  0  0  0  0  0  0  0  0  0
    0.3037   21.8675   40.1503 H   0  0  0  0  0  0  0  0  0  0  0  0
   -0.9411   16.2929   44.4033 H   0  0  0  0  0  0  0  0  0  0  0  0
    1.2693   11.7570   42.9789 H   0  0  0  0  0  0  0  0  0  0  0  0
    3.4347   17.6889   39.5685 H   0  0  0  0  0  0  0  0  0  0  0  0
    2.1301   15.6182   41.6593 H   0  0  0  0  0  0  0  0  0  0  0  0
   -0.9572   20.8461   42.7347 H   0  0  0  0  0  0  0  0  0  0  0  0
    2.2493   13.3580   41.5906 H   0  0  0  0  0  0  0  0  0  0  0  0
  1 14  1  0
  2 23  2  0
  3 12  1  0
  3 20  1  0
  4  5  1  0
  5  7  1  0
  7 21  1  0
  8  6  1  0
  9 18  1  0
 10  6  2  0
 11  4  1  0
 11  1  2  0
 12 10  1  0
 13  8  1  0
 14  7  2  0
 15  4  2  0
 16 22  1  0
 16 12  2  0
 17 23  1  0
 17 19  2  0
 18 17  1  0
 19 20  1  0
 21  2  1  0
 21 18  2  0
 22 13  2  0
 23  3  1  0
  1 24  1  0
  3 25  1  0
  5 26  1  0
  5 27  1  0
  6 28  1  0
  8 29  1  0
  8 30  1  0
  9 31  1  0
  9 32  1  0
  9 33  1  0
 10 34  1  0
 13 35  1  0
 14 36  1  0
 16 37  1  0
 19 38  1  0
 22 39  1  0
M  END
>  <mol_id>  (93) 
2026-08-24-6tgu-s0-n100-seed1-0098

>  <rmsd_to_ref>  (93) 


$$$$

     RDKit          3D

 46 50  0  0  0  0  0  0  0  0999 V2000
    0.2510   17.9220   43.6560 C   0  0  0  0  0  0  0  0  0  0  0  0
    2.0730   20.2600   39.3730 C   0  0  0  0  0  0  0  0  0  0  0  0
    1.7020   12.9390   42.2780 C   0  0  0  0  0  0  0  0  0  0  0  0
    0.1460   19.3920   43.1340 C   0  0  0  0  0  0  0  0  0  0  0  0
    2.4610   18.8310   39.5220 C   0  0  0  0  0  0  0  0  0  0  0  0
   -0.4760   18.0750   44.9680 C   0  0  0  0  0  0  0  0  0  0  0  0
    0.8840   20.6790   41.3560 C   0  0  0  0  0  0  0  0  0  0  0  0
    1.1140   15.7480   42.4640 C   0  0  0  0  0  0  0  0  0  0  0  0
    2.0450   15.1990   41.5200 C   0  0  0  0  0  0  0  0  0  0  0  0
    3.9340   20.6740   35.8400 N   0  0  0  0  0  0  0  0  0  0  0  0
    3.0720   20.9700   36.5090 C   0  0  0  0  0  0  0  0  0  0  0  0
    2.0960   21.7540   36.5890 O   0  0  0  0  0  0  0  0  0  0  0  0
   -0.3760   20.1710   44.0570 N   0  0  0  0  0  0  0  0  0  0  0  0
    2.3170   18.1770   40.7090 C   0  0  0  0  0  0  0  0  0  0  0  0
   -0.7490   19.4180   45.1620 N   0  0  0  0  0  0  0  0  0  0  0  0
    0.9200   19.4460   42.0500 C   0  0  0  0  0  0  0  0  0  0  0  0
    3.7070   20.0420   37.1360 C   0  0  0  0  0  0  0  0  0  0  0  0
    2.2610   13.8760   41.3880 C   0  0  0  0  0  0  0  0  0  0  0  0
    3.4790   18.5700   37.2050 C   0  0  0  0  0  0  0  0  0  0  0  0
   -0.8430   17.0380   45.9440 C   0  0  0  0  0  0  0  0  0  0  0  0
    0.8570   13.3920   43.2110 C   0  0  0  0  0  0  0  0  0  0  0  0
    1.4350   20.9180   40.2140 C   0  0  0  0  0  0  0  0  0  0  0  0
   -1.7030   17.3400   47.1040 C   0  0  0  0  0  0  0  0  0  0  0  0
    0.6070   14.8090   43.3750 C   0  0  0  0  0  0  0  0  0  0  0  0
    2.8270   17.9780   38.3570 C   0  0  0  0  0  0  0  0  0  0  0  0
    0.8270   17.1600   42.5570 C   0  0  0  0  0  0  0  0  0  0  0  0
    1.4510   18.3300   41.6710 C   0  0  0  0  0  0  0  0  0  0  0  0
    2.3735   20.7739   38.4480 H   0  0  0  0  0  0  0  0  0  0  0  0
    1.9518   11.8700   42.2085 H   0  0  0  0  0  0  0  0  0  0  0  0
    0.3380   21.5067   41.8323 H   0  0  0  0  0  0  0  0  0  0  0  0
    2.6077   15.8899   40.8750 H   0  0  0  0  0  0  0  0  0  0  0  0
    4.4744   20.7748   34.9690 H   0  0  0  0  0  0  0  0  0  0  0  0
    3.0588   17.3841   40.8854 H   0  0  0  0  0  0  0  0  0  0  0  0
    4.0854   19.9135   38.1608 H   0  0  0  0  0  0  0  0  0  0  0  0
    2.8920   13.5174   40.5614 H   0  0  0  0  0  0  0  0  0  0  0  0
    3.8082   17.9277   36.3749 H   0  0  0  0  0  0  0  0  0  0  0  0
   -1.3537   16.2455   45.3773 H   0  0  0  0  0  0  0  0  0  0  0  0
    0.1223   16.8088   46.4191 H   0  0  0  0  0  0  0  0  0  0  0  0
    0.3420   12.6742   43.8664 H   0  0  0  0  0  0  0  0  0  0  0  0
    2.1295   21.7372   40.4518 H   0  0  0  0  0  0  0  0  0  0  0  0
    0.4894   20.8778   39.6535 H   0  0  0  0  0  0  0  0  0  0  0  0
   -1.1473   17.1449   48.0331 H   0  0  0  0  0  0  0  0  0  0  0  0
   -2.0039   18.3976   47.0719 H   0  0  0  0  0  0  0  0  0  0  0  0
   -2.5990   16.7027   47.0719 H   0  0  0  0  0  0  0  0  0  0  0  0
    0.0082   15.1558   44.2301 H   0  0  0  0  0  0  0  0  0  0  0  0
    2.6031   16.9011   38.3705 H   0  0  0  0  0  0  0  0  0  0  0  0
  1  6  1  0
  2  5  2  0
  2 22  1  0
  3 21  2  0
  4  1  1  0
  4 13  2  0
  5 14  1  0
  6 15  2  0
  6 20  1  0
  7 16  2  0
  8 26  1  0
  8 24  2  0
  9  8  1  0
 10 11  1  0
 10 17  1  0
 11 12  2  0
 11 17  1  0
 13 15  1  0
 14 27  2  0
 16  4  1  0
 17 19  1  0
 18  9  2  0
 18  3  1  0
 19 25  2  3
 20 23  1  0
 21 24  1  0
 22  7  1  0
 25  5  1  0
 26  1  2  0
 27 16  1  0
 27 26  1  0
  2 28  1  0
  3 29  1  0
  7 30  1  0
  9 31  1  0
 10 32  1  0
 14 33  1  0
 17 34  1  0
 18 35  1  0
 19 36  1  0
 20 37  1  0
 20 38  1  0
 21 39  1  0
 22 40  1  0
 22 41  1  0
 23 42  1  0
 23 43  1  0
 23 44  1  0
 24 45  1  0
 25 46  1  0
M  END
>  <mol_id>  (94) 
2026-08-24-6tgu-s0-n100-seed1-0099

>  <rmsd_to_ref>  (94) 


$$$$

     RDKit          3D

 43 46  0  0  0  0  0  0  0  0999 V2000
   -1.0350   17.5270   44.4430 N   0  0  0  0  0  0  0  0  0  0  0  0
    2.3880   16.2350   40.5200 C   0  0  0  0  0  0  0  0  0  0  0  0
   -1.0580   19.9780   44.1650 N   0  0  0  0  0  0  0  0  0  0  0  0
    2.7580   18.1900   39.5880 O   0  0  0  0  0  0  0  0  0  0  0  0
   -0.5220   20.9020   43.3780 C   0  0  0  0  0  0  0  0  0  0  0  0
    3.6060   20.1950   36.9970 O   0  0  0  0  0  0  0  0  0  0  0  0
    2.9440   15.6380   39.3520 C   0  0  0  0  0  0  0  0  0  0  0  0
    3.8930   17.5090   37.5170 C   0  0  0  0  0  0  0  0  0  0  0  0
    2.9420   14.3080   39.6470 N   0  0  0  0  0  0  0  0  0  0  0  0
    2.0940   17.7670   40.6600 C   0  0  0  0  0  0  0  0  0  0  0  0
    3.6040   20.7730   35.9990 O   0  0  0  0  0  0  0  0  0  0  0  0
    4.1570   15.1390   37.2230 C   0  0  0  0  0  0  0  0  0  0  0  0
    1.4070   19.0570   40.8450 N   0  0  0  0  0  4  0  0  0  0  0  0
    2.0950   15.1650   41.3950 C   0  0  0  0  0  0  0  0  0  0  0  0
   -0.4680   16.5520   43.7830 C   0  0  0  0  0  0  0  0  0  0  0  0
   -0.6680   18.7170   43.8630 C   0  0  0  0  0  0  0  0  0  0  0  0
    3.3640   18.8030   37.0930 C   0  0  0  0  0  0  0  0  0  0  0  0
    2.8730   19.0620   38.8150 C   0  0  0  0  0  0  0  0  0  0  0  0
    3.4930   16.1910   38.1060 C   0  0  0  0  0  0  0  0  0  0  0  0
    0.2820   16.9870   42.7480 N   0  0  0  0  0  0  0  0  0  0  0  0
    0.3160   20.7320   42.2990 C   0  0  0  0  0  0  0  0  0  0  0  0
    2.4650   14.0920   40.8630 N   0  0  0  0  0  0  0  0  0  0  0  0
    0.1770   18.3870   42.7380 C   0  0  0  0  0  0  0  0  0  0  0  0
    0.6270   19.3970   41.9140 C   0  0  0  0  0  0  0  0  0  0  0  0
   -0.7819   21.9431   43.6200 H   0  0  0  0  0  0  0  0  0  0  0  0
    4.6578   17.8299   38.2395 H   0  0  0  0  0  0  0  0  0  0  0  0
    3.8041   17.1091   36.4961 H   0  0  0  0  0  0  0  0  0  0  0  0
    1.8014   17.4811   41.6811 H   0  0  0  0  0  0  0  0  0  0  0  0
    3.6006   21.7461   36.1812 H   0  0  0  0  0  0  0  0  0  0  0  0
    4.6370   14.3785   37.8565 H   0  0  0  0  0  0  0  0  0  0  0  0
    3.3969   14.6606   36.5879 H   0  0  0  0  0  0  0  0  0  0  0  0
    4.9159   15.6193   36.5879 H   0  0  0  0  0  0  0  0  0  0  0  0
    2.1515   19.7682   40.8147 H   0  0  0  0  0  0  0  0  0  0  0  0
    0.6859   18.9828   40.1132 H   0  0  0  0  0  0  0  0  0  0  0  0
    2.6289   15.3089   42.3459 H   0  0  0  0  0  0  0  0  0  0  0  0
    1.0132   15.1298   41.5913 H   0  0  0  0  0  0  0  0  0  0  0  0
   -0.5889   15.4900   44.0430 H   0  0  0  0  0  0  0  0  0  0  0  0
    3.1294   18.5875   36.0401 H   0  0  0  0  0  0  0  0  0  0  0  0
    3.6200   19.7473   39.2420 H   0  0  0  0  0  0  0  0  0  0  0  0
    1.8286   19.3865   38.6967 H   0  0  0  0  0  0  0  0  0  0  0  0
    2.5836   16.7057   38.4495 H   0  0  0  0  0  0  0  0  0  0  0  0
   -0.1552   21.2232   41.4349 H   0  0  0  0  0  0  0  0  0  0  0  0
    1.2762   21.1632   42.6183 H   0  0  0  0  0  0  0  0  0  0  0  0
  2 10  1  0
  2 14  1  0
  4 10  1  0
  5  3  2  0
  7  9  1  0
  7  2  2  0
  8 19  1  0
  9 22  2  0
 10 13  1  0
 11  6  1  0
 13 24  1  0
 15  1  1  0
 16  3  1  0
 16  1  2  0
 17  6  1  0
 17  8  1  0
 17 18  1  0
 18  4  1  0
 19 12  1  0
 19  7  1  0
 20 15  2  0
 21  5  1  0
 22 14  1  0
 23 20  1  0
 23 16  1  0
 24 21  1  0
 24 23  2  0
  5 25  1  0
  8 26  1  0
  8 27  1  0
 10 28  1  0
 11 29  1  0
 12 30  1  0
 12 31  1  0
 12 32  1  0
 13 33  1  0
 13 34  1  0
 14 35  1  0
 14 36  1  0
 15 37  1  0
 17 38  1  0
 18 39  1  0
 18 40  1  0
 19 41  1  0
 21 42  1  0
 21 43  1  0
M  CHG  1  13   1
M  END
>  <mol_id>  (95) 
2026-08-24-6tgu-s0-n100-seed1-0100

>  <rmsd_to_ref>  (95) 


$$$$
