
     RDKit          3D

 22 24  0  0  0  0  0  0  0  0999 V2000
    1.6760   20.9340   41.5060 C   0  0  0  0  0  0  0  0  0  0  0  0
    1.1200   17.4510   43.1370 C   0  0  0  0  0  0  0  0  0  0  0  0
    0.2010   20.2880   43.4640 C   0  0  0  0  0  0  0  0  0  0  0  0
    1.5940   18.6150   42.0010 C   0  0  0  0  0  0  0  0  0  0  0  0
    1.5190   15.1180   42.8800 C   0  0  0  0  0  0  0  0  0  0  0  0
    2.4570   15.4740   41.8720 C   0  0  0  0  0  0  0  0  0  0  0  0
   -0.6660   19.7570   45.3800 O   0  0  0  0  0  0  0  0  0  0  0  0
    0.8510   16.1160   43.7470 C   0  0  0  0  0  0  0  0  0  0  0  0
   -0.1900   18.5570   44.9840 N   0  0  0  0  0  0  0  0  0  0  0  0
   -0.5290   20.7650   44.5100 N   0  0  0  0  0  0  0  0  0  0  0  0
    1.9870   17.5670   42.2000 C   0  0  0  0  0  0  0  0  0  0  0  0
    2.1240   19.6450   41.2030 N   0  0  0  0  0  0  0  0  0  0  0  0
    2.7140   16.7040   41.5040 N   0  0  0  0  0  0  0  0  0  0  0  0
    0.4140   18.7470   43.7280 C   0  0  0  0  0  0  0  0  0  0  0  0
    0.7310   21.1670   42.4290 N   0  0  0  0  0  0  0  0  0  0  0  0
    2.1141   21.7878   40.9683 H   0  0  0  0  0  0  0  0  0  0  0  0
    0.5866   18.4500   41.5912 H   0  0  0  0  0  0  0  0  0  0  0  0
    1.8416   19.0500   42.9805 H   0  0  0  0  0  0  0  0  0  0  0  0
    1.2789   14.0540   43.0221 H   0  0  0  0  0  0  0  0  0  0  0  0
    3.0026   14.6625   41.3683 H   0  0  0  0  0  0  0  0  0  0  0  0
    0.2715   15.9132   44.6597 H   0  0  0  0  0  0  0  0  0  0  0  0
    2.7975   19.4616   40.4456 H   0  0  0  0  0  0  0  0  0  0  0  0
  1 15  2  0
  2 14  1  0
  2  8  1  0
  3 14  1  0
  3 10  2  0
  4 11  1  0
  5  8  2  0
  6  5  1  0
  9  7  1  0
 10  7  1  0
 11  2  2  0
 12  1  1  0
 12  4  1  0
 13  6  2  0
 13 11  1  0
 14  9  2  0
 15  3  1  0
  1 16  1  0
  4 17  1  0
  4 18  1  0
  5 19  1  0
  6 20  1  0
  8 21  1  0
 12 22  1  0
M  END
>  <mol_id>  (1) 
2026-09-18-6fnk-s0-n100-refligand-seed1-0001

>  <rmsd_to_ref>  (1) 


$$$$

     RDKit          3D

 53 55  0  0  0  0  0  0  0  0999 V2000
   -1.4170   17.0890   46.4550 C   0  0  0  0  0  0  0  0  0  0  0  0
    2.8240   19.7540   38.1640 C   0  0  0  0  0  0  0  0  0  0  0  0
   -0.7310   17.2060   45.2960 C   0  0  0  0  0  0  0  0  0  0  0  0
    2.9550   18.4460   40.1650 C   0  0  0  0  0  0  0  0  0  0  0  0
   -0.4630   21.1430   44.9660 O   0  0  0  0  0  0  0  0  0  0  0  0
   -0.2180   15.9390   44.8070 C   0  0  0  0  0  0  0  0  0  0  0  0
   -0.6950   18.3580   44.6560 N   0  0  0  0  0  0  0  0  0  0  0  0
    3.4040   21.8730   37.4240 C   0  0  0  0  0  0  0  0  0  0  0  0
   -0.1690   20.8250   44.1320 C   0  0  0  0  0  0  0  0  0  0  0  0
    0.0900   18.8100   43.5910 C   0  0  0  0  0  0  0  0  0  0  0  0
    1.5790   19.9810   41.8380 N   0  0  0  0  0  0  0  0  0  0  0  0
   -0.4580   14.7850   45.4280 C   0  0  0  0  0  0  0  0  0  0  0  0
    2.4010   20.5880   39.3670 C   0  0  0  0  0  0  0  0  0  0  0  0
    0.1090   13.4790   44.8900 C   0  0  0  0  0  0  0  0  0  0  0  0
    3.6990   16.0900   40.6280 C   0  0  0  0  0  0  0  0  0  0  0  0
    2.8390   17.9800   41.5880 C   0  0  0  0  0  0  0  0  0  0  0  0
    4.9050   21.5770   39.3700 C   0  0  0  0  0  0  0  0  0  0  0  0
   -1.7070   15.9330   47.1340 C   0  0  0  0  0  0  0  0  0  0  0  0
    0.2060   20.1580   43.4520 C   0  0  0  0  0  0  0  0  0  0  0  0
    3.4020   17.1650   41.3160 C   0  0  0  0  0  0  0  0  0  0  0  0
    2.5870   19.8980   40.4620 C   0  0  0  0  0  0  0  0  0  0  0  0
    3.6010   21.0570   38.6040 C   0  0  0  0  0  0  0  0  0  0  0  0
    1.6580   18.6910   42.0800 C   0  0  0  0  0  0  0  0  0  0  0  0
    1.1100   13.4480   44.1220 O   0  0  0  0  0  0  0  0  0  0  0  0
    2.3730   17.6110   38.9720 O   0  0  0  0  0  0  0  0  0  0  0  0
   -1.2370   14.7110   46.5760 C   0  0  0  0  0  0  0  0  0  0  0  0
   -0.3760   12.3300   45.2190 O   0  0  0  0  0  1  0  0  0  0  0  0
    0.7720   18.0250   42.8920 O   0  0  0  0  0  0  0  0  0  0  0  0
   -1.7832   18.0244   46.9032 H   0  0  0  0  0  0  0  0  0  0  0  0
    2.2161   19.7516   37.2472 H   0  0  0  0  0  0  0  0  0  0  0  0
    3.0842   18.7005   37.9836 H   0  0  0  0  0  0  0  0  0  0  0  0
    3.9087   18.2965   39.6376 H   0  0  0  0  0  0  0  0  0  0  0  0
    0.3907   15.9315   43.8908 H   0  0  0  0  0  0  0  0  0  0  0  0
   -1.3698   19.0535   45.0050 H   0  0  0  0  0  0  0  0  0  0  0  0
    3.1558   22.9011   37.7264 H   0  0  0  0  0  0  0  0  0  0  0  0
    4.3263   21.8797   36.8246 H   0  0  0  0  0  0  0  0  0  0  0  0
    2.5802   21.4581   36.8246 H   0  0  0  0  0  0  0  0  0  0  0  0
   -0.4902   18.4582   42.7252 H   0  0  0  0  0  0  0  0  0  0  0  0
    1.5123   21.1424   39.7029 H   0  0  0  0  0  0  0  0  0  0  0  0
    3.9271   15.2644   41.3181 H   0  0  0  0  0  0  0  0  0  0  0  0
    2.8439   15.8124   39.9942 H   0  0  0  0  0  0  0  0  0  0  0  0
    4.5753   16.2908   39.9942 H   0  0  0  0  0  0  0  0  0  0  0  0
    3.0622   17.9768   42.6651 H   0  0  0  0  0  0  0  0  0  0  0  0
    4.7426   21.5122   40.4560 H   0  0  0  0  0  0  0  0  0  0  0  0
    5.7674   20.9540   39.0904 H   0  0  0  0  0  0  0  0  0  0  0  0
    5.1020   22.6225   39.0904 H   0  0  0  0  0  0  0  0  0  0  0  0
   -2.2802   15.9498   48.0727 H   0  0  0  0  0  0  0  0  0  0  0  0
    0.7277   20.5502   42.5666 H   0  0  0  0  0  0  0  0  0  0  0  0
    3.4530   16.7018   42.3124 H   0  0  0  0  0  0  0  0  0  0  0  0
    3.7654   17.7569   40.4630 H   0  0  0  0  0  0  0  0  0  0  0  0
    3.4086   20.5241   40.8401 H   0  0  0  0  0  0  0  0  0  0  0  0
    1.8445   16.8528   39.3268 H   0  0  0  0  0  0  0  0  0  0  0  0
   -1.4817   13.7427   47.0371 H   0  0  0  0  0  0  0  0  0  0  0  0
  1 18  2  0
  2 22  1  0
  3  1  1  0
  4 25  1  0
  4 21  1  0
  4 16  1  0
  6  3  2  0
  6 12  1  0
  7  3  1  0
  8 22  1  0
  9  5  2  0
 10 19  1  0
 10  7  1  0
 11 23  2  0
 12 26  2  0
 13  2  1  0
 13 21  1  0
 14 27  1  0
 14 12  1  0
 15 20  1  0
 16 20  1  0
 16 23  1  0
 19  9  2  0
 21 11  1  0
 22 13  1  0
 22 17  1  0
 23 28  1  0
 24 14  2  0
 26 18  1  0
 28 10  1  0
  1 29  1  0
  2 30  1  0
  2 31  1  0
  4 32  1  0
  6 33  1  0
  7 34  1  0
  8 35  1  0
  8 36  1  0
  8 37  1  0
 10 38  1  0
 13 39  1  0
 15 40  1  0
 15 41  1  0
 15 42  1  0
 16 43  1  0
 17 44  1  0
 17 45  1  0
 17 46  1  0
 18 47  1  0
 19 48  1  0
 20 49  1  0
 20 50  1  0
 21 51  1  0
 25 52  1  0
 26 53  1  0
M  CHG  1  27  -1
M  END
>  <mol_id>  (2) 
2026-09-18-6fnk-s0-n100-refligand-seed1-0002

>  <rmsd_to_ref>  (2) 


$$$$

     RDKit          3D

 20 20  0  0  0  0  0  0  0  0999 V2000
    2.6010   16.9540   41.7150 O   0  0  0  0  0  0  0  0  0  0  0  0
   -0.1970   20.9090   43.7150 N   0  0  0  0  0  0  0  0  0  0  0  0
   -0.0700   19.5690   44.1090 N   0  0  0  0  0  0  0  0  0  0  0  0
    0.9090   18.9530   43.3710 C   0  0  0  0  0  0  0  0  0  0  0  0
   -0.7280   18.9740   45.3000 C   0  0  0  0  0  0  0  0  0  0  0  0
    0.5730   21.0150   42.6250 C   0  0  0  0  0  0  0  0  0  0  0  0
    1.6340   16.5770   42.4290 S   0  0  0  0  0  4  0  0  0  0  0  0
    2.0740   15.4490   43.2950 O   0  0  0  0  0  0  0  0  0  0  0  0
    1.2310   17.7210   43.5610 N   0  0  0  0  0  0  0  0  0  0  0  0
    0.3260   16.1610   41.9060 O   0  0  0  0  0  0  0  0  0  0  0  0
    1.2460   19.9220   42.3450 C   0  0  0  0  0  0  0  0  0  0  0  0
    3.3472   17.2449   42.2970 H   0  0  0  0  0  0  0  0  0  0  0  0
   -0.2736   19.3849   46.2136 H   0  0  0  0  0  0  0  0  0  0  0  0
   -1.8013   19.2143   45.2843 H   0  0  0  0  0  0  0  0  0  0  0  0
   -0.5965   17.8820   45.2843 H   0  0  0  0  0  0  0  0  0  0  0  0
    0.6363   21.9317   42.0203 H   0  0  0  0  0  0  0  0  0  0  0  0
    1.9742   15.7048   44.2462 H   0  0  0  0  0  0  0  0  0  0  0  0
    1.2395   17.4052   44.5413 H   0  0  0  0  0  0  0  0  0  0  0  0
   -0.2846   15.9668   42.6607 H   0  0  0  0  0  0  0  0  0  0  0  0
    1.9313   19.7709   41.4979 H   0  0  0  0  0  0  0  0  0  0  0  0
  1  7  1  0
  2  3  1  0
  3  5  1  0
  4  9  1  0
  4  3  1  0
  6  2  2  0
  7  8  1  0
  7  9  1  0
 10  7  1  0
 11  6  1  0
 11  4  2  0
  1 12  1  0
  5 13  1  0
  5 14  1  0
  5 15  1  0
  6 16  1  0
  8 17  1  0
  9 18  1  0
 10 19  1  0
 11 20  1  0
M  END
>  <mol_id>  (3) 
2026-09-18-6fnk-s0-n100-refligand-seed1-0003

>  <rmsd_to_ref>  (3) 


$$$$

     RDKit          3D

 29 30  0  0  0  0  0  0  0  0999 V2000
    0.4420   21.2490   42.7050 S   0  0  0  0  0  0  0  0  0  0  0  0
    1.4470   20.1650   41.7780 C   0  0  0  0  0  0  0  0  0  0  0  0
    2.3450   20.9460   41.0010 N   0  0  0  0  0  4  0  0  0  0  0  0
    1.6770   15.0430   42.0730 C   0  0  0  0  0  0  0  0  0  0  0  0
    2.1890   18.5630   39.5770 O   0  0  0  0  0  1  0  0  0  0  0  0
    1.6100   17.7710   41.7590 C   0  0  0  0  0  0  0  0  0  0  0  0
    1.6070   16.3870   42.4740 C   0  0  0  0  0  0  0  0  0  0  0  0
    2.4090   13.9540   42.0870 C   0  0  0  0  0  0  0  0  0  0  0  0
    3.6860   14.5980   41.1870 F   0  0  0  0  0  0  0  0  0  0  0  0
    2.0580   12.9600   41.5790 F   0  0  0  0  0  0  0  0  0  0  0  0
    1.8050   13.7480   43.7340 C   0  0  0  0  0  0  0  0  0  0  0  0
    1.0980   14.9420   44.5430 C   0  0  0  0  0  0  0  0  0  0  0  0
   -0.0680   20.0620   43.8100 C   0  0  0  0  0  0  0  0  0  0  0  0
    1.1850   18.9560   42.2530 C   0  0  0  0  0  0  0  0  0  0  0  0
   -0.7140   20.3700   44.7850 O   0  0  0  0  0  0  0  0  0  0  0  0
    0.3320   18.9420   43.2840 N   0  0  0  0  0  0  0  0  0  0  0  0
    1.7530   16.5750   39.5740 O   0  0  0  0  0  0  0  0  0  0  0  0
    1.9180   17.5950   40.2950 C   0  0  0  0  0  0  0  0  0  0  0  0
    1.0720   16.3250   43.9200 C   0  0  0  0  0  0  0  0  0  0  0  0
    1.7921   19.5366   40.9437 H   0  0  0  0  0  0  0  0  0  0  0  0
    2.9625   21.4830   41.6264 H   0  0  0  0  0  0  0  0  0  0  0  0
    2.9135   20.3259   40.4067 H   0  0  0  0  0  0  0  0  0  0  0  0
    1.8097   21.5950   40.4067 H   0  0  0  0  0  0  0  0  0  0  0  0
    1.5277   15.1589   40.9894 H   0  0  0  0  0  0  0  0  0  0  0  0
    1.1757   14.7298   43.0007 H   0  0  0  0  0  0  0  0  0  0  0  0
    1.9168   12.7687   44.2223 H   0  0  0  0  0  0  0  0  0  0  0  0
    0.6424   14.7608   45.5277 H   0  0  0  0  0  0  0  0  0  0  0  0
    1.6855   16.9933   44.5420 H   0  0  0  0  0  0  0  0  0  0  0  0
    0.0154   16.6275   43.8753 H   0  0  0  0  0  0  0  0  0  0  0  0
  1 13  1  0
  2  3  1  0
  2 14  1  0
  2  1  1  0
  4  8  1  0
  4  7  1  0
  5 18  1  0
  6 14  1  0
  6  7  2  3
  7 19  1  0
  8 11  1  0
  9  8  1  0
 10  8  1  0
 11 12  2  0
 13 15  2  0
 14 16  2  0
 16 13  1  0
 17 18  2  0
 18  6  1  0
 19 12  1  0
  2 20  1  0
  3 21  1  0
  3 22  1  0
  3 23  1  0
  4 24  1  0
  4 25  1  0
 11 26  1  0
 12 27  1  0
 19 28  1  0
 19 29  1  0
M  CHG  2   3   1   5  -1
M  END
>  <mol_id>  (4) 
2026-09-18-6fnk-s0-n100-refligand-seed1-0004

>  <rmsd_to_ref>  (4) 


$$$$

     RDKit          3D

 17 18  0  0  0  0  0  0  0  0999 V2000
    0.0400   19.1470   43.4300 C   0  0  0  0  0  0  0  0  0  0  0  0
   -1.0170   17.2080   44.5250 C   0  0  0  0  0  0  0  0  0  0  0  0
   -0.3330   21.4760   43.7690 N   0  0  0  0  0  0  0  0  0  0  0  0
    2.6800   19.1060   41.1640 O   0  0  0  0  0  0  0  0  0  0  0  0
    0.6760   16.9430   42.9320 C   0  0  0  0  0  0  0  0  0  0  0  0
    1.0100   18.3230   42.6370 C   0  0  0  0  0  0  0  0  0  0  0  0
   -0.9670   18.6260   44.2830 C   0  0  0  0  0  0  0  0  0  0  0  0
    0.3460   20.5000   43.1430 C   0  0  0  0  0  0  0  0  0  0  0  0
   -0.3150   16.3730   43.6270 C   0  0  0  0  0  0  0  0  0  0  0  0
    1.5050   20.5290   42.3780 N   0  0  0  0  0  0  0  0  0  0  0  0
    1.8520   19.1670   42.0840 C   0  0  0  0  0  0  0  0  0  0  0  0
   -1.5787   16.7915   45.3742 H   0  0  0  0  0  0  0  0  0  0  0  0
   -0.1186   22.4632   43.5678 H   0  0  0  0  0  0  0  0  0  0  0  0
   -1.0678   21.2370   44.4500 H   0  0  0  0  0  0  0  0  0  0  0  0
    1.3796   16.2184   42.4963 H   0  0  0  0  0  0  0  0  0  0  0  0
   -1.7004   19.2974   44.7535 H   0  0  0  0  0  0  0  0  0  0  0  0
   -0.5699   15.3099   43.5057 H   0  0  0  0  0  0  0  0  0  0  0  0
  1  7  1  0
  4 11  2  0
  5  9  2  0
  6  5  1  0
  6  1  2  0
  7  2  2  0
  8  1  1  0
  8  3  1  0
  9  2  1  0
 10  8  2  0
 11 10  1  0
 11  6  1  0
  2 12  1  0
  3 13  1  0
  3 14  1  0
  5 15  1  0
  7 16  1  0
  9 17  1  0
M  END
>  <mol_id>  (5) 
2026-09-18-6fnk-s0-n100-refligand-seed1-0005

>  <rmsd_to_ref>  (5) 


$$$$

     RDKit          3D

 34 35  0  0  0  0  0  0  0  0999 V2000
   -0.5220   18.5320   44.9420 C   0  0  0  0  0  0  0  0  0  0  0  0
    2.1850   20.3820   39.5670 C   0  0  0  0  0  0  0  0  0  0  0  0
   -0.4920   17.2230   45.3180 C   0  0  0  0  0  0  0  0  0  0  0  0
    4.5880   21.2650   40.7010 C   0  0  0  0  0  0  0  0  0  0  0  0
   -1.2300   19.5320   45.5980 O   0  0  0  0  0  0  0  0  0  0  0  0
    0.5070   21.0930   42.2650 C   0  0  0  0  0  0  0  0  0  0  0  0
   -0.0180   15.0510   44.9580 O   0  0  0  0  0  0  0  0  0  0  0  0
    2.4040   20.4990   40.9730 C   0  0  0  0  0  0  0  0  0  0  0  0
    0.5360   13.8290   44.5370 C   0  0  0  0  0  0  0  0  0  0  0  0
    3.2090   20.7000   38.7750 C   0  0  0  0  0  0  0  0  0  0  0  0
    0.2480   16.2680   44.5530 C   0  0  0  0  0  0  0  0  0  0  0  0
   -0.0840   20.5350   43.5720 C   0  0  0  0  0  0  0  0  0  0  0  0
    1.0230   16.7000   43.4610 C   0  0  0  0  0  0  0  0  0  0  0  0
    4.4660   21.1980   39.3070 C   0  0  0  0  0  0  0  0  0  0  0  0
    1.4070   20.1080   41.8450 O   0  0  0  0  0  0  0  0  0  0  0  0
    0.2610   19.0230   43.8320 C   0  0  0  0  0  0  0  0  0  0  0  0
    3.5380   20.9410   41.5550 C   0  0  0  0  0  0  0  0  0  0  0  0
    0.9760   18.0380   43.1190 C   0  0  0  0  0  0  0  0  0  0  0  0
    1.2205   20.0466   39.1582 H   0  0  0  0  0  0  0  0  0  0  0  0
   -1.0400   16.8989   46.2150 H   0  0  0  0  0  0  0  0  0  0  0  0
    5.5467   21.5847   41.1355 H   0  0  0  0  0  0  0  0  0  0  0  0
   -1.2004   20.4623   45.2606 H   0  0  0  0  0  0  0  0  0  0  0  0
   -0.2823   21.2454   41.5142 H   0  0  0  0  0  0  0  0  0  0  0  0
    0.9899   22.0713   42.4058 H   0  0  0  0  0  0  0  0  0  0  0  0
    0.8087   13.2276   45.4167 H   0  0  0  0  0  0  0  0  0  0  0  0
   -0.2017   13.2809   43.9325 H   0  0  0  0  0  0  0  0  0  0  0  0
    1.4344   14.0226   43.9325 H   0  0  0  0  0  0  0  0  0  0  0  0
    3.0991   20.5819   37.6869 H   0  0  0  0  0  0  0  0  0  0  0  0
    0.3079   21.1290   44.4108 H   0  0  0  0  0  0  0  0  0  0  0  0
   -1.1783   20.6023   43.4823 H   0  0  0  0  0  0  0  0  0  0  0  0
    1.6482   15.9931   42.8959 H   0  0  0  0  0  0  0  0  0  0  0  0
    5.2866   21.5090   38.6437 H   0  0  0  0  0  0  0  0  0  0  0  0
    3.6279   21.0401   42.6468 H   0  0  0  0  0  0  0  0  0  0  0  0
    1.5358   18.3576   42.2277 H   0  0  0  0  0  0  0  0  0  0  0  0
  1  3  2  0
  1  5  1  0
  2  8  2  0
  4 17  2  0
  6 12  1  0
  8 17  1  0
  8 15  1  0
  9  7  1  0
 10 14  2  0
 10  2  1  0
 11  7  1  0
 11  3  1  0
 12 16  1  0
 13 11  2  0
 14  4  1  0
 15  6  1  0
 16  1  1  0
 18 13  1  0
 18 16  2  0
  2 19  1  0
  3 20  1  0
  4 21  1  0
  5 22  1  0
  6 23  1  0
  6 24  1  0
  9 25  1  0
  9 26  1  0
  9 27  1  0
 10 28  1  0
 12 29  1  0
 12 30  1  0
 13 31  1  0
 14 32  1  0
 17 33  1  0
 18 34  1  0
M  END
>  <mol_id>  (6) 
2026-09-18-6fnk-s0-n100-refligand-seed1-0006

>  <rmsd_to_ref>  (6) 


$$$$

     RDKit          3D

 19 19  0  0  0  0  0  0  0  0999 V2000
   -0.3020   18.8930   44.5790 C   0  0  0  0  0  0  0  0  0  0  0  0
   -0.5100   20.1900   44.1470 N   0  0  0  0  0  0  0  0  0  0  0  0
    0.3300   20.5850   42.9940 C   0  0  0  0  0  0  0  0  0  0  0  0
    1.1900   19.8270   42.2570 C   0  0  0  0  0  0  0  0  0  0  0  0
    1.2150   18.4240   42.8530 C   0  0  0  0  0  0  0  0  0  0  0  0
    0.0960   21.9520   42.5490 N   0  0  0  0  0  0  0  0  0  0  0  0
    2.4240   17.8050   41.8340 C   0  0  0  0  0  0  0  0  0  0  0  0
    0.6000   18.3830   43.7820 C   0  0  0  0  0  0  0  0  0  0  0  0
    2.2190   16.3410   41.9770 N   0  0  0  0  0  4  0  0  0  0  0  0
   -0.7964   18.3911   45.4238 H   0  0  0  0  0  0  0  0  0  0  0  0
    1.7659   20.1681   41.3841 H   0  0  0  0  0  0  0  0  0  0  0  0
    0.6269   22.3323   41.7525 H   0  0  0  0  0  0  0  0  0  0  0  0
   -0.6004   22.5384   43.0308 H   0  0  0  0  0  0  0  0  0  0  0  0
    3.4265   18.1044   42.1736 H   0  0  0  0  0  0  0  0  0  0  0  0
    2.3607   18.1652   40.7966 H   0  0  0  0  0  0  0  0  0  0  0  0
    0.9036   17.4464   44.2726 H   0  0  0  0  0  0  0  0  0  0  0  0
    2.1846   16.0952   42.9766 H   0  0  0  0  0  0  0  0  0  0  0  0
    1.3323   16.0729   41.5268 H   0  0  0  0  0  0  0  0  0  0  0  0
    2.9980   15.8396   41.5268 H   0  0  0  0  0  0  0  0  0  0  0  0
  2  1  2  0
  3  2  1  0
  4  5  1  0
  4  3  2  0
  5  8  2  0
  6  3  1  0
  7  9  1  0
  7  5  1  0
  8  1  1  0
  1 10  1  0
  4 11  1  0
  6 12  1  0
  6 13  1  0
  7 14  1  0
  7 15  1  0
  8 16  1  0
  9 17  1  0
  9 18  1  0
  9 19  1  0
M  CHG  1   9   1
M  END
>  <mol_id>  (7) 
2026-09-18-6fnk-s0-n100-refligand-seed1-0007

>  <rmsd_to_ref>  (7) 


$$$$

     RDKit          3D

 18 19  0  0  0  0  0  0  0  0999 V2000
    0.4440   18.8000   43.8540 C   0  0  0  0  0  0  0  0  0  0  0  0
   -0.2080   20.8960   43.4860 N   0  0  0  0  0  0  0  0  0  0  0  0
    2.1430   18.5000   42.0840 C   0  0  0  0  0  0  0  0  0  0  0  0
    1.1110   19.3520   42.7410 C   0  0  0  0  0  0  0  0  0  0  0  0
    2.4600   17.2510   42.6890 C   0  0  0  0  0  0  0  0  0  0  0  0
    0.6600   20.6450   42.5510 N   0  0  0  0  0  0  0  0  0  0  0  0
    1.3880   16.6670   43.5370 C   0  0  0  0  0  0  0  0  0  0  0  0
    0.5730   17.4620   44.2870 C   0  0  0  0  0  0  0  0  0  0  0  0
   -0.3440   19.8870   44.3160 C   0  0  0  0  0  0  0  0  0  0  0  0
   -1.0800   19.6860   45.4510 N   0  0  0  0  0  4  0  0  0  0  0  0
    2.6439   18.8263   41.1606 H   0  0  0  0  0  0  0  0  0  0  0  0
    0.3422   18.9354   42.0736 H   0  0  0  0  0  0  0  0  0  0  0  0
    3.4295   16.7534   42.5395 H   0  0  0  0  0  0  0  0  0  0  0  0
    1.2500   15.5759   43.5598 H   0  0  0  0  0  0  0  0  0  0  0  0
    0.0473   17.0839   45.1762 H   0  0  0  0  0  0  0  0  0  0  0  0
   -0.4873   19.8479   46.2777 H   0  0  0  0  0  0  0  0  0  0  0  0
   -1.8751   20.3407   45.4651 H   0  0  0  0  0  0  0  0  0  0  0  0
   -1.4319   18.7181   45.4651 H   0  0  0  0  0  0  0  0  0  0  0  0
  1  8  1  0
  1  9  2  0
  2  9  1  0
  3  5  2  0
  4  3  1  0
  4  1  1  0
  5  7  1  0
  6  4  1  0
  6  2  2  0
  7  8  2  0
  9 10  1  0
  3 11  1  0
  4 12  1  0
  5 13  1  0
  7 14  1  0
  8 15  1  0
 10 16  1  0
 10 17  1  0
 10 18  1  0
M  CHG  1  10   1
M  END
>  <mol_id>  (8) 
2026-09-18-6fnk-s0-n100-refligand-seed1-0008

>  <rmsd_to_ref>  (8) 


$$$$

     RDKit          3D

 22 22  0  0  0  0  0  0  0  0999 V2000
    0.4760   17.1330   44.2240 C   0  0  0  0  0  0  0  0  0  0  0  0
   -0.2050   16.7570   45.6270 C   0  0  0  0  0  0  0  0  0  0  0  0
    2.5240   20.6480   41.6810 N   0  0  0  0  0  0  0  0  0  0  0  0
   -0.2550   21.3230   42.8750 O   0  0  0  0  0  0  0  0  0  0  0  0
    1.7400   18.4000   41.9660 C   0  0  0  0  0  0  0  0  0  0  0  0
    0.2090   18.5380   44.0040 C   0  0  0  0  0  0  0  0  0  0  0  0
    0.6540   20.5890   42.5550 C   0  0  0  0  0  0  0  0  0  0  0  0
   -0.4980   19.5300   44.8620 C   0  0  0  0  0  0  0  0  0  0  0  0
    1.6150   21.0360   41.8830 N   0  0  0  0  0  0  0  0  0  0  0  0
    1.5530   16.9650   41.9480 C   0  0  0  0  0  0  0  0  0  0  0  0
    0.9050   19.1800   42.9700 C   0  0  0  0  0  0  0  0  0  0  0  0
    1.0700   16.3510   43.1370 C   0  0  0  0  0  0  0  0  0  0  0  0
    0.4334   17.1095   46.4506 H   0  0  0  0  0  0  0  0  0  0  0  0
   -1.1918   17.2381   45.6962 H   0  0  0  0  0  0  0  0  0  0  0  0
   -0.3235   15.6656   45.6962 H   0  0  0  0  0  0  0  0  0  0  0  0
    3.1909   21.1746   41.0989 H   0  0  0  0  0  0  0  0  0  0  0  0
    2.4485   18.9002   41.2894 H   0  0  0  0  0  0  0  0  0  0  0  0
   -0.3254   19.2878   45.9210 H   0  0  0  0  0  0  0  0  0  0  0  0
   -0.1139   20.5386   44.6492 H   0  0  0  0  0  0  0  0  0  0  0  0
   -1.5767   19.4960   44.6492 H   0  0  0  0  0  0  0  0  0  0  0  0
    1.7759   16.3715   41.0490 H   0  0  0  0  0  0  0  0  0  0  0  0
    1.1447   15.2587   43.2430 H   0  0  0  0  0  0  0  0  0  0  0  0
  1  2  1  0
  3  9  2  3
  5 11  2  0
  6  1  2  0
  6  8  1  0
  7  4  2  0
  7 11  1  0
  9  7  1  0
 10  5  1  0
 10 12  2  0
 11  6  1  0
 12  1  1  0
  2 13  1  0
  2 14  1  0
  2 15  1  0
  3 16  1  0
  5 17  1  0
  8 18  1  0
  8 19  1  0
  8 20  1  0
 10 21  1  0
 12 22  1  0
M  END
>  <mol_id>  (9) 
2026-09-18-6fnk-s0-n100-refligand-seed1-0009

>  <rmsd_to_ref>  (9) 


$$$$

     RDKit          3D

 39 42  0  0  0  0  0  0  0  0999 V2000
    0.8200   20.7730   43.1580 N   0  0  0  0  0  4  0  0  0  0  0  0
   -2.0420   16.0540   48.1480 C   0  0  0  0  0  0  0  0  0  0  0  0
   -0.1870   21.1770   43.9280 C   0  0  0  0  0  0  0  0  0  0  0  0
   -0.5100   16.1730   45.8820 C   0  0  0  0  0  0  0  0  0  0  0  0
    2.2410   20.7850   40.7440 S   0  0  0  0  0  0  0  0  0  0  0  0
    2.0370   18.3100   40.7000 C   0  0  0  0  0  0  0  0  0  0  0  0
   -0.8010   18.6540   45.8750 N   0  0  0  0  0  0  0  0  0  0  0  0
   -1.7690   17.2880   47.5970 C   0  0  0  0  0  0  0  0  0  0  0  0
   -0.7240   20.2490   44.7200 N   0  0  0  0  0  0  0  0  0  0  0  0
    2.0530   16.5690   38.6420 C   0  0  0  0  0  0  0  0  0  0  0  0
    1.7040   19.3640   41.4830 C   0  0  0  0  0  0  0  0  0  0  0  0
   -0.2660   19.0410   44.7380 C   0  0  0  0  0  0  0  0  0  0  0  0
   -1.0230   17.4200   46.3810 C   0  0  0  0  0  0  0  0  0  0  0  0
    2.3730   20.1400   39.1610 C   0  0  0  0  0  0  0  0  0  0  0  0
    2.1660   18.7260   39.3370 C   0  0  0  0  0  0  0  0  0  0  0  0
    1.0360   19.4570   42.7370 C   0  0  0  0  0  0  0  0  0  0  0  0
    2.2540   16.9780   40.9370 C   0  0  0  0  0  0  0  0  0  0  0  0
    0.5720   18.4870   43.6550 C   0  0  0  0  0  0  0  0  0  0  0  0
   -1.5640   14.8340   47.5440 C   0  0  0  0  0  0  0  0  0  0  0  0
    2.2350   16.0780   39.9680 C   0  0  0  0  0  0  0  0  0  0  0  0
   -0.7610   14.9720   46.4260 C   0  0  0  0  0  0  0  0  0  0  0  0
    2.1570   17.8940   38.3440 N   0  0  0  0  0  0  0  0  0  0  0  0
    0.7428   21.3276   42.2935 H   0  0  0  0  0  0  0  0  0  0  0  0
    1.6079   20.8881   43.8113 H   0  0  0  0  0  0  0  0  0  0  0  0
   -2.6387   15.9982   49.0704 H   0  0  0  0  0  0  0  0  0  0  0  0
    0.1836   21.9919   44.5672 H   0  0  0  0  0  0  0  0  0  0  0  0
   -0.9880   21.4773   43.2365 H   0  0  0  0  0  0  0  0  0  0  0  0
    0.1341   16.2056   44.9909 H   0  0  0  0  0  0  0  0  0  0  0  0
   -1.1037   19.4253   46.4868 H   0  0  0  0  0  0  0  0  0  0  0  0
   -2.1331   18.1939   48.1037 H   0  0  0  0  0  0  0  0  0  0  0  0
    1.8218   15.8570   37.8360 H   0  0  0  0  0  0  0  0  0  0  0  0
    3.3698   20.3389   38.7406 H   0  0  0  0  0  0  0  0  0  0  0  0
    1.6510   20.5876   38.4622 H   0  0  0  0  0  0  0  0  0  0  0  0
    2.4505   16.6462   41.9672 H   0  0  0  0  0  0  0  0  0  0  0  0
   -0.0221   17.7438   43.1030 H   0  0  0  0  0  0  0  0  0  0  0  0
    1.4606   18.0474   44.1317 H   0  0  0  0  0  0  0  0  0  0  0  0
   -1.8244   13.8459   47.9512 H   0  0  0  0  0  0  0  0  0  0  0  0
    2.3537   15.0042   40.1749 H   0  0  0  0  0  0  0  0  0  0  0  0
   -0.3168   14.0743   45.9712 H   0  0  0  0  0  0  0  0  0  0  0  0
  1  3  1  0
  3  9  1  0
  4 13  2  0
  4 21  1  0
  5 11  1  0
  6 17  2  0
  6 11  1  0
  7 13  1  0
  8  2  2  0
  9 12  2  0
 10 20  2  0
 11 16  2  3
 12  7  1  0
 13  8  1  0
 14 15  1  0
 14  5  1  0
 15  6  1  0
 16  1  1  0
 16 18  1  0
 18 12  1  0
 19  2  1  0
 20 17  1  0
 21 19  2  0
 22 10  1  0
 22 15  2  0
  1 23  1  0
  1 24  1  0
  2 25  1  0
  3 26  1  0
  3 27  1  0
  4 28  1  0
  7 29  1  0
  8 30  1  0
 10 31  1  0
 14 32  1  0
 14 33  1  0
 17 34  1  0
 18 35  1  0
 18 36  1  0
 19 37  1  0
 20 38  1  0
 21 39  1  0
M  CHG  1   1   1
M  END
>  <mol_id>  (10) 
2026-09-18-6fnk-s0-n100-refligand-seed1-0010

>  <rmsd_to_ref>  (10) 


$$$$

     RDKit          3D

 53 58  0  0  0  0  0  0  0  0999 V2000
    2.8080   14.5240   38.0970 O   0  0  0  0  0  0  0  0  0  0  0  0
    3.5570   20.9700   40.3730 N   0  0  0  0  0  0  0  0  0  0  0  0
    0.9110   18.2540   42.4980 N   0  0  0  0  0  0  0  0  0  0  0  0
    3.3680   13.7100   40.2710 O   0  0  0  0  0  0  0  0  0  0  0  0
   -1.8750   17.5690   47.5720 O   0  0  0  0  0  0  0  0  0  0  0  0
   -0.4170   16.7320   44.6230 N   0  0  0  0  0  0  0  0  0  0  0  0
   -0.3310   18.1530   44.5330 C   0  0  0  0  0  0  0  0  0  0  0  0
    4.9310   21.8610   38.5940 F   0  0  0  0  0  0  0  0  0  0  0  0
    0.2300   18.8350   43.5090 C   0  0  0  0  0  0  0  0  0  0  0  0
   -1.2920   15.1490   46.0780 C   0  0  0  0  0  0  0  0  0  0  0  0
    1.3780   19.2270   41.8770 C   0  0  0  0  0  0  0  0  0  0  0  0
   -0.8030   20.2480   45.4790 N   0  0  0  0  0  0  0  0  0  0  0  0
   -1.3870   17.6160   46.3650 C   0  0  0  0  0  0  0  0  0  0  0  0
   -1.5450   15.4520   51.6150 C   0  0  0  0  0  0  0  0  0  0  0  0
    4.0370   21.1050   39.2240 C   0  0  0  0  0  0  0  0  0  0  0  0
   -0.8690   18.8370   45.5360 C   0  0  0  0  0  0  0  0  0  0  0  0
    0.2840   20.1340   43.4400 N   0  0  0  0  0  0  0  0  0  0  0  0
    2.3350   19.0450   40.8590 C   0  0  0  0  0  0  0  0  0  0  0  0
   -0.9840   16.5160   45.7550 C   0  0  0  0  0  0  0  0  0  0  0  0
   -2.5530   15.9280   50.5700 C   0  0  0  0  0  0  0  0  0  0  0  0
    0.9960   20.4450   42.3000 N   0  0  0  0  0  0  0  0  0  0  0  0
    3.5290   14.6420   39.2870 P   0  0  0  0  0  5  0  0  0  0  0  0
   -0.2370   20.8150   44.4770 C   0  0  0  0  0  0  0  0  0  0  0  0
    4.3500   14.6530   37.9500 C   0  0  0  0  0  0  0  0  0  0  0  0
   -2.0340   16.3020   48.2320 C   0  0  0  0  0  0  0  0  0  0  0  0
    2.2810   20.2970   40.0510 N   0  0  0  0  0  0  0  0  0  0  0  0
   -1.7530   16.8620   49.6260 C   0  0  0  0  0  0  0  0  0  0  0  0
    2.6430   21.0060   38.9620 N   0  0  0  0  0  0  0  0  0  0  0  0
    2.4860   16.8500   39.9070 C   0  0  0  0  0  0  0  0  0  0  0  0
    3.0840   17.7430   41.0050 C   0  0  0  0  0  0  0  0  0  0  0  0
    3.6780   16.1050   39.8110 O   0  0  0  0  0  0  0  0  0  0  0  0
   -1.3193   15.0277   47.1709 H   0  0  0  0  0  0  0  0  0  0  0  0
   -2.2723   14.8842   45.6551 H   0  0  0  0  0  0  0  0  0  0  0  0
   -0.5200   14.4894   45.6551 H   0  0  0  0  0  0  0  0  0  0  0  0
   -1.9445   15.6406   52.6224 H   0  0  0  0  0  0  0  0  0  0  0  0
   -1.3659   14.3742   51.4875 H   0  0  0  0  0  0  0  0  0  0  0  0
   -0.5989   15.9985   51.4875 H   0  0  0  0  0  0  0  0  0  0  0  0
    4.9471   20.5899   38.8827 H   0  0  0  0  0  0  0  0  0  0  0  0
    1.5793   18.5407   40.2388 H   0  0  0  0  0  0  0  0  0  0  0  0
   -2.9613   15.0731   50.0110 H   0  0  0  0  0  0  0  0  0  0  0  0
   -3.4080   16.4447   51.0303 H   0  0  0  0  0  0  0  0  0  0  0  0
    1.1852   21.3675   41.8827 H   0  0  0  0  0  0  0  0  0  0  0  0
   -0.1745   21.9132   44.4650 H   0  0  0  0  0  0  0  0  0  0  0  0
    4.9666   13.7912   37.6549 H   0  0  0  0  0  0  0  0  0  0  0  0
    5.0688   15.3106   37.4392 H   0  0  0  0  0  0  0  0  0  0  0  0
   -3.0472   15.8861   48.1299 H   0  0  0  0  0  0  0  0  0  0  0  0
   -1.4245   15.4560   47.8817 H   0  0  0  0  0  0  0  0  0  0  0  0
   -0.6778   16.8220   49.8546 H   0  0  0  0  0  0  0  0  0  0  0  0
   -2.0446   17.9179   49.7262 H   0  0  0  0  0  0  0  0  0  0  0  0
    1.6198   16.2591   40.2394 H   0  0  0  0  0  0  0  0  0  0  0  0
    2.0598   17.3114   39.0040 H   0  0  0  0  0  0  0  0  0  0  0  0
    4.1622   17.8913   40.8453 H   0  0  0  0  0  0  0  0  0  0  0  0
    2.9846   17.3058   42.0095 H   0  0  0  0  0  0  0  0  0  0  0  0
  1 22  1  0
  2 26  1  0
  3  9  1  0
  5 25  1  0
  6 19  2  0
  7  6  1  0
  7 16  1  0
  9  7  2  0
 11 21  1  0
 11  3  2  0
 12 16  1  0
 13  5  1  0
 15  8  1  0
 15  2  1  0
 16 13  2  0
 17  9  1  0
 17 23  1  0
 18 30  1  0
 18 11  1  0
 19 10  1  0
 19 13  1  0
 20 14  1  0
 21 17  1  0
 22 31  1  0
 22  4  2  0
 23 12  2  0
 24  1  1  0
 24 22  1  0
 25 27  1  0
 26 18  1  0
 27 20  1  0
 28 15  1  0
 28 26  1  0
 28  2  1  0
 29 30  1  0
 31 29  1  0
 10 32  1  0
 10 33  1  0
 10 34  1  0
 14 35  1  0
 14 36  1  0
 14 37  1  0
 15 38  1  0
 18 39  1  0
 20 40  1  0
 20 41  1  0
 21 42  1  0
 23 43  1  0
 24 44  1  0
 24 45  1  0
 25 46  1  0
 25 47  1  0
 27 48  1  0
 27 49  1  0
 29 50  1  0
 29 51  1  0
 30 52  1  0
 30 53  1  0
M  END
>  <mol_id>  (11) 
2026-09-18-6fnk-s0-n100-refligand-seed1-0011

>  <rmsd_to_ref>  (11) 


$$$$

     RDKit          3D

 30 31  0  0  0  0  0  0  0  0999 V2000
   -0.6880   19.7240   45.5660 O   0  0  0  0  0  0  0  0  0  0  0  0
    1.0720   19.4030   42.0180 C   0  0  0  0  0  0  0  0  0  0  0  0
    0.5840   20.6450   42.4360 C   0  0  0  0  0  0  0  0  0  0  0  0
    1.0670   18.3260   42.7660 C   0  0  0  0  0  0  0  0  0  0  0  0
    3.6100   12.4760   39.1910 N   0  0  0  0  0  0  0  0  0  0  0  0
   -1.2680   18.4720   45.8260 C   0  0  0  0  0  0  0  0  0  0  0  0
    3.0760   14.7840   39.9090 C   0  0  0  0  0  0  0  0  0  0  0  0
   -0.0130   20.7370   43.6730 C   0  0  0  0  0  0  0  0  0  0  0  0
    3.5420   13.5600   39.4050 C   0  0  0  0  0  0  0  0  0  0  0  0
    2.9080   15.9840   39.3310 C   0  0  0  0  0  0  0  0  0  0  0  0
    2.4780   15.7130   41.6690 C   0  0  0  0  0  0  0  0  0  0  0  0
    2.0360   16.7670   41.4540 C   0  0  0  0  0  0  0  0  0  0  0  0
    0.5480   18.4300   43.9830 C   0  0  0  0  0  0  0  0  0  0  0  0
   -0.0410   19.6610   44.4870 C   0  0  0  0  0  0  0  0  0  0  0  0
    2.3980   17.0760   40.2170 N   0  0  0  0  0  0  0  0  0  0  0  0
    2.5460   14.6870   41.3320 C   0  0  0  0  0  0  0  0  0  0  0  0
    1.5030   17.1090   42.3780 N   0  0  0  0  0  0  0  0  0  0  0  0
    1.4846   19.3248   41.0013 H   0  0  0  0  0  0  0  0  0  0  0  0
    0.6753   21.5303   41.7896 H   0  0  0  0  0  0  0  0  0  0  0  0
   -1.3387   18.3193   46.9131 H   0  0  0  0  0  0  0  0  0  0  0  0
   -2.2748   18.4355   45.3843 H   0  0  0  0  0  0  0  0  0  0  0  0
   -0.6449   17.6804   45.3843 H   0  0  0  0  0  0  0  0  0  0  0  0
   -0.4662   21.6854   43.9972 H   0  0  0  0  0  0  0  0  0  0  0  0
    3.1323   16.1543   38.2677 H   0  0  0  0  0  0  0  0  0  0  0  0
    3.5475   15.9650   41.7198 H   0  0  0  0  0  0  0  0  0  0  0  0
    1.5956   15.4609   42.2754 H   0  0  0  0  0  0  0  0  0  0  0  0
    0.5639   17.5472   44.6390 H   0  0  0  0  0  0  0  0  0  0  0  0
    1.5561   14.2075   41.3457 H   0  0  0  0  0  0  0  0  0  0  0  0
    3.1955   14.0782   41.9781 H   0  0  0  0  0  0  0  0  0  0  0  0
    1.3104   16.3573   43.0553 H   0  0  0  0  0  0  0  0  0  0  0  0
  1  6  1  0
  2  3  2  0
  2  4  1  0
  3  8  1  0
  4 13  2  0
  5  9  3  0
  7 16  1  0
  8 14  2  0
  9  7  1  0
 10  7  2  0
 10 15  1  0
 12 11  1  0
 12 17  1  0
 13 14  1  0
 14  1  1  0
 15 12  2  0
 16 11  1  0
 17  4  1  0
  2 18  1  0
  3 19  1  0
  6 20  1  0
  6 21  1  0
  6 22  1  0
  8 23  1  0
 10 24  1  0
 11 25  1  0
 11 26  1  0
 13 27  1  0
 16 28  1  0
 16 29  1  0
 17 30  1  0
M  END
>  <mol_id>  (12) 
2026-09-18-6fnk-s0-n100-refligand-seed1-0012

>  <rmsd_to_ref>  (12) 


$$$$

     RDKit          3D

 16 16  0  0  0  0  0  0  0  0999 V2000
    3.5020   19.8320   42.3560 C   0  0  0  0  0  0  0  0  0  0  0  0
    2.0280   19.6420   42.1860 C   0  0  0  0  0  0  0  0  0  0  0  0
    1.0330   18.1450   43.9480 C   0  0  0  0  0  0  0  0  0  0  0  0
    0.2730   17.8940   44.9590 C   0  0  0  0  0  0  0  0  0  0  0  0
   -0.5790   18.8890   45.2820 C   0  0  0  0  0  0  0  0  0  0  0  0
    0.1350   20.2150   43.5460 C   0  0  0  0  0  0  0  0  0  0  0  0
   -0.6540   20.0020   44.5560 N   0  0  0  0  0  0  0  0  0  0  0  0
    1.7210   19.9740   41.1010 O   0  0  0  0  0  0  0  0  0  0  0  0
    1.0990   19.3250   43.1140 C   0  0  0  0  0  0  0  0  0  0  0  0
    3.7464   19.8635   43.4280 H   0  0  0  0  0  0  0  0  0  0  0  0
    4.0366   18.9953   41.8825 H   0  0  0  0  0  0  0  0  0  0  0  0
    3.8069   20.7769   41.8825 H   0  0  0  0  0  0  0  0  0  0  0  0
    1.7357   17.3423   43.6799 H   0  0  0  0  0  0  0  0  0  0  0  0
    0.3159   16.9450   45.5135 H   0  0  0  0  0  0  0  0  0  0  0  0
   -1.2259   18.7779   46.1647 H   0  0  0  0  0  0  0  0  0  0  0  0
    0.0286   21.1642   43.0003 H   0  0  0  0  0  0  0  0  0  0  0  0
  2  1  1  0
  2  9  1  0
  3  4  2  0
  4  5  1  0
  6  7  1  0
  7  5  2  0
  8  2  2  0
  9  6  2  0
  9  3  1  0
  1 10  1  0
  1 11  1  0
  1 12  1  0
  3 13  1  0
  4 14  1  0
  5 15  1  0
  6 16  1  0
M  END
>  <mol_id>  (13) 
2026-09-18-6fnk-s0-n100-refligand-seed1-0013

>  <rmsd_to_ref>  (13) 


$$$$

     RDKit          3D

 16 17  0  0  0  0  0  0  0  0999 V2000
    2.6430   20.3680   42.0650 C   0  0  0  0  0  0  0  0  0  0  0  0
    2.1970   18.1960   43.3040 C   0  0  0  0  0  0  0  0  0  0  0  0
    0.0610   19.0630   44.0720 C   0  0  0  0  0  0  0  0  0  0  0  0
    0.4850   21.1700   42.4970 N   0  0  0  0  0  0  0  0  0  0  0  0
   -0.8110   19.9530   44.3130 C   0  0  0  0  0  0  0  0  0  0  0  0
    1.1550   19.1580   43.2990 C   0  0  0  0  0  0  0  0  0  0  0  0
    3.2130   18.1850   42.4970 N   0  0  0  0  0  0  0  0  0  0  0  0
    1.4540   20.2350   42.5390 C   0  0  0  0  0  0  0  0  0  0  0  0
    3.4740   19.2550   41.7960 C   0  0  0  0  0  0  0  0  0  0  0  0
   -0.6200   21.1710   43.3710 C   0  0  0  0  0  0  0  0  0  0  0  0
    3.0254   21.3793   41.8625 H   0  0  0  0  0  0  0  0  0  0  0  0
    2.1391   17.3931   44.0537 H   0  0  0  0  0  0  0  0  0  0  0  0
   -0.0998   18.0895   44.5583 H   0  0  0  0  0  0  0  0  0  0  0  0
   -1.5931   19.8722   45.0823 H   0  0  0  0  0  0  0  0  0  0  0  0
    4.2817   19.2888   41.0500 H   0  0  0  0  0  0  0  0  0  0  0  0
   -1.3282   22.0126   43.3852 H   0  0  0  0  0  0  0  0  0  0  0  0
  1  8  2  0
  3  5  2  0
  4  8  1  0
  4 10  2  0
  6  2  2  0
  6  3  1  0
  7  2  1  0
  8  6  1  0
  9  1  1  0
  9  7  2  0
 10  5  1  0
  1 11  1  0
  2 12  1  0
  3 13  1  0
  5 14  1  0
  9 15  1  0
 10 16  1  0
M  END
>  <mol_id>  (14) 
2026-09-18-6fnk-s0-n100-refligand-seed1-0014

>  <rmsd_to_ref>  (14) 


$$$$

     RDKit          3D

 58 61  0  0  0  0  0  0  0  0999 V2000
   -1.2280   14.6180   45.8620 C   0  0  0  0  0  0  0  0  0  0  0  0
    2.5830   20.5410   41.2930 N   0  0  0  0  0  0  0  0  0  0  0  0
    1.8200   16.2170   40.2480 C   0  0  0  0  0  0  0  0  0  0  0  0
    1.8540   18.5170   41.9040 C   0  0  0  0  0  0  0  0  0  0  0  0
    3.1420   14.4480   40.6720 C   0  0  0  0  0  0  0  0  0  0  0  0
    0.4300   18.3970   43.4960 C   0  0  0  0  0  0  0  0  0  0  0  0
    1.3460   16.0070   37.9450 C   0  0  0  0  0  0  0  0  0  0  0  0
    0.3020   19.7620   43.6080 C   0  0  0  0  0  0  0  0  0  0  0  0
    1.4360   15.1840   39.0050 C   0  0  0  0  0  0  0  0  0  0  0  0
    1.7970   19.7640   41.8520 C   0  0  0  0  0  0  0  0  0  0  0  0
    2.6920   20.3740   38.8320 C   0  0  0  0  0  0  0  0  0  0  0  0
   -1.0780   17.0290   45.9370 C   0  0  0  0  0  0  0  0  0  0  0  0
   -0.4500   17.7870   44.0670 N   0  0  0  0  0  0  0  0  0  0  0  0
   -0.3360   20.3200   44.6680 N   0  0  0  0  0  4  0  0  0  0  0  0
   -1.6960   16.8980   47.0520 C   0  0  0  0  0  0  0  0  0  0  0  0
   -0.6760   19.4840   45.5290 C   0  0  0  0  0  0  0  0  0  0  0  0
    2.4690   19.1410   38.7210 O   0  0  0  0  0  0  0  0  0  0  0  0
    3.8510   20.8110   41.7250 O   0  0  0  0  0  0  0  0  0  0  0  0
    3.2410   15.8240   39.2410 C   0  0  0  0  0  0  0  0  0  0  0  0
    2.3330   21.1660   39.9840 C   0  0  0  0  0  0  0  0  0  0  0  0
   -0.7860   18.1370   45.2530 C   0  0  0  0  0  0  0  0  0  0  0  0
   -0.7880   15.7950   45.3720 C   0  0  0  0  0  0  0  0  0  0  0  0
    0.8370   20.4000   42.5300 C   0  0  0  0  0  0  0  0  0  0  0  0
   -2.0680   15.7590   47.5980 C   0  0  0  0  0  0  0  0  0  0  0  0
    3.1520   21.0190   37.8150 N   0  0  0  0  0  0  0  0  0  0  0  0
    1.2010   17.8590   42.6970 N   0  0  0  0  0  0  0  0  0  0  0  0
    2.4200   15.4130   41.3210 C   0  0  0  0  0  0  0  0  0  0  0  0
   -1.8900   14.5940   47.0090 C   0  0  0  0  0  0  0  0  0  0  0  0
    2.7060   14.6850   39.2590 N   0  0  0  0  0  0  0  0  0  0  0  0
   -1.0383   13.6841   45.3127 H   0  0  0  0  0  0  0  0  0  0  0  0
    1.2230   17.0692   40.6049 H   0  0  0  0  0  0  0  0  0  0  0  0
    2.5209   17.9904   41.2055 H   0  0  0  0  0  0  0  0  0  0  0  0
    4.2246   14.6000   40.7939 H   0  0  0  0  0  0  0  0  0  0  0  0
    2.9728   13.4247   41.0384 H   0  0  0  0  0  0  0  0  0  0  0  0
    1.2326   17.0439   38.2944 H   0  0  0  0  0  0  0  0  0  0  0  0
    2.2587   15.9228   37.3368 H   0  0  0  0  0  0  0  0  0  0  0  0
    0.4731   15.7275   37.3368 H   0  0  0  0  0  0  0  0  0  0  0  0
    1.2745   19.8112   44.1197 H   0  0  0  0  0  0  0  0  0  0  0  0
    0.5857   14.4953   38.8922 H   0  0  0  0  0  0  0  0  0  0  0  0
    1.2044   19.6984   40.9276 H   0  0  0  0  0  0  0  0  0  0  0  0
    0.2954   21.0050   45.1073 H   0  0  0  0  0  0  0  0  0  0  0  0
   -1.1957   20.7616   44.3118 H   0  0  0  0  0  0  0  0  0  0  0  0
   -1.9373   17.8195   47.6021 H   0  0  0  0  0  0  0  0  0  0  0  0
   -0.8967   19.8345   46.5480 H   0  0  0  0  0  0  0  0  0  0  0  0
    3.8686   20.8147   42.7148 H   0  0  0  0  0  0  0  0  0  0  0  0
    3.2866   16.3185   38.2595 H   0  0  0  0  0  0  0  0  0  0  0  0
    4.2848   16.0322   39.5188 H   0  0  0  0  0  0  0  0  0  0  0  0
    2.9076   22.1030   39.9419 H   0  0  0  0  0  0  0  0  0  0  0  0
    1.2437   21.3066   39.9227 H   0  0  0  0  0  0  0  0  0  0  0  0
   -0.1605   15.7757   44.4687 H   0  0  0  0  0  0  0  0  0  0  0  0
    0.0162   20.6038   41.8266 H   0  0  0  0  0  0  0  0  0  0  0  0
    1.3303   21.2904   42.9469 H   0  0  0  0  0  0  0  0  0  0  0  0
   -2.5476   15.7811   48.5877 H   0  0  0  0  0  0  0  0  0  0  0  0
    3.4257   20.5094   36.9628 H   0  0  0  0  0  0  0  0  0  0  0  0
    3.2458   22.0440   37.8547 H   0  0  0  0  0  0  0  0  0  0  0  0
    3.0775   16.0328   41.9484 H   0  0  0  0  0  0  0  0  0  0  0  0
    1.6616   14.9836   41.9921 H   0  0  0  0  0  0  0  0  0  0  0  0
   -2.2686   13.6572   47.4439 H   0  0  0  0  0  0  0  0  0  0  0  0
  1 28  2  0
  2 18  1  0
  3 19  1  0
  3 27  1  0
  4 26  2  0
  5 27  1  0
  6  8  1  0
  6 13  2  0
  8 23  1  0
  8 14  1  0
  9  7  1  0
  9 29  1  0
  9  3  1  0
 10  2  1  0
 10  4  1  0
 10 23  1  0
 11 20  1  0
 12 15  1  0
 13 21  1  0
 14 16  1  0
 15 24  2  0
 17 11  2  0
 20  2  1  0
 21 16  2  0
 21 12  1  0
 22  1  1  0
 22 12  2  0
 25 11  1  0
 26  6  1  0
 28 24  1  0
 29 19  1  0
 29  5  1  0
  1 30  1  0
  3 31  1  0
  4 32  1  0
  5 33  1  0
  5 34  1  0
  7 35  1  0
  7 36  1  0
  7 37  1  0
  8 38  1  0
  9 39  1  0
 10 40  1  0
 14 41  1  0
 14 42  1  0
 15 43  1  0
 16 44  1  0
 18 45  1  0
 19 46  1  0
 19 47  1  0
 20 48  1  0
 20 49  1  0
 22 50  1  0
 23 51  1  0
 23 52  1  0
 24 53  1  0
 25 54  1  0
 25 55  1  0
 27 56  1  0
 27 57  1  0
 28 58  1  0
M  CHG  1  14   1
M  END
>  <mol_id>  (15) 
2026-09-18-6fnk-s0-n100-refligand-seed1-0015

>  <rmsd_to_ref>  (15) 


$$$$

     RDKit          3D

 40 43  0  0  0  0  0  0  0  0999 V2000
    2.9160   20.1340   39.3850 N   0  0  0  0  0  0  0  0  0  0  0  0
   -0.3110   19.2840   45.0270 C   0  0  0  0  0  0  0  0  0  0  0  0
    0.8060   17.9440   43.1800 C   0  0  0  0  0  0  0  0  0  0  0  0
   -1.3110   14.5750   46.6100 C   0  0  0  0  0  0  0  0  0  0  0  0
   -0.5850   13.9330   45.5120 C   0  0  0  0  0  0  0  0  0  0  0  0
    4.6540   21.7600   39.3680 C   0  0  0  0  0  0  0  0  0  0  0  0
   -1.2710   15.9810   46.7240 C   0  0  0  0  0  0  0  0  0  0  0  0
   -0.3640   18.1500   45.8320 O   0  0  0  0  0  0  0  0  0  0  0  0
    1.7170   17.8330   42.0690 C   0  0  0  0  0  0  0  0  0  0  0  0
    1.6670   19.0010   41.3240 C   0  0  0  0  0  0  0  0  0  0  0  0
    2.6110   17.0310   41.9130 O   0  0  0  0  0  0  0  0  0  0  0  0
    3.5120   21.1250   40.2250 C   0  0  0  0  0  0  0  0  0  0  0  0
   -0.5480   20.3760   45.5780 O   0  0  0  0  0  0  0  0  0  0  0  0
    2.1390   19.1890   39.9780 C   0  0  0  0  0  0  0  0  0  0  0  0
    0.1970   19.1810   43.7220 C   0  0  0  0  0  0  0  0  0  0  0  0
    2.8770   19.4730   37.4160 N   0  0  0  0  0  0  0  0  0  0  0  0
    4.4350   20.9950   38.1070 O   0  0  0  0  0  0  0  0  0  0  0  0
    3.1960   20.2970   38.1510 C   0  0  0  0  0  0  0  0  0  0  0  0
    0.8350   16.7200   43.8590 O   0  0  0  0  0  0  0  0  0  0  0  0
    0.2630   20.2940   42.8630 C   0  0  0  0  0  0  0  0  0  0  0  0
   -0.0630   14.6120   44.4150 C   0  0  0  0  0  0  0  0  0  0  0  0
    1.0530   20.1250   41.8270 C   0  0  0  0  0  0  0  0  0  0  0  0
   -0.6020   16.8530   45.7430 C   0  0  0  0  0  0  0  0  0  0  0  0
    0.0740   16.0060   44.5940 C   0  0  0  0  0  0  0  0  0  0  0  0
   -0.1441   18.4010   42.8662 H   0  0  0  0  0  0  0  0  0  0  0  0
   -1.8781   13.9713   47.3338 H   0  0  0  0  0  0  0  0  0  0  0  0
   -0.4430   12.8431   45.5573 H   0  0  0  0  0  0  0  0  0  0  0  0
    4.5134   22.8417   39.2263 H   0  0  0  0  0  0  0  0  0  0  0  0
    5.6651   21.6957   39.7964 H   0  0  0  0  0  0  0  0  0  0  0  0
   -1.7640   16.4493   47.5886 H   0  0  0  0  0  0  0  0  0  0  0  0
    2.7712   21.8882   40.5057 H   0  0  0  0  0  0  0  0  0  0  0  0
    3.8943   20.6926   41.1614 H   0  0  0  0  0  0  0  0  0  0  0  0
    1.2111   19.2200   39.3881 H   0  0  0  0  0  0  0  0  0  0  0  0
    2.9210   18.4169   40.0260 H   0  0  0  0  0  0  0  0  0  0  0  0
    1.1642   19.4640   44.1630 H   0  0  0  0  0  0  0  0  0  0  0  0
    1.9591   19.0174   37.5198 H   0  0  0  0  0  0  0  0  0  0  0  0
   -0.7511   20.5059   42.4934 H   0  0  0  0  0  0  0  0  0  0  0  0
    0.6827   21.1240   43.4503 H   0  0  0  0  0  0  0  0  0  0  0  0
    0.2205   14.1029   43.4820 H   0  0  0  0  0  0  0  0  0  0  0  0
    1.2604   21.0453   41.2613 H   0  0  0  0  0  0  0  0  0  0  0  0
  1 14  1  0
  1 12  1  0
  2 13  2  0
  2  8  1  0
  3  9  1  0
  3 15  1  0
  3 19  1  0
  4  7  1  0
  5  4  2  0
  6 12  1  0
 10 22  2  0
 10  9  1  0
 11  9  2  0
 14 10  1  0
 15 20  1  0
 15  2  1  0
 16 18  2  3
 17 18  1  0
 17  6  1  0
 18  1  1  0
 19 24  1  0
 21 24  2  0
 21  5  1  0
 22 20  1  0
 23  8  1  0
 23  7  2  0
 24 23  1  0
  3 25  1  0
  4 26  1  0
  5 27  1  0
  6 28  1  0
  6 29  1  0
  7 30  1  0
 12 31  1  0
 12 32  1  0
 14 33  1  0
 14 34  1  0
 15 35  1  0
 16 36  1  0
 20 37  1  0
 20 38  1  0
 21 39  1  0
 22 40  1  0
M  END
>  <mol_id>  (16) 
2026-09-18-6fnk-s0-n100-refligand-seed1-0016

>  <rmsd_to_ref>  (16) 


$$$$

     RDKit          3D

 17 17  0  0  0  0  0  0  0  0999 V2000
    0.9220   18.0140   43.5540 C   0  0  0  0  0  0  0  0  0  0  0  0
    1.8320   19.3680   41.5980 N   0  0  0  0  0  0  0  0  0  0  0  0
    0.1100   18.1810   44.6520 C   0  0  0  0  0  0  0  0  0  0  0  0
    0.9470   19.2470   42.8380 C   0  0  0  0  0  0  0  0  0  0  0  0
    1.8030   17.2610   42.8100 N   0  0  0  0  0  0  0  0  0  0  0  0
    0.4210   21.6030   42.2570 N   0  0  0  0  0  0  0  0  0  0  0  0
    0.2780   20.4080   43.1240 C   0  0  0  0  0  0  0  0  0  0  0  0
   -0.5200   19.3810   44.9470 C   0  0  0  0  0  0  0  0  0  0  0  0
   -0.4780   20.4870   44.2430 N   0  0  0  0  0  0  0  0  0  0  0  0
    2.3867   18.5603   41.2803 H   0  0  0  0  0  0  0  0  0  0  0  0
    1.8738   20.2572   41.0799 H   0  0  0  0  0  0  0  0  0  0  0  0
   -0.0464   17.3254   45.3254 H   0  0  0  0  0  0  0  0  0  0  0  0
    2.1885   17.6375   41.9322 H   0  0  0  0  0  0  0  0  0  0  0  0
    2.0764   16.3214   43.1314 H   0  0  0  0  0  0  0  0  0  0  0  0
   -0.0884   22.4687   42.4851 H   0  0  0  0  0  0  0  0  0  0  0  0
    1.0297   21.5671   41.4269 H   0  0  0  0  0  0  0  0  0  0  0  0
   -1.1185   19.4081   45.8695 H   0  0  0  0  0  0  0  0  0  0  0  0
  1  3  2  0
  2  4  1  0
  3  8  1  0
  4  7  2  0
  4  1  1  0
  5  1  1  0
  6  7  1  0
  7  9  1  0
  9  8  2  0
  2 10  1  0
  2 11  1  0
  3 12  1  0
  5 13  1  0
  5 14  1  0
  6 15  1  0
  6 16  1  0
  8 17  1  0
M  END
>  <mol_id>  (17) 
2026-09-18-6fnk-s0-n100-refligand-seed1-0017

>  <rmsd_to_ref>  (17) 


$$$$

     RDKit          3D

 35 37  0  0  0  0  0  0  0  0999 V2000
    1.4480   16.3030   43.2630 C   0  0  0  0  0  0  0  0  0  0  0  0
    0.0380   17.9700   44.8590 C   0  0  0  0  0  0  0  0  0  0  0  0
   -1.3610   18.1470   46.7380 O   0  0  0  0  0  1  0  0  0  0  0  0
    1.3050   17.5900   42.8970 C   0  0  0  0  0  0  0  0  0  0  0  0
    3.1200   19.4190   41.6500 S   0  0  0  0  0  0  0  0  0  0  0  0
    1.8010   18.1810   40.8510 C   0  0  0  0  0  0  0  0  0  0  0  0
    2.2070   20.5170   39.3470 C   0  0  0  0  0  0  0  0  0  0  0  0
    0.7530   19.7110   43.3310 O   0  0  0  0  0  0  0  0  0  0  0  0
    1.9910   18.7920   41.6110 C   0  0  0  0  0  0  0  0  0  0  0  0
    0.8460   15.7890   44.3260 C   0  0  0  0  0  0  0  0  0  0  0  0
    2.3140   19.7720   39.6530 C   0  0  0  0  0  0  0  0  0  0  0  0
    0.6640   18.4330   43.7660 C   0  0  0  0  0  0  0  0  0  0  0  0
    1.8190   17.2850   40.0950 S   0  0  0  0  0  0  0  0  0  0  0  0
   -0.7190   18.7760   45.7800 C   0  0  0  0  0  0  0  0  0  0  0  0
    0.1480   16.5990   45.0400 C   0  0  0  0  0  0  0  0  0  0  0  0
   -0.7650   19.9560   45.6670 O   0  0  0  0  0  0  0  0  0  0  0  0
    2.2480   19.5860   40.6360 C   0  0  0  0  0  0  0  0  0  0  0  0
    3.1400   21.4930   39.0990 C   0  0  0  0  0  0  0  0  0  0  0  0
    2.7480   20.0260   40.7880 C   0  0  0  0  0  0  0  0  0  0  0  0
    1.4320   18.0590   41.7040 C   0  0  0  0  0  0  0  0  0  0  0  0
    2.0913   15.6504   42.6546 H   0  0  0  0  0  0  0  0  0  0  0  0
    1.9909   18.4646   39.8053 H   0  0  0  0  0  0  0  0  0  0  0  0
    1.1689   20.7806   39.0962 H   0  0  0  0  0  0  0  0  0  0  0  0
    0.3371   20.4418   43.8535 H   0  0  0  0  0  0  0  0  0  0  0  0
    0.9388   14.7238   44.5842 H   0  0  0  0  0  0  0  0  0  0  0  0
    1.5649   19.1294   39.1673 H   0  0  0  0  0  0  0  0  0  0  0  0
    3.3813   19.5931   39.4558 H   0  0  0  0  0  0  0  0  0  0  0  0
    1.8427   16.1033   40.7878 H   0  0  0  0  0  0  0  0  0  0  0  0
   -0.4174   16.1621   45.8763 H   0  0  0  0  0  0  0  0  0  0  0  0
    1.2107   19.2198   40.6329 H   0  0  0  0  0  0  0  0  0  0  0  0
    2.8263   22.4593   38.6772 H   0  0  0  0  0  0  0  0  0  0  0  0
    4.2013   21.3088   39.3221 H   0  0  0  0  0  0  0  0  0  0  0  0
    3.4891   20.1361   39.9826 H   0  0  0  0  0  0  0  0  0  0  0  0
    2.4821   21.0785   40.9658 H   0  0  0  0  0  0  0  0  0  0  0  0
    0.5002   17.4811   41.7914 H   0  0  0  0  0  0  0  0  0  0  0  0
  1 10  2  0
  2 15  2  0
  2 14  1  0
  4  1  1  0
  4 12  2  0
  6 13  1  0
  6  9  1  0
  6 20  1  0
  7 11  1  0
  8 12  1  0
  9  5  1  0
  9 20  1  0
 10 15  1  0
 12  2  1  0
 14  3  1  0
 16 14  2  0
 17 11  1  0
 17 19  1  0
 17  9  1  0
 18  7  2  3
 19  5  1  0
 20  4  1  0
  1 21  1  0
  6 22  1  0
  7 23  1  0
  8 24  1  0
 10 25  1  0
 11 26  1  0
 11 27  1  0
 13 28  1  0
 15 29  1  0
 17 30  1  0
 18 31  1  0
 18 32  1  0
 19 33  1  0
 19 34  1  0
 20 35  1  0
M  CHG  1   3  -1
M  END
>  <mol_id>  (18) 
2026-09-18-6fnk-s0-n100-refligand-seed1-0018

>  <rmsd_to_ref>  (18) 


$$$$

     RDKit          3D

 16 17  0  0  0  0  0  0  0  0999 V2000
    0.8740   20.7170   42.4140 N   0  0  0  0  0  0  0  0  0  0  0  0
    0.5070   19.7910   43.3390 C   0  0  0  0  0  0  0  0  0  0  0  0
    2.1730   19.0860   41.2410 C   0  0  0  0  0  0  0  0  0  0  0  0
    1.8150   18.0950   42.1880 C   0  0  0  0  0  0  0  0  0  0  0  0
    1.1640   16.4050   44.3570 O   0  0  0  0  0  0  0  0  0  0  0  0
    0.9550   18.4910   43.3020 C   0  0  0  0  0  0  0  0  0  0  0  0
   -0.7140   19.2230   45.2270 C   0  0  0  0  0  0  0  0  0  0  0  0
   -0.3620   20.1780   44.3580 N   0  0  0  0  0  0  0  0  0  0  0  0
   -0.2530   17.9430   45.2400 N   0  0  0  0  0  0  0  0  0  0  0  0
    0.6600   17.5540   44.3290 C   0  0  0  0  0  0  0  0  0  0  0  0
    1.7360   20.3710   41.4910 C   0  0  0  0  0  0  0  0  0  0  0  0
    2.7702   18.8431   40.3498 H   0  0  0  0  0  0  0  0  0  0  0  0
    2.1730   17.0597   42.0882 H   0  0  0  0  0  0  0  0  0  0  0  0
   -1.4437   19.4985   46.0027 H   0  0  0  0  0  0  0  0  0  0  0  0
   -0.6003   17.2748   45.9428 H   0  0  0  0  0  0  0  0  0  0  0  0
    2.1471   21.1734   40.8608 H   0  0  0  0  0  0  0  0  0  0  0  0
  1  2  2  0
  2  8  1  0
  3 11  2  0
  3  4  1  0
  4  6  2  0
  6  2  1  0
  6 10  1  0
  7  9  1  0
  8  7  2  0
 10  5  2  0
 10  9  1  0
 11  1  1  0
  3 12  1  0
  4 13  1  0
  7 14  1  0
  9 15  1  0
 11 16  1  0
M  END
>  <mol_id>  (19) 
2026-09-18-6fnk-s0-n100-refligand-seed1-0019

>  <rmsd_to_ref>  (19) 


$$$$

     RDKit          3D

 19 21  0  0  0  0  0  0  0  0999 V2000
   -0.9250   19.9290   44.3810 N   0  0  0  0  0  0  0  0  0  0  0  0
    2.6720   15.1890   42.1140 N   0  0  0  0  0  0  0  0  0  0  0  0
    3.0040   19.4380   40.5570 O   0  0  0  0  0  0  0  0  0  0  0  0
   -0.6850   17.6740   44.7500 N   0  0  0  0  0  0  0  0  0  0  0  0
    2.4580   20.6420   41.0060 N   0  0  0  0  0  0  0  0  0  0  0  0
    0.8730   16.1460   43.7820 C   0  0  0  0  0  0  0  0  0  0  0  0
    1.8480   15.7280   42.8380 C   0  0  0  0  0  0  0  0  0  0  0  0
    0.6700   18.6570   43.1060 C   0  0  0  0  0  0  0  0  0  0  0  0
    0.3030   17.5000   43.7610 C   0  0  0  0  0  0  0  0  0  0  0  0
   -1.3200   18.8590   44.9950 C   0  0  0  0  0  0  0  0  0  0  0  0
    0.0590   19.8860   43.4810 C   0  0  0  0  0  0  0  0  0  0  0  0
    0.6040   20.8890   42.7880 N   0  0  0  0  0  0  0  0  0  0  0  0
    1.4580   20.3510   41.8450 C   0  0  0  0  0  0  0  0  0  0  0  0
    2.3080   18.4690   41.1080 N   0  0  0  0  0  0  0  0  0  0  0  0
    1.4830   18.9850   42.0210 C   0  0  0  0  0  0  0  0  0  0  0  0
    0.5348   15.4358   44.5509 H   0  0  0  0  0  0  0  0  0  0  0  0
   -2.1579   18.9038   45.7063 H   0  0  0  0  0  0  0  0  0  0  0  0
    0.4192   21.8920   42.9320 H   0  0  0  0  0  0  0  0  0  0  0  0
    2.3868   17.4694   40.8724 H   0  0  0  0  0  0  0  0  0  0  0  0
  1 10  1  0
  2  7  3  0
  3  5  1  0
  3 14  1  0
  4 10  2  0
  5 13  2  0
  7  6  1  0
  8 11  1  0
  8  9  1  0
  9  6  2  3
  9  4  1  0
 11  1  2  0
 12 11  1  0
 13 15  1  0
 13 12  1  0
 14 15  1  0
 15  8  2  0
  6 16  1  0
 10 17  1  0
 12 18  1  0
 14 19  1  0
M  END
>  <mol_id>  (20) 
2026-09-18-6fnk-s0-n100-refligand-seed1-0020

>  <rmsd_to_ref>  (20) 


$$$$

     RDKit          3D

 28 30  0  0  0  0  0  0  0  0999 V2000
    2.8380   16.3370   40.3980 Cl  0  0  0  0  0  0  0  0  0  0  0  0
    0.1880   20.2060   43.3610 C   0  0  0  0  0  0  0  0  0  0  0  0
    0.9980   18.1070   42.3290 N   0  0  0  0  0  0  0  0  0  0  0  0
    0.0790   16.7620   43.7660 C   0  0  0  0  0  0  0  0  0  0  0  0
    0.7640   16.8310   42.5360 C   0  0  0  0  0  0  0  0  0  0  0  0
    3.6380   20.9230   38.2490 C   0  0  0  0  0  0  0  0  0  0  0  0
   -0.8740   18.2260   46.5540 O   0  0  0  0  0  0  0  0  0  0  0  0
   -0.5760   18.7020   45.4760 C   0  0  0  0  0  0  0  0  0  0  0  0
    1.7710   18.6720   41.2300 C   0  0  0  0  0  0  0  0  0  0  0  0
   -0.1480   18.0120   44.3010 C   0  0  0  0  0  0  0  0  0  0  0  0
    2.8270   18.6440   39.0940 C   0  0  0  0  0  0  0  0  0  0  0  0
    2.9530   20.0420   39.2640 C   0  0  0  0  0  0  0  0  0  0  0  0
   -0.3800   20.7470   44.3820 N   0  0  0  0  0  0  0  0  0  0  0  0
    2.3510   17.9570   40.1840 C   0  0  0  0  0  0  0  0  0  0  0  0
    1.9460   19.9710   41.3550 C   0  0  0  0  0  0  0  0  0  0  0  0
    0.3810   18.8100   43.2410 C   0  0  0  0  0  0  0  0  0  0  0  0
   -0.7290   20.0640   45.4590 N   0  0  0  0  0  0  0  0  0  0  0  0
    2.6610   20.6560   40.3500 C   0  0  0  0  0  0  0  0  0  0  0  0
    0.5383   20.8576   42.5469 H   0  0  0  0  0  0  0  0  0  0  0  0
   -0.2369   15.8222   44.2424 H   0  0  0  0  0  0  0  0  0  0  0  0
    1.0446   15.9904   41.8843 H   0  0  0  0  0  0  0  0  0  0  0  0
    4.2328   21.6880   38.7695 H   0  0  0  0  0  0  0  0  0  0  0  0
    4.2994   20.3104   37.6187 H   0  0  0  0  0  0  0  0  0  0  0  0
    2.8813   21.4130   37.6187 H   0  0  0  0  0  0  0  0  0  0  0  0
    3.0922   18.1406   38.1526 H   0  0  0  0  0  0  0  0  0  0  0  0
    1.5432   20.5108   42.2247 H   0  0  0  0  0  0  0  0  0  0  0  0
   -1.1135   20.5525   46.2802 H   0  0  0  0  0  0  0  0  0  0  0  0
    2.9638   21.7033   40.4968 H   0  0  0  0  0  0  0  0  0  0  0  0
  2 13  2  0
  3  5  1  0
  3 16  1  0
  4 10  1  0
  5  4  2  0
  6 12  1  0
  8  7  2  0
  9 15  1  0
  9  3  1  0
 10  8  1  0
 11 12  2  0
 11 14  1  0
 12 18  1  0
 13 17  1  0
 14  1  1  0
 14  9  2  0
 16  2  1  0
 16 10  2  0
 17  8  1  0
 18 15  2  0
  2 19  1  0
  4 20  1  0
  5 21  1  0
  6 22  1  0
  6 23  1  0
  6 24  1  0
 11 25  1  0
 15 26  1  0
 17 27  1  0
 18 28  1  0
M  END
>  <mol_id>  (21) 
2026-09-18-6fnk-s0-n100-refligand-seed1-0021

>  <rmsd_to_ref>  (21) 


$$$$

     RDKit          3D

 49 50  0  0  0  0  0  0  0  0999 V2000
    2.1960   14.0870   41.5780 C   0  0  0  0  0  0  0  0  0  0  0  0
    1.5980   17.7960   41.2470 C   0  0  0  0  0  0  0  0  0  0  0  0
    5.8820   21.9450   42.7870 O   0  0  0  0  0  0  0  0  0  0  0  0
   -0.6470   17.2470   46.8100 O   0  0  0  0  0  1  0  0  0  0  0  0
    2.8620   20.3630   40.5720 C   0  0  0  0  0  0  0  0  0  0  0  0
    1.4950   20.0630   39.5440 Cl  0  0  0  0  0  0  0  0  0  0  0  0
   -1.0780   19.2640   44.1600 C   0  0  0  0  0  0  0  0  0  0  0  0
    1.5900   15.7860   39.9270 C   0  0  0  0  0  0  0  0  0  0  0  0
    1.4150   17.2690   44.5110 O   0  0  0  0  0  0  0  0  0  0  0  0
    0.8950   18.3180   42.4760 C   0  0  0  0  0  0  0  0  0  0  0  0
    3.0670   19.9500   41.7400 N   0  0  0  0  0  0  0  0  0  0  0  0
    4.0720   20.4510   42.4900 C   0  0  0  0  0  0  0  0  0  0  0  0
   -0.9400   16.4170   45.8930 C   0  0  0  0  0  0  0  0  0  0  0  0
    1.9870   15.4960   42.1360 C   0  0  0  0  0  0  0  0  0  0  0  0
   -0.8610   15.1500   45.9290 O   0  0  0  0  0  0  0  0  0  0  0  0
    1.0860   14.1170   40.5020 C   0  0  0  0  0  0  0  0  0  0  0  0
    1.6950   16.3350   41.0900 N   0  0  0  0  0  0  0  0  0  0  0  0
    0.5360   14.9010   39.9640 C   0  0  0  0  0  0  0  0  0  0  0  0
    4.9410   21.3200   41.9940 C   0  0  0  0  0  0  0  0  0  0  0  0
   -1.4460   16.9400   44.6100 C   0  0  0  0  0  0  0  0  0  0  0  0
    3.7750   21.2040   39.9540 C   0  0  0  0  0  0  0  0  0  0  0  0
   -0.5980   17.9470   44.1550 N   0  0  0  0  0  0  0  0  0  0  0  0
   -0.2540   20.4070   44.0740 C   0  0  0  0  0  0  0  0  0  0  0  0
   -0.4860   20.0690   45.3790 O   0  0  0  0  0  0  0  0  0  0  0  0
    4.8560   21.7650   40.6920 C   0  0  0  0  0  0  0  0  0  0  0  0
    0.6270   17.7160   43.7230 C   0  0  0  0  0  0  0  0  0  0  0  0
    3.1969   13.9558   41.1410 H   0  0  0  0  0  0  0  0  0  0  0  0
    2.1405   13.2651   42.3070 H   0  0  0  0  0  0  0  0  0  0  0  0
    1.0623   18.1871   40.3695 H   0  0  0  0  0  0  0  0  0  0  0  0
    2.6385   18.1369   41.3525 H   0  0  0  0  0  0  0  0  0  0  0  0
    6.5176   22.5896   42.3863 H   0  0  0  0  0  0  0  0  0  0  0  0
   -2.0136   18.9902   43.6505 H   0  0  0  0  0  0  0  0  0  0  0  0
    2.5187   15.2494   39.6831 H   0  0  0  0  0  0  0  0  0  0  0  0
    1.4158   16.5533   39.1583 H   0  0  0  0  0  0  0  0  0  0  0  0
    1.4644   19.2217   42.7389 H   0  0  0  0  0  0  0  0  0  0  0  0
   -0.1285   18.2550   42.0778 H   0  0  0  0  0  0  0  0  0  0  0  0
    4.1717   20.1302   43.5375 H   0  0  0  0  0  0  0  0  0  0  0  0
    1.1532   15.4920   42.8535 H   0  0  0  0  0  0  0  0  0  0  0  0
    2.8958   15.8374   42.6532 H   0  0  0  0  0  0  0  0  0  0  0  0
    1.5287   13.5298   39.6839 H   0  0  0  0  0  0  0  0  0  0  0  0
    0.2706   13.9058   41.2095 H   0  0  0  0  0  0  0  0  0  0  0  0
   -0.3262   15.2846   40.5291 H   0  0  0  0  0  0  0  0  0  0  0  0
    0.0640   14.6292   39.0083 H   0  0  0  0  0  0  0  0  0  0  0  0
   -1.4804   16.1268   43.8700 H   0  0  0  0  0  0  0  0  0  0  0  0
   -2.4577   17.3476   44.7524 H   0  0  0  0  0  0  0  0  0  0  0  0
    3.6634   21.4396   38.8854 H   0  0  0  0  0  0  0  0  0  0  0  0
    0.7647   20.2888   43.6761 H   0  0  0  0  0  0  0  0  0  0  0  0
   -0.3952   21.3584   43.5402 H   0  0  0  0  0  0  0  0  0  0  0  0
    5.5617   22.4902   40.2607 H   0  0  0  0  0  0  0  0  0  0  0  0
  1 14  1  0
  2 10  1  0
  5 11  2  0
  6  5  1  0
  7 22  1  0
  7 24  1  0
  8 18  1  0
  8 17  1  0
 10 26  1  0
 11 12  1  0
 13 15  2  0
 13  4  1  0
 16  1  1  0
 17  2  1  0
 17 14  1  0
 18 16  1  0
 19 12  2  0
 19  3  1  0
 20 13  1  0
 21  5  1  0
 21 25  2  0
 22 20  1  0
 23  7  1  0
 23 24  1  0
 25 19  1  0
 26 22  1  0
 26  9  2  0
  1 27  1  0
  1 28  1  0
  2 29  1  0
  2 30  1  0
  3 31  1  0
  7 32  1  0
  8 33  1  0
  8 34  1  0
 10 35  1  0
 10 36  1  0
 12 37  1  0
 14 38  1  0
 14 39  1  0
 16 40  1  0
 16 41  1  0
 18 42  1  0
 18 43  1  0
 20 44  1  0
 20 45  1  0
 21 46  1  0
 23 47  1  0
 23 48  1  0
 25 49  1  0
M  CHG  1   4  -1
M  END
>  <mol_id>  (22) 
2026-09-18-6fnk-s0-n100-refligand-seed1-0022

>  <rmsd_to_ref>  (22) 


$$$$

     RDKit          3D

 18 18  0  0  0  0  0  0  0  0999 V2000
    0.0420   21.0860   43.0890 C   0  0  0  0  0  0  0  0  0  0  0  0
    2.4570   16.4030   40.2740 C   0  0  0  0  0  0  0  0  0  0  0  0
    3.3990   17.8800   41.8650 O   0  0  0  0  0  0  0  0  0  0  0  0
    0.4450   18.4350   43.7700 C   0  0  0  0  0  0  0  0  0  0  0  0
    2.4520   17.4660   41.3170 C   0  0  0  0  0  0  0  0  0  0  0  0
    1.2900   17.9840   41.6320 N   0  0  0  0  0  0  0  0  0  0  0  0
   -0.5190   20.5570   44.2680 N   0  0  0  0  0  0  0  0  0  0  0  0
    0.7580   20.1950   42.3320 C   0  0  0  0  0  0  0  0  0  0  0  0
    0.9340   18.8520   42.5590 C   0  0  0  0  0  0  0  0  0  0  0  0
   -0.2260   19.1970   44.6110 C   0  0  0  0  0  0  0  0  0  0  0  0
   -0.0853   22.1388   42.7967 H   0  0  0  0  0  0  0  0  0  0  0  0
    2.4616   15.4150   40.7575 H   0  0  0  0  0  0  0  0  0  0  0  0
    1.5584   16.5002   39.6471 H   0  0  0  0  0  0  0  0  0  0  0  0
    3.3547   16.5087   39.6471 H   0  0  0  0  0  0  0  0  0  0  0  0
    0.6254   17.3896   44.0608 H   0  0  0  0  0  0  0  0  0  0  0  0
    0.5101   17.6515   41.0471 H   0  0  0  0  0  0  0  0  0  0  0  0
    1.2496   20.6041   41.4371 H   0  0  0  0  0  0  0  0  0  0  0  0
   -0.5609   18.7887   45.5760 H   0  0  0  0  0  0  0  0  0  0  0  0
  1  7  2  0
  2  5  1  0
  4 10  2  0
  5  6  1  0
  5  3  2  0
  6  9  1  0
  7 10  1  0
  8  9  2  0
  8  1  1  0
  9  4  1  0
  1 11  1  0
  2 12  1  0
  2 13  1  0
  2 14  1  0
  4 15  1  0
  6 16  1  0
  8 17  1  0
 10 18  1  0
M  END
>  <mol_id>  (23) 
2026-09-18-6fnk-s0-n100-refligand-seed1-0023

>  <rmsd_to_ref>  (23) 


$$$$

     RDKit          3D

 27 28  0  0  0  0  0  0  0  0999 V2000
    2.0930   16.7300   42.4050 C   0  0  0  0  0  0  0  0  0  0  0  0
    0.3390   20.8700   42.9120 N   0  0  0  0  0  0  0  0  0  0  0  0
    2.6700   17.0910   41.1570 O   0  0  0  0  0  0  0  0  0  0  0  0
   -0.2610   19.3170   44.8850 C   0  0  0  0  0  0  0  0  0  0  0  0
   -0.1000   17.8640   45.1390 C   0  0  0  0  0  0  0  0  0  0  0  0
    2.8820   19.9150   40.4790 C   0  0  0  0  0  0  0  0  0  0  0  0
    0.3850   19.7640   43.6270 C   0  0  0  0  0  0  0  0  0  0  0  0
   -0.8460   20.0550   45.7820 O   0  0  0  0  0  0  0  0  0  0  0  0
    3.6400   14.5700   40.9020 O   0  0  0  0  0  0  0  0  0  0  0  0
    1.1250   18.9220   42.7840 C   0  0  0  0  0  0  0  0  0  0  0  0
    1.2970   17.5250   43.2450 C   0  0  0  0  0  0  0  0  0  0  0  0
    2.1140   15.3200   42.5560 C   0  0  0  0  0  0  0  0  0  0  0  0
    0.5420   17.0110   44.3000 C   0  0  0  0  0  0  0  0  0  0  0  0
    1.1990   20.8310   41.9800 C   0  0  0  0  0  0  0  0  0  0  0  0
    1.7380   19.6910   41.6290 C   0  0  0  0  0  0  0  0  0  0  0  0
    2.6500   14.4450   41.5220 C   0  0  0  0  0  0  0  0  0  0  0  0
   -0.3044   21.6554   43.0853 H   0  0  0  0  0  0  0  0  0  0  0  0
    2.7316   18.0444   40.8974 H   0  0  0  0  0  0  0  0  0  0  0  0
   -0.5275   17.4520   46.0650 H   0  0  0  0  0  0  0  0  0  0  0  0
    3.8529   20.1051   40.9598 H   0  0  0  0  0  0  0  0  0  0  0  0
    2.9534   19.0138   39.8523 H   0  0  0  0  0  0  0  0  0  0  0  0
    2.6082   20.7766   39.8523 H   0  0  0  0  0  0  0  0  0  0  0  0
   -0.9604   21.0259   45.6262 H   0  0  0  0  0  0  0  0  0  0  0  0
    1.7146   14.8749   43.4792 H   0  0  0  0  0  0  0  0  0  0  0  0
    0.4676   15.9239   44.4507 H   0  0  0  0  0  0  0  0  0  0  0  0
    1.4925   21.7579   41.4655 H   0  0  0  0  0  0  0  0  0  0  0  0
    2.0504   13.5519   41.2921 H   0  0  0  0  0  0  0  0  0  0  0  0
  1 12  2  3
  1 11  1  0
  2  7  1  0
  3  1  1  0
  4  5  1  0
  4  8  1  0
  6 15  1  0
  7  4  2  0
  9 16  2  0
 10 11  2  0
 10  7  1  0
 11 13  1  0
 13  5  2  0
 14  2  1  0
 15 14  2  0
 15 10  1  0
 16 12  1  0
  2 17  1  0
  3 18  1  0
  5 19  1  0
  6 20  1  0
  6 21  1  0
  6 22  1  0
  8 23  1  0
 12 24  1  0
 13 25  1  0
 14 26  1  0
 16 27  1  0
M  END
>  <mol_id>  (24) 
2026-09-18-6fnk-s0-n100-refligand-seed1-0024

>  <rmsd_to_ref>  (24) 


$$$$

     RDKit          3D

 43 45  0  0  0  0  0  0  0  0999 V2000
   -0.4910   18.6680   45.6750 C   0  0  0  0  0  0  0  0  0  0  0  0
    3.0610   21.2140   40.2780 C   0  0  0  0  0  0  0  0  0  0  0  0
    2.6390   16.4260   40.7400 C   0  0  0  0  0  0  0  0  0  0  0  0
    0.4260   19.2370   43.8120 C   0  0  0  0  0  0  0  0  0  0  0  0
   -0.8100   19.9730   45.4220 N   0  0  0  0  0  0  0  0  0  0  0  0
    3.4720   15.2960   37.2820 C   0  0  0  0  0  0  0  0  0  0  0  0
    4.7950   14.0680   38.8380 C   0  0  0  0  0  0  0  0  0  0  0  0
   -0.2100   21.3160   43.3580 N   0  0  0  0  0  0  0  0  0  0  0  0
    4.2900   14.2630   37.5830 C   0  0  0  0  0  0  0  0  0  0  0  0
    2.9200   16.0280   38.3930 C   0  0  0  0  0  0  0  0  0  0  0  0
    2.5480   15.8490   41.8180 O   0  0  0  0  0  0  0  0  0  0  0  0
    2.3280   17.6150   40.3420 N   0  0  0  0  0  0  0  0  0  0  0  0
   -0.3180   20.3090   44.2530 C   0  0  0  0  0  0  0  0  0  0  0  0
    3.2090   15.6760   39.6290 C   0  0  0  0  0  0  0  0  0  0  0  0
    1.5470   18.5650   42.0320 N   0  0  0  0  0  4  0  0  0  0  0  0
    0.9950   19.5880   42.5660 C   0  0  0  0  0  0  0  0  0  0  0  0
    0.3830   18.2080   44.7310 C   0  0  0  0  0  0  0  0  0  0  0  0
    0.5500   20.8780   42.3100 C   0  0  0  0  0  0  0  0  0  0  0  0
    3.2600   20.0200   41.1980 C   0  0  0  0  0  0  0  0  0  0  0  0
    4.2570   14.7600   39.9140 C   0  0  0  0  0  0  0  0  0  0  0  0
    4.0640   20.3410   42.4390 C   0  0  0  0  0  0  0  0  0  0  0  0
    2.1320   18.8880   41.0610 C   0  0  0  0  0  0  0  0  0  0  0  0
   -0.8809   18.0751   46.5155 H   0  0  0  0  0  0  0  0  0  0  0  0
    2.9098   22.1210   40.8818 H   0  0  0  0  0  0  0  0  0  0  0  0
    3.9505   21.3401   39.6433 H   0  0  0  0  0  0  0  0  0  0  0  0
    2.1787   21.0448   39.6433 H   0  0  0  0  0  0  0  0  0  0  0  0
    1.3148   19.6476   44.3134 H   0  0  0  0  0  0  0  0  0  0  0  0
    3.2395   15.5642   36.2409 H   0  0  0  0  0  0  0  0  0  0  0  0
    5.6258   13.3643   38.9948 H   0  0  0  0  0  0  0  0  0  0  0  0
   -0.6286   22.2526   43.4500 H   0  0  0  0  0  0  0  0  0  0  0  0
    4.5595   13.5523   36.7878 H   0  0  0  0  0  0  0  0  0  0  0  0
    2.2546   16.8842   38.2086 H   0  0  0  0  0  0  0  0  0  0  0  0
    2.1900   17.6885   39.3239 H   0  0  0  0  0  0  0  0  0  0  0  0
    2.2046   18.1423   42.7026 H   0  0  0  0  0  0  0  0  0  0  0  0
    0.8206   17.8799   41.7792 H   0  0  0  0  0  0  0  0  0  0  0  0
    0.9221   17.2494   44.7087 H   0  0  0  0  0  0  0  0  0  0  0  0
    0.7746   21.4584   41.4030 H   0  0  0  0  0  0  0  0  0  0  0  0
    4.0171   19.2907   40.8739 H   0  0  0  0  0  0  0  0  0  0  0  0
    4.6247   14.6065   40.9393 H   0  0  0  0  0  0  0  0  0  0  0  0
    3.4689   20.1034   43.3331 H   0  0  0  0  0  0  0  0  0  0  0  0
    4.9868   19.7424   42.4430 H   0  0  0  0  0  0  0  0  0  0  0  0
    4.3208   21.4106   42.4430 H   0  0  0  0  0  0  0  0  0  0  0  0
    1.5921   19.5732   40.3909 H   0  0  0  0  0  0  0  0  0  0  0  0
  2 19  1  0
  3 11  2  0
  4 13  1  0
  4 17  1  0
  5  1  1  0
  6  9  2  0
  6 10  1  0
  7 20  2  0
  8 13  1  0
  9  7  1  0
 10 14  2  0
 12  3  1  0
 13  5  2  0
 14 20  1  0
 14  3  1  0
 15 16  1  0
 16  4  1  0
 17  1  2  0
 18 16  2  0
 18  8  1  0
 19 21  1  0
 22 12  1  0
 22 19  1  0
 22 15  1  0
  1 23  1  0
  2 24  1  0
  2 25  1  0
  2 26  1  0
  4 27  1  0
  6 28  1  0
  7 29  1  0
  8 30  1  0
  9 31  1  0
 10 32  1  0
 12 33  1  0
 15 34  1  0
 15 35  1  0
 17 36  1  0
 18 37  1  0
 19 38  1  0
 20 39  1  0
 21 40  1  0
 21 41  1  0
 21 42  1  0
 22 43  1  0
M  CHG  1  15   1
M  END
>  <mol_id>  (25) 
2026-09-18-6fnk-s0-n100-refligand-seed1-0025

>  <rmsd_to_ref>  (25) 


$$$$

     RDKit          3D

 35 37  0  0  0  0  0  0  0  0999 V2000
    0.5150   15.9400   44.0120 C   0  0  0  0  0  0  0  0  0  0  0  0
    2.5800   19.5820   38.1790 O   0  0  0  0  0  0  0  0  0  0  0  0
    0.4750   18.2820   43.3790 C   0  0  0  0  0  0  0  0  0  0  0  0
    1.7870   19.1330   40.3370 C   0  0  0  0  0  0  0  0  0  0  0  0
    3.7980   20.8170   41.4110 C   0  0  0  0  0  0  0  0  0  0  0  0
    1.2510   14.4550   42.1990 C   0  0  0  0  0  0  0  0  0  0  0  0
    1.3330   15.7950   42.8700 N   0  0  0  0  0  0  0  0  0  0  0  0
    3.0060   19.9600   42.2610 C   0  0  0  0  0  0  0  0  0  0  0  0
   -0.6910   17.4300   45.2870 C   0  0  0  0  0  0  0  0  0  0  0  0
    2.0620   16.7900   42.3520 C   0  0  0  0  0  0  0  0  0  0  0  0
    0.1070   17.2730   44.2090 C   0  0  0  0  0  0  0  0  0  0  0  0
    2.5380   13.7390   42.6310 C   0  0  0  0  0  0  0  0  0  0  0  0
    2.6100   19.8060   39.5270 C   0  0  0  0  0  0  0  0  0  0  0  0
    4.5180   21.6410   38.9290 Cl  0  0  0  0  0  0  0  0  0  0  0  0
    0.1020   15.0410   44.7200 O   0  0  0  0  0  0  0  0  0  0  0  0
   -0.4900   19.6970   44.8950 N   0  0  0  0  0  0  0  0  0  0  0  0
    0.1230   19.5660   43.6780 N   0  0  0  0  0  0  0  0  0  0  0  0
    3.5590   20.7110   40.0390 C   0  0  0  0  0  0  0  0  0  0  0  0
    2.0340   19.1450   41.7320 C   0  0  0  0  0  0  0  0  0  0  0  0
    1.5000   18.0800   42.4870 C   0  0  0  0  0  0  0  0  0  0  0  0
   -0.8370   18.7740   45.7010 C   0  0  0  0  0  0  0  0  0  0  0  0
    1.9210   18.9497   37.7968 H   0  0  0  0  0  0  0  0  0  0  0  0
    0.9305   18.5780   39.9266 H   0  0  0  0  0  0  0  0  0  0  0  0
    4.5457   21.5125   41.8199 H   0  0  0  0  0  0  0  0  0  0  0  0
    1.2154   14.5677   41.1054 H   0  0  0  0  0  0  0  0  0  0  0  0
    0.3445   13.8982   42.4787 H   0  0  0  0  0  0  0  0  0  0  0  0
    3.1829   19.9593   43.3467 H   0  0  0  0  0  0  0  0  0  0  0  0
   -1.1829   16.5885   45.7968 H   0  0  0  0  0  0  0  0  0  0  0  0
    2.1991   16.5889   41.2793 H   0  0  0  0  0  0  0  0  0  0  0  0
    3.0042   16.8061   42.9194 H   0  0  0  0  0  0  0  0  0  0  0  0
    2.5904   13.7099   43.7294 H   0  0  0  0  0  0  0  0  0  0  0  0
    2.5364   12.7121   42.2366 H   0  0  0  0  0  0  0  0  0  0  0  0
    3.4097   14.2819   42.2366 H   0  0  0  0  0  0  0  0  0  0  0  0
    2.2062   18.3026   43.3004 H   0  0  0  0  0  0  0  0  0  0  0  0
   -1.2405   19.0165   46.6952 H   0  0  0  0  0  0  0  0  0  0  0  0
  1 11  1  0
  1 15  2  0
  2 13  1  0
  3 17  2  0
  3 11  1  0
  4 19  2  0
  5  8  2  0
  6 12  1  0
  6  7  1  0
  7  1  1  0
  9 21  1  0
 10 20  1  0
 10  7  1  0
 11  9  2  0
 13 18  2  0
 13  4  1  0
 14 18  1  0
 16 21  2  0
 17 16  1  0
 18  5  1  0
 19  8  1  0
 20 19  1  0
 20  3  1  0
  2 22  1  0
  4 23  1  0
  5 24  1  0
  6 25  1  0
  6 26  1  0
  8 27  1  0
  9 28  1  0
 10 29  1  0
 10 30  1  0
 12 31  1  0
 12 32  1  0
 12 33  1  0
 20 34  1  0
 21 35  1  0
M  END
>  <mol_id>  (26) 
2026-09-18-6fnk-s0-n100-refligand-seed1-0026

>  <rmsd_to_ref>  (26) 


$$$$

     RDKit          3D

 21 22  0  0  0  0  0  0  0  0999 V2000
    0.6430   18.5700   44.5050 C   0  0  0  0  0  0  0  0  0  0  0  0
    0.7680   19.3460   43.3080 C   0  0  0  0  0  0  0  0  0  0  0  0
    0.0330   21.6040   42.6470 N   0  0  0  0  0  0  0  0  0  0  0  0
    1.8530   16.6550   42.7660 C   0  0  0  0  0  0  0  0  0  0  0  0
    1.4940   19.1070   42.1690 C   0  0  0  0  0  0  0  0  0  0  0  0
    2.4090   17.1070   41.5650 C   0  0  0  0  0  0  0  0  0  0  0  0
   -0.2670   19.2970   45.3230 C   0  0  0  0  0  0  0  0  0  0  0  0
    1.1860   17.2680   43.7710 C   0  0  0  0  0  0  0  0  0  0  0  0
   -0.6210   20.4790   44.7190 N   0  0  0  0  0  0  0  0  0  0  0  0
    0.0230   20.5610   43.5240 C   0  0  0  0  0  0  0  0  0  0  0  0
    2.1410   18.3510   41.2370 C   0  0  0  0  0  0  0  0  0  0  0  0
    0.9369   18.2436   45.5135 H   0  0  0  0  0  0  0  0  0  0  0  0
   -0.5173   22.4512   42.8480 H   0  0  0  0  0  0  0  0  0  0  0  0
    0.5908   21.5452   41.7831 H   0  0  0  0  0  0  0  0  0  0  0  0
    1.9857   15.5750   42.9274 H   0  0  0  0  0  0  0  0  0  0  0  0
    3.0338   16.4595   40.9323 H   0  0  0  0  0  0  0  0  0  0  0  0
   -1.1697   18.6903   45.4872 H   0  0  0  0  0  0  0  0  0  0  0  0
    0.2203   19.5212   46.2833 H   0  0  0  0  0  0  0  0  0  0  0  0
    1.7487   16.8394   44.6134 H   0  0  0  0  0  0  0  0  0  0  0  0
    0.2983   17.3000   43.1222 H   0  0  0  0  0  0  0  0  0  0  0  0
    2.4251   18.7627   40.2573 H   0  0  0  0  0  0  0  0  0  0  0  0
  1  8  1  0
  1  7  1  0
  2 10  1  0
  2  1  1  0
  3 10  1  0
  4  8  1  0
  5  2  2  0
  6  4  2  0
  9  7  1  0
 10  9  2  0
 11  6  1  0
 11  5  2  0
  1 12  1  0
  3 13  1  0
  3 14  1  0
  4 15  1  0
  6 16  1  0
  7 17  1  0
  7 18  1  0
  8 19  1  0
  8 20  1  0
 11 21  1  0
M  END
>  <mol_id>  (27) 
2026-09-18-6fnk-s0-n100-refligand-seed1-0027

>  <rmsd_to_ref>  (27) 


$$$$

     RDKit          3D

 44 47  0  0  0  0  0  0  0  0999 V2000
    0.2790   14.8050   45.3090 C   0  0  0  0  0  0  0  0  0  0  0  0
   -0.5030   15.7800   44.3390 C   0  0  0  0  0  0  0  0  0  0  0  0
    0.7460   19.1440   43.2720 C   0  0  0  0  0  0  0  0  0  0  0  0
    3.5640   21.6340   41.3490 N   0  0  0  0  0  0  0  0  0  0  0  0
   -0.8060   18.6420   46.2850 O   0  0  0  0  0  0  0  0  0  0  0  0
    3.4820   20.4470   39.6710 O   0  0  0  0  0  0  0  0  0  0  0  0
    4.2180   21.2370   40.5880 C   0  0  0  0  0  0  0  0  0  0  0  0
    0.3330   17.0430   42.0420 C   0  0  0  0  0  0  0  0  0  0  0  0
    1.2540   21.2270   42.3400 C   0  0  0  0  0  0  0  0  0  0  0  0
   -0.7950   17.9170   45.3810 C   0  0  0  0  0  0  0  0  0  0  0  0
    1.0670   15.9940   41.4490 O   0  0  0  0  0  0  0  0  0  0  0  0
    2.1300   18.7350   38.1500 O   0  0  0  0  0  0  0  0  0  0  0  0
    1.6630   18.7680   40.5110 C   0  0  0  0  0  0  0  0  0  0  0  0
    0.2090   16.7970   43.5580 C   0  0  0  0  0  0  0  0  0  0  0  0
   -1.1780   16.6270   45.4260 C   0  0  0  0  0  0  0  0  0  0  0  0
    2.6430   20.8220   41.5230 C   0  0  0  0  0  0  0  0  0  0  0  0
    2.1690   20.2150   40.2470 C   0  0  0  0  0  0  0  0  0  0  0  0
    1.5100   16.8260   44.1810 F   0  0  0  0  0  0  0  0  0  0  0  0
    0.3920   20.5840   42.7860 C   0  0  0  0  0  0  0  0  0  0  0  0
   -1.8840   16.1910   46.3460 O   0  0  0  0  0  0  0  0  0  0  0  0
   -0.2250   18.2530   43.9440 C   0  0  0  0  0  0  0  0  0  0  0  0
    1.0730   18.4160   41.8660 C   0  0  0  0  0  0  0  0  0  0  0  0
    5.5630   21.4820   40.5480 O   0  0  0  0  0  0  0  0  0  0  0  0
    2.0230   17.9090   39.3760 C   0  0  0  0  0  0  0  0  0  0  0  0
    0.0624   15.0751   46.3531 H   0  0  0  0  0  0  0  0  0  0  0  0
   -0.0415   13.7691   45.1242 H   0  0  0  0  0  0  0  0  0  0  0  0
    1.3598   14.8930   45.1242 H   0  0  0  0  0  0  0  0  0  0  0  0
   -1.0219   15.1753   43.5806 H   0  0  0  0  0  0  0  0  0  0  0  0
    1.4918   19.2862   44.0680 H   0  0  0  0  0  0  0  0  0  0  0  0
    3.6836   22.5295   41.8437 H   0  0  0  0  0  0  0  0  0  0  0  0
   -0.6523   17.0737   41.5538 H   0  0  0  0  0  0  0  0  0  0  0  0
    0.7360   21.9050   41.6458 H   0  0  0  0  0  0  0  0  0  0  0  0
    1.7405   21.4598   43.2987 H   0  0  0  0  0  0  0  0  0  0  0  0
    1.4636   15.4272   42.1573 H   0  0  0  0  0  0  0  0  0  0  0  0
    2.2530   19.6846   38.4016 H   0  0  0  0  0  0  0  0  0  0  0  0
    0.7546   18.2019   40.7646 H   0  0  0  0  0  0  0  0  0  0  0  0
    3.1977   20.1595   42.2037 H   0  0  0  0  0  0  0  0  0  0  0  0
    1.3143   20.5612   39.6472 H   0  0  0  0  0  0  0  0  0  0  0  0
   -0.3834   20.4893   42.0115 H   0  0  0  0  0  0  0  0  0  0  0  0
    0.0842   21.1197   43.6961 H   0  0  0  0  0  0  0  0  0  0  0  0
   -0.9997   18.9816   43.6630 H   0  0  0  0  0  0  0  0  0  0  0  0
    1.9550   19.0117   41.5882 H   0  0  0  0  0  0  0  0  0  0  0  0
    1.2473   17.1418   39.2355 H   0  0  0  0  0  0  0  0  0  0  0  0
    2.9879   17.4201   39.5759 H   0  0  0  0  0  0  0  0  0  0  0  0
  2  1  1  0
  2 15  1  0
  3 19  1  0
  3 21  1  0
  4 16  1  0
  6  7  1  0
  7  4  1  0
  8 11  1  0
  8 14  1  0
  9 19  1  0
 10 15  1  0
 10  5  2  0
 12 24  1  0
 13 24  1  0
 13 22  1  0
 14 21  1  0
 14 18  1  0
 14  2  1  0
 15 20  2  0
 16  9  1  0
 17  6  1  0
 17 13  1  0
 17 16  1  0
 21 10  1  0
 22  8  1  0
 22  3  1  0
 23  7  2  0
  1 25  1  0
  1 26  1  0
  1 27  1  0
  2 28  1  0
  3 29  1  0
  4 30  1  0
  8 31  1  0
  9 32  1  0
  9 33  1  0
 11 34  1  0
 12 35  1  0
 13 36  1  0
 16 37  1  0
 17 38  1  0
 19 39  1  0
 19 40  1  0
 21 41  1  0
 22 42  1  0
 24 43  1  0
 24 44  1  0
M  END
>  <mol_id>  (28) 
2026-09-18-6fnk-s0-n100-refligand-seed1-0028

>  <rmsd_to_ref>  (28) 


$$$$

     RDKit          3D

 30 33  0  0  0  0  0  0  0  0999 V2000
   -0.1630   16.9220   45.3020 C   0  0  0  0  0  0  0  0  0  0  0  0
   -0.7560   19.3330   45.8090 C   0  0  0  0  0  0  0  0  0  0  0  0
    0.4440   18.3200   43.5900 C   0  0  0  0  0  0  0  0  0  0  0  0
    2.0150   18.4380   40.2300 C   0  0  0  0  0  0  0  0  0  0  0  0
    0.3850   17.0770   44.1310 C   0  0  0  0  0  0  0  0  0  0  0  0
    1.2280   19.7910   41.9990 C   0  0  0  0  0  0  0  0  0  0  0  0
   -0.6010   20.2380   44.9020 N   0  0  0  0  0  0  0  0  0  0  0  0
    0.6190   20.5410   42.9350 N   0  0  0  0  0  0  0  0  0  0  0  0
   -1.4320   17.5300   47.4030 F   0  0  0  0  0  0  0  0  0  0  0  0
    1.4130   16.2260   41.1600 C   0  0  0  0  0  0  0  0  0  0  0  0
    2.6090   15.8020   40.4410 C   0  0  0  0  0  0  0  0  0  0  0  0
    2.6640   18.3960   38.0330 O   0  0  0  0  0  0  0  0  0  0  0  0
    2.6620   16.2810   39.0340 C   0  0  0  0  0  0  0  0  0  0  0  0
    2.4720   17.7180   39.0010 C   0  0  0  0  0  0  0  0  0  0  0  0
    1.9920   20.1160   40.4920 S   0  0  0  0  0  0  0  0  0  0  0  0
    3.2370   16.0270   37.7360 O   0  0  0  0  0  0  0  0  0  0  0  0
   -0.7150   17.9990   46.0710 C   0  0  0  0  0  0  0  0  0  0  0  0
    1.4610   17.6930   41.2950 C   0  0  0  0  0  0  0  0  0  0  0  0
    0.1090   19.6700   43.9270 C   0  0  0  0  0  0  0  0  0  0  0  0
    1.0740   18.4890   42.2560 N   0  0  0  0  0  0  0  0  0  0  0  0
   -0.2048   15.9075   45.7252 H   0  0  0  0  0  0  0  0  0  0  0  0
   -1.0311   19.8449   46.7430 H   0  0  0  0  0  0  0  0  0  0  0  0
    1.4456   18.4606   44.0223 H   0  0  0  0  0  0  0  0  0  0  0  0
    0.7944   16.2124   43.5880 H   0  0  0  0  0  0  0  0  0  0  0  0
    1.3908   15.7597   42.1560 H   0  0  0  0  0  0  0  0  0  0  0  0
    0.5089   15.9212   40.6125 H   0  0  0  0  0  0  0  0  0  0  0  0
    3.4900   16.1899   40.9733 H   0  0  0  0  0  0  0  0  0  0  0  0
    2.5902   14.7027   40.4059 H   0  0  0  0  0  0  0  0  0  0  0  0
    2.1940   15.2866   38.9871 H   0  0  0  0  0  0  0  0  0  0  0  0
    4.1370   15.6294   37.8458 H   0  0  0  0  0  0  0  0  0  0  0  0
  1 17  1  0
  2 17  2  0
  3 19  1  0
  3  5  1  0
  4 15  1  0
  4 18  2  0
  5  1  2  0
  6 20  1  0
  6  8  2  0
  7  2  1  0
  8 19  1  0
 10 18  1  0
 11 10  1  0
 12 14  2  0
 13 16  1  0
 13 11  1  0
 14 13  1  0
 14  4  1  0
 15  6  1  0
 17  9  1  0
 18 20  1  0
 19  7  2  0
 20  3  1  0
  1 21  1  0
  2 22  1  0
  3 23  1  0
  5 24  1  0
 10 25  1  0
 10 26  1  0
 11 27  1  0
 11 28  1  0
 13 29  1  0
 16 30  1  0
M  END
>  <mol_id>  (29) 
2026-09-18-6fnk-s0-n100-refligand-seed1-0029

>  <rmsd_to_ref>  (29) 


$$$$

     RDKit          3D

 32 33  0  0  0  0  0  0  0  0999 V2000
    3.1230   20.4430   41.1020 C   0  0  0  0  0  0  0  0  0  0  0  0
   -0.1410   21.1010   43.4880 C   0  0  0  0  0  0  0  0  0  0  0  0
    3.1890   21.0120   39.8580 O   0  0  0  0  0  0  0  0  0  0  0  0
    0.5100   18.5860   44.0430 C   0  0  0  0  0  0  0  0  0  0  0  0
    1.3100   17.9670   42.9110 C   0  0  0  0  0  0  0  0  0  0  0  0
    2.5960   17.6330   41.0370 N   0  0  0  0  0  4  0  0  0  0  0  0
    0.1630   17.7820   45.0700 N   0  0  0  0  0  0  0  0  0  0  0  0
   -0.7390   19.8090   45.4570 N   0  0  0  0  0  0  0  0  0  0  0  0
    1.7710   18.4720   41.7650 C   0  0  0  0  0  0  0  0  0  0  0  0
    4.0280   20.4260   41.9120 O   0  0  0  0  0  1  0  0  0  0  0  0
    2.7630   15.4110   40.1160 C   0  0  0  0  0  0  0  0  0  0  0  0
    2.4180   16.3120   41.3020 C   0  0  0  0  0  0  0  0  0  0  0  0
   -0.1120   19.8770   44.2610 C   0  0  0  0  0  0  0  0  0  0  0  0
    1.7440   19.9400   41.2950 C   0  0  0  0  0  0  0  0  0  0  0  0
    1.5720   16.2750   42.8000 S   0  0  0  0  0  0  0  0  0  0  0  0
    2.8010   16.2990   38.9410 O   0  0  0  0  0  0  0  0  0  0  0  0
   -0.5150   18.5290   45.9360 C   0  0  0  0  0  0  0  0  0  0  0  0
   -0.1615   21.9645   44.1692 H   0  0  0  0  0  0  0  0  0  0  0  0
    0.7561   21.1555   42.8538 H   0  0  0  0  0  0  0  0  0  0  0  0
   -1.0397   21.1129   42.8538 H   0  0  0  0  0  0  0  0  0  0  0  0
    1.4278   18.7844   43.6376 H   0  0  0  0  0  0  0  0  0  0  0  0
    3.5739   17.8766   41.2499 H   0  0  0  0  0  0  0  0  0  0  0  0
    2.3583   17.7712   40.0444 H   0  0  0  0  0  0  0  0  0  0  0  0
    0.3819   16.7800   45.1649 H   0  0  0  0  0  0  0  0  0  0  0  0
    0.6890   18.6230   41.6363 H   0  0  0  0  0  0  0  0  0  0  0  0
    3.7424   14.9339   40.2685 H   0  0  0  0  0  0  0  0  0  0  0  0
    2.0272   14.6029   39.9915 H   0  0  0  0  0  0  0  0  0  0  0  0
    2.7907   15.3147   41.5786 H   0  0  0  0  0  0  0  0  0  0  0  0
    1.2363   20.5545   42.0531 H   0  0  0  0  0  0  0  0  0  0  0  0
    1.2041   19.9997   40.3384 H   0  0  0  0  0  0  0  0  0  0  0  0
    2.8413   17.2416   39.2409 H   0  0  0  0  0  0  0  0  0  0  0  0
   -0.8580   18.1720   46.9183 H   0  0  0  0  0  0  0  0  0  0  0  0
  1 14  1  0
  1 10  1  0
  2 13  1  0
  3  1  2  0
  4 13  2  0
  4  7  1  0
  5  4  1  0
  6 12  1  0
  6  9  1  0
  7 17  1  0
  8 17  2  0
  9 14  1  0
  9  5  1  0
 12 11  1  0
 12 15  1  0
 13  8  1  0
 15  5  1  0
 16 11  1  0
  2 18  1  0
  2 19  1  0
  2 20  1  0
  5 21  1  0
  6 22  1  0
  6 23  1  0
  7 24  1  0
  9 25  1  0
 11 26  1  0
 11 27  1  0
 12 28  1  0
 14 29  1  0
 14 30  1  0
 16 31  1  0
 17 32  1  0
M  CHG  2   6   1  10  -1
M  END
>  <mol_id>  (30) 
2026-09-18-6fnk-s0-n100-refligand-seed1-0030

>  <rmsd_to_ref>  (30) 


$$$$

     RDKit          3D

 22 22  0  0  0  0  0  0  0  0999 V2000
   -0.0190   17.1350   44.1830 C   0  0  0  0  0  0  0  0  0  0  0  0
    0.9610   18.3370   42.2630 C   0  0  0  0  0  0  0  0  0  0  0  0
   -0.7750   18.7190   45.1110 C   0  0  0  0  0  0  0  0  0  0  0  0
    1.0600   16.8720   43.6970 C   0  0  0  0  0  0  0  0  0  0  0  0
    2.7380   19.2900   42.5290 C   0  0  0  0  0  0  0  0  0  0  0  0
    0.6450   19.1240   43.2350 O   0  0  0  0  0  0  0  0  0  0  0  0
    2.4390   18.9470   40.3870 O   0  0  0  0  0  0  0  0  0  0  0  0
    0.7040   18.0340   43.8400 C   0  0  0  0  0  0  0  0  0  0  0  0
   -0.8490   17.9490   45.9880 O   0  0  0  0  0  1  0  0  0  0  0  0
    2.3310   18.4070   41.6100 C   0  0  0  0  0  0  0  0  0  0  0  0
   -1.0650   19.6330   44.6620 O   0  0  0  0  0  0  0  0  0  0  0  0
   -0.9395   16.9266   43.6180 H   0  0  0  0  0  0  0  0  0  0  0  0
   -0.5299   16.8689   45.1201 H   0  0  0  0  0  0  0  0  0  0  0  0
    0.5862   17.9839   41.2910 H   0  0  0  0  0  0  0  0  0  0  0  0
   -0.0502   18.2788   44.4104 H   0  0  0  0  0  0  0  0  0  0  0  0
    1.1199   16.4328   42.6903 H   0  0  0  0  0  0  0  0  0  0  0  0
    1.9328   16.2776   44.0049 H   0  0  0  0  0  0  0  0  0  0  0  0
    2.5513   18.8850   43.5346 H   0  0  0  0  0  0  0  0  0  0  0  0
    3.8143   19.4795   42.4040 H   0  0  0  0  0  0  0  0  0  0  0  0
    2.1830   20.2315   42.4040 H   0  0  0  0  0  0  0  0  0  0  0  0
    2.6325   19.9144   40.4693 H   0  0  0  0  0  0  0  0  0  0  0  0
    2.8218   17.4420   41.4155 H   0  0  0  0  0  0  0  0  0  0  0  0
  2 10  1  0
  2  6  1  0
  2  8  1  0
  3  9  1  0
  4  8  1  0
  4  1  1  0
  6  8  1  0
  7 10  1  0
  8  1  1  0
 10  5  1  0
 11  3  2  0
  1 12  1  0
  1 13  1  0
  2 14  1  0
  3 15  1  0
  4 16  1  0
  4 17  1  0
  5 18  1  0
  5 19  1  0
  5 20  1  0
  7 21  1  0
 10 22  1  0
M  CHG  1   9  -1
M  END
>  <mol_id>  (31) 
2026-09-18-6fnk-s0-n100-refligand-seed1-0031

>  <rmsd_to_ref>  (31) 


$$$$

     RDKit          3D

 33 35  0  0  0  0  0  0  0  0999 V2000
    1.1830   20.9790   42.0130 N   0  0  0  0  0  0  0  0  0  0  0  0
    2.7040   16.7910   41.1650 O   0  0  0  0  0  0  0  0  0  0  0  0
    3.0030   21.0970   40.3470 C   0  0  0  0  0  0  0  0  0  0  0  0
    1.7170   15.7520   43.0600 C   0  0  0  0  0  0  0  0  0  0  0  0
    1.9510   14.7710   42.0560 C   0  0  0  0  0  0  0  0  0  0  0  0
   -0.3290   20.9070   43.8440 C   0  0  0  0  0  0  0  0  0  0  0  0
    1.2810   12.4690   41.9670 N   0  0  0  0  0  0  0  0  0  0  0  0
    0.6260   20.2490   43.0410 C   0  0  0  0  0  0  0  0  0  0  0  0
    2.1630   20.3450   41.3290 C   0  0  0  0  0  0  0  0  0  0  0  0
    2.0800   13.3780   41.9370 C   0  0  0  0  0  0  0  0  0  0  0  0
    0.9610   19.0050   43.4050 C   0  0  0  0  0  0  0  0  0  0  0  0
    2.1150   16.9330   42.7000 C   0  0  0  0  0  0  0  0  0  0  0  0
    2.4620   19.0690   41.5510 N   0  0  0  0  0  0  0  0  0  0  0  0
    2.9440   12.9390   41.1190 O   0  0  0  0  0  0  0  0  0  0  0  0
   -0.2940   19.1530   45.3890 C   0  0  0  0  0  0  0  0  0  0  0  0
    1.8210   18.3740   42.4720 C   0  0  0  0  0  0  0  0  0  0  0  0
    2.2880   15.5670   40.9630 C   0  0  0  0  0  0  0  0  0  0  0  0
    0.5140   18.3820   44.5850 C   0  0  0  0  0  0  0  0  0  0  0  0
   -0.7450   20.3850   45.0500 N   0  0  0  0  0  0  0  0  0  0  0  0
    3.7165   21.7358   40.8882 H   0  0  0  0  0  0  0  0  0  0  0  0
    3.5543   20.3851   39.7152 H   0  0  0  0  0  0  0  0  0  0  0  0
    2.3562   21.7234   39.7152 H   0  0  0  0  0  0  0  0  0  0  0  0
    0.6380   15.7918   43.2703 H   0  0  0  0  0  0  0  0  0  0  0  0
    2.2913   15.4622   43.9523 H   0  0  0  0  0  0  0  0  0  0  0  0
    1.4294   13.9440   42.5600 H   0  0  0  0  0  0  0  0  0  0  0  0
   -0.7528   21.8616   43.4988 H   0  0  0  0  0  0  0  0  0  0  0  0
    1.6025   11.4968   41.8557 H   0  0  0  0  0  0  0  0  0  0  0  0
    0.2797   12.6678   42.1038 H   0  0  0  0  0  0  0  0  0  0  0  0
    2.3129   16.9709   43.7814 H   0  0  0  0  0  0  0  0  0  0  0  0
   -0.5918   18.7445   46.3660 H   0  0  0  0  0  0  0  0  0  0  0  0
    1.3932   15.6334   40.3266 H   0  0  0  0  0  0  0  0  0  0  0  0
    3.1658   15.0615   40.5341 H   0  0  0  0  0  0  0  0  0  0  0  0
    0.7913   17.3502   44.8466 H   0  0  0  0  0  0  0  0  0  0  0  0
  1  8  2  0
  2 12  1  0
  3  9  1  0
  5 10  1  0
  5  4  1  0
  6 19  2  0
  8 11  1  0
  8  6  1  0
  9 13  2  0
  9  1  1  0
 10  7  1  0
 11 18  1  0
 12 16  1  0
 12  4  1  0
 13 16  1  0
 14 10  2  0
 16 11  2  0
 17  2  1  0
 17  5  1  0
 18 15  2  0
 19 15  1  0
  3 20  1  0
  3 21  1  0
  3 22  1  0
  4 23  1  0
  4 24  1  0
  5 25  1  0
  6 26  1  0
  7 27  1  0
  7 28  1  0
 12 29  1  0
 15 30  1  0
 17 31  1  0
 17 32  1  0
 18 33  1  0
M  END
>  <mol_id>  (32) 
2026-09-18-6fnk-s0-n100-refligand-seed1-0032

>  <rmsd_to_ref>  (32) 


$$$$

     RDKit          3D

 31 32  0  0  0  0  0  0  0  0999 V2000
    1.9620   18.5900   40.3890 C   0  0  0  0  0  0  0  0  0  0  0  0
    3.4500   20.6820   40.7360 C   0  0  0  0  0  0  0  0  0  0  0  0
    0.1250   18.7480   43.9790 C   0  0  0  0  0  0  0  0  0  0  0  0
   -0.0010   14.6160   43.4150 C   0  0  0  0  0  0  0  0  0  0  0  0
   -0.4540   19.7260   44.8760 C   0  0  0  0  0  0  0  0  0  0  0  0
    1.9950   20.1270   40.8040 C   0  0  0  0  0  0  0  0  0  0  0  0
   -0.0660   17.3750   44.0480 C   0  0  0  0  0  0  0  0  0  0  0  0
    2.4170   17.7420   41.5450 C   0  0  0  0  0  0  0  0  0  0  0  0
   -0.5680   20.9240   44.5120 O   0  0  0  0  0  0  0  0  0  0  0  0
   -0.9200   16.4870   44.7610 C   0  0  0  0  0  0  0  0  0  0  0  0
    1.3370   17.9000   42.5220 N   0  0  0  0  0  0  0  0  0  0  0  0
    0.7420   15.5220   42.6950 C   0  0  0  0  0  0  0  0  0  0  0  0
    0.8940   19.0380   43.0170 N   0  0  0  0  0  0  0  0  0  0  0  0
   -0.8600   19.3400   46.0570 N   0  0  0  0  0  0  0  0  0  0  0  0
   -0.8330   15.0760   44.4180 C   0  0  0  0  0  0  0  0  0  0  0  0
    0.6760   16.8830   43.0760 C   0  0  0  0  0  0  0  0  0  0  0  0
    0.9357   18.3085   40.1109 H   0  0  0  0  0  0  0  0  0  0  0  0
    2.6342   18.4296   39.5332 H   0  0  0  0  0  0  0  0  0  0  0  0
    3.8345   20.8287   41.7561 H   0  0  0  0  0  0  0  0  0  0  0  0
    4.0912   19.9653   40.2020 H   0  0  0  0  0  0  0  0  0  0  0  0
    3.4510   21.6437   40.2020 H   0  0  0  0  0  0  0  0  0  0  0  0
    0.0660   13.5402   43.1956 H   0  0  0  0  0  0  0  0  0  0  0  0
    1.3565   20.7010   40.1163 H   0  0  0  0  0  0  0  0  0  0  0  0
    1.6261   20.2240   41.8358 H   0  0  0  0  0  0  0  0  0  0  0  0
    2.5253   16.6897   41.2436 H   0  0  0  0  0  0  0  0  0  0  0  0
    3.4005   18.0398   41.9375 H   0  0  0  0  0  0  0  0  0  0  0  0
   -1.6127   16.8504   45.5344 H   0  0  0  0  0  0  0  0  0  0  0  0
    1.3676   15.1989   41.8499 H   0  0  0  0  0  0  0  0  0  0  0  0
   -1.2743   20.0226   46.7077 H   0  0  0  0  0  0  0  0  0  0  0  0
   -0.7656   18.3533   46.3369 H   0  0  0  0  0  0  0  0  0  0  0  0
   -1.4482   14.3532   44.9739 H   0  0  0  0  0  0  0  0  0  0  0  0
  1  6  1  0
  1  8  1  0
  2  6  1  0
  3  7  1  0
  3  5  1  0
  4 15  2  0
  5 14  1  0
  7 10  2  0
  8 11  1  0
  9  5  2  0
 11 13  1  0
 11 16  1  0
 12 16  2  0
 12  4  1  0
 13  3  2  0
 15 10  1  0
 16  7  1  0
  1 17  1  0
  1 18  1  0
  2 19  1  0
  2 20  1  0
  2 21  1  0
  4 22  1  0
  6 23  1  0
  6 24  1  0
  8 25  1  0
  8 26  1  0
 10 27  1  0
 12 28  1  0
 14 29  1  0
 14 30  1  0
 15 31  1  0
M  END
>  <mol_id>  (33) 
2026-09-18-6fnk-s0-n100-refligand-seed1-0033

>  <rmsd_to_ref>  (33) 


$$$$

     RDKit          3D

 62 66  0  0  0  0  0  0  0  0999 V2000
   -0.2960   16.0190   44.9760 C   0  0  0  0  0  0  0  0  0  0  0  0
    0.5780   18.8090   42.7800 C   0  0  0  0  0  0  0  0  0  0  0  0
    0.0700   19.4270   43.8530 C   0  0  0  0  0  0  0  0  0  0  0  0
    0.2650   21.9230   43.0250 C   0  0  0  0  0  0  0  0  0  0  0  0
    4.1210   21.1700   38.0070 O   0  0  0  0  0  0  0  0  0  0  0  0
    0.5970   13.6910   42.6530 O   0  0  0  0  0  0  0  0  0  0  0  0
   -0.2550   18.5790   44.8960 C   0  0  0  0  0  0  0  0  0  0  0  0
    1.3890   19.7870   41.8370 C   0  0  0  0  0  0  0  0  0  0  0  0
    2.5150   20.6960   42.6390 C   0  0  0  0  0  0  0  0  0  0  0  0
   -1.2650   17.5630   46.9260 C   0  0  0  0  0  0  0  0  0  0  0  0
    1.2480   21.1570   42.1450 C   0  0  0  0  0  0  0  0  0  0  0  0
    2.9570   20.5520   38.5480 C   0  0  0  0  0  0  0  0  0  0  0  0
    0.9540   16.2040   42.2400 C   0  0  0  0  0  0  0  0  0  0  0  0
   -0.7900   18.8560   46.2420 C   0  0  0  0  0  0  0  0  0  0  0  0
    1.4610   17.0040   39.8390 C   0  0  0  0  0  0  0  0  0  0  0  0
    0.4940   14.8940   43.0470 C   0  0  0  0  0  0  0  0  0  0  0  0
    2.7170   13.6420   42.3460 C   0  0  0  0  0  0  0  0  0  0  0  0
    1.7510   18.7510   39.4830 C   0  0  0  0  0  0  0  0  0  0  0  0
    0.6160   17.3970   43.0670 C   0  0  0  0  0  0  0  0  0  0  0  0
   -0.0170   15.0320   44.2190 C   0  0  0  0  0  0  0  0  0  0  0  0
   -0.5030   21.4300   45.0400 O   0  0  0  0  0  0  0  0  0  0  0  0
    2.8860   15.4680   40.4910 O   0  0  0  0  0  0  0  0  0  0  0  0
    2.7200   19.0230   38.4610 C   0  0  0  0  0  0  0  0  0  0  0  0
    1.6460   19.4220   40.4640 C   0  0  0  0  0  0  0  0  0  0  0  0
    1.2860   16.8360   41.0370 N   0  0  0  0  0  4  0  0  0  0  0  0
    0.0030   17.3600   44.3240 C   0  0  0  0  0  0  0  0  0  0  0  0
    3.2870   20.9230   40.1450 C   0  0  0  0  0  0  0  0  0  0  0  0
    3.0670   19.4570   40.8010 O   0  0  0  0  0  0  0  0  0  0  0  0
    2.2930   14.8890   41.5080 C   0  0  0  0  0  0  0  0  0  0  0  0
   -0.1590   20.9720   43.9380 C   0  0  0  0  0  0  0  0  0  0  0  0
   -0.7081   15.9123   45.9903 H   0  0  0  0  0  0  0  0  0  0  0  0
    1.0841   19.5550   44.2594 H   0  0  0  0  0  0  0  0  0  0  0  0
   -0.5799   22.3033   42.4321 H   0  0  0  0  0  0  0  0  0  0  0  0
    0.7151   22.8056   43.5029 H   0  0  0  0  0  0  0  0  0  0  0  0
    4.7037   21.4794   38.7451 H   0  0  0  0  0  0  0  0  0  0  0  0
    2.6878   20.5618   43.7170 H   0  0  0  0  0  0  0  0  0  0  0  0
    3.5766   20.9606   42.5248 H   0  0  0  0  0  0  0  0  0  0  0  0
   -1.2192   17.6877   48.0179 H   0  0  0  0  0  0  0  0  0  0  0  0
   -2.3008   17.3480   46.6246 H   0  0  0  0  0  0  0  0  0  0  0  0
   -0.6147   16.7286   46.6246 H   0  0  0  0  0  0  0  0  0  0  0  0
    0.9130   21.9398   41.4486 H   0  0  0  0  0  0  0  0  0  0  0  0
    2.0620   20.8959   38.0088 H   0  0  0  0  0  0  0  0  0  0  0  0
    1.5030   15.3355   41.8472 H   0  0  0  0  0  0  0  0  0  0  0  0
   -0.0011   19.3173   46.8542 H   0  0  0  0  0  0  0  0  0  0  0  0
   -1.6497   19.5351   46.1433 H   0  0  0  0  0  0  0  0  0  0  0  0
    2.3339   16.4184   39.5147 H   0  0  0  0  0  0  0  0  0  0  0  0
    0.5619   16.6743   39.2977 H   0  0  0  0  0  0  0  0  0  0  0  0
    2.6374   13.8762   43.4178 H   0  0  0  0  0  0  0  0  0  0  0  0
    2.0559   12.7964   42.1053 H   0  0  0  0  0  0  0  0  0  0  0  0
    3.7565   13.3747   42.1053 H   0  0  0  0  0  0  0  0  0  0  0  0
    0.9242   19.1676   38.8890 H   0  0  0  0  0  0  0  0  0  0  0  0
   -0.2754   14.0666   44.6786 H   0  0  0  0  0  0  0  0  0  0  0  0
    3.5529   16.1191   40.8248 H   0  0  0  0  0  0  0  0  0  0  0  0
    3.6531   18.4733   38.6538 H   0  0  0  0  0  0  0  0  0  0  0  0
    2.3761   18.7091   37.4644 H   0  0  0  0  0  0  0  0  0  0  0  0
    0.6701   19.7377   40.0666 H   0  0  0  0  0  0  0  0  0  0  0  0
    0.6528   17.6386   41.1631 H   0  0  0  0  0  0  0  0  0  0  0  0
    2.1473   16.2712   41.0343 H   0  0  0  0  0  0  0  0  0  0  0  0
    4.3174   21.2839   40.2795 H   0  0  0  0  0  0  0  0  0  0  0  0
    2.6769   21.7296   40.5776 H   0  0  0  0  0  0  0  0  0  0  0  0
    2.1967   15.6919   42.2537 H   0  0  0  0  0  0  0  0  0  0  0  0
    1.4777   14.4116   40.9446 H   0  0  0  0  0  0  0  0  0  0  0  0
  2 19  2  0
  3  2  1  0
  3 30  1  0
  3  7  1  0
  4 30  1  0
  6 16  2  0
  7 14  1  0
  8 11  1  0
  8  9  1  0
  8  2  1  0
 11  9  1  0
 11  4  1  0
 12  5  1  0
 12 27  1  0
 13 25  1  0
 13 16  1  0
 13 19  1  0
 14 10  1  0
 15 25  1  0
 16 20  1  0
 18 23  1  0
 18 15  1  0
 18 24  1  0
 19 26  1  0
 20  1  2  0
 22 29  1  0
 23 12  1  0
 24 28  1  0
 24  8  1  0
 26  7  2  0
 26  1  1  0
 27 28  1  0
 29 17  1  0
 30 21  2  0
  1 31  1  0
  3 32  1  0
  4 33  1  0
  4 34  1  0
  5 35  1  0
  9 36  1  0
  9 37  1  0
 10 38  1  0
 10 39  1  0
 10 40  1  0
 11 41  1  0
 12 42  1  0
 13 43  1  0
 14 44  1  0
 14 45  1  0
 15 46  1  0
 15 47  1  0
 17 48  1  0
 17 49  1  0
 17 50  1  0
 18 51  1  0
 20 52  1  0
 22 53  1  0
 23 54  1  0
 23 55  1  0
 24 56  1  0
 25 57  1  0
 25 58  1  0
 27 59  1  0
 27 60  1  0
 29 61  1  0
 29 62  1  0
M  CHG  1  25   1
M  END
>  <mol_id>  (34) 
2026-09-18-6fnk-s0-n100-refligand-seed1-0034

>  <rmsd_to_ref>  (34) 


$$$$

     RDKit          3D

 32 33  0  0  0  0  0  0  0  0999 V2000
   -0.0160   16.2680   44.7110 O   0  0  0  0  0  0  0  0  0  0  0  0
    0.5950   20.7810   42.5630 C   0  0  0  0  0  0  0  0  0  0  0  0
    1.3610   19.7520   42.1620 C   0  0  0  0  0  0  0  0  0  0  0  0
   -0.4240   19.2200   45.5350 C   0  0  0  0  0  0  0  0  0  0  0  0
    1.3480   17.5670   41.3220 C   0  0  0  0  0  0  0  0  0  0  0  0
   -0.1280   19.2060   44.2620 C   0  0  0  0  0  0  0  0  0  0  0  0
    2.1160   17.9200   40.4630 O   0  0  0  0  0  0  0  0  0  0  0  0
    0.3580   18.1340   43.4820 C   0  0  0  0  0  0  0  0  0  0  0  0
    0.3770   15.8580   42.4830 C   0  0  0  0  0  0  0  0  0  0  0  0
    2.7800   19.8560   42.1720 C   0  0  0  0  0  0  0  0  0  0  0  0
    0.8920   16.3410   41.2940 C   0  0  0  0  0  0  0  0  0  0  0  0
    0.4800   16.7790   43.5200 C   0  0  0  0  0  0  0  0  0  0  0  0
    0.9010   18.4990   42.3810 C   0  0  0  0  0  0  0  0  0  0  0  0
   -0.1940   20.5350   43.8100 C   0  0  0  0  0  0  0  0  0  0  0  0
    0.4240   16.7213   45.4732 H   0  0  0  0  0  0  0  0  0  0  0  0
   -0.1115   21.0160   41.7533 H   0  0  0  0  0  0  0  0  0  0  0  0
    1.2853   21.6056   42.7943 H   0  0  0  0  0  0  0  0  0  0  0  0
    1.1624   19.9515   41.0986 H   0  0  0  0  0  0  0  0  0  0  0  0
   -0.7959   20.1434   46.0031 H   0  0  0  0  0  0  0  0  0  0  0  0
   -0.3012   18.3084   46.1383 H   0  0  0  0  0  0  0  0  0  0  0  0
   -0.6291   18.0318   43.0074 H   0  0  0  0  0  0  0  0  0  0  0  0
    0.9285   14.9483   42.7628 H   0  0  0  0  0  0  0  0  0  0  0  0
   -0.6915   15.6500   42.3250 H   0  0  0  0  0  0  0  0  0  0  0  0
    3.1384   19.8823   43.2116 H   0  0  0  0  0  0  0  0  0  0  0  0
    3.2150   18.9873   41.6560 H   0  0  0  0  0  0  0  0  0  0  0  0
    3.0837   20.7788   41.6560 H   0  0  0  0  0  0  0  0  0  0  0  0
    0.0936   16.2962   40.5387 H   0  0  0  0  0  0  0  0  0  0  0  0
    1.7617   15.7064   41.0683 H   0  0  0  0  0  0  0  0  0  0  0  0
    1.5634   16.8515   43.3439 H   0  0  0  0  0  0  0  0  0  0  0  0
   -0.1938   18.4410   42.4706 H   0  0  0  0  0  0  0  0  0  0  0  0
    0.1936   21.1920   44.6026 H   0  0  0  0  0  0  0  0  0  0  0  0
   -1.2476   20.7442   43.5729 H   0  0  0  0  0  0  0  0  0  0  0  0
  2 14  1  0
  3 10  1  0
  3 13  1  0
  3  2  1  0
  6  4  2  3
  7  5  2  0
  8 12  1  0
  8  6  1  0
  9 12  1  0
 11  5  1  0
 11  9  1  0
 12  1  1  0
 13  5  1  0
 13  8  1  0
 14  6  1  0
  1 15  1  0
  2 16  1  0
  2 17  1  0
  3 18  1  0
  4 19  1  0
  4 20  1  0
  8 21  1  0
  9 22  1  0
  9 23  1  0
 10 24  1  0
 10 25  1  0
 10 26  1  0
 11 27  1  0
 11 28  1  0
 12 29  1  0
 13 30  1  0
 14 31  1  0
 14 32  1  0
M  END
>  <mol_id>  (35) 
2026-09-18-6fnk-s0-n100-refligand-seed1-0035

>  <rmsd_to_ref>  (35) 


$$$$

     RDKit          3D

 19 20  0  0  0  0  0  0  0  0999 V2000
   -0.5840   20.4470   44.3940 O   0  0  0  0  0  0  0  0  0  0  0  0
    2.5950   17.6350   42.0040 C   0  0  0  0  0  0  0  0  0  0  0  0
    1.4000   21.0190   41.6610 C   0  0  0  0  0  0  0  0  0  0  0  0
    1.7060   17.1800   42.9270 N   0  0  0  0  0  0  0  0  0  0  0  0
    0.1450   20.3610   43.4760 C   0  0  0  0  0  0  0  0  0  0  0  0
    0.8810   19.3470   42.9750 C   0  0  0  0  0  0  0  0  0  0  0  0
    0.0900   18.0120   44.5050 O   0  0  0  0  0  0  0  0  0  0  0  0
    0.9130   18.0640   43.3640 C   0  0  0  0  0  0  0  0  0  0  0  0
   -1.1790   17.4880   44.5270 C   0  0  0  0  0  0  0  0  0  0  0  0
    0.4460   21.3970   42.6010 N   0  0  0  0  0  0  0  0  0  0  0  0
    2.5000   18.8060   41.4770 N   0  0  0  0  0  0  0  0  0  0  0  0
    1.6750   19.7220   41.9220 C   0  0  0  0  0  0  0  0  0  0  0  0
    3.4238   16.9801   41.6970 H   0  0  0  0  0  0  0  0  0  0  0  0
    1.8387   21.6454   40.8704 H   0  0  0  0  0  0  0  0  0  0  0  0
    0.0639   19.1147   42.2762 H   0  0  0  0  0  0  0  0  0  0  0  0
   -1.5025   17.3544   45.5698 H   0  0  0  0  0  0  0  0  0  0  0  0
   -1.8683   18.1751   44.0144 H   0  0  0  0  0  0  0  0  0  0  0  0
   -1.1828   16.5147   44.0144 H   0  0  0  0  0  0  0  0  0  0  0  0
    0.0153   22.3317   42.6429 H   0  0  0  0  0  0  0  0  0  0  0  0
  2  4  1  0
  3 12  2  0
  3 10  1  0
  4  8  2  0
  5  1  2  0
  6 12  1  0
  6  8  1  0
  6  5  1  0
  7  9  1  0
  8  7  1  0
 10  5  1  0
 11 12  1  0
 11  2  2  0
  2 13  1  0
  3 14  1  0
  6 15  1  0
  9 16  1  0
  9 17  1  0
  9 18  1  0
 10 19  1  0
M  END
>  <mol_id>  (36) 
2026-09-18-6fnk-s0-n100-refligand-seed1-0036

>  <rmsd_to_ref>  (36) 


$$$$

     RDKit          3D

 41 43  0  0  0  0  0  0  0  0999 V2000
    1.5920   21.1400   41.1600 F   0  0  0  0  0  0  0  0  0  0  0  0
    2.4410   13.3860   41.3430 C   0  0  0  0  0  0  0  0  0  0  0  0
    0.6820   17.7970   42.8350 C   0  0  0  0  0  0  0  0  0  0  0  0
    0.1720   18.7630   43.6650 N   0  0  0  0  0  0  0  0  0  0  0  0
    2.4910   20.1490   41.0070 C   0  0  0  0  0  0  0  0  0  0  0  0
    0.1780   16.5670   43.0260 C   0  0  0  0  0  0  0  0  0  0  0  0
   -1.1420   16.1960   45.2400 C   0  0  0  0  0  0  0  0  0  0  0  0
    1.5800   18.1030   41.9190 N   0  0  0  0  0  4  0  0  0  0  0  0
   -0.3240   19.8260   45.4180 C   0  0  0  0  0  0  0  0  0  0  0  0
   -0.5940   15.8830   43.9820 N   0  0  0  0  0  0  0  0  0  0  0  0
    1.9160   15.7320   41.7560 N   0  0  0  0  0  0  0  0  0  0  0  0
    2.5850   19.2020   42.1750 C   0  0  0  0  0  0  0  0  0  0  0  0
    2.6390   14.2830   40.0850 C   0  0  0  0  0  0  0  0  0  0  0  0
    3.6620   20.7300   41.0380 F   0  0  0  0  0  0  0  0  0  0  0  0
   -0.2720   14.4760   42.2790 N   0  0  0  0  0  0  0  0  0  0  0  0
   -0.4630   20.7440   44.4580 N   0  0  0  0  0  0  0  0  0  0  0  0
    2.3840   14.4450   42.4430 C   0  0  0  0  0  0  0  0  0  0  0  0
   -0.1050   20.0350   43.3500 N   0  0  0  0  0  0  0  0  0  0  0  0
    0.4980   15.6680   41.8520 C   0  0  0  0  0  0  0  0  0  0  0  0
   -0.8680   14.6520   43.4020 C   0  0  0  0  0  0  0  0  0  0  0  0
    0.0590   18.6080   44.9090 N   0  0  0  0  0  0  0  0  0  0  0  0
    2.4980   15.7350   40.4810 C   0  0  0  0  0  0  0  0  0  0  0  0
    3.2870   12.6979   41.4869 H   0  0  0  0  0  0  0  0  0  0  0  0
    1.5613   12.7271   41.2989 H   0  0  0  0  0  0  0  0  0  0  0  0
    2.2020   19.6000   40.0987 H   0  0  0  0  0  0  0  0  0  0  0  0
   -0.4798   15.8178   46.0328 H   0  0  0  0  0  0  0  0  0  0  0  0
   -1.2418   17.2873   45.3352 H   0  0  0  0  0  0  0  0  0  0  0  0
   -2.1327   15.7275   45.3352 H   0  0  0  0  0  0  0  0  0  0  0  0
    1.0593   18.3694   41.0712 H   0  0  0  0  0  0  0  0  0  0  0  0
    2.1653   17.2567   41.8731 H   0  0  0  0  0  0  0  0  0  0  0  0
   -0.4953   20.0211   46.4869 H   0  0  0  0  0  0  0  0  0  0  0  0
    3.5991   18.7813   42.2423 H   0  0  0  0  0  0  0  0  0  0  0  0
    2.3762   19.7186   43.1234 H   0  0  0  0  0  0  0  0  0  0  0  0
    1.8784   14.0320   39.3311 H   0  0  0  0  0  0  0  0  0  0  0  0
    3.6403   14.1111   39.6632 H   0  0  0  0  0  0  0  0  0  0  0  0
    1.6709   14.1469   43.2257 H   0  0  0  0  0  0  0  0  0  0  0  0
    3.3614   14.5772   42.9301 H   0  0  0  0  0  0  0  0  0  0  0  0
    0.2183   15.8419   40.8025 H   0  0  0  0  0  0  0  0  0  0  0  0
   -1.5300   13.9020   43.8593 H   0  0  0  0  0  0  0  0  0  0  0  0
    3.4846   16.2204   40.5122 H   0  0  0  0  0  0  0  0  0  0  0  0
    1.8836   16.2922   39.7585 H   0  0  0  0  0  0  0  0  0  0  0  0
  2 17  1  0
  3  6  2  3
  3  4  1  0
  4 21  1  0
  5 14  1  0
  5  1  1  0
  5 12  1  0
  6 10  1  0
  8 12  1  0
  8  3  1  0
 10  7  1  0
 11 17  1  0
 13 22  1  0
 13  2  1  0
 15 20  2  0
 16  9  1  0
 18  4  1  0
 18 16  2  0
 19 11  1  0
 19 15  1  0
 19  6  1  0
 20 10  1  0
 21  9  2  0
 22 11  1  0
  2 23  1  0
  2 24  1  0
  5 25  1  0
  7 26  1  0
  7 27  1  0
  7 28  1  0
  8 29  1  0
  8 30  1  0
  9 31  1  0
 12 32  1  0
 12 33  1  0
 13 34  1  0
 13 35  1  0
 17 36  1  0
 17 37  1  0
 19 38  1  0
 20 39  1  0
 22 40  1  0
 22 41  1  0
M  CHG  1   8   1
M  END
>  <mol_id>  (37) 
2026-09-18-6fnk-s0-n100-refligand-seed1-0037

>  <rmsd_to_ref>  (37) 


$$$$

     RDKit          3D

 41 43  0  0  0  0  0  0  0  0999 V2000
    0.6960   17.8680   44.1700 C   0  0  0  0  0  0  0  0  0  0  0  0
    0.2270   15.5250   43.4910 C   0  0  0  0  0  0  0  0  0  0  0  0
    1.8050   18.3180   42.1000 N   0  0  0  0  0  0  0  0  0  0  0  0
   -0.3320   18.1810   45.3590 C   0  0  0  0  0  0  0  0  0  0  0  0
    1.8910   17.5210   41.0330 C   0  0  0  0  0  0  0  0  0  0  0  0
    3.1630   16.2530   39.4510 N   0  0  0  0  0  0  0  0  0  0  0  0
   -0.4410   20.5580   44.0770 N   0  0  0  0  0  4  0  0  0  0  0  0
   -0.2900   19.9620   45.2310 C   0  0  0  0  0  0  0  0  0  0  0  0
   -1.0280   14.0730   44.8570 O   0  0  0  0  0  0  0  0  0  0  0  0
    0.9020   17.0040   40.3830 O   0  0  0  0  0  0  0  0  0  0  0  0
    0.9710   18.8430   43.0570 C   0  0  0  0  0  0  0  0  0  0  0  0
    1.1340   20.9430   42.2200 N   0  0  0  0  0  4  0  0  0  0  0  0
    0.9810   16.4880   43.7910 O   0  0  0  0  0  0  0  0  0  0  0  0
    2.0020   15.3260   39.3530 C   0  0  0  0  0  0  0  0  0  0  0  0
    3.0870   16.8390   40.8730 C   0  0  0  0  0  0  0  0  0  0  0  0
    0.2910   14.6900   44.6280 C   0  0  0  0  0  0  0  0  0  0  0  0
    3.4410   14.8390   39.3420 C   0  0  0  0  0  0  0  0  0  0  0  0
    0.4680   20.2620   43.1520 C   0  0  0  0  0  0  0  0  0  0  0  0
   -1.2830   19.2340   45.7610 C   0  0  0  0  0  0  0  0  0  0  0  0
    1.4539   18.1632   44.9106 H   0  0  0  0  0  0  0  0  0  0  0  0
   -0.8021   15.8714   43.3149 H   0  0  0  0  0  0  0  0  0  0  0  0
    0.5322   15.0137   42.5661 H   0  0  0  0  0  0  0  0  0  0  0  0
    2.7481   18.6916   42.2787 H   0  0  0  0  0  0  0  0  0  0  0  0
   -0.3457   17.1451   45.7287 H   0  0  0  0  0  0  0  0  0  0  0  0
   -1.3663   20.2992   43.7058 H   0  0  0  0  0  0  0  0  0  0  0  0
   -0.3332   21.5650   44.2647 H   0  0  0  0  0  0  0  0  0  0  0  0
    0.3742   20.7808   45.5447 H   0  0  0  0  0  0  0  0  0  0  0  0
   -1.1919   13.9963   45.8303 H   0  0  0  0  0  0  0  0  0  0  0  0
    1.7804   21.6040   42.6740 H   0  0  0  0  0  0  0  0  0  0  0  0
    1.6694   20.2877   41.6328 H   0  0  0  0  0  0  0  0  0  0  0  0
    0.4669   21.4637   41.6328 H   0  0  0  0  0  0  0  0  0  0  0  0
    1.3591   15.1442   40.2268 H   0  0  0  0  0  0  0  0  0  0  0  0
    1.1246   15.2210   38.6979 H   0  0  0  0  0  0  0  0  0  0  0  0
    3.1440   16.0230   41.6085 H   0  0  0  0  0  0  0  0  0  0  0  0
    3.9262   17.5334   41.0266 H   0  0  0  0  0  0  0  0  0  0  0  0
    1.0410   13.9024   44.4632 H   0  0  0  0  0  0  0  0  0  0  0  0
    0.5750   15.2872   45.5070 H   0  0  0  0  0  0  0  0  0  0  0  0
    3.8417   14.2897   40.2067 H   0  0  0  0  0  0  0  0  0  0  0  0
    4.0448   14.2163   38.6655 H   0  0  0  0  0  0  0  0  0  0  0  0
   -2.2459   19.2556   45.2296 H   0  0  0  0  0  0  0  0  0  0  0  0
   -1.7256   19.3653   46.7594 H   0  0  0  0  0  0  0  0  0  0  0  0
  1 13  1  0
  1  4  1  0
  2 13  1  0
  2 16  1  0
  3 11  1  0
  4 19  1  0
  5  3  1  0
  6 15  1  0
  7  8  1  0
  8  4  1  0
  8 19  1  0
 10  5  2  0
 11 18  2  0
 11  1  1  0
 12 18  1  0
 14  6  1  0
 15  5  1  0
 16  9  1  0
 17 14  1  0
 17  6  1  0
 18  7  1  0
  1 20  1  0
  2 21  1  0
  2 22  1  0
  3 23  1  0
  4 24  1  0
  7 25  1  0
  7 26  1  0
  8 27  1  0
  9 28  1  0
 12 29  1  0
 12 30  1  0
 12 31  1  0
 14 32  1  0
 14 33  1  0
 15 34  1  0
 15 35  1  0
 16 36  1  0
 16 37  1  0
 17 38  1  0
 17 39  1  0
 19 40  1  0
 19 41  1  0
M  CHG  2   7   1  12   1
M  END
>  <mol_id>  (38) 
2026-09-18-6fnk-s0-n100-refligand-seed1-0038

>  <rmsd_to_ref>  (38) 


$$$$

     RDKit          3D

 62 65  0  0  0  0  0  0  0  0999 V2000
    0.7060   19.4770   43.2040 C   0  0  0  0  0  0  0  0  0  0  0  0
   -1.8530   16.6470   48.1800 C   0  0  0  0  0  0  0  0  0  0  0  0
    1.5720   19.9880   40.8050 C   0  0  0  0  0  0  0  0  0  0  0  0
   -0.4850   13.8580   46.2290 O   0  0  0  0  0  0  0  0  0  0  0  0
    0.3840   16.0630   44.6790 C   0  0  0  0  0  0  0  0  0  0  0  0
    1.6390   21.2380   38.4270 O   0  0  0  0  0  0  0  0  0  0  0  0
   -0.3890   18.6480   45.1380 C   0  0  0  0  0  0  0  0  0  0  0  0
    3.8290   20.7770   38.1420 O   0  0  0  0  0  0  0  0  0  0  0  0
    2.8530   18.9630   42.5760 C   0  0  0  0  0  0  0  0  0  0  0  0
    2.6500   16.3990   38.2880 O   0  0  0  0  0  0  0  0  0  0  0  0
   -1.7030   15.2000   47.7280 C   0  0  0  0  0  0  0  0  0  0  0  0
    4.2940   14.6250   38.4530 C   0  0  0  0  0  0  0  0  0  0  0  0
    0.2160   20.7630   43.4390 C   0  0  0  0  0  0  0  0  0  0  0  0
   -0.8790   15.0440   46.5730 C   0  0  0  0  0  0  0  0  0  0  0  0
   -0.7600   19.9560   45.3900 N   0  0  0  0  0  0  0  0  0  0  0  0
    0.7330   17.1280   43.9370 C   0  0  0  0  0  0  0  0  0  0  0  0
    1.5390   19.3380   42.1800 C   0  0  0  0  0  0  0  0  0  0  0  0
    1.8640   16.9250   40.5310 C   0  0  0  0  0  0  0  0  0  0  0  0
    2.5210   20.3610   38.6500 C   0  0  0  0  0  0  0  0  0  0  0  0
    2.1890   18.9860   38.7510 C   0  0  0  0  0  0  0  0  0  0  0  0
    2.3930   15.9800   39.5620 C   0  0  0  0  0  0  0  0  0  0  0  0
    2.8360   18.1430   41.1900 C   0  0  0  0  0  0  0  0  0  0  0  0
    2.6100   19.3100   40.0400 C   0  0  0  0  0  0  0  0  0  0  0  0
   -0.4270   16.3060   45.7960 C   0  0  0  0  0  0  0  0  0  0  0  0
    3.2380   15.2230   37.6160 C   0  0  0  0  0  0  0  0  0  0  0  0
   -0.7610   17.5260   46.0150 C   0  0  0  0  0  0  0  0  0  0  0  0
    0.3710   18.3970   44.0770 C   0  0  0  0  0  0  0  0  0  0  0  0
    3.7880   15.6960   36.3390 C   0  0  0  0  0  0  0  0  0  0  0  0
   -0.5050   20.9530   44.5600 C   0  0  0  0  0  0  0  0  0  0  0  0
   -1.8574   16.6892   49.2792 H   0  0  0  0  0  0  0  0  0  0  0  0
   -1.0116   17.2409   47.7936 H   0  0  0  0  0  0  0  0  0  0  0  0
   -2.7983   17.0557   47.7936 H   0  0  0  0  0  0  0  0  0  0  0  0
    0.5979   19.8702   40.3077 H   0  0  0  0  0  0  0  0  0  0  0  0
    1.7817   21.0649   40.8840 H   0  0  0  0  0  0  0  0  0  0  0  0
   -0.3066   13.3210   47.0413 H   0  0  0  0  0  0  0  0  0  0  0  0
    0.7194   15.0475   44.4215 H   0  0  0  0  0  0  0  0  0  0  0  0
    1.2919   21.5832   39.2875 H   0  0  0  0  0  0  0  0  0  0  0  0
    4.4327   20.9690   38.9028 H   0  0  0  0  0  0  0  0  0  0  0  0
    3.5835   19.7835   42.6327 H   0  0  0  0  0  0  0  0  0  0  0  0
    3.0951   18.5145   43.5508 H   0  0  0  0  0  0  0  0  0  0  0  0
   -1.2591   14.6226   48.5523 H   0  0  0  0  0  0  0  0  0  0  0  0
   -2.7071   14.8408   47.4584 H   0  0  0  0  0  0  0  0  0  0  0  0
    4.0443   14.7664   39.5149 H   0  0  0  0  0  0  0  0  0  0  0  0
    4.3703   13.5497   38.2343 H   0  0  0  0  0  0  0  0  0  0  0  0
    5.2554   15.1127   38.2343 H   0  0  0  0  0  0  0  0  0  0  0  0
    0.4110   21.5872   42.7371 H   0  0  0  0  0  0  0  0  0  0  0  0
   -1.7768   14.9269   45.9483 H   0  0  0  0  0  0  0  0  0  0  0  0
    1.4126   16.9188   43.0977 H   0  0  0  0  0  0  0  0  0  0  0  0
    0.7461   18.6682   41.8157 H   0  0  0  0  0  0  0  0  0  0  0  0
    1.0183   17.4313   40.0427 H   0  0  0  0  0  0  0  0  0  0  0  0
    1.6591   16.2851   41.4019 H   0  0  0  0  0  0  0  0  0  0  0  0
    1.1293   18.7189   38.6255 H   0  0  0  0  0  0  0  0  0  0  0  0
    2.5550   18.1644   38.1178 H   0  0  0  0  0  0  0  0  0  0  0  0
    1.6672   15.1567   39.4882 H   0  0  0  0  0  0  0  0  0  0  0  0
    3.3883   15.7314   39.9589 H   0  0  0  0  0  0  0  0  0  0  0  0
    3.7053   17.5290   41.4682 H   0  0  0  0  0  0  0  0  0  0  0  0
    2.4804   14.4433   37.4483 H   0  0  0  0  0  0  0  0  0  0  0  0
   -1.3605   17.7458   46.9107 H   0  0  0  0  0  0  0  0  0  0  0  0
    4.6090   16.4021   36.5324 H   0  0  0  0  0  0  0  0  0  0  0  0
    4.1691   14.8391   35.7641 H   0  0  0  0  0  0  0  0  0  0  0  0
    2.9978   16.2011   35.7641 H   0  0  0  0  0  0  0  0  0  0  0  0
   -0.8895   21.9576   44.7899 H   0  0  0  0  0  0  0  0  0  0  0  0
  1 13  2  0
  1 27  1  0
  3 17  1  0
  5 24  2  0
  6 19  1  0
  7 15  1  0
  7 26  2  0
  8 19  1  0
 10 21  1  0
 11  2  1  0
 13 29  1  0
 14  4  1  0
 14 11  1  0
 16 27  2  0
 16  5  1  0
 17  9  1  0
 17  1  1  0
 19 20  1  0
 19 23  1  0
 21 18  1  0
 22 18  1  0
 22  9  1  0
 23 20  1  0
 23  3  1  0
 23 22  1  0
 24 26  1  0
 24 14  1  0
 25 10  1  0
 25 12  1  0
 27  7  1  0
 28 25  1  0
 29 15  2  0
  2 30  1  0
  2 31  1  0
  2 32  1  0
  3 33  1  0
  3 34  1  0
  4 35  1  0
  5 36  1  0
  6 37  1  0
  8 38  1  0
  9 39  1  0
  9 40  1  0
 11 41  1  0
 11 42  1  0
 12 43  1  0
 12 44  1  0
 12 45  1  0
 13 46  1  0
 14 47  1  0
 16 48  1  0
 17 49  1  0
 18 50  1  0
 18 51  1  0
 20 52  1  0
 20 53  1  0
 21 54  1  0
 21 55  1  0
 22 56  1  0
 25 57  1  0
 26 58  1  0
 28 59  1  0
 28 60  1  0
 28 61  1  0
 29 62  1  0
M  END
>  <mol_id>  (39) 
2026-09-18-6fnk-s0-n100-refligand-seed1-0039

>  <rmsd_to_ref>  (39) 


$$$$

     RDKit          3D

 44 48  0  0  0  0  0  0  0  0999 V2000
    3.2280   20.8970   38.3420 C   0  0  0  0  0  0  0  0  0  0  0  0
    2.5970   18.7780   39.4970 C   0  0  0  0  0  0  0  0  0  0  0  0
    1.8320   15.0900   42.0240 C   0  0  0  0  0  0  0  0  0  0  0  0
   -0.0710   19.8400   44.3280 C   0  0  0  0  0  0  0  0  0  0  0  0
    1.2390   14.2780   42.9700 C   0  0  0  0  0  0  0  0  0  0  0  0
    2.0340   20.8900   40.5000 C   0  0  0  0  0  0  0  0  0  0  0  0
   -0.4870   21.0290   44.2180 N   0  0  0  0  0  0  0  0  0  0  0  0
    2.5290   14.6340   40.7710 C   0  0  0  0  0  0  0  0  0  0  0  0
    1.6530   17.0020   43.2050 C   0  0  0  0  0  0  0  0  0  0  0  0
    0.7300   21.0210   42.5210 C   0  0  0  0  0  0  0  0  0  0  0  0
    2.0950   19.4900   40.6300 C   0  0  0  0  0  0  0  0  0  0  0  0
    2.3380   17.7100   42.2100 N   0  0  0  0  0  0  0  0  0  0  0  0
    2.1220   13.8110   40.0730 O   0  0  0  0  0  0  0  0  0  0  0  0
   -0.4140   18.9860   45.5970 C   0  0  0  0  0  0  0  0  0  0  0  0
   -0.1200   21.6970   43.3060 N   0  0  0  0  0  0  0  0  0  0  0  0
    1.2450   21.2470   41.4040 C   0  0  0  0  0  0  0  0  0  0  0  0
    2.6060   21.5710   39.3710 C   0  0  0  0  0  0  0  0  0  0  0  0
    0.6700   14.4460   44.1800 C   0  0  0  0  0  0  0  0  0  0  0  0
    1.2960   16.7980   44.3290 C   0  0  0  0  0  0  0  0  0  0  0  0
    1.0770   12.8520   42.3710 O   0  0  0  0  0  0  0  0  0  0  0  0
    2.0240   16.4700   42.1790 N   0  0  0  0  0  0  0  0  0  0  0  0
    0.6480   15.6600   44.7970 C   0  0  0  0  0  0  0  0  0  0  0  0
    3.9520   15.1790   40.5950 N   0  0  0  0  0  0  0  0  0  0  0  0
    1.8010   18.9580   41.9510 C   0  0  0  0  0  0  0  0  0  0  0  0
    3.1020   19.4130   38.4100 C   0  0  0  0  0  0  0  0  0  0  0  0
    0.9050   19.8130   42.9830 C   0  0  0  0  0  0  0  0  0  0  0  0
    1.4540   11.7100   43.1100 C   0  0  0  0  0  0  0  0  0  0  0  0
    3.7726   21.4118   37.5368 H   0  0  0  0  0  0  0  0  0  0  0  0
    2.5730   17.6783   39.5068 H   0  0  0  0  0  0  0  0  0  0  0  0
   -0.1813   19.5653   46.5027 H   0  0  0  0  0  0  0  0  0  0  0  0
   -1.4841   18.7315   45.5894 H   0  0  0  0  0  0  0  0  0  0  0  0
    0.1828   18.0620   45.5894 H   0  0  0  0  0  0  0  0  0  0  0  0
    0.8018   22.1921   41.0570 H   0  0  0  0  0  0  0  0  0  0  0  0
    3.3549   22.2656   39.7793 H   0  0  0  0  0  0  0  0  0  0  0  0
    1.7126   21.9743   38.8718 H   0  0  0  0  0  0  0  0  0  0  0  0
    0.2119   13.5810   44.6819 H   0  0  0  0  0  0  0  0  0  0  0  0
    1.5008   17.5894   45.0651 H   0  0  0  0  0  0  0  0  0  0  0  0
    0.0765   15.7466   45.7329 H   0  0  0  0  0  0  0  0  0  0  0  0
    4.5042   14.9188   39.7654 H   0  0  0  0  0  0  0  0  0  0  0  0
    4.3553   15.8052   41.3064 H   0  0  0  0  0  0  0  0  0  0  0  0
    3.4299   18.8123   37.5488 H   0  0  0  0  0  0  0  0  0  0  0  0
    1.3817   11.9289   44.1856 H   0  0  0  0  0  0  0  0  0  0  0  0
    0.7842   10.8740   42.8602 H   0  0  0  0  0  0  0  0  0  0  0  0
    2.4899   11.4371   42.8602 H   0  0  0  0  0  0  0  0  0  0  0  0
  1 25  2  0
  1 17  1  0
  2 11  2  0
  3 21  1  0
  3  5  2  0
  4 14  1  0
  5 18  1  0
  6 11  1  0
  6 16  2  0
  7  4  2  0
  8  3  1  0
  9 19  2  0
 10 26  1  0
 10 15  2  0
 11 24  1  0
 12  9  1  0
 13  8  2  0
 15  7  1  0
 16 10  1  0
 17  6  1  0
 18 22  2  0
 19 22  1  0
 20  5  1  0
 20 27  1  0
 21 12  1  0
 21  9  1  0
 23  8  1  0
 24 12  1  0
 24 26  2  0
 25  2  1  0
 26  4  1  0
  1 28  1  0
  2 29  1  0
 14 30  1  0
 14 31  1  0
 14 32  1  0
 16 33  1  0
 17 34  1  0
 17 35  1  0
 18 36  1  0
 19 37  1  0
 22 38  1  0
 23 39  1  0
 23 40  1  0
 25 41  1  0
 27 42  1  0
 27 43  1  0
 27 44  1  0
M  END
>  <mol_id>  (40) 
2026-09-18-6fnk-s0-n100-refligand-seed1-0040

>  <rmsd_to_ref>  (40) 


$$$$

     RDKit          3D

 17 17  0  0  0  0  0  0  0  0999 V2000
    0.2910   20.6170   43.0430 C   0  0  0  0  0  0  0  0  0  0  0  0
    1.8500   18.7880   42.3030 C   0  0  0  0  0  0  0  0  0  0  0  0
   -0.5630   20.9190   43.9470 O   0  0  0  0  0  1  0  0  0  0  0  0
    0.6710   21.3870   42.1700 O   0  0  0  0  0  0  0  0  0  0  0  0
    1.5350   16.5540   43.1160 C   0  0  0  0  0  0  0  0  0  0  0  0
    1.7860   15.2620   42.9550 N   0  0  0  0  0  0  0  0  0  0  0  0
    0.6150   17.0440   44.0400 C   0  0  0  0  0  0  0  0  0  0  0  0
    2.1340   17.4200   42.2920 C   0  0  0  0  0  0  0  0  0  0  0  0
    0.2950   18.3770   44.0480 C   0  0  0  0  0  0  0  0  0  0  0  0
    0.8610   19.2750   43.1130 C   0  0  0  0  0  0  0  0  0  0  0  0
    2.6000   19.5980   41.5580 O   0  0  0  0  0  0  0  0  0  0  0  0
    2.4773   14.9549   42.2559 H   0  0  0  0  0  0  0  0  0  0  0  0
    1.2897   14.5655   43.5290 H   0  0  0  0  0  0  0  0  0  0  0  0
    0.1452   16.3613   44.7633 H   0  0  0  0  0  0  0  0  0  0  0  0
    2.8795   17.0407   41.5776 H   0  0  0  0  0  0  0  0  0  0  0  0
   -0.4163   18.7559   44.7966 H   0  0  0  0  0  0  0  0  0  0  0  0
    3.3100   19.2223   40.9794 H   0  0  0  0  0  0  0  0  0  0  0  0
  1 10  1  0
  1  3  1  0
  2 10  2  0
  4  1  2  0
  5  7  1  0
  6  5  1  0
  7  9  2  0
  8  2  1  0
  8  5  2  0
 10  9  1  0
 11  2  1  0
  6 12  1  0
  6 13  1  0
  7 14  1  0
  8 15  1  0
  9 16  1  0
 11 17  1  0
M  CHG  1   3  -1
M  END
>  <mol_id>  (41) 
2026-09-18-6fnk-s0-n100-refligand-seed1-0041

>  <rmsd_to_ref>  (41) 


$$$$

     RDKit          3D

 28 28  0  0  0  0  0  0  0  0999 V2000
    0.8900   17.9830   43.1290 C   0  0  0  0  0  0  0  0  0  0  0  0
    1.7880   15.6850   43.0400 C   0  0  0  0  0  0  0  0  0  0  0  0
   -0.4180   20.1720   44.2340 N   0  0  0  0  0  0  0  0  0  0  0  0
    2.2060   14.6660   42.0740 C   0  0  0  0  0  0  0  0  0  0  0  0
    2.9630   14.9790   40.9020 C   0  0  0  0  0  0  0  0  0  0  0  0
    2.2220   15.4310   39.7450 O   0  0  0  0  0  0  0  0  0  0  0  0
    1.4200   16.9660   42.4580 N   0  0  0  0  0  0  0  0  0  0  0  0
    0.3590   20.2880   43.1290 C   0  0  0  0  0  0  0  0  0  0  0  0
    2.2480   18.4670   40.4870 O   0  0  0  0  0  0  0  0  0  0  0  0
   -0.4620   18.9630   44.8400 C   0  0  0  0  0  0  0  0  0  0  0  0
    1.9950   19.3050   41.3250 C   0  0  0  0  0  0  0  0  0  0  0  0
    1.0660   19.2470   42.4880 C   0  0  0  0  0  0  0  0  0  0  0  0
   -1.0850   18.7990   46.0300 N   0  0  0  0  0  0  0  0  0  0  0  0
    0.3480   21.4700   42.5820 N   0  0  0  0  0  0  0  0  0  0  0  0
    2.5730   20.4710   41.2360 O   0  0  0  0  0  1  0  0  0  0  0  0
    0.1490   17.8010   44.2910 N   0  0  0  0  0  0  0  0  0  0  0  0
    0.9183   15.2974   43.5907 H   0  0  0  0  0  0  0  0  0  0  0  0
    2.6599   15.8771   43.6825 H   0  0  0  0  0  0  0  0  0  0  0  0
    2.8065   13.9381   42.6394 H   0  0  0  0  0  0  0  0  0  0  0  0
    1.2423   14.3577   41.6425 H   0  0  0  0  0  0  0  0  0  0  0  0
    3.6771   15.7718   41.1697 H   0  0  0  0  0  0  0  0  0  0  0  0
    3.4217   14.0276   40.5947 H   0  0  0  0  0  0  0  0  0  0  0  0
    1.4155   15.9229   40.0412 H   0  0  0  0  0  0  0  0  0  0  0  0
    1.5826   17.0946   41.4491 H   0  0  0  0  0  0  0  0  0  0  0  0
    0.2307   19.0192   41.8094 H   0  0  0  0  0  0  0  0  0  0  0  0
   -1.1079   17.8707   46.4757 H   0  0  0  0  0  0  0  0  0  0  0  0
   -1.5363   19.6025   46.4901 H   0  0  0  0  0  0  0  0  0  0  0  0
    0.9090   21.6519   41.7375 H   0  0  0  0  0  0  0  0  0  0  0  0
  1 16  2  0
  3 10  2  0
  4  2  1  0
  5  4  1  0
  6  5  1  0
  7  2  1  0
  7  1  1  0
  8  3  1  0
  9 11  2  0
 10 13  1  0
 12 11  1  0
 12  1  1  0
 12  8  1  0
 14  8  2  3
 15 11  1  0
 16 10  1  0
  2 17  1  0
  2 18  1  0
  4 19  1  0
  4 20  1  0
  5 21  1  0
  5 22  1  0
  6 23  1  0
  7 24  1  0
 12 25  1  0
 13 26  1  0
 13 27  1  0
 14 28  1  0
M  CHG  1  15  -1
M  END
>  <mol_id>  (42) 
2026-09-18-6fnk-s0-n100-refligand-seed1-0042

>  <rmsd_to_ref>  (42) 


$$$$

     RDKit          3D

 26 26  0  0  0  0  0  0  0  0999 V2000
   -1.0220   19.7090   45.2370 O   0  0  0  0  0  0  0  0  0  0  0  0
    0.8840   19.9260   42.5960 C   0  0  0  0  0  0  0  0  0  0  0  0
    0.8200   16.6090   44.1090 C   0  0  0  0  0  0  0  0  0  0  0  0
    0.3550   21.3160   42.7070 C   0  0  0  0  0  0  0  0  0  0  0  0
    1.6940   15.4910   44.0490 C   0  0  0  0  0  0  0  0  0  0  0  0
    0.9380   17.7510   43.3370 C   0  0  0  0  0  0  0  0  0  0  0  0
    2.9020   15.2440   41.9040 O   0  0  0  0  0  0  0  0  0  0  0  0
    2.5510   20.0420   40.3550 C   0  0  0  0  0  0  0  0  0  0  0  0
    2.4600   16.3470   40.1570 O   0  0  0  0  0  1  0  0  0  0  0  0
    0.3950   18.8770   43.4450 C   0  0  0  0  0  0  0  0  0  0  0  0
    1.7870   19.5070   41.5740 C   0  0  0  0  0  0  0  0  0  0  0  0
    1.9430   18.3220   41.7520 C   0  0  0  0  0  0  0  0  0  0  0  0
   -0.4990   19.1840   44.5540 C   0  0  0  0  0  0  0  0  0  0  0  0
    3.4860   20.8390   40.5900 O   0  0  0  0  0  1  0  0  0  0  0  0
    2.3700   16.1360   41.4410 N   0  0  0  0  0  4  0  0  0  0  0  0
    0.1280   16.6190   45.0830 O   0  0  0  0  0  0  0  0  0  0  0  0
    2.2780   19.6660   39.1940 O   0  0  0  0  0  0  0  0  0  0  0  0
    1.7820   17.2510   42.1530 C   0  0  0  0  0  0  0  0  0  0  0  0
    1.6619   20.1629   43.3368 H   0  0  0  0  0  0  0  0  0  0  0  0
    0.2524   21.5856   43.7685 H   0  0  0  0  0  0  0  0  0  0  0  0
    1.0506   22.0133   42.2172 H   0  0  0  0  0  0  0  0  0  0  0  0
   -0.6282   21.3744   42.2172 H   0  0  0  0  0  0  0  0  0  0  0  0
    1.9466   15.1679   45.0697 H   0  0  0  0  0  0  0  0  0  0  0  0
    1.1985   14.6665   43.5154 H   0  0  0  0  0  0  0  0  0  0  0  0
    2.6137   15.7728   43.5154 H   0  0  0  0  0  0  0  0  0  0  0  0
    1.7712   18.0922   43.9690 H   0  0  0  0  0  0  0  0  0  0  0  0
  2  4  1  0
  2 10  1  0
  3 16  2  0
  5  3  1  0
  6 10  1  0
  6  3  1  0
  8 14  1  0
  8 11  1  0
  9 15  1  0
 10 13  2  0
 11 12  2  0
 11  2  1  0
 12 18  2  0
 13  1  2  0
 15  7  2  0
 15 18  1  0
 17  8  2  0
 18  6  1  0
  2 19  1  0
  4 20  1  0
  4 21  1  0
  4 22  1  0
  5 23  1  0
  5 24  1  0
  5 25  1  0
  6 26  1  0
M  CHG  3   9  -1  14  -1  15   1
M  END
>  <mol_id>  (43) 
2026-09-18-6fnk-s0-n100-refligand-seed1-0043

>  <rmsd_to_ref>  (43) 


$$$$

     RDKit          3D

 20 21  0  0  0  0  0  0  0  0999 V2000
   -0.3280   16.6620   44.3870 O   0  0  0  0  0  0  0  0  0  0  0  0
   -0.5770   19.0450   44.8210 C   0  0  0  0  0  0  0  0  0  0  0  0
    2.5790   17.3880   41.4350 C   0  0  0  0  0  0  0  0  0  0  0  0
   -1.1960   18.7970   45.9400 N   0  0  0  0  0  0  0  0  0  0  0  0
    1.2140   19.5010   42.7460 C   0  0  0  0  0  0  0  0  0  0  0  0
    2.3350   19.7450   41.7330 C   0  0  0  0  0  0  0  0  0  0  0  0
    2.8240   18.5750   40.9650 C   0  0  0  0  0  0  0  0  0  0  0  0
    1.6710   17.1530   42.4450 C   0  0  0  0  0  0  0  0  0  0  0  0
    0.9620   18.2190   43.0730 C   0  0  0  0  0  0  0  0  0  0  0  0
   -0.4380   20.3170   44.3470 N   0  0  0  0  0  0  0  0  0  0  0  0
   -0.0070   17.8790   44.0690 C   0  0  0  0  0  0  0  0  0  0  0  0
    0.4640   20.5770   43.3840 C   0  0  0  0  0  0  0  0  0  0  0  0
   -1.0082   16.4963   45.0870 H   0  0  0  0  0  0  0  0  0  0  0  0
    3.1212   16.5319   41.0070 H   0  0  0  0  0  0  0  0  0  0  0  0
   -1.2865   17.8270   46.2745 H   0  0  0  0  0  0  0  0  0  0  0  0
   -1.5950   19.5709   46.4903 H   0  0  0  0  0  0  0  0  0  0  0  0
    2.7606   20.7479   41.5809 H   0  0  0  0  0  0  0  0  0  0  0  0
    3.3784   18.7075   40.0242 H   0  0  0  0  0  0  0  0  0  0  0  0
    1.4891   16.1193   42.7742 H   0  0  0  0  0  0  0  0  0  0  0  0
    0.6389   21.6174   43.0726 H   0  0  0  0  0  0  0  0  0  0  0  0
  2  4  1  0
  3  8  2  0
  5  9  1  0
  5 12  2  0
  6  5  1  0
  7  3  1  0
  7  6  2  0
  8  9  1  0
  9 11  2  0
 10  2  2  0
 11  1  1  0
 11  2  1  0
 12 10  1  0
  1 13  1  0
  3 14  1  0
  4 15  1  0
  4 16  1  0
  6 17  1  0
  7 18  1  0
  8 19  1  0
 12 20  1  0
M  END
>  <mol_id>  (44) 
2026-09-18-6fnk-s0-n100-refligand-seed1-0044

>  <rmsd_to_ref>  (44) 


$$$$

     RDKit          3D

 51 53  0  0  0  0  0  0  0  0999 V2000
    4.4200   12.9900   37.7320 O   0  0  0  0  0  0  0  0  0  0  0  0
    0.9870   16.1560   43.3540 C   0  0  0  0  0  0  0  0  0  0  0  0
   -0.1600   16.2810   45.7520 C   0  0  0  0  0  0  0  0  0  0  0  0
    0.2990   16.7330   44.3690 C   0  0  0  0  0  0  0  0  0  0  0  0
    1.6110   16.2020   41.0080 C   0  0  0  0  0  0  0  0  0  0  0  0
    0.3200   15.0890   46.3540 C   0  0  0  0  0  0  0  0  0  0  0  0
    2.3640   14.0230   38.1710 C   0  0  0  0  0  0  0  0  0  0  0  0
    2.2440   15.5080   40.0830 C   0  0  0  0  0  0  0  0  0  0  0  0
    4.4040   21.2910   41.0000 C   0  0  0  0  0  0  0  0  0  0  0  0
    2.1780   20.2700   39.5270 C   0  0  0  0  0  0  0  0  0  0  0  0
   -0.8430   18.4940   45.6620 C   0  0  0  0  0  0  0  0  0  0  0  0
    4.1430   21.6890   39.6540 C   0  0  0  0  0  0  0  0  0  0  0  0
    0.3660   18.9070   43.3740 C   0  0  0  0  0  0  0  0  0  0  0  0
    3.6030   15.4750   39.7930 C   0  0  0  0  0  0  0  0  0  0  0  0
    0.3120   21.2110   42.7470 N   0  0  0  0  0  0  0  0  0  0  0  0
    3.9540   14.5460   38.2810 P   0  0  0  0  0  5  0  0  0  0  0  0
    2.4480   19.8180   40.7880 C   0  0  0  0  0  0  0  0  0  0  0  0
    1.4720   19.0380   41.3390 N   0  0  0  0  0  0  0  0  0  0  0  0
    5.2070   15.2000   37.7170 O   0  0  0  0  0  0  0  0  0  0  0  0
    3.5430   20.3000   41.5430 C   0  0  0  0  0  0  0  0  0  0  0  0
    0.0090   18.1360   44.4220 C   0  0  0  0  0  0  0  0  0  0  0  0
    1.3050   16.8760   42.2150 C   0  0  0  0  0  0  0  0  0  0  0  0
   -0.0530   20.2620   43.5840 C   0  0  0  0  0  0  0  0  0  0  0  0
   -0.8880   17.2970   46.4180 C   0  0  0  0  0  0  0  0  0  0  0  0
    3.0960   21.1970   38.9190 C   0  0  0  0  0  0  0  0  0  0  0  0
   -0.7190   20.6290   44.5900 O   0  0  0  0  0  0  0  0  0  0  0  0
    4.8730   15.8320   40.1850 O   0  0  0  0  0  0  0  0  0  0  0  0
    1.0730   18.3490   42.3860 C   0  0  0  0  0  0  0  0  0  0  0  0
    4.5954   12.4042   38.5106 H   0  0  0  0  0  0  0  0  0  0  0  0
    1.9388   15.8051   43.7795 H   0  0  0  0  0  0  0  0  0  0  0  0
    0.2804   15.4018   42.9773 H   0  0  0  0  0  0  0  0  0  0  0  0
    0.2797   15.1891   47.4487 H   0  0  0  0  0  0  0  0  0  0  0  0
   -0.3069   14.2414   46.0400 H   0  0  0  0  0  0  0  0  0  0  0  0
    1.3593   14.9124   46.0400 H   0  0  0  0  0  0  0  0  0  0  0  0
    1.9518   13.8874   39.1818 H   0  0  0  0  0  0  0  0  0  0  0  0
    1.7681   14.7725   37.6295 H   0  0  0  0  0  0  0  0  0  0  0  0
    2.3294   13.0661   37.6295 H   0  0  0  0  0  0  0  0  0  0  0  0
    1.6092   14.8666   39.4540 H   0  0  0  0  0  0  0  0  0  0  0  0
    5.2269   21.7279   41.5848 H   0  0  0  0  0  0  0  0  0  0  0  0
    1.2797   19.9331   38.9889 H   0  0  0  0  0  0  0  0  0  0  0  0
   -1.3092   19.4608   45.9028 H   0  0  0  0  0  0  0  0  0  0  0  0
    4.8132   22.4245   39.1851 H   0  0  0  0  0  0  0  0  0  0  0  0
    3.5079   16.4209   39.2397 H   0  0  0  0  0  0  0  0  0  0  0  0
    0.0069   22.1821   42.9047 H   0  0  0  0  0  0  0  0  0  0  0  0
    0.9025   20.9821   41.9347 H   0  0  0  0  0  0  0  0  0  0  0  0
    0.7293   18.9524   40.6305 H   0  0  0  0  0  0  0  0  0  0  0  0
    3.7283   19.9064   42.5533 H   0  0  0  0  0  0  0  0  0  0  0  0
   -1.9343   16.9788   46.5361 H   0  0  0  0  0  0  0  0  0  0  0  0
   -0.4408   17.4752   47.4071 H   0  0  0  0  0  0  0  0  0  0  0  0
    2.9584   21.5081   37.8729 H   0  0  0  0  0  0  0  0  0  0  0  0
    4.9216   15.8457   41.1737 H   0  0  0  0  0  0  0  0  0  0  0  0
  1 16  1  0
  2  4  1  0
  3  6  1  0
  3 24  1  0
  4 21  1  0
  4  3  2  0
  5 22  2  0
  8  5  2  0
  9 20  2  0
 10 17  2  0
 11 24  1  0
 12  9  1  0
 13 23  1  0
 13 21  1  0
 14  8  1  0
 14 27  1  0
 15 23  1  0
 16  7  1  0
 16 14  1  0
 17 18  1  0
 17 20  1  0
 18 28  1  0
 19 16  2  0
 21 11  2  0
 22 28  1  0
 22  2  1  0
 23 26  2  0
 25 10  1  0
 25 12  2  0
 28 13  2  0
  1 29  1  0
  2 30  1  0
  2 31  1  0
  6 32  1  0
  6 33  1  0
  6 34  1  0
  7 35  1  0
  7 36  1  0
  7 37  1  0
  8 38  1  0
  9 39  1  0
 10 40  1  0
 11 41  1  0
 12 42  1  0
 14 43  1  0
 15 44  1  0
 15 45  1  0
 18 46  1  0
 20 47  1  0
 24 48  1  0
 24 49  1  0
 25 50  1  0
 27 51  1  0
M  END
>  <mol_id>  (45) 
2026-09-18-6fnk-s0-n100-refligand-seed1-0045

>  <rmsd_to_ref>  (45) 


$$$$

     RDKit          3D

 55 54  0  0  0  0  0  0  0  0999 V2000
    0.3260   15.4200   45.7370 C   0  0  0  0  0  0  0  0  0  0  0  0
    0.7260   19.3930   43.1880 C   0  0  0  0  0  0  0  0  0  0  0  0
    2.9980   20.9510   40.3990 C   0  0  0  0  0  0  0  0  0  0  0  0
   -1.0310   19.8180   44.6270 N   0  0  0  0  0  0  0  0  0  0  0  0
    4.0840   21.0410   41.4310 C   0  0  0  0  0  0  0  0  0  0  0  0
    2.6150   17.1480   40.8800 O   0  0  0  0  0  0  0  0  0  0  0  0
    2.3580   18.6740   40.9860 C   0  0  0  0  0  0  0  0  0  0  0  0
   -0.2490   14.0240   45.3870 C   0  0  0  0  0  0  0  0  0  0  0  0
    1.6390   19.0510   42.2700 C   0  0  0  0  0  0  0  0  0  0  0  0
    1.5490   21.0010   40.3640 C   0  0  0  0  0  0  0  0  0  0  0  0
   -0.8290   16.3270   45.5910 C   0  0  0  0  0  0  0  0  0  0  0  0
   -0.6000   17.2710   44.5770 N   0  0  0  0  0  4  0  0  0  0  0  0
    2.0580   15.4470   42.8490 C   0  0  0  0  0  0  0  0  0  0  0  0
    2.6550   19.5180   39.8840 O   0  0  0  0  0  0  0  0  0  0  0  0
    3.0000   19.0080   41.9650 O   0  0  0  0  0  0  0  0  0  0  0  0
   -0.7810   18.5980   44.8110 C   0  0  0  0  0  0  0  0  0  0  0  0
    1.1450   18.5760   43.4330 C   0  0  0  0  0  0  0  0  0  0  0  0
    3.6710   20.1570   42.6610 C   0  0  0  0  0  0  0  0  0  0  0  0
   -0.4210   20.3850   43.4480 N   0  0  0  0  0  0  0  0  0  0  0  0
    3.5310   14.6880   40.8960 C   0  0  0  0  0  0  0  0  0  0  0  0
    2.3610   15.7330   41.3950 C   0  0  0  0  0  0  0  0  0  0  0  0
    0.7097   15.4379   46.7678 H   0  0  0  0  0  0  0  0  0  0  0  0
    1.1718   15.7036   45.0935 H   0  0  0  0  0  0  0  0  0  0  0  0
    3.5335   21.8416   40.0383 H   0  0  0  0  0  0  0  0  0  0  0  0
   -2.0518   19.9280   44.5451 H   0  0  0  0  0  0  0  0  0  0  0  0
    5.0300   20.6714   41.0085 H   0  0  0  0  0  0  0  0  0  0  0  0
    4.2220   22.0861   41.7452 H   0  0  0  0  0  0  0  0  0  0  0  0
    1.2679   18.8128   41.0350 H   0  0  0  0  0  0  0  0  0  0  0  0
   -0.4742   13.4772   46.3145 H   0  0  0  0  0  0  0  0  0  0  0  0
   -1.1709   14.1441   44.7990 H   0  0  0  0  0  0  0  0  0  0  0  0
    0.4900   13.4599   44.7990 H   0  0  0  0  0  0  0  0  0  0  0  0
    2.5548   18.7080   42.7737 H   0  0  0  0  0  0  0  0  0  0  0  0
    1.2410   18.2410   41.6411 H   0  0  0  0  0  0  0  0  0  0  0  0
    1.8712   19.9231   41.6411 H   0  0  0  0  0  0  0  0  0  0  0  0
    1.1576   21.0145   41.3919 H   0  0  0  0  0  0  0  0  0  0  0  0
    1.2261   21.9108   39.8368 H   0  0  0  0  0  0  0  0  0  0  0  0
    1.1642   20.1156   39.8368 H   0  0  0  0  0  0  0  0  0  0  0  0
   -1.7214   15.7358   45.3378 H   0  0  0  0  0  0  0  0  0  0  0  0
   -0.9787   16.8610   46.5409 H   0  0  0  0  0  0  0  0  0  0  0  0
   -1.2243   17.0219   43.7966 H   0  0  0  0  0  0  0  0  0  0  0  0
    0.4161   17.2012   44.4233 H   0  0  0  0  0  0  0  0  0  0  0  0
    2.7096   16.0620   43.4872 H   0  0  0  0  0  0  0  0  0  0  0  0
    1.0055   15.6886   43.0586 H   0  0  0  0  0  0  0  0  0  0  0  0
    2.2385   14.3824   43.0586 H   0  0  0  0  0  0  0  0  0  0  0  0
    0.2136   18.7617   45.2514 H   0  0  0  0  0  0  0  0  0  0  0  0
   -1.8606   18.4153   44.7053 H   0  0  0  0  0  0  0  0  0  0  0  0
    2.0455   18.2380   42.8992 H   0  0  0  0  0  0  0  0  0  0  0  0
    0.7295   17.9683   44.2504 H   0  0  0  0  0  0  0  0  0  0  0  0
    4.5489   19.8262   43.2354 H   0  0  0  0  0  0  0  0  0  0  0  0
    3.0424   20.6716   43.4027 H   0  0  0  0  0  0  0  0  0  0  0  0
   -0.6839   21.2298   42.9206 H   0  0  0  0  0  0  0  0  0  0  0  0
    4.0261   14.2458   41.7732 H   0  0  0  0  0  0  0  0  0  0  0  0
    3.0761   13.8901   40.2907 H   0  0  0  0  0  0  0  0  0  0  0  0
    4.2727   15.2298   40.2907 H   0  0  0  0  0  0  0  0  0  0  0  0
    1.3763   15.5835   40.9280 H   0  0  0  0  0  0  0  0  0  0  0  0
  2 17  2  3
  2 19  1  0
  3 10  1  0
  3  5  1  0
  4 16  1  0
  5 18  1  0
  6 21  1  0
  7  6  1  0
  7 15  1  0
  8  1  1  0
  9  2  1  0
 11  1  1  0
 12 16  1  0
 12 11  1  0
 14  3  1  0
 14  7  1  0
 15 18  1  0
 19  4  1  0
 20 21  1  0
 21 13  1  0
  1 22  1  0
  1 23  1  0
  3 24  1  0
  4 25  1  0
  5 26  1  0
  5 27  1  0
  7 28  1  0
  8 29  1  0
  8 30  1  0
  8 31  1  0
  9 32  1  0
  9 33  1  0
  9 34  1  0
 10 35  1  0
 10 36  1  0
 10 37  1  0
 11 38  1  0
 11 39  1  0
 12 40  1  0
 12 41  1  0
 13 42  1  0
 13 43  1  0
 13 44  1  0
 16 45  1  0
 16 46  1  0
 17 47  1  0
 17 48  1  0
 18 49  1  0
 18 50  1  0
 19 51  1  0
 20 52  1  0
 20 53  1  0
 20 54  1  0
 21 55  1  0
M  CHG  1  12   1
M  END
>  <mol_id>  (46) 
2026-09-18-6fnk-s0-n100-refligand-seed1-0046

>  <rmsd_to_ref>  (46) 


$$$$

     RDKit          3D

 34 36  0  0  0  0  0  0  0  0999 V2000
    0.5230   18.7970   43.6890 C   0  0  0  0  0  0  0  0  0  0  0  0
    3.3440   15.0640   39.7320 C   0  0  0  0  0  0  0  0  0  0  0  0
    1.1680   18.2770   42.5480 C   0  0  0  0  0  0  0  0  0  0  0  0
    0.8140   21.1420   42.9990 C   0  0  0  0  0  0  0  0  0  0  0  0
    2.3070   16.0720   40.3010 C   0  0  0  0  0  0  0  0  0  0  0  0
    0.1100   17.5590   44.3690 C   0  0  0  0  0  0  0  0  0  0  0  0
    1.5280   19.2700   41.5430 C   0  0  0  0  0  0  0  0  0  0  0  0
    2.2430   21.7830   40.8470 Cl  0  0  0  0  0  0  0  0  0  0  0  0
    1.5060   20.6160   41.7910 C   0  0  0  0  0  0  0  0  0  0  0  0
    0.7470   16.4360   43.8480 N   0  0  0  0  0  0  0  0  0  0  0  0
    2.0850   18.6490   40.2110 C   0  0  0  0  0  0  0  0  0  0  0  0
    2.2220   19.4050   39.2690 O   0  0  0  0  0  0  0  0  0  0  0  0
    2.5980   17.4810   40.3230 O   0  0  0  0  0  0  0  0  0  0  0  0
    0.3630   20.2290   43.9130 C   0  0  0  0  0  0  0  0  0  0  0  0
    2.0050   15.7350   41.8440 C   0  0  0  0  0  0  0  0  0  0  0  0
   -0.8090   17.4430   45.1580 O   0  0  0  0  0  0  0  0  0  0  0  0
    0.9840   15.1350   44.4170 C   0  0  0  0  0  0  0  0  0  0  0  0
    1.2750   16.8240   42.6550 C   0  0  0  0  0  0  0  0  0  0  0  0
    1.0780   16.0570   39.4110 C   0  0  0  0  0  0  0  0  0  0  0  0
   -0.3400   20.5560   44.8670 O   0  0  0  0  0  0  0  0  0  0  0  0
    1.4850   18.8211   44.2218 H   0  0  0  0  0  0  0  0  0  0  0  0
    3.8609   14.5615   40.5628 H   0  0  0  0  0  0  0  0  0  0  0  0
    2.8265   14.3145   39.1152 H   0  0  0  0  0  0  0  0  0  0  0  0
    4.0785   15.6025   39.1152 H   0  0  0  0  0  0  0  0  0  0  0  0
    0.6707   22.2220   43.1511 H   0  0  0  0  0  0  0  0  0  0  0  0
    2.5296   19.2035   41.9928 H   0  0  0  0  0  0  0  0  0  0  0  0
    1.3866   14.8257   41.8728 H   0  0  0  0  0  0  0  0  0  0  0  0
    2.9921   15.6310   42.3182 H   0  0  0  0  0  0  0  0  0  0  0  0
    0.9709   15.2069   45.5146 H   0  0  0  0  0  0  0  0  0  0  0  0
    0.1975   14.4410   44.0856 H   0  0  0  0  0  0  0  0  0  0  0  0
    1.9647   14.7630   44.0856 H   0  0  0  0  0  0  0  0  0  0  0  0
    0.1728   16.0460   40.0359 H   0  0  0  0  0  0  0  0  0  0  0  0
    1.0742   16.9552   38.7760 H   0  0  0  0  0  0  0  0  0  0  0  0
    1.0961   15.1590   38.7760 H   0  0  0  0  0  0  0  0  0  0  0  0
  1  3  1  0
  1 14  1  0
  1  6  1  0
  2  5  1  0
  3 18  2  0
  4 14  1  0
  5 13  1  0
  5 15  1  0
  6 16  2  0
  7 11  1  0
  7  9  1  0
  7  3  1  0
  8  9  1  0
  9  4  2  0
 10  6  1  0
 10 17  1  0
 11 13  1  0
 12 11  2  0
 14 20  2  0
 15 18  1  0
 18 10  1  0
 19  5  1  0
  1 21  1  0
  2 22  1  0
  2 23  1  0
  2 24  1  0
  4 25  1  0
  7 26  1  0
 15 27  1  0
 15 28  1  0
 17 29  1  0
 17 30  1  0
 17 31  1  0
 19 32  1  0
 19 33  1  0
 19 34  1  0
M  END
>  <mol_id>  (47) 
2026-09-18-6fnk-s0-n100-refligand-seed1-0047

>  <rmsd_to_ref>  (47) 


$$$$

     RDKit          3D

 28 30  0  0  0  0  0  0  0  0999 V2000
    3.2670   19.7020   41.2960 O   0  0  0  0  0  0  0  0  0  0  0  0
    0.3910   19.6660   43.5770 C   0  0  0  0  0  0  0  0  0  0  0  0
   -0.9200   18.7110   45.7920 C   0  0  0  0  0  0  0  0  0  0  0  0
   -0.2090   17.8640   44.9990 C   0  0  0  0  0  0  0  0  0  0  0  0
    0.5130   18.4020   43.9310 C   0  0  0  0  0  0  0  0  0  0  0  0
    0.0730   16.5040   44.9380 C   0  0  0  0  0  0  0  0  0  0  0  0
    2.1850   17.8730   42.3650 C   0  0  0  0  0  0  0  0  0  0  0  0
    1.2810   17.4600   43.3250 C   0  0  0  0  0  0  0  0  0  0  0  0
    0.7690   21.3570   41.7700 C   0  0  0  0  0  0  0  0  0  0  0  0
   -0.3690   20.5170   44.2650 N   0  0  0  0  0  0  0  0  0  0  0  0
    1.0150   16.2420   43.9490 N   0  0  0  0  0  0  0  0  0  0  0  0
    2.1860   19.2190   41.9940 C   0  0  0  0  0  0  0  0  0  0  0  0
    1.1630   20.0620   42.4050 C   0  0  0  0  0  0  0  0  0  0  0  0
    4.0670   20.6610   41.9940 C   0  0  0  0  0  0  0  0  0  0  0  0
   -0.5400   15.4550   45.8490 C   0  0  0  0  0  0  0  0  0  0  0  0
   -0.9950   20.0870   45.3610 C   0  0  0  0  0  0  0  0  0  0  0  0
   -1.4119   18.3654   46.7132 H   0  0  0  0  0  0  0  0  0  0  0  0
    2.8853   17.1602   41.9052 H   0  0  0  0  0  0  0  0  0  0  0  0
    0.5442   22.0960   42.5532 H   0  0  0  0  0  0  0  0  0  0  0  0
    1.5957   21.7253   41.1448 H   0  0  0  0  0  0  0  0  0  0  0  0
   -0.1228   21.2025   41.1448 H   0  0  0  0  0  0  0  0  0  0  0  0
    3.9479   20.5182   43.0782 H   0  0  0  0  0  0  0  0  0  0  0  0
    5.1238   20.5257   41.7202 H   0  0  0  0  0  0  0  0  0  0  0  0
    3.7444   21.6764   41.7202 H   0  0  0  0  0  0  0  0  0  0  0  0
   -0.3741   15.7389   46.8987 H   0  0  0  0  0  0  0  0  0  0  0  0
   -1.6204   15.3863   45.6541 H   0  0  0  0  0  0  0  0  0  0  0  0
   -0.0695   14.4800   45.6541 H   0  0  0  0  0  0  0  0  0  0  0  0
   -1.5855   20.8011   45.9538 H   0  0  0  0  0  0  0  0  0  0  0  0
  1 12  1  0
  1 14  1  0
  2  5  2  0
  2 10  1  0
  4  3  2  0
  5  4  1  0
  6  4  1  0
  6 15  1  0
  7  8  2  0
  8  5  1  0
  8 11  1  0
  9 13  1  0
 10 16  2  0
 11  6  2  0
 12  7  1  0
 12 13  2  0
 13  2  1  0
 16  3  1  0
  3 17  1  0
  7 18  1  0
  9 19  1  0
  9 20  1  0
  9 21  1  0
 14 22  1  0
 14 23  1  0
 14 24  1  0
 15 25  1  0
 15 26  1  0
 15 27  1  0
 16 28  1  0
M  END
>  <mol_id>  (48) 
2026-09-18-6fnk-s0-n100-refligand-seed1-0048

>  <rmsd_to_ref>  (48) 


$$$$

     RDKit          3D

 21 21  0  0  0  0  0  0  0  0999 V2000
   -0.2900   20.1290   45.7770 O   0  0  0  0  0  1  0  0  0  0  0  0
    3.3050   14.8050   41.0850 N   0  0  0  0  0  0  0  0  0  0  0  0
   -0.0620   21.2010   43.1060 N   0  0  0  0  0  0  0  0  0  0  0  0
    1.6030   18.3620   42.2570 C   0  0  0  0  0  0  0  0  0  0  0  0
   -0.5950   19.5200   44.7330 C   0  0  0  0  0  0  0  0  0  0  0  0
   -1.4100   18.5960   44.7230 O   0  0  0  0  0  0  0  0  0  0  0  0
    1.8660   16.0590   42.3020 C   0  0  0  0  0  0  0  0  0  0  0  0
    3.2560   17.3340   40.9860 C   0  0  0  0  0  0  0  0  0  0  0  0
    0.8240   19.2400   42.7300 N   0  0  0  0  0  0  0  0  0  0  0  0
    2.7190   18.4480   41.4880 C   0  0  0  0  0  0  0  0  0  0  0  0
    0.0470   20.0020   43.5260 C   0  0  0  0  0  0  0  0  0  0  0  0
    1.2730   17.1610   42.6520 C   0  0  0  0  0  0  0  0  0  0  0  0
    2.7450   16.2000   41.2330 C   0  0  0  0  0  0  0  0  0  0  0  0
    2.7304   13.9895   41.3414 H   0  0  0  0  0  0  0  0  0  0  0  0
    4.2615   14.6692   40.7277 H   0  0  0  0  0  0  0  0  0  0  0  0
   -0.6314   21.8806   43.6303 H   0  0  0  0  0  0  0  0  0  0  0  0
    1.6884   15.0981   42.8071 H   0  0  0  0  0  0  0  0  0  0  0  0
    4.1517   17.4003   40.3510 H   0  0  0  0  0  0  0  0  0  0  0  0
    0.6652   19.7597   41.8550 H   0  0  0  0  0  0  0  0  0  0  0  0
    3.1762   19.4268   41.2807 H   0  0  0  0  0  0  0  0  0  0  0  0
    0.4193   17.0754   43.3404 H   0  0  0  0  0  0  0  0  0  0  0  0
  2 13  1  0
  3 11  2  3
  4 12  2  0
  4  9  1  0
  5  1  1  0
  6  5  2  0
  7 12  1  0
  8 13  1  0
  8 10  2  0
  9 11  1  0
 10  4  1  0
 11  5  1  0
 13  7  2  0
  2 14  1  0
  2 15  1  0
  3 16  1  0
  7 17  1  0
  8 18  1  0
  9 19  1  0
 10 20  1  0
 12 21  1  0
M  CHG  1   1  -1
M  END
>  <mol_id>  (49) 
2026-09-18-6fnk-s0-n100-refligand-seed1-0050

>  <rmsd_to_ref>  (49) 


$$$$

     RDKit          3D

 39 40  0  0  0  0  0  0  0  0999 V2000
    2.3540   18.4320   41.2950 C   0  0  0  0  0  0  0  0  0  0  0  0
   -0.7390   15.1180   44.9590 C   0  0  0  0  0  0  0  0  0  0  0  0
    0.8690   18.3420   42.7240 C   0  0  0  0  0  0  0  0  0  0  0  0
    0.8970   20.5970   42.6360 C   0  0  0  0  0  0  0  0  0  0  0  0
    2.2900   17.3450   40.5550 O   0  0  0  0  0  0  0  0  0  0  0  0
   -0.3930   19.7750   44.7940 C   0  0  0  0  0  0  0  0  0  0  0  0
   -1.3440   17.1280   45.1890 O   0  0  0  0  0  0  0  0  0  0  0  0
    0.3120   17.9320   43.7290 C   0  0  0  0  0  0  0  0  0  0  0  0
   -0.7700   16.2500   44.3290 C   0  0  0  0  0  0  0  0  0  0  0  0
    1.4320   18.8850   41.7310 C   0  0  0  0  0  0  0  0  0  0  0  0
   -0.7400   14.0100   43.9500 O   0  0  0  0  0  0  0  0  0  0  0  0
    0.8750   19.4420   42.4210 C   0  0  0  0  0  0  0  0  0  0  0  0
    1.0110   20.3340   41.9640 S   0  0  0  0  0  0  0  0  0  0  0  0
    0.0920   19.3130   43.8900 C   0  0  0  0  0  0  0  0  0  0  0  0
    0.1160   20.1450   43.2260 C   0  0  0  0  0  0  0  0  0  0  0  0
    2.8190   20.6010   40.4410 O   0  0  0  0  0  1  0  0  0  0  0  0
    2.9010   19.5310   40.3360 C   0  0  0  0  0  0  0  0  0  0  0  0
   -0.0740   15.3410   45.7090 C   0  0  0  0  0  0  0  0  0  0  0  0
    0.6780   16.6210   43.6280 C   0  0  0  0  0  0  0  0  0  0  0  0
    3.0840   19.0090   39.7030 O   0  0  0  0  0  0  0  0  0  0  0  0
    2.9373   18.1137   42.1716 H   0  0  0  0  0  0  0  0  0  0  0  0
   -1.5606   14.6546   45.5249 H   0  0  0  0  0  0  0  0  0  0  0  0
    0.6549   21.6651   42.5338 H   0  0  0  0  0  0  0  0  0  0  0  0
    1.8241   20.3715   43.1833 H   0  0  0  0  0  0  0  0  0  0  0  0
    2.2431   16.5488   41.1415 H   0  0  0  0  0  0  0  0  0  0  0  0
   -0.5310   20.8650   44.8474 H   0  0  0  0  0  0  0  0  0  0  0  0
   -0.7292   19.1367   45.6244 H   0  0  0  0  0  0  0  0  0  0  0  0
   -1.1598   16.8463   46.1200 H   0  0  0  0  0  0  0  0  0  0  0  0
   -1.3928   16.2520   43.4223 H   0  0  0  0  0  0  0  0  0  0  0  0
    1.5821   19.1867   40.6839 H   0  0  0  0  0  0  0  0  0  0  0  0
   -0.7408   13.1376   44.4179 H   0  0  0  0  0  0  0  0  0  0  0  0
    1.7831   19.6097   43.0187 H   0  0  0  0  0  0  0  0  0  0  0  0
   -0.2409   20.9767   43.8512 H   0  0  0  0  0  0  0  0  0  0  0  0
   -0.3756   19.6319   42.3863 H   0  0  0  0  0  0  0  0  0  0  0  0
   -0.5547   15.1798   46.6852 H   0  0  0  0  0  0  0  0  0  0  0  0
    0.8081   14.6895   45.6226 H   0  0  0  0  0  0  0  0  0  0  0  0
    0.2370   16.3926   45.6226 H   0  0  0  0  0  0  0  0  0  0  0  0
    0.7980   16.2546   42.5978 H   0  0  0  0  0  0  0  0  0  0  0  0
    1.6319   16.2502   44.0312 H   0  0  0  0  0  0  0  0  0  0  0  0
  1  5  1  0
  2 18  1  0
  3  8  2  0
  4 15  1  0
  8 14  1  0
  9  2  1  0
  9  7  1  0
 10  1  1  0
 10 12  1  0
 10  3  1  0
 11  2  1  0
 12 13  1  0
 12  3  1  0
 13  4  1  0
 14  6  2  3
 15 14  1  0
 17 16  1  0
 17  1  1  0
 19  8  1  0
 19  9  1  0
 20 17  2  0
  1 21  1  0
  2 22  1  0
  4 23  1  0
  4 24  1  0
  5 25  1  0
  6 26  1  0
  6 27  1  0
  7 28  1  0
  9 29  1  0
 10 30  1  0
 11 31  1  0
 12 32  1  0
 15 33  1  0
 15 34  1  0
 18 35  1  0
 18 36  1  0
 18 37  1  0
 19 38  1  0
 19 39  1  0
M  CHG  1  16  -1
M  END
>  <mol_id>  (50) 
2026-09-18-6fnk-s0-n100-refligand-seed1-0051

>  <rmsd_to_ref>  (50) 


$$$$

     RDKit          3D

 30 31  0  0  0  0  0  0  0  0999 V2000
    2.1760   19.4210   40.2790 C   0  0  0  0  0  0  0  0  0  0  0  0
   -0.1550   19.6090   43.9870 C   0  0  0  0  0  0  0  0  0  0  0  0
    0.5430   17.1910   44.3900 C   0  0  0  0  0  0  0  0  0  0  0  0
    1.1430   16.0560   43.8940 C   0  0  0  0  0  0  0  0  0  0  0  0
    3.5570   20.5320   41.8760 C   0  0  0  0  0  0  0  0  0  0  0  0
    1.5290   18.6440   41.2550 C   0  0  0  0  0  0  0  0  0  0  0  0
   -0.1780   16.8320   45.4690 O   0  0  0  0  0  0  0  0  0  0  0  0
    0.8020   18.5660   43.6750 C   0  0  0  0  0  0  0  0  0  0  0  0
    1.8100   18.9690   42.5360 C   0  0  0  0  0  0  0  0  0  0  0  0
    2.9530   19.7310   42.9080 C   0  0  0  0  0  0  0  0  0  0  0  0
    0.8820   15.0380   44.6920 O   0  0  0  0  0  0  0  0  0  0  0  0
    1.6760   15.7260   42.7170 O   0  0  0  0  0  0  0  0  0  0  0  0
   -0.0280   15.4580   45.6390 C   0  0  0  0  0  0  0  0  0  0  0  0
   -1.1670   19.5680   44.8780 O   0  0  0  0  0  1  0  0  0  0  0  0
    0.0530   20.7290   43.4280 O   0  0  0  0  0  0  0  0  0  0  0  0
    3.0310   20.4110   40.5780 C   0  0  0  0  0  0  0  0  0  0  0  0
    2.9770   21.2920   39.2710 C   0  0  0  0  0  0  0  0  0  0  0  0
    2.1110   19.4160   39.2010 N   0  0  0  0  0  0  0  0  0  0  0  0
    1.4200   17.3597   45.0322 H   0  0  0  0  0  0  0  0  0  0  0  0
    4.3951   21.2104   42.0938 H   0  0  0  0  0  0  0  0  0  0  0  0
    0.8406   17.8268   40.9938 H   0  0  0  0  0  0  0  0  0  0  0  0
    1.7377   18.0556   43.9469 H   0  0  0  0  0  0  0  0  0  0  0  0
    3.3543   19.7089   43.9319 H   0  0  0  0  0  0  0  0  0  0  0  0
    0.3485   15.2400   46.6493 H   0  0  0  0  0  0  0  0  0  0  0  0
   -0.9899   14.9376   45.5211 H   0  0  0  0  0  0  0  0  0  0  0  0
    2.9119   22.3547   39.5476 H   0  0  0  0  0  0  0  0  0  0  0  0
    3.8872   21.1228   38.6769 H   0  0  0  0  0  0  0  0  0  0  0  0
    2.0943   21.0130   38.6769 H   0  0  0  0  0  0  0  0  0  0  0  0
    1.5054   18.7324   38.7247 H   0  0  0  0  0  0  0  0  0  0  0  0
    2.6546   20.0948   38.6491 H   0  0  0  0  0  0  0  0  0  0  0  0
  1 16  2  0
  1  6  1  0
  2 14  1  0
  3  8  1  0
  3  7  1  0
  4  3  1  0
  4 11  1  0
  5 10  2  0
  6  9  2  0
  7 13  1  0
  8  2  1  0
  9 10  1  0
  9  8  1  0
 11 13  1  0
 12  4  2  0
 15  2  2  0
 16  5  1  0
 17 16  1  0
 18  1  1  0
  3 19  1  0
  5 20  1  0
  6 21  1  0
  8 22  1  0
 10 23  1  0
 13 24  1  0
 13 25  1  0
 17 26  1  0
 17 27  1  0
 17 28  1  0
 18 29  1  0
 18 30  1  0
M  CHG  1  14  -1
M  END
>  <mol_id>  (51) 
2026-09-18-6fnk-s0-n100-refligand-seed1-0052

>  <rmsd_to_ref>  (51) 


$$$$

     RDKit          3D

 29 31  0  0  0  0  0  0  0  0999 V2000
    2.7130   16.9980   41.1470 C   0  0  0  0  0  0  0  0  0  0  0  0
    2.7030   20.3410   40.7950 O   0  0  0  0  0  0  0  0  0  0  0  0
    2.3430   19.2750   41.1550 C   0  0  0  0  0  0  0  0  0  0  0  0
    0.6450   19.9520   42.8540 C   0  0  0  0  0  0  0  0  0  0  0  0
    1.8090   16.7320   42.1620 C   0  0  0  0  0  0  0  0  0  0  0  0
   -1.9720   16.3060   47.6080 C   0  0  0  0  0  0  0  0  0  0  0  0
    1.4620   19.1190   42.1970 C   0  0  0  0  0  0  0  0  0  0  0  0
   -1.0720   18.9810   45.7850 C   0  0  0  0  0  0  0  0  0  0  0  0
   -0.0470   17.0870   44.8040 C   0  0  0  0  0  0  0  0  0  0  0  0
    2.9920   18.1960   40.6400 N   0  0  0  0  0  0  0  0  0  0  0  0
    0.3700   17.9710   43.8610 C   0  0  0  0  0  0  0  0  0  0  0  0
   -1.3610   16.8660   46.7180 O   0  0  0  0  0  0  0  0  0  0  0  0
    0.5220   21.3700   42.4910 C   0  0  0  0  0  0  0  0  0  0  0  0
    1.2200   17.8850   42.6930 C   0  0  0  0  0  0  0  0  0  0  0  0
   -0.8120   17.6170   45.8090 C   0  0  0  0  0  0  0  0  0  0  0  0
   -0.7250   19.8470   44.8660 N   0  0  0  0  0  0  0  0  0  0  0  0
    0.0620   19.3750   43.9200 C   0  0  0  0  0  0  0  0  0  0  0  0
    3.2505   16.1384   40.7201 H   0  0  0  0  0  0  0  0  0  0  0  0
    1.0138   16.0862   41.7613 H   0  0  0  0  0  0  0  0  0  0  0  0
    2.3661   16.2454   42.9762 H   0  0  0  0  0  0  0  0  0  0  0  0
   -1.5967   16.6500   48.5831 H   0  0  0  0  0  0  0  0  0  0  0  0
   -3.0428   16.5429   47.5229 H   0  0  0  0  0  0  0  0  0  0  0  0
   -1.8291   15.2186   47.5229 H   0  0  0  0  0  0  0  0  0  0  0  0
   -1.6367   19.3817   46.6397 H   0  0  0  0  0  0  0  0  0  0  0  0
    0.2119   16.0187   44.7634 H   0  0  0  0  0  0  0  0  0  0  0  0
    0.4691   21.9793   43.4053 H   0  0  0  0  0  0  0  0  0  0  0  0
    1.3972   21.6739   41.8979 H   0  0  0  0  0  0  0  0  0  0  0  0
   -0.3924   21.5187   41.8979 H   0  0  0  0  0  0  0  0  0  0  0  0
    0.9722   19.5498   44.5124 H   0  0  0  0  0  0  0  0  0  0  0  0
  1  5  1  0
  2  3  2  0
  3  7  1  0
  5 14  1  0
  7 14  1  0
  7  4  2  0
  8 15  1  0
  9 15  2  0
 10  1  2  0
 10  3  1  0
 11 17  1  0
 11  9  1  0
 12  6  1  0
 13  4  1  0
 14 11  2  0
 15 12  1  0
 16  8  2  0
 17  4  1  0
 17 16  1  0
  1 18  1  0
  5 19  1  0
  5 20  1  0
  6 21  1  0
  6 22  1  0
  6 23  1  0
  8 24  1  0
  9 25  1  0
 13 26  1  0
 13 27  1  0
 13 28  1  0
 17 29  1  0
M  END
>  <mol_id>  (52) 
2026-09-18-6fnk-s0-n100-refligand-seed1-0053

>  <rmsd_to_ref>  (52) 


$$$$

     RDKit          3D

 50 52  0  0  0  0  0  0  0  0999 V2000
    3.0450   14.0870   38.1660 C   0  0  0  0  0  0  0  0  0  0  0  0
    1.8590   18.8450   41.5000 N   0  0  0  0  0  0  0  0  0  0  0  0
   -1.6070   17.5670   47.4170 C   0  0  0  0  0  0  0  0  0  0  0  0
    5.0170   15.1670   38.4460 O   0  0  0  0  0  0  0  0  0  0  0  0
    2.1900   19.6950   40.3840 C   0  0  0  0  0  0  0  0  0  0  0  0
    0.8340   20.9170   42.4340 C   0  0  0  0  0  0  0  0  0  0  0  0
    0.3090   20.0740   43.5330 C   0  0  0  0  0  0  0  0  0  0  0  0
   -2.1970   17.0290   48.4580 C   0  0  0  0  0  0  0  0  0  0  0  0
    2.4330   15.9270   39.6530 C   0  0  0  0  0  0  0  0  0  0  0  0
    1.7440   16.6950   42.6510 O   0  0  0  0  0  0  0  0  0  0  0  0
   -0.3450   20.6780   44.4890 C   0  0  0  0  0  0  0  0  0  0  0  0
   -0.8380   19.6440   45.4880 C   0  0  0  0  0  0  0  0  0  0  0  0
    1.1260   16.0800   39.7690 O   0  0  0  0  0  0  0  0  0  0  0  0
    0.6100   18.7130   43.4930 C   0  0  0  0  0  0  0  0  0  0  0  0
   -0.8590   17.2390   46.2910 C   0  0  0  0  0  0  0  0  0  0  0  0
    2.1210   17.3950   41.7370 C   0  0  0  0  0  0  0  0  0  0  0  0
    1.0490   19.2090   42.4980 C   0  0  0  0  0  0  0  0  0  0  0  0
    4.3150   14.6730   37.8860 C   0  0  0  0  0  0  0  0  0  0  0  0
   -0.3790   15.8890   45.9420 C   0  0  0  0  0  0  0  0  0  0  0  0
   -0.5160   18.3160   45.3040 C   0  0  0  0  0  0  0  0  0  0  0  0
    2.7850   16.6220   40.8800 O   0  0  0  0  0  0  0  0  0  0  0  0
    3.2780   12.5690   38.0580 C   0  0  0  0  0  0  0  0  0  0  0  0
    2.7040   14.4470   39.6120 C   0  0  0  0  0  0  0  0  0  0  0  0
    2.4560   18.9950   39.1200 C   0  0  0  0  0  0  0  0  0  0  0  0
    0.3090   17.8590   44.3470 C   0  0  0  0  0  0  0  0  0  0  0  0
    2.2387   14.4216   37.4967 H   0  0  0  0  0  0  0  0  0  0  0  0
   -1.7555   18.6566   47.4440 H   0  0  0  0  0  0  0  0  0  0  0  0
    1.3486   20.3844   40.2204 H   0  0  0  0  0  0  0  0  0  0  0  0
    3.1280   20.2017   40.6548 H   0  0  0  0  0  0  0  0  0  0  0  0
    1.6838   21.5939   42.6062 H   0  0  0  0  0  0  0  0  0  0  0  0
    0.4183   21.6408   41.7176 H   0  0  0  0  0  0  0  0  0  0  0  0
   -2.7281   17.6669   49.1798 H   0  0  0  0  0  0  0  0  0  0  0  0
   -2.1606   15.9400   48.6090 H   0  0  0  0  0  0  0  0  0  0  0  0
    2.9819   16.3038   38.7773 H   0  0  0  0  0  0  0  0  0  0  0  0
   -0.5124   21.7629   44.5598 H   0  0  0  0  0  0  0  0  0  0  0  0
   -1.4467   19.9526   46.3507 H   0  0  0  0  0  0  0  0  0  0  0  0
    0.8809   16.1087   40.7278 H   0  0  0  0  0  0  0  0  0  0  0  0
    4.6070   14.5718   36.8303 H   0  0  0  0  0  0  0  0  0  0  0  0
   -0.1774   15.3221   46.8629 H   0  0  0  0  0  0  0  0  0  0  0  0
   -1.1470   15.3681   45.3514 H   0  0  0  0  0  0  0  0  0  0  0  0
    0.5455   15.9698   45.3514 H   0  0  0  0  0  0  0  0  0  0  0  0
    3.3445   12.1356   39.0668 H   0  0  0  0  0  0  0  0  0  0  0  0
    2.4402   12.1072   37.5150 H   0  0  0  0  0  0  0  0  0  0  0  0
    4.2157   12.3797   37.5150 H   0  0  0  0  0  0  0  0  0  0  0  0
    1.8120   13.8918   39.9378 H   0  0  0  0  0  0  0  0  0  0  0  0
    3.5338   14.1843   40.2847 H   0  0  0  0  0  0  0  0  0  0  0  0
    2.8393   17.9862   39.3331 H   0  0  0  0  0  0  0  0  0  0  0  0
    1.5243   18.9183   38.5402 H   0  0  0  0  0  0  0  0  0  0  0  0
    3.2035   19.5564   38.5402 H   0  0  0  0  0  0  0  0  0  0  0  0
    0.6839   16.8252   44.3207 H   0  0  0  0  0  0  0  0  0  0  0  0
  1 22  1  0
  1 23  1  0
  2 16  1  0
  3  8  2  3
  5  2  1  0
  6 17  1  0
  7  6  1  0
  7 11  1  0
  9 13  1  0
  9 21  1  0
 11 12  2  0
 14  7  1  0
 14 25  2  0
 15  3  1  0
 16 10  2  0
 17  2  1  0
 17 14  1  0
 17  7  1  0
 18  1  1  0
 18  4  2  0
 19 15  1  0
 20 12  1  0
 20 15  2  3
 21 16  1  0
 23  9  1  0
 24  5  1  0
 25 20  1  0
  1 26  1  0
  3 27  1  0
  5 28  1  0
  5 29  1  0
  6 30  1  0
  6 31  1  0
  8 32  1  0
  8 33  1  0
  9 34  1  0
 11 35  1  0
 12 36  1  0
 13 37  1  0
 18 38  1  0
 19 39  1  0
 19 40  1  0
 19 41  1  0
 22 42  1  0
 22 43  1  0
 22 44  1  0
 23 45  1  0
 23 46  1  0
 24 47  1  0
 24 48  1  0
 24 49  1  0
 25 50  1  0
M  END
>  <mol_id>  (53) 
2026-09-18-6fnk-s0-n100-refligand-seed1-0054

>  <rmsd_to_ref>  (53) 


$$$$

     RDKit          3D

 13 13  0  0  0  0  0  0  0  0999 V2000
    1.1100   20.3080   42.3990 C   0  0  0  0  0  0  0  0  0  0  0  0
   -0.6330   19.8080   45.3970 O   0  0  0  0  0  0  0  0  0  0  0  0
   -0.1730   19.7180   44.3550 C   0  0  0  0  0  0  0  0  0  0  0  0
    1.7210   21.1380   41.5320 N   0  0  0  0  0  0  0  0  0  0  0  0
    2.8320   18.6710   41.8140 N   0  0  0  0  0  0  0  0  0  0  0  0
    1.7410   19.1570   42.3760 C   0  0  0  0  0  0  0  0  0  0  0  0
    0.9270   18.1180   43.5320 S   0  0  0  0  0  0  0  0  0  0  0  0
    0.1060   20.4960   43.3780 N   0  0  0  0  0  0  0  0  0  0  0  0
    2.4430   20.7751   40.8934 H   0  0  0  0  0  0  0  0  0  0  0  0
    1.4663   22.1357   41.5076 H   0  0  0  0  0  0  0  0  0  0  0  0
    3.1008   17.6898   41.9747 H   0  0  0  0  0  0  0  0  0  0  0  0
    3.4146   19.2730   41.2148 H   0  0  0  0  0  0  0  0  0  0  0  0
   -0.4617   21.3515   43.2954 H   0  0  0  0  0  0  0  0  0  0  0  0
  1  8  1  0
  3  2  2  0
  4  1  1  0
  5  6  1  0
  6  1  2  0
  6  7  1  0
  7  3  1  0
  8  3  1  0
  4  9  1  0
  4 10  1  0
  5 11  1  0
  5 12  1  0
  8 13  1  0
M  END
>  <mol_id>  (54) 
2026-09-18-6fnk-s0-n100-refligand-seed1-0055

>  <rmsd_to_ref>  (54) 


$$$$

     RDKit          3D

 41 44  0  0  0  0  0  0  0  0999 V2000
   -0.2680   20.3240   43.6770 C   0  0  0  0  0  0  0  0  0  0  0  0
   -0.8060   18.8950   45.5390 C   0  0  0  0  0  0  0  0  0  0  0  0
    3.5930   20.0900   42.8350 C   0  0  0  0  0  0  0  0  0  0  0  0
    2.5720   16.5400   41.7390 C   0  0  0  0  0  0  0  0  0  0  0  0
   -0.7920   17.6150   46.3180 C   0  0  0  0  0  0  0  0  0  0  0  0
    1.2870   19.5110   41.8970 C   0  0  0  0  0  0  0  0  0  0  0  0
   -0.5400   16.3880   45.5230 C   0  0  0  0  0  0  0  0  0  0  0  0
    0.4270   17.8810   43.7770 C   0  0  0  0  0  0  0  0  0  0  0  0
    3.6380   15.5940   39.9070 C   0  0  0  0  0  0  0  0  0  0  0  0
   -1.1960   19.9490   46.0420 O   0  0  0  0  0  0  0  0  0  0  0  0
    4.8110   20.7960   42.6970 C   0  0  0  0  0  0  0  0  0  0  0  0
    3.3820   14.3840   40.4720 C   0  0  0  0  0  0  0  0  0  0  0  0
    1.2340   18.1350   42.5070 C   0  0  0  0  0  0  0  0  0  0  0  0
    0.2600   20.5800   42.3830 C   0  0  0  0  0  0  0  0  0  0  0  0
    2.6900   20.0980   41.7900 C   0  0  0  0  0  0  0  0  0  0  0  0
    2.6820   14.2380   41.6590 N   0  0  0  0  0  0  0  0  0  0  0  0
   -0.2350   18.9980   44.3410 C   0  0  0  0  0  0  0  0  0  0  0  0
    3.0160   16.7760   40.4920 C   0  0  0  0  0  0  0  0  0  0  0  0
    5.0010   21.5310   41.5300 C   0  0  0  0  0  0  0  0  0  0  0  0
    2.5570   17.6370   42.6080 O   0  0  0  0  0  0  0  0  0  0  0  0
    2.2160   20.5380   39.5130 F   0  0  0  0  0  0  0  0  0  0  0  0
    3.0020   20.6720   40.5890 C   0  0  0  0  0  0  0  0  0  0  0  0
    0.5280   16.6080   44.4870 C   0  0  0  0  0  0  0  0  0  0  0  0
    4.1620   21.4220   40.4820 C   0  0  0  0  0  0  0  0  0  0  0  0
    2.2770   15.2970   42.3290 C   0  0  0  0  0  0  0  0  0  0  0  0
   -0.7301   21.1614   44.2203 H   0  0  0  0  0  0  0  0  0  0  0  0
    3.3681   19.5421   43.7620 H   0  0  0  0  0  0  0  0  0  0  0  0
   -0.0046   17.6917   47.0823 H   0  0  0  0  0  0  0  0  0  0  0  0
   -1.8038   17.5032   46.7347 H   0  0  0  0  0  0  0  0  0  0  0  0
   -0.2192   15.5833   46.2009 H   0  0  0  0  0  0  0  0  0  0  0  0
   -1.4714   16.1173   45.0042 H   0  0  0  0  0  0  0  0  0  0  0  0
    4.2976   15.6790   39.0308 H   0  0  0  0  0  0  0  0  0  0  0  0
    5.5799   20.7654   43.4830 H   0  0  0  0  0  0  0  0  0  0  0  0
    3.7473   13.4796   39.9635 H   0  0  0  0  0  0  0  0  0  0  0  0
   -0.0291   21.4526   41.7788 H   0  0  0  0  0  0  0  0  0  0  0  0
    2.9215   17.7429   39.9760 H   0  0  0  0  0  0  0  0  0  0  0  0
    5.8576   22.2178   41.4621 H   0  0  0  0  0  0  0  0  0  0  0  0
    0.4630   15.7958   43.7480 H   0  0  0  0  0  0  0  0  0  0  0  0
    1.4879   16.6233   45.0240 H   0  0  0  0  0  0  0  0  0  0  0  0
    4.3990   21.9311   39.5362 H   0  0  0  0  0  0  0  0  0  0  0  0
    1.7430   15.2152   43.2872 H   0  0  0  0  0  0  0  0  0  0  0  0
  1 17  2  0
  2 10  2  0
  2  5  1  0
  4 25  1  0
  4 20  1  0
  6 14  2  0
  6 13  1  0
  7  5  1  0
  8 17  1  0
  8 23  1  0
  9 12  2  0
  9 18  1  0
 11  3  2  0
 12 16  1  0
 13 20  1  0
 13  8  2  0
 14  1  1  0
 15  6  1  0
 15  3  1  0
 16 25  2  0
 17  2  1  0
 18  4  2  0
 19 11  1  0
 21 22  1  0
 22 15  2  0
 23  7  1  0
 24 22  1  0
 24 19  2  0
  1 26  1  0
  3 27  1  0
  5 28  1  0
  5 29  1  0
  7 30  1  0
  7 31  1  0
  9 32  1  0
 11 33  1  0
 12 34  1  0
 14 35  1  0
 18 36  1  0
 19 37  1  0
 23 38  1  0
 23 39  1  0
 24 40  1  0
 25 41  1  0
M  END
>  <mol_id>  (55) 
2026-09-18-6fnk-s0-n100-refligand-seed1-0056

>  <rmsd_to_ref>  (55) 


$$$$

     RDKit          3D

 16 16  0  0  0  0  0  0  0  0999 V2000
    1.1680   19.9050   42.5870 C   0  0  0  0  0  0  0  0  0  0  0  0
    2.1700   15.9010   42.8260 N   0  0  0  0  0  0  0  0  0  0  0  0
    0.4930   18.8850   43.2290 C   0  0  0  0  0  0  0  0  0  0  0  0
    1.7520   17.1420   42.8900 N   0  0  0  0  0  0  0  0  0  0  0  0
   -0.2390   17.1990   44.4510 C   0  0  0  0  0  0  0  0  0  0  0  0
    0.7390   17.6680   43.5520 C   0  0  0  0  0  0  0  0  0  0  0  0
   -0.6670   19.2180   43.9710 O   0  0  0  0  0  0  0  0  0  0  0  0
    0.6490   21.1990   42.3620 N   0  0  0  0  0  0  0  0  0  0  0  0
    2.2920   19.7260   42.1430 O   0  0  0  0  0  0  0  0  0  0  0  0
   -1.0130   18.2210   44.7440 N   0  0  0  0  0  0  0  0  0  0  0  0
    2.2946   15.5311   43.7792 H   0  0  0  0  0  0  0  0  0  0  0  0
    1.4749   15.3300   42.3243 H   0  0  0  0  0  0  0  0  0  0  0  0
    2.3019   17.8133   42.3352 H   0  0  0  0  0  0  0  0  0  0  0  0
   -0.3367   16.1728   44.8350 H   0  0  0  0  0  0  0  0  0  0  0  0
    1.2187   21.9047   41.8738 H   0  0  0  0  0  0  0  0  0  0  0  0
   -0.2993   21.4371   42.6861 H   0  0  0  0  0  0  0  0  0  0  0  0
  1  3  1  0
  2  4  1  0
  3  6  2  0
  3  7  1  0
  4  6  1  0
  5 10  2  0
  6  5  1  0
  7 10  1  0
  8  1  1  0
  9  1  2  0
  2 11  1  0
  2 12  1  0
  4 13  1  0
  5 14  1  0
  8 15  1  0
  8 16  1  0
M  END
>  <mol_id>  (56) 
2026-09-18-6fnk-s0-n100-refligand-seed1-0057

>  <rmsd_to_ref>  (56) 


$$$$

     RDKit          3D

 18 18  0  0  0  0  0  0  0  0999 V2000
    1.2540   17.9100   43.1070 C   0  0  0  0  0  0  0  0  0  0  0  0
    1.3710   20.0910   42.1500 C   0  0  0  0  0  0  0  0  0  0  0  0
   -0.1200   19.6480   44.0030 C   0  0  0  0  0  0  0  0  0  0  0  0
   -0.9200   20.0770   44.8920 O   0  0  0  0  0  0  0  0  0  0  0  0
    0.3080   18.3380   43.8510 C   0  0  0  0  0  0  0  0  0  0  0  0
    1.5570   19.0550   42.5960 C   0  0  0  0  0  0  0  0  0  0  0  0
    0.3200   20.6330   42.9770 C   0  0  0  0  0  0  0  0  0  0  0  0
    1.4430   16.4160   43.3670 C   0  0  0  0  0  0  0  0  0  0  0  0
    2.2768   20.7123   42.2088 H   0  0  0  0  0  0  0  0  0  0  0  0
    1.1007   20.0552   41.0843 H   0  0  0  0  0  0  0  0  0  0  0  0
   -0.2293   17.5795   44.4392 H   0  0  0  0  0  0  0  0  0  0  0  0
    2.1621   18.6659   41.7638 H   0  0  0  0  0  0  0  0  0  0  0  0
    1.3564   19.4959   43.5836 H   0  0  0  0  0  0  0  0  0  0  0  0
    0.6914   21.5364   43.4829 H   0  0  0  0  0  0  0  0  0  0  0  0
   -0.5396   20.8740   42.3343 H   0  0  0  0  0  0  0  0  0  0  0  0
    1.4662   16.2326   44.4514 H   0  0  0  0  0  0  0  0  0  0  0  0
    0.6084   15.8573   42.9184 H   0  0  0  0  0  0  0  0  0  0  0  0
    2.3905   16.0827   42.9184 H   0  0  0  0  0  0  0  0  0  0  0  0
  1  8  1  0
  1  5  2  0
  2  6  1  0
  2  7  1  0
  3  4  2  0
  5  3  1  0
  6  1  1  0
  7  3  1  0
  2  9  1  0
  2 10  1  0
  5 11  1  0
  6 12  1  0
  6 13  1  0
  7 14  1  0
  7 15  1  0
  8 16  1  0
  8 17  1  0
  8 18  1  0
M  END
>  <mol_id>  (57) 
2026-09-18-6fnk-s0-n100-refligand-seed1-0058

>  <rmsd_to_ref>  (57) 


$$$$

     RDKit          3D

 45 47  0  0  0  0  0  0  0  0999 V2000
    1.9100   18.9750   41.4080 C   0  0  0  0  0  0  0  0  0  0  0  0
    3.6850   21.2260   39.7280 C   0  0  0  0  0  0  0  0  0  0  0  0
   -0.4930   21.0290   44.8720 O   0  0  0  0  0  0  0  0  0  0  0  0
    0.4650   19.2650   43.3670 C   0  0  0  0  0  0  0  0  0  0  0  0
   -0.1050   20.6740   43.7410 C   0  0  0  0  0  0  0  0  0  0  0  0
    0.7510   15.3830   44.0090 C   0  0  0  0  0  0  0  0  0  0  0  0
   -0.2290   17.5350   45.0050 C   0  0  0  0  0  0  0  0  0  0  0  0
    2.3240   21.6300   39.3070 C   0  0  0  0  0  0  0  0  0  0  0  0
    1.0860   17.9040   43.1780 C   0  0  0  0  0  0  0  0  0  0  0  0
    3.5340   16.6770   40.5030 C   0  0  0  0  0  0  0  0  0  0  0  0
    1.9160   17.8200   41.9570 N   0  0  0  0  0  0  0  0  0  0  0  0
    2.9270   14.3520   42.0110 C   0  0  0  0  0  0  0  0  0  0  0  0
    2.7750   19.1590   40.3870 O   0  0  0  0  0  0  0  0  0  0  0  0
   -0.9430   16.8430   46.1650 C   0  0  0  0  0  0  0  0  0  0  0  0
    2.6800   20.2340   39.3970 C   0  0  0  0  0  0  0  0  0  0  0  0
    0.5580   16.8490   43.9920 C   0  0  0  0  0  0  0  0  0  0  0  0
   -0.3040   18.7260   44.8050 N   0  0  0  0  0  4  0  0  0  0  0  0
    1.2780   19.8580   42.0630 N   0  0  0  0  0  0  0  0  0  0  0  0
    2.4810   16.6330   41.5100 C   0  0  0  0  0  0  0  0  0  0  0  0
    2.2570   15.5000   42.1920 O   0  0  0  0  0  0  0  0  0  0  0  0
    3.0220   16.6370   39.1400 O   0  0  0  0  0  0  0  0  0  0  0  0
   -0.1460   21.6520   42.7950 N   0  0  0  0  0  0  0  0  0  0  0  0
    4.5421   21.3894   39.0582 H   0  0  0  0  0  0  0  0  0  0  0  0
    4.3295   21.4292   40.5959 H   0  0  0  0  0  0  0  0  0  0  0  0
    0.7973   15.0313   45.0502 H   0  0  0  0  0  0  0  0  0  0  0  0
   -0.0908   14.8964   43.4947 H   0  0  0  0  0  0  0  0  0  0  0  0
    1.6901   15.1308   43.4947 H   0  0  0  0  0  0  0  0  0  0  0  0
    2.1667   22.0968   38.3234 H   0  0  0  0  0  0  0  0  0  0  0  0
    1.5307   22.2627   39.7317 H   0  0  0  0  0  0  0  0  0  0  0  0
    1.9510   17.4704   43.7012 H   0  0  0  0  0  0  0  0  0  0  0  0
    4.1062   17.6071   40.6350 H   0  0  0  0  0  0  0  0  0  0  0  0
    4.1612   15.7845   40.6445 H   0  0  0  0  0  0  0  0  0  0  0  0
    3.1807   13.9174   42.9891 H   0  0  0  0  0  0  0  0  0  0  0  0
    2.2992   13.6459   41.4477 H   0  0  0  0  0  0  0  0  0  0  0  0
    3.8506   14.5514   41.4477 H   0  0  0  0  0  0  0  0  0  0  0  0
   -0.5489   17.2249   47.1183 H   0  0  0  0  0  0  0  0  0  0  0  0
   -2.0221   17.0479   46.1059 H   0  0  0  0  0  0  0  0  0  0  0  0
   -0.7720   15.7580   46.1059 H   0  0  0  0  0  0  0  0  0  0  0  0
    2.2622   19.4844   38.7088 H   0  0  0  0  0  0  0  0  0  0  0  0
    0.1301   19.2127   45.6022 H   0  0  0  0  0  0  0  0  0  0  0  0
   -1.3058   18.9389   44.6953 H   0  0  0  0  0  0  0  0  0  0  0  0
    1.6948   16.4195   40.7709 H   0  0  0  0  0  0  0  0  0  0  0  0
    2.0352   16.5599   39.1603 H   0  0  0  0  0  0  0  0  0  0  0  0
   -0.5194   22.5823   43.0318 H   0  0  0  0  0  0  0  0  0  0  0  0
    0.1963   21.4617   41.8424 H   0  0  0  0  0  0  0  0  0  0  0  0
  1 11  1  0
  1 18  2  0
  4  5  1  0
  4 17  1  0
  5  3  2  0
  7 14  1  0
  8 15  1  0
  8  2  1  0
  9  4  1  0
  9 16  1  0
 11  9  1  0
 12 20  1  0
 13  1  1  0
 15  2  1  0
 15 13  1  0
 16  6  1  0
 16  7  2  0
 17  7  1  0
 18  4  1  0
 19 10  1  0
 19 11  1  0
 19 20  1  0
 21 10  1  0
 22  5  1  0
  2 23  1  0
  2 24  1  0
  6 25  1  0
  6 26  1  0
  6 27  1  0
  8 28  1  0
  8 29  1  0
  9 30  1  0
 10 31  1  0
 10 32  1  0
 12 33  1  0
 12 34  1  0
 12 35  1  0
 14 36  1  0
 14 37  1  0
 14 38  1  0
 15 39  1  0
 17 40  1  0
 17 41  1  0
 19 42  1  0
 21 43  1  0
 22 44  1  0
 22 45  1  0
M  CHG  1  17   1
M  END
>  <mol_id>  (58) 
2026-09-18-6fnk-s0-n100-refligand-seed1-0059

>  <rmsd_to_ref>  (58) 


$$$$

     RDKit          3D

 28 29  0  0  0  0  0  0  0  0999 V2000
    2.6600   20.6350   41.3300 N   0  0  0  0  0  0  0  0  0  0  0  0
    1.4890   20.4700   42.0750 N   0  0  0  0  0  0  0  0  0  0  0  0
    0.9160   19.3080   42.4860 C   0  0  0  0  0  0  0  0  0  0  0  0
   -0.7120   18.0720   45.3650 C   0  0  0  0  0  0  0  0  0  0  0  0
   -0.1310   19.4420   43.3700 C   0  0  0  0  0  0  0  0  0  0  0  0
   -0.3780   20.2250   44.4150 N   0  0  0  0  0  0  0  0  0  0  0  0
   -0.2360   17.1880   44.4200 C   0  0  0  0  0  0  0  0  0  0  0  0
    2.5130   18.3120   41.3170 C   0  0  0  0  0  0  0  0  0  0  0  0
    2.9980   19.6180   41.4030 C   0  0  0  0  0  0  0  0  0  0  0  0
   -0.9200   15.6470   46.1150 C   0  0  0  0  0  0  0  0  0  0  0  0
   -0.9570   19.4200   45.3560 N   0  0  0  0  0  0  0  0  0  0  0  0
    3.3590   21.3320   40.8070 F   0  0  0  0  0  0  0  0  0  0  0  0
   -0.3560   15.8280   44.9410 C   0  0  0  0  0  0  0  0  0  0  0  0
    1.3460   18.0280   41.9670 C   0  0  0  0  0  0  0  0  0  0  0  0
   -1.2580   17.2780   46.7490 S   0  0  0  0  0  0  0  0  0  0  0  0
   -0.9863   19.6412   42.7076 H   0  0  0  0  0  0  0  0  0  0  0  0
    0.1351   18.5596   43.9704 H   0  0  0  0  0  0  0  0  0  0  0  0
    0.4986   20.6267   44.7772 H   0  0  0  0  0  0  0  0  0  0  0  0
    0.1683   17.4619   43.4343 H   0  0  0  0  0  0  0  0  0  0  0  0
    2.3595   18.0872   40.2512 H   0  0  0  0  0  0  0  0  0  0  0  0
    3.2721   17.6976   41.8233 H   0  0  0  0  0  0  0  0  0  0  0  0
    3.7936   19.6016   40.6435 H   0  0  0  0  0  0  0  0  0  0  0  0
    2.9162   19.6231   42.4999 H   0  0  0  0  0  0  0  0  0  0  0  0
   -1.1383   14.6866   46.6049 H   0  0  0  0  0  0  0  0  0  0  0  0
   -1.5826   19.8302   46.0640 H   0  0  0  0  0  0  0  0  0  0  0  0
    0.0187   14.9713   44.3616 H   0  0  0  0  0  0  0  0  0  0  0  0
    0.6000   17.6176   41.2705 H   0  0  0  0  0  0  0  0  0  0  0  0
    1.4730   17.2717   42.7556 H   0  0  0  0  0  0  0  0  0  0  0  0
  1  9  1  0
  1  2  1  0
  2  3  2  0
  3  5  1  0
  4 15  1  0
  5  6  1  0
  6 11  1  0
  7 13  1  0
  7  4  2  0
  8  9  1  0
  8 14  1  0
 10 15  1  0
 11  4  1  0
 12  1  1  0
 13 10  2  0
 14  3  1  0
  5 16  1  0
  5 17  1  0
  6 18  1  0
  7 19  1  0
  8 20  1  0
  8 21  1  0
  9 22  1  0
  9 23  1  0
 10 24  1  0
 11 25  1  0
 13 26  1  0
 14 27  1  0
 14 28  1  0
M  END
>  <mol_id>  (59) 
2026-09-18-6fnk-s0-n100-refligand-seed1-0060

>  <rmsd_to_ref>  (59) 


$$$$

     RDKit          3D

 23 22  0  0  0  0  0  0  0  0999 V2000
    2.0210   20.8250   40.7740 O   0  0  0  0  0  0  0  0  0  0  0  0
    0.1990   19.6500   44.7150 C   0  0  0  0  0  0  0  0  0  0  0  0
    0.5170   19.5030   43.2220 C   0  0  0  0  0  0  0  0  0  0  0  0
    1.2830   17.2080   43.6270 N   0  0  0  0  0  4  0  0  0  0  0  0
    1.6870   18.5190   43.0230 C   0  0  0  0  0  0  0  0  0  0  0  0
    1.9560   19.5840   41.0400 C   0  0  0  0  0  0  0  0  0  0  0  0
    1.9140   18.2500   41.5160 C   0  0  0  0  0  0  0  0  0  0  0  0
   -1.2260   19.4170   44.9990 O   0  0  0  0  0  0  0  0  0  0  0  0
    2.9920   17.2150   41.4860 O   0  0  0  0  0  0  0  0  0  0  0  0
    2.0481   21.3423   41.6176 H   0  0  0  0  0  0  0  0  0  0  0  0
    0.4636   20.6682   45.0362 H   0  0  0  0  0  0  0  0  0  0  0  0
    0.7832   18.8963   45.2634 H   0  0  0  0  0  0  0  0  0  0  0  0
   -0.3715   19.1226   42.6967 H   0  0  0  0  0  0  0  0  0  0  0  0
    0.8003   20.4854   42.8162 H   0  0  0  0  0  0  0  0  0  0  0  0
    1.3057   17.2817   44.6541 H   0  0  0  0  0  0  0  0  0  0  0  0
    0.3291   16.9684   43.3210 H   0  0  0  0  0  0  0  0  0  0  0  0
    1.9365   16.4731   43.3210 H   0  0  0  0  0  0  0  0  0  0  0  0
    2.5951   18.9414   43.4779 H   0  0  0  0  0  0  0  0  0  0  0  0
    0.9678   19.4908   40.5659 H   0  0  0  0  0  0  0  0  0  0  0  0
    2.9937   19.6427   41.4002 H   0  0  0  0  0  0  0  0  0  0  0  0
    1.2232   17.7665   40.8096 H   0  0  0  0  0  0  0  0  0  0  0  0
   -1.3678   19.3938   45.9785 H   0  0  0  0  0  0  0  0  0  0  0  0
    3.2435   16.9735   42.4126 H   0  0  0  0  0  0  0  0  0  0  0  0
  1  6  1  0
  2  8  1  0
  3  2  1  0
  5  3  1  0
  5  4  1  0
  6  7  1  0
  7  9  1  0
  7  5  1  0
  1 10  1  0
  2 11  1  0
  2 12  1  0
  3 13  1  0
  3 14  1  0
  4 15  1  0
  4 16  1  0
  4 17  1  0
  5 18  1  0
  6 19  1  0
  6 20  1  0
  7 21  1  0
  8 22  1  0
  9 23  1  0
M  CHG  1   4   1
M  END
>  <mol_id>  (60) 
2026-09-18-6fnk-s0-n100-refligand-seed1-0061

>  <rmsd_to_ref>  (60) 


$$$$

     RDKit          3D

 18 18  0  0  0  0  0  0  0  0999 V2000
    0.1190   19.6630   44.4280 C   0  0  0  0  0  0  0  0  0  0  0  0
    1.2380   18.4600   42.5560 C   0  0  0  0  0  0  0  0  0  0  0  0
    3.5990   16.6750   41.6360 O   0  0  0  0  0  1  0  0  0  0  0  0
    0.6650   20.7760   42.2660 C   0  0  0  0  0  0  0  0  0  0  0  0
    0.3220   18.7960   45.1860 O   0  0  0  0  0  1  0  0  0  0  0  0
    1.9970   19.6470   40.5560 C   0  0  0  0  0  0  0  0  0  0  0  0
    2.4880   16.9250   39.7790 O   0  0  0  0  0  0  0  0  0  0  0  0
    2.7790   17.2020   40.9150 C   0  0  0  0  0  0  0  0  0  0  0  0
    1.3030   20.7730   41.0190 C   0  0  0  0  0  0  0  0  0  0  0  0
   -0.5880   20.6160   44.7300 O   0  0  0  0  0  0  0  0  0  0  0  0
    1.3440   17.3340   43.1990 N   0  0  0  0  0  0  0  0  0  0  0  0
    2.0470   18.5930   41.3740 C   0  0  0  0  0  0  0  0  0  0  0  0
    0.6880   19.6840   43.0380 C   0  0  0  0  0  0  0  0  0  0  0  0
    0.1428   21.6803   42.6118 H   0  0  0  0  0  0  0  0  0  0  0  0
    2.4773   19.6323   39.5665 H   0  0  0  0  0  0  0  0  0  0  0  0
    1.2583   21.6740   40.3895 H   0  0  0  0  0  0  0  0  0  0  0  0
    1.7635   16.5146   42.7369 H   0  0  0  0  0  0  0  0  0  0  0  0
    1.0084   17.2619   44.1701 H   0  0  0  0  0  0  0  0  0  0  0  0
  1 10  2  0
  1  5  1  0
  2 13  2  0
  2 11  1  0
  4 13  1  0
  6  9  1  0
  6 12  2  0
  7  8  2  0
  8 12  1  0
  8  3  1  0
  9  4  2  0
 12  2  1  0
 13  1  1  0
  4 14  1  0
  6 15  1  0
  9 16  1  0
 11 17  1  0
 11 18  1  0
M  CHG  2   3  -1   5  -1
M  END
>  <mol_id>  (61) 
2026-09-18-6fnk-s0-n100-refligand-seed1-0062

>  <rmsd_to_ref>  (61) 


$$$$

     RDKit          3D

 13 13  0  0  0  0  0  0  0  0999 V2000
   -0.7680   19.5110   45.7280 O   0  0  0  0  0  0  0  0  0  0  0  0
   -0.1480   18.5860   45.0730 C   0  0  0  0  0  0  0  0  0  0  0  0
    0.7670   16.7200   44.4680 N   0  0  0  0  0  0  0  0  0  0  0  0
    2.4150   19.9450   41.1590 O   0  0  0  0  0  0  0  0  0  0  0  0
    1.2130   17.6740   43.6040 O   0  0  0  0  0  0  0  0  0  0  0  0
    0.6150   18.8280   43.9330 C   0  0  0  0  0  0  0  0  0  0  0  0
    2.0160   19.1700   42.1700 O   0  0  0  0  0  0  0  0  0  0  0  0
    0.0190   17.2350   45.2880 C   0  0  0  0  0  0  0  0  0  0  0  0
    0.8860   19.8390   43.0870 C   0  0  0  0  0  0  0  0  0  0  0  0
    0.6810   20.9800   42.6750 O   0  0  0  0  0  0  0  0  0  0  0  0
   -0.7648   20.4423   45.3921 H   0  0  0  0  0  0  0  0  0  0  0  0
    2.8372   20.7651   41.5186 H   0  0  0  0  0  0  0  0  0  0  0  0
   -0.4660   16.6815   46.1055 H   0  0  0  0  0  0  0  0  0  0  0  0
  2  8  1  0
  2  1  1  0
  3  8  2  0
  4  7  1  0
  5  6  1  0
  5  3  1  0
  6  2  2  0
  7  9  1  0
  9  6  1  0
 10  9  2  0
  1 11  1  0
  4 12  1  0
  8 13  1  0
M  END
>  <mol_id>  (62) 
2026-09-18-6fnk-s0-n100-refligand-seed1-0063

>  <rmsd_to_ref>  (62) 


$$$$

     RDKit          3D

 42 44  0  0  0  0  0  0  0  0999 V2000
    0.3530   18.1510   43.7220 C   0  0  0  0  0  0  0  0  0  0  0  0
    3.3060   20.8470   38.3830 C   0  0  0  0  0  0  0  0  0  0  0  0
   -1.0990   17.8990   46.3800 C   0  0  0  0  0  0  0  0  0  0  0  0
    0.8560   15.3410   42.4880 O   0  0  0  0  0  0  0  0  0  0  0  0
   -0.8590   18.9300   45.6280 N   0  0  0  0  0  0  0  0  0  0  0  0
    1.2930   17.7670   41.4480 N   0  0  0  0  0  0  0  0  0  0  0  0
   -0.2500   19.1750   44.4980 C   0  0  0  0  0  0  0  0  0  0  0  0
    0.0740   16.9880   44.1330 C   0  0  0  0  0  0  0  0  0  0  0  0
   -0.2870   16.2280   45.1520 C   0  0  0  0  0  0  0  0  0  0  0  0
   -1.4680   15.6050   47.3380 C   0  0  0  0  0  0  0  0  0  0  0  0
    1.9510   19.4830   42.6690 N   0  0  0  0  0  0  0  0  0  0  0  0
    4.2620   19.8410   42.1470 F   0  0  0  0  0  0  0  0  0  0  0  0
    1.9400   17.6180   39.1400 C   0  0  0  0  0  0  0  0  0  0  0  0
    2.1660   15.7860   37.8850 O   0  0  0  0  0  0  0  0  0  0  0  0
    0.4950   16.2760   43.1440 C   0  0  0  0  0  0  0  0  0  0  0  0
    1.7050   18.2940   38.1830 O   0  0  0  0  0  0  0  0  0  0  0  0
    2.5030   19.4830   40.5070 C   0  0  0  0  0  0  0  0  0  0  0  0
    4.8050   21.7940   40.0420 N   0  0  0  0  0  0  0  0  0  0  0  0
    2.3320   16.2910   39.1440 N   0  0  0  0  0  0  0  0  0  0  0  0
    1.1450   18.4450   42.5600 C   0  0  0  0  0  0  0  0  0  0  0  0
    2.9200   19.5970   41.7780 C   0  0  0  0  0  0  0  0  0  0  0  0
    3.8990   21.2410   39.3970 C   0  0  0  0  0  0  0  0  0  0  0  0
    2.6220   20.6030   39.5220 C   0  0  0  0  0  0  0  0  0  0  0  0
   -0.1740   20.3110   44.1480 O   0  0  0  0  0  0  0  0  0  0  0  0
   -0.9590   16.6050   46.2840 C   0  0  0  0  0  0  0  0  0  0  0  0
    1.8600   18.2890   40.3290 C   0  0  0  0  0  0  0  0  0  0  0  0
   -0.5558   18.1500   43.1023 H   0  0  0  0  0  0  0  0  0  0  0  0
    2.9108   21.5926   37.6774 H   0  0  0  0  0  0  0  0  0  0  0  0
    3.6186   20.1886   37.5591 H   0  0  0  0  0  0  0  0  0  0  0  0
   -1.5321   18.1919   47.3478 H   0  0  0  0  0  0  0  0  0  0  0  0
   -0.0149   15.1644   45.0825 H   0  0  0  0  0  0  0  0  0  0  0  0
   -1.2671   15.9996   48.3449 H   0  0  0  0  0  0  0  0  0  0  0  0
   -2.5507   15.4578   47.2111 H   0  0  0  0  0  0  0  0  0  0  0  0
   -0.9499   14.6430   47.2111 H   0  0  0  0  0  0  0  0  0  0  0  0
    1.8299   20.1779   43.4196 H   0  0  0  0  0  0  0  0  0  0  0  0
    1.8574   14.8472   37.9441 H   0  0  0  0  0  0  0  0  0  0  0  0
    3.4985   19.1187   40.2131 H   0  0  0  0  0  0  0  0  0  0  0  0
    4.7603   21.8242   41.0706 H   0  0  0  0  0  0  0  0  0  0  0  0
    2.6888   15.7714   39.9586 H   0  0  0  0  0  0  0  0  0  0  0  0
    3.1071   18.5136   41.8138 H   0  0  0  0  0  0  0  0  0  0  0  0
    1.5492   20.7029   39.7435 H   0  0  0  0  0  0  0  0  0  0  0  0
    0.9832   18.3037   39.6649 H   0  0  0  0  0  0  0  0  0  0  0  0
  1 20  1  0
  1  8  1  0
  1  7  1  0
  2 22  1  0
  4 15  2  0
  5  3  2  0
  6 20  2  0
  7  5  1  0
  8  9  1  0
  9 25  2  0
 13 19  1  0
 14 19  1  0
 15  8  2  0
 16 13  2  0
 17 23  1  0
 17 21  1  0
 20 11  1  0
 21 12  1  0
 21 11  1  0
 22 23  1  0
 22 18  2  3
 23  2  1  0
 24  7  2  0
 25  3  1  0
 25 10  1  0
 26 13  1  0
 26 17  1  0
 26  6  1  0
  1 27  1  0
  2 28  1  0
  2 29  1  0
  3 30  1  0
  9 31  1  0
 10 32  1  0
 10 33  1  0
 10 34  1  0
 11 35  1  0
 14 36  1  0
 17 37  1  0
 18 38  1  0
 19 39  1  0
 21 40  1  0
 23 41  1  0
 26 42  1  0
M  END
>  <mol_id>  (63) 
2026-09-18-6fnk-s0-n100-refligand-seed1-0064

>  <rmsd_to_ref>  (63) 


$$$$

     RDKit          3D

 57 61  0  0  0  0  0  0  0  0999 V2000
   -0.5850   20.2320   45.1430 N   0  0  0  0  0  0  0  0  0  0  0  0
   -0.0210   15.0970   43.0880 O   0  0  0  0  0  0  0  0  0  0  0  0
   -0.2320   21.1280   44.1000 C   0  0  0  0  0  0  0  0  0  0  0  0
    3.1580   20.7090   38.6270 C   0  0  0  0  0  0  0  0  0  0  0  0
    4.0700   16.9820   35.2050 O   0  0  0  0  0  0  0  0  0  0  0  0
    0.4780   18.4710   43.7280 C   0  0  0  0  0  0  0  0  0  0  0  0
    1.8140   16.9510   37.9770 C   0  0  0  0  0  0  0  0  0  0  0  0
    0.8760   19.4150   42.8320 C   0  0  0  0  0  0  0  0  0  0  0  0
    1.7010   17.6500   41.5310 C   0  0  0  0  0  0  0  0  0  0  0  0
    3.0510   16.6510   36.1420 C   0  0  0  0  0  0  0  0  0  0  0  0
    2.5520   20.9110   41.2260 O   0  0  0  0  0  0  0  0  0  0  0  0
    2.6250   19.4290   38.6330 C   0  0  0  0  0  0  0  0  0  0  0  0
    2.6050   17.5060   37.1390 C   0  0  0  0  0  0  0  0  0  0  0  0
    0.4470   20.7070   43.0010 C   0  0  0  0  0  0  0  0  0  0  0  0
    0.0140   16.2170   45.0440 N   0  0  0  0  0  0  0  0  0  0  0  0
   -1.5820   14.7290   46.6200 C   0  0  0  0  0  0  0  0  0  0  0  0
    1.4040   17.1360   42.3260 C   0  0  0  0  0  0  0  0  0  0  0  0
   -0.1600   18.9230   44.9270 C   0  0  0  0  0  0  0  0  0  0  0  0
    1.5890   18.9360   41.6800 C   0  0  0  0  0  0  0  0  0  0  0  0
    1.5470   16.7150   41.0590 N   0  0  0  0  0  4  0  0  0  0  0  0
   -1.6090   16.1830   46.7020 C   0  0  0  0  0  0  0  0  0  0  0  0
    0.6770   17.2530   43.2010 N   0  0  0  0  0  0  0  0  0  0  0  0
   -0.9750   16.7730   45.5850 O   0  0  0  0  0  0  0  0  0  0  0  0
    2.8790   18.7940   37.3720 N   0  0  0  0  0  0  0  0  0  0  0  0
    1.5570   17.7720   39.1310 N   0  0  0  0  0  0  0  0  0  0  0  0
   -1.8170   16.8030   47.9540 C   0  0  0  0  0  0  0  0  0  0  0  0
   -1.9450   15.5530   48.7800 C   0  0  0  0  0  0  0  0  0  0  0  0
    2.1150   18.8050   39.5750 C   0  0  0  0  0  0  0  0  0  0  0  0
    1.4880   15.7500   37.6980 O   0  0  0  0  0  0  0  0  0  0  0  0
   -2.1260   14.3120   47.8780 C   0  0  0  0  0  0  0  0  0  0  0  0
    2.0590   19.8140   40.9770 C   0  0  0  0  0  0  0  0  0  0  0  0
    2.1660   15.7700   35.2900 O   0  0  0  0  0  1  0  0  0  0  0  0
    0.1640   16.1800   43.6820 C   0  0  0  0  0  0  0  0  0  0  0  0
   -0.5148   22.1878   44.1835 H   0  0  0  0  0  0  0  0  0  0  0  0
    3.3007   21.0516   39.6625 H   0  0  0  0  0  0  0  0  0  0  0  0
    4.1272   20.7002   38.1069 H   0  0  0  0  0  0  0  0  0  0  0  0
    2.4690   21.3907   38.1069 H   0  0  0  0  0  0  0  0  0  0  0  0
    2.4133   18.2022   40.9004 H   0  0  0  0  0  0  0  0  0  0  0  0
    3.4546   17.2107   37.7723 H   0  0  0  0  0  0  0  0  0  0  0  0
    0.6633   21.4379   42.2079 H   0  0  0  0  0  0  0  0  0  0  0  0
    0.7304   15.7778   45.6396 H   0  0  0  0  0  0  0  0  0  0  0  0
   -2.2026   14.3708   45.7854 H   0  0  0  0  0  0  0  0  0  0  0  0
   -0.5738   14.3293   46.4360 H   0  0  0  0  0  0  0  0  0  0  0  0
    1.6443   16.8152   43.3504 H   0  0  0  0  0  0  0  0  0  0  0  0
   -0.3254   18.1893   45.7297 H   0  0  0  0  0  0  0  0  0  0  0  0
    2.4990   18.9437   42.2979 H   0  0  0  0  0  0  0  0  0  0  0  0
    0.7367   16.5395   40.4479 H   0  0  0  0  0  0  0  0  0  0  0  0
    2.0609   16.0097   40.5119 H   0  0  0  0  0  0  0  0  0  0  0  0
   -2.6081   16.6262   46.5777 H   0  0  0  0  0  0  0  0  0  0  0  0
    0.7626   17.4500   39.7022 H   0  0  0  0  0  0  0  0  0  0  0  0
   -0.9606   17.4211   48.2615 H   0  0  0  0  0  0  0  0  0  0  0  0
   -2.6571   17.5108   48.0115 H   0  0  0  0  0  0  0  0  0  0  0  0
   -1.0361   15.4277   49.3867 H   0  0  0  0  0  0  0  0  0  0  0  0
   -2.8291   15.6487   49.4274 H   0  0  0  0  0  0  0  0  0  0  0  0
    2.2922   18.0906   40.3925 H   0  0  0  0  0  0  0  0  0  0  0  0
   -3.1898   14.0502   47.7787 H   0  0  0  0  0  0  0  0  0  0  0  0
   -1.6334   13.4147   48.2808 H   0  0  0  0  0  0  0  0  0  0  0  0
  2 33  2  0
  3  1  2  0
  4 12  1  0
  5 10  2  0
  6 18  2  0
  7 25  1  0
  8 14  2  0
  8  6  1  0
  9 20  1  0
  9 19  1  0
  9 17  1  0
 12 28  1  0
 13 10  1  0
 13 24  1  0
 13  7  1  0
 14  3  1  0
 15 23  1  0
 16 21  1  0
 16 30  1  0
 17 20  1  0
 17 22  1  0
 18  1  1  0
 19 31  1  0
 19  8  1  0
 21 26  1  0
 22 33  1  0
 22  6  1  0
 23 21  1  0
 24 12  2  0
 25 28  1  0
 26 27  1  0
 28 31  1  0
 29  7  2  0
 30 27  1  0
 31 11  2  0
 32 10  1  0
 33 15  1  0
  3 34  1  0
  4 35  1  0
  4 36  1  0
  4 37  1  0
  9 38  1  0
 13 39  1  0
 14 40  1  0
 15 41  1  0
 16 42  1  0
 16 43  1  0
 17 44  1  0
 18 45  1  0
 19 46  1  0
 20 47  1  0
 20 48  1  0
 21 49  1  0
 25 50  1  0
 26 51  1  0
 26 52  1  0
 27 53  1  0
 27 54  1  0
 28 55  1  0
 30 56  1  0
 30 57  1  0
M  CHG  2  20   1  32  -1
M  END
>  <mol_id>  (64) 
2026-09-18-6fnk-s0-n100-refligand-seed1-0065

>  <rmsd_to_ref>  (64) 


$$$$

     RDKit          3D

 56 58  0  0  0  0  0  0  0  0999 V2000
    0.7360   16.5250   43.3100 C   0  0  0  0  0  0  0  0  0  0  0  0
    2.8710   19.1250   40.1390 C   0  0  0  0  0  0  0  0  0  0  0  0
    0.1460   15.2980   44.0020 C   0  0  0  0  0  0  0  0  0  0  0  0
   -0.9800   17.0130   45.5450 C   0  0  0  0  0  0  0  0  0  0  0  0
   -0.0480   13.7110   44.0740 C   0  0  0  0  0  0  0  0  0  0  0  0
   -0.4780   19.3400   45.2070 C   0  0  0  0  0  0  0  0  0  0  0  0
    1.5600   20.2630   39.0380 O   0  0  0  0  0  0  0  0  0  0  0  0
    1.6280   13.3510   43.3450 C   0  0  0  0  0  0  0  0  0  0  0  0
    1.9950   19.0150   41.9770 C   0  0  0  0  0  0  0  0  0  0  0  0
   -0.3840   18.0800   44.7850 C   0  0  0  0  0  0  0  0  0  0  0  0
    1.9060   14.4360   41.0470 C   0  0  0  0  0  0  0  0  0  0  0  0
    1.4300   20.3940   41.0000 O   0  0  0  0  0  0  0  0  0  0  0  0
   -0.5680   15.8100   45.0830 C   0  0  0  0  0  0  0  0  0  0  0  0
    1.3900   14.2870   42.3550 N   0  0  0  0  0  4  0  0  0  0  0  0
    2.3040   17.7690   40.8220 C   0  0  0  0  0  0  0  0  0  0  0  0
    2.0150   20.4080   40.1160 C   0  0  0  0  0  0  0  0  0  0  0  0
    0.5630   20.1790   43.1250 O   0  0  0  0  0  0  0  0  0  0  0  0
   -0.4740   20.3160   45.5890 N   0  0  0  0  0  0  0  0  0  0  0  0
    0.9130   19.0220   42.9300 N   0  0  0  0  0  0  0  0  0  0  0  0
    3.1120   16.4220   40.6750 C   0  0  0  0  0  0  0  0  0  0  0  0
    2.5330   15.5380   40.1290 C   0  0  0  0  0  0  0  0  0  0  0  0
    4.4900   21.4580   40.4670 C   0  0  0  0  0  0  0  0  0  0  0  0
    4.0170   18.7530   39.5930 C   0  0  0  0  0  0  0  0  0  0  0  0
    0.3190   17.8940   43.6710 C   0  0  0  0  0  0  0  0  0  0  0  0
    0.6830   12.7360   44.0660 C   0  0  0  0  0  0  0  0  0  0  0  0
    3.8960   20.5740   39.4490 C   0  0  0  0  0  0  0  0  0  0  0  0
    1.4910   16.3849   42.5224 H   0  0  0  0  0  0  0  0  0  0  0  0
    2.3452   18.8748   39.2058 H   0  0  0  0  0  0  0  0  0  0  0  0
   -1.6748   17.1559   46.3857 H   0  0  0  0  0  0  0  0  0  0  0  0
   -0.6053   13.5823   45.0136 H   0  0  0  0  0  0  0  0  0  0  0  0
   -0.3308   13.6128   43.0155 H   0  0  0  0  0  0  0  0  0  0  0  0
    0.6195   19.9633   39.1143 H   0  0  0  0  0  0  0  0  0  0  0  0
    2.2722   13.8580   44.0785 H   0  0  0  0  0  0  0  0  0  0  0  0
    1.9912   12.5092   42.7371 H   0  0  0  0  0  0  0  0  0  0  0  0
    2.9260   18.9551   42.5598 H   0  0  0  0  0  0  0  0  0  0  0  0
    2.6920   13.6665   41.0330 H   0  0  0  0  0  0  0  0  0  0  0  0
    0.9047   14.5707   40.6120 H   0  0  0  0  0  0  0  0  0  0  0  0
   -0.8903   15.0019   45.7561 H   0  0  0  0  0  0  0  0  0  0  0  0
    1.6208   15.1823   42.8089 H   0  0  0  0  0  0  0  0  0  0  0  0
    0.4671   13.9258   42.0744 H   0  0  0  0  0  0  0  0  0  0  0  0
    1.5475   16.9889   40.6512 H   0  0  0  0  0  0  0  0  0  0  0  0
    2.4187   21.4289   40.1851 H   0  0  0  0  0  0  0  0  0  0  0  0
    0.5117   20.3485   44.0990 H   0  0  0  0  0  0  0  0  0  0  0  0
    4.0258   16.6350   40.1009 H   0  0  0  0  0  0  0  0  0  0  0  0
    3.3061   16.0709   41.6992 H   0  0  0  0  0  0  0  0  0  0  0  0
    1.7179   15.9861   39.5417 H   0  0  0  0  0  0  0  0  0  0  0  0
    3.2965   15.0173   39.5324 H   0  0  0  0  0  0  0  0  0  0  0  0
    4.2382   21.0832   41.4701 H   0  0  0  0  0  0  0  0  0  0  0  0
    5.5831   21.4745   40.3455 H   0  0  0  0  0  0  0  0  0  0  0  0
    4.0922   22.4763   40.3455 H   0  0  0  0  0  0  0  0  0  0  0  0
    4.7916   18.3413   40.2567 H   0  0  0  0  0  0  0  0  0  0  0  0
    4.2071   18.0019   38.8121 H   0  0  0  0  0  0  0  0  0  0  0  0
    0.2433   11.8661   43.5561 H   0  0  0  0  0  0  0  0  0  0  0  0
    0.9664   12.2832   45.0276 H   0  0  0  0  0  0  0  0  0  0  0  0
    4.3632   20.8434   38.4903 H   0  0  0  0  0  0  0  0  0  0  0  0
    2.8179   20.7547   39.5719 H   0  0  0  0  0  0  0  0  0  0  0  0
  1 24  2  0
  1  3  1  0
  2 23  1  0
  2 15  1  0
  3  5  1  0
  3 13  2  0
  6 18  3  0
  8 25  1  0
  9 12  1  0
  9 19  1  0
 10  6  1  0
 10  4  2  0
 11 14  1  0
 13  4  1  0
 14  8  1  0
 15 20  1  0
 15  9  1  0
 16  7  1  0
 16  2  1  0
 16 12  1  0
 19 17  1  0
 19 24  1  0
 21 20  1  0
 21 11  1  0
 24 10  1  0
 25  5  1  0
 26 23  1  0
 26 22  1  0
  1 27  1  0
  2 28  1  0
  4 29  1  0
  5 30  1  0
  5 31  1  0
  7 32  1  0
  8 33  1  0
  8 34  1  0
  9 35  1  0
 11 36  1  0
 11 37  1  0
 13 38  1  0
 14 39  1  0
 14 40  1  0
 15 41  1  0
 16 42  1  0
 17 43  1  0
 20 44  1  0
 20 45  1  0
 21 46  1  0
 21 47  1  0
 22 48  1  0
 22 49  1  0
 22 50  1  0
 23 51  1  0
 23 52  1  0
 25 53  1  0
 25 54  1  0
 26 55  1  0
 26 56  1  0
M  CHG  1  14   1
M  END
>  <mol_id>  (65) 
2026-09-18-6fnk-s0-n100-refligand-seed1-0066

>  <rmsd_to_ref>  (65) 


$$$$

     RDKit          3D

 63 66  0  0  0  0  0  0  0  0999 V2000
    1.6450   17.8020   41.9480 C   0  0  0  0  0  0  0  0  0  0  0  0
   -2.0350   15.4460   47.3410 C   0  0  0  0  0  0  0  0  0  0  0  0
   -0.2570   17.2130   45.2620 C   0  0  0  0  0  0  0  0  0  0  0  0
    5.5970   21.8640   38.9280 C   0  0  0  0  0  0  0  0  0  0  0  0
    3.4860   15.0260   40.0280 C   0  0  0  0  0  0  0  0  0  0  0  0
    0.3730   17.8580   44.0890 C   0  0  0  0  0  0  0  0  0  0  0  0
    1.1840   17.2260   43.2410 C   0  0  0  0  0  0  0  0  0  0  0  0
    3.1140   13.7410   40.7710 C   0  0  0  0  0  0  0  0  0  0  0  0
    0.0440   15.9790   45.5240 C   0  0  0  0  0  0  0  0  0  0  0  0
   -0.6700   20.0720   44.2760 C   0  0  0  0  0  0  0  0  0  0  0  0
    4.3530   21.9690   39.6330 O   0  0  0  0  0  0  0  0  0  0  0  0
    3.1970   20.7400   37.9650 N   0  0  0  0  0  0  0  0  0  0  0  0
    1.7030   16.6660   40.8470 C   0  0  0  0  0  0  0  0  0  0  0  0
    1.4070   15.7520   43.5410 C   0  0  0  0  0  0  0  0  0  0  0  0
    1.1160   15.2490   44.8200 C   0  0  0  0  0  0  0  0  0  0  0  0
    4.1290   20.5680   41.9260 C   0  0  0  0  0  0  0  0  0  0  0  0
    3.3000   21.0670   39.1670 C   0  0  0  0  0  0  0  0  0  0  0  0
    2.9160   14.0130   42.2510 C   0  0  0  0  0  0  0  0  0  0  0  0
    1.7050   14.7990   42.4530 C   0  0  0  0  0  0  0  0  0  0  0  0
   -1.8560   16.8710   47.2140 N   0  0  0  0  0  4  0  0  0  0  0  0
   -0.7390   20.0030   45.6790 O   0  0  0  0  0  0  0  0  0  0  0  0
    2.2810   20.6770   40.2330 C   0  0  0  0  0  0  0  0  0  0  0  0
    3.1790   16.2640   40.8310 C   0  0  0  0  0  0  0  0  0  0  0  0
   -1.3970   19.1170   46.5300 C   0  0  0  0  0  0  0  0  0  0  0  0
    0.3420   19.3110   43.6450 O   0  0  0  0  0  0  0  0  0  0  0  0
    0.9670   15.3350   41.2070 C   0  0  0  0  0  0  0  0  0  0  0  0
    2.8950   19.8790   41.3060 C   0  0  0  0  0  0  0  0  0  0  0  0
   -1.1780   17.6850   46.3160 C   0  0  0  0  0  0  0  0  0  0  0  0
    2.4880   18.8030   41.8300 N   0  0  0  0  0  0  0  0  0  0  0  0
    0.8503   18.5411   41.7684 H   0  0  0  0  0  0  0  0  0  0  0  0
   -2.0691   15.1742   48.4064 H   0  0  0  0  0  0  0  0  0  0  0  0
   -2.9774   15.1502   46.8568 H   0  0  0  0  0  0  0  0  0  0  0  0
   -1.1951   14.9263   46.8568 H   0  0  0  0  0  0  0  0  0  0  0  0
    6.4233   21.7943   39.6508 H   0  0  0  0  0  0  0  0  0  0  0  0
    5.5855   20.9636   38.2962 H   0  0  0  0  0  0  0  0  0  0  0  0
    5.7366   22.7536   38.2962 H   0  0  0  0  0  0  0  0  0  0  0  0
    4.5633   15.0067   39.8067 H   0  0  0  0  0  0  0  0  0  0  0  0
    2.8858   15.0664   39.1071 H   0  0  0  0  0  0  0  0  0  0  0  0
    2.1809   13.3382   40.3502 H   0  0  0  0  0  0  0  0  0  0  0  0
    3.9319   13.0152   40.6520 H   0  0  0  0  0  0  0  0  0  0  0  0
   -0.5247   15.4535   46.3053 H   0  0  0  0  0  0  0  0  0  0  0  0
   -1.6377   19.7315   43.8789 H   0  0  0  0  0  0  0  0  0  0  0  0
   -0.4205   21.1199   44.0532 H   0  0  0  0  0  0  0  0  0  0  0  0
    2.4446   20.1027   37.6673 H   0  0  0  0  0  0  0  0  0  0  0  0
    1.2447   17.0637   39.9295 H   0  0  0  0  0  0  0  0  0  0  0  0
    2.4682   15.9899   43.7058 H   0  0  0  0  0  0  0  0  0  0  0  0
    0.8080   14.1981   44.7163 H   0  0  0  0  0  0  0  0  0  0  0  0
    2.0288   15.3662   45.4226 H   0  0  0  0  0  0  0  0  0  0  0  0
    4.0584   20.5286   43.0230 H   0  0  0  0  0  0  0  0  0  0  0  0
    5.0419   20.0491   41.5984 H   0  0  0  0  0  0  0  0  0  0  0  0
    4.1662   21.6174   41.5984 H   0  0  0  0  0  0  0  0  0  0  0  0
    2.8247   13.0576   42.7885 H   0  0  0  0  0  0  0  0  0  0  0  0
    3.7805   14.5743   42.6350 H   0  0  0  0  0  0  0  0  0  0  0  0
    1.3864   13.8427   42.8934 H   0  0  0  0  0  0  0  0  0  0  0  0
   -2.8229   17.2219   47.1601 H   0  0  0  0  0  0  0  0  0  0  0  0
   -1.1521   16.9464   47.9622 H   0  0  0  0  0  0  0  0  0  0  0  0
    1.8533   21.5918   40.6691 H   0  0  0  0  0  0  0  0  0  0  0  0
    1.5008   20.0665   39.7549 H   0  0  0  0  0  0  0  0  0  0  0  0
    3.4971   16.0867   41.8690 H   0  0  0  0  0  0  0  0  0  0  0  0
    3.7207   17.0902   40.3474 H   0  0  0  0  0  0  0  0  0  0  0  0
   -2.0562   19.4798   47.3324 H   0  0  0  0  0  0  0  0  0  0  0  0
   -0.0913   15.5276   41.4368 H   0  0  0  0  0  0  0  0  0  0  0  0
    0.9811   14.6153   40.3752 H   0  0  0  0  0  0  0  0  0  0  0  0
  1 29  1  0
  1  7  1  0
  3  9  2  0
  3 28  1  0
  4 11  1  0
  5  8  1  0
  5 23  1  0
  6  3  1  0
  7 14  1  0
  7  6  2  0
  8 18  1  0
 10 21  1  0
 12 17  2  3
 13 23  1  0
 13 26  1  0
 13  1  1  0
 14 15  1  0
 15  9  1  0
 17 11  1  0
 17 22  1  0
 18 19  1  0
 19 26  1  0
 19 14  1  0
 20  2  1  0
 21 24  1  0
 22 27  1  0
 25  6  1  0
 25 10  1  0
 27 29  2  3
 27 16  1  0
 28 24  2  0
 28 20  1  0
  1 30  1  0
  2 31  1  0
  2 32  1  0
  2 33  1  0
  4 34  1  0
  4 35  1  0
  4 36  1  0
  5 37  1  0
  5 38  1  0
  8 39  1  0
  8 40  1  0
  9 41  1  0
 10 42  1  0
 10 43  1  0
 12 44  1  0
 13 45  1  0
 14 46  1  0
 15 47  1  0
 15 48  1  0
 16 49  1  0
 16 50  1  0
 16 51  1  0
 18 52  1  0
 18 53  1  0
 19 54  1  0
 20 55  1  0
 20 56  1  0
 22 57  1  0
 22 58  1  0
 23 59  1  0
 23 60  1  0
 24 61  1  0
 26 62  1  0
 26 63  1  0
M  CHG  1  20   1
M  END
>  <mol_id>  (66) 
2026-09-18-6fnk-s0-n100-refligand-seed1-0067

>  <rmsd_to_ref>  (66) 


$$$$

     RDKit          3D

 73 74  0  0  0  0  0  0  0  0999 V2000
    3.6220   19.6340   38.0820 O   0  0  0  0  0  0  0  0  0  0  0  0
   -0.5860   18.1420   45.0570 C   0  0  0  0  0  0  0  0  0  0  0  0
    1.0550   18.9150   41.8540 C   0  0  0  0  0  0  0  0  0  0  0  0
   -0.8220   19.9990   46.3050 O   0  0  0  0  0  0  0  0  0  0  0  0
    2.4540   12.8370   42.3700 C   0  0  0  0  0  0  0  0  0  0  0  0
    1.9600   16.7110   38.7090 C   0  0  0  0  0  0  0  0  0  0  0  0
    1.1830   11.6280   43.9330 O   0  0  0  0  0  0  0  0  0  0  0  0
    3.0530   17.8450   41.0930 O   0  0  0  0  0  0  0  0  0  0  0  0
    5.0340   21.7120   42.1900 C   0  0  0  0  0  0  0  0  0  0  0  0
    0.0560   17.8530   43.7880 N   0  0  0  0  0  4  0  0  0  0  0  0
    0.1270   14.5220   44.2350 C   0  0  0  0  0  0  0  0  0  0  0  0
    3.3380   19.9880   39.1840 C   0  0  0  0  0  0  0  0  0  0  0  0
    1.8730   18.3230   40.5350 C   0  0  0  0  0  0  0  0  0  0  0  0
    6.1170   22.5050   40.0840 C   0  0  0  0  0  0  0  0  0  0  0  0
   -0.7910   13.5000   44.7030 C   0  0  0  0  0  0  0  0  0  0  0  0
   -0.4960   19.6190   45.2630 C   0  0  0  0  0  0  0  0  0  0  0  0
    6.0600   22.4410   41.5280 C   0  0  0  0  0  0  0  0  0  0  0  0
    0.2070   15.8140   45.1450 C   0  0  0  0  0  0  0  0  0  0  0  0
   -0.1470   12.7390   42.4630 C   0  0  0  0  0  0  0  0  0  0  0  0
   -1.1590   12.7440   43.5200 C   0  0  0  0  0  0  0  0  0  0  0  0
    1.5870   15.1310   44.7150 C   0  0  0  0  0  0  0  0  0  0  0  0
   -1.9060   13.9790   45.4060 O   0  0  0  0  0  0  0  0  0  0  0  0
    1.0780   12.2980   42.7440 C   0  0  0  0  0  0  0  0  0  0  0  0
    1.0640   20.3490   42.1080 C   0  0  0  0  0  0  0  0  0  0  0  0
    4.1540   20.9330   41.4190 C   0  0  0  0  0  0  0  0  0  0  0  0
    0.4410   18.1500   42.7590 C   0  0  0  0  0  0  0  0  0  0  0  0
    5.1820   21.6290   39.4210 C   0  0  0  0  0  0  0  0  0  0  0  0
    2.0850   19.5470   39.6570 N   0  0  0  0  0  0  0  0  0  0  0  0
    0.5350   20.7490   43.4470 C   0  0  0  0  0  0  0  0  0  0  0  0
    4.2040   20.8860   40.0070 C   0  0  0  0  0  0  0  0  0  0  0  0
    1.0960   17.1470   39.9190 C   0  0  0  0  0  0  0  0  0  0  0  0
   -0.0190   20.1870   44.3380 N   0  0  0  0  0  0  0  0  0  0  0  0
   -0.0930   14.0150   41.7300 O   0  0  0  0  0  0  0  0  0  0  0  0
   -0.0683   17.6143   45.8716 H   0  0  0  0  0  0  0  0  0  0  0  0
   -1.6342   17.8084   45.0527 H   0  0  0  0  0  0  0  0  0  0  0  0
    1.9610   18.8007   42.4672 H   0  0  0  0  0  0  0  0  0  0  0  0
    3.0219   13.0594   43.2854 H   0  0  0  0  0  0  0  0  0  0  0  0
    2.9941   12.0840   41.7773 H   0  0  0  0  0  0  0  0  0  0  0  0
    2.3389   13.7565   41.7773 H   0  0  0  0  0  0  0  0  0  0  0  0
    2.8875   16.2429   39.0704 H   0  0  0  0  0  0  0  0  0  0  0  0
    1.3983   15.9884   38.0988 H   0  0  0  0  0  0  0  0  0  0  0  0
    2.2076   17.5921   38.0988 H   0  0  0  0  0  0  0  0  0  0  0  0
    1.0828   12.2675   44.6821 H   0  0  0  0  0  0  0  0  0  0  0  0
    2.9859   17.8722   42.0803 H   0  0  0  0  0  0  0  0  0  0  0  0
    4.9311   21.7569   43.2843 H   0  0  0  0  0  0  0  0  0  0  0  0
    0.9345   17.4649   44.1601 H   0  0  0  0  0  0  0  0  0  0  0  0
   -0.8810   17.7488   43.3731 H   0  0  0  0  0  0  0  0  0  0  0  0
   -0.1247   14.1203   43.2424 H   0  0  0  0  0  0  0  0  0  0  0  0
    6.8111   23.1627   39.5402 H   0  0  0  0  0  0  0  0  0  0  0  0
   -0.2956   12.8751   45.4606 H   0  0  0  0  0  0  0  0  0  0  0  0
    6.8224   22.9646   42.1235 H   0  0  0  0  0  0  0  0  0  0  0  0
   -0.0687   16.7921   44.7240 H   0  0  0  0  0  0  0  0  0  0  0  0
   -0.2361   16.0935   46.1122 H   0  0  0  0  0  0  0  0  0  0  0  0
   -0.5397   11.9399   41.8171 H   0  0  0  0  0  0  0  0  0  0  0  0
   -2.0827   13.1774   43.1090 H   0  0  0  0  0  0  0  0  0  0  0  0
   -1.2798   11.6991   43.8419 H   0  0  0  0  0  0  0  0  0  0  0  0
    2.1953   14.5937   45.4575 H   0  0  0  0  0  0  0  0  0  0  0  0
    2.5070   15.4622   44.2111 H   0  0  0  0  0  0  0  0  0  0  0  0
   -1.7385   13.9070   46.3791 H   0  0  0  0  0  0  0  0  0  0  0  0
    0.9354   11.8313   41.7582 H   0  0  0  0  0  0  0  0  0  0  0  0
    2.1020   20.7044   42.0295 H   0  0  0  0  0  0  0  0  0  0  0  0
    0.3943   20.8011   41.3616 H   0  0  0  0  0  0  0  0  0  0  0  0
    3.3920   20.3328   41.9378 H   0  0  0  0  0  0  0  0  0  0  0  0
   -0.5246   18.0827   42.2363 H   0  0  0  0  0  0  0  0  0  0  0  0
    1.4374   17.8191   43.0873 H   0  0  0  0  0  0  0  0  0  0  0  0
    5.2687   21.5537   38.3270 H   0  0  0  0  0  0  0  0  0  0  0  0
    1.2537   20.0928   39.3888 H   0  0  0  0  0  0  0  0  0  0  0  0
    1.4221   21.1714   43.9415 H   0  0  0  0  0  0  0  0  0  0  0  0
   -0.3782   21.2165   43.0501 H   0  0  0  0  0  0  0  0  0  0  0  0
    0.0975   17.4696   39.5890 H   0  0  0  0  0  0  0  0  0  0  0  0
    0.9327   16.3289   40.6360 H   0  0  0  0  0  0  0  0  0  0  0  0
   -0.9360   20.2869   43.8797 H   0  0  0  0  0  0  0  0  0  0  0  0
   -0.0613   14.7652   42.3753 H   0  0  0  0  0  0  0  0  0  0  0  0
  1 12  2  0
  2 16  1  0
  3 13  1  0
  3 24  1  0
  3 26  1  0
  6 31  1  0
 10  2  1  0
 11 15  1  0
 11 21  1  0
 11 18  1  0
 12 28  1  0
 12 30  1  0
 13  8  1  0
 14 17  1  0
 15 22  1  0
 16  4  2  0
 17  9  2  0
 19 33  1  0
 19 23  1  0
 19 20  1  0
 20 15  1  0
 21 18  1  0
 23  5  1  0
 23  7  1  0
 24 29  1  0
 25  9  1  0
 26 10  1  0
 27 30  1  0
 27 14  2  0
 28 13  1  0
 29 32  1  0
 30 25  2  0
 31 13  1  0
 32 16  1  0
  2 34  1  0
  2 35  1  0
  3 36  1  0
  5 37  1  0
  5 38  1  0
  5 39  1  0
  6 40  1  0
  6 41  1  0
  6 42  1  0
  7 43  1  0
  8 44  1  0
  9 45  1  0
 10 46  1  0
 10 47  1  0
 11 48  1  0
 14 49  1  0
 15 50  1  0
 17 51  1  0
 18 52  1  0
 18 53  1  0
 19 54  1  0
 20 55  1  0
 20 56  1  0
 21 57  1  0
 21 58  1  0
 22 59  1  0
 23 60  1  0
 24 61  1  0
 24 62  1  0
 25 63  1  0
 26 64  1  0
 26 65  1  0
 27 66  1  0
 28 67  1  0
 29 68  1  0
 29 69  1  0
 31 70  1  0
 31 71  1  0
 32 72  1  0
 33 73  1  0
M  CHG  1  10   1
M  END
>  <mol_id>  (67) 
2026-09-18-6fnk-s0-n100-refligand-seed1-0068

>  <rmsd_to_ref>  (67) 


$$$$

     RDKit          3D

 23 23  0  0  0  0  0  0  0  0999 V2000
    1.7020   17.8400   42.1600 C   0  0  0  0  0  0  0  0  0  0  0  0
    1.4100   16.9110   43.1410 C   0  0  0  0  0  0  0  0  0  0  0  0
    1.3050   19.1100   42.3670 N   0  0  0  0  0  0  0  0  0  0  0  0
    0.5080   19.4540   43.4180 C   0  0  0  0  0  0  0  0  0  0  0  0
    1.9540   15.6320   42.8650 C   0  0  0  0  0  0  0  0  0  0  0  0
    1.7300   20.1840   41.4480 C   0  0  0  0  0  0  0  0  0  0  0  0
    2.4150   17.4980   41.1100 O   0  0  0  0  0  0  0  0  0  0  0  0
    0.6360   17.2410   44.1810 C   0  0  0  0  0  0  0  0  0  0  0  0
    0.2550   16.2890   45.2900 C   0  0  0  0  0  0  0  0  0  0  0  0
    0.0440   20.8260   43.6360 C   0  0  0  0  0  0  0  0  0  0  0  0
    0.1210   18.5080   44.3300 N   0  0  0  0  0  0  0  0  0  0  0  0
    2.1738   15.1152   43.8108 H   0  0  0  0  0  0  0  0  0  0  0  0
    1.2287   15.0425   42.2850 H   0  0  0  0  0  0  0  0  0  0  0  0
    2.8817   15.7455   42.2850 H   0  0  0  0  0  0  0  0  0  0  0  0
    2.0732   21.0512   42.0313 H   0  0  0  0  0  0  0  0  0  0  0  0
    2.5519   19.8201   40.8139 H   0  0  0  0  0  0  0  0  0  0  0  0
    0.8816   20.4811   40.8139 H   0  0  0  0  0  0  0  0  0  0  0  0
    0.4454   16.7649   46.2633 H   0  0  0  0  0  0  0  0  0  0  0  0
   -0.8128   16.0381   45.2072 H   0  0  0  0  0  0  0  0  0  0  0  0
    0.8549   15.3707   45.2072 H   0  0  0  0  0  0  0  0  0  0  0  0
   -0.0227   21.0232   44.7161 H   0  0  0  0  0  0  0  0  0  0  0  0
    0.7539   21.5303   43.1778 H   0  0  0  0  0  0  0  0  0  0  0  0
   -0.9477   20.9549   43.1778 H   0  0  0  0  0  0  0  0  0  0  0  0
  1  3  1  0
  1  2  1  0
  2  8  2  0
  3  4  1  0
  4 10  1  0
  4 11  2  0
  5  2  1  0
  6  3  1  0
  7  1  2  0
  8 11  1  0
  8  9  1  0
  5 12  1  0
  5 13  1  0
  5 14  1  0
  6 15  1  0
  6 16  1  0
  6 17  1  0
  9 18  1  0
  9 19  1  0
  9 20  1  0
 10 21  1  0
 10 22  1  0
 10 23  1  0
M  END
>  <mol_id>  (68) 
2026-09-18-6fnk-s0-n100-refligand-seed1-0069

>  <rmsd_to_ref>  (68) 


$$$$

     RDKit          3D

 25 26  0  0  0  0  0  0  0  0999 V2000
    0.9600   18.9220   43.7880 C   0  0  0  0  0  0  0  0  0  0  0  0
   -0.4340   16.2730   45.8500 N   0  0  0  0  0  0  0  0  0  0  0  0
    0.0380   19.5280   44.6720 C   0  0  0  0  0  0  0  0  0  0  0  0
   -1.2490   18.3980   46.5820 N   0  0  0  0  0  0  0  0  0  0  0  0
    2.0710   19.6890   41.6980 C   0  0  0  0  0  0  0  0  0  0  0  0
    2.1300   16.8940   43.4310 O   0  0  0  0  0  0  0  0  0  0  0  0
   -0.2750   20.7650   44.8430 O   0  0  0  0  0  0  0  0  0  0  0  0
    2.1060   20.8330   39.7380 C   0  0  0  0  0  0  0  0  0  0  0  0
    2.8720   20.8070   38.8120 C   0  0  0  0  0  0  0  0  0  0  0  0
   -1.1750   16.9950   46.8130 C   0  0  0  0  0  0  0  0  0  0  0  0
    1.1000   17.5830   43.9990 C   0  0  0  0  0  0  0  0  0  0  0  0
    0.1390   17.3180   45.0300 C   0  0  0  0  0  0  0  0  0  0  0  0
    3.5940   20.6500   37.9030 N   0  0  0  0  0  0  0  0  0  0  0  0
    1.6360   19.6240   42.9080 O   0  0  0  0  0  0  0  0  0  0  0  0
    1.3590   20.6930   40.8920 C   0  0  0  0  0  0  0  0  0  0  0  0
   -0.4990   18.4700   45.5380 C   0  0  0  0  0  0  0  0  0  0  0  0
    3.1394   19.9499   41.7216 H   0  0  0  0  0  0  0  0  0  0  0  0
    1.9022   18.7074   41.2310 H   0  0  0  0  0  0  0  0  0  0  0  0
    2.2226   15.9214   43.5907 H   0  0  0  0  0  0  0  0  0  0  0  0
   -0.9541   21.0149   45.5187 H   0  0  0  0  0  0  0  0  0  0  0  0
    1.2316   20.6780   39.0888 H   0  0  0  0  0  0  0  0  0  0  0  0
    2.9475   21.1510   40.3711 H   0  0  0  0  0  0  0  0  0  0  0  0
   -1.6574   16.5103   47.6746 H   0  0  0  0  0  0  0  0  0  0  0  0
    1.3015   21.6497   41.4318 H   0  0  0  0  0  0  0  0  0  0  0  0
    0.3251   20.3860   40.6757 H   0  0  0  0  0  0  0  0  0  0  0  0
  1 11  2  0
  1  3  1  0
  2 10  1  0
  3  7  1  0
  3 16  2  0
  4 10  2  0
  5 14  1  0
  6 11  1  0
  8 15  1  0
  9  8  1  0
 11 12  1  0
 12 16  1  0
 12  2  2  0
 13  9  3  0
 14  1  1  0
 15  5  1  0
 16  4  1  0
  5 17  1  0
  5 18  1  0
  6 19  1  0
  7 20  1  0
  8 21  1  0
  8 22  1  0
 10 23  1  0
 15 24  1  0
 15 25  1  0
M  END
>  <mol_id>  (69) 
2026-09-18-6fnk-s0-n100-refligand-seed1-0070

>  <rmsd_to_ref>  (69) 


$$$$

     RDKit          3D

 31 32  0  0  0  0  0  0  0  0999 V2000
    2.7110   15.7620   39.8170 C   0  0  0  0  0  0  0  0  0  0  0  0
    1.5630   15.2780   39.8400 O   0  0  0  0  0  1  0  0  0  0  0  0
    1.9860   18.5580   39.0050 F   0  0  0  0  0  0  0  0  0  0  0  0
   -0.4250   20.8360   44.2610 O   0  0  0  0  0  0  0  0  0  0  0  0
    2.2500   19.9760   40.8500 C   0  0  0  0  0  0  0  0  0  0  0  0
    2.2580   18.7330   40.3160 C   0  0  0  0  0  0  0  0  0  0  0  0
    1.7420   17.6220   42.2560 C   0  0  0  0  0  0  0  0  0  0  0  0
   -0.8560   17.9470   46.3800 C   0  0  0  0  0  0  0  0  0  0  0  0
    1.3120   18.8910   42.8040 C   0  0  0  0  0  0  0  0  0  0  0  0
    3.1700   16.6550   40.8110 N   0  0  0  0  0  0  0  0  0  0  0  0
    0.5410   17.2770   44.4870 C   0  0  0  0  0  0  0  0  0  0  0  0
    2.8040   20.9920   40.1410 N   0  0  0  0  0  0  0  0  0  0  0  0
    3.5550   15.7950   38.7790 O   0  0  0  0  0  0  0  0  0  0  0  0
   -0.8850   19.2110   45.8860 C   0  0  0  0  0  0  0  0  0  0  0  0
   -0.1590   16.9470   45.6020 C   0  0  0  0  0  0  0  0  0  0  0  0
    1.7220   20.0760   42.1680 C   0  0  0  0  0  0  0  0  0  0  0  0
    0.5360   18.6340   44.0300 C   0  0  0  0  0  0  0  0  0  0  0  0
   -1.6010   17.5300   47.4680 N   0  0  0  0  0  0  0  0  0  0  0  0
    2.4320   17.6660   41.1720 C   0  0  0  0  0  0  0  0  0  0  0  0
   -0.2350   19.6530   44.7150 C   0  0  0  0  0  0  0  0  0  0  0  0
   -0.9629   21.4850   44.7802 H   0  0  0  0  0  0  0  0  0  0  0  0
    1.4910   16.6679   42.7426 H   0  0  0  0  0  0  0  0  0  0  0  0
    4.0894   16.5065   41.2508 H   0  0  0  0  0  0  0  0  0  0  0  0
    1.1070   16.5090   43.9394 H   0  0  0  0  0  0  0  0  0  0  0  0
    3.1603   20.8218   39.1897 H   0  0  0  0  0  0  0  0  0  0  0  0
    2.8681   21.9333   40.5542 H   0  0  0  0  0  0  0  0  0  0  0  0
   -1.4667   19.9562   46.4485 H   0  0  0  0  0  0  0  0  0  0  0  0
   -0.1970   15.8950   45.9211 H   0  0  0  0  0  0  0  0  0  0  0  0
    1.6374   21.0496   42.6730 H   0  0  0  0  0  0  0  0  0  0  0  0
   -1.5344   16.5555   47.7947 H   0  0  0  0  0  0  0  0  0  0  0  0
   -2.2224   18.1940   47.9516 H   0  0  0  0  0  0  0  0  0  0  0  0
  1  2  1  0
  1 10  1  0
  3  6  1  0
  4 20  1  0
  5 16  2  0
  6  5  1  0
  6 19  2  0
  7  9  2  0
  8 18  1  0
  9 17  1  0
 10 19  1  0
 11 15  2  0
 12  5  1  0
 13  1  2  0
 14  8  2  0
 15  8  1  0
 16  9  1  0
 17 11  1  0
 17 20  2  0
 19  7  1  0
 20 14  1  0
  4 21  1  0
  7 22  1  0
 10 23  1  0
 11 24  1  0
 12 25  1  0
 12 26  1  0
 14 27  1  0
 15 28  1  0
 16 29  1  0
 18 30  1  0
 18 31  1  0
M  CHG  1   2  -1
M  END
>  <mol_id>  (70) 
2026-09-18-6fnk-s0-n100-refligand-seed1-0072

>  <rmsd_to_ref>  (70) 


$$$$

     RDKit          3D

 20 23  0  0  0  0  0  0  0  0999 V2000
    0.9970   18.3930   42.9840 C   0  0  0  0  0  0  0  0  0  0  0  0
    0.9550   20.4290   42.0410 C   0  0  0  0  0  0  0  0  0  0  0  0
    1.3850   16.1300   43.5650 C   0  0  0  0  0  0  0  0  0  0  0  0
    1.7950   18.2580   41.7370 C   0  0  0  0  0  0  0  0  0  0  0  0
    2.5240   17.1450   41.5050 C   0  0  0  0  0  0  0  0  0  0  0  0
    1.7730   19.6030   41.2310 N   0  0  0  0  0  0  0  0  0  0  0  0
    0.0900   17.6310   45.0740 N   0  0  0  0  0  0  0  0  0  0  0  0
    0.8400   17.3650   43.9000 C   0  0  0  0  0  0  0  0  0  0  0  0
    2.1480   15.9870   42.2920 C   0  0  0  0  0  0  0  0  0  0  0  0
    2.2560   20.3740   40.3360 N   0  0  0  0  0  0  0  0  0  0  0  0
   -0.3590   19.8470   44.3310 N   0  0  0  0  0  0  0  0  0  0  0  0
   -0.4720   18.8540   45.3460 C   0  0  0  0  0  0  0  0  0  0  0  0
    1.6870   21.6090   40.3690 N   0  0  0  0  0  0  0  0  0  0  0  0
    0.8630   21.6340   41.3980 C   0  0  0  0  0  0  0  0  0  0  0  0
    0.3940   19.6900   43.1560 C   0  0  0  0  0  0  0  0  0  0  0  0
    1.2543   15.2662   44.2334 H   0  0  0  0  0  0  0  0  0  0  0  0
    3.3437   17.1190   40.7719 H   0  0  0  0  0  0  0  0  0  0  0  0
    2.4312   14.9830   41.9431 H   0  0  0  0  0  0  0  0  0  0  0  0
   -0.9832   19.0565   46.2987 H   0  0  0  0  0  0  0  0  0  0  0  0
    0.2159   22.4747   41.6885 H   0  0  0  0  0  0  0  0  0  0  0  0
  1 15  1  0
  1  8  1  0
  2 15  1  0
  3  8  2  0
  4  1  2  0
  5  4  1  0
  5  9  2  0
  6  4  1  0
  6  2  1  0
  7 12  2  0
  8  7  1  0
  9  3  1  0
 10 13  2  0
 10  6  1  0
 11 12  1  0
 13 14  1  0
 14  2  2  0
 15 11  2  0
  3 16  1  0
  5 17  1  0
  9 18  1  0
 12 19  1  0
 14 20  1  0
M  END
>  <mol_id>  (71) 
2026-09-18-6fnk-s0-n100-refligand-seed1-0073

>  <rmsd_to_ref>  (71) 


$$$$

     RDKit          3D

 59 63  0  0  0  0  0  0  0  0999 V2000
    4.4920   21.5910   41.6720 C   0  0  0  0  0  0  0  0  0  0  0  0
    2.3680   17.9770   39.3280 C   0  0  0  0  0  0  0  0  0  0  0  0
    2.1480   17.0370   42.4600 O   0  0  0  0  0  0  0  0  0  0  0  0
   -2.5670   16.4910   48.9880 N   0  0  0  0  0  4  0  0  0  0  0  0
    2.5730   15.6890   42.0500 C   0  0  0  0  0  0  0  0  0  0  0  0
    0.8370   20.2680   42.3850 C   0  0  0  0  0  0  0  0  0  0  0  0
   -0.3340   15.4690   45.2150 C   0  0  0  0  0  0  0  0  0  0  0  0
    0.0830   16.3500   44.1880 C   0  0  0  0  0  0  0  0  0  0  0  0
   -2.2870   15.2280   48.3900 C   0  0  0  0  0  0  0  0  0  0  0  0
   -1.5520   15.0160   47.3320 C   0  0  0  0  0  0  0  0  0  0  0  0
    1.3840   17.4360   40.2350 C   0  0  0  0  0  0  0  0  0  0  0  0
   -0.6950   19.6700   45.5220 O   0  0  0  0  0  0  0  0  0  0  0  0
   -1.0530   17.4060   46.5830 C   0  0  0  0  0  0  0  0  0  0  0  0
    3.5530   21.0700   40.6510 N   0  0  0  0  0  0  0  0  0  0  0  0
    1.3100   17.8620   41.6890 C   0  0  0  0  0  0  0  0  0  0  0  0
    2.3440   20.5300   40.4260 C   0  0  0  0  0  0  0  0  0  0  0  0
    1.0840   20.3760   40.9670 O   0  0  0  0  0  0  0  0  0  0  0  0
    1.7810   16.1930   37.5500 C   0  0  0  0  0  0  0  0  0  0  0  0
    5.2160   21.7920   42.4940 C   0  0  0  0  0  0  0  0  0  0  0  0
   -0.1100   17.7070   44.3850 C   0  0  0  0  0  0  0  0  0  0  0  0
   -0.9470   15.9640   46.4120 C   0  0  0  0  0  0  0  0  0  0  0  0
    5.6100   22.3720   41.2210 O   0  0  0  0  0  0  0  0  0  0  0  0
   -0.3210   19.9610   44.3900 N   0  0  0  0  0  0  0  0  0  0  0  0
    3.5480   20.2610   38.8420 N   0  0  0  0  0  4  0  0  0  0  0  0
    0.1510   18.8770   43.7100 C   0  0  0  0  0  0  0  0  0  0  0  0
    3.8810   21.2230   39.2970 C   0  0  0  0  0  0  0  0  0  0  0  0
    0.7700   18.9490   42.6350 N   0  0  0  0  0  0  0  0  0  0  0  0
   -0.5710   18.2510   45.5020 C   0  0  0  0  0  0  0  0  0  0  0  0
    2.7850   17.0070   38.2450 C   0  0  0  0  0  0  0  0  0  0  0  0
    2.7790   19.4050   39.4430 C   0  0  0  0  0  0  0  0  0  0  0  0
    3.5385   21.1440   41.9898 H   0  0  0  0  0  0  0  0  0  0  0  0
   -2.5463   16.3975   50.0135 H   0  0  0  0  0  0  0  0  0  0  0  0
   -1.8575   17.1762   48.6913 H   0  0  0  0  0  0  0  0  0  0  0  0
   -3.4996   16.8121   48.6913 H   0  0  0  0  0  0  0  0  0  0  0  0
    2.7658   15.0776   42.9439 H   0  0  0  0  0  0  0  0  0  0  0  0
    1.7789   15.2209   41.4498 H   0  0  0  0  0  0  0  0  0  0  0  0
    3.4920   15.7610   41.4498 H   0  0  0  0  0  0  0  0  0  0  0  0
   -0.1114   20.7587   42.6492 H   0  0  0  0  0  0  0  0  0  0  0  0
    1.6248   20.7575   42.9765 H   0  0  0  0  0  0  0  0  0  0  0  0
   -0.1849   14.3861   45.0920 H   0  0  0  0  0  0  0  0  0  0  0  0
    0.5446   15.9694   43.2649 H   0  0  0  0  0  0  0  0  0  0  0  0
   -2.7347   14.3438   48.8673 H   0  0  0  0  0  0  0  0  0  0  0  0
   -1.3616   13.9574   47.1018 H   0  0  0  0  0  0  0  0  0  0  0  0
    0.4018   17.6661   39.7965 H   0  0  0  0  0  0  0  0  0  0  0  0
    1.6998   16.3856   40.3182 H   0  0  0  0  0  0  0  0  0  0  0  0
   -1.4825   17.8409   47.4975 H   0  0  0  0  0  0  0  0  0  0  0  0
    0.4747   17.1648   41.8508 H   0  0  0  0  0  0  0  0  0  0  0  0
    1.7726   21.4571   40.5807 H   0  0  0  0  0  0  0  0  0  0  0  0
    1.1486   15.6803   38.2898 H   0  0  0  0  0  0  0  0  0  0  0  0
    1.1553   16.8419   36.9196 H   0  0  0  0  0  0  0  0  0  0  0  0
    2.2865   15.4466   36.9196 H   0  0  0  0  0  0  0  0  0  0  0  0
    4.9167   22.4625   43.3131 H   0  0  0  0  0  0  0  0  0  0  0  0
    5.7404   21.1251   43.1942 H   0  0  0  0  0  0  0  0  0  0  0  0
    3.0567   20.5173   37.9737 H   0  0  0  0  0  0  0  0  0  0  0  0
    4.4360   19.7401   38.8097 H   0  0  0  0  0  0  0  0  0  0  0  0
    3.3433   22.0748   38.8551 H   0  0  0  0  0  0  0  0  0  0  0  0
    4.9490   21.4295   39.1335 H   0  0  0  0  0  0  0  0  0  0  0  0
    3.4957   16.3055   38.7063 H   0  0  0  0  0  0  0  0  0  0  0  0
    3.1615   17.6684   37.4508 H   0  0  0  0  0  0  0  0  0  0  0  0
  1 19  1  0
  2 30  2  0
  2 11  1  0
  5  3  1  0
  6 27  1  0
  7 21  2  0
  8 20  2  0
  8  7  1  0
  9  4  1  0
 10  9  2  3
 11 15  1  0
 14 26  1  0
 14  1  1  0
 15  3  1  0
 15 27  1  0
 16 30  1  0
 16 14  1  0
 16 17  1  0
 17  6  1  0
 18 29  1  0
 20 28  1  0
 21 13  1  0
 21 10  1  0
 22  1  1  0
 22 19  1  0
 23 12  1  0
 24 26  1  0
 24 30  1  0
 25 20  1  0
 25 23  2  0
 27 25  1  0
 28 12  1  0
 28 13  2  0
 29  2  1  0
  1 31  1  0
  4 32  1  0
  4 33  1  0
  4 34  1  0
  5 35  1  0
  5 36  1  0
  5 37  1  0
  6 38  1  0
  6 39  1  0
  7 40  1  0
  8 41  1  0
  9 42  1  0
 10 43  1  0
 11 44  1  0
 11 45  1  0
 13 46  1  0
 15 47  1  0
 16 48  1  0
 18 49  1  0
 18 50  1  0
 18 51  1  0
 19 52  1  0
 19 53  1  0
 24 54  1  0
 24 55  1  0
 26 56  1  0
 26 57  1  0
 29 58  1  0
 29 59  1  0
M  CHG  2   4   1  24   1
M  END
>  <mol_id>  (72) 
2026-09-18-6fnk-s0-n100-refligand-seed1-0074

>  <rmsd_to_ref>  (72) 


$$$$

     RDKit          3D

 31 33  0  0  0  0  0  0  0  0999 V2000
    0.4570   18.8830   43.5840 C   0  0  0  0  0  0  0  0  0  0  0  0
    2.4930   17.6080   37.8030 C   0  0  0  0  0  0  0  0  0  0  0  0
    1.0750   19.2150   42.2560 C   0  0  0  0  0  0  0  0  0  0  0  0
    1.4080   16.1000   43.9480 S   0  0  0  0  0  0  0  0  0  0  0  0
    2.6810   19.8720   40.0410 C   0  0  0  0  0  0  0  0  0  0  0  0
    0.5590   21.5750   42.5530 N   0  0  0  0  0  4  0  0  0  0  0  0
   -0.1510   17.5500   45.3520 C   0  0  0  0  0  0  0  0  0  0  0  0
    0.7350   14.2910   45.6740 O   0  0  0  0  0  0  0  0  0  0  0  0
   -0.3020   16.3810   45.9900 N   0  0  0  0  0  0  0  0  0  0  0  0
   -0.2760   19.6490   44.4030 N   0  0  0  0  0  0  0  0  0  0  0  0
    1.2000   20.5250   41.8480 C   0  0  0  0  0  0  0  0  0  0  0  0
    2.8110   18.9290   37.5650 O   0  0  0  0  0  0  0  0  0  0  0  0
    2.0960   20.8280   40.8000 C   0  0  0  0  0  0  0  0  0  0  0  0
    2.0280   18.5830   40.1840 C   0  0  0  0  0  0  0  0  0  0  0  0
   -0.6760   18.8240   45.5370 O   0  0  0  0  0  0  0  0  0  0  0  0
    1.4210   18.2140   41.3610 C   0  0  0  0  0  0  0  0  0  0  0  0
    0.6030   17.5750   44.1960 C   0  0  0  0  0  0  0  0  0  0  0  0
    2.1010   17.5580   39.1480 O   0  0  0  0  0  0  0  0  0  0  0  0
    0.5580   15.4690   45.3690 C   0  0  0  0  0  0  0  0  0  0  0  0
    3.3686   16.9643   37.6328 H   0  0  0  0  0  0  0  0  0  0  0  0
    1.6991   17.2500   37.1310 H   0  0  0  0  0  0  0  0  0  0  0  0
    3.7331   19.7720   40.3460 H   0  0  0  0  0  0  0  0  0  0  0  0
    2.5971   20.1783   38.9878 H   0  0  0  0  0  0  0  0  0  0  0  0
    0.6554   21.4171   43.5663 H   0  0  0  0  0  0  0  0  0  0  0  0
    0.9958   22.4735   42.3024 H   0  0  0  0  0  0  0  0  0  0  0  0
   -0.4398   21.5971   42.3024 H   0  0  0  0  0  0  0  0  0  0  0  0
    2.9248   19.4016   38.4274 H   0  0  0  0  0  0  0  0  0  0  0  0
    2.3280   21.8829   40.5919 H   0  0  0  0  0  0  0  0  0  0  0  0
    1.1199   18.9911   39.7162 H   0  0  0  0  0  0  0  0  0  0  0  0
    1.2160   17.1569   41.5859 H   0  0  0  0  0  0  0  0  0  0  0  0
    1.4589   17.9439   44.7802 H   0  0  0  0  0  0  0  0  0  0  0  0
  1 10  2  0
  2 18  1  0
  3  1  1  0
  4 17  1  0
  4 19  1  0
  5 14  1  0
  5 13  1  0
  7 15  1  0
  7  9  2  0
 10 15  1  0
 11  3  1  0
 11  6  1  0
 12  2  1  0
 13 11  2  0
 14 18  1  0
 14 16  1  0
 16  3  2  0
 17  1  1  0
 17  7  1  0
 19  8  2  0
 19  9  1  0
  2 20  1  0
  2 21  1  0
  5 22  1  0
  5 23  1  0
  6 24  1  0
  6 25  1  0
  6 26  1  0
 12 27  1  0
 13 28  1  0
 14 29  1  0
 16 30  1  0
 17 31  1  0
M  CHG  1   6   1
M  END
>  <mol_id>  (73) 
2026-09-18-6fnk-s0-n100-refligand-seed1-0075

>  <rmsd_to_ref>  (73) 


$$$$

     RDKit          3D

 27 28  0  0  0  0  0  0  0  0999 V2000
    1.6980   17.5260   42.9410 C   0  0  0  0  0  0  0  0  0  0  0  0
    4.0710   20.9720   41.2750 Cl  0  0  0  0  0  0  0  0  0  0  0  0
   -0.6820   16.8930   45.8030 C   0  0  0  0  0  0  0  0  0  0  0  0
    0.1820   16.0490   44.6120 S   0  0  0  0  0  0  0  0  0  0  0  0
   -1.3980   16.2080   46.8230 C   0  0  0  0  0  0  0  0  0  0  0  0
    2.3260   18.6710   42.3030 C   0  0  0  0  0  0  0  0  0  0  0  0
   -0.7190   18.1740   45.6380 N   0  0  0  0  0  0  0  0  0  0  0  0
    1.8750   20.3940   40.8690 C   0  0  0  0  0  0  0  0  0  0  0  0
    0.6800   20.5400   41.8200 N   0  0  0  0  0  4  0  0  0  0  0  0
    2.6640   20.1880   41.9850 C   0  0  0  0  0  0  0  0  0  0  0  0
    2.8500   16.7170   41.3690 C   0  0  0  0  0  0  0  0  0  0  0  0
    0.7180   17.5650   43.9460 C   0  0  0  0  0  0  0  0  0  0  0  0
    2.0710   15.9380   42.3740 S   0  0  0  0  0  0  0  0  0  0  0  0
    0.1960   19.8550   44.3650 O   0  0  0  0  0  0  0  0  0  0  0  0
    2.9430   18.0700   41.3720 N   0  0  0  0  0  0  0  0  0  0  0  0
    0.1380   18.6550   44.5250 C   0  0  0  0  0  0  0  0  0  0  0  0
   -1.0451   16.5456   47.8086 H   0  0  0  0  0  0  0  0  0  0  0  0
   -2.4722   16.4232   46.7247 H   0  0  0  0  0  0  0  0  0  0  0  0
   -1.2305   15.1253   46.7247 H   0  0  0  0  0  0  0  0  0  0  0  0
    1.8144   19.5343   40.1855 H   0  0  0  0  0  0  0  0  0  0  0  0
    2.1182   21.1661   40.1242 H   0  0  0  0  0  0  0  0  0  0  0  0
    1.0101   20.4997   42.7948 H   0  0  0  0  0  0  0  0  0  0  0  0
    0.2158   21.4440   41.6518 H   0  0  0  0  0  0  0  0  0  0  0  0
    0.0118   19.7744   41.6518 H   0  0  0  0  0  0  0  0  0  0  0  0
    2.6482   20.5588   43.0205 H   0  0  0  0  0  0  0  0  0  0  0  0
    3.3794   16.1626   40.5802 H   0  0  0  0  0  0  0  0  0  0  0  0
    1.5057   17.5764   44.7137 H   0  0  0  0  0  0  0  0  0  0  0  0
  3  5  1  0
  4  3  1  0
  6  1  2  0
  7  3  2  0
  8  9  1  0
  8 10  1  0
 10  2  1  0
 10  6  1  0
 11 15  2  0
 11 13  1  0
 12  1  1  0
 12 16  1  0
 12  4  1  0
 13  1  1  0
 14 16  2  0
 15  6  1  0
 16  7  1  0
  5 17  1  0
  5 18  1  0
  5 19  1  0
  8 20  1  0
  8 21  1  0
  9 22  1  0
  9 23  1  0
  9 24  1  0
 10 25  1  0
 11 26  1  0
 12 27  1  0
M  CHG  1   9   1
M  END
>  <mol_id>  (74) 
2026-09-18-6fnk-s0-n100-refligand-seed1-0076

>  <rmsd_to_ref>  (74) 


$$$$

     RDKit          3D

 58 66  0  0  0  0  0  0  0  0999 V2000
    4.1750   21.5100   38.4760 C   0  0  0  0  0  0  0  0  0  0  0  0
    0.3580   19.8830   43.7780 C   0  0  0  0  0  0  0  0  0  0  0  0
   -0.4640   20.6280   44.4960 N   0  0  0  0  0  0  0  0  0  0  0  0
    2.4690   12.8440   39.7690 C   0  0  0  0  0  0  0  0  0  0  0  0
    5.8680   22.1470   40.2510 N   0  0  0  0  0  0  0  0  0  0  0  0
    1.9310   12.9910   42.0760 C   0  0  0  0  0  0  0  0  0  0  0  0
    2.1940   16.4300   40.9860 C   0  0  0  0  0  0  0  0  0  0  0  0
    4.6090   21.5240   39.7630 C   0  0  0  0  0  0  0  0  0  0  0  0
    2.2240   17.5050   40.1050 C   0  0  0  0  0  0  0  0  0  0  0  0
    1.8190   16.6370   42.1420 C   0  0  0  0  0  0  0  0  0  0  0  0
    1.3690   15.3850   42.9950 C   0  0  0  0  0  0  0  0  0  0  0  0
    2.2630   20.3240   38.8220 N   0  0  0  0  0  0  0  0  0  0  0  0
   -0.8430   15.8820   46.1380 C   0  0  0  0  0  0  0  0  0  0  0  0
   -0.4380   18.1830   45.2120 C   0  0  0  0  0  0  0  0  0  0  0  0
    2.3190   18.9190   40.7130 C   0  0  0  0  0  0  0  0  0  0  0  0
    1.8110   19.0250   42.0280 C   0  0  0  0  0  0  0  0  0  0  0  0
    2.7690   20.0530   40.0390 C   0  0  0  0  0  0  0  0  0  0  0  0
    1.9150   14.3110   42.0430 C   0  0  0  0  0  0  0  0  0  0  0  0
   -1.0260   19.6670   45.4070 C   0  0  0  0  0  0  0  0  0  0  0  0
    1.0960   20.1880   42.5160 C   0  0  0  0  0  0  0  0  0  0  0  0
    0.5800   16.0820   44.1120 C   0  0  0  0  0  0  0  0  0  0  0  0
    3.0570   20.9690   38.0090 C   0  0  0  0  0  0  0  0  0  0  0  0
   -1.0410   17.2380   46.2180 C   0  0  0  0  0  0  0  0  0  0  0  0
    6.7850   22.5390   39.0770 N   0  0  0  0  0  0  0  0  0  0  0  0
    5.9840   23.5240   38.2630 C   0  0  0  0  0  0  0  0  0  0  0  0
    0.2640   17.4690   44.2630 C   0  0  0  0  0  0  0  0  0  0  0  0
    2.2220   12.2140   40.9320 N   0  0  0  0  0  0  0  0  0  0  0  0
    2.3710   14.2460   39.6570 C   0  0  0  0  0  0  0  0  0  0  0  0
   -0.0270   15.3020   45.0870 C   0  0  0  0  0  0  0  0  0  0  0  0
    1.9810   17.8800   42.7570 N   0  0  0  0  0  0  0  0  0  0  0  0
    0.3520   18.6240   44.2130 N   0  0  0  0  0  0  0  0  0  0  0  0
    6.8150   22.4580   37.6650 C   0  0  0  0  0  0  0  0  0  0  0  0
    3.8410   20.7300   40.5740 C   0  0  0  0  0  0  0  0  0  0  0  0
    1.0120   21.5670   42.0130 C   0  0  0  0  0  0  0  0  0  0  0  0
    2.2580   14.9290   40.8110 C   0  0  0  0  0  0  0  0  0  0  0  0
    4.8239   22.0030   37.7371 H   0  0  0  0  0  0  0  0  0  0  0  0
    2.7536   12.2523   38.8864 H   0  0  0  0  0  0  0  0  0  0  0  0
    6.0969   22.2968   41.2440 H   0  0  0  0  0  0  0  0  0  0  0  0
    1.7107   12.4797   43.0247 H   0  0  0  0  0  0  0  0  0  0  0  0
    2.1816   17.3529   39.0164 H   0  0  0  0  0  0  0  0  0  0  0  0
    0.8773   17.1228   41.8465 H   0  0  0  0  0  0  0  0  0  0  0  0
   -1.3112   15.2230   46.8839 H   0  0  0  0  0  0  0  0  0  0  0  0
   -0.8122   19.9945   46.4351 H   0  0  0  0  0  0  0  0  0  0  0  0
   -2.1057   19.6182   45.2025 H   0  0  0  0  0  0  0  0  0  0  0  0
    1.9656   20.4650   43.1301 H   0  0  0  0  0  0  0  0  0  0  0  0
    2.8001   21.0630   36.9436 H   0  0  0  0  0  0  0  0  0  0  0  0
   -1.6544   17.6440   47.0359 H   0  0  0  0  0  0  0  0  0  0  0  0
    4.8862   23.4615   38.2313 H   0  0  0  0  0  0  0  0  0  0  0  0
    5.9110   24.6186   38.1817 H   0  0  0  0  0  0  0  0  0  0  0  0
    0.5575   16.7160   43.5168 H   0  0  0  0  0  0  0  0  0  0  0  0
    2.3861   14.7532   38.6810 H   0  0  0  0  0  0  0  0  0  0  0  0
    0.1147   14.2115   45.0623 H   0  0  0  0  0  0  0  0  0  0  0  0
    6.3285   21.6104   37.1602 H   0  0  0  0  0  0  0  0  0  0  0  0
    7.6244   22.4518   36.9202 H   0  0  0  0  0  0  0  0  0  0  0  0
    4.0794   20.6346   41.6436 H   0  0  0  0  0  0  0  0  0  0  0  0
    0.9695   22.2650   42.8621 H   0  0  0  0  0  0  0  0  0  0  0  0
    1.8983   21.7884   41.4003 H   0  0  0  0  0  0  0  0  0  0  0  0
    0.1054   21.6792   41.4003 H   0  0  0  0  0  0  0  0  0  0  0  0
  1  8  2  0
  2 31  1  0
  2  3  2  0
  3 19  1  0
  4 27  1  0
  8  5  1  0
  8 33  1  0
  9 15  2  0
  9  7  1  0
 10  7  1  0
 10 30  1  0
 10 11  1  0
 11 21  1  0
 12 17  1  0
 13 23  2  0
 14 19  1  0
 14 23  1  0
 15 16  1  0
 16 20  1  0
 16 30  2  0
 17 33  2  0
 17 15  1  0
 18  6  1  0
 18 11  2  0
 20 34  1  0
 20  2  1  0
 21 29  2  0
 22  1  1  0
 22 12  2  0
 24  5  1  0
 25 24  1  0
 26 21  1  0
 26 14  1  0
 27  6  2  0
 28  4  2  0
 28 35  1  0
 29 13  1  0
 31 26  1  0
 31 14  1  0
 32 25  1  0
 32 24  1  0
 35  7  2  0
 35 18  1  0
  1 36  1  0
  4 37  1  0
  5 38  1  0
  6 39  1  0
  9 40  1  0
 10 41  1  0
 13 42  1  0
 19 43  1  0
 19 44  1  0
 20 45  1  0
 22 46  1  0
 23 47  1  0
 25 48  1  0
 25 49  1  0
 26 50  1  0
 28 51  1  0
 29 52  1  0
 32 53  1  0
 32 54  1  0
 33 55  1  0
 34 56  1  0
 34 57  1  0
 34 58  1  0
M  END
>  <mol_id>  (75) 
2026-09-18-6fnk-s0-n100-refligand-seed1-0077

>  <rmsd_to_ref>  (75) 


$$$$

     RDKit          3D

 22 23  0  0  0  0  0  0  0  0999 V2000
    2.5450   19.3460   41.4530 C   0  0  0  0  0  0  0  0  0  0  0  0
   -0.6810   18.3600   44.9810 C   0  0  0  0  0  0  0  0  0  0  0  0
   -0.1900   17.1280   44.5310 C   0  0  0  0  0  0  0  0  0  0  0  0
   -0.6200   20.6280   44.8750 O   0  0  0  0  0  0  0  0  0  0  0  0
    0.6140   19.5390   43.3150 C   0  0  0  0  0  0  0  0  0  0  0  0
    0.8890   18.4430   42.6300 C   0  0  0  0  0  0  0  0  0  0  0  0
   -0.2790   19.5680   44.4890 C   0  0  0  0  0  0  0  0  0  0  0  0
    1.0440   20.6900   42.6050 C   0  0  0  0  0  0  0  0  0  0  0  0
    1.9910   18.1700   41.8800 C   0  0  0  0  0  0  0  0  0  0  0  0
    0.5680   17.1340   43.3230 N   0  0  0  0  0  4  0  0  0  0  0  0
    2.1120   20.5440   41.8080 N   0  0  0  0  0  0  0  0  0  0  0  0
    3.4059   19.2914   40.7705 H   0  0  0  0  0  0  0  0  0  0  0  0
   -1.4370   18.3537   45.7800 H   0  0  0  0  0  0  0  0  0  0  0  0
   -0.3806   16.1969   45.0848 H   0  0  0  0  0  0  0  0  0  0  0  0
    1.0420   19.5330   44.3283 H   0  0  0  0  0  0  0  0  0  0  0  0
    0.1998   18.8582   41.8799 H   0  0  0  0  0  0  0  0  0  0  0  0
    0.2050   21.0276   41.9788 H   0  0  0  0  0  0  0  0  0  0  0  0
    1.3580   21.4055   43.3793 H   0  0  0  0  0  0  0  0  0  0  0  0
    1.7030   17.5614   41.0102 H   0  0  0  0  0  0  0  0  0  0  0  0
    2.7224   17.6141   42.4850 H   0  0  0  0  0  0  0  0  0  0  0  0
    0.0485   16.5591   42.6444 H   0  0  0  0  0  0  0  0  0  0  0  0
    1.4928   16.7958   43.6250 H   0  0  0  0  0  0  0  0  0  0  0  0
  1 11  2  0
  1  9  1  0
  3  2  2  0
  5  8  1  0
  5  7  1  0
  6  9  1  0
  6  5  1  0
  6 10  1  0
  7  4  2  0
  7  2  1  0
 10  3  1  0
 11  8  1  0
  1 12  1  0
  2 13  1  0
  3 14  1  0
  5 15  1  0
  6 16  1  0
  8 17  1  0
  8 18  1  0
  9 19  1  0
  9 20  1  0
 10 21  1  0
 10 22  1  0
M  CHG  1  10   1
M  END
>  <mol_id>  (76) 
2026-09-18-6fnk-s0-n100-refligand-seed1-0078

>  <rmsd_to_ref>  (76) 


$$$$

     RDKit          3D

 57 60  0  0  0  0  0  0  0  0999 V2000
    3.6820   19.8730   39.2230 C   0  0  0  0  0  0  0  0  0  0  0  0
   -0.3410   13.8300   45.6790 C   0  0  0  0  0  0  0  0  0  0  0  0
   -1.0170   16.2090   45.9320 C   0  0  0  0  0  0  0  0  0  0  0  0
    3.8280   21.0180   40.0610 C   0  0  0  0  0  0  0  0  0  0  0  0
    0.5010   20.5230   43.3270 C   0  0  0  0  0  0  0  0  0  0  0  0
    2.3380   18.1690   40.0330 C   0  0  0  0  0  0  0  0  0  0  0  0
    2.7470   18.9500   37.4430 O   0  0  0  0  0  0  0  0  0  0  0  0
    0.5080   13.0880   45.1870 O   0  0  0  0  0  0  0  0  0  0  0  0
    2.2130   17.3280   38.8990 C   0  0  0  0  0  0  0  0  0  0  0  0
    2.1430   19.9480   41.4400 C   0  0  0  0  0  0  0  0  0  0  0  0
   -1.3320   13.3060   46.3440 N   0  0  0  0  0  0  0  0  0  0  0  0
   -0.2470   20.7390   44.5150 C   0  0  0  0  0  0  0  0  0  0  0  0
    0.8050   16.9560   43.7500 C   0  0  0  0  0  0  0  0  0  0  0  0
    2.3730   16.9110   37.0590 N   0  0  0  0  0  4  0  0  0  0  0  0
   -1.0530   17.5700   45.7950 C   0  0  0  0  0  0  0  0  0  0  0  0
    3.6290   20.6320   41.3720 C   0  0  0  0  0  0  0  0  0  0  0  0
    0.7930   19.2100   43.1110 C   0  0  0  0  0  0  0  0  0  0  0  0
   -0.4410   18.5540   44.9980 C   0  0  0  0  0  0  0  0  0  0  0  0
    0.3600   18.1860   43.9850 C   0  0  0  0  0  0  0  0  0  0  0  0
    3.4120   19.8420   38.1780 C   0  0  0  0  0  0  0  0  0  0  0  0
    1.4600   18.7630   42.1480 N   0  0  0  0  0  4  0  0  0  0  0  0
   -0.8580   19.8660   45.2750 N   0  0  0  0  0  0  0  0  0  0  0  0
   -0.1560   15.2690   45.3910 C   0  0  0  0  0  0  0  0  0  0  0  0
    2.4100   19.5600   39.6970 C   0  0  0  0  0  0  0  0  0  0  0  0
    0.7880   15.7390   44.5570 C   0  0  0  0  0  0  0  0  0  0  0  0
    3.0390   17.4940   38.0400 C   0  0  0  0  0  0  0  0  0  0  0  0
    2.0410   19.6130   40.5550 C   0  0  0  0  0  0  0  0  0  0  0  0
    4.6582   19.3674   39.2599 H   0  0  0  0  0  0  0  0  0  0  0  0
   -1.8026   15.7923   46.5795 H   0  0  0  0  0  0  0  0  0  0  0  0
    4.8397   21.4345   39.9467 H   0  0  0  0  0  0  0  0  0  0  0  0
    3.0928   21.7863   39.7794 H   0  0  0  0  0  0  0  0  0  0  0  0
    0.8125   21.3328   42.6508 H   0  0  0  0  0  0  0  0  0  0  0  0
    1.4654   18.0109   40.6838 H   0  0  0  0  0  0  0  0  0  0  0  0
    3.2802   17.9041   40.5351 H   0  0  0  0  0  0  0  0  0  0  0  0
    2.2836   16.2848   39.2407 H   0  0  0  0  0  0  0  0  0  0  0  0
    1.2448   17.5785   38.4410 H   0  0  0  0  0  0  0  0  0  0  0  0
    1.7255   20.7711   42.0385 H   0  0  0  0  0  0  0  0  0  0  0  0
   -2.0506   13.9142   46.7617 H   0  0  0  0  0  0  0  0  0  0  0  0
   -1.3965   12.2837   46.4518 H   0  0  0  0  0  0  0  0  0  0  0  0
   -0.3235   21.7865   44.8420 H   0  0  0  0  0  0  0  0  0  0  0  0
    1.2739   16.8313   42.7628 H   0  0  0  0  0  0  0  0  0  0  0  0
    1.6574   16.2846   37.4546 H   0  0  0  0  0  0  0  0  0  0  0  0
    1.9173   17.6297   36.4788 H   0  0  0  0  0  0  0  0  0  0  0  0
    3.0251   16.3642   36.4788 H   0  0  0  0  0  0  0  0  0  0  0  0
   -1.7585   18.0210   46.5083 H   0  0  0  0  0  0  0  0  0  0  0  0
    4.3960   19.9034   41.6734 H   0  0  0  0  0  0  0  0  0  0  0  0
    3.7002   21.4927   42.0533 H   0  0  0  0  0  0  0  0  0  0  0  0
   -0.5064   17.9969   43.3342 H   0  0  0  0  0  0  0  0  0  0  0  0
    2.8375   20.7691   38.0354 H   0  0  0  0  0  0  0  0  0  0  0  0
    4.4130   19.5789   37.8054 H   0  0  0  0  0  0  0  0  0  0  0  0
    0.8362   18.2762   41.4886 H   0  0  0  0  0  0  0  0  0  0  0  0
    2.1684   18.0963   42.4866 H   0  0  0  0  0  0  0  0  0  0  0  0
    1.9671   20.2120   38.9297 H   0  0  0  0  0  0  0  0  0  0  0  0
    1.6860   15.1098   44.4689 H   0  0  0  0  0  0  0  0  0  0  0  0
    4.0677   17.2464   38.3408 H   0  0  0  0  0  0  0  0  0  0  0  0
    1.0583   20.0408   40.3075 H   0  0  0  0  0  0  0  0  0  0  0  0
    2.5688   18.6913   40.8410 H   0  0  0  0  0  0  0  0  0  0  0  0
  1 20  1  0
  1 24  1  0
  1  4  1  0
  2 11  1  0
  4 16  1  0
  5 12  1  0
  7 26  1  0
  7 20  1  0
  8  2  2  0
  9  6  1  0
 10 21  1  0
 12 22  2  0
 13 25  2  0
 15  3  1  0
 16 10  1  0
 17  5  2  0
 17 19  1  0
 18 22  1  0
 18 15  2  0
 19 13  1  0
 19 18  1  0
 21 17  1  0
 23  2  1  0
 23  3  2  0
 24  6  1  0
 24 27  1  0
 25 23  1  0
 26 14  1  0
 26  9  1  0
 27 10  1  0
  1 28  1  0
  3 29  1  0
  4 30  1  0
  4 31  1  0
  5 32  1  0
  6 33  1  0
  6 34  1  0
  9 35  1  0
  9 36  1  0
 10 37  1  0
 11 38  1  0
 11 39  1  0
 12 40  1  0
 13 41  1  0
 14 42  1  0
 14 43  1  0
 14 44  1  0
 15 45  1  0
 16 46  1  0
 16 47  1  0
 19 48  1  0
 20 49  1  0
 20 50  1  0
 21 51  1  0
 21 52  1  0
 24 53  1  0
 25 54  1  0
 26 55  1  0
 27 56  1  0
 27 57  1  0
M  CHG  2  14   1  21   1
M  END
>  <mol_id>  (77) 
2026-09-18-6fnk-s0-n100-refligand-seed1-0079

>  <rmsd_to_ref>  (77) 


$$$$

     RDKit          3D

 46 50  0  0  0  0  0  0  0  0999 V2000
   -0.7890   18.3230   46.4150 C   0  0  0  0  0  0  0  0  0  0  0  0
    2.9170   20.8710   39.8540 C   0  0  0  0  0  0  0  0  0  0  0  0
    0.3780   18.7790   44.2210 C   0  0  0  0  0  0  0  0  0  0  0  0
   -0.2090   18.0100   45.2630 C   0  0  0  0  0  0  0  0  0  0  0  0
    1.7830   18.9100   40.6420 C   0  0  0  0  0  0  0  0  0  0  0  0
    1.7220   16.5020   41.7590 C   0  0  0  0  0  0  0  0  0  0  0  0
    1.9370   20.2700   40.7320 O   0  0  0  0  0  0  0  0  0  0  0  0
   -1.3860   15.9750   46.7740 C   0  0  0  0  0  0  0  0  0  0  0  0
    4.0710   14.7250   39.6060 C   0  0  0  0  0  0  0  0  0  0  0  0
   -1.4560   17.3160   47.2440 C   0  0  0  0  0  0  0  0  0  0  0  0
    0.6140   16.5140   43.7100 C   0  0  0  0  0  0  0  0  0  0  0  0
    5.0190   14.4900   37.5500 O   0  0  0  0  0  0  0  0  0  0  0  0
    1.3980   17.9600   41.8600 C   0  0  0  0  0  0  0  0  0  0  0  0
    3.7410   14.3120   38.1830 C   0  0  0  0  0  0  0  0  0  0  0  0
    0.7500   17.8960   43.2790 N   0  0  0  0  0  0  0  0  0  0  0  0
    0.6830   20.6530   43.0240 O   0  0  0  0  0  0  0  0  0  0  0  0
    2.6170   14.9520   37.4070 C   0  0  0  0  0  0  0  0  0  0  0  0
    2.6560   14.8220   40.4600 C   0  0  0  0  0  0  0  0  0  0  0  0
    1.1840   15.6040   42.9480 C   0  0  0  0  0  0  0  0  0  0  0  0
    0.1340   20.0220   43.9230 C   0  0  0  0  0  0  0  0  0  0  0  0
    2.0900   18.3180   39.4380 C   0  0  0  0  0  0  0  0  0  0  0  0
    2.2400   16.8670   39.2480 C   0  0  0  0  0  0  0  0  0  0  0  0
   -0.9550   20.6050   44.3540 O   0  0  0  0  0  1  0  0  0  0  0  0
   -0.7510   15.5890   45.6220 C   0  0  0  0  0  0  0  0  0  0  0  0
    2.3160   16.2120   40.6900 N   0  0  0  0  0  0  0  0  0  0  0  0
   -0.1370   16.6090   44.8650 C   0  0  0  0  0  0  0  0  0  0  0  0
    1.7470   15.8740   38.0620 C   0  0  0  0  0  0  0  0  0  0  0  0
   -0.7683   19.3683   46.7571 H   0  0  0  0  0  0  0  0  0  0  0  0
    3.7020   21.3524   40.4557 H   0  0  0  0  0  0  0  0  0  0  0  0
    3.3666   20.0932   39.2193 H   0  0  0  0  0  0  0  0  0  0  0  0
    2.4276   21.6244   39.2193 H   0  0  0  0  0  0  0  0  0  0  0  0
   -1.8747   15.1947   47.3760 H   0  0  0  0  0  0  0  0  0  0  0  0
    4.5713   15.7046   39.6025 H   0  0  0  0  0  0  0  0  0  0  0  0
    4.7433   13.9875   40.0686 H   0  0  0  0  0  0  0  0  0  0  0  0
   -1.9797   17.5809   48.1744 H   0  0  0  0  0  0  0  0  0  0  0  0
    5.7196   14.5876   38.2426 H   0  0  0  0  0  0  0  0  0  0  0  0
    3.2975   13.3056   38.2045 H   0  0  0  0  0  0  0  0  0  0  0  0
    1.9876   14.1355   37.0233 H   0  0  0  0  0  0  0  0  0  0  0  0
    3.1375   15.5723   36.6624 H   0  0  0  0  0  0  0  0  0  0  0  0
    1.8503   14.3388   39.8879 H   0  0  0  0  0  0  0  0  0  0  0  0
    2.7799   14.3134   41.4275 H   0  0  0  0  0  0  0  0  0  0  0  0
    1.2646   14.5170   43.0965 H   0  0  0  0  0  0  0  0  0  0  0  0
    2.2320   18.9702   38.5637 H   0  0  0  0  0  0  0  0  0  0  0  0
   -0.7217   14.5365   45.3037 H   0  0  0  0  0  0  0  0  0  0  0  0
    1.3436   16.5236   37.2713 H   0  0  0  0  0  0  0  0  0  0  0  0
    1.0781   15.1936   38.6094 H   0  0  0  0  0  0  0  0  0  0  0  0
  1 10  2  0
  2  7  1  0
  3  4  2  0
  4  1  1  0
  5  7  1  0
  5 13  2  0
  6 13  1  0
  6 19  2  0
  8 10  1  0
  9 18  1  0
 11 26  2  0
 13 15  1  0
 14 12  1  0
 14  9  1  0
 15 11  1  0
 15  3  1  0
 16 20  2  0
 17 27  1  0
 17 14  1  0
 18 25  1  0
 19 11  1  0
 20  3  1  0
 20 23  1  0
 21  5  1  0
 22 21  2  0
 22 25  1  0
 24  8  2  0
 25  6  1  0
 26  4  1  0
 26 24  1  0
 27 22  1  0
  1 28  1  0
  2 29  1  0
  2 30  1  0
  2 31  1  0
  8 32  1  0
  9 33  1  0
  9 34  1  0
 10 35  1  0
 12 36  1  0
 14 37  1  0
 17 38  1  0
 17 39  1  0
 18 40  1  0
 18 41  1  0
 19 42  1  0
 21 43  1  0
 24 44  1  0
 27 45  1  0
 27 46  1  0
M  CHG  1  23  -1
M  END
>  <mol_id>  (78) 
2026-09-18-6fnk-s0-n100-refligand-seed1-0080

>  <rmsd_to_ref>  (78) 


$$$$

     RDKit          3D

 53 58  0  0  0  0  0  0  0  0999 V2000
    3.8700   20.8490   39.2340 C   0  0  0  0  0  0  0  0  0  0  0  0
   -1.8410   16.9790   47.1970 C   0  0  0  0  0  0  0  0  0  0  0  0
    0.9360   15.9110   42.2920 N   0  0  0  0  0  4  0  0  0  0  0  0
   -0.3430   21.2480   43.9250 O   0  0  0  0  0  0  0  0  0  0  0  0
    1.7660   16.5340   41.9680 C   0  0  0  0  0  0  0  0  0  0  0  0
   -0.2900   16.2280   44.0110 C   0  0  0  0  0  0  0  0  0  0  0  0
    2.9040   18.4400   41.0920 C   0  0  0  0  0  0  0  0  0  0  0  0
    0.1810   15.4900   43.0560 C   0  0  0  0  0  0  0  0  0  0  0  0
    3.6090   19.6260   39.3950 N   0  0  0  0  0  0  0  0  0  0  0  0
   -0.8420   15.9350   45.1130 C   0  0  0  0  0  0  0  0  0  0  0  0
   -0.9120   19.3500   45.0810 O   0  0  0  0  0  0  0  0  0  0  0  0
    1.7360   20.3640   41.0960 C   0  0  0  0  0  0  0  0  0  0  0  0
    3.2370   14.7000   41.0980 C   0  0  0  0  0  0  0  0  0  0  0  0
    0.6870   18.9660   43.2350 C   0  0  0  0  0  0  0  0  0  0  0  0
    3.0230   19.6400   40.8970 C   0  0  0  0  0  0  0  0  0  0  0  0
    0.0450   17.5310   44.0600 C   0  0  0  0  0  0  0  0  0  0  0  0
    1.7800   18.0820   42.0450 C   0  0  0  0  0  0  0  0  0  0  0  0
    0.8020   20.2480   41.8550 C   0  0  0  0  0  0  0  0  0  0  0  0
   -0.3480   20.0280   44.0840 C   0  0  0  0  0  0  0  0  0  0  0  0
   -1.1270   17.0580   45.7710 C   0  0  0  0  0  0  0  0  0  0  0  0
    6.1230   22.5420   39.0160 O   0  0  0  0  0  0  0  0  0  0  0  0
    3.4930   17.2520   40.8110 N   0  0  0  0  0  0  0  0  0  0  0  0
   -0.4400   14.2510   42.6780 C   0  0  0  0  0  0  0  0  0  0  0  0
   -0.6750   18.0750   44.9960 C   0  0  0  0  0  0  0  0  0  0  0  0
    4.2330   21.1390   38.1390 N   0  0  0  0  0  0  0  0  0  0  0  0
    2.9200   16.1560   41.3270 C   0  0  0  0  0  0  0  0  0  0  0  0
    4.0800   20.8580   40.7860 C   0  0  0  0  0  0  0  0  0  0  0  0
    5.6280   21.6060   37.9390 C   0  0  0  0  0  0  0  0  0  0  0  0
   -1.0844   17.0627   47.9910 H   0  0  0  0  0  0  0  0  0  0  0  0
   -2.5640   17.8026   47.2912 H   0  0  0  0  0  0  0  0  0  0  0  0
   -2.3665   16.0172   47.2912 H   0  0  0  0  0  0  0  0  0  0  0  0
    1.3246   15.0082   41.9839 H   0  0  0  0  0  0  0  0  0  0  0  0
    0.3319   16.7413   42.2111 H   0  0  0  0  0  0  0  0  0  0  0  0
   -0.9462   15.6078   43.3827 H   0  0  0  0  0  0  0  0  0  0  0  0
    0.8127   15.1680   43.8970 H   0  0  0  0  0  0  0  0  0  0  0  0
   -1.7691   15.3743   44.9228 H   0  0  0  0  0  0  0  0  0  0  0  0
   -0.1608   15.3158   45.7152 H   0  0  0  0  0  0  0  0  0  0  0  0
    1.6054   21.1965   40.3889 H   0  0  0  0  0  0  0  0  0  0  0  0
    3.3476   14.1920   42.0674 H   0  0  0  0  0  0  0  0  0  0  0  0
    2.4198   14.2318   40.5298 H   0  0  0  0  0  0  0  0  0  0  0  0
    4.1749   14.6139   40.5298 H   0  0  0  0  0  0  0  0  0  0  0  0
    0.9172   17.0191   43.6272 H   0  0  0  0  0  0  0  0  0  0  0  0
    2.4995   18.0342   42.8757 H   0  0  0  0  0  0  0  0  0  0  0  0
   -0.0433   20.9411   41.7320 H   0  0  0  0  0  0  0  0  0  0  0  0
    5.9200   22.1581   39.9057 H   0  0  0  0  0  0  0  0  0  0  0  0
   -0.7208   13.6908   43.5821 H   0  0  0  0  0  0  0  0  0  0  0  0
   -1.3403   14.4592   42.0812 H   0  0  0  0  0  0  0  0  0  0  0  0
    0.2656   13.6543   42.0812 H   0  0  0  0  0  0  0  0  0  0  0  0
    3.5876   21.0670   37.3395 H   0  0  0  0  0  0  0  0  0  0  0  0
    5.1008   20.6045   41.1079 H   0  0  0  0  0  0  0  0  0  0  0  0
    3.9496   21.7795   41.3723 H   0  0  0  0  0  0  0  0  0  0  0  0
    6.2874   20.7259   37.9158 H   0  0  0  0  0  0  0  0  0  0  0  0
    5.6422   22.1710   36.9953 H   0  0  0  0  0  0  0  0  0  0  0  0
  1  9  2  0
  1 27  1  0
  3  8  1  0
  4 19  2  0
  5 17  1  0
  5  3  1  0
  6 16  1  0
  6 10  1  0
  8 23  1  0
  8  6  1  0
  9 15  1  0
 10 20  1  0
 12 18  2  0
 13 26  1  0
 14 18  1  0
 14 16  1  0
 14 19  1  0
 15 27  1  0
 15  7  1  0
 15 12  1  0
 16 24  1  0
 17  7  1  0
 17 14  1  0
 19 11  1  0
 20  2  1  0
 22  7  2  0
 22 26  1  0
 24 11  1  0
 24 20  2  0
 25  1  1  0
 26  5  2  0
 28 25  1  0
 28 21  1  0
  2 29  1  0
  2 30  1  0
  2 31  1  0
  3 32  1  0
  3 33  1  0
  6 34  1  0
  8 35  1  0
 10 36  1  0
 10 37  1  0
 12 38  1  0
 13 39  1  0
 13 40  1  0
 13 41  1  0
 16 42  1  0
 17 43  1  0
 18 44  1  0
 21 45  1  0
 23 46  1  0
 23 47  1  0
 23 48  1  0
 25 49  1  0
 27 50  1  0
 27 51  1  0
 28 52  1  0
 28 53  1  0
M  CHG  1   3   1
M  END
>  <mol_id>  (79) 
2026-09-18-6fnk-s0-n100-refligand-seed1-0081

>  <rmsd_to_ref>  (79) 


$$$$

     RDKit          3D

 54 56  0  0  0  0  0  0  0  0999 V2000
    0.7530   16.7320   44.1000 C   0  0  0  0  0  0  0  0  0  0  0  0
    1.6640   18.3570   41.6460 C   0  0  0  0  0  0  0  0  0  0  0  0
    1.5540   18.3310   39.0250 C   0  0  0  0  0  0  0  0  0  0  0  0
   -0.8840   16.7450   45.9520 C   0  0  0  0  0  0  0  0  0  0  0  0
    0.5110   21.0170   42.4460 C   0  0  0  0  0  0  0  0  0  0  0  0
    0.9880   17.6910   38.3340 N   0  0  0  0  0  0  0  0  0  0  0  0
   -1.0800   18.1310   46.1080 C   0  0  0  0  0  0  0  0  0  0  0  0
   -1.6240   16.0370   47.2110 C   0  0  0  0  0  0  0  0  0  0  0  0
    5.8200   22.4580   37.5000 O   0  0  0  0  0  0  0  0  0  0  0  0
    2.1570   19.6640   41.0100 C   0  0  0  0  0  0  0  0  0  0  0  0
   -2.0510   16.6570   48.1520 O   0  0  0  0  0  0  0  0  0  0  0  0
    4.9660   21.8490   38.2920 C   0  0  0  0  0  0  0  0  0  0  0  0
    4.1410   21.3650   40.7330 C   0  0  0  0  0  0  0  0  0  0  0  0
    4.9010   21.9240   39.6870 C   0  0  0  0  0  0  0  0  0  0  0  0
    3.3650   20.5680   41.5590 C   0  0  0  0  0  0  0  0  0  0  0  0
   -0.6370   20.1900   45.3600 O   0  0  0  0  0  0  0  0  0  0  0  0
   -0.6340   19.1750   44.5800 C   0  0  0  0  0  0  0  0  0  0  0  0
    2.0750   16.8640   41.8330 N   0  0  0  0  0  0  0  0  0  0  0  0
    1.1130   20.1320   42.6840 N   0  0  0  0  0  0  0  0  0  0  0  0
    0.4320   18.0720   43.8290 C   0  0  0  0  0  0  0  0  0  0  0  0
    2.9860   20.3700   38.4820 C   0  0  0  0  0  0  0  0  0  0  0  0
    3.9770   20.8710   37.7510 C   0  0  0  0  0  0  0  0  0  0  0  0
    1.1360   18.8860   42.7630 C   0  0  0  0  0  0  0  0  0  0  0  0
    1.7550   14.7060   42.9110 C   0  0  0  0  0  0  0  0  0  0  0  0
   -1.7820   14.7200   47.2350 N   0  0  0  0  0  0  0  0  0  0  0  0
    1.6160   16.1880   42.9550 C   0  0  0  0  0  0  0  0  0  0  0  0
    0.2040   18.8860   45.0760 C   0  0  0  0  0  0  0  0  0  0  0  0
    2.3120   19.5380   39.3900 C   0  0  0  0  0  0  0  0  0  0  0  0
   -0.1450   16.1520   45.3230 C   0  0  0  0  0  0  0  0  0  0  0  0
   -2.5470   14.0450   48.2880 C   0  0  0  0  0  0  0  0  0  0  0  0
    1.5537   17.7481   39.9578 H   0  0  0  0  0  0  0  0  0  0  0  0
    0.9536   22.0209   42.5256 H   0  0  0  0  0  0  0  0  0  0  0  0
   -0.5355   20.9010   42.1277 H   0  0  0  0  0  0  0  0  0  0  0  0
    0.6167   16.7863   38.6572 H   0  0  0  0  0  0  0  0  0  0  0  0
   -2.0815   18.4242   45.7601 H   0  0  0  0  0  0  0  0  0  0  0  0
   -1.0138   18.4484   47.1591 H   0  0  0  0  0  0  0  0  0  0  0  0
    6.4924   22.9375   38.0460 H   0  0  0  0  0  0  0  0  0  0  0  0
    1.3095   20.2531   41.3904 H   0  0  0  0  0  0  0  0  0  0  0  0
    5.6501   20.9911   38.3700 H   0  0  0  0  0  0  0  0  0  0  0  0
    5.6597   22.6172   40.0792 H   0  0  0  0  0  0  0  0  0  0  0  0
    3.5859   20.5540   42.6365 H   0  0  0  0  0  0  0  0  0  0  0  0
   -0.6361   19.8829   46.3012 H   0  0  0  0  0  0  0  0  0  0  0  0
   -1.4958   18.5007   44.6918 H   0  0  0  0  0  0  0  0  0  0  0  0
   -0.6698   19.2706   43.4847 H   0  0  0  0  0  0  0  0  0  0  0  0
    4.0720   20.5511   36.7028 H   0  0  0  0  0  0  0  0  0  0  0  0
    1.7921   14.3106   43.9368 H   0  0  0  0  0  0  0  0  0  0  0  0
    0.8936   14.2725   42.3818 H   0  0  0  0  0  0  0  0  0  0  0  0
    2.6820   14.4402   42.3818 H   0  0  0  0  0  0  0  0  0  0  0  0
   -1.3532   14.1532   46.4895 H   0  0  0  0  0  0  0  0  0  0  0  0
    1.0938   19.3189   45.5566 H   0  0  0  0  0  0  0  0  0  0  0  0
   -0.0273   15.0856   45.5656 H   0  0  0  0  0  0  0  0  0  0  0  0
   -2.1798   14.3690   49.2730 H   0  0  0  0  0  0  0  0  0  0  0  0
   -3.6118   14.3033   48.1905 H   0  0  0  0  0  0  0  0  0  0  0  0
   -2.4233   12.9563   48.1905 H   0  0  0  0  0  0  0  0  0  0  0  0
  1 29  1  0
  2 18  1  0
  2 23  2  0
  3 28  1  0
  4  7  1  0
  4  8  1  0
  5 19  2  3
  6  3  2  3
  8 25  1  0
  8 11  2  0
 10 15  1  0
 10  2  1  0
 12  9  1  0
 12 14  1  0
 13 15  2  0
 14 13  2  0
 17 16  1  0
 18 26  2  0
 19 23  1  0
 20  1  2  0
 20 27  1  0
 21 28  2  0
 22 12  1  0
 22 21  2  0
 23 20  1  0
 24 26  1  0
 25 30  1  0
 26  1  1  0
 27 17  1  0
 27  7  1  0
 28 10  1  0
 29  4  2  0
  3 31  1  0
  5 32  1  0
  5 33  1  0
  6 34  1  0
  7 35  1  0
  7 36  1  0
  9 37  1  0
 10 38  1  0
 12 39  1  0
 14 40  1  0
 15 41  1  0
 16 42  1  0
 17 43  1  0
 17 44  1  0
 22 45  1  0
 24 46  1  0
 24 47  1  0
 24 48  1  0
 25 49  1  0
 27 50  1  0
 29 51  1  0
 30 52  1  0
 30 53  1  0
 30 54  1  0
M  END
>  <mol_id>  (80) 
2026-09-18-6fnk-s0-n100-refligand-seed1-0082

>  <rmsd_to_ref>  (80) 


$$$$

     RDKit          3D

 17 18  0  0  0  0  0  0  0  0999 V2000
    2.1460   17.1110   42.1180 C   0  0  0  0  0  0  0  0  0  0  0  0
    0.0390   20.4170   43.5420 C   0  0  0  0  0  0  0  0  0  0  0  0
   -0.5200   19.0150   45.3490 C   0  0  0  0  0  0  0  0  0  0  0  0
    0.7450   19.3020   42.9470 C   0  0  0  0  0  0  0  0  0  0  0  0
    0.0050   21.5750   42.9710 N   0  0  0  0  0  0  0  0  0  0  0  0
    2.7820   17.6120   41.2420 O   0  0  0  0  0  0  0  0  0  0  0  0
    0.7570   18.1070   43.5520 C   0  0  0  0  0  0  0  0  0  0  0  0
    1.4510   16.9670   43.0180 C   0  0  0  0  0  0  0  0  0  0  0  0
   -0.5980   20.2690   44.7650 N   0  0  0  0  0  0  0  0  0  0  0  0
    0.1650   18.0350   44.7990 C   0  0  0  0  0  0  0  0  0  0  0  0
    1.7740   16.0130   42.3770 O   0  0  0  0  0  0  0  0  0  0  0  0
   -1.0450   18.8335   46.2984 H   0  0  0  0  0  0  0  0  0  0  0  0
    1.2747   19.4369   41.9924 H   0  0  0  0  0  0  0  0  0  0  0  0
    0.4692   21.7149   42.0622 H   0  0  0  0  0  0  0  0  0  0  0  0
   -0.4863   22.3585   43.4244 H   0  0  0  0  0  0  0  0  0  0  0  0
    1.0325   16.8400   44.0273 H   0  0  0  0  0  0  0  0  0  0  0  0
    0.2732   17.0996   45.3676 H   0  0  0  0  0  0  0  0  0  0  0  0
  1 11  1  0
  1  8  1  0
  2  9  2  0
  4  2  1  0
  4  7  2  0
  5  2  1  0
  6  1  2  0
  7 10  1  0
  8  7  1  0
  9  3  1  0
 10  3  2  0
 11  8  1  0
  3 12  1  0
  4 13  1  0
  5 14  1  0
  5 15  1  0
  8 16  1  0
 10 17  1  0
M  END
>  <mol_id>  (81) 
2026-09-18-6fnk-s0-n100-refligand-seed1-0083

>  <rmsd_to_ref>  (81) 


$$$$

     RDKit          3D

 56 58  0  0  0  0  0  0  0  0999 V2000
    1.0410   19.5140   42.0040 C   0  0  0  0  0  0  0  0  0  0  0  0
    5.4800   21.9400   39.2000 O   0  0  0  0  0  0  0  0  0  0  0  0
   -0.4310   15.7060   44.8940 C   0  0  0  0  0  0  0  0  0  0  0  0
    1.9870   17.6220   38.5390 C   0  0  0  0  0  0  0  0  0  0  0  0
    3.5830   17.3910   41.6580 O   0  0  0  0  0  0  0  0  0  0  0  0
   -0.6900   20.0400   45.0940 O   0  0  0  0  0  0  0  0  0  0  0  0
    0.0560   21.2970   43.1380 C   0  0  0  0  0  0  0  0  0  0  0  0
   -0.0090   16.8350   44.0370 C   0  0  0  0  0  0  0  0  0  0  0  0
   -0.1700   19.2600   44.3610 C   0  0  0  0  0  0  0  0  0  0  0  0
    3.5590   21.1850   40.0530 C   0  0  0  0  0  0  0  0  0  0  0  0
    4.5190   21.2790   41.1440 C   0  0  0  0  0  0  0  0  0  0  0  0
    1.2500   18.1200   41.9500 C   0  0  0  0  0  0  0  0  0  0  0  0
   -2.2410   14.1330   47.1820 C   0  0  0  0  0  0  0  0  0  0  0  0
   -0.3430   17.9480   44.7600 N   0  0  0  0  0  0  0  0  0  0  0  0
    1.9260   16.9760   39.8210 O   0  0  0  0  0  0  0  0  0  0  0  0
   -0.9940   17.5540   45.9190 C   0  0  0  0  0  0  0  0  0  0  0  0
   -1.1440   16.1480   46.0410 C   0  0  0  0  0  0  0  0  0  0  0  0
   -1.4960   13.2510   46.2310 C   0  0  0  0  0  0  0  0  0  0  0  0
    2.2000   20.9220   40.1480 C   0  0  0  0  0  0  0  0  0  0  0  0
    4.1420   21.4060   38.9270 C   0  0  0  0  0  0  0  0  0  0  0  0
   -1.7860   15.5310   47.0170 N   0  0  0  0  0  0  0  0  0  0  0  0
    0.5220   17.0220   42.7050 C   0  0  0  0  0  0  0  0  0  0  0  0
    5.6310   21.9380   40.6120 C   0  0  0  0  0  0  0  0  0  0  0  0
    0.3440   19.9490   43.1360 C   0  0  0  0  0  0  0  0  0  0  0  0
   -2.1300   16.3660   48.1830 C   0  0  0  0  0  0  0  0  0  0  0  0
    1.4440   20.2130   40.9230 C   0  0  0  0  0  0  0  0  0  0  0  0
    2.2680   17.6550   41.0870 N   0  0  0  0  0  0  0  0  0  0  0  0
   -0.2184   14.6502   44.6703 H   0  0  0  0  0  0  0  0  0  0  0  0
    2.0896   18.7081   38.6802 H   0  0  0  0  0  0  0  0  0  0  0  0
    2.8532   17.2418   37.9777 H   0  0  0  0  0  0  0  0  0  0  0  0
    1.0649   17.4107   37.9777 H   0  0  0  0  0  0  0  0  0  0  0  0
    3.5222   17.4032   42.6461 H   0  0  0  0  0  0  0  0  0  0  0  0
   -0.0203   21.6541   44.1756 H   0  0  0  0  0  0  0  0  0  0  0  0
    0.8576   21.8440   42.6200 H   0  0  0  0  0  0  0  0  0  0  0  0
   -0.8991   21.4687   42.6200 H   0  0  0  0  0  0  0  0  0  0  0  0
    3.3564   22.2628   40.1384 H   0  0  0  0  0  0  0  0  0  0  0  0
    4.0950   21.8551   41.9797 H   0  0  0  0  0  0  0  0  0  0  0  0
    4.7845   20.2871   41.5384 H   0  0  0  0  0  0  0  0  0  0  0  0
    1.9800   18.1977   42.7692 H   0  0  0  0  0  0  0  0  0  0  0  0
   -3.3190   14.0710   46.9719 H   0  0  0  0  0  0  0  0  0  0  0  0
   -2.0492   13.8042   48.2141 H   0  0  0  0  0  0  0  0  0  0  0  0
   -1.3603   18.2652   46.6740 H   0  0  0  0  0  0  0  0  0  0  0  0
   -0.8879   12.5311   46.7984 H   0  0  0  0  0  0  0  0  0  0  0  0
   -2.2122   12.7071   45.5976 H   0  0  0  0  0  0  0  0  0  0  0  0
   -0.8400   13.8662   45.5976 H   0  0  0  0  0  0  0  0  0  0  0  0
    1.6220   21.4459   39.3725 H   0  0  0  0  0  0  0  0  0  0  0  0
    3.5615   22.1364   38.3443 H   0  0  0  0  0  0  0  0  0  0  0  0
    4.2162   20.4734   38.3485 H   0  0  0  0  0  0  0  0  0  0  0  0
   -0.3624   16.8502   42.0739 H   0  0  0  0  0  0  0  0  0  0  0  0
    1.4364   16.4435   42.9031 H   0  0  0  0  0  0  0  0  0  0  0  0
    6.5533   21.4079   40.8920 H   0  0  0  0  0  0  0  0  0  0  0  0
    5.6995   22.9652   40.9996 H   0  0  0  0  0  0  0  0  0  0  0  0
    1.2977   20.1520   43.6452 H   0  0  0  0  0  0  0  0  0  0  0  0
   -1.9032   15.8155   49.1079 H   0  0  0  0  0  0  0  0  0  0  0  0
   -1.5413   17.2948   48.1554 H   0  0  0  0  0  0  0  0  0  0  0  0
   -3.2021   16.6105   48.1554 H   0  0  0  0  0  0  0  0  0  0  0  0
  1 24  1  0
  2 23  1  0
  3 17  1  0
  4 15  1  0
  8 14  1  0
  8  3  2  0
  9 14  1  0
  9  6  2  0
 10 19  1  0
 10 11  1  0
 12 27  1  0
 12  1  1  0
 12 22  1  0
 14 16  1  0
 15 27  1  0
 16 17  2  0
 17 21  1  0
 18 13  1  0
 19 26  2  0
 20  2  1  0
 20 10  1  0
 21 13  1  0
 21 25  1  0
 22  8  1  0
 23 11  1  0
 24  7  1  0
 24  9  1  0
 26  1  2  0
 27  5  1  0
  3 28  1  0
  4 29  1  0
  4 30  1  0
  4 31  1  0
  5 32  1  0
  7 33  1  0
  7 34  1  0
  7 35  1  0
 10 36  1  0
 11 37  1  0
 11 38  1  0
 12 39  1  0
 13 40  1  0
 13 41  1  0
 16 42  1  0
 18 43  1  0
 18 44  1  0
 18 45  1  0
 19 46  1  0
 20 47  1  0
 20 48  1  0
 22 49  1  0
 22 50  1  0
 23 51  1  0
 23 52  1  0
 24 53  1  0
 25 54  1  0
 25 55  1  0
 25 56  1  0
M  END
>  <mol_id>  (82) 
2026-09-18-6fnk-s0-n100-refligand-seed1-0084

>  <rmsd_to_ref>  (82) 


$$$$

     RDKit          3D

 59 62  0  0  0  0  0  0  0  0999 V2000
    3.0130   13.0930   42.2660 N   0  0  0  0  0  4  0  0  0  0  0  0
   -0.9160   18.4340   45.6970 C   0  0  0  0  0  0  0  0  0  0  0  0
   -2.1420   17.1150   47.5420 C   0  0  0  0  0  0  0  0  0  0  0  0
   -0.1270   16.5360   44.7190 N   0  0  0  0  0  0  0  0  0  0  0  0
    2.0550   20.0120   40.8060 C   0  0  0  0  0  0  0  0  0  0  0  0
    1.7130   16.2790   42.7020 N   0  0  0  0  0  0  0  0  0  0  0  0
    6.4410   21.7120   39.4000 O   0  0  0  0  0  0  0  0  0  0  0  0
    1.3920   18.5440   42.6360 C   0  0  0  0  0  0  0  0  0  0  0  0
    2.9420   21.1940   38.8600 C   0  0  0  0  0  0  0  0  0  0  0  0
    1.8180   20.4160   39.4750 C   0  0  0  0  0  0  0  0  0  0  0  0
    5.4330   21.9130   38.6510 C   0  0  0  0  0  0  0  0  0  0  0  0
    3.5000   20.9060   37.7760 O   0  0  0  0  0  0  0  0  0  0  0  0
    4.1780   21.3140   38.5650 C   0  0  0  0  0  0  0  0  0  0  0  0
   -0.4580   20.6890   45.0580 N   0  0  0  0  0  0  0  0  0  0  0  0
    6.1970   21.2100   40.6900 C   0  0  0  0  0  0  0  0  0  0  0  0
   -1.4080   17.3140   46.3150 N   0  0  0  0  0  0  0  0  0  0  0  0
    2.8230   15.0320   41.1830 C   0  0  0  0  0  0  0  0  0  0  0  0
    1.8460   15.0130   42.3430 C   0  0  0  0  0  0  0  0  0  0  0  0
   -0.9460   19.8700   45.8640 C   0  0  0  0  0  0  0  0  0  0  0  0
    1.3900   18.9730   41.2620 N   0  0  0  0  0  0  0  0  0  0  0  0
   -0.1530   17.9680   44.6200 C   0  0  0  0  0  0  0  0  0  0  0  0
    5.1100   21.8250   41.1570 F   0  0  0  0  0  0  0  0  0  0  0  0
    0.1790   20.2410   43.9070 C   0  0  0  0  0  0  0  0  0  0  0  0
    2.8360   20.5330   41.5880 O   0  0  0  0  0  0  0  0  0  0  0  0
   -1.0020   16.1410   45.6730 C   0  0  0  0  0  0  0  0  0  0  0  0
    0.7600   14.0280   42.0840 C   0  0  0  0  0  0  0  0  0  0  0  0
    0.3870   18.9640   43.6990 C   0  0  0  0  0  0  0  0  0  0  0  0
    1.6440   12.9300   42.7690 C   0  0  0  0  0  0  0  0  0  0  0  0
    1.5200   17.3290   42.7480 N   0  0  0  0  0  0  0  0  0  0  0  0
    2.8530   13.5440   40.8770 C   0  0  0  0  0  0  0  0  0  0  0  0
    3.5212   13.7973   42.8196 H   0  0  0  0  0  0  0  0  0  0  0  0
    3.5567   12.2206   42.3307 H   0  0  0  0  0  0  0  0  0  0  0  0
   -1.4776   17.2951   48.4000 H   0  0  0  0  0  0  0  0  0  0  0  0
   -2.9889   17.8160   47.5805 H   0  0  0  0  0  0  0  0  0  0  0  0
   -2.5188   16.0823   47.5805 H   0  0  0  0  0  0  0  0  0  0  0  0
    2.6938   16.3725   43.0022 H   0  0  0  0  0  0  0  0  0  0  0  0
    2.2495   19.1846   42.8896 H   0  0  0  0  0  0  0  0  0  0  0  0
    2.3112   21.8162   39.5119 H   0  0  0  0  0  0  0  0  0  0  0  0
    0.9152   21.0442   39.4607 H   0  0  0  0  0  0  0  0  0  0  0  0
    1.7070   19.4971   38.8806 H   0  0  0  0  0  0  0  0  0  0  0  0
    5.1961   22.9731   38.8245 H   0  0  0  0  0  0  0  0  0  0  0  0
    5.8539   21.4242   37.7600 H   0  0  0  0  0  0  0  0  0  0  0  0
    5.1153   21.3546   39.1393 H   0  0  0  0  0  0  0  0  0  0  0  0
    6.0249   20.1245   40.6449 H   0  0  0  0  0  0  0  0  0  0  0  0
    7.0597   21.3921   41.3478 H   0  0  0  0  0  0  0  0  0  0  0  0
    2.4448   15.6206   40.3342 H   0  0  0  0  0  0  0  0  0  0  0  0
    3.7996   15.4927   41.3930 H   0  0  0  0  0  0  0  0  0  0  0  0
    2.1156   14.5659   43.3112 H   0  0  0  0  0  0  0  0  0  0  0  0
   -1.4336   20.2693   46.7656 H   0  0  0  0  0  0  0  0  0  0  0  0
    0.8296   18.4293   40.5902 H   0  0  0  0  0  0  0  0  0  0  0  0
    0.5148   20.9719   43.1566 H   0  0  0  0  0  0  0  0  0  0  0  0
   -1.3253   15.1135   45.8960 H   0  0  0  0  0  0  0  0  0  0  0  0
   -0.1833   14.2436   42.6072 H   0  0  0  0  0  0  0  0  0  0  0  0
    0.3541   13.8818   41.0721 H   0  0  0  0  0  0  0  0  0  0  0  0
    1.2660   11.9292   42.5132 H   0  0  0  0  0  0  0  0  0  0  0  0
    1.6168   13.0361   43.8635 H   0  0  0  0  0  0  0  0  0  0  0  0
    0.5051   17.1849   42.8481 H   0  0  0  0  0  0  0  0  0  0  0  0
    1.9177   13.1868   40.4213 H   0  0  0  0  0  0  0  0  0  0  0  0
    3.6058   13.2001   40.1524 H   0  0  0  0  0  0  0  0  0  0  0  0
  1 28  1  0
  2 19  1  0
  2 16  1  0
  4 25  2  0
  5 20  1  0
  5 24  2  0
  6 29  1  0
  7 15  1  0
  8 20  1  0
  8 29  1  0
  8 27  1  0
  9 10  1  0
 10  5  1  0
 11  7  1  0
 12 13  1  0
 12  9  1  0
 13 11  1  0
 13  9  1  0
 14 19  2  0
 15 22  1  0
 16  3  1  0
 17 18  1  0
 18  6  1  0
 21  4  1  0
 21  2  2  0
 23 14  1  0
 25 16  1  0
 26 18  1  0
 26 28  1  0
 27 23  2  0
 27 21  1  0
 30 17  1  0
 30  1  1  0
  1 31  1  0
  1 32  1  0
  3 33  1  0
  3 34  1  0
  3 35  1  0
  6 36  1  0
  8 37  1  0
  9 38  1  0
 10 39  1  0
 10 40  1  0
 11 41  1  0
 11 42  1  0
 13 43  1  0
 15 44  1  0
 15 45  1  0
 17 46  1  0
 17 47  1  0
 18 48  1  0
 19 49  1  0
 20 50  1  0
 23 51  1  0
 25 52  1  0
 26 53  1  0
 26 54  1  0
 28 55  1  0
 28 56  1  0
 29 57  1  0
 30 58  1  0
 30 59  1  0
M  CHG  1   1   1
M  END
>  <mol_id>  (83) 
2026-09-18-6fnk-s0-n100-refligand-seed1-0085

>  <rmsd_to_ref>  (83) 


$$$$

     RDKit          3D

 25 26  0  0  0  0  0  0  0  0999 V2000
    1.6400   18.8250   41.5810 C   0  0  0  0  0  0  0  0  0  0  0  0
   -0.8050   17.3340   46.0070 O   0  0  0  0  0  0  0  0  0  0  0  0
    0.3470   19.4250   43.5870 O   0  0  0  0  0  0  0  0  0  0  0  0
    1.4460   17.8380   42.3470 N   0  0  0  0  0  0  0  0  0  0  0  0
    0.6630   17.0910   44.2320 C   0  0  0  0  0  0  0  0  0  0  0  0
    0.3350   18.5010   44.1340 C   0  0  0  0  0  0  0  0  0  0  0  0
    2.7790   19.3870   39.6730 C   0  0  0  0  0  0  0  0  0  0  0  0
    2.6680   20.5840   39.7870 C   0  0  0  0  0  0  0  0  0  0  0  0
    2.0930   20.9030   40.8650 C   0  0  0  0  0  0  0  0  0  0  0  0
    1.7170   20.0930   41.8640 C   0  0  0  0  0  0  0  0  0  0  0  0
    2.1730   18.5450   40.5980 C   0  0  0  0  0  0  0  0  0  0  0  0
   -0.5240   18.5580   45.3880 C   0  0  0  0  0  0  0  0  0  0  0  0
    3.0910   21.4010   38.7890 F   0  0  0  0  0  0  0  0  0  0  0  0
    2.0740   15.4650   43.2550 C   0  0  0  0  0  0  0  0  0  0  0  0
    1.5140   16.6670   43.2440 C   0  0  0  0  0  0  0  0  0  0  0  0
   -0.8330   19.6770   45.7840 O   0  0  0  0  0  0  0  0  0  0  0  0
   -0.0140   16.4160   45.1850 C   0  0  0  0  0  0  0  0  0  0  0  0
    0.4180   17.9018   42.3387 H   0  0  0  0  0  0  0  0  0  0  0  0
    3.3583   18.9640   38.8391 H   0  0  0  0  0  0  0  0  0  0  0  0
    1.8749   21.9727   41.0000 H   0  0  0  0  0  0  0  0  0  0  0  0
    1.4861   20.4785   42.8680 H   0  0  0  0  0  0  0  0  0  0  0  0
    2.2064   17.4713   40.3611 H   0  0  0  0  0  0  0  0  0  0  0  0
    1.9249   14.7966   44.1158 H   0  0  0  0  0  0  0  0  0  0  0  0
    2.6877   15.1363   42.4033 H   0  0  0  0  0  0  0  0  0  0  0  0
    0.0234   15.3256   45.3249 H   0  0  0  0  0  0  0  0  0  0  0  0
  1 10  1  0
  1  4  1  0
  3  6  2  0
  4 15  1  0
  5 17  2  0
  6  5  1  0
  6 12  1  0
  7  8  2  0
  7 11  1  0
  8  9  1  0
  9 10  2  0
 11  1  2  0
 12 16  2  0
 12  2  1  0
 13  8  1  0
 15 14  2  3
 15  5  1  0
 17  2  1  0
  4 18  1  0
  7 19  1  0
  9 20  1  0
 10 21  1  0
 11 22  1  0
 14 23  1  0
 14 24  1  0
 17 25  1  0
M  END
>  <mol_id>  (84) 
2026-09-18-6fnk-s0-n100-refligand-seed1-0086

>  <rmsd_to_ref>  (84) 


$$$$

     RDKit          3D

 25 26  0  0  0  0  0  0  0  0999 V2000
    0.1530   19.7110   43.6760 N   0  0  0  0  0  0  0  0  0  0  0  0
    1.0080   19.1400   42.9550 C   0  0  0  0  0  0  0  0  0  0  0  0
    0.9770   21.1160   41.6200 O   0  0  0  0  0  0  0  0  0  0  0  0
    3.0820   20.1260   41.9910 C   0  0  0  0  0  0  0  0  0  0  0  0
   -0.8350   19.2280   45.3750 N   0  0  0  0  0  0  0  0  0  0  0  0
   -0.7620   20.3630   44.4050 N   0  0  0  0  0  0  0  0  0  0  0  0
   -0.2400   18.3520   44.7750 C   0  0  0  0  0  0  0  0  0  0  0  0
    1.3880   17.7290   43.0680 C   0  0  0  0  0  0  0  0  0  0  0  0
    1.6330   19.9160   41.7960 C   0  0  0  0  0  0  0  0  0  0  0  0
    0.2600   17.0920   44.7250 C   0  0  0  0  0  0  0  0  0  0  0  0
    0.9960   16.7740   43.6440 N   0  0  0  0  0  0  0  0  0  0  0  0
    2.3210   17.3810   42.1810 O   0  0  0  0  0  0  0  0  0  0  0  0
   -0.1770   16.2720   45.7770 C   0  0  0  0  0  0  0  0  0  0  0  0
    0.1611   18.8604   42.3111 H   0  0  0  0  0  0  0  0  0  0  0  0
    0.7629   21.5077   42.5036 H   0  0  0  0  0  0  0  0  0  0  0  0
    3.3062   20.1585   43.0674 H   0  0  0  0  0  0  0  0  0  0  0  0
    3.6383   19.2991   41.5254 H   0  0  0  0  0  0  0  0  0  0  0  0
    3.3806   21.0768   41.5254 H   0  0  0  0  0  0  0  0  0  0  0  0
   -1.2736   19.1957   46.3064 H   0  0  0  0  0  0  0  0  0  0  0  0
   -0.4177   21.2420   44.8169 H   0  0  0  0  0  0  0  0  0  0  0  0
    1.5178   19.3123   40.8837 H   0  0  0  0  0  0  0  0  0  0  0  0
    1.1954   15.8068   43.3513 H   0  0  0  0  0  0  0  0  0  0  0  0
    0.0744   16.7438   46.7384 H   0  0  0  0  0  0  0  0  0  0  0  0
   -1.2666   16.1372   45.7085 H   0  0  0  0  0  0  0  0  0  0  0  0
    0.3187   15.2924   45.7085 H   0  0  0  0  0  0  0  0  0  0  0  0
  1  6  1  0
  1  7  1  0
  2  9  1  0
  2  8  1  0
  2  1  1  0
  3  9  1  0
  6  5  1  0
  7  5  1  0
  8 11  1  0
  9  4  1  0
 10  7  2  0
 10 13  1  0
 11 10  1  0
 12  8  2  0
  2 14  1  0
  3 15  1  0
  4 16  1  0
  4 17  1  0
  4 18  1  0
  5 19  1  0
  6 20  1  0
  9 21  1  0
 11 22  1  0
 13 23  1  0
 13 24  1  0
 13 25  1  0
M  END
>  <mol_id>  (85) 
2026-09-18-6fnk-s0-n100-refligand-seed1-0087

>  <rmsd_to_ref>  (85) 


$$$$

     RDKit          3D

 42 45  0  0  0  0  0  0  0  0999 V2000
    1.2630   17.0280   42.6750 C   0  0  0  0  0  0  0  0  0  0  0  0
   -0.9600   20.0220   45.4560 O   0  0  0  0  0  0  0  0  0  0  0  0
    3.6900   21.0590   37.9400 N   0  0  0  0  0  0  0  0  0  0  0  0
   -1.3990   17.7240   46.8800 C   0  0  0  0  0  0  0  0  0  0  0  0
    1.8080   18.8980   41.7810 C   0  0  0  0  0  0  0  0  0  0  0  0
    1.0590   18.3580   42.7790 C   0  0  0  0  0  0  0  0  0  0  0  0
    2.1110   17.9020   40.9000 N   0  0  0  0  0  0  0  0  0  0  0  0
    0.3770   20.3430   43.3120 O   0  0  0  0  0  0  0  0  0  0  0  0
    3.0770   13.4540   41.0060 O   0  0  0  0  0  0  0  0  0  0  0  0
    3.0090   21.0940   41.3530 C   0  0  0  0  0  0  0  0  0  0  0  0
    0.7710   16.2470   43.8800 C   0  0  0  0  0  0  0  0  0  0  0  0
    2.1740   14.3910   42.8240 C   0  0  0  0  0  0  0  0  0  0  0  0
    2.0150   20.1970   41.4470 N   0  0  0  0  0  0  0  0  0  0  0  0
    0.3230   19.0670   43.6730 C   0  0  0  0  0  0  0  0  0  0  0  0
    4.8500   21.6180   38.4420 C   0  0  0  0  0  0  0  0  0  0  0  0
    2.5100   15.7590   40.8350 C   0  0  0  0  0  0  0  0  0  0  0  0
    3.5110   21.3460   40.0850 N   0  0  0  0  0  0  0  0  0  0  0  0
    1.2900   14.9530   43.7590 C   0  0  0  0  0  0  0  0  0  0  0  0
    1.9170   16.7770   41.5360 C   0  0  0  0  0  0  0  0  0  0  0  0
    3.9300   21.0950   42.4010 O   0  0  0  0  0  0  0  0  0  0  0  0
    2.8310   20.9340   38.8440 C   0  0  0  0  0  0  0  0  0  0  0  0
    4.7850   21.8740   39.8070 C   0  0  0  0  0  0  0  0  0  0  0  0
   -0.6270   17.7150   45.5520 C   0  0  0  0  0  0  0  0  0  0  0  0
    0.0010   16.5730   44.9960 C   0  0  0  0  0  0  0  0  0  0  0  0
    2.5980   14.5000   41.5710 C   0  0  0  0  0  0  0  0  0  0  0  0
   -0.4280   18.9330   44.9160 C   0  0  0  0  0  0  0  0  0  0  0  0
   -1.4740   19.9557   46.2995 H   0  0  0  0  0  0  0  0  0  0  0  0
   -0.6867   17.7157   47.7182 H   0  0  0  0  0  0  0  0  0  0  0  0
   -2.0211   18.6295   46.9364 H   0  0  0  0  0  0  0  0  0  0  0  0
   -2.0420   16.8333   46.9364 H   0  0  0  0  0  0  0  0  0  0  0  0
   -0.1012   21.0283   43.8429 H   0  0  0  0  0  0  0  0  0  0  0  0
    3.1261   14.4777   43.3681 H   0  0  0  0  0  0  0  0  0  0  0  0
    1.4278   13.6370   42.5331 H   0  0  0  0  0  0  0  0  0  0  0  0
    1.1222   20.6356   41.1797 H   0  0  0  0  0  0  0  0  0  0  0  0
    5.7338   21.8378   37.8250 H   0  0  0  0  0  0  0  0  0  0  0  0
    3.5290   16.0733   40.5651 H   0  0  0  0  0  0  0  0  0  0  0  0
    1.8771   15.5687   39.9557 H   0  0  0  0  0  0  0  0  0  0  0  0
    0.9443   14.2523   44.5333 H   0  0  0  0  0  0  0  0  0  0  0  0
    0.9842   16.6204   40.9744 H   0  0  0  0  0  0  0  0  0  0  0  0
    1.7918   20.5903   38.7346 H   0  0  0  0  0  0  0  0  0  0  0  0
    5.5170   22.3508   40.4754 H   0  0  0  0  0  0  0  0  0  0  0  0
   -0.1675   15.6879   45.6270 H   0  0  0  0  0  0  0  0  0  0  0  0
  1  6  2  0
  1 11  1  0
  3 15  1  0
  3 21  2  0
  5  6  1  0
  6 14  1  0
  7 19  1  0
  7  5  2  0
  8 14  1  0
  9 25  2  0
 10 13  1  0
 10 20  2  0
 11 24  1  0
 12 18  1  0
 13  5  1  0
 14 26  2  0
 15 22  2  0
 16 25  1  0
 17 10  1  0
 18 11  2  0
 19 16  1  0
 19  1  1  0
 21 17  1  0
 22 17  1  0
 23  4  1  0
 24 23  2  0
 25 12  1  0
 26  2  1  0
 26 23  1  0
  2 27  1  0
  4 28  1  0
  4 29  1  0
  4 30  1  0
  8 31  1  0
 12 32  1  0
 12 33  1  0
 13 34  1  0
 15 35  1  0
 16 36  1  0
 16 37  1  0
 18 38  1  0
 19 39  1  0
 21 40  1  0
 22 41  1  0
 24 42  1  0
M  END
>  <mol_id>  (86) 
2026-09-18-6fnk-s0-n100-refligand-seed1-0088

>  <rmsd_to_ref>  (86) 


$$$$

     RDKit          3D

 42 43  0  0  0  0  0  0  0  0999 V2000
    2.4440   19.3090   38.6030 N   0  0  0  0  0  0  0  0  0  0  0  0
    2.1650   20.3120   41.0830 C   0  0  0  0  0  0  0  0  0  0  0  0
    1.4210   16.9220   43.1040 C   0  0  0  0  0  0  0  0  0  0  0  0
   -0.3310   20.9690   44.1330 N   0  0  0  0  0  4  0  0  0  0  0  0
    1.6530   18.7840   41.3230 C   0  0  0  0  0  0  0  0  0  0  0  0
    2.6710   17.6310   42.3800 S   0  0  0  0  0  0  0  0  0  0  0  0
   -0.3920   17.6360   44.6590 C   0  0  0  0  0  0  0  0  0  0  0  0
    0.4900   19.1620   43.0370 C   0  0  0  0  0  0  0  0  0  0  0  0
    2.9750   20.5330   38.9510 C   0  0  0  0  0  0  0  0  0  0  0  0
    1.2990   15.4400   43.3340 C   0  0  0  0  0  0  0  0  0  0  0  0
    0.4130   17.8660   43.6290 C   0  0  0  0  0  0  0  0  0  0  0  0
    2.8360   20.9480   40.2560 C   0  0  0  0  0  0  0  0  0  0  0  0
    3.6000   21.2820   38.0780 N   0  0  0  0  0  4  0  0  0  0  0  0
    0.3660   20.4060   43.1980 C   0  0  0  0  0  0  0  0  0  0  0  0
    2.0380   18.5600   39.4490 C   0  0  0  0  0  0  0  0  0  0  0  0
    2.1590   14.7520   42.6590 O   0  0  0  0  0  0  0  0  0  0  0  0
   -0.6790   20.0710   44.9900 C   0  0  0  0  0  0  0  0  0  0  0  0
    0.1410   14.6750   43.8730 C   0  0  0  0  0  0  0  0  0  0  0  0
   -0.8350   18.7810   45.3350 C   0  0  0  0  0  0  0  0  0  0  0  0
    1.2165   20.8691   41.0793 H   0  0  0  0  0  0  0  0  0  0  0  0
    3.0104   20.2038   41.7784 H   0  0  0  0  0  0  0  0  0  0  0  0
   -1.1716   21.4022   43.7249 H   0  0  0  0  0  0  0  0  0  0  0  0
    0.2302   21.6971   44.5975 H   0  0  0  0  0  0  0  0  0  0  0  0
    0.6920   18.5992   41.8253 H   0  0  0  0  0  0  0  0  0  0  0  0
    0.1479   17.0030   45.3786 H   0  0  0  0  0  0  0  0  0  0  0  0
   -1.2917   17.1583   44.2438 H   0  0  0  0  0  0  0  0  0  0  0  0
   -0.2051   19.0184   42.1966 H   0  0  0  0  0  0  0  0  0  0  0  0
    1.5465   19.2319   43.3352 H   0  0  0  0  0  0  0  0  0  0  0  0
   -0.4706   17.2119   43.5898 H   0  0  0  0  0  0  0  0  0  0  0  0
    3.3363   21.8739   40.5760 H   0  0  0  0  0  0  0  0  0  0  0  0
    4.1788   21.9757   38.5727 H   0  0  0  0  0  0  0  0  0  0  0  0
    4.2022   20.6910   37.4872 H   0  0  0  0  0  0  0  0  0  0  0  0
    2.9108   21.7686   37.4872 H   0  0  0  0  0  0  0  0  0  0  0  0
    1.3895   20.7885   43.3248 H   0  0  0  0  0  0  0  0  0  0  0  0
   -0.2427   20.6596   42.3176 H   0  0  0  0  0  0  0  0  0  0  0  0
    1.8477   17.5414   39.0798 H   0  0  0  0  0  0  0  0  0  0  0  0
    2.1707   13.7648   42.7329 H   0  0  0  0  0  0  0  0  0  0  0  0
   -1.0114   20.6389   45.8715 H   0  0  0  0  0  0  0  0  0  0  0  0
    0.1691   14.6936   44.9725 H   0  0  0  0  0  0  0  0  0  0  0  0
   -0.7959   15.1325   43.5224 H   0  0  0  0  0  0  0  0  0  0  0  0
    0.1942   13.6337   43.5224 H   0  0  0  0  0  0  0  0  0  0  0  0
   -1.3827   18.6003   46.2717 H   0  0  0  0  0  0  0  0  0  0  0  0
  1  9  1  0
  1 15  2  0
  2  5  1  0
  3 10  2  3
  4 17  1  0
  5  6  1  0
  6  3  1  0
  7 19  1  0
  8 14  1  0
  8 11  1  0
  9 12  2  0
 10 18  1  0
 11  3  1  0
 11  7  1  0
 12  2  1  0
 13  9  1  0
 14  4  1  0
 15  5  1  0
 16 10  1  0
 17 19  2  0
  2 20  1  0
  2 21  1  0
  4 22  1  0
  4 23  1  0
  5 24  1  0
  7 25  1  0
  7 26  1  0
  8 27  1  0
  8 28  1  0
 11 29  1  0
 12 30  1  0
 13 31  1  0
 13 32  1  0
 13 33  1  0
 14 34  1  0
 14 35  1  0
 15 36  1  0
 16 37  1  0
 17 38  1  0
 18 39  1  0
 18 40  1  0
 18 41  1  0
 19 42  1  0
M  CHG  2   4   1  13   1
M  END
>  <mol_id>  (87) 
2026-09-18-6fnk-s0-n100-refligand-seed1-0089

>  <rmsd_to_ref>  (87) 


$$$$

     RDKit          3D

 13 13  0  0  0  0  0  0  0  0999 V2000
   -0.5810   19.8780   44.5820 C   0  0  0  0  0  0  0  0  0  0  0  0
    1.2300   16.8700   43.8970 O   0  0  0  0  0  0  0  0  0  0  0  0
   -0.1250   18.6410   44.8190 C   0  0  0  0  0  0  0  0  0  0  0  0
    0.8030   18.3470   43.8650 C   0  0  0  0  0  0  0  0  0  0  0  0
   -0.1880   20.7270   43.4950 C   0  0  0  0  0  0  0  0  0  0  0  0
    2.3320   18.5410   42.2380 F   0  0  0  0  0  0  0  0  0  0  0  0
    0.8070   20.1450   42.6970 C   0  0  0  0  0  0  0  0  0  0  0  0
    1.2850   18.8820   42.9730 C   0  0  0  0  0  0  0  0  0  0  0  0
   -1.3251   20.2795   45.2856 H   0  0  0  0  0  0  0  0  0  0  0  0
    1.9007   16.5345   43.2507 H   0  0  0  0  0  0  0  0  0  0  0  0
   -0.4431   17.9796   45.6384 H   0  0  0  0  0  0  0  0  0  0  0  0
   -0.6184   21.7220   43.3085 H   0  0  0  0  0  0  0  0  0  0  0  0
    1.2113   20.7034   41.8398 H   0  0  0  0  0  0  0  0  0  0  0  0
  1  3  2  0
  4  2  1  0
  4  3  1  0
  5  1  1  0
  6  8  1  0
  7  8  1  0
  7  5  2  0
  8  4  2  0
  1  9  1  0
  2 10  1  0
  3 11  1  0
  5 12  1  0
  7 13  1  0
M  END
>  <mol_id>  (88) 
2026-09-18-6fnk-s0-n100-refligand-seed1-0090

>  <rmsd_to_ref>  (88) 


$$$$

     RDKit          3D

 13 14  0  0  0  0  0  0  0  0999 V2000
    0.7130   19.1010   42.9280 C   0  0  0  0  0  0  0  0  0  0  0  0
    0.1690   20.3830   43.2650 N   0  0  0  0  0  0  0  0  0  0  0  0
    1.1420   16.6590   42.7890 C   0  0  0  0  0  0  0  0  0  0  0  0
    1.8240   19.2640   41.9240 C   0  0  0  0  0  0  0  0  0  0  0  0
    2.1530   16.9050   41.8730 C   0  0  0  0  0  0  0  0  0  0  0  0
    1.9590   20.9470   41.6220 S   0  0  0  0  0  0  0  0  0  0  0  0
    0.4600   17.7960   43.3490 C   0  0  0  0  0  0  0  0  0  0  0  0
    0.6380   21.4180   42.6110 N   0  0  0  0  0  0  0  0  0  0  0  0
    2.4840   18.2020   41.3980 C   0  0  0  0  0  0  0  0  0  0  0  0
    0.8710   15.6326   43.0772 H   0  0  0  0  0  0  0  0  0  0  0  0
    2.7303   16.0491   41.4933 H   0  0  0  0  0  0  0  0  0  0  0  0
   -0.2882   17.6294   44.1380 H   0  0  0  0  0  0  0  0  0  0  0  0
    3.2542   18.3414   40.6251 H   0  0  0  0  0  0  0  0  0  0  0  0
  1  2  1  0
  1  7  2  0
  3  7  1  0
  4  1  1  0
  5  3  2  0
  6  4  1  0
  6  8  1  0
  8  2  2  0
  9  5  1  0
  9  4  2  0
  3 10  1  0
  5 11  1  0
  7 12  1  0
  9 13  1  0
M  END
>  <mol_id>  (89) 
2026-09-18-6fnk-s0-n100-refligand-seed1-0091

>  <rmsd_to_ref>  (89) 


$$$$

     RDKit          3D

 41 43  0  0  0  0  0  0  0  0999 V2000
    2.3260   20.8200   40.3770 C   0  0  0  0  0  0  0  0  0  0  0  0
    2.6970   21.8940   39.7420 F   0  0  0  0  0  0  0  0  0  0  0  0
    2.4080   19.4970   39.8750 C   0  0  0  0  0  0  0  0  0  0  0  0
    2.8640   14.4010   41.2160 C   0  0  0  0  0  0  0  0  0  0  0  0
    0.5350   18.5220   43.7880 C   0  0  0  0  0  0  0  0  0  0  0  0
   -0.3500   16.9770   45.4530 C   0  0  0  0  0  0  0  0  0  0  0  0
   -1.5720   15.5820   47.0170 C   0  0  0  0  0  0  0  0  0  0  0  0
    3.3680   15.2460   39.9980 C   0  0  0  0  0  0  0  0  0  0  0  0
    1.6760   21.0720   41.6040 C   0  0  0  0  0  0  0  0  0  0  0  0
    1.0270   17.6860   42.8720 C   0  0  0  0  0  0  0  0  0  0  0  0
   -0.7550   19.1520   45.5640 C   0  0  0  0  0  0  0  0  0  0  0  0
    1.9310   17.1700   40.0890 C   0  0  0  0  0  0  0  0  0  0  0  0
    1.9800   18.4900   40.6380 C   0  0  0  0  0  0  0  0  0  0  0  0
    1.4580   19.8920   42.3470 C   0  0  0  0  0  0  0  0  0  0  0  0
    3.8770   13.5390   38.2530 O   0  0  0  0  0  1  0  0  0  0  0  0
   -0.9890   20.0530   45.6980 O   0  0  0  0  0  0  0  0  0  0  0  0
   -1.0370   16.8450   46.6430 O   0  0  0  0  0  0  0  0  0  0  0  0
    1.5240   18.7050   41.8570 C   0  0  0  0  0  0  0  0  0  0  0  0
    0.7490   16.2720   43.4380 C   0  0  0  0  0  0  0  0  0  0  0  0
    0.6880   16.5030   40.1870 O   0  0  0  0  0  0  0  0  0  0  0  0
    3.7690   14.5890   38.7000 C   0  0  0  0  0  0  0  0  0  0  0  0
   -0.1390   18.2160   44.9130 C   0  0  0  0  0  0  0  0  0  0  0  0
    1.8280   13.6450   40.7820 O   0  0  0  0  0  0  0  0  0  0  0  0
    2.9290   16.6100   39.8830 N   0  0  0  0  0  0  0  0  0  0  0  0
    0.7590   19.8070   43.4230 N   0  0  0  0  0  0  0  0  0  0  0  0
    0.1760   15.9510   44.6830 C   0  0  0  0  0  0  0  0  0  0  0  0
    4.3370   15.6450   38.2520 O   0  0  0  0  0  0  0  0  0  0  0  0
    2.8179   19.3038   38.8727 H   0  0  0  0  0  0  0  0  0  0  0  0
    3.6731   13.7538   41.5854 H   0  0  0  0  0  0  0  0  0  0  0  0
    2.5480   15.0572   42.0404 H   0  0  0  0  0  0  0  0  0  0  0  0
   -1.6036   15.5075   48.1140 H   0  0  0  0  0  0  0  0  0  0  0  0
   -2.5902   15.4810   46.6132 H   0  0  0  0  0  0  0  0  0  0  0  0
   -0.9362   14.7803   46.6132 H   0  0  0  0  0  0  0  0  0  0  0  0
    4.3694   15.3185   40.4474 H   0  0  0  0  0  0  0  0  0  0  0  0
    1.3737   22.0739   41.9427 H   0  0  0  0  0  0  0  0  0  0  0  0
   -1.2675   18.6187   46.3782 H   0  0  0  0  0  0  0  0  0  0  0  0
    1.0305   15.4242   42.7961 H   0  0  0  0  0  0  0  0  0  0  0  0
    1.3338   13.2844   41.5604 H   0  0  0  0  0  0  0  0  0  0  0  0
    3.6703   17.2365   39.5382 H   0  0  0  0  0  0  0  0  0  0  0  0
    0.4097   20.6221   43.9469 H   0  0  0  0  0  0  0  0  0  0  0  0
    0.1462   14.9099   45.0369 H   0  0  0  0  0  0  0  0  0  0  0  0
  1  9  2  0
  2  1  1  0
  3  1  1  0
  3 13  2  0
  5 22  2  0
  6 17  1  0
  8  4  1  0
  9 14  1  0
 10 19  2  0
 10  5  1  0
 11 16  2  0
 12 20  2  0
 12 13  1  0
 13 18  1  0
 14 25  1  0
 15 21  1  0
 17  7  1  0
 18 14  2  0
 18 10  1  0
 19 26  1  0
 21  8  1  0
 22  6  1  0
 22 11  1  0
 23  4  1  0
 24  8  1  0
 24 12  1  0
 25  5  1  0
 26  6  2  0
 27 21  2  0
  3 28  1  0
  4 29  1  0
  4 30  1  0
  7 31  1  0
  7 32  1  0
  7 33  1  0
  8 34  1  0
  9 35  1  0
 11 36  1  0
 19 37  1  0
 23 38  1  0
 24 39  1  0
 25 40  1  0
 26 41  1  0
M  CHG  1  15  -1
M  END
>  <mol_id>  (90) 
2026-09-18-6fnk-s0-n100-refligand-seed1-0092

>  <rmsd_to_ref>  (90) 


$$$$

     RDKit          3D

 17 18  0  0  0  0  0  0  0  0999 V2000
    1.8190   19.8930   41.4990 N   0  0  0  0  0  0  0  0  0  0  0  0
    2.6390   17.7160   41.0320 C   0  0  0  0  0  0  0  0  0  0  0  0
    1.3140   16.7870   43.3050 C   0  0  0  0  0  0  0  0  0  0  0  0
    0.4510   20.2850   43.3550 N   0  0  0  0  0  0  0  0  0  0  0  0
    2.6990   16.3030   41.3340 C   0  0  0  0  0  0  0  0  0  0  0  0
    1.2870   18.0980   42.9470 C   0  0  0  0  0  0  0  0  0  0  0  0
    1.9170   18.5870   41.8040 C   0  0  0  0  0  0  0  0  0  0  0  0
    1.9780   15.8640   42.3950 C   0  0  0  0  0  0  0  0  0  0  0  0
    0.3610   18.6690   45.0850 O   0  0  0  0  0  0  0  0  0  0  0  0
    0.6140   18.9840   43.7780 C   0  0  0  0  0  0  0  0  0  0  0  0
    0.9750   20.6270   42.1570 C   0  0  0  0  0  0  0  0  0  0  0  0
    2.4032   20.3033   40.7566 H   0  0  0  0  0  0  0  0  0  0  0  0
    3.1874   18.1012   40.1597 H   0  0  0  0  0  0  0  0  0  0  0  0
    0.8542   16.4383   44.2415 H   0  0  0  0  0  0  0  0  0  0  0  0
    3.3045   15.6130   40.7280 H   0  0  0  0  0  0  0  0  0  0  0  0
    1.8923   14.7819   42.5732 H   0  0  0  0  0  0  0  0  0  0  0  0
    0.6675   21.5853   41.7130 H   0  0  0  0  0  0  0  0  0  0  0  0
  1  7  1  0
  1 11  1  0
  2  5  1  0
  2  7  2  0
  4 10  1  0
  5  8  2  0
  6  3  2  0
  6 10  1  0
  7  6  1  0
  8  3  1  0
 10  9  2  0
 11  4  2  0
  1 12  1  0
  2 13  1  0
  3 14  1  0
  5 15  1  0
  8 16  1  0
 11 17  1  0
M  END
>  <mol_id>  (91) 
2026-09-18-6fnk-s0-n100-refligand-seed1-0094

>  <rmsd_to_ref>  (91) 


$$$$

     RDKit          3D

 13 13  0  0  0  0  0  0  0  0999 V2000
    2.1510   17.7370   42.4550 N   0  0  0  0  0  0  0  0  0  0  0  0
   -0.5010   19.1900   44.5030 C   0  0  0  0  0  0  0  0  0  0  0  0
    1.2790   18.5940   42.9980 C   0  0  0  0  0  0  0  0  0  0  0  0
   -0.5120   20.3880   44.0720 N   0  0  0  0  0  0  0  0  0  0  0  0
    1.2060   19.8340   42.4860 C   0  0  0  0  0  0  0  0  0  0  0  0
    0.4120   18.3040   43.9930 C   0  0  0  0  0  0  0  0  0  0  0  0
    0.3450   20.7310   43.0110 C   0  0  0  0  0  0  0  0  0  0  0  0
    2.7755   18.0485   41.6974 H   0  0  0  0  0  0  0  0  0  0  0  0
    2.1979   16.7657   42.7945 H   0  0  0  0  0  0  0  0  0  0  0  0
   -1.2157   18.8699   45.2755 H   0  0  0  0  0  0  0  0  0  0  0  0
    1.8479   20.1181   41.6391 H   0  0  0  0  0  0  0  0  0  0  0  0
    0.4408   17.2913   44.4215 H   0  0  0  0  0  0  0  0  0  0  0  0
    0.3129   21.7511   42.6007 H   0  0  0  0  0  0  0  0  0  0  0  0
  1  3  1  0
  3  6  2  0
  4  2  2  0
  5  3  1  0
  5  7  2  0
  6  2  1  0
  7  4  1  0
  1  8  1  0
  1  9  1  0
  2 10  1  0
  5 11  1  0
  6 12  1  0
  7 13  1  0
M  END
>  <mol_id>  (92) 
2026-09-18-6fnk-s0-n100-refligand-seed1-0095

>  <rmsd_to_ref>  (92) 


$$$$

     RDKit          3D

 49 52  0  0  0  0  0  0  0  0999 V2000
    2.9520   16.3450   40.1040 C   0  0  0  0  0  0  0  0  0  0  0  0
    2.0060   15.5040   42.1140 C   0  0  0  0  0  0  0  0  0  0  0  0
   -1.8160   16.8350   48.0520 C   0  0  0  0  0  0  0  0  0  0  0  0
    1.9180   15.3930   40.5520 C   0  0  0  0  0  0  0  0  0  0  0  0
    1.4630   21.2030   41.0770 O   0  0  0  0  0  0  0  0  0  0  0  0
    2.9700   16.1150   37.8250 O   0  0  0  0  0  0  0  0  0  0  0  0
   -1.9730   14.3420   47.4080 C   0  0  0  0  0  0  0  0  0  0  0  0
    4.6710   15.1480   38.9340 O   0  0  0  0  0  1  0  0  0  0  0  0
    3.2300   20.5070   40.2440 O   0  0  0  0  0  0  0  0  0  0  0  0
    1.5790   17.9530   41.6400 C   0  0  0  0  0  0  0  0  0  0  0  0
   -0.1840   20.2330   44.0860 C   0  0  0  0  0  0  0  0  0  0  0  0
    0.1740   18.1510   44.1100 N   0  0  0  0  0  0  0  0  0  0  0  0
   -0.9420   19.6420   45.0890 N   0  0  0  0  0  0  0  0  0  0  0  0
    1.9300   16.9660   42.6760 C   0  0  0  0  0  0  0  0  0  0  0  0
   -0.6450   18.3580   45.1220 C   0  0  0  0  0  0  0  0  0  0  0  0
    2.2370   17.7800   40.2520 C   0  0  0  0  0  0  0  0  0  0  0  0
    0.5430   19.2980   43.5260 C   0  0  0  0  0  0  0  0  0  0  0  0
   -1.1620   15.6200   47.4020 C   0  0  0  0  0  0  0  0  0  0  0  0
    2.8350   19.8960   42.4400 O   0  0  0  0  0  0  0  0  0  0  0  0
   -0.6650   16.0630   46.0650 C   0  0  0  0  0  0  0  0  0  0  0  0
    0.8720   16.9120   43.7460 C   0  0  0  0  0  0  0  0  0  0  0  0
    3.5620   15.8560   38.8200 C   0  0  0  0  0  0  0  0  0  0  0  0
   -1.0060   17.4410   46.0090 N   0  0  0  0  0  0  0  0  0  0  0  0
    1.5620   19.2330   42.4460 C   0  0  0  0  0  0  0  0  0  0  0  0
    2.2490   20.1810   41.2980 S   0  0  0  0  0  4  0  0  0  0  0  0
    3.8829   16.4450   40.6814 H   0  0  0  0  0  0  0  0  0  0  0  0
    1.1738   14.9282   42.5452 H   0  0  0  0  0  0  0  0  0  0  0  0
    2.9956   15.1154   42.3962 H   0  0  0  0  0  0  0  0  0  0  0  0
   -1.7637   16.7379   49.1465 H   0  0  0  0  0  0  0  0  0  0  0  0
   -1.2871   17.7474   47.7392 H   0  0  0  0  0  0  0  0  0  0  0  0
   -2.8688   16.8960   47.7392 H   0  0  0  0  0  0  0  0  0  0  0  0
    0.9225   15.6875   40.1883 H   0  0  0  0  0  0  0  0  0  0  0  0
    2.0717   14.3706   40.1763 H   0  0  0  0  0  0  0  0  0  0  0  0
    1.1686   21.5858   41.9412 H   0  0  0  0  0  0  0  0  0  0  0  0
   -2.1673   14.0359   48.4465 H   0  0  0  0  0  0  0  0  0  0  0  0
   -2.9289   14.5119   46.8909 H   0  0  0  0  0  0  0  0  0  0  0  0
   -1.4122   13.5494   46.8909 H   0  0  0  0  0  0  0  0  0  0  0  0
    4.0816   20.7900   40.6620 H   0  0  0  0  0  0  0  0  0  0  0  0
    0.6060   17.8571   41.1360 H   0  0  0  0  0  0  0  0  0  0  0  0
   -0.1927   21.2979   43.8106 H   0  0  0  0  0  0  0  0  0  0  0  0
    2.9075   17.2927   43.0604 H   0  0  0  0  0  0  0  0  0  0  0  0
    2.9907   18.5693   40.1144 H   0  0  0  0  0  0  0  0  0  0  0  0
    1.4481   17.8493   39.4886 H   0  0  0  0  0  0  0  0  0  0  0  0
   -0.3176   15.2874   48.0235 H   0  0  0  0  0  0  0  0  0  0  0  0
    0.4238   15.9265   45.9881 H   0  0  0  0  0  0  0  0  0  0  0  0
   -1.1038   15.4851   45.2383 H   0  0  0  0  0  0  0  0  0  0  0  0
    0.1073   16.1964   43.4095 H   0  0  0  0  0  0  0  0  0  0  0  0
    1.4264   16.6403   44.6564 H   0  0  0  0  0  0  0  0  0  0  0  0
   -1.6209   17.7751   46.7647 H   0  0  0  0  0  0  0  0  0  0  0  0
  1 22  1  0
  1 16  1  0
  1  4  1  0
  4  2  1  0
  5 25  1  0
  6 22  2  0
  9 25  1  0
 10 16  1  0
 10 24  1  0
 10 14  1  0
 11 13  1  0
 12 15  1  0
 13 15  2  0
 14  2  1  0
 14 21  1  0
 15 23  1  0
 17 11  2  0
 17 12  1  0
 18  7  1  0
 18  3  1  0
 20 18  1  0
 21 12  1  0
 22  8  1  0
 23 20  1  0
 24 19  1  0
 24 17  1  0
 25 19  1  0
 25 24  1  0
  1 26  1  0
  2 27  1  0
  2 28  1  0
  3 29  1  0
  3 30  1  0
  3 31  1  0
  4 32  1  0
  4 33  1  0
  5 34  1  0
  7 35  1  0
  7 36  1  0
  7 37  1  0
  9 38  1  0
 10 39  1  0
 11 40  1  0
 14 41  1  0
 16 42  1  0
 16 43  1  0
 18 44  1  0
 20 45  1  0
 20 46  1  0
 21 47  1  0
 21 48  1  0
 23 49  1  0
M  CHG  1   8  -1
M  END
>  <mol_id>  (93) 
2026-09-18-6fnk-s0-n100-refligand-seed1-0096

>  <rmsd_to_ref>  (93) 


$$$$

     RDKit          3D

 47 50  0  0  0  0  0  0  0  0999 V2000
    0.1420   15.8290   44.3870 C   0  0  0  0  0  0  0  0  0  0  0  0
    1.3560   12.3860   43.6820 O   0  0  0  0  0  0  0  0  0  0  0  0
   -1.0600   19.3420   46.0530 C   0  0  0  0  0  0  0  0  0  0  0  0
    3.4440   20.6190   41.1380 C   0  0  0  0  0  0  0  0  0  0  0  0
    4.1970   21.4890   39.0520 C   0  0  0  0  0  0  0  0  0  0  0  0
    2.3930   19.9980   39.0480 C   0  0  0  0  0  0  0  0  0  0  0  0
    4.3150   21.3770   40.3880 C   0  0  0  0  0  0  0  0  0  0  0  0
    0.9640   17.3520   42.8490 C   0  0  0  0  0  0  0  0  0  0  0  0
    0.6650   14.5970   43.8540 N   0  0  0  0  0  0  0  0  0  0  0  0
   -0.3240   19.9850   45.2280 N   0  0  0  0  0  4  0  0  0  0  0  0
    0.0380   17.9810   44.8470 N   0  0  0  0  0  0  0  0  0  0  0  0
    0.3160   17.0300   43.9800 C   0  0  0  0  0  0  0  0  0  0  0  0
    1.7360   18.9090   41.1550 N   0  0  0  0  0  0  0  0  0  0  0  0
    3.2620   20.7660   38.3060 C   0  0  0  0  0  0  0  0  0  0  0  0
    1.4240   16.2520   42.1220 C   0  0  0  0  0  0  0  0  0  0  0  0
    1.1600   18.6580   42.3670 C   0  0  0  0  0  0  0  0  0  0  0  0
    0.7980   13.4200   44.5180 C   0  0  0  0  0  0  0  0  0  0  0  0
    0.5850   19.5980   43.2100 C   0  0  0  0  0  0  0  0  0  0  0  0
    1.9040   14.8860   42.9650 C   0  0  0  0  0  0  0  0  0  0  0  0
    2.4820   19.8360   40.4280 C   0  0  0  0  0  0  0  0  0  0  0  0
   -0.6550   17.9120   45.9670 C   0  0  0  0  0  0  0  0  0  0  0  0
    1.5550   17.8060   40.4720 C   0  0  0  0  0  0  0  0  0  0  0  0
    0.6210   20.8790   42.8520 O   0  0  0  0  0  0  0  0  0  0  0  0
    0.0340   19.2420   44.4600 C   0  0  0  0  0  0  0  0  0  0  0  0
   -0.5008   15.7219   45.2732 H   0  0  0  0  0  0  0  0  0  0  0  0
    1.7407   11.6732   44.2512 H   0  0  0  0  0  0  0  0  0  0  0  0
   -0.9028   19.7193   47.0743 H   0  0  0  0  0  0  0  0  0  0  0  0
   -2.1257   19.4656   45.8102 H   0  0  0  0  0  0  0  0  0  0  0  0
    3.4867   20.6162   42.2372 H   0  0  0  0  0  0  0  0  0  0  0  0
    4.8676   22.1818   38.5226 H   0  0  0  0  0  0  0  0  0  0  0  0
    1.5791   19.4811   38.5185 H   0  0  0  0  0  0  0  0  0  0  0  0
    5.1331   21.9078   40.8968 H   0  0  0  0  0  0  0  0  0  0  0  0
   -0.8703   20.7299   44.7723 H   0  0  0  0  0  0  0  0  0  0  0  0
    0.4709   20.4276   45.7109 H   0  0  0  0  0  0  0  0  0  0  0  0
    3.2233   20.8075   37.2075 H   0  0  0  0  0  0  0  0  0  0  0  0
    0.6130   15.9478   41.4439 H   0  0  0  0  0  0  0  0  0  0  0  0
    2.3456   16.6113   41.6408 H   0  0  0  0  0  0  0  0  0  0  0  0
   -0.1932   13.0965   44.8685 H   0  0  0  0  0  0  0  0  0  0  0  0
    1.4858   13.5823   45.3609 H   0  0  0  0  0  0  0  0  0  0  0  0
    2.1095   14.0480   42.2827 H   0  0  0  0  0  0  0  0  0  0  0  0
    2.8344   15.0235   43.5355 H   0  0  0  0  0  0  0  0  0  0  0  0
   -1.5207   17.2390   45.8798 H   0  0  0  0  0  0  0  0  0  0  0  0
   -0.1200   17.5099   46.8400 H   0  0  0  0  0  0  0  0  0  0  0  0
    1.4168   16.9636   41.1658 H   0  0  0  0  0  0  0  0  0  0  0  0
    0.6618   17.9095   39.8383 H   0  0  0  0  0  0  0  0  0  0  0  0
    2.4344   17.6186   39.8383 H   0  0  0  0  0  0  0  0  0  0  0  0
    0.2173   21.5680   43.4372 H   0  0  0  0  0  0  0  0  0  0  0  0
  2 17  1  0
  5  7  1  0
  6 20  2  0
  7  4  2  0
  8 12  1  0
  9  1  1  0
  9 17  1  0
 10  3  1  0
 11 21  1  0
 12  1  2  0
 12 11  1  0
 13 16  1  0
 14  6  1  0
 14  5  2  0
 15  8  1  0
 15 19  1  0
 16  8  2  0
 16 18  1  0
 18 24  2  0
 19  9  1  0
 20  4  1  0
 20 13  1  0
 21  3  1  0
 22 13  1  0
 23 18  1  0
 24 11  1  0
 24 10  1  0
  1 25  1  0
  2 26  1  0
  3 27  1  0
  3 28  1  0
  4 29  1  0
  5 30  1  0
  6 31  1  0
  7 32  1  0
 10 33  1  0
 10 34  1  0
 14 35  1  0
 15 36  1  0
 15 37  1  0
 17 38  1  0
 17 39  1  0
 19 40  1  0
 19 41  1  0
 21 42  1  0
 21 43  1  0
 22 44  1  0
 22 45  1  0
 22 46  1  0
 23 47  1  0
M  CHG  1  10   1
M  END
>  <mol_id>  (94) 
2026-09-18-6fnk-s0-n100-refligand-seed1-0097

>  <rmsd_to_ref>  (94) 


$$$$

     RDKit          3D

 43 47  0  0  0  0  0  0  0  0999 V2000
    2.7020   19.9920   39.8610 C   0  0  0  0  0  0  0  0  0  0  0  0
    2.4820   21.2440   40.2170 C   0  0  0  0  0  0  0  0  0  0  0  0
   -0.0010   15.8690   43.6710 C   0  0  0  0  0  0  0  0  0  0  0  0
   -0.6020   20.1850   45.0500 N   0  0  0  0  0  0  0  0  0  0  0  0
   -0.7680   18.8990   45.5630 N   0  0  0  0  0  0  0  0  0  0  0  0
   -0.7860   16.0520   45.7540 C   0  0  0  0  0  0  0  0  0  0  0  0
    0.4540   21.2000   43.0730 N   0  0  0  0  0  0  0  0  0  0  0  0
    1.1810   20.9160   42.0180 C   0  0  0  0  0  0  0  0  0  0  0  0
    1.5220   19.6310   41.6470 C   0  0  0  0  0  0  0  0  0  0  0  0
    0.0820   20.1780   43.8200 C   0  0  0  0  0  0  0  0  0  0  0  0
    1.8840   17.6640   40.7160 O   0  0  0  0  0  0  0  0  0  0  0  0
    2.1520   19.4850   40.6020 C   0  0  0  0  0  0  0  0  0  0  0  0
    0.4150   18.8030   43.5030 C   0  0  0  0  0  0  0  0  0  0  0  0
    1.1150   15.1730   43.2080 C   0  0  0  0  0  0  0  0  0  0  0  0
    0.9580   18.4580   42.2650 C   0  0  0  0  0  0  0  0  0  0  0  0
    1.8540   21.8200   41.2930 C   0  0  0  0  0  0  0  0  0  0  0  0
    1.1660   14.0260   42.4500 C   0  0  0  0  0  0  0  0  0  0  0  0
   -0.0190   18.0740   44.6700 C   0  0  0  0  0  0  0  0  0  0  0  0
    1.3420   16.3930   40.8370 C   0  0  0  0  0  0  0  0  0  0  0  0
    1.1470   17.4430   41.5230 C   0  0  0  0  0  0  0  0  0  0  0  0
    1.3990   15.1910   40.2100 C   0  0  0  0  0  0  0  0  0  0  0  0
    1.1910   14.0110   41.0450 C   0  0  0  0  0  0  0  0  0  0  0  0
    0.1910   16.6830   44.9220 N   0  0  0  0  0  0  0  0  0  0  0  0
    3.2938   19.5910   39.0249 H   0  0  0  0  0  0  0  0  0  0  0  0
    2.8856   21.9776   39.5036 H   0  0  0  0  0  0  0  0  0  0  0  0
   -0.7957   15.1345   43.8681 H   0  0  0  0  0  0  0  0  0  0  0  0
   -0.2400   16.5971   42.8819 H   0  0  0  0  0  0  0  0  0  0  0  0
   -1.3058   18.6112   46.3930 H   0  0  0  0  0  0  0  0  0  0  0  0
   -0.5296   16.2176   46.8108 H   0  0  0  0  0  0  0  0  0  0  0  0
   -1.7772   16.4810   45.5456 H   0  0  0  0  0  0  0  0  0  0  0  0
   -0.8027   14.9721   45.5456 H   0  0  0  0  0  0  0  0  0  0  0  0
    0.1884   22.1677   43.3052 H   0  0  0  0  0  0  0  0  0  0  0  0
    2.1347   18.4165   40.3411 H   0  0  0  0  0  0  0  0  0  0  0  0
    1.6755   15.9147   42.6200 H   0  0  0  0  0  0  0  0  0  0  0  0
    1.4379   14.7408   44.1666 H   0  0  0  0  0  0  0  0  0  0  0  0
    1.9240   18.2476   42.7473 H   0  0  0  0  0  0  0  0  0  0  0  0
    1.8978   22.8930   41.5312 H   0  0  0  0  0  0  0  0  0  0  0  0
    2.0766   13.4981   42.7696 H   0  0  0  0  0  0  0  0  0  0  0  0
    0.1695   13.6031   42.6450 H   0  0  0  0  0  0  0  0  0  0  0  0
    0.5020   16.6898   40.1917 H   0  0  0  0  0  0  0  0  0  0  0  0
    1.9691   17.1564   42.1953 H   0  0  0  0  0  0  0  0  0  0  0  0
    1.5917   15.1097   39.1301 H   0  0  0  0  0  0  0  0  0  0  0  0
    1.0439   13.0450   40.5399 H   0  0  0  0  0  0  0  0  0  0  0  0
  1  2  2  0
  1 12  1  0
  2 16  1  0
  3 23  1  0
  4  5  1  0
  7 10  1  0
  8  7  1  0
  9  8  1  0
 10  4  2  0
 11 19  1  0
 12  9  2  0
 13 10  1  0
 13 18  2  0
 14  3  1  0
 15  9  1  0
 15 13  1  0
 16  8  2  0
 17 14  1  0
 18 23  1  0
 18  5  1  0
 19 21  1  0
 19 20  1  0
 20 11  1  0
 20 15  1  0
 21 22  2  0
 22 17  1  0
 23  6  1  0
  1 24  1  0
  2 25  1  0
  3 26  1  0
  3 27  1  0
  5 28  1  0
  6 29  1  0
  6 30  1  0
  6 31  1  0
  7 32  1  0
 12 33  1  0
 14 34  1  0
 14 35  1  0
 15 36  1  0
 16 37  1  0
 17 38  1  0
 17 39  1  0
 19 40  1  0
 20 41  1  0
 21 42  1  0
 22 43  1  0
M  END
>  <mol_id>  (95) 
2026-09-18-6fnk-s0-n100-refligand-seed1-0098

>  <rmsd_to_ref>  (95) 


$$$$

     RDKit          3D

 56 59  0  0  0  0  0  0  0  0999 V2000
    0.0400   14.6880   44.7470 C   0  0  0  0  0  0  0  0  0  0  0  0
    3.5420   20.9360   41.1400 C   0  0  0  0  0  0  0  0  0  0  0  0
    0.9600   19.8060   43.0190 C   0  0  0  0  0  0  0  0  0  0  0  0
   -0.9310   20.2120   44.5840 O   0  0  0  0  0  0  0  0  0  0  0  0
    2.7810   19.9980   37.7460 N   0  0  0  0  0  0  0  0  0  0  0  0
    3.1390   20.0450   42.2560 C   0  0  0  0  0  0  0  0  0  0  0  0
    0.1950   13.3160   44.3540 N   0  0  0  0  0  0  0  0  0  0  0  0
    1.3220   11.2380   43.5660 C   0  0  0  0  0  0  0  0  0  0  0  0
    2.6040   19.7050   39.0600 C   0  0  0  0  0  0  0  0  0  0  0  0
   -0.5110   15.1910   45.6940 N   0  0  0  0  0  0  0  0  0  0  0  0
    1.2610   18.6590   43.9210 C   0  0  0  0  0  0  0  0  0  0  0  0
    0.2760   18.2120   44.6740 C   0  0  0  0  0  0  0  0  0  0  0  0
   -0.0790   17.1210   44.8590 C   0  0  0  0  0  0  0  0  0  0  0  0
    1.4350   12.6740   44.0340 C   0  0  0  0  0  0  0  0  0  0  0  0
    0.3240   15.8060   43.3740 S   0  0  0  0  0  0  0  0  0  0  0  0
    1.7870   20.2060   41.9880 O   0  0  0  0  0  0  0  0  0  0  0  0
    4.5490   20.9180   36.5610 N   0  0  0  0  0  0  0  0  0  0  0  0
   -2.3930   15.3570   47.4260 C   0  0  0  0  0  0  0  0  0  0  0  0
   -0.7660   18.9150   44.4160 C   0  0  0  0  0  0  0  0  0  0  0  0
   -0.7350   16.3990   45.8970 C   0  0  0  0  0  0  0  0  0  0  0  0
    3.4900   20.5630   39.8730 C   0  0  0  0  0  0  0  0  0  0  0  0
    4.3540   21.1960   38.9700 N   0  0  0  0  0  0  0  0  0  0  0  0
    2.3640   13.5620   43.1030 C   0  0  0  0  0  0  0  0  0  0  0  0
    3.9000   20.7240   37.7300 C   0  0  0  0  0  0  0  0  0  0  0  0
    1.7670   18.7850   39.3720 C   0  0  0  0  0  0  0  0  0  0  0  0
   -0.4210   20.3250   43.2830 C   0  0  0  0  0  0  0  0  0  0  0  0
   -1.7150   16.6710   46.8230 C   0  0  0  0  0  0  0  0  0  0  0  0
    2.9069   21.8305   41.2202 H   0  0  0  0  0  0  0  0  0  0  0  0
    4.6265   21.0208   41.3030 H   0  0  0  0  0  0  0  0  0  0  0  0
    3.4885   19.0088   42.1370 H   0  0  0  0  0  0  0  0  0  0  0  0
    3.5091   20.2618   43.2689 H   0  0  0  0  0  0  0  0  0  0  0  0
   -0.6594   12.7436   44.2972 H   0  0  0  0  0  0  0  0  0  0  0  0
    1.2695   10.5709   44.4390 H   0  0  0  0  0  0  0  0  0  0  0  0
    0.4118   11.1205   42.9595 H   0  0  0  0  0  0  0  0  0  0  0  0
    2.2026   10.9796   42.9595 H   0  0  0  0  0  0  0  0  0  0  0  0
    2.2622   18.2048   43.9569 H   0  0  0  0  0  0  0  0  0  0  0  0
    0.8430   18.2913   45.6133 H   0  0  0  0  0  0  0  0  0  0  0  0
   -1.0454   17.3557   44.3889 H   0  0  0  0  0  0  0  0  0  0  0  0
    1.9468   12.5880   45.0039 H   0  0  0  0  0  0  0  0  0  0  0  0
    5.4138   21.4771   36.5387 H   0  0  0  0  0  0  0  0  0  0  0  0
    4.1790   20.5068   35.6921 H   0  0  0  0  0  0  0  0  0  0  0  0
   -2.3691   15.4033   48.5248 H   0  0  0  0  0  0  0  0  0  0  0  0
   -3.4366   15.2931   47.0843 H   0  0  0  0  0  0  0  0  0  0  0  0
   -1.8403   14.4694   47.0843 H   0  0  0  0  0  0  0  0  0  0  0  0
   -1.4014   18.0416   44.6244 H   0  0  0  0  0  0  0  0  0  0  0  0
   -0.5093   17.2303   46.5811 H   0  0  0  0  0  0  0  0  0  0  0  0
    2.8583   21.4336   39.6426 H   0  0  0  0  0  0  0  0  0  0  0  0
    5.1287   21.8454   39.1674 H   0  0  0  0  0  0  0  0  0  0  0  0
    3.0185   14.1876   43.7278 H   0  0  0  0  0  0  0  0  0  0  0  0
    2.9793   12.9077   42.4680 H   0  0  0  0  0  0  0  0  0  0  0  0
    1.7381   14.2062   42.4680 H   0  0  0  0  0  0  0  0  0  0  0  0
    1.6028   18.5260   40.4284 H   0  0  0  0  0  0  0  0  0  0  0  0
    1.2132   18.2548   38.5832 H   0  0  0  0  0  0  0  0  0  0  0  0
   -0.6410   21.0335   42.4708 H   0  0  0  0  0  0  0  0  0  0  0  0
   -1.2668   17.2434   47.6485 H   0  0  0  0  0  0  0  0  0  0  0  0
   -2.5037   17.2384   46.3072 H   0  0  0  0  0  0  0  0  0  0  0  0
  1 10  2  0
  2  6  1  0
  3 11  2  0
  5  9  1  0
  7  1  1  0
  8 14  1  0
  9 25  2  3
  9 21  1  0
 10 20  1  0
 12 11  1  0
 12 13  1  0
 13 15  1  0
 13 20  1  0
 14  7  1  0
 15  1  1  0
 16  6  1  0
 16  3  1  0
 17 24  1  0
 19  4  1  0
 19 12  1  0
 20 27  1  0
 21  2  1  0
 22 21  1  0
 23 14  1  0
 24  5  2  0
 24 22  1  0
 26  3  1  0
 26 19  1  0
 26  4  1  0
 27 18  1  0
  2 28  1  0
  2 29  1  0
  6 30  1  0
  6 31  1  0
  7 32  1  0
  8 33  1  0
  8 34  1  0
  8 35  1  0
 11 36  1  0
 12 37  1  0
 13 38  1  0
 14 39  1  0
 17 40  1  0
 17 41  1  0
 18 42  1  0
 18 43  1  0
 18 44  1  0
 19 45  1  0
 20 46  1  0
 21 47  1  0
 22 48  1  0
 23 49  1  0
 23 50  1  0
 23 51  1  0
 25 52  1  0
 25 53  1  0
 26 54  1  0
 27 55  1  0
 27 56  1  0
M  END
>  <mol_id>  (96) 
2026-09-18-6fnk-s0-n100-refligand-seed1-0099

>  <rmsd_to_ref>  (96) 


$$$$

     RDKit          3D

 38 41  0  0  0  0  0  0  0  0999 V2000
    0.0500   17.4260   44.6260 C   0  0  0  0  0  0  0  0  0  0  0  0
    2.6960   20.4940   40.3560 C   0  0  0  0  0  0  0  0  0  0  0  0
    1.7790   18.6250   39.0930 C   0  0  0  0  0  0  0  0  0  0  0  0
   -0.3710   21.4440   43.8070 N   0  0  0  0  0  0  0  0  0  0  0  0
    0.8480   14.9920   44.0260 C   0  0  0  0  0  0  0  0  0  0  0  0
   -0.7340   19.6200   45.2820 N   0  0  0  0  0  0  0  0  0  0  0  0
    1.9980   12.5840   42.6400 C   0  0  0  0  0  0  0  0  0  0  0  0
    0.6090   18.0250   43.4170 C   0  0  0  0  0  0  0  0  0  0  0  0
   -0.6430   18.2650   45.4960 C   0  0  0  0  0  0  0  0  0  0  0  0
   -0.2510   20.1880   44.1570 C   0  0  0  0  0  0  0  0  0  0  0  0
    0.9580   19.9060   42.1940 O   0  0  0  0  0  0  0  0  0  0  0  0
    0.4480   19.4290   43.3010 C   0  0  0  0  0  0  0  0  0  0  0  0
    1.4150   18.7940   41.5350 C   0  0  0  0  0  0  0  0  0  0  0  0
    3.2270   20.2320   37.9720 C   0  0  0  0  0  0  0  0  0  0  0  0
    2.3970   19.1510   37.9730 C   0  0  0  0  0  0  0  0  0  0  0  0
    2.3210   13.9080   42.1560 C   0  0  0  0  0  0  0  0  0  0  0  0
    1.9380   19.4270   40.3380 C   0  0  0  0  0  0  0  0  0  0  0  0
    1.2630   17.7520   42.3000 N   0  0  0  0  0  0  0  0  0  0  0  0
    0.6450   13.7360   44.4570 C   0  0  0  0  0  0  0  0  0  0  0  0
    1.7520   15.1050   42.7010 C   0  0  0  0  0  0  0  0  0  0  0  0
    4.1830   21.8290   39.4680 F   0  0  0  0  0  0  0  0  0  0  0  0
    0.1490   15.9470   44.8810 C   0  0  0  0  0  0  0  0  0  0  0  0
    3.3520   20.8500   39.2130 C   0  0  0  0  0  0  0  0  0  0  0  0
    1.1710   12.5140   43.8130 C   0  0  0  0  0  0  0  0  0  0  0  0
    2.8022   21.0916   41.2734 H   0  0  0  0  0  0  0  0  0  0  0  0
    1.2115   17.6831   39.0662 H   0  0  0  0  0  0  0  0  0  0  0  0
    0.0388   21.7732   42.9212 H   0  0  0  0  0  0  0  0  0  0  0  0
   -0.8752   22.1028   44.4174 H   0  0  0  0  0  0  0  0  0  0  0  0
    2.3662   11.6779   42.1365 H   0  0  0  0  0  0  0  0  0  0  0  0
   -1.1319   17.8304   46.3804 H   0  0  0  0  0  0  0  0  0  0  0  0
    3.7511   20.5845   37.0714 H   0  0  0  0  0  0  0  0  0  0  0  0
    2.2036   18.6588   37.0085 H   0  0  0  0  0  0  0  0  0  0  0  0
    3.0393   14.0009   41.3281 H   0  0  0  0  0  0  0  0  0  0  0  0
    0.0369   13.6062   45.3644 H   0  0  0  0  0  0  0  0  0  0  0  0
    1.9298   16.0798   42.2234 H   0  0  0  0  0  0  0  0  0  0  0  0
    0.6186   15.8516   45.8712 H   0  0  0  0  0  0  0  0  0  0  0  0
   -0.8936   15.6460   44.7010 H   0  0  0  0  0  0  0  0  0  0  0  0
    0.9243   11.5309   44.2404 H   0  0  0  0  0  0  0  0  0  0  0  0
  1 22  1  0
  1  9  1  0
  3 17  1  0
  4 10  1  0
  5 19  2  0
  5 22  1  0
  6  9  2  0
  7 24  2  0
  8  1  2  0
 10  6  1  0
 11 12  1  0
 12  8  1  0
 12 10  2  0
 13 11  1  0
 13 18  2  0
 14 15  1  0
 14 23  2  0
 15  3  2  0
 16  7  1  0
 16 20  2  0
 17  2  2  0
 17 13  1  0
 18  8  1  0
 20  5  1  0
 23 21  1  0
 23  2  1  0
 24 19  1  0
  2 25  1  0
  3 26  1  0
  4 27  1  0
  4 28  1  0
  7 29  1  0
  9 30  1  0
 14 31  1  0
 15 32  1  0
 16 33  1  0
 19 34  1  0
 20 35  1  0
 22 36  1  0
 22 37  1  0
 24 38  1  0
M  END
>  <mol_id>  (97) 
2026-09-18-6fnk-s0-n100-refligand-seed1-0100

>  <rmsd_to_ref>  (97) 


$$$$
