6fnk.A
     RDKit          3D

 27 29  0  0  0  0  0  0  0  0999 V2000
    2.9034   16.1161   40.7342 C   0  0  0  0  0  0  0  0  0  0  0  0
    3.3991   14.8730   40.3406 C   0  0  0  0  0  0  0  0  0  0  0  0
    3.2111   13.7637   41.1521 C   0  0  0  0  0  0  0  0  0  0  0  0
    2.5220   13.8922   42.3612 N   0  0  0  0  0  0  0  0  0  0  0  0
    2.0259   15.1442   42.7552 C   0  0  0  0  0  0  0  0  0  0  0  0
    2.2158   16.2597   41.9417 C   0  0  0  0  0  0  0  0  0  0  0  0
    1.7222   17.5068   42.3382 C   0  0  0  0  0  0  0  0  0  0  0  0
    2.0408   18.6212   41.6654 N   0  0  0  0  0  0  0  0  0  0  0  0
    0.9145   17.5957   43.3997 N   0  0  0  0  0  0  0  0  0  0  0  0
    0.4272   18.7780   43.8163 C   0  0  0  0  0  0  0  0  0  0  0  0
   -0.3708   19.1111   44.8422 N   0  0  0  0  0  0  0  0  0  0  0  0
   -0.9468   18.1844   45.8212 C   0  0  0  0  0  0  0  0  0  0  0  0
   -0.5738   20.3259   44.8557 N   0  0  0  0  0  0  0  0  0  0  0  0
    0.0681   20.8526   43.7999 C   0  0  0  0  0  0  0  0  0  0  0  0
    0.7283   19.8866   43.1473 C   0  0  0  0  0  0  0  0  0  0  0  0
    1.5428   19.8079   42.0593 C   0  0  0  0  0  0  0  0  0  0  0  0
    1.8732   20.9182   41.3561 N   0  0  0  0  0  0  0  0  0  0  0  0
    3.0555   16.9924   40.0870 H   0  0  0  0  0  0  0  0  0  0  0  0
    3.9387   14.7724   39.3873 H   0  0  0  0  0  0  0  0  0  0  0  0
    3.6041   12.7836   40.8441 H   0  0  0  0  0  0  0  0  0  0  0  0
    1.4860   15.2454   43.7082 H   0  0  0  0  0  0  0  0  0  0  0  0
   -0.7252   18.5408   46.8380 H   0  0  0  0  0  0  0  0  0  0  0  0
   -2.0365   18.1326   45.6801 H   0  0  0  0  0  0  0  0  0  0  0  0
   -0.5109   17.1844   45.6801 H   0  0  0  0  0  0  0  0  0  0  0  0
    0.0539   21.9149   43.5146 H   0  0  0  0  0  0  0  0  0  0  0  0
    1.5034   21.8366   41.6400 H   0  0  0  0  0  0  0  0  0  0  0  0
    2.4942   20.8437   40.5377 H   0  0  0  0  0  0  0  0  0  0  0  0
  1  2  2  0
  1  6  1  0
  2  3  1  0
  3  4  2  0
  4  5  1  0
  5  6  2  0
  6  7  1  0
  7  8  2  0
  7  9  1  0
  8 16  1  0
  9 10  2  0
 10 11  1  0
 10 15  1  0
 11 12  1  0
 11 13  1  0
 13 14  2  0
 14 15  1  0
 15 16  2  0
 16 17  1  0
  1 18  1  0
  2 19  1  0
  3 20  1  0
  5 21  1  0
 12 22  1  0
 12 23  1  0
 12 24  1  0
 14 25  1  0
 17 26  1  0
 17 27  1  0
M  END
>  <mol_id>  (1) 
2026-09-18-6fnk-s0-n100-r8-0001

>  <rmsd_to_ref>  (1) 
0.0

>  <pose_kind>  (1) 
native

$$$$
6fnk.A
     RDKit          3D

 27 29  0  0  0  0  0  0  0  0999 V2000
    2.9975   15.8162   41.1293 C   0  0  0  0  0  0  0  0  0  0  0  0
    3.4381   14.5164   40.9810 C   0  0  0  0  0  0  0  0  0  0  0  0
    2.9716   13.5038   41.8179 C   0  0  0  0  0  0  0  0  0  0  0  0
    2.0832   13.8128   42.7751 N   0  0  0  0  0  0  0  0  0  0  0  0
    1.6583   15.0798   42.9144 C   0  0  0  0  0  0  0  0  0  0  0  0
    2.0855   16.1198   42.1158 C   0  0  0  0  0  0  0  0  0  0  0  0
    1.5988   17.4715   42.3036 C   0  0  0  0  0  0  0  0  0  0  0  0
    1.9856   18.5163   41.5511 N   0  0  0  0  0  0  0  0  0  0  0  0
    0.7081   17.7094   43.2838 N   0  0  0  0  0  0  0  0  0  0  0  0
    0.1971   18.9256   43.5388 C   0  0  0  0  0  0  0  0  0  0  0  0
   -0.6868   19.3643   44.4537 N   0  0  0  0  0  0  0  0  0  0  0  0
   -1.3038   18.4855   45.4297 C   0  0  0  0  0  0  0  0  0  0  0  0
   -0.8463   20.6551   44.2739 N   0  0  0  0  0  0  0  0  0  0  0  0
   -0.0835   21.1011   43.2496 C   0  0  0  0  0  0  0  0  0  0  0  0
    0.5898   19.9939   42.7726 C   0  0  0  0  0  0  0  0  0  0  0  0
    1.5029   19.7705   41.7620 C   0  0  0  0  0  0  0  0  0  0  0  0
    1.9211   20.8660   40.9581 N   0  0  0  0  0  0  0  0  0  0  0  0
    3.3882   16.5546   40.4595 H   0  0  0  0  0  0  0  0  0  0  0  0
    4.1441   14.2249   40.2333 H   0  0  0  0  0  0  0  0  0  0  0  0
    3.2896   12.4805   41.7352 H   0  0  0  0  0  0  0  0  0  0  0  0
    0.9351   15.3412   43.6907 H   0  0  0  0  0  0  0  0  0  0  0  0
   -2.0232   18.9835   46.0765 H   0  0  0  0  0  0  0  0  0  0  0  0
   -1.7115   17.6163   44.8712 H   0  0  0  0  0  0  0  0  0  0  0  0
   -0.4840   18.0696   46.0486 H   0  0  0  0  0  0  0  0  0  0  0  0
    0.0055   22.1070   42.8585 H   0  0  0  0  0  0  0  0  0  0  0  0
    2.9353   20.9805   40.7226 H   0  0  0  0  0  0  0  0  0  0  0  0
    1.2811   21.5870   40.5718 H   0  0  0  0  0  0  0  0  0  0  0  0
  1  2  2  0
  1  6  1  0
  2  3  1  0
  3  4  2  0
  4  5  1  0
  5  6  2  0
  6  7  1  0
  7  8  2  0
  7  9  1  0
  8 16  1  0
  9 10  2  0
 10 11  1  0
 10 15  1  0
 11 12  1  0
 11 13  1  0
 13 14  2  0
 14 15  1  0
 15 16  2  0
 16 17  1  0
  1 18  1  0
  2 19  1  0
  3 20  1  0
  5 21  1  0
 12 22  1  0
 12 23  1  0
 12 24  1  0
 14 25  1  0
 17 26  1  0
 17 27  1  0
M  END
>  <mol_id>  (2) 
2026-09-18-6fnk-s0-n100-r8-0002

>  <rmsd_to_ref>  (2) 
0.5000000000017425

>  <pose_kind>  (2) 
conformer

$$$$
6fnk.A
     RDKit          3D

 27 29  0  0  0  0  0  0  0  0999 V2000
    3.0190   16.5063   40.5986 C   0  0  0  0  0  0  0  0  0  0  0  0
    3.6338   15.3823   40.0467 C   0  0  0  0  0  0  0  0  0  0  0  0
    3.6778   14.1950   40.7628 C   0  0  0  0  0  0  0  0  0  0  0  0
    3.1029   14.1254   42.0348 N   0  0  0  0  0  0  0  0  0  0  0  0
    2.4866   15.2581   42.5879 C   0  0  0  0  0  0  0  0  0  0  0  0
    2.4434   16.4520   41.8702 C   0  0  0  0  0  0  0  0  0  0  0  0
    1.8304   17.5800   42.4252 C   0  0  0  0  0  0  0  0  0  0  0  0
    1.9284   18.7795   41.8355 N   0  0  0  0  0  0  0  0  0  0  0  0
    1.1290   17.4666   43.5575 N   0  0  0  0  0  0  0  0  0  0  0  0
    0.5329   18.5299   44.1257 C   0  0  0  0  0  0  0  0  0  0  0  0
   -0.1951   18.6618   45.2450 N   0  0  0  0  0  0  0  0  0  0  0  0
   -0.5411   17.5860   46.1788 C   0  0  0  0  0  0  0  0  0  0  0  0
   -0.5558   19.8304   45.3914 N   0  0  0  0  0  0  0  0  0  0  0  0
   -0.0992   20.5271   44.3377 C   0  0  0  0  0  0  0  0  0  0  0  0
    0.6148   19.7209   43.5408 C   0  0  0  0  0  0  0  0  0  0  0  0
    1.3189   19.8475   42.3825 C   0  0  0  0  0  0  0  0  0  0  0  0
    1.4260   21.0471   41.7613 N   0  0  0  0  0  0  0  0  0  0  0  0
    2.9872   17.4452   40.0264 H   0  0  0  0  0  0  0  0  0  0  0  0
    4.0834   15.4373   39.0443 H   0  0  0  0  0  0  0  0  0  0  0  0
    4.1650   13.3089   40.3299 H   0  0  0  0  0  0  0  0  0  0  0  0
    2.0365   15.2037   43.5902 H   0  0  0  0  0  0  0  0  0  0  0  0
   -0.2679   17.8860   47.2012 H   0  0  0  0  0  0  0  0  0  0  0  0
   -1.6228   17.3921   46.1303 H   0  0  0  0  0  0  0  0  0  0  0  0
    0.0077   16.6727   45.9056 H   0  0  0  0  0  0  0  0  0  0  0  0
   -0.2835   21.5964   44.1568 H   0  0  0  0  0  0  0  0  0  0  0  0
    0.9676   21.8776   42.1625 H   0  0  0  0  0  0  0  0  0  0  0  0
    1.9659   21.1283   40.8879 H   0  0  0  0  0  0  0  0  0  0  0  0
  1  2  2  0
  1  6  1  0
  2  3  1  0
  3  4  2  0
  4  5  1  0
  5  6  2  0
  6  7  1  0
  7  8  2  0
  7  9  1  0
  8 16  1  0
  9 10  2  0
 10 11  1  0
 10 15  1  0
 11 12  1  0
 11 13  1  0
 13 14  2  0
 14 15  1  0
 15 16  2  0
 16 17  1  0
  1 18  1  0
  2 19  1  0
  3 20  1  0
  5 21  1  0
 12 22  1  0
 12 23  1  0
 12 24  1  0
 14 25  1  0
 17 26  1  0
 17 27  1  0
M  END
>  <mol_id>  (3) 
2026-09-18-6fnk-s0-n100-r8-0003

>  <rmsd_to_ref>  (3) 
0.5459183673508657

>  <pose_kind>  (3) 
rigid

$$$$
6fnk.A
     RDKit          3D

 27 29  0  0  0  0  0  0  0  0999 V2000
    3.2854   16.7681   40.5835 C   0  0  0  0  0  0  0  0  0  0  0  0
    3.8849   15.6440   40.0498 C   0  0  0  0  0  0  0  0  0  0  0  0
    3.5889   14.3885   40.5693 C   0  0  0  0  0  0  0  0  0  0  0  0
    2.7234   14.2221   41.5927 N   0  0  0  0  0  0  0  0  0  0  0  0
    2.1249   15.3097   42.1304 C   0  0  0  0  0  0  0  0  0  0  0  0
    2.3944   16.5882   41.6382 C   0  0  0  0  0  0  0  0  0  0  0  0
    1.7425   17.7672   42.2246 C   0  0  0  0  0  0  0  0  0  0  0  0
    1.9850   18.9965   41.7707 N   0  0  0  0  0  0  0  0  0  0  0  0
    0.8830   17.5919   43.2424 N   0  0  0  0  0  0  0  0  0  0  0  0
    0.2405   18.6398   43.8365 C   0  0  0  0  0  0  0  0  0  0  0  0
   -0.6495   18.7316   44.8517 N   0  0  0  0  0  0  0  0  0  0  0  0
   -1.1431   17.6003   45.5818 C   0  0  0  0  0  0  0  0  0  0  0  0
   -0.9500   20.0205   45.0166 N   0  0  0  0  0  0  0  0  0  0  0  0
   -0.2608   20.7768   44.1134 C   0  0  0  0  0  0  0  0  0  0  0  0
    0.5048   19.9245   43.3495 C   0  0  0  0  0  0  0  0  0  0  0  0
    1.3871   20.0998   42.3054 C   0  0  0  0  0  0  0  0  0  0  0  0
    1.6702   21.3973   41.7950 N   0  0  0  0  0  0  0  0  0  0  0  0
    3.4945   17.7731   40.1999 H   0  0  0  0  0  0  0  0  0  0  0  0
    4.5913   15.7600   39.2173 H   0  0  0  0  0  0  0  0  0  0  0  0
    4.0542   13.5015   40.1572 H   0  0  0  0  0  0  0  0  0  0  0  0
    1.4167   15.1967   42.9645 H   0  0  0  0  0  0  0  0  0  0  0  0
   -1.9966   17.9268   46.2169 H   0  0  0  0  0  0  0  0  0  0  0  0
   -0.3465   17.1945   46.2492 H   0  0  0  0  0  0  0  0  0  0  0  0
   -1.5076   16.8294   44.8719 H   0  0  0  0  0  0  0  0  0  0  0  0
   -0.2965   21.8443   44.0037 H   0  0  0  0  0  0  0  0  0  0  0  0
    2.6144   21.8416   41.8292 H   0  0  0  0  0  0  0  0  0  0  0  0
    0.8795   21.9249   41.3641 H   0  0  0  0  0  0  0  0  0  0  0  0
  1  2  2  0
  1  6  1  0
  2  3  1  0
  3  4  2  0
  4  5  1  0
  5  6  2  0
  6  7  1  0
  7  8  2  0
  7  9  1  0
  8 16  1  0
  9 10  2  0
 10 11  1  0
 10 15  1  0
 11 12  1  0
 11 13  1  0
 13 14  2  0
 14 15  1  0
 15 16  2  0
 16 17  1  0
  1 18  1  0
  2 19  1  0
  3 20  1  0
  5 21  1  0
 12 22  1  0
 12 23  1  0
 12 24  1  0
 14 25  1  0
 17 26  1  0
 17 27  1  0
M  END
>  <mol_id>  (4) 
2026-09-18-6fnk-s0-n100-r8-0004

>  <rmsd_to_ref>  (4) 
0.5918367346945685

>  <pose_kind>  (4) 
conformer

$$$$
6fnk.A
     RDKit          3D

 27 29  0  0  0  0  0  0  0  0999 V2000
    2.3687   16.0279   40.7120 C   0  0  0  0  0  0  0  0  0  0  0  0
    2.9989   14.8151   40.4331 C   0  0  0  0  0  0  0  0  0  0  0  0
    3.2197   13.8989   41.4511 C   0  0  0  0  0  0  0  0  0  0  0  0
    2.8070   14.1905   42.7541 N   0  0  0  0  0  0  0  0  0  0  0  0
    2.1747   15.4119   43.0320 C   0  0  0  0  0  0  0  0  0  0  0  0
    1.9541   16.3339   42.0105 C   0  0  0  0  0  0  0  0  0  0  0  0
    1.3257   17.5516   42.2909 C   0  0  0  0  0  0  0  0  0  0  0  0
    1.2596   18.5227   41.3697 N   0  0  0  0  0  0  0  0  0  0  0  0
    0.7746   17.7548   43.4918 N   0  0  0  0  0  0  0  0  0  0  0  0
    0.1696   18.9153   43.8013 C   0  0  0  0  0  0  0  0  0  0  0  0
   -0.4284   19.3474   44.9220 N   0  0  0  0  0  0  0  0  0  0  0  0
   -0.5765   18.5874   46.1668 C   0  0  0  0  0  0  0  0  0  0  0  0
   -0.8587   20.4914   44.7694 N   0  0  0  0  0  0  0  0  0  0  0  0
   -0.5859   20.8584   43.5064 C   0  0  0  0  0  0  0  0  0  0  0  0
    0.0888   19.8792   42.8893 C   0  0  0  0  0  0  0  0  0  0  0  0
    0.6384   19.6809   41.6597 C   0  0  0  0  0  0  0  0  0  0  0  0
    0.5776   20.6431   40.7074 N   0  0  0  0  0  0  0  0  0  0  0  0
    2.1963   16.7508   39.9011 H   0  0  0  0  0  0  0  0  0  0  0  0
    3.3206   14.5853   39.4066 H   0  0  0  0  0  0  0  0  0  0  0  0
    3.7192   12.9435   41.2328 H   0  0  0  0  0  0  0  0  0  0  0  0
    1.8525   15.6422   44.0582 H   0  0  0  0  0  0  0  0  0  0  0  0
   -0.2079   19.1898   47.0102 H   0  0  0  0  0  0  0  0  0  0  0  0
   -1.6380   18.3460   46.3249 H   0  0  0  0  0  0  0  0  0  0  0  0
    0.0052   17.6563   46.0993 H   0  0  0  0  0  0  0  0  0  0  0  0
   -0.8727   21.8166   43.0487 H   0  0  0  0  0  0  0  0  0  0  0  0
    0.1069   21.5371   40.9078 H   0  0  0  0  0  0  0  0  0  0  0  0
    1.0020   20.4804   39.7831 H   0  0  0  0  0  0  0  0  0  0  0  0
  1  2  2  0
  1  6  1  0
  2  3  1  0
  3  4  2  0
  4  5  1  0
  5  6  2  0
  6  7  1  0
  7  8  2  0
  7  9  1  0
  8 16  1  0
  9 10  2  0
 10 11  1  0
 10 15  1  0
 11 12  1  0
 11 13  1  0
 13 14  2  0
 14 15  1  0
 15 16  2  0
 16 17  1  0
  1 18  1  0
  2 19  1  0
  3 20  1  0
  5 21  1  0
 12 22  1  0
 12 23  1  0
 12 24  1  0
 14 25  1  0
 17 26  1  0
 17 27  1  0
M  END
>  <mol_id>  (5) 
2026-09-18-6fnk-s0-n100-r8-0005

>  <rmsd_to_ref>  (5) 
0.6377551020412972

>  <pose_kind>  (5) 
rigid

$$$$
6fnk.A
     RDKit          3D

 27 29  0  0  0  0  0  0  0  0999 V2000
    2.6732   15.7104   40.5886 C   0  0  0  0  0  0  0  0  0  0  0  0
    2.8361   14.3663   40.2468 C   0  0  0  0  0  0  0  0  0  0  0  0
    2.2968   13.3529   41.0298 C   0  0  0  0  0  0  0  0  0  0  0  0
    1.5916   13.6440   42.1569 N   0  0  0  0  0  0  0  0  0  0  0  0
    1.4185   14.9319   42.5111 C   0  0  0  0  0  0  0  0  0  0  0  0
    1.9427   15.9723   41.7536 C   0  0  0  0  0  0  0  0  0  0  0  0
    1.7603   17.3698   42.1294 C   0  0  0  0  0  0  0  0  0  0  0  0
    2.2635   18.3944   41.4039 N   0  0  0  0  0  0  0  0  0  0  0  0
    1.0560   17.6286   43.2530 N   0  0  0  0  0  0  0  0  0  0  0  0
    0.8435   18.8743   43.6666 C   0  0  0  0  0  0  0  0  0  0  0  0
    0.1880   19.3770   44.7290 N   0  0  0  0  0  0  0  0  0  0  0  0
   -0.5136   18.6348   45.7845 C   0  0  0  0  0  0  0  0  0  0  0  0
    0.2668   20.6947   44.6892 N   0  0  0  0  0  0  0  0  0  0  0  0
    0.9649   21.0987   43.6177 C   0  0  0  0  0  0  0  0  0  0  0  0
    1.3408   19.9497   42.9535 C   0  0  0  0  0  0  0  0  0  0  0  0
    2.0606   19.6645   41.8040 C   0  0  0  0  0  0  0  0  0  0  0  0
    2.5959   20.7326   41.0306 N   0  0  0  0  0  0  0  0  0  0  0  0
    3.0872   16.5107   39.9889 H   0  0  0  0  0  0  0  0  0  0  0  0
    3.4073   14.1421   39.3347 H   0  0  0  0  0  0  0  0  0  0  0  0
    2.4507   12.3294   40.7226 H   0  0  0  0  0  0  0  0  0  0  0  0
    0.8559   15.2048   43.4130 H   0  0  0  0  0  0  0  0  0  0  0  0
    0.1345   18.5007   46.6747 H   0  0  0  0  0  0  0  0  0  0  0  0
   -0.9251   17.6796   45.4002 H   0  0  0  0  0  0  0  0  0  0  0  0
   -1.3990   19.2324   46.1368 H   0  0  0  0  0  0  0  0  0  0  0  0
    1.2150   22.0902   43.2878 H   0  0  0  0  0  0  0  0  0  0  0  0
    2.3721   20.7537   39.9996 H   0  0  0  0  0  0  0  0  0  0  0  0
    3.2029   21.4930   41.4590 H   0  0  0  0  0  0  0  0  0  0  0  0
  1  2  2  0
  1  6  1  0
  2  3  1  0
  3  4  2  0
  4  5  1  0
  5  6  2  0
  6  7  1  0
  7  8  2  0
  7  9  1  0
  8 16  1  0
  9 10  2  0
 10 11  1  0
 10 15  1  0
 11 12  1  0
 11 13  1  0
 13 14  2  0
 14 15  1  0
 15 16  2  0
 16 17  1  0
  1 18  1  0
  2 19  1  0
  3 20  1  0
  5 21  1  0
 12 22  1  0
 12 23  1  0
 12 24  1  0
 14 25  1  0
 17 26  1  0
 17 27  1  0
M  END
>  <mol_id>  (6) 
2026-09-18-6fnk-s0-n100-r8-0006

>  <rmsd_to_ref>  (6) 
0.6836734693909231

>  <pose_kind>  (6) 
conformer

$$$$
6fnk.A
     RDKit          3D

 27 29  0  0  0  0  0  0  0  0999 V2000
    2.3162   16.1569   40.3409 C   0  0  0  0  0  0  0  0  0  0  0  0
    2.5621   14.8697   39.8628 C   0  0  0  0  0  0  0  0  0  0  0  0
    2.5003   13.7862   40.7269 C   0  0  0  0  0  0  0  0  0  0  0  0
    2.1881   13.9852   42.0746 N   0  0  0  0  0  0  0  0  0  0  0  0
    1.9429   15.2813   42.5529 C   0  0  0  0  0  0  0  0  0  0  0  0
    2.0065   16.3708   41.6862 C   0  0  0  0  0  0  0  0  0  0  0  0
    1.7638   17.6618   42.1664 C   0  0  0  0  0  0  0  0  0  0  0  0
    1.9893   18.7375   41.3995 N   0  0  0  0  0  0  0  0  0  0  0  0
    1.2936   17.8330   43.4060 N   0  0  0  0  0  0  0  0  0  0  0  0
    1.0563   19.0590   43.9057 C   0  0  0  0  0  0  0  0  0  0  0  0
    0.6090   19.4722   45.1012 N   0  0  0  0  0  0  0  0  0  0  0  0
    0.2401   18.6096   46.2277 C   0  0  0  0  0  0  0  0  0  0  0  0
    0.5352   20.7012   45.1344 N   0  0  0  0  0  0  0  0  0  0  0  0
    0.9075   21.1591   43.9278 C   0  0  0  0  0  0  0  0  0  0  0  0
    1.2656   20.1306   43.1474 C   0  0  0  0  0  0  0  0  0  0  0  0
    1.7359   19.9688   41.8802 C   0  0  0  0  0  0  0  0  0  0  0  0
    1.9639   21.0392   41.0809 N   0  0  0  0  0  0  0  0  0  0  0  0
    2.3668   17.0125   39.6514 H   0  0  0  0  0  0  0  0  0  0  0  0
    2.8048   14.7139   38.8013 H   0  0  0  0  0  0  0  0  0  0  0  0
    2.6969   12.7711   40.3516 H   0  0  0  0  0  0  0  0  0  0  0  0
    1.6999   15.4378   43.6143 H   0  0  0  0  0  0  0  0  0  0  0  0
    0.7673   18.9437   47.1334 H   0  0  0  0  0  0  0  0  0  0  0  0
   -0.8459   18.6671   46.3933 H   0  0  0  0  0  0  0  0  0  0  0  0
    0.5219   17.5706   46.0015 H   0  0  0  0  0  0  0  0  0  0  0  0
    0.9169   22.2170   43.6264 H   0  0  0  0  0  0  0  0  0  0  0  0
    1.7769   21.9906   41.4285 H   0  0  0  0  0  0  0  0  0  0  0  0
    2.3242   20.9014   40.1259 H   0  0  0  0  0  0  0  0  0  0  0  0
  1  2  2  0
  1  6  1  0
  2  3  1  0
  3  4  2  0
  4  5  1  0
  5  6  2  0
  6  7  1  0
  7  8  2  0
  7  9  1  0
  8 16  1  0
  9 10  2  0
 10 11  1  0
 10 15  1  0
 11 12  1  0
 11 13  1  0
 13 14  2  0
 14 15  1  0
 15 16  2  0
 16 17  1  0
  1 18  1  0
  2 19  1  0
  3 20  1  0
  5 21  1  0
 12 22  1  0
 12 23  1  0
 12 24  1  0
 14 25  1  0
 17 26  1  0
 17 27  1  0
M  END
>  <mol_id>  (7) 
2026-09-18-6fnk-s0-n100-r8-0007

>  <rmsd_to_ref>  (7) 
0.7295918367365775

>  <pose_kind>  (7) 
rigid

$$$$
6fnk.A
     RDKit          3D

 27 29  0  0  0  0  0  0  0  0999 V2000
    3.2541   15.7643   41.2094 C   0  0  0  0  0  0  0  0  0  0  0  0
    3.8943   14.5413   41.1448 C   0  0  0  0  0  0  0  0  0  0  0  0
    3.6018   13.5615   42.0791 C   0  0  0  0  0  0  0  0  0  0  0  0
    2.6945   13.7659   43.0699 N   0  0  0  0  0  0  0  0  0  0  0  0
    2.0494   14.9627   43.1559 C   0  0  0  0  0  0  0  0  0  0  0  0
    2.3296   15.9490   42.2329 C   0  0  0  0  0  0  0  0  0  0  0  0
    1.6628   17.2445   42.2874 C   0  0  0  0  0  0  0  0  0  0  0  0
    1.9080   18.2350   41.4047 N   0  0  0  0  0  0  0  0  0  0  0  0
    0.7535   17.5102   43.2445 N   0  0  0  0  0  0  0  0  0  0  0  0
    0.1179   18.6853   43.3317 C   0  0  0  0  0  0  0  0  0  0  0  0
   -0.8057   19.1476   44.1908 N   0  0  0  0  0  0  0  0  0  0  0  0
   -1.3525   18.3957   45.3024 C   0  0  0  0  0  0  0  0  0  0  0  0
   -1.1264   20.4030   43.8451 N   0  0  0  0  0  0  0  0  0  0  0  0
   -0.4200   20.7658   42.7669 C   0  0  0  0  0  0  0  0  0  0  0  0
    0.3779   19.6940   42.4202 C   0  0  0  0  0  0  0  0  0  0  0  0
    1.3025   19.4318   41.4422 C   0  0  0  0  0  0  0  0  0  0  0  0
    1.5900   20.4470   40.4932 N   0  0  0  0  0  0  0  0  0  0  0  0
    3.4610   16.5342   40.5032 H   0  0  0  0  0  0  0  0  0  0  0  0
    4.6239   14.3816   40.3452 H   0  0  0  0  0  0  0  0  0  0  0  0
    4.1395   12.6281   41.9695 H   0  0  0  0  0  0  0  0  0  0  0  0
    1.3221   15.1153   43.9568 H   0  0  0  0  0  0  0  0  0  0  0  0
   -2.0070   17.5804   44.9481 H   0  0  0  0  0  0  0  0  0  0  0  0
   -1.9767   19.0558   45.9483 H   0  0  0  0  0  0  0  0  0  0  0  0
   -0.5033   18.0366   45.9390 H   0  0  0  0  0  0  0  0  0  0  0  0
   -0.4542   21.7031   42.2574 H   0  0  0  0  0  0  0  0  0  0  0  0
    1.1159   20.3763   39.5678 H   0  0  0  0  0  0  0  0  0  0  0  0
    2.2473   21.2402   40.6964 H   0  0  0  0  0  0  0  0  0  0  0  0
  1  2  2  0
  1  6  1  0
  2  3  1  0
  3  4  2  0
  4  5  1  0
  5  6  2  0
  6  7  1  0
  7  8  2  0
  7  9  1  0
  8 16  1  0
  9 10  2  0
 10 11  1  0
 10 15  1  0
 11 12  1  0
 11 13  1  0
 13 14  2  0
 14 15  1  0
 15 16  2  0
 16 17  1  0
  1 18  1  0
  2 19  1  0
  3 20  1  0
  5 21  1  0
 12 22  1  0
 12 23  1  0
 12 24  1  0
 14 25  1  0
 17 26  1  0
 17 27  1  0
M  END
>  <mol_id>  (8) 
2026-09-18-6fnk-s0-n100-r8-0008

>  <rmsd_to_ref>  (8) 
0.7755102040862234

>  <pose_kind>  (8) 
conformer

$$$$
6fnk.A
     RDKit          3D

 27 29  0  0  0  0  0  0  0  0999 V2000
    3.5264   16.4317   40.7173 C   0  0  0  0  0  0  0  0  0  0  0  0
    4.3621   15.3843   40.3295 C   0  0  0  0  0  0  0  0  0  0  0  0
    4.4942   14.2667   41.1407 C   0  0  0  0  0  0  0  0  0  0  0  0
    3.7869   14.1900   42.3436 N   0  0  0  0  0  0  0  0  0  0  0  0
    2.9482   15.2458   42.7318 C   0  0  0  0  0  0  0  0  0  0  0  0
    2.8162   16.3698   41.9187 C   0  0  0  0  0  0  0  0  0  0  0  0
    1.9813   17.4217   42.3094 C   0  0  0  0  0  0  0  0  0  0  0  0
    1.9716   18.5815   41.6380 N   0  0  0  0  0  0  0  0  0  0  0  0
    1.1730   17.2731   43.3638 N   0  0  0  0  0  0  0  0  0  0  0  0
    0.3626   18.2646   43.7747 C   0  0  0  0  0  0  0  0  0  0  0  0
   -0.5062   18.3527   44.7933 N   0  0  0  0  0  0  0  0  0  0  0  0
   -0.7997   17.2982   45.7684 C   0  0  0  0  0  0  0  0  0  0  0  0
   -1.0503   19.4577   44.8036 N   0  0  0  0  0  0  0  0  0  0  0  0
   -0.5780   20.1482   43.7527 C   0  0  0  0  0  0  0  0  0  0  0  0
    0.3378   19.4139   43.1070 C   0  0  0  0  0  0  0  0  0  0  0  0
    1.1499   19.5743   42.0262 C   0  0  0  0  0  0  0  0  0  0  0  0
    1.1529   20.7336   41.3245 N   0  0  0  0  0  0  0  0  0  0  0  0
    3.4256   17.3156   40.0704 H   0  0  0  0  0  0  0  0  0  0  0  0
    4.9160   15.4445   39.3811 H   0  0  0  0  0  0  0  0  0  0  0  0
    5.1553   13.4415   40.8373 H   0  0  0  0  0  0  0  0  0  0  0  0
    2.3938   15.1862   43.6800 H   0  0  0  0  0  0  0  0  0  0  0  0
   -0.6988   17.7020   46.7867 H   0  0  0  0  0  0  0  0  0  0  0  0
   -1.8272   16.9353   45.6180 H   0  0  0  0  0  0  0  0  0  0  0  0
   -0.0933   16.4660   45.6323 H   0  0  0  0  0  0  0  0  0  0  0  0
   -0.8947   21.1619   43.4661 H   0  0  0  0  0  0  0  0  0  0  0  0
    0.5321   21.5064   41.6041 H   0  0  0  0  0  0  0  0  0  0  0  0
    1.7761   20.8420   40.5116 H   0  0  0  0  0  0  0  0  0  0  0  0
  1  2  2  0
  1  6  1  0
  2  3  1  0
  3  4  2  0
  4  5  1  0
  5  6  2  0
  6  7  1  0
  7  8  2  0
  7  9  1  0
  8 16  1  0
  9 10  2  0
 10 11  1  0
 10 15  1  0
 11 12  1  0
 11 13  1  0
 13 14  2  0
 14 15  1  0
 15 16  2  0
 16 17  1  0
  1 18  1  0
  2 19  1  0
  3 20  1  0
  5 21  1  0
 12 22  1  0
 12 23  1  0
 12 24  1  0
 14 25  1  0
 17 26  1  0
 17 27  1  0
M  END
>  <mol_id>  (9) 
2026-09-18-6fnk-s0-n100-r8-0009

>  <rmsd_to_ref>  (9) 
0.8214285714304129

>  <pose_kind>  (9) 
rigid

$$$$
6fnk.A
     RDKit          3D

 27 29  0  0  0  0  0  0  0  0999 V2000
    3.3394   15.6763   41.3314 C   0  0  0  0  0  0  0  0  0  0  0  0
    3.5474   14.3460   41.0266 C   0  0  0  0  0  0  0  0  0  0  0  0
    2.7309   13.3819   41.5880 C   0  0  0  0  0  0  0  0  0  0  0  0
    1.7176   13.7092   42.4412 N   0  0  0  0  0  0  0  0  0  0  0  0
    1.4917   15.0182   42.7584 C   0  0  0  0  0  0  0  0  0  0  0  0
    2.2962   15.9935   42.2078 C   0  0  0  0  0  0  0  0  0  0  0  0
    2.0917   17.4048   42.5182 C   0  0  0  0  0  0  0  0  0  0  0  0
    2.8443   18.3793   42.0095 N   0  0  0  0  0  0  0  0  0  0  0  0
    1.1001   17.7528   43.3561 N   0  0  0  0  0  0  0  0  0  0  0  0
    0.8237   19.0181   43.7097 C   0  0  0  0  0  0  0  0  0  0  0  0
   -0.0966   19.6098   44.5150 N   0  0  0  0  0  0  0  0  0  0  0  0
   -1.1198   18.8700   45.2667 C   0  0  0  0  0  0  0  0  0  0  0  0
    0.1115   20.9120   44.4804 N   0  0  0  0  0  0  0  0  0  0  0  0
    1.1360   21.2222   43.6835 C   0  0  0  0  0  0  0  0  0  0  0  0
    1.5994   20.0213   43.1853 C   0  0  0  0  0  0  0  0  0  0  0  0
    2.6394   19.6926   42.3102 C   0  0  0  0  0  0  0  0  0  0  0  0
    3.4717   20.7122   41.7416 N   0  0  0  0  0  0  0  0  0  0  0  0
    3.9730   16.4501   40.8984 H   0  0  0  0  0  0  0  0  0  0  0  0
    4.3384   14.0442   40.3557 H   0  0  0  0  0  0  0  0  0  0  0  0
    2.9229   12.3301   41.3247 H   0  0  0  0  0  0  0  0  0  0  0  0
    0.6795   15.2606   43.4403 H   0  0  0  0  0  0  0  0  0  0  0  0
   -1.9638   18.5507   44.6407 H   0  0  0  0  0  0  0  0  0  0  0  0
   -1.5295   19.5351   46.0479 H   0  0  0  0  0  0  0  0  0  0  0  0
   -0.6408   18.0286   45.7930 H   0  0  0  0  0  0  0  0  0  0  0  0
    1.5784   22.1730   43.4233 H   0  0  0  0  0  0  0  0  0  0  0  0
    4.5089   20.6157   41.8010 H   0  0  0  0  0  0  0  0  0  0  0  0
    2.9757   21.5105   41.2907 H   0  0  0  0  0  0  0  0  0  0  0  0
  1  2  2  0
  1  6  1  0
  2  3  1  0
  3  4  2  0
  4  5  1  0
  5  6  2  0
  6  7  1  0
  7  8  2  0
  7  9  1  0
  8 16  1  0
  9 10  2  0
 10 11  1  0
 10 15  1  0
 11 12  1  0
 11 13  1  0
 13 14  2  0
 14 15  1  0
 15 16  2  0
 16 17  1  0
  1 18  1  0
  2 19  1  0
  3 20  1  0
  5 21  1  0
 12 22  1  0
 12 23  1  0
 12 24  1  0
 14 25  1  0
 17 26  1  0
 17 27  1  0
M  END
>  <mol_id>  (10) 
2026-09-18-6fnk-s0-n100-r8-0010

>  <rmsd_to_ref>  (10) 
0.867346938776467

>  <pose_kind>  (10) 
conformer

$$$$
6fnk.A
     RDKit          3D

 27 29  0  0  0  0  0  0  0  0999 V2000
    2.6957   16.5894   40.4658 C   0  0  0  0  0  0  0  0  0  0  0  0
    3.1236   15.5100   39.6928 C   0  0  0  0  0  0  0  0  0  0  0  0
    2.9779   14.2155   40.1696 C   0  0  0  0  0  0  0  0  0  0  0  0
    2.3991   13.9942   41.4223 N   0  0  0  0  0  0  0  0  0  0  0  0
    1.9710   15.0820   42.1983 C   0  0  0  0  0  0  0  0  0  0  0  0
    2.1186   16.3831   41.7212 C   0  0  0  0  0  0  0  0  0  0  0  0
    1.6931   17.4655   42.4979 C   0  0  0  0  0  0  0  0  0  0  0  0
    1.9809   18.7254   42.1432 N   0  0  0  0  0  0  0  0  0  0  0  0
    0.9824   17.2483   43.6092 N   0  0  0  0  0  0  0  0  0  0  0  0
    0.5632   18.2628   44.3862 C   0  0  0  0  0  0  0  0  0  0  0  0
   -0.1346   18.2898   45.5318 N   0  0  0  0  0  0  0  0  0  0  0  0
   -0.6476   17.1226   46.2553 C   0  0  0  0  0  0  0  0  0  0  0  0
   -0.3045   19.4504   45.9077 N   0  0  0  0  0  0  0  0  0  0  0  0
    0.2573   20.2561   44.9915 C   0  0  0  0  0  0  0  0  0  0  0  0
    0.8338   19.5161   44.0350 C   0  0  0  0  0  0  0  0  0  0  0  0
    1.5493   19.7507   42.9008 C   0  0  0  0  0  0  0  0  0  0  0  0
    1.8461   21.0153   42.5148 N   0  0  0  0  0  0  0  0  0  0  0  0
    2.8139   17.6139   40.0829 H   0  0  0  0  0  0  0  0  0  0  0  0
    3.5764   15.6852   38.7057 H   0  0  0  0  0  0  0  0  0  0  0  0
    3.3178   13.3637   39.5622 H   0  0  0  0  0  0  0  0  0  0  0  0
    1.5180   14.9075   43.1854 H   0  0  0  0  0  0  0  0  0  0  0  0
   -0.3302   17.1746   47.3072 H   0  0  0  0  0  0  0  0  0  0  0  0
   -1.7464   17.1132   46.2038 H   0  0  0  0  0  0  0  0  0  0  0  0
   -0.2512   16.2042   45.7976 H   0  0  0  0  0  0  0  0  0  0  0  0
    0.2457   21.3557   45.0219 H   0  0  0  0  0  0  0  0  0  0  0  0
    1.5258   21.8148   43.0797 H   0  0  0  0  0  0  0  0  0  0  0  0
    2.3922   21.1770   41.6565 H   0  0  0  0  0  0  0  0  0  0  0  0
  1  2  2  0
  1  6  1  0
  2  3  1  0
  3  4  2  0
  4  5  1  0
  5  6  2  0
  6  7  1  0
  7  8  2  0
  7  9  1  0
  8 16  1  0
  9 10  2  0
 10 11  1  0
 10 15  1  0
 11 12  1  0
 11 13  1  0
 13 14  2  0
 14 15  1  0
 15 16  2  0
 16 17  1  0
  1 18  1  0
  2 19  1  0
  3 20  1  0
  5 21  1  0
 12 22  1  0
 12 23  1  0
 12 24  1  0
 14 25  1  0
 17 26  1  0
 17 27  1  0
M  END
>  <mol_id>  (11) 
2026-09-18-6fnk-s0-n100-r8-0011

>  <rmsd_to_ref>  (11) 
0.9132653061258694

>  <pose_kind>  (11) 
rigid

$$$$
6fnk.A
     RDKit          3D

 27 29  0  0  0  0  0  0  0  0999 V2000
    1.8337   15.6245   40.7550 C   0  0  0  0  0  0  0  0  0  0  0  0
    2.0467   14.3199   40.3397 C   0  0  0  0  0  0  0  0  0  0  0  0
    1.9734   13.3005   41.2835 C   0  0  0  0  0  0  0  0  0  0  0  0
    1.7034   13.5488   42.5771 N   0  0  0  0  0  0  0  0  0  0  0  0
    1.4969   14.8150   42.9790 C   0  0  0  0  0  0  0  0  0  0  0  0
    1.5569   15.8803   42.0798 C   0  0  0  0  0  0  0  0  0  0  0  0
    1.3302   17.2489   42.5323 C   0  0  0  0  0  0  0  0  0  0  0  0
    1.3755   18.3141   41.7119 N   0  0  0  0  0  0  0  0  0  0  0  0
    1.0624   17.4709   43.8284 N   0  0  0  0  0  0  0  0  0  0  0  0
    0.8404   18.6940   44.3352 C   0  0  0  0  0  0  0  0  0  0  0  0
    0.5596   19.1617   45.5655 N   0  0  0  0  0  0  0  0  0  0  0  0
    0.4129   18.3677   46.7749 C   0  0  0  0  0  0  0  0  0  0  0  0
    0.4367   20.4611   45.5068 N   0  0  0  0  0  0  0  0  0  0  0  0
    0.6299   20.9036   44.2433 C   0  0  0  0  0  0  0  0  0  0  0  0
    0.8890   19.7782   43.4864 C   0  0  0  0  0  0  0  0  0  0  0  0
    1.1629   19.5752   42.1483 C   0  0  0  0  0  0  0  0  0  0  0  0
    1.2206   20.6708   41.2452 N   0  0  0  0  0  0  0  0  0  0  0  0
    1.8905   16.4194   40.0204 H   0  0  0  0  0  0  0  0  0  0  0  0
    2.2670   14.1134   39.2863 H   0  0  0  0  0  0  0  0  0  0  0  0
    2.1357   12.2634   40.9907 H   0  0  0  0  0  0  0  0  0  0  0  0
    1.2781   14.9957   44.0380 H   0  0  0  0  0  0  0  0  0  0  0  0
    0.6626   17.3011   46.5967 H   0  0  0  0  0  0  0  0  0  0  0  0
   -0.6008   18.3968   47.1905 H   0  0  0  0  0  0  0  0  0  0  0  0
    1.1218   18.6950   47.5766 H   0  0  0  0  0  0  0  0  0  0  0  0
    0.5911   21.9282   43.8896 H   0  0  0  0  0  0  0  0  0  0  0  0
    1.9968   21.3813   41.3615 H   0  0  0  0  0  0  0  0  0  0  0  0
    0.5061   20.7762   40.4742 H   0  0  0  0  0  0  0  0  0  0  0  0
  1  2  2  0
  1  6  1  0
  2  3  1  0
  3  4  2  0
  4  5  1  0
  5  6  2  0
  6  7  1  0
  7  8  2  0
  7  9  1  0
  8 16  1  0
  9 10  2  0
 10 11  1  0
 10 15  1  0
 11 12  1  0
 11 13  1  0
 13 14  2  0
 14 15  1  0
 15 16  2  0
 16 17  1  0
  1 18  1  0
  2 19  1  0
  3 20  1  0
  5 21  1  0
 12 22  1  0
 12 23  1  0
 12 24  1  0
 14 25  1  0
 17 26  1  0
 17 27  1  0
M  END
>  <mol_id>  (12) 
2026-09-18-6fnk-s0-n100-r8-0012

>  <rmsd_to_ref>  (12) 
0.9591836734726751

>  <pose_kind>  (12) 
conformer

$$$$
6fnk.A
     RDKit          3D

 27 29  0  0  0  0  0  0  0  0999 V2000
    1.9118   16.4469   40.2489 C   0  0  0  0  0  0  0  0  0  0  0  0
    2.0482   15.1813   39.6782 C   0  0  0  0  0  0  0  0  0  0  0  0
    1.9890   14.0502   40.4791 C   0  0  0  0  0  0  0  0  0  0  0  0
    1.7890   14.1799   41.8563 N   0  0  0  0  0  0  0  0  0  0  0  0
    1.6537   15.4543   42.4276 C   0  0  0  0  0  0  0  0  0  0  0  0
    1.7149   16.5914   41.6243 C   0  0  0  0  0  0  0  0  0  0  0  0
    1.5820   17.8604   42.1970 C   0  0  0  0  0  0  0  0  0  0  0  0
    1.8110   18.9691   41.4798 N   0  0  0  0  0  0  0  0  0  0  0  0
    1.2151   17.9775   43.4772 N   0  0  0  0  0  0  0  0  0  0  0  0
    1.0853   19.1801   44.0650 C   0  0  0  0  0  0  0  0  0  0  0  0
    0.7517   19.5399   45.3138 N   0  0  0  0  0  0  0  0  0  0  0  0
    0.4185   18.6284   46.4125 C   0  0  0  0  0  0  0  0  0  0  0  0
    0.7504   20.7666   45.4250 N   0  0  0  0  0  0  0  0  0  0  0  0
    1.0580   21.2796   44.2223 C   0  0  0  0  0  0  0  0  0  0  0  0
    1.2985   20.2851   43.3574 C   0  0  0  0  0  0  0  0  0  0  0  0
    1.6641   20.1792   42.0503 C   0  0  0  0  0  0  0  0  0  0  0  0
    1.8929   21.2845   41.3004 N   0  0  0  0  0  0  0  0  0  0  0  0
    1.9598   17.3405   39.6091 H   0  0  0  0  0  0  0  0  0  0  0  0
    2.2026   15.0804   38.5938 H   0  0  0  0  0  0  0  0  0  0  0  0
    2.0994   13.0519   40.0306 H   0  0  0  0  0  0  0  0  0  0  0  0
    1.4990   15.5560   43.5119 H   0  0  0  0  0  0  0  0  0  0  0  0
    1.0293   18.8768   47.2930 H   0  0  0  0  0  0  0  0  0  0  0  0
   -0.6472   18.7319   46.6646 H   0  0  0  0  0  0  0  0  0  0  0  0
    0.6235   17.5925   46.1045 H   0  0  0  0  0  0  0  0  0  0  0  0
    1.1052   22.3524   43.9840 H   0  0  0  0  0  0  0  0  0  0  0  0
    1.7863   22.2205   41.7168 H   0  0  0  0  0  0  0  0  0  0  0  0
    2.1732   21.1886   40.3139 H   0  0  0  0  0  0  0  0  0  0  0  0
  1  2  2  0
  1  6  1  0
  2  3  1  0
  3  4  2  0
  4  5  1  0
  5  6  2  0
  6  7  1  0
  7  8  2  0
  7  9  1  0
  8 16  1  0
  9 10  2  0
 10 11  1  0
 10 15  1  0
 11 12  1  0
 11 13  1  0
 13 14  2  0
 14 15  1  0
 15 16  2  0
 16 17  1  0
  1 18  1  0
  2 19  1  0
  3 20  1  0
  5 21  1  0
 12 22  1  0
 12 23  1  0
 12 24  1  0
 14 25  1  0
 17 26  1  0
 17 27  1  0
M  END
>  <mol_id>  (13) 
2026-09-18-6fnk-s0-n100-r8-0013

>  <rmsd_to_ref>  (13) 
1.0051020408196125

>  <pose_kind>  (13) 
rigid

$$$$
6fnk.A
     RDKit          3D

 27 29  0  0  0  0  0  0  0  0999 V2000
    2.3570   16.8723   40.2119 C   0  0  0  0  0  0  0  0  0  0  0  0
    2.5958   15.7296   39.4423 C   0  0  0  0  0  0  0  0  0  0  0  0
    2.1820   14.4787   39.8596 C   0  0  0  0  0  0  0  0  0  0  0  0
    1.5414   14.3831   41.0279 N   0  0  0  0  0  0  0  0  0  0  0  0
    1.2812   15.4416   41.8138 C   0  0  0  0  0  0  0  0  0  0  0  0
    1.6853   16.7011   41.4168 C   0  0  0  0  0  0  0  0  0  0  0  0
    1.4147   17.8633   42.2513 C   0  0  0  0  0  0  0  0  0  0  0  0
    1.7892   19.1170   41.9084 N   0  0  0  0  0  0  0  0  0  0  0  0
    0.7658   17.7058   43.4174 N   0  0  0  0  0  0  0  0  0  0  0  0
    0.4708   18.7089   44.2524 C   0  0  0  0  0  0  0  0  0  0  0  0
   -0.1608   18.7849   45.4523 N   0  0  0  0  0  0  0  0  0  0  0  0
   -0.7082   17.6121   46.1409 C   0  0  0  0  0  0  0  0  0  0  0  0
   -0.1886   20.0455   45.8618 N   0  0  0  0  0  0  0  0  0  0  0  0
    0.4289   20.8124   44.9274 C   0  0  0  0  0  0  0  0  0  0  0  0
    0.8507   19.9940   43.9081 C   0  0  0  0  0  0  0  0  0  0  0  0
    1.5226   20.1751   42.7059 C   0  0  0  0  0  0  0  0  0  0  0  0
    1.9199   21.4991   42.3404 N   0  0  0  0  0  0  0  0  0  0  0  0
    2.6864   17.8473   39.8738 H   0  0  0  0  0  0  0  0  0  0  0  0
    3.1212   15.8009   38.4819 H   0  0  0  0  0  0  0  0  0  0  0  0
    2.3898   13.6080   39.2250 H   0  0  0  0  0  0  0  0  0  0  0  0
    0.7523   15.3472   42.7738 H   0  0  0  0  0  0  0  0  0  0  0  0
   -1.7942   17.5051   45.9838 H   0  0  0  0  0  0  0  0  0  0  0  0
   -0.1349   16.6990   45.9102 H   0  0  0  0  0  0  0  0  0  0  0  0
   -0.5663   17.8061   47.2316 H   0  0  0  0  0  0  0  0  0  0  0  0
    0.5688   21.8810   44.9694 H   0  0  0  0  0  0  0  0  0  0  0  0
    1.4032   22.3396   42.6768 H   0  0  0  0  0  0  0  0  0  0  0  0
    2.7525   21.6277   41.7177 H   0  0  0  0  0  0  0  0  0  0  0  0
  1  2  2  0
  1  6  1  0
  2  3  1  0
  3  4  2  0
  4  5  1  0
  5  6  2  0
  6  7  1  0
  7  8  2  0
  7  9  1  0
  8 16  1  0
  9 10  2  0
 10 11  1  0
 10 15  1  0
 11 12  1  0
 11 13  1  0
 13 14  2  0
 14 15  1  0
 15 16  2  0
 16 17  1  0
  1 18  1  0
  2 19  1  0
  3 20  1  0
  5 21  1  0
 12 22  1  0
 12 23  1  0
 12 24  1  0
 14 25  1  0
 17 26  1  0
 17 27  1  0
M  END
>  <mol_id>  (14) 
2026-09-18-6fnk-s0-n100-r8-0014

>  <rmsd_to_ref>  (14) 
1.0510204081684702

>  <pose_kind>  (14) 
conformer

$$$$
6fnk.A
     RDKit          3D

 27 29  0  0  0  0  0  0  0  0999 V2000
    3.5645   17.0475   40.3393 C   0  0  0  0  0  0  0  0  0  0  0  0
    4.4132   16.0939   39.7769 C   0  0  0  0  0  0  0  0  0  0  0  0
    4.5147   14.8339   40.3482 C   0  0  0  0  0  0  0  0  0  0  0  0
    3.7637   14.5202   41.4844 N   0  0  0  0  0  0  0  0  0  0  0  0
    2.9120   15.4820   42.0488 C   0  0  0  0  0  0  0  0  0  0  0  0
    2.8107   16.7488   41.4768 C   0  0  0  0  0  0  0  0  0  0  0  0
    1.9627   17.7061   42.0431 C   0  0  0  0  0  0  0  0  0  0  0  0
    1.9785   18.9782   41.6215 N   0  0  0  0  0  0  0  0  0  0  0  0
    1.1163   17.3531   43.0157 N   0  0  0  0  0  0  0  0  0  0  0  0
    0.2921   18.2471   43.5903 C   0  0  0  0  0  0  0  0  0  0  0  0
   -0.6135   18.1336   44.5738 N   0  0  0  0  0  0  0  0  0  0  0  0
   -0.9433   16.9054   45.3031 C   0  0  0  0  0  0  0  0  0  0  0  0
   -1.1568   19.2179   44.7890 N   0  0  0  0  0  0  0  0  0  0  0  0
   -0.6458   20.1035   43.9179 C   0  0  0  0  0  0  0  0  0  0  0  0
    0.2925   19.5081   43.1696 C   0  0  0  0  0  0  0  0  0  0  0  0
    1.1438   19.8780   42.1737 C   0  0  0  0  0  0  0  0  0  0  0  0
    1.1734   21.1557   41.7228 N   0  0  0  0  0  0  0  0  0  0  0  0
    3.4881   18.0452   39.8823 H   0  0  0  0  0  0  0  0  0  0  0  0
    5.0015   16.3409   38.8809 H   0  0  0  0  0  0  0  0  0  0  0  0
    5.1858   14.0821   39.9073 H   0  0  0  0  0  0  0  0  0  0  0  0
    2.3232   15.2356   42.9446 H   0  0  0  0  0  0  0  0  0  0  0  0
   -0.8795   17.0932   46.3851 H   0  0  0  0  0  0  0  0  0  0  0  0
   -1.9648   16.5890   45.0455 H   0  0  0  0  0  0  0  0  0  0  0  0
   -0.2329   16.1125   45.0261 H   0  0  0  0  0  0  0  0  0  0  0  0
   -0.9511   21.1568   43.8321 H   0  0  0  0  0  0  0  0  0  0  0  0
    0.5432   21.8606   42.1312 H   0  0  0  0  0  0  0  0  0  0  0  0
    1.8260   21.4217   40.9717 H   0  0  0  0  0  0  0  0  0  0  0  0
  1  2  2  0
  1  6  1  0
  2  3  1  0
  3  4  2  0
  4  5  1  0
  5  6  2  0
  6  7  1  0
  7  8  2  0
  7  9  1  0
  8 16  1  0
  9 10  2  0
 10 11  1  0
 10 15  1  0
 11 12  1  0
 11 13  1  0
 13 14  2  0
 14 15  1  0
 15 16  2  0
 16 17  1  0
  1 18  1  0
  2 19  1  0
  3 20  1  0
  5 21  1  0
 12 22  1  0
 12 23  1  0
 12 24  1  0
 14 25  1  0
 17 26  1  0
 17 27  1  0
M  END
>  <mol_id>  (15) 
2026-09-18-6fnk-s0-n100-r8-0015

>  <rmsd_to_ref>  (15) 
1.0969387755164743

>  <pose_kind>  (15) 
rigid

$$$$
6fnk.A
     RDKit          3D

 27 29  0  0  0  0  0  0  0  0999 V2000
    2.9270   16.1689   41.2259 C   0  0  0  0  0  0  0  0  0  0  0  0
    3.3916   15.0219   40.6108 C   0  0  0  0  0  0  0  0  0  0  0  0
    2.6207   13.8713   40.6285 C   0  0  0  0  0  0  0  0  0  0  0  0
    1.4070   13.8327   41.2386 N   0  0  0  0  0  0  0  0  0  0  0  0
    0.9260   14.9498   41.8524 C   0  0  0  0  0  0  0  0  0  0  0  0
    1.6818   16.1039   41.8436 C   0  0  0  0  0  0  0  0  0  0  0  0
    1.2058   17.3221   42.4879 C   0  0  0  0  0  0  0  0  0  0  0  0
    1.9135   18.4708   42.5020 N   0  0  0  0  0  0  0  0  0  0  0  0
    0.0116   17.3498   43.1097 N   0  0  0  0  0  0  0  0  0  0  0  0
   -0.4639   18.4459   43.7137 C   0  0  0  0  0  0  0  0  0  0  0  0
   -1.6070   18.6833   44.3783 N   0  0  0  0  0  0  0  0  0  0  0  0
   -2.6561   17.7077   44.5961 C   0  0  0  0  0  0  0  0  0  0  0  0
   -1.6063   19.9576   44.7964 N   0  0  0  0  0  0  0  0  0  0  0  0
   -0.4720   20.5557   44.4107 C   0  0  0  0  0  0  0  0  0  0  0  0
    0.2714   19.6186   43.7215 C   0  0  0  0  0  0  0  0  0  0  0  0
    1.4887   19.5993   43.0905 C   0  0  0  0  0  0  0  0  0  0  0  0
    2.2653   20.7870   43.0821 N   0  0  0  0  0  0  0  0  0  0  0  0
    3.5003   17.0664   41.2265 H   0  0  0  0  0  0  0  0  0  0  0  0
    4.3693   15.0581   40.1210 H   0  0  0  0  0  0  0  0  0  0  0  0
    3.0450   13.0101   40.1279 H   0  0  0  0  0  0  0  0  0  0  0  0
   -0.0509   14.9066   42.3395 H   0  0  0  0  0  0  0  0  0  0  0  0
   -3.1843   17.4742   43.6554 H   0  0  0  0  0  0  0  0  0  0  0  0
   -3.4174   18.1076   45.3054 H   0  0  0  0  0  0  0  0  0  0  0  0
   -2.2055   16.8065   45.0861 H   0  0  0  0  0  0  0  0  0  0  0  0
   -0.1801   21.5661   44.5928 H   0  0  0  0  0  0  0  0  0  0  0  0
    2.2261   21.3706   42.2196 H   0  0  0  0  0  0  0  0  0  0  0  0
    2.8580   21.0800   43.8978 H   0  0  0  0  0  0  0  0  0  0  0  0
  1  2  2  0
  1  6  1  0
  2  3  1  0
  3  4  2  0
  4  5  1  0
  5  6  2  0
  6  7  1  0
  7  8  2  0
  7  9  1  0
  8 16  1  0
  9 10  2  0
 10 11  1  0
 10 15  1  0
 11 12  1  0
 11 13  1  0
 13 14  2  0
 14 15  1  0
 15 16  2  0
 16 17  1  0
  1 18  1  0
  2 19  1  0
  3 20  1  0
  5 21  1  0
 12 22  1  0
 12 23  1  0
 12 24  1  0
 14 25  1  0
 17 26  1  0
 17 27  1  0
M  END
>  <mol_id>  (16) 
2026-09-18-6fnk-s0-n100-r8-0016

>  <rmsd_to_ref>  (16) 
1.1428571428593857

>  <pose_kind>  (16) 
conformer

$$$$
6fnk.A
     RDKit          3D

 27 29  0  0  0  0  0  0  0  0999 V2000
    3.1141   15.5024   41.1464 C   0  0  0  0  0  0  0  0  0  0  0  0
    3.8758   14.3380   41.2457 C   0  0  0  0  0  0  0  0  0  0  0  0
    3.9158   13.6361   42.4417 C   0  0  0  0  0  0  0  0  0  0  0  0
    3.1898   14.0945   43.5445 N   0  0  0  0  0  0  0  0  0  0  0  0
    2.4258   15.2669   43.4420 C   0  0  0  0  0  0  0  0  0  0  0  0
    2.3864   15.9739   42.2417 C   0  0  0  0  0  0  0  0  0  0  0  0
    1.6258   17.1434   42.1433 C   0  0  0  0  0  0  0  0  0  0  0  0
    1.7092   17.9326   41.0634 N   0  0  0  0  0  0  0  0  0  0  0  0
    0.7957   17.4826   43.1348 N   0  0  0  0  0  0  0  0  0  0  0  0
    0.0549   18.6038   43.0802 C   0  0  0  0  0  0  0  0  0  0  0  0
   -0.8179   19.1484   43.9415 N   0  0  0  0  0  0  0  0  0  0  0  0
   -1.1997   18.5965   45.2448 C   0  0  0  0  0  0  0  0  0  0  0  0
   -1.2797   20.1952   43.4855 N   0  0  0  0  0  0  0  0  0  0  0  0
   -0.7452   20.3731   42.2662 C   0  0  0  0  0  0  0  0  0  0  0  0
    0.1225   19.3857   42.0072 C   0  0  0  0  0  0  0  0  0  0  0  0
    0.9575   19.0464   40.9869 C   0  0  0  0  0  0  0  0  0  0  0  0
    1.0540   19.8221   39.8800 N   0  0  0  0  0  0  0  0  0  0  0  0
    3.0862   16.0551   40.1958 H   0  0  0  0  0  0  0  0  0  0  0  0
    4.4445   13.9765   40.3762 H   0  0  0  0  0  0  0  0  0  0  0  0
    4.5185   12.7194   42.5220 H   0  0  0  0  0  0  0  0  0  0  0  0
    1.8567   15.6288   44.3110 H   0  0  0  0  0  0  0  0  0  0  0  0
   -1.0823   19.3692   46.0188 H   0  0  0  0  0  0  0  0  0  0  0  0
   -2.2490   18.2681   45.2107 H   0  0  0  0  0  0  0  0  0  0  0  0
   -0.5544   17.7380   45.4828 H   0  0  0  0  0  0  0  0  0  0  0  0
   -0.9834   21.2028   41.5844 H   0  0  0  0  0  0  0  0  0  0  0  0
    0.4879   20.6789   39.8005 H   0  0  0  0  0  0  0  0  0  0  0  0
    1.6936   19.5550   39.1180 H   0  0  0  0  0  0  0  0  0  0  0  0
  1  2  2  0
  1  6  1  0
  2  3  1  0
  3  4  2  0
  4  5  1  0
  5  6  2  0
  6  7  1  0
  7  8  2  0
  7  9  1  0
  8 16  1  0
  9 10  2  0
 10 11  1  0
 10 15  1  0
 11 12  1  0
 11 13  1  0
 13 14  2  0
 14 15  1  0
 15 16  2  0
 16 17  1  0
  1 18  1  0
  2 19  1  0
  3 20  1  0
  5 21  1  0
 12 22  1  0
 12 23  1  0
 12 24  1  0
 14 25  1  0
 17 26  1  0
 17 27  1  0
M  END
>  <mol_id>  (17) 
2026-09-18-6fnk-s0-n100-r8-0017

>  <rmsd_to_ref>  (17) 
1.188775510208554

>  <pose_kind>  (17) 
rigid

$$$$
6fnk.A
     RDKit          3D

 27 29  0  0  0  0  0  0  0  0999 V2000
    1.9108   15.1130   42.6425 C   0  0  0  0  0  0  0  0  0  0  0  0
    2.4339   13.8572   42.3164 C   0  0  0  0  0  0  0  0  0  0  0  0
    3.3060   13.7123   41.2399 C   0  0  0  0  0  0  0  0  0  0  0  0
    3.6535   14.7855   40.5016 N   0  0  0  0  0  0  0  0  0  0  0  0
    3.1636   16.0264   40.7895 C   0  0  0  0  0  0  0  0  0  0  0  0
    2.2984   16.1922   41.8515 C   0  0  0  0  0  0  0  0  0  0  0  0
    1.7849   17.5252   42.1442 C   0  0  0  0  0  0  0  0  0  0  0  0
    2.1747   18.5507   41.3649 N   0  0  0  0  0  0  0  0  0  0  0  0
    0.9342   17.7045   43.1838 N   0  0  0  0  0  0  0  0  0  0  0  0
    0.4562   18.9312   43.4601 C   0  0  0  0  0  0  0  0  0  0  0  0
   -0.3815   19.3972   44.4047 N   0  0  0  0  0  0  0  0  0  0  0  0
   -0.9862   18.5567   45.4085 C   0  0  0  0  0  0  0  0  0  0  0  0
   -0.5116   20.7017   44.2145 N   0  0  0  0  0  0  0  0  0  0  0  0
    0.2232   21.1084   43.1631 C   0  0  0  0  0  0  0  0  0  0  0  0
    0.8476   19.9922   42.6691 C   0  0  0  0  0  0  0  0  0  0  0  0
    1.7169   19.7932   41.6111 C   0  0  0  0  0  0  0  0  0  0  0  0
    2.1439   20.8651   40.7715 N   0  0  0  0  0  0  0  0  0  0  0  0
    1.2320   15.2478   43.4744 H   0  0  0  0  0  0  0  0  0  0  0  0
    2.1539   12.9801   42.9145 H   0  0  0  0  0  0  0  0  0  0  0  0
    3.6682   12.7113   41.0498 H   0  0  0  0  0  0  0  0  0  0  0  0
    3.4840   16.8574   40.1523 H   0  0  0  0  0  0  0  0  0  0  0  0
   -0.2682   18.0143   46.0362 H   0  0  0  0  0  0  0  0  0  0  0  0
   -1.7688   17.8808   44.9530 H   0  0  0  0  0  0  0  0  0  0  0  0
   -1.5645   19.2127   46.1090 H   0  0  0  0  0  0  0  0  0  0  0  0
    0.3326   22.1013   42.7515 H   0  0  0  0  0  0  0  0  0  0  0  0
    1.4663   21.2027   40.0518 H   0  0  0  0  0  0  0  0  0  0  0  0
    3.0625   21.3201   40.8285 H   0  0  0  0  0  0  0  0  0  0  0  0
  1  2  2  0
  1  6  1  0
  2  3  1  0
  3  4  2  0
  4  5  1  0
  5  6  2  0
  6  7  1  0
  7  8  2  0
  7  9  1  0
  8 16  1  0
  9 10  2  0
 10 11  1  0
 10 15  1  0
 11 12  1  0
 11 13  1  0
 13 14  2  0
 14 15  1  0
 15 16  2  0
 16 17  1  0
  1 18  1  0
  2 19  1  0
  3 20  1  0
  5 21  1  0
 12 22  1  0
 12 23  1  0
 12 24  1  0
 14 25  1  0
 17 26  1  0
 17 27  1  0
M  END
>  <mol_id>  (18) 
2026-09-18-6fnk-s0-n100-r8-0018

>  <rmsd_to_ref>  (18) 
1.2346938775533614

>  <pose_kind>  (18) 
conformer

$$$$
6fnk.A
     RDKit          3D

 27 29  0  0  0  0  0  0  0  0999 V2000
    2.0717   16.7627   40.3990 C   0  0  0  0  0  0  0  0  0  0  0  0
    2.2273   15.6974   39.5119 C   0  0  0  0  0  0  0  0  0  0  0  0
    1.7357   14.4431   39.8426 C   0  0  0  0  0  0  0  0  0  0  0  0
    1.0817   14.2491   41.0624 N   0  0  0  0  0  0  0  0  0  0  0  0
    0.9281   15.3222   41.9534 C   0  0  0  0  0  0  0  0  0  0  0  0
    1.4233   16.5823   41.6231 C   0  0  0  0  0  0  0  0  0  0  0  0
    1.2707   17.6494   42.5142 C   0  0  0  0  0  0  0  0  0  0  0  0
    1.8869   18.8203   42.3013 N   0  0  0  0  0  0  0  0  0  0  0  0
    0.4948   17.5090   43.5937 N   0  0  0  0  0  0  0  0  0  0  0  0
    0.3307   18.5093   44.4776 C   0  0  0  0  0  0  0  0  0  0  0  0
   -0.3703   18.5961   45.6183 N   0  0  0  0  0  0  0  0  0  0  0  0
   -1.1908   17.5339   46.2077 C   0  0  0  0  0  0  0  0  0  0  0  0
   -0.2438   19.7139   46.1199 N   0  0  0  0  0  0  0  0  0  0  0  0
    0.5356   20.4371   45.2991 C   0  0  0  0  0  0  0  0  0  0  0  0
    0.9284   19.6780   44.2674 C   0  0  0  0  0  0  0  0  0  0  0  0
    1.7141   19.8363   43.1669 C   0  0  0  0  0  0  0  0  0  0  0  0
    2.3412   21.0127   42.9235 N   0  0  0  0  0  0  0  0  0  0  0  0
    2.4638   17.7551   40.1318 H   0  0  0  0  0  0  0  0  0  0  0  0
    2.7396   15.8519   38.5508 H   0  0  0  0  0  0  0  0  0  0  0  0
    1.8604   13.6016   39.1451 H   0  0  0  0  0  0  0  0  0  0  0  0
    0.4157   15.1685   42.9145 H   0  0  0  0  0  0  0  0  0  0  0  0
   -0.9027   17.3888   47.2593 H   0  0  0  0  0  0  0  0  0  0  0  0
   -2.2521   17.8179   46.1541 H   0  0  0  0  0  0  0  0  0  0  0  0
   -1.0333   16.5978   45.6518 H   0  0  0  0  0  0  0  0  0  0  0  0
    0.8095   21.4916   45.4507 H   0  0  0  0  0  0  0  0  0  0  0  0
    2.2229   21.8034   43.5728 H   0  0  0  0  0  0  0  0  0  0  0  0
    2.9361   21.1161   42.0890 H   0  0  0  0  0  0  0  0  0  0  0  0
  1  2  2  0
  1  6  1  0
  2  3  1  0
  3  4  2  0
  4  5  1  0
  5  6  2  0
  6  7  1  0
  7  8  2  0
  7  9  1  0
  8 16  1  0
  9 10  2  0
 10 11  1  0
 10 15  1  0
 11 12  1  0
 11 13  1  0
 13 14  2  0
 14 15  1  0
 15 16  2  0
 16 17  1  0
  1 18  1  0
  2 19  1  0
  3 20  1  0
  5 21  1  0
 12 22  1  0
 12 23  1  0
 12 24  1  0
 14 25  1  0
 17 26  1  0
 17 27  1  0
M  END
>  <mol_id>  (19) 
2026-09-18-6fnk-s0-n100-r8-0019

>  <rmsd_to_ref>  (19) 
1.2806122449006347

>  <pose_kind>  (19) 
rigid

$$$$
6fnk.A
     RDKit          3D

 27 29  0  0  0  0  0  0  0  0999 V2000
    1.4208   15.2006   43.0619 C   0  0  0  0  0  0  0  0  0  0  0  0
    1.7070   13.8794   42.7678 C   0  0  0  0  0  0  0  0  0  0  0  0
    2.4366   13.5706   41.6386 C   0  0  0  0  0  0  0  0  0  0  0  0
    2.8617   14.5597   40.8358 N   0  0  0  0  0  0  0  0  0  0  0  0
    2.6180   15.8622   41.0644 C   0  0  0  0  0  0  0  0  0  0  0  0
    1.8878   16.1683   42.1948 C   0  0  0  0  0  0  0  0  0  0  0  0
    1.6066   17.5605   42.4724 C   0  0  0  0  0  0  0  0  0  0  0  0
    2.0219   18.5565   41.6845 N   0  0  0  0  0  0  0  0  0  0  0  0
    0.8910   17.9231   43.5724 N   0  0  0  0  0  0  0  0  0  0  0  0
    0.6194   19.2049   43.8481 C   0  0  0  0  0  0  0  0  0  0  0  0
   -0.0626   19.7991   44.8658 N   0  0  0  0  0  0  0  0  0  0  0  0
   -0.7003   19.0897   45.9739 C   0  0  0  0  0  0  0  0  0  0  0  0
   -0.0510   21.1077   44.6851 N   0  0  0  0  0  0  0  0  0  0  0  0
    0.6338   21.4289   43.5496 C   0  0  0  0  0  0  0  0  0  0  0  0
    1.0476   20.2163   43.0378 C   0  0  0  0  0  0  0  0  0  0  0  0
    1.7834   19.8590   41.9047 C   0  0  0  0  0  0  0  0  0  0  0  0
    2.2487   20.8603   41.0364 N   0  0  0  0  0  0  0  0  0  0  0  0
    0.8471   15.4419   43.9500 H   0  0  0  0  0  0  0  0  0  0  0  0
    1.3746   13.0696   43.3999 H   0  0  0  0  0  0  0  0  0  0  0  0
    2.6957   12.5590   41.3493 H   0  0  0  0  0  0  0  0  0  0  0  0
    2.9784   16.6390   40.3915 H   0  0  0  0  0  0  0  0  0  0  0  0
   -0.1077   18.1560   46.1334 H   0  0  0  0  0  0  0  0  0  0  0  0
   -0.6520   19.6590   46.9038 H   0  0  0  0  0  0  0  0  0  0  0  0
   -1.7279   18.7522   45.7116 H   0  0  0  0  0  0  0  0  0  0  0  0
    0.8160   22.4115   43.1364 H   0  0  0  0  0  0  0  0  0  0  0  0
    2.0246   21.8553   41.1969 H   0  0  0  0  0  0  0  0  0  0  0  0
    2.8292   20.6287   40.2113 H   0  0  0  0  0  0  0  0  0  0  0  0
  1  2  2  0
  1  6  1  0
  2  3  1  0
  3  4  2  0
  4  5  1  0
  5  6  2  0
  6  7  1  0
  7  8  2  0
  7  9  1  0
  8 16  1  0
  9 10  2  0
 10 11  1  0
 10 15  1  0
 11 12  1  0
 11 13  1  0
 13 14  2  0
 14 15  1  0
 15 16  2  0
 16 17  1  0
  1 18  1  0
  2 19  1  0
  3 20  1  0
  5 21  1  0
 12 22  1  0
 12 23  1  0
 12 24  1  0
 14 25  1  0
 17 26  1  0
 17 27  1  0
M  END
>  <mol_id>  (20) 
2026-09-18-6fnk-s0-n100-r8-0020

>  <rmsd_to_ref>  (20) 
1.32653061224714

>  <pose_kind>  (20) 
conformer

$$$$
6fnk.A
     RDKit          3D

 27 29  0  0  0  0  0  0  0  0999 V2000
    3.2575   17.0755   41.0883 C   0  0  0  0  0  0  0  0  0  0  0  0
    4.2988   16.1875   40.8179 C   0  0  0  0  0  0  0  0  0  0  0  0
    4.5333   15.1157   41.6668 C   0  0  0  0  0  0  0  0  0  0  0  0
    3.7236   14.9247   42.7898 N   0  0  0  0  0  0  0  0  0  0  0  0
    2.6779   15.8205   43.0601 C   0  0  0  0  0  0  0  0  0  0  0  0
    2.4426   16.8987   42.2091 C   0  0  0  0  0  0  0  0  0  0  0  0
    1.4011   17.7912   42.4824 C   0  0  0  0  0  0  0  0  0  0  0  0
    1.2640   18.9270   41.7844 N   0  0  0  0  0  0  0  0  0  0  0  0
    0.5211   17.5109   43.4490 N   0  0  0  0  0  0  0  0  0  0  0  0
   -0.4882   18.3485   43.7465 C   0  0  0  0  0  0  0  0  0  0  0  0
   -1.4645   18.2904   44.6650 N   0  0  0  0  0  0  0  0  0  0  0  0
   -1.6753   17.2074   45.6303 C   0  0  0  0  0  0  0  0  0  0  0  0
   -2.1892   19.2835   44.5895 N   0  0  0  0  0  0  0  0  0  0  0  0
   -1.7322   20.0387   43.5772 C   0  0  0  0  0  0  0  0  0  0  0  0
   -0.6387   19.4712   43.0508 C   0  0  0  0  0  0  0  0  0  0  0  0
    0.2458   19.7636   42.0581 C   0  0  0  0  0  0  0  0  0  0  0  0
    0.1246   20.9010   41.3313 N   0  0  0  0  0  0  0  0  0  0  0  0
    3.0762   17.9239   40.4120 H   0  0  0  0  0  0  0  0  0  0  0  0
    4.9336   16.3371   39.9321 H   0  0  0  0  0  0  0  0  0  0  0  0
    5.3559   14.4165   41.4561 H   0  0  0  0  0  0  0  0  0  0  0  0
    2.0426   15.6713   43.9456 H   0  0  0  0  0  0  0  0  0  0  0  0
   -1.7569   17.6294   46.6428 H   0  0  0  0  0  0  0  0  0  0  0  0
   -2.6021   16.6697   45.3814 H   0  0  0  0  0  0  0  0  0  0  0  0
   -0.8252   16.5104   45.5908 H   0  0  0  0  0  0  0  0  0  0  0  0
   -2.1864   20.9796   43.2329 H   0  0  0  0  0  0  0  0  0  0  0  0
   -0.6471   21.5554   41.5239 H   0  0  0  0  0  0  0  0  0  0  0  0
    0.8041   21.1110   40.5863 H   0  0  0  0  0  0  0  0  0  0  0  0
  1  2  2  0
  1  6  1  0
  2  3  1  0
  3  4  2  0
  4  5  1  0
  5  6  2  0
  6  7  1  0
  7  8  2  0
  7  9  1  0
  8 16  1  0
  9 10  2  0
 10 11  1  0
 10 15  1  0
 11 12  1  0
 11 13  1  0
 13 14  2  0
 14 15  1  0
 15 16  2  0
 16 17  1  0
  1 18  1  0
  2 19  1  0
  3 20  1  0
  5 21  1  0
 12 22  1  0
 12 23  1  0
 12 24  1  0
 14 25  1  0
 17 26  1  0
 17 27  1  0
M  END
>  <mol_id>  (21) 
2026-09-18-6fnk-s0-n100-r8-0021

>  <rmsd_to_ref>  (21) 
1.372448979592186

>  <pose_kind>  (21) 
rigid

$$$$
6fnk.A
     RDKit          3D

 27 29  0  0  0  0  0  0  0  0999 V2000
    3.4175   17.5364   40.7474 C   0  0  0  0  0  0  0  0  0  0  0  0
    4.4128   16.6795   40.2753 C   0  0  0  0  0  0  0  0  0  0  0  0
    4.4763   15.3880   40.7578 C   0  0  0  0  0  0  0  0  0  0  0  0
    3.6154   14.9013   41.6751 N   0  0  0  0  0  0  0  0  0  0  0  0
    2.6361   15.7212   42.1492 C   0  0  0  0  0  0  0  0  0  0  0  0
    2.5415   17.0273   41.6865 C   0  0  0  0  0  0  0  0  0  0  0  0
    1.4906   17.9313   42.1852 C   0  0  0  0  0  0  0  0  0  0  0  0
    1.3759   19.2017   41.7540 N   0  0  0  0  0  0  0  0  0  0  0  0
    0.6007   17.4842   43.1102 N   0  0  0  0  0  0  0  0  0  0  0  0
   -0.3745   18.2545   43.6013 C   0  0  0  0  0  0  0  0  0  0  0  0
   -1.3785   18.0929   44.5028 N   0  0  0  0  0  0  0  0  0  0  0  0
   -1.6292   16.8592   45.2225 C   0  0  0  0  0  0  0  0  0  0  0  0
   -2.0431   19.2399   44.5798 N   0  0  0  0  0  0  0  0  0  0  0  0
   -1.5123   20.1619   43.7565 C   0  0  0  0  0  0  0  0  0  0  0  0
   -0.4577   19.5658   43.1270 C   0  0  0  0  0  0  0  0  0  0  0  0
    0.4277   20.0526   42.1894 C   0  0  0  0  0  0  0  0  0  0  0  0
    0.3814   21.3771   41.6789 N   0  0  0  0  0  0  0  0  0  0  0  0
    3.3583   18.5502   40.3764 H   0  0  0  0  0  0  0  0  0  0  0  0
    5.1209   17.0404   39.5372 H   0  0  0  0  0  0  0  0  0  0  0  0
    5.2457   14.7131   40.3981 H   0  0  0  0  0  0  0  0  0  0  0  0
    1.9334   15.3542   42.8854 H   0  0  0  0  0  0  0  0  0  0  0  0
   -2.5517   17.0183   45.8267 H   0  0  0  0  0  0  0  0  0  0  0  0
   -0.7650   16.5549   45.8509 H   0  0  0  0  0  0  0  0  0  0  0  0
   -1.8675   16.0217   44.5288 H   0  0  0  0  0  0  0  0  0  0  0  0
   -1.8479   21.1950   43.6072 H   0  0  0  0  0  0  0  0  0  0  0  0
    0.1052   22.1525   42.3403 H   0  0  0  0  0  0  0  0  0  0  0  0
    0.6080   21.6163   40.6809 H   0  0  0  0  0  0  0  0  0  0  0  0
  1  2  2  0
  1  6  1  0
  2  3  1  0
  3  4  2  0
  4  5  1  0
  5  6  2  0
  6  7  1  0
  7  8  2  0
  7  9  1  0
  8 16  1  0
  9 10  2  0
 10 11  1  0
 10 15  1  0
 11 12  1  0
 11 13  1  0
 13 14  2  0
 14 15  1  0
 15 16  2  0
 16 17  1  0
  1 18  1  0
  2 19  1  0
  3 20  1  0
  5 21  1  0
 12 22  1  0
 12 23  1  0
 12 24  1  0
 14 25  1  0
 17 26  1  0
 17 27  1  0
M  END
>  <mol_id>  (22) 
2026-09-18-6fnk-s0-n100-r8-0022

>  <rmsd_to_ref>  (22) 
1.418367346946913

>  <pose_kind>  (22) 
conformer

$$$$
6fnk.A
     RDKit          3D

 27 29  0  0  0  0  0  0  0  0999 V2000
    3.5224   15.4189   42.2529 C   0  0  0  0  0  0  0  0  0  0  0  0
    4.0580   14.1607   42.5285 C   0  0  0  0  0  0  0  0  0  0  0  0
    3.7072   13.4990   43.6962 C   0  0  0  0  0  0  0  0  0  0  0  0
    2.8147   14.0922   44.5933 N   0  0  0  0  0  0  0  0  0  0  0  0
    2.2788   15.3586   44.3142 C   0  0  0  0  0  0  0  0  0  0  0  0
    2.6319   16.0251   43.1423 C   0  0  0  0  0  0  0  0  0  0  0  0
    2.0979   17.2883   42.8680 C   0  0  0  0  0  0  0  0  0  0  0  0
    2.5523   18.0223   41.8429 N   0  0  0  0  0  0  0  0  0  0  0  0
    1.1145   17.7750   43.6316 N   0  0  0  0  0  0  0  0  0  0  0  0
    0.5819   18.9889   43.4042 C   0  0  0  0  0  0  0  0  0  0  0  0
   -0.3811   19.6808   44.0319 N   0  0  0  0  0  0  0  0  0  0  0  0
   -1.1403   19.2317   45.2028 C   0  0  0  0  0  0  0  0  0  0  0  0
   -0.5611   20.7681   43.4820 N   0  0  0  0  0  0  0  0  0  0  0  0
    0.2694   20.8281   42.4280 C   0  0  0  0  0  0  0  0  0  0  0  0
    1.0183   19.7182   42.3820 C   0  0  0  0  0  0  0  0  0  0  0  0
    2.0134   19.2297   41.5917 C   0  0  0  0  0  0  0  0  0  0  0  0
    2.4848   19.9476   40.5435 N   0  0  0  0  0  0  0  0  0  0  0  0
    3.8042   15.9392   41.3256 H   0  0  0  0  0  0  0  0  0  0  0  0
    4.7581   13.6934   41.8203 H   0  0  0  0  0  0  0  0  0  0  0  0
    4.1313   12.5081   43.9160 H   0  0  0  0  0  0  0  0  0  0  0  0
    1.5784   15.8263   45.0219 H   0  0  0  0  0  0  0  0  0  0  0  0
   -1.0984   20.0038   45.9851 H   0  0  0  0  0  0  0  0  0  0  0  0
   -2.1877   19.0569   44.9157 H   0  0  0  0  0  0  0  0  0  0  0  0
   -0.7044   18.2973   45.5861 H   0  0  0  0  0  0  0  0  0  0  0  0
    0.3259   21.6612   41.7120 H   0  0  0  0  0  0  0  0  0  0  0  0
    2.0868   20.8740   40.3331 H   0  0  0  0  0  0  0  0  0  0  0  0
    3.2412   19.5669   39.9570 H   0  0  0  0  0  0  0  0  0  0  0  0
  1  2  2  0
  1  6  1  0
  2  3  1  0
  3  4  2  0
  4  5  1  0
  5  6  2  0
  6  7  1  0
  7  8  2  0
  7  9  1  0
  8 16  1  0
  9 10  2  0
 10 11  1  0
 10 15  1  0
 11 12  1  0
 11 13  1  0
 13 14  2  0
 14 15  1  0
 15 16  2  0
 16 17  1  0
  1 18  1  0
  2 19  1  0
  3 20  1  0
  5 21  1  0
 12 22  1  0
 12 23  1  0
 12 24  1  0
 14 25  1  0
 17 26  1  0
 17 27  1  0
M  END
>  <mol_id>  (23) 
2026-09-18-6fnk-s0-n100-r8-0023

>  <rmsd_to_ref>  (23) 
1.464285714292636

>  <pose_kind>  (23) 
rigid

$$$$
6fnk.A
     RDKit          3D

 27 29  0  0  0  0  0  0  0  0999 V2000
    2.6924   16.5880   39.6478 C   0  0  0  0  0  0  0  0  0  0  0  0
    2.6361   15.5010   38.7958 C   0  0  0  0  0  0  0  0  0  0  0  0
    1.8132   14.4152   39.0109 C   0  0  0  0  0  0  0  0  0  0  0  0
    1.0036   14.3825   40.1091 N   0  0  0  0  0  0  0  0  0  0  0  0
    1.0229   15.4329   40.9814 C   0  0  0  0  0  0  0  0  0  0  0  0
    1.8568   16.5283   40.7591 C   0  0  0  0  0  0  0  0  0  0  0  0
    1.8695   17.6524   41.7036 C   0  0  0  0  0  0  0  0  0  0  0  0
    2.6612   18.7309   41.5256 N   0  0  0  0  0  0  0  0  0  0  0  0
    1.0652   17.6046   42.7813 N   0  0  0  0  0  0  0  0  0  0  0  0
    1.0071   18.5795   43.6966 C   0  0  0  0  0  0  0  0  0  0  0  0
    0.2934   18.7421   44.8284 N   0  0  0  0  0  0  0  0  0  0  0  0
   -0.6871   17.8190   45.4022 C   0  0  0  0  0  0  0  0  0  0  0  0
    0.6420   19.9000   45.3347 N   0  0  0  0  0  0  0  0  0  0  0  0
    1.5686   20.5144   44.5718 C   0  0  0  0  0  0  0  0  0  0  0  0
    1.8113   19.6817   43.5216 C   0  0  0  0  0  0  0  0  0  0  0  0
    2.6563   19.7611   42.4142 C   0  0  0  0  0  0  0  0  0  0  0  0
    3.4905   20.8878   42.2184 N   0  0  0  0  0  0  0  0  0  0  0  0
    3.3430   17.4241   39.4587 H   0  0  0  0  0  0  0  0  0  0  0  0
    3.2728   15.4878   37.8988 H   0  0  0  0  0  0  0  0  0  0  0  0
    1.7898   13.5712   38.3211 H   0  0  0  0  0  0  0  0  0  0  0  0
    0.3882   15.4400   41.8703 H   0  0  0  0  0  0  0  0  0  0  0  0
   -1.6518   18.3778   45.5688 H   0  0  0  0  0  0  0  0  0  0  0  0
   -0.8449   16.9975   44.6695 H   0  0  0  0  0  0  0  0  0  0  0  0
   -0.2522   17.4586   46.3554 H   0  0  0  0  0  0  0  0  0  0  0  0
    2.0468   21.4613   44.7171 H   0  0  0  0  0  0  0  0  0  0  0  0
    3.0530   21.8470   42.2746 H   0  0  0  0  0  0  0  0  0  0  0  0
    4.5102   20.7633   42.0240 H   0  0  0  0  0  0  0  0  0  0  0  0
  1  2  2  0
  1  6  1  0
  2  3  1  0
  3  4  2  0
  4  5  1  0
  5  6  2  0
  6  7  1  0
  7  8  2  0
  7  9  1  0
  8 16  1  0
  9 10  2  0
 10 11  1  0
 10 15  1  0
 11 12  1  0
 11 13  1  0
 13 14  2  0
 14 15  1  0
 15 16  2  0
 16 17  1  0
  1 18  1  0
  2 19  1  0
  3 20  1  0
  5 21  1  0
 12 22  1  0
 12 23  1  0
 12 24  1  0
 14 25  1  0
 17 26  1  0
 17 27  1  0
M  END
>  <mol_id>  (24) 
2026-09-18-6fnk-s0-n100-r8-0024

>  <rmsd_to_ref>  (24) 
1.5102040816382936

>  <pose_kind>  (24) 
conformer

$$$$
6fnk.A
     RDKit          3D

 27 29  0  0  0  0  0  0  0  0999 V2000
    1.7876   14.7422   41.4175 C   0  0  0  0  0  0  0  0  0  0  0  0
    1.7282   13.3486   41.4081 C   0  0  0  0  0  0  0  0  0  0  0  0
    1.2109   12.6698   42.5018 C   0  0  0  0  0  0  0  0  0  0  0  0
    0.7464   13.3834   43.6101 N   0  0  0  0  0  0  0  0  0  0  0  0
    0.8089   14.7851   43.6173 C   0  0  0  0  0  0  0  0  0  0  0  0
    1.3301   15.4680   42.5200 C   0  0  0  0  0  0  0  0  0  0  0  0
    1.3933   16.8651   42.5310 C   0  0  0  0  0  0  0  0  0  0  0  0
    2.0463   17.5344   41.5709 N   0  0  0  0  0  0  0  0  0  0  0  0
    0.7902   17.5506   43.5074 N   0  0  0  0  0  0  0  0  0  0  0  0
    0.8363   18.8939   43.5565 C   0  0  0  0  0  0  0  0  0  0  0  0
    0.3321   19.7802   44.4286 N   0  0  0  0  0  0  0  0  0  0  0  0
   -0.4552   19.4605   45.6231 C   0  0  0  0  0  0  0  0  0  0  0  0
    0.6120   20.9301   44.0874 N   0  0  0  0  0  0  0  0  0  0  0  0
    1.2992   20.8519   42.9359 C   0  0  0  0  0  0  0  0  0  0  0  0
    1.4713   19.5660   42.6015 C   0  0  0  0  0  0  0  0  0  0  0  0
    2.0820   18.8796   41.5969 C   0  0  0  0  0  0  0  0  0  0  0  0
    2.7412   19.5324   40.6091 N   0  0  0  0  0  0  0  0  0  0  0  0
    2.1991   15.2753   40.5477 H   0  0  0  0  0  0  0  0  0  0  0  0
    2.0913   12.7881   40.5340 H   0  0  0  0  0  0  0  0  0  0  0  0
    1.1663   11.5708   42.4967 H   0  0  0  0  0  0  0  0  0  0  0  0
    0.4457   15.3462   44.4910 H   0  0  0  0  0  0  0  0  0  0  0  0
   -0.0149   19.9621   46.4975 H   0  0  0  0  0  0  0  0  0  0  0  0
   -1.4899   19.8071   45.4840 H   0  0  0  0  0  0  0  0  0  0  0  0
   -0.4516   18.3723   45.7843 H   0  0  0  0  0  0  0  0  0  0  0  0
    1.6647   21.7122   42.3560 H   0  0  0  0  0  0  0  0  0  0  0  0
    2.7811   20.5616   40.6093 H   0  0  0  0  0  0  0  0  0  0  0  0
    3.2024   18.9993   39.8580 H   0  0  0  0  0  0  0  0  0  0  0  0
  1  2  2  0
  1  6  1  0
  2  3  1  0
  3  4  2  0
  4  5  1  0
  5  6  2  0
  6  7  1  0
  7  8  2  0
  7  9  1  0
  8 16  1  0
  9 10  2  0
 10 11  1  0
 10 15  1  0
 11 12  1  0
 11 13  1  0
 13 14  2  0
 14 15  1  0
 15 16  2  0
 16 17  1  0
  1 18  1  0
  2 19  1  0
  3 20  1  0
  5 21  1  0
 12 22  1  0
 12 23  1  0
 12 24  1  0
 14 25  1  0
 17 26  1  0
 17 27  1  0
M  END
>  <mol_id>  (25) 
2026-09-18-6fnk-s0-n100-r8-0025

>  <rmsd_to_ref>  (25) 
1.5561224489865728

>  <pose_kind>  (25) 
rigid

$$$$
6fnk.A
     RDKit          3D

 27 29  0  0  0  0  0  0  0  0999 V2000
    1.2232   16.6869   39.8087 C   0  0  0  0  0  0  0  0  0  0  0  0
    1.1871   15.4407   39.2019 C   0  0  0  0  0  0  0  0  0  0  0  0
    1.1804   14.2969   39.9833 C   0  0  0  0  0  0  0  0  0  0  0  0
    1.2081   14.3481   41.3353 N   0  0  0  0  0  0  0  0  0  0  0  0
    1.2439   15.5639   41.9511 C   0  0  0  0  0  0  0  0  0  0  0  0
    1.2516   16.7262   41.2062 C   0  0  0  0  0  0  0  0  0  0  0  0
    1.2901   18.0373   41.8675 C   0  0  0  0  0  0  0  0  0  0  0  0
    1.2985   19.1885   41.1645 N   0  0  0  0  0  0  0  0  0  0  0  0
    1.3175   18.0884   43.2062 N   0  0  0  0  0  0  0  0  0  0  0  0
    1.3531   19.2628   43.8616 C   0  0  0  0  0  0  0  0  0  0  0  0
    1.3849   19.5626   45.1798 N   0  0  0  0  0  0  0  0  0  0  0  0
    1.3861   18.5567   46.2281 C   0  0  0  0  0  0  0  0  0  0  0  0
    1.4128   20.8569   45.3244 N   0  0  0  0  0  0  0  0  0  0  0  0
    1.4009   21.4645   44.1266 C   0  0  0  0  0  0  0  0  0  0  0  0
    1.3629   20.4526   43.1919 C   0  0  0  0  0  0  0  0  0  0  0  0
    1.3344   20.3930   41.8025 C   0  0  0  0  0  0  0  0  0  0  0  0
    1.3432   21.6112   41.0577 N   0  0  0  0  0  0  0  0  0  0  0  0
    1.2296   17.6149   39.2200 H   0  0  0  0  0  0  0  0  0  0  0  0
    1.1645   15.3885   38.1121 H   0  0  0  0  0  0  0  0  0  0  0  0
    1.1525   13.3141   39.5387 H   0  0  0  0  0  0  0  0  0  0  0  0
    1.2668   15.6261   43.0496 H   0  0  0  0  0  0  0  0  0  0  0  0
    0.6241   18.7960   47.0107 H   0  0  0  0  0  0  0  0  0  0  0  0
    2.3868   18.5551   46.7105 H   0  0  0  0  0  0  0  0  0  0  0  0
    1.1660   17.5544   45.8283 H   0  0  0  0  0  0  0  0  0  0  0  0
    1.4170   22.5236   43.9017 H   0  0  0  0  0  0  0  0  0  0  0  0
    2.2800   21.9163   40.6985 H   0  0  0  0  0  0  0  0  0  0  0  0
    0.4665   22.1576   40.8863 H   0  0  0  0  0  0  0  0  0  0  0  0
  1  2  2  0
  1  6  1  0
  2  3  1  0
  3  4  2  0
  4  5  1  0
  5  6  2  0
  6  7  1  0
  7  8  2  0
  7  9  1  0
  8 16  1  0
  9 10  2  0
 10 11  1  0
 10 15  1  0
 11 12  1  0
 11 13  1  0
 13 14  2  0
 14 15  1  0
 15 16  2  0
 16 17  1  0
  1 18  1  0
  2 19  1  0
  3 20  1  0
  5 21  1  0
 12 22  1  0
 12 23  1  0
 12 24  1  0
 14 25  1  0
 17 26  1  0
 17 27  1  0
M  END
>  <mol_id>  (26) 
2026-09-18-6fnk-s0-n100-r8-0026

>  <rmsd_to_ref>  (26) 
1.60204081633007

>  <pose_kind>  (26) 
conformer

$$$$
6fnk.A
     RDKit          3D

 27 29  0  0  0  0  0  0  0  0999 V2000
    4.7928   17.0522   41.4984 C   0  0  0  0  0  0  0  0  0  0  0  0
    5.6907   16.0412   41.1555 C   0  0  0  0  0  0  0  0  0  0  0  0
    5.3222   14.7110   41.2944 C   0  0  0  0  0  0  0  0  0  0  0  0
    4.0506   14.3855   41.7743 N   0  0  0  0  0  0  0  0  0  0  0  0
    3.1502   15.4047   42.1199 C   0  0  0  0  0  0  0  0  0  0  0  0
    3.5198   16.7413   41.9825 C   0  0  0  0  0  0  0  0  0  0  0  0
    2.6210   17.7550   42.3301 C   0  0  0  0  0  0  0  0  0  0  0  0
    3.0094   19.0369   42.3744 N   0  0  0  0  0  0  0  0  0  0  0  0
    1.3519   17.4489   42.6175 N   0  0  0  0  0  0  0  0  0  0  0  0
    0.4609   18.3949   42.9643 C   0  0  0  0  0  0  0  0  0  0  0  0
   -0.8352   18.3286   43.3045 N   0  0  0  0  0  0  0  0  0  0  0  0
   -1.6455   17.1090   43.3759 C   0  0  0  0  0  0  0  0  0  0  0  0
   -1.2767   19.4524   43.5478 N   0  0  0  0  0  0  0  0  0  0  0  0
   -0.2797   20.3290   43.3435 C   0  0  0  0  0  0  0  0  0  0  0  0
    0.8347   19.6702   42.9987 C   0  0  0  0  0  0  0  0  0  0  0  0
    2.1223   19.9955   42.6994 C   0  0  0  0  0  0  0  0  0  0  0  0
    2.5385   21.2848   42.7280 N   0  0  0  0  0  0  0  0  0  0  0  0
    5.0903   18.1053   41.3865 H   0  0  0  0  0  0  0  0  0  0  0  0
    6.6902   16.2986   40.7751 H   0  0  0  0  0  0  0  0  0  0  0  0
    6.0305   13.9130   41.0271 H   0  0  0  0  0  0  0  0  0  0  0  0
    2.1504   15.1480   42.5001 H   0  0  0  0  0  0  0  0  0  0  0  0
   -2.1461   17.0581   44.3541 H   0  0  0  0  0  0  0  0  0  0  0  0
   -2.4018   17.1239   42.5773 H   0  0  0  0  0  0  0  0  0  0  0  0
   -0.9965   16.2298   43.2499 H   0  0  0  0  0  0  0  0  0  0  0  0
   -0.3651   21.4211   43.4439 H   0  0  0  0  0  0  0  0  0  0  0  0
    1.8764   22.0344   42.9741 H   0  0  0  0  0  0  0  0  0  0  0  0
    3.5170   21.5152   42.5035 H   0  0  0  0  0  0  0  0  0  0  0  0
  1  2  2  0
  1  6  1  0
  2  3  1  0
  3  4  2  0
  4  5  1  0
  5  6  2  0
  6  7  1  0
  7  8  2  0
  7  9  1  0
  8 16  1  0
  9 10  2  0
 10 11  1  0
 10 15  1  0
 11 12  1  0
 11 13  1  0
 13 14  2  0
 14 15  1  0
 15 16  2  0
 16 17  1  0
  1 18  1  0
  2 19  1  0
  3 20  1  0
  5 21  1  0
 12 22  1  0
 12 23  1  0
 12 24  1  0
 14 25  1  0
 17 26  1  0
 17 27  1  0
M  END
>  <mol_id>  (27) 
2026-09-18-6fnk-s0-n100-r8-0027

>  <rmsd_to_ref>  (27) 
1.647959183675036

>  <pose_kind>  (27) 
rigid

$$$$
6fnk.A
     RDKit          3D

 27 29  0  0  0  0  0  0  0  0999 V2000
    2.0803   15.1305   41.5741 C   0  0  0  0  0  0  0  0  0  0  0  0
    2.6609   14.2414   40.6894 C   0  0  0  0  0  0  0  0  0  0  0  0
    3.6204   14.7224   39.8213 C   0  0  0  0  0  0  0  0  0  0  0  0
    4.0119   15.9987   39.7959 N   0  0  0  0  0  0  0  0  0  0  0  0
    3.4643   16.8994   40.6491 C   0  0  0  0  0  0  0  0  0  0  0  0
    2.5014   16.4447   41.5289 C   0  0  0  0  0  0  0  0  0  0  0  0
    1.9029   17.4055   42.4543 C   0  0  0  0  0  0  0  0  0  0  0  0
    2.2875   18.6974   42.4410 N   0  0  0  0  0  0  0  0  0  0  0  0
    0.9582   17.0247   43.3372 N   0  0  0  0  0  0  0  0  0  0  0  0
    0.3906   17.8961   44.2027 C   0  0  0  0  0  0  0  0  0  0  0  0
   -0.5509   17.7423   45.1514 N   0  0  0  0  0  0  0  0  0  0  0  0
   -1.2618   16.5345   45.5353 C   0  0  0  0  0  0  0  0  0  0  0  0
   -0.7746   18.9165   45.7455 N   0  0  0  0  0  0  0  0  0  0  0  0
    0.0439   19.8379   45.1605 C   0  0  0  0  0  0  0  0  0  0  0  0
    0.7900   19.2176   44.1828 C   0  0  0  0  0  0  0  0  0  0  0  0
    1.7650   19.6283   43.2770 C   0  0  0  0  0  0  0  0  0  0  0  0
    2.1752   20.9894   43.2577 N   0  0  0  0  0  0  0  0  0  0  0  0
    1.3133   14.7940   42.2826 H   0  0  0  0  0  0  0  0  0  0  0  0
    2.3490   13.2065   40.7042 H   0  0  0  0  0  0  0  0  0  0  0  0
    4.1003   14.0499   39.1092 H   0  0  0  0  0  0  0  0  0  0  0  0
    3.8007   17.9264   40.6062 H   0  0  0  0  0  0  0  0  0  0  0  0
   -2.3559   16.5867   45.2829 H   0  0  0  0  0  0  0  0  0  0  0  0
   -1.1183   16.3943   46.6335 H   0  0  0  0  0  0  0  0  0  0  0  0
   -0.8259   15.6419   45.0447 H   0  0  0  0  0  0  0  0  0  0  0  0
    0.1149   20.9061   45.4108 H   0  0  0  0  0  0  0  0  0  0  0  0
    2.6010   21.3737   44.1378 H   0  0  0  0  0  0  0  0  0  0  0  0
    2.0764   21.6127   42.4300 H   0  0  0  0  0  0  0  0  0  0  0  0
  1  2  2  0
  1  6  1  0
  2  3  1  0
  3  4  2  0
  4  5  1  0
  5  6  2  0
  6  7  1  0
  7  8  2  0
  7  9  1  0
  8 16  1  0
  9 10  2  0
 10 11  1  0
 10 15  1  0
 11 12  1  0
 11 13  1  0
 13 14  2  0
 14 15  1  0
 15 16  2  0
 16 17  1  0
  1 18  1  0
  2 19  1  0
  3 20  1  0
  5 21  1  0
 12 22  1  0
 12 23  1  0
 12 24  1  0
 14 25  1  0
 17 26  1  0
 17 27  1  0
M  END
>  <mol_id>  (28) 
2026-09-18-6fnk-s0-n100-r8-0028

>  <rmsd_to_ref>  (28) 
1.69387755102298

>  <pose_kind>  (28) 
conformer

$$$$
6fnk.A
     RDKit          3D

 27 29  0  0  0  0  0  0  0  0999 V2000
    2.3978   17.6347   39.4196 C   0  0  0  0  0  0  0  0  0  0  0  0
    2.8286   16.8118   38.3788 C   0  0  0  0  0  0  0  0  0  0  0  0
    2.8925   15.4383   38.5627 C   0  0  0  0  0  0  0  0  0  0  0  0
    2.5216   14.8803   39.7892 N   0  0  0  0  0  0  0  0  0  0  0  0
    2.0902   15.7107   40.8348 C   0  0  0  0  0  0  0  0  0  0  0  0
    2.0273   17.0909   40.6519 C   0  0  0  0  0  0  0  0  0  0  0  0
    1.5991   17.9162   41.6966 C   0  0  0  0  0  0  0  0  0  0  0  0
    1.6959   19.2499   41.6071 N   0  0  0  0  0  0  0  0  0  0  0  0
    1.0783   17.3740   42.8020 N   0  0  0  0  0  0  0  0  0  0  0  0
    0.6637   18.1345   43.8309 C   0  0  0  0  0  0  0  0  0  0  0  0
    0.1337   17.8232   45.0236 N   0  0  0  0  0  0  0  0  0  0  0  0
   -0.1433   16.4705   45.5161 C   0  0  0  0  0  0  0  0  0  0  0  0
   -0.1073   18.8438   45.6696 N   0  0  0  0  0  0  0  0  0  0  0  0
    0.2302   19.8939   44.9031 C   0  0  0  0  0  0  0  0  0  0  0  0
    0.7448   19.4586   43.7453 C   0  0  0  0  0  0  0  0  0  0  0  0
    1.2652   20.0231   42.6210 C   0  0  0  0  0  0  0  0  0  0  0  0
    1.3660   21.3692   42.5013 N   0  0  0  0  0  0  0  0  0  0  0  0
    2.3493   18.7232   39.2684 H   0  0  0  0  0  0  0  0  0  0  0  0
    3.1174   17.2518   37.4129 H   0  0  0  0  0  0  0  0  0  0  0  0
    3.2349   14.7887   37.7436 H   0  0  0  0  0  0  0  0  0  0  0  0
    1.8009   15.2714   41.8009 H   0  0  0  0  0  0  0  0  0  0  0  0
    0.3101   16.3422   46.5100 H   0  0  0  0  0  0  0  0  0  0  0  0
   -1.2309   16.3218   45.5872 H   0  0  0  0  0  0  0  0  0  0  0  0
    0.2829   15.7326   44.8205 H   0  0  0  0  0  0  0  0  0  0  0  0
    0.1035   20.9501   45.1833 H   0  0  0  0  0  0  0  0  0  0  0  0
    1.0425   21.9798   43.2652 H   0  0  0  0  0  0  0  0  0  0  0  0
    1.7661   21.7817   41.6466 H   0  0  0  0  0  0  0  0  0  0  0  0
  1  2  2  0
  1  6  1  0
  2  3  1  0
  3  4  2  0
  4  5  1  0
  5  6  2  0
  6  7  1  0
  7  8  2  0
  7  9  1  0
  8 16  1  0
  9 10  2  0
 10 11  1  0
 10 15  1  0
 11 12  1  0
 11 13  1  0
 13 14  2  0
 14 15  1  0
 15 16  2  0
 16 17  1  0
  1 18  1  0
  2 19  1  0
  3 20  1  0
  5 21  1  0
 12 22  1  0
 12 23  1  0
 12 24  1  0
 14 25  1  0
 17 26  1  0
 17 27  1  0
M  END
>  <mol_id>  (29) 
2026-09-18-6fnk-s0-n100-r8-0029

>  <rmsd_to_ref>  (29) 
1.739795918373372

>  <pose_kind>  (29) 
rigid

$$$$
6fnk.A
     RDKit          3D

 27 29  0  0  0  0  0  0  0  0999 V2000
    3.5684   16.4551   42.9144 C   0  0  0  0  0  0  0  0  0  0  0  0
    4.4216   15.3575   42.9469 C   0  0  0  0  0  0  0  0  0  0  0  0
    3.8770   14.1180   43.2239 C   0  0  0  0  0  0  0  0  0  0  0  0
    2.5548   13.9420   43.4616 N   0  0  0  0  0  0  0  0  0  0  0  0
    1.7197   15.0150   43.4300 C   0  0  0  0  0  0  0  0  0  0  0  0
    2.2163   16.2766   43.1572 C   0  0  0  0  0  0  0  0  0  0  0  0
    1.3517   17.4532   43.1144 C   0  0  0  0  0  0  0  0  0  0  0  0
    1.8145   18.6905   42.8508 N   0  0  0  0  0  0  0  0  0  0  0  0
    0.0336   17.2745   43.3518 N   0  0  0  0  0  0  0  0  0  0  0  0
   -0.8231   18.3028   43.3305 C   0  0  0  0  0  0  0  0  0  0  0  0
   -2.1286   18.3619   43.5294 N   0  0  0  0  0  0  0  0  0  0  0  0
   -2.9968   17.2507   43.8382 C   0  0  0  0  0  0  0  0  0  0  0  0
   -2.5410   19.6111   43.4033 N   0  0  0  0  0  0  0  0  0  0  0  0
   -1.4612   20.3896   43.1119 C   0  0  0  0  0  0  0  0  0  0  0  0
   -0.3435   19.5625   43.0607 C   0  0  0  0  0  0  0  0  0  0  0  0
    1.0006   19.7530   42.8174 C   0  0  0  0  0  0  0  0  0  0  0  0
    1.4912   21.0569   42.5391 N   0  0  0  0  0  0  0  0  0  0  0  0
    3.9949   17.4264   42.6974 H   0  0  0  0  0  0  0  0  0  0  0  0
    5.4845   15.4523   42.7630 H   0  0  0  0  0  0  0  0  0  0  0  0
    4.5151   13.2300   43.2585 H   0  0  0  0  0  0  0  0  0  0  0  0
    0.6677   14.9308   43.6105 H   0  0  0  0  0  0  0  0  0  0  0  0
   -3.4345   17.4244   44.8355 H   0  0  0  0  0  0  0  0  0  0  0  0
   -3.8402   17.3325   43.0941 H   0  0  0  0  0  0  0  0  0  0  0  0
   -2.5049   16.2819   43.7789 H   0  0  0  0  0  0  0  0  0  0  0  0
   -1.4365   21.4461   42.9458 H   0  0  0  0  0  0  0  0  0  0  0  0
    1.8954   21.6479   43.2993 H   0  0  0  0  0  0  0  0  0  0  0  0
    1.4242   21.3888   41.5333 H   0  0  0  0  0  0  0  0  0  0  0  0
  1  2  2  0
  1  6  1  0
  2  3  1  0
  3  4  2  0
  4  5  1  0
  5  6  2  0
  6  7  1  0
  7  8  2  0
  7  9  1  0
  8 16  1  0
  9 10  2  0
 10 11  1  0
 10 15  1  0
 11 12  1  0
 11 13  1  0
 13 14  2  0
 14 15  1  0
 15 16  2  0
 16 17  1  0
  1 18  1  0
  2 19  1  0
  3 20  1  0
  5 21  1  0
 12 22  1  0
 12 23  1  0
 12 24  1  0
 14 25  1  0
 17 26  1  0
 17 27  1  0
M  END
>  <mol_id>  (30) 
2026-09-18-6fnk-s0-n100-r8-0030

>  <rmsd_to_ref>  (30) 
1.785714285714573

>  <pose_kind>  (30) 
conformer

$$$$
6fnk.A
     RDKit          3D

 27 29  0  0  0  0  0  0  0  0999 V2000
    1.1484   15.8659   40.1811 C   0  0  0  0  0  0  0  0  0  0  0  0
    0.8350   14.7553   39.3973 C   0  0  0  0  0  0  0  0  0  0  0  0
    0.1986   13.6624   39.9675 C   0  0  0  0  0  0  0  0  0  0  0  0
   -0.1311   13.6770   41.3256 N   0  0  0  0  0  0  0  0  0  0  0  0
    0.1869   14.7949   42.1117 C   0  0  0  0  0  0  0  0  0  0  0  0
    0.8279   15.8926   41.5405 C   0  0  0  0  0  0  0  0  0  0  0  0
    1.1456   17.0045   42.3271 C   0  0  0  0  0  0  0  0  0  0  0  0
    1.9131   17.9930   41.8476 N   0  0  0  0  0  0  0  0  0  0  0  0
    0.6749   17.0928   43.5752 N   0  0  0  0  0  0  0  0  0  0  0  0
    0.9660   18.1421   44.3646 C   0  0  0  0  0  0  0  0  0  0  0  0
    0.6296   18.4370   45.6296 N   0  0  0  0  0  0  0  0  0  0  0  0
   -0.2068   17.6175   46.5115 C   0  0  0  0  0  0  0  0  0  0  0  0
    1.1164   19.5172   45.9661 N   0  0  0  0  0  0  0  0  0  0  0  0
    1.7813   20.0062   44.9064 C   0  0  0  0  0  0  0  0  0  0  0  0
    1.7163   19.1327   43.8926 C   0  0  0  0  0  0  0  0  0  0  0  0
    2.1944   19.0586   42.6201 C   0  0  0  0  0  0  0  0  0  0  0  0
    2.9651   20.0486   42.1079 N   0  0  0  0  0  0  0  0  0  0  0  0
    1.6532   16.7296   39.7238 H   0  0  0  0  0  0  0  0  0  0  0  0
    1.0922   14.7461   38.3279 H   0  0  0  0  0  0  0  0  0  0  0  0
   -0.0464   12.7849   39.3511 H   0  0  0  0  0  0  0  0  0  0  0  0
   -0.0703   14.8049   43.1812 H   0  0  0  0  0  0  0  0  0  0  0  0
    0.3150   17.4568   47.4665 H   0  0  0  0  0  0  0  0  0  0  0  0
   -1.1601   18.1340   46.6970 H   0  0  0  0  0  0  0  0  0  0  0  0
   -0.4029   16.6466   46.0329 H   0  0  0  0  0  0  0  0  0  0  0  0
    2.2999   20.9758   44.8757 H   0  0  0  0  0  0  0  0  0  0  0  0
    3.1927   20.8732   42.6816 H   0  0  0  0  0  0  0  0  0  0  0  0
    3.3233   19.9764   41.1449 H   0  0  0  0  0  0  0  0  0  0  0  0
  1  2  2  0
  1  6  1  0
  2  3  1  0
  3  4  2  0
  4  5  1  0
  5  6  2  0
  6  7  1  0
  7  8  2  0
  7  9  1  0
  8 16  1  0
  9 10  2  0
 10 11  1  0
 10 15  1  0
 11 12  1  0
 11 13  1  0
 13 14  2  0
 14 15  1  0
 15 16  2  0
 16 17  1  0
  1 18  1  0
  2 19  1  0
  3 20  1  0
  5 21  1  0
 12 22  1  0
 12 23  1  0
 12 24  1  0
 14 25  1  0
 17 26  1  0
 17 27  1  0
M  END
>  <mol_id>  (31) 
2026-09-18-6fnk-s0-n100-r8-0031

>  <rmsd_to_ref>  (31) 
1.831632653067706

>  <pose_kind>  (31) 
rigid

$$$$
6fnk.A
     RDKit          3D

 27 29  0  0  0  0  0  0  0  0999 V2000
    3.3692   17.2254   40.8744 C   0  0  0  0  0  0  0  0  0  0  0  0
    4.4152   16.4525   40.3822 C   0  0  0  0  0  0  0  0  0  0  0  0
    5.2653   15.8530   41.2919 C   0  0  0  0  0  0  0  0  0  0  0  0
    5.1128   15.9935   42.6308 N   0  0  0  0  0  0  0  0  0  0  0  0
    4.0900   16.7493   43.1130 C   0  0  0  0  0  0  0  0  0  0  0  0
    3.2120   17.3699   42.2432 C   0  0  0  0  0  0  0  0  0  0  0  0
    2.1017   18.1894   42.7222 C   0  0  0  0  0  0  0  0  0  0  0  0
    1.2354   18.8024   41.8928 N   0  0  0  0  0  0  0  0  0  0  0  0
    1.9522   18.3276   44.0579 N   0  0  0  0  0  0  0  0  0  0  0  0
    0.9597   19.0621   44.5748 C   0  0  0  0  0  0  0  0  0  0  0  0
    0.6269   19.3319   45.8254 N   0  0  0  0  0  0  0  0  0  0  0  0
    1.3056   18.8633   47.0101 C   0  0  0  0  0  0  0  0  0  0  0  0
   -0.4409   20.1103   45.8427 N   0  0  0  0  0  0  0  0  0  0  0  0
   -0.8130   20.3532   44.5545 C   0  0  0  0  0  0  0  0  0  0  0  0
    0.0794   19.6847   43.7222 C   0  0  0  0  0  0  0  0  0  0  0  0
    0.2255   19.5485   42.3575 C   0  0  0  0  0  0  0  0  0  0  0  0
   -0.6869   20.1940   41.4806 N   0  0  0  0  0  0  0  0  0  0  0  0
    2.7029   17.6952   40.1619 H   0  0  0  0  0  0  0  0  0  0  0  0
    4.5744   16.3132   39.3202 H   0  0  0  0  0  0  0  0  0  0  0  0
    6.1001   15.2372   40.9444 H   0  0  0  0  0  0  0  0  0  0  0  0
    3.9250   16.8925   44.1611 H   0  0  0  0  0  0  0  0  0  0  0  0
    1.6996   19.7410   47.5494 H   0  0  0  0  0  0  0  0  0  0  0  0
    0.4884   18.4266   47.6529 H   0  0  0  0  0  0  0  0  0  0  0  0
    2.0865   18.1334   46.8068 H   0  0  0  0  0  0  0  0  0  0  0  0
   -1.6341   20.9438   44.2062 H   0  0  0  0  0  0  0  0  0  0  0  0
   -0.4601   21.1256   41.0668 H   0  0  0  0  0  0  0  0  0  0  0  0
   -1.5947   19.6842   41.2746 H   0  0  0  0  0  0  0  0  0  0  0  0
  1  2  2  0
  1  6  1  0
  2  3  1  0
  3  4  2  0
  4  5  1  0
  5  6  2  0
  6  7  1  0
  7  8  2  0
  7  9  1  0
  8 16  1  0
  9 10  2  0
 10 11  1  0
 10 15  1  0
 11 12  1  0
 11 13  1  0
 13 14  2  0
 14 15  1  0
 15 16  2  0
 16 17  1  0
  1 18  1  0
  2 19  1  0
  3 20  1  0
  5 21  1  0
 12 22  1  0
 12 23  1  0
 12 24  1  0
 14 25  1  0
 17 26  1  0
 17 27  1  0
M  END
>  <mol_id>  (32) 
2026-09-18-6fnk-s0-n100-r8-0032

>  <rmsd_to_ref>  (32) 
1.877551020411062

>  <pose_kind>  (32) 
conformer

$$$$
6fnk.A
     RDKit          3D

 27 29  0  0  0  0  0  0  0  0999 V2000
    3.1483   15.0838   42.8793 C   0  0  0  0  0  0  0  0  0  0  0  0
    3.2425   13.7169   43.1413 C   0  0  0  0  0  0  0  0  0  0  0  0
    2.3378   13.1125   44.0018 C   0  0  0  0  0  0  0  0  0  0  0  0
    1.3306   13.8731   44.6022 N   0  0  0  0  0  0  0  0  0  0  0  0
    1.2393   15.2481   44.3380 C   0  0  0  0  0  0  0  0  0  0  0  0
    2.1488   15.8568   43.4751 C   0  0  0  0  0  0  0  0  0  0  0  0
    2.0567   17.2280   43.2155 C   0  0  0  0  0  0  0  0  0  0  0  0
    3.0170   17.8677   42.5339 N   0  0  0  0  0  0  0  0  0  0  0  0
    0.9944   17.9165   43.6451 N   0  0  0  0  0  0  0  0  0  0  0  0
    0.8747   19.2375   43.4223 C   0  0  0  0  0  0  0  0  0  0  0  0
   -0.0719   20.1252   43.7630 N   0  0  0  0  0  0  0  0  0  0  0  0
   -1.2969   19.8326   44.5131 C   0  0  0  0  0  0  0  0  0  0  0  0
    0.2185   21.2480   43.3480 N   0  0  0  0  0  0  0  0  0  0  0  0
    1.3760   21.1410   42.6750 C   0  0  0  0  0  0  0  0  0  0  0  0
    1.8167   19.8773   42.7363 C   0  0  0  0  0  0  0  0  0  0  0  0
    2.8991   19.1853   42.2859 C   0  0  0  0  0  0  0  0  0  0  0  0
    3.8798   19.8063   41.5865 N   0  0  0  0  0  0  0  0  0  0  0  0
    3.8685   15.5580   42.1963 H   0  0  0  0  0  0  0  0  0  0  0  0
    4.0338   13.1187   42.6659 H   0  0  0  0  0  0  0  0  0  0  0  0
    2.4130   12.0353   44.2115 H   0  0  0  0  0  0  0  0  0  0  0  0
    0.4481   15.8469   44.8128 H   0  0  0  0  0  0  0  0  0  0  0  0
   -1.3812   20.5262   45.3626 H   0  0  0  0  0  0  0  0  0  0  0  0
   -2.1686   19.9534   43.8532 H   0  0  0  0  0  0  0  0  0  0  0  0
   -1.2601   18.7985   44.8863 H   0  0  0  0  0  0  0  0  0  0  0  0
    1.8845   21.9651   42.1531 H   0  0  0  0  0  0  0  0  0  0  0  0
    3.8099   20.8141   41.3855 H   0  0  0  0  0  0  0  0  0  0  0  0
    4.6950   19.2706   41.2561 H   0  0  0  0  0  0  0  0  0  0  0  0
  1  2  2  0
  1  6  1  0
  2  3  1  0
  3  4  2  0
  4  5  1  0
  5  6  2  0
  6  7  1  0
  7  8  2  0
  7  9  1  0
  8 16  1  0
  9 10  2  0
 10 11  1  0
 10 15  1  0
 11 12  1  0
 11 13  1  0
 13 14  2  0
 14 15  1  0
 15 16  2  0
 16 17  1  0
  1 18  1  0
  2 19  1  0
  3 20  1  0
  5 21  1  0
 12 22  1  0
 12 23  1  0
 12 24  1  0
 14 25  1  0
 17 26  1  0
 17 27  1  0
M  END
>  <mol_id>  (33) 
2026-09-18-6fnk-s0-n100-r8-0033

>  <rmsd_to_ref>  (33) 
1.9234693877596951

>  <pose_kind>  (33) 
rigid

$$$$
6fnk.A
     RDKit          3D

 27 29  0  0  0  0  0  0  0  0999 V2000
    0.4612   14.7908   40.8279 C   0  0  0  0  0  0  0  0  0  0  0  0
    0.3653   13.4128   40.7199 C   0  0  0  0  0  0  0  0  0  0  0  0
    0.4687   12.5851   41.8429 C   0  0  0  0  0  0  0  0  0  0  0  0
    0.6658   13.1597   43.0473 N   0  0  0  0  0  0  0  0  0  0  0  0
    0.7660   14.4891   43.2086 C   0  0  0  0  0  0  0  0  0  0  0  0
    0.6630   15.3084   42.0919 C   0  0  0  0  0  0  0  0  0  0  0  0
    0.7646   16.7681   42.2068 C   0  0  0  0  0  0  0  0  0  0  0  0
    0.6690   17.5855   41.1456 N   0  0  0  0  0  0  0  0  0  0  0  0
    0.9630   17.2928   43.4419 N   0  0  0  0  0  0  0  0  0  0  0  0
    1.0645   18.6381   43.6057 C   0  0  0  0  0  0  0  0  0  0  0  0
    1.2549   19.4458   44.6589 N   0  0  0  0  0  0  0  0  0  0  0  0
    1.4158   19.0222   46.0309 C   0  0  0  0  0  0  0  0  0  0  0  0
    1.2724   20.7092   44.2385 N   0  0  0  0  0  0  0  0  0  0  0  0
    1.0973   20.7766   42.9176 C   0  0  0  0  0  0  0  0  0  0  0  0
    0.9632   19.4497   42.5050 C   0  0  0  0  0  0  0  0  0  0  0  0
    0.7615   18.9208   41.2475 C   0  0  0  0  0  0  0  0  0  0  0  0
    0.6542   19.7493   40.0951 N   0  0  0  0  0  0  0  0  0  0  0  0
    0.3763   15.3989   39.9369 H   0  0  0  0  0  0  0  0  0  0  0  0
    0.2050   12.9675   39.7306 H   0  0  0  0  0  0  0  0  0  0  0  0
    0.3918   11.4978   41.7488 H   0  0  0  0  0  0  0  0  0  0  0  0
    0.9250   14.9127   44.1972 H   0  0  0  0  0  0  0  0  0  0  0  0
    0.6122   18.3479   46.3682 H   0  0  0  0  0  0  0  0  0  0  0  0
    2.4324   18.6104   46.2266 H   0  0  0  0  0  0  0  0  0  0  0  0
    1.3249   19.9181   46.7129 H   0  0  0  0  0  0  0  0  0  0  0  0
    1.0582   21.6392   42.2539 H   0  0  0  0  0  0  0  0  0  0  0  0
   -0.2852   20.0071   39.7137 H   0  0  0  0  0  0  0  0  0  0  0  0
    1.5545   20.0774   39.6625 H   0  0  0  0  0  0  0  0  0  0  0  0
  1  2  2  0
  1  6  1  0
  2  3  1  0
  3  4  2  0
  4  5  1  0
  5  6  2  0
  6  7  1  0
  7  8  2  0
  7  9  1  0
  8 16  1  0
  9 10  2  0
 10 11  1  0
 10 15  1  0
 11 12  1  0
 11 13  1  0
 13 14  2  0
 14 15  1  0
 15 16  2  0
 16 17  1  0
  1 18  1  0
  2 19  1  0
  3 20  1  0
  5 21  1  0
 12 22  1  0
 12 23  1  0
 12 24  1  0
 14 25  1  0
 17 26  1  0
 17 27  1  0
M  END
>  <mol_id>  (34) 
2026-09-18-6fnk-s0-n100-r8-0034

>  <rmsd_to_ref>  (34) 
1.9693877551084387

>  <pose_kind>  (34) 
conformer

$$$$
6fnk.A
     RDKit          3D

 27 29  0  0  0  0  0  0  0  0999 V2000
    3.0679   15.9026   42.2799 C   0  0  0  0  0  0  0  0  0  0  0  0
    4.1599   15.0636   42.5023 C   0  0  0  0  0  0  0  0  0  0  0  0
    4.5803   14.8027   43.7983 C   0  0  0  0  0  0  0  0  0  0  0  0
    3.9070   15.3778   44.8796 N   0  0  0  0  0  0  0  0  0  0  0  0
    2.8098   16.2225   44.6527 C   0  0  0  0  0  0  0  0  0  0  0  0
    2.3877   16.4869   43.3511 C   0  0  0  0  0  0  0  0  0  0  0  0
    1.2953   17.3312   43.1279 C   0  0  0  0  0  0  0  0  0  0  0  0
    0.9797   17.7398   41.8911 N   0  0  0  0  0  0  0  0  0  0  0  0
    0.5458   17.7359   44.1582 N   0  0  0  0  0  0  0  0  0  0  0  0
   -0.5070   18.5545   43.9842 C   0  0  0  0  0  0  0  0  0  0  0  0
   -1.3784   19.0958   44.8489 N   0  0  0  0  0  0  0  0  0  0  0  0
   -1.3865   18.8970   46.3013 C   0  0  0  0  0  0  0  0  0  0  0  0
   -2.2011   19.7937   44.2543 N   0  0  0  0  0  0  0  0  0  0  0  0
   -1.9216   19.7155   42.9429 C   0  0  0  0  0  0  0  0  0  0  0  0
   -0.8343   18.9545   42.7594 C   0  0  0  0  0  0  0  0  0  0  0  0
   -0.0841   18.5421   41.7009 C   0  0  0  0  0  0  0  0  0  0  0  0
   -0.3869   18.9333   40.4393 N   0  0  0  0  0  0  0  0  0  0  0  0
    2.7389   16.1063   41.2502 H   0  0  0  0  0  0  0  0  0  0  0  0
    4.6873   14.6092   41.6507 H   0  0  0  0  0  0  0  0  0  0  0  0
    5.4432   14.1436   43.9748 H   0  0  0  0  0  0  0  0  0  0  0  0
    2.2818   16.6771   45.5039 H   0  0  0  0  0  0  0  0  0  0  0  0
   -1.4097   19.8746   46.8050 H   0  0  0  0  0  0  0  0  0  0  0  0
   -2.2759   18.3161   46.5869 H   0  0  0  0  0  0  0  0  0  0  0  0
   -0.4800   18.3512   46.6017 H   0  0  0  0  0  0  0  0  0  0  0  0
   -2.4974   20.2020   42.1418 H   0  0  0  0  0  0  0  0  0  0  0  0
   -1.1966   19.5472   40.2709 H   0  0  0  0  0  0  0  0  0  0  0  0
    0.1927   18.6168   39.6488 H   0  0  0  0  0  0  0  0  0  0  0  0
  1  2  2  0
  1  6  1  0
  2  3  1  0
  3  4  2  0
  4  5  1  0
  5  6  2  0
  6  7  1  0
  7  8  2  0
  7  9  1  0
  8 16  1  0
  9 10  2  0
 10 11  1  0
 10 15  1  0
 11 12  1  0
 11 13  1  0
 13 14  2  0
 14 15  1  0
 15 16  2  0
 16 17  1  0
  1 18  1  0
  2 19  1  0
  3 20  1  0
  5 21  1  0
 12 22  1  0
 12 23  1  0
 12 24  1  0
 14 25  1  0
 17 26  1  0
 17 27  1  0
M  END
>  <mol_id>  (35) 
2026-09-18-6fnk-s0-n100-r8-0035

>  <rmsd_to_ref>  (35) 
2.015306122451479

>  <pose_kind>  (35) 
rigid

$$$$
6fnk.A
     RDKit          3D

 27 29  0  0  0  0  0  0  0  0999 V2000
    2.1946   17.1565   39.3112 C   0  0  0  0  0  0  0  0  0  0  0  0
    1.9798   16.2183   38.3217 C   0  0  0  0  0  0  0  0  0  0  0  0
    1.3195   15.0229   38.6015 C   0  0  0  0  0  0  0  0  0  0  0  0
    0.8934   14.7963   39.8537 N   0  0  0  0  0  0  0  0  0  0  0  0
    1.1055   15.7134   40.8124 C   0  0  0  0  0  0  0  0  0  0  0  0
    1.7521   16.9115   40.5923 C   0  0  0  0  0  0  0  0  0  0  0  0
    1.9581   17.8708   41.6584 C   0  0  0  0  0  0  0  0  0  0  0  0
    2.5819   19.0501   41.4922 N   0  0  0  0  0  0  0  0  0  0  0  0
    1.5042   17.5777   42.8908 N   0  0  0  0  0  0  0  0  0  0  0  0
    1.6450   18.3989   43.9448 C   0  0  0  0  0  0  0  0  0  0  0  0
    1.2699   18.2939   45.2329 N   0  0  0  0  0  0  0  0  0  0  0  0
    0.5676   17.1346   45.7511 C   0  0  0  0  0  0  0  0  0  0  0  0
    1.6525   19.3852   45.8547 N   0  0  0  0  0  0  0  0  0  0  0  0
    2.2826   20.2315   45.0082 C   0  0  0  0  0  0  0  0  0  0  0  0
    2.2811   19.6033   43.7785 C   0  0  0  0  0  0  0  0  0  0  0  0
    2.7541   19.9224   42.5217 C   0  0  0  0  0  0  0  0  0  0  0  0
    3.4158   21.1662   42.3310 N   0  0  0  0  0  0  0  0  0  0  0  0
    2.7069   18.0572   39.0415 H   0  0  0  0  0  0  0  0  0  0  0  0
    2.3014   16.3563   37.3117 H   0  0  0  0  0  0  0  0  0  0  0  0
    1.1328   14.2676   37.8600 H   0  0  0  0  0  0  0  0  0  0  0  0
    0.7623   15.5381   41.8350 H   0  0  0  0  0  0  0  0  0  0  0  0
    0.3017   17.2160   46.8029 H   0  0  0  0  0  0  0  0  0  0  0  0
   -0.2913   16.9459   45.0725 H   0  0  0  0  0  0  0  0  0  0  0  0
    1.2399   16.2648   45.6113 H   0  0  0  0  0  0  0  0  0  0  0  0
    2.7106   21.2043   45.2159 H   0  0  0  0  0  0  0  0  0  0  0  0
    4.2974   21.2047   41.7668 H   0  0  0  0  0  0  0  0  0  0  0  0
    3.0851   22.0711   42.7189 H   0  0  0  0  0  0  0  0  0  0  0  0
  1  2  2  0
  1  6  1  0
  2  3  1  0
  3  4  2  0
  4  5  1  0
  5  6  2  0
  6  7  1  0
  7  8  2  0
  7  9  1  0
  8 16  1  0
  9 10  2  0
 10 11  1  0
 10 15  1  0
 11 12  1  0
 11 13  1  0
 13 14  2  0
 14 15  1  0
 15 16  2  0
 16 17  1  0
  1 18  1  0
  2 19  1  0
  3 20  1  0
  5 21  1  0
 12 22  1  0
 12 23  1  0
 12 24  1  0
 14 25  1  0
 17 26  1  0
 17 27  1  0
M  END
>  <mol_id>  (36) 
2026-09-18-6fnk-s0-n100-r8-0036

>  <rmsd_to_ref>  (36) 
2.061224489801524

>  <pose_kind>  (36) 
conformer

$$$$
6fnk.A
     RDKit          3D

 27 29  0  0  0  0  0  0  0  0999 V2000
    3.5930   16.5212   42.9406 C   0  0  0  0  0  0  0  0  0  0  0  0
    4.2148   15.3899   43.4693 C   0  0  0  0  0  0  0  0  0  0  0  0
    3.6257   14.7033   44.5209 C   0  0  0  0  0  0  0  0  0  0  0  0
    2.4080   15.1437   45.0469 N   0  0  0  0  0  0  0  0  0  0  0  0
    1.7857   16.2829   44.5140 C   0  0  0  0  0  0  0  0  0  0  0  0
    2.3775   16.9745   43.4588 C   0  0  0  0  0  0  0  0  0  0  0  0
    1.7560   18.1110   42.9314 C   0  0  0  0  0  0  0  0  0  0  0  0
    2.3843   18.8912   42.0411 N   0  0  0  0  0  0  0  0  0  0  0  0
    0.5139   18.4268   43.3114 N   0  0  0  0  0  0  0  0  0  0  0  0
   -0.1131   19.5162   42.8329 C   0  0  0  0  0  0  0  0  0  0  0  0
   -1.3271   20.0342   43.0739 N   0  0  0  0  0  0  0  0  0  0  0  0
   -2.3337   19.4814   43.9849 C   0  0  0  0  0  0  0  0  0  0  0  0
   -1.5011   21.0563   42.4090 N   0  0  0  0  0  0  0  0  0  0  0  0
   -0.4003   21.2426   41.6623 C   0  0  0  0  0  0  0  0  0  0  0  0
    0.4983   20.2886   41.9402 C   0  0  0  0  0  0  0  0  0  0  0  0
    1.7601   19.9725   41.5386 C   0  0  0  0  0  0  0  0  0  0  0  0
    2.4144   20.7395   40.6330 N   0  0  0  0  0  0  0  0  0  0  0  0
    4.0647   17.0620   42.1069 H   0  0  0  0  0  0  0  0  0  0  0  0
    5.1717   15.0425   43.0525 H   0  0  0  0  0  0  0  0  0  0  0  0
    4.1166   13.8129   44.9405 H   0  0  0  0  0  0  0  0  0  0  0  0
    0.8286   16.6307   44.9301 H   0  0  0  0  0  0  0  0  0  0  0  0
   -2.6729   20.2666   44.6766 H   0  0  0  0  0  0  0  0  0  0  0  0
   -3.1904   19.1102   43.4032 H   0  0  0  0  0  0  0  0  0  0  0  0
   -1.8933   18.6526   44.5586 H   0  0  0  0  0  0  0  0  0  0  0  0
   -0.2583   22.0545   40.9338 H   0  0  0  0  0  0  0  0  0  0  0  0
    1.9555   21.5716   40.2355 H   0  0  0  0  0  0  0  0  0  0  0  0
    3.3705   20.4904   40.3420 H   0  0  0  0  0  0  0  0  0  0  0  0
  1  2  2  0
  1  6  1  0
  2  3  1  0
  3  4  2  0
  4  5  1  0
  5  6  2  0
  6  7  1  0
  7  8  2  0
  7  9  1  0
  8 16  1  0
  9 10  2  0
 10 11  1  0
 10 15  1  0
 11 12  1  0
 11 13  1  0
 13 14  2  0
 14 15  1  0
 15 16  2  0
 16 17  1  0
  1 18  1  0
  2 19  1  0
  3 20  1  0
  5 21  1  0
 12 22  1  0
 12 23  1  0
 12 24  1  0
 14 25  1  0
 17 26  1  0
 17 27  1  0
M  END
>  <mol_id>  (37) 
2026-09-18-6fnk-s0-n100-r8-0037

>  <rmsd_to_ref>  (37) 
2.107142857146027

>  <pose_kind>  (37) 
rigid

$$$$
6fnk.A
     RDKit          3D

 27 29  0  0  0  0  0  0  0  0999 V2000
    0.6377   16.7075   39.6905 C   0  0  0  0  0  0  0  0  0  0  0  0
    0.2144   15.5217   39.0785 C   0  0  0  0  0  0  0  0  0  0  0  0
   -0.1356   14.4587   39.9034 C   0  0  0  0  0  0  0  0  0  0  0  0
   -0.0575   14.6022   41.2299 N   0  0  0  0  0  0  0  0  0  0  0  0
    0.3421   15.7200   41.8316 C   0  0  0  0  0  0  0  0  0  0  0  0
    0.7037   16.8127   41.0714 C   0  0  0  0  0  0  0  0  0  0  0  0
    1.1509   18.0673   41.6860 C   0  0  0  0  0  0  0  0  0  0  0  0
    1.5034   19.1324   40.9428 N   0  0  0  0  0  0  0  0  0  0  0  0
    1.1988   18.1218   43.0369 N   0  0  0  0  0  0  0  0  0  0  0  0
    1.5993   19.2402   43.6702 C   0  0  0  0  0  0  0  0  0  0  0  0
    1.7339   19.5483   44.9730 N   0  0  0  0  0  0  0  0  0  0  0  0
    1.4476   18.6526   46.0707 C   0  0  0  0  0  0  0  0  0  0  0  0
    2.1616   20.7798   45.0520 N   0  0  0  0  0  0  0  0  0  0  0  0
    2.3172   21.3060   43.8219 C   0  0  0  0  0  0  0  0  0  0  0  0
    1.9580   20.3241   42.9117 C   0  0  0  0  0  0  0  0  0  0  0  0
    1.9135   20.2816   41.5246 C   0  0  0  0  0  0  0  0  0  0  0  0
    2.2922   21.4214   40.7972 N   0  0  0  0  0  0  0  0  0  0  0  0
    0.9020   17.5122   39.0346 H   0  0  0  0  0  0  0  0  0  0  0  0
    0.1619   15.4368   38.0022 H   0  0  0  0  0  0  0  0  0  0  0  0
   -0.4726   13.5105   39.4802 H   0  0  0  0  0  0  0  0  0  0  0  0
    0.3960   15.8093   42.9053 H   0  0  0  0  0  0  0  0  0  0  0  0
    2.2625   17.9415   46.2919 H   0  0  0  0  0  0  0  0  0  0  0  0
    1.1141   19.2318   46.9680 H   0  0  0  0  0  0  0  0  0  0  0  0
    0.5615   18.0160   45.8071 H   0  0  0  0  0  0  0  0  0  0  0  0
    2.6529   22.2913   43.5820 H   0  0  0  0  0  0  0  0  0  0  0  0
    3.1289   21.9513   41.1239 H   0  0  0  0  0  0  0  0  0  0  0  0
    1.7242   21.6907   39.9639 H   0  0  0  0  0  0  0  0  0  0  0  0
  1  2  2  0
  1  6  1  0
  2  3  1  0
  3  4  2  0
  4  5  1  0
  5  6  2  0
  6  7  1  0
  7  8  2  0
  7  9  1  0
  8 16  1  0
  9 10  2  0
 10 11  1  0
 10 15  1  0
 11 12  1  0
 11 13  1  0
 13 14  2  0
 14 15  1  0
 15 16  2  0
 16 17  1  0
  1 18  1  0
  2 19  1  0
  3 20  1  0
  5 21  1  0
 12 22  1  0
 12 23  1  0
 12 24  1  0
 14 25  1  0
 17 26  1  0
 17 27  1  0
M  END
>  <mol_id>  (38) 
2026-09-18-6fnk-s0-n100-r8-0038

>  <rmsd_to_ref>  (38) 
2.1530612244924567

>  <pose_kind>  (38) 
conformer

$$$$
6fnk.A
     RDKit          3D

 27 29  0  0  0  0  0  0  0  0999 V2000
    1.3402   14.1331   42.0874 C   0  0  0  0  0  0  0  0  0  0  0  0
    1.9728   12.9126   42.3244 C   0  0  0  0  0  0  0  0  0  0  0  0
    2.7506   12.7446   43.4607 C   0  0  0  0  0  0  0  0  0  0  0  0
    2.8965   13.7972   44.3685 N   0  0  0  0  0  0  0  0  0  0  0  0
    2.2603   15.0242   44.1266 C   0  0  0  0  0  0  0  0  0  0  0  0
    1.4801   15.1948   42.9845 C   0  0  0  0  0  0  0  0  0  0  0  0
    0.8491   16.4197   42.7449 C   0  0  0  0  0  0  0  0  0  0  0  0
    0.2417   16.6666   41.5761 N   0  0  0  0  0  0  0  0  0  0  0  0
    0.8420   17.3612   43.6939 N   0  0  0  0  0  0  0  0  0  0  0  0
    0.2532   18.5543   43.4973 C   0  0  0  0  0  0  0  0  0  0  0  0
    0.1339   19.6385   44.2788 N   0  0  0  0  0  0  0  0  0  0  0  0
    0.6562   19.7796   45.6412 C   0  0  0  0  0  0  0  0  0  0  0  0
   -0.4951   20.5237   43.6975 N   0  0  0  0  0  0  0  0  0  0  0  0
   -0.8523   20.0405   42.4962 C   0  0  0  0  0  0  0  0  0  0  0  0
   -0.3622   18.8028   42.3455 C   0  0  0  0  0  0  0  0  0  0  0  0
   -0.3695   17.8486   41.3744 C   0  0  0  0  0  0  0  0  0  0  0  0
   -0.9842   18.0694   40.1871 N   0  0  0  0  0  0  0  0  0  0  0  0
    0.7248   14.2609   41.1846 H   0  0  0  0  0  0  0  0  0  0  0  0
    1.8549   12.0839   41.6107 H   0  0  0  0  0  0  0  0  0  0  0  0
    3.2523   11.7836   43.6471 H   0  0  0  0  0  0  0  0  0  0  0  0
    2.3775   15.8533   44.8400 H   0  0  0  0  0  0  0  0  0  0  0  0
    1.2506   20.7024   45.7122 H   0  0  0  0  0  0  0  0  0  0  0  0
   -0.1818   19.8276   46.3521 H   0  0  0  0  0  0  0  0  0  0  0  0
    1.2918   18.9146   45.8816 H   0  0  0  0  0  0  0  0  0  0  0  0
   -1.4552   20.5789   41.7501 H   0  0  0  0  0  0  0  0  0  0  0  0
   -1.4581   18.9669   40.0115 H   0  0  0  0  0  0  0  0  0  0  0  0
   -0.9776   17.3396   39.4602 H   0  0  0  0  0  0  0  0  0  0  0  0
  1  2  2  0
  1  6  1  0
  2  3  1  0
  3  4  2  0
  4  5  1  0
  5  6  2  0
  6  7  1  0
  7  8  2  0
  7  9  1  0
  8 16  1  0
  9 10  2  0
 10 11  1  0
 10 15  1  0
 11 12  1  0
 11 13  1  0
 13 14  2  0
 14 15  1  0
 15 16  2  0
 16 17  1  0
  1 18  1  0
  2 19  1  0
  3 20  1  0
  5 21  1  0
 12 22  1  0
 12 23  1  0
 12 24  1  0
 14 25  1  0
 17 26  1  0
 17 27  1  0
M  END
>  <mol_id>  (39) 
2026-09-18-6fnk-s0-n100-r8-0039

>  <rmsd_to_ref>  (39) 
2.198979591837546

>  <pose_kind>  (39) 
rigid

$$$$
6fnk.A
     RDKit          3D

 27 29  0  0  0  0  0  0  0  0999 V2000
    2.5791   15.7561   40.7117 C   0  0  0  0  0  0  0  0  0  0  0  0
    3.0230   15.1252   39.5718 C   0  0  0  0  0  0  0  0  0  0  0  0
    3.4470   15.8385   38.4453 C   0  0  0  0  0  0  0  0  0  0  0  0
    3.4146   17.1940   38.4907 N   0  0  0  0  0  0  0  0  0  0  0  0
    2.9866   17.8462   39.5883 C   0  0  0  0  0  0  0  0  0  0  0  0
    2.5659   17.1441   40.7062 C   0  0  0  0  0  0  0  0  0  0  0  0
    2.1130   17.8958   41.8658 C   0  0  0  0  0  0  0  0  0  0  0  0
    2.1286   19.2428   41.7861 N   0  0  0  0  0  0  0  0  0  0  0  0
    1.6921   17.2723   42.9817 N   0  0  0  0  0  0  0  0  0  0  0  0
    1.2718   17.9643   44.0581 C   0  0  0  0  0  0  0  0  0  0  0  0
    0.8048   17.6488   45.2857 N   0  0  0  0  0  0  0  0  0  0  0  0
    0.6476   16.2891   45.7350 C   0  0  0  0  0  0  0  0  0  0  0  0
    0.5343   18.7788   45.9586 N   0  0  0  0  0  0  0  0  0  0  0  0
    0.8250   19.8342   45.1699 C   0  0  0  0  0  0  0  0  0  0  0  0
    1.2922   19.3516   43.9650 C   0  0  0  0  0  0  0  0  0  0  0  0
    1.7225   19.9965   42.8239 C   0  0  0  0  0  0  0  0  0  0  0  0
    1.7309   21.4004   42.7616 N   0  0  0  0  0  0  0  0  0  0  0  0
    2.2634   15.1895   41.5515 H   0  0  0  0  0  0  0  0  0  0  0  0
    3.0625   14.0494   39.4999 H   0  0  0  0  0  0  0  0  0  0  0  0
    3.7905   15.3156   37.5644 H   0  0  0  0  0  0  0  0  0  0  0  0
    2.9882   18.9306   39.5529 H   0  0  0  0  0  0  0  0  0  0  0  0
   -0.0002   15.6749   45.0805 H   0  0  0  0  0  0  0  0  0  0  0  0
    1.6364   15.7988   45.8158 H   0  0  0  0  0  0  0  0  0  0  0  0
    0.2445   16.3297   46.7752 H   0  0  0  0  0  0  0  0  0  0  0  0
    0.6878   20.8633   45.4980 H   0  0  0  0  0  0  0  0  0  0  0  0
    1.0213   21.9622   43.2461 H   0  0  0  0  0  0  0  0  0  0  0  0
    2.4771   21.8894   42.2087 H   0  0  0  0  0  0  0  0  0  0  0  0
  1  2  2  0
  1  6  1  0
  2  3  1  0
  3  4  2  0
  4  5  1  0
  5  6  2  0
  6  7  1  0
  7  8  2  0
  7  9  1  0
  8 16  1  0
  9 10  2  0
 10 11  1  0
 10 15  1  0
 11 12  1  0
 11 13  1  0
 13 14  2  0
 14 15  1  0
 15 16  2  0
 16 17  1  0
  1 18  1  0
  2 19  1  0
  3 20  1  0
  5 21  1  0
 12 22  1  0
 12 23  1  0
 12 24  1  0
 14 25  1  0
 17 26  1  0
 17 27  1  0
M  END
>  <mol_id>  (40) 
2026-09-18-6fnk-s0-n100-r8-0040

>  <rmsd_to_ref>  (40) 
2.2448979591904035

>  <pose_kind>  (40) 
conformer

$$$$
6fnk.A
     RDKit          3D

 27 29  0  0  0  0  0  0  0  0999 V2000
    3.8611   18.5885   40.6555 C   0  0  0  0  0  0  0  0  0  0  0  0
    4.6808   17.9364   39.7342 C   0  0  0  0  0  0  0  0  0  0  0  0
    4.3219   16.6869   39.2502 C   0  0  0  0  0  0  0  0  0  0  0  0
    3.1375   16.0845   39.6835 N   0  0  0  0  0  0  0  0  0  0  0  0
    2.3158   16.7421   40.6115 C   0  0  0  0  0  0  0  0  0  0  0  0
    2.6763   17.9966   41.0998 C   0  0  0  0  0  0  0  0  0  0  0  0
    1.8564   18.6486   42.0264 C   0  0  0  0  0  0  0  0  0  0  0  0
    2.2632   19.7679   42.6410 N   0  0  0  0  0  0  0  0  0  0  0  0
    0.6444   18.1574   42.3038 N   0  0  0  0  0  0  0  0  0  0  0  0
   -0.1687   18.7514   43.1953 C   0  0  0  0  0  0  0  0  0  0  0  0
   -1.3960   18.4411   43.6400 N   0  0  0  0  0  0  0  0  0  0  0  0
   -2.2004   17.2914   43.2159 C   0  0  0  0  0  0  0  0  0  0  0  0
   -1.7793   19.2705   44.4661 N   0  0  0  0  0  0  0  0  0  0  0  0
   -0.8157   20.1993   44.5804 C   0  0  0  0  0  0  0  0  0  0  0  0
    0.2221   19.8689   43.8001 C   0  0  0  0  0  0  0  0  0  0  0  0
    1.4506   20.3839   43.5195 C   0  0  0  0  0  0  0  0  0  0  0  0
    1.8826   21.5192   44.1202 N   0  0  0  0  0  0  0  0  0  0  0  0
    4.1507   19.5791   41.0361 H   0  0  0  0  0  0  0  0  0  0  0  0
    5.6113   18.4128   39.3916 H   0  0  0  0  0  0  0  0  0  0  0  0
    4.9690   16.1705   38.5260 H   0  0  0  0  0  0  0  0  0  0  0  0
    1.3850   16.2665   40.9542 H   0  0  0  0  0  0  0  0  0  0  0  0
   -2.5415   16.7357   44.1018 H   0  0  0  0  0  0  0  0  0  0  0  0
   -3.0726   17.6443   42.6461 H   0  0  0  0  0  0  0  0  0  0  0  0
   -1.5906   16.6313   42.5814 H   0  0  0  0  0  0  0  0  0  0  0  0
   -0.8703   21.0944   45.2173 H   0  0  0  0  0  0  0  0  0  0  0  0
    1.2770   22.0069   44.7958 H   0  0  0  0  0  0  0  0  0  0  0  0
    2.8164   21.8945   43.9012 H   0  0  0  0  0  0  0  0  0  0  0  0
  1  2  2  0
  1  6  1  0
  2  3  1  0
  3  4  2  0
  4  5  1  0
  5  6  2  0
  6  7  1  0
  7  8  2  0
  7  9  1  0
  8 16  1  0
  9 10  2  0
 10 11  1  0
 10 15  1  0
 11 12  1  0
 11 13  1  0
 13 14  2  0
 14 15  1  0
 15 16  2  0
 16 17  1  0
  1 18  1  0
  2 19  1  0
  3 20  1  0
  5 21  1  0
 12 22  1  0
 12 23  1  0
 12 24  1  0
 14 25  1  0
 17 26  1  0
 17 27  1  0
M  END
>  <mol_id>  (41) 
2026-09-18-6fnk-s0-n100-r8-0041

>  <rmsd_to_ref>  (41) 
2.2908163265350914

>  <pose_kind>  (41) 
rigid

$$$$
6fnk.A
     RDKit          3D

 27 29  0  0  0  0  0  0  0  0999 V2000
    3.1744   15.3146   44.4350 C   0  0  0  0  0  0  0  0  0  0  0  0
    3.9660   14.2762   44.8871 C   0  0  0  0  0  0  0  0  0  0  0  0
    4.7045   13.5960   43.9375 C   0  0  0  0  0  0  0  0  0  0  0  0
    4.6837   13.8961   42.6294 N   0  0  0  0  0  0  0  0  0  0  0  0
    3.9047   14.9167   42.1910 C   0  0  0  0  0  0  0  0  0  0  0  0
    3.1452   15.6319   43.0923 C   0  0  0  0  0  0  0  0  0  0  0  0
    2.3065   16.7298   42.6245 C   0  0  0  0  0  0  0  0  0  0  0  0
    2.2742   17.0435   41.3171 N   0  0  0  0  0  0  0  0  0  0  0  0
    1.5630   17.4316   43.4994 N   0  0  0  0  0  0  0  0  0  0  0  0
    0.7733   18.4523   43.1206 C   0  0  0  0  0  0  0  0  0  0  0  0
   -0.0480   19.2932   43.7756 N   0  0  0  0  0  0  0  0  0  0  0  0
   -0.3078   19.3068   45.1811 C   0  0  0  0  0  0  0  0  0  0  0  0
   -0.5628   20.0987   42.8626 N   0  0  0  0  0  0  0  0  0  0  0  0
   -0.1209   19.8311   41.6322 C   0  0  0  0  0  0  0  0  0  0  0  0
    0.7538   18.7587   41.7750 C   0  0  0  0  0  0  0  0  0  0  0  0
    1.5093   18.0551   40.8413 C   0  0  0  0  0  0  0  0  0  0  0  0
    1.4632   18.4002   39.4625 N   0  0  0  0  0  0  0  0  0  0  0  0
    2.5839   15.8674   45.1514 H   0  0  0  0  0  0  0  0  0  0  0  0
    4.0050   14.0081   45.9399 H   0  0  0  0  0  0  0  0  0  0  0  0
    5.3364   12.7713   44.2788 H   0  0  0  0  0  0  0  0  0  0  0  0
    3.9088   15.1327   41.1414 H   0  0  0  0  0  0  0  0  0  0  0  0
    0.5297   18.9353   45.7955 H   0  0  0  0  0  0  0  0  0  0  0  0
   -1.2569   18.7631   45.4612 H   0  0  0  0  0  0  0  0  0  0  0  0
   -0.5143   20.3787   45.4623 H   0  0  0  0  0  0  0  0  0  0  0  0
   -0.3739   20.3290   40.6992 H   0  0  0  0  0  0  0  0  0  0  0  0
    2.3959   18.4923   38.9842 H   0  0  0  0  0  0  0  0  0  0  0  0
    0.5608   18.5528   38.9555 H   0  0  0  0  0  0  0  0  0  0  0  0
  1  2  2  0
  1  6  1  0
  2  3  1  0
  3  4  2  0
  4  5  1  0
  5  6  2  0
  6  7  1  0
  7  8  2  0
  7  9  1  0
  8 16  1  0
  9 10  2  0
 10 11  1  0
 10 15  1  0
 11 12  1  0
 11 13  1  0
 13 14  2  0
 14 15  1  0
 15 16  2  0
 16 17  1  0
  1 18  1  0
  2 19  1  0
  3 20  1  0
  5 21  1  0
 12 22  1  0
 12 23  1  0
 12 24  1  0
 14 25  1  0
 17 26  1  0
 17 27  1  0
M  END
>  <mol_id>  (42) 
2026-09-18-6fnk-s0-n100-r8-0042

>  <rmsd_to_ref>  (42) 
2.336734693881472

>  <pose_kind>  (42) 
conformer

$$$$
6fnk.A
     RDKit          3D

 27 29  0  0  0  0  0  0  0  0999 V2000
    3.8517   15.0861   42.9591 C   0  0  0  0  0  0  0  0  0  0  0  0
    4.2152   13.9137   43.6220 C   0  0  0  0  0  0  0  0  0  0  0  0
    3.5831   13.5629   44.8059 C   0  0  0  0  0  0  0  0  0  0  0  0
    2.5803   14.3825   45.3312 N   0  0  0  0  0  0  0  0  0  0  0  0
    2.2179   15.5619   44.6630 C   0  0  0  0  0  0  0  0  0  0  0  0
    2.8535   15.9164   43.4745 C   0  0  0  0  0  0  0  0  0  0  0  0
    2.4918   17.0939   42.8120 C   0  0  0  0  0  0  0  0  0  0  0  0
    3.2023   17.5457   41.7694 N   0  0  0  0  0  0  0  0  0  0  0  0
    1.4183   17.7811   43.2151 N   0  0  0  0  0  0  0  0  0  0  0  0
    1.0445   18.9219   42.6088 C   0  0  0  0  0  0  0  0  0  0  0  0
    0.0352   19.7751   42.8406 N   0  0  0  0  0  0  0  0  0  0  0  0
   -0.9786   19.6445   43.8914 C   0  0  0  0  0  0  0  0  0  0  0  0
    0.0600   20.7043   42.0325 N   0  0  0  0  0  0  0  0  0  0  0  0
    1.0877   20.4829   41.1965 C   0  0  0  0  0  0  0  0  0  0  0  0
    1.7364   19.3705   41.5661 C   0  0  0  0  0  0  0  0  0  0  0  0
    2.8264   18.6747   41.1405 C   0  0  0  0  0  0  0  0  0  0  0  0
    3.5569   19.1049   40.0833 N   0  0  0  0  0  0  0  0  0  0  0  0
    4.3564   15.3596   42.0208 H   0  0  0  0  0  0  0  0  0  0  0  0
    5.0025   13.2679   43.2061 H   0  0  0  0  0  0  0  0  0  0  0  0
    3.8710   12.6402   45.3310 H   0  0  0  0  0  0  0  0  0  0  0  0
    1.4304   16.2081   45.0782 H   0  0  0  0  0  0  0  0  0  0  0  0
   -1.0316   20.5797   44.4680 H   0  0  0  0  0  0  0  0  0  0  0  0
   -1.9575   19.4403   43.4331 H   0  0  0  0  0  0  0  0  0  0  0  0
   -0.7074   18.8154   44.5615 H   0  0  0  0  0  0  0  0  0  0  0  0
    1.3558   21.1180   40.3393 H   0  0  0  0  0  0  0  0  0  0  0  0
    3.2871   19.9664   39.5874 H   0  0  0  0  0  0  0  0  0  0  0  0
    4.3817   18.5703   39.7755 H   0  0  0  0  0  0  0  0  0  0  0  0
  1  2  2  0
  1  6  1  0
  2  3  1  0
  3  4  2  0
  4  5  1  0
  5  6  2  0
  6  7  1  0
  7  8  2  0
  7  9  1  0
  8 16  1  0
  9 10  2  0
 10 11  1  0
 10 15  1  0
 11 12  1  0
 11 13  1  0
 13 14  2  0
 14 15  1  0
 15 16  2  0
 16 17  1  0
  1 18  1  0
  2 19  1  0
  3 20  1  0
  5 21  1  0
 12 22  1  0
 12 23  1  0
 12 24  1  0
 14 25  1  0
 17 26  1  0
 17 27  1  0
M  END
>  <mol_id>  (43) 
2026-09-18-6fnk-s0-n100-r8-0043

>  <rmsd_to_ref>  (43) 
2.382653061226383

>  <pose_kind>  (43) 
rigid

$$$$
6fnk.A
     RDKit          3D

 27 29  0  0  0  0  0  0  0  0999 V2000
    2.2533   15.3171   41.9918 C   0  0  0  0  0  0  0  0  0  0  0  0
    2.1496   13.9970   42.3982 C   0  0  0  0  0  0  0  0  0  0  0  0
    1.1541   13.6582   43.3007 C   0  0  0  0  0  0  0  0  0  0  0  0
    0.3108   14.6084   43.7644 N   0  0  0  0  0  0  0  0  0  0  0  0
    0.3987   15.8950   43.3792 C   0  0  0  0  0  0  0  0  0  0  0  0
    1.3780   16.2662   42.4821 C   0  0  0  0  0  0  0  0  0  0  0  0
    1.5127   17.6485   42.0351 C   0  0  0  0  0  0  0  0  0  0  0  0
    2.4577   18.0400   41.1613 N   0  0  0  0  0  0  0  0  0  0  0  0
    0.6780   18.6000   42.4915 N   0  0  0  0  0  0  0  0  0  0  0  0
    0.7288   19.8888   42.1363 C   0  0  0  0  0  0  0  0  0  0  0  0
    0.0412   21.0108   42.4300 N   0  0  0  0  0  0  0  0  0  0  0  0
   -1.0824   21.0848   43.3378 C   0  0  0  0  0  0  0  0  0  0  0  0
    0.5404   22.0332   41.7701 N   0  0  0  0  0  0  0  0  0  0  0  0
    1.5657   21.6020   41.0302 C   0  0  0  0  0  0  0  0  0  0  0  0
    1.7210   20.2478   41.2314 C   0  0  0  0  0  0  0  0  0  0  0  0
    2.6057   19.2916   40.7350 C   0  0  0  0  0  0  0  0  0  0  0  0
    3.6180   19.6718   39.8084 N   0  0  0  0  0  0  0  0  0  0  0  0
    3.0404   15.5791   41.2796 H   0  0  0  0  0  0  0  0  0  0  0  0
    2.8162   13.2162   42.0387 H   0  0  0  0  0  0  0  0  0  0  0  0
    1.0103   12.6476   43.6648 H   0  0  0  0  0  0  0  0  0  0  0  0
   -0.2967   16.6373   43.7716 H   0  0  0  0  0  0  0  0  0  0  0  0
   -1.3192   22.1391   43.5826 H   0  0  0  0  0  0  0  0  0  0  0  0
   -0.8777   20.5567   44.2974 H   0  0  0  0  0  0  0  0  0  0  0  0
   -1.9670   20.6669   42.8136 H   0  0  0  0  0  0  0  0  0  0  0  0
    2.1663   22.2072   40.3881 H   0  0  0  0  0  0  0  0  0  0  0  0
    4.5756   19.9784   40.0919 H   0  0  0  0  0  0  0  0  0  0  0  0
    3.3770   19.6379   38.7885 H   0  0  0  0  0  0  0  0  0  0  0  0
  1  2  2  0
  1  6  1  0
  2  3  1  0
  3  4  2  0
  4  5  1  0
  5  6  2  0
  6  7  1  0
  7  8  2  0
  7  9  1  0
  8 16  1  0
  9 10  2  0
 10 11  1  0
 10 15  1  0
 11 12  1  0
 11 13  1  0
 13 14  2  0
 14 15  1  0
 15 16  2  0
 16 17  1  0
  1 18  1  0
  2 19  1  0
  3 20  1  0
  5 21  1  0
 12 22  1  0
 12 23  1  0
 12 24  1  0
 14 25  1  0
 17 26  1  0
 17 27  1  0
M  END
>  <mol_id>  (44) 
2026-09-18-6fnk-s0-n100-r8-0044

>  <rmsd_to_ref>  (44) 
2.4285714285760616

>  <pose_kind>  (44) 
conformer

$$$$
6fnk.A
     RDKit          3D

 27 29  0  0  0  0  0  0  0  0999 V2000
    3.5667   17.2658   41.6862 C   0  0  0  0  0  0  0  0  0  0  0  0
    4.7106   16.5318   41.3724 C   0  0  0  0  0  0  0  0  0  0  0  0
    4.6246   15.1593   41.1898 C   0  0  0  0  0  0  0  0  0  0  0  0
    3.3913   14.5143   41.3168 N   0  0  0  0  0  0  0  0  0  0  0  0
    2.2426   15.2551   41.6340 C   0  0  0  0  0  0  0  0  0  0  0  0
    2.3281   16.6337   41.8195 C   0  0  0  0  0  0  0  0  0  0  0  0
    1.1818   17.3690   42.1380 C   0  0  0  0  0  0  0  0  0  0  0  0
    1.2652   18.6589   42.4922 N   0  0  0  0  0  0  0  0  0  0  0  0
   -0.0195   16.7851   42.0842 N   0  0  0  0  0  0  0  0  0  0  0  0
   -1.1432   17.4571   42.3916 C   0  0  0  0  0  0  0  0  0  0  0  0
   -2.4323   17.0868   42.4252 N   0  0  0  0  0  0  0  0  0  0  0  0
   -2.9546   15.7558   42.1015 C   0  0  0  0  0  0  0  0  0  0  0  0
   -3.1456   18.0327   42.7623 N   0  0  0  0  0  0  0  0  0  0  0  0
   -2.3453   19.0971   42.9380 C   0  0  0  0  0  0  0  0  0  0  0  0
   -1.0705   18.7401   42.7320 C   0  0  0  0  0  0  0  0  0  0  0  0
    0.1463   19.3485   42.7818 C   0  0  0  0  0  0  0  0  0  0  0  0
    0.2576   20.6539   43.1283 N   0  0  0  0  0  0  0  0  0  0  0  0
    3.6406   18.3539   41.8301 H   0  0  0  0  0  0  0  0  0  0  0  0
    5.6803   17.0409   41.2698 H   0  0  0  0  0  0  0  0  0  0  0  0
    5.5265   14.5790   40.9453 H   0  0  0  0  0  0  0  0  0  0  0  0
    1.2726   14.7466   41.7365 H   0  0  0  0  0  0  0  0  0  0  0  0
   -3.5962   15.4040   42.9229 H   0  0  0  0  0  0  0  0  0  0  0  0
   -3.5428   15.8084   41.1735 H   0  0  0  0  0  0  0  0  0  0  0  0
   -2.1167   15.0563   41.9654 H   0  0  0  0  0  0  0  0  0  0  0  0
   -2.6848   20.1075   43.2097 H   0  0  0  0  0  0  0  0  0  0  0  0
   -0.5857   21.2005   43.3539 H   0  0  0  0  0  0  0  0  0  0  0  0
    1.1855   21.0994   43.1660 H   0  0  0  0  0  0  0  0  0  0  0  0
  1  2  2  0
  1  6  1  0
  2  3  1  0
  3  4  2  0
  4  5  1  0
  5  6  2  0
  6  7  1  0
  7  8  2  0
  7  9  1  0
  8 16  1  0
  9 10  2  0
 10 11  1  0
 10 15  1  0
 11 12  1  0
 11 13  1  0
 13 14  2  0
 14 15  1  0
 15 16  2  0
 16 17  1  0
  1 18  1  0
  2 19  1  0
  3 20  1  0
  5 21  1  0
 12 22  1  0
 12 23  1  0
 12 24  1  0
 14 25  1  0
 17 26  1  0
 17 27  1  0
M  END
>  <mol_id>  (45) 
2026-09-18-6fnk-s0-n100-r8-0045

>  <rmsd_to_ref>  (45) 
2.4744897959207077

>  <pose_kind>  (45) 
rigid

$$$$
6fnk.A
     RDKit          3D

 27 29  0  0  0  0  0  0  0  0999 V2000
    0.7393   15.8597   41.2927 C   0  0  0  0  0  0  0  0  0  0  0  0
    0.4064   14.7157   40.6130 C   0  0  0  0  0  0  0  0  0  0  0  0
    0.2319   14.8209   39.2479 C   0  0  0  0  0  0  0  0  0  0  0  0
    0.3903   16.0120   38.6448 N   0  0  0  0  0  0  0  0  0  0  0  0
    0.7207   17.1432   39.3254 C   0  0  0  0  0  0  0  0  0  0  0  0
    0.9009   17.0804   40.6697 C   0  0  0  0  0  0  0  0  0  0  0  0
    1.2557   18.2507   41.4641 C   0  0  0  0  0  0  0  0  0  0  0  0
    1.4231   19.4522   40.9094 N   0  0  0  0  0  0  0  0  0  0  0  0
    1.4253   18.1481   42.7915 N   0  0  0  0  0  0  0  0  0  0  0  0
    1.7522   19.1739   43.5984 C   0  0  0  0  0  0  0  0  0  0  0  0
    1.9631   19.2723   44.9252 N   0  0  0  0  0  0  0  0  0  0  0  0
    1.8499   18.1081   45.8038 C   0  0  0  0  0  0  0  0  0  0  0  0
    2.2604   20.5141   45.2167 N   0  0  0  0  0  0  0  0  0  0  0  0
    2.2490   21.2536   44.0795 C   0  0  0  0  0  0  0  0  0  0  0  0
    1.9288   20.4231   43.0393 C   0  0  0  0  0  0  0  0  0  0  0  0
    1.7549   20.5316   41.6736 C   0  0  0  0  0  0  0  0  0  0  0  0
    1.9396   21.8253   41.1078 N   0  0  0  0  0  0  0  0  0  0  0  0
    0.8827   15.8064   42.3669 H   0  0  0  0  0  0  0  0  0  0  0  0
    0.2957   13.7923   41.1642 H   0  0  0  0  0  0  0  0  0  0  0  0
   -0.0304   13.9132   38.7215 H   0  0  0  0  0  0  0  0  0  0  0  0
    0.8288   18.0524   38.7764 H   0  0  0  0  0  0  0  0  0  0  0  0
    2.1802   17.2032   45.2576 H   0  0  0  0  0  0  0  0  0  0  0  0
    0.7750   17.9549   46.0389 H   0  0  0  0  0  0  0  0  0  0  0  0
    2.4546   18.2510   46.7119 H   0  0  0  0  0  0  0  0  0  0  0  0
    2.4531   22.3095   43.9883 H   0  0  0  0  0  0  0  0  0  0  0  0
    1.1544   22.4878   40.9138 H   0  0  0  0  0  0  0  0  0  0  0  0
    2.9450   22.0820   40.8902 H   0  0  0  0  0  0  0  0  0  0  0  0
  1  2  2  0
  1  6  1  0
  2  3  1  0
  3  4  2  0
  4  5  1  0
  5  6  2  0
  6  7  1  0
  7  8  2  0
  7  9  1  0
  8 16  1  0
  9 10  2  0
 10 11  1  0
 10 15  1  0
 11 12  1  0
 11 13  1  0
 13 14  2  0
 14 15  1  0
 15 16  2  0
 16 17  1  0
  1 18  1  0
  2 19  1  0
  3 20  1  0
  5 21  1  0
 12 22  1  0
 12 23  1  0
 12 24  1  0
 14 25  1  0
 17 26  1  0
 17 27  1  0
M  END
>  <mol_id>  (46) 
2026-09-18-6fnk-s0-n100-r8-0046

>  <rmsd_to_ref>  (46) 
2.520408163265351

>  <pose_kind>  (46) 
conformer

$$$$
6fnk.A
     RDKit          3D

 27 29  0  0  0  0  0  0  0  0999 V2000
    3.7378   17.7694   42.2710 C   0  0  0  0  0  0  0  0  0  0  0  0
    5.0644   17.3538   42.3868 C   0  0  0  0  0  0  0  0  0  0  0  0
    5.5402   16.8860   43.6030 C   0  0  0  0  0  0  0  0  0  0  0  0
    4.6888   16.8281   44.7098 N   0  0  0  0  0  0  0  0  0  0  0  0
    3.3553   17.2482   44.5907 C   0  0  0  0  0  0  0  0  0  0  0  0
    2.8767   17.7201   43.3699 C   0  0  0  0  0  0  0  0  0  0  0  0
    1.5477   18.1404   43.2548 C   0  0  0  0  0  0  0  0  0  0  0  0
    1.1124   18.7587   42.1483 N   0  0  0  0  0  0  0  0  0  0  0  0
    0.6911   17.9198   44.2570 N   0  0  0  0  0  0  0  0  0  0  0  0
   -0.5920   18.3170   44.1866 C   0  0  0  0  0  0  0  0  0  0  0  0
   -1.6118   18.2229   45.0534 N   0  0  0  0  0  0  0  0  0  0  0  0
   -1.5575   17.6090   46.3835 C   0  0  0  0  0  0  0  0  0  0  0  0
   -2.6320   18.7220   44.5769 N   0  0  0  0  0  0  0  0  0  0  0  0
   -2.3314   19.1465   43.3385 C   0  0  0  0  0  0  0  0  0  0  0  0
   -1.0350   18.9199   43.0878 C   0  0  0  0  0  0  0  0  0  0  0  0
   -0.1744   19.1423   42.0567 C   0  0  0  0  0  0  0  0  0  0  0  0
   -0.5912   19.7573   40.9233 N   0  0  0  0  0  0  0  0  0  0  0  0
    3.3659   18.1397   41.3043 H   0  0  0  0  0  0  0  0  0  0  0  0
    5.7328   17.3971   41.5142 H   0  0  0  0  0  0  0  0  0  0  0  0
    6.5869   16.5609   43.6962 H   0  0  0  0  0  0  0  0  0  0  0  0
    2.6862   17.2050   45.4628 H   0  0  0  0  0  0  0  0  0  0  0  0
   -1.9548   18.3136   47.1290 H   0  0  0  0  0  0  0  0  0  0  0  0
   -2.1625   16.6903   46.3883 H   0  0  0  0  0  0  0  0  0  0  0  0
   -0.5145   17.3625   46.6313 H   0  0  0  0  0  0  0  0  0  0  0  0
   -3.0413   19.6095   42.6372 H   0  0  0  0  0  0  0  0  0  0  0  0
   -1.5717   20.0592   40.8319 H   0  0  0  0  0  0  0  0  0  0  0  0
    0.0726   19.9229   40.1533 H   0  0  0  0  0  0  0  0  0  0  0  0
  1  2  2  0
  1  6  1  0
  2  3  1  0
  3  4  2  0
  4  5  1  0
  5  6  2  0
  6  7  1  0
  7  8  2  0
  7  9  1  0
  8 16  1  0
  9 10  2  0
 10 11  1  0
 10 15  1  0
 11 12  1  0
 11 13  1  0
 13 14  2  0
 14 15  1  0
 15 16  2  0
 16 17  1  0
  1 18  1  0
  2 19  1  0
  3 20  1  0
  5 21  1  0
 12 22  1  0
 12 23  1  0
 12 24  1  0
 14 25  1  0
 17 26  1  0
 17 27  1  0
M  END
>  <mol_id>  (47) 
2026-09-18-6fnk-s0-n100-r8-0047

>  <rmsd_to_ref>  (47) 
2.5663265306182943

>  <pose_kind>  (47) 
rigid

$$$$
6fnk.A
     RDKit          3D

 27 29  0  0  0  0  0  0  0  0999 V2000
    3.5521   15.8631   43.2203 C   0  0  0  0  0  0  0  0  0  0  0  0
    4.8435   15.4854   42.9090 C   0  0  0  0  0  0  0  0  0  0  0  0
    5.4753   16.0991   41.8242 C   0  0  0  0  0  0  0  0  0  0  0  0
    4.8542   17.0421   41.0849 N   0  0  0  0  0  0  0  0  0  0  0  0
    3.5867   17.4056   41.3990 C   0  0  0  0  0  0  0  0  0  0  0  0
    2.9052   16.8301   42.4680 C   0  0  0  0  0  0  0  0  0  0  0  0
    1.5415   17.2600   42.7606 C   0  0  0  0  0  0  0  0  0  0  0  0
    1.0121   18.2063   41.9641 N   0  0  0  0  0  0  0  0  0  0  0  0
    0.8924   16.7017   43.7909 N   0  0  0  0  0  0  0  0  0  0  0  0
   -0.3813   17.1118   44.0541 C   0  0  0  0  0  0  0  0  0  0  0  0
   -1.2923   16.7567   44.9995 N   0  0  0  0  0  0  0  0  0  0  0  0
   -1.1052   15.7601   46.0543 C   0  0  0  0  0  0  0  0  0  0  0  0
   -2.4009   17.4581   44.8265 N   0  0  0  0  0  0  0  0  0  0  0  0
   -2.2381   18.2819   43.7696 C   0  0  0  0  0  0  0  0  0  0  0  0
   -0.9698   18.0827   43.2633 C   0  0  0  0  0  0  0  0  0  0  0  0
   -0.2439   18.6103   42.2242 C   0  0  0  0  0  0  0  0  0  0  0  0
   -0.8446   19.6134   41.4029 N   0  0  0  0  0  0  0  0  0  0  0  0
    3.0281   15.3991   44.0674 H   0  0  0  0  0  0  0  0  0  0  0  0
    5.3520   14.7217   43.5044 H   0  0  0  0  0  0  0  0  0  0  0  0
    6.4852   15.7601   41.6316 H   0  0  0  0  0  0  0  0  0  0  0  0
    3.1025   18.1771   40.7803 H   0  0  0  0  0  0  0  0  0  0  0  0
   -1.3726   16.1958   47.0537 H   0  0  0  0  0  0  0  0  0  0  0  0
   -1.6729   14.8460   45.8605 H   0  0  0  0  0  0  0  0  0  0  0  0
   -0.0220   15.4738   46.0559 H   0  0  0  0  0  0  0  0  0  0  0  0
   -2.9384   18.9977   43.3418 H   0  0  0  0  0  0  0  0  0  0  0  0
   -0.9693   19.4922   40.3634 H   0  0  0  0  0  0  0  0  0  0  0  0
   -1.1595   20.4925   41.9045 H   0  0  0  0  0  0  0  0  0  0  0  0
  1  2  2  0
  1  6  1  0
  2  3  1  0
  3  4  2  0
  4  5  1  0
  5  6  2  0
  6  7  1  0
  7  8  2  0
  7  9  1  0
  8 16  1  0
  9 10  2  0
 10 11  1  0
 10 15  1  0
 11 12  1  0
 11 13  1  0
 13 14  2  0
 14 15  1  0
 15 16  2  0
 16 17  1  0
  1 18  1  0
  2 19  1  0
  3 20  1  0
  5 21  1  0
 12 22  1  0
 12 23  1  0
 12 24  1  0
 14 25  1  0
 17 26  1  0
 17 27  1  0
M  END
>  <mol_id>  (48) 
2026-09-18-6fnk-s0-n100-r8-0048

>  <rmsd_to_ref>  (48) 
2.6122448979611774

>  <pose_kind>  (48) 
conformer

$$$$
6fnk.A
     RDKit          3D

 27 29  0  0  0  0  0  0  0  0999 V2000
   -0.4282   15.4027   41.2128 C   0  0  0  0  0  0  0  0  0  0  0  0
    0.1773   14.2354   40.7473 C   0  0  0  0  0  0  0  0  0  0  0  0
    1.5247   14.0103   40.9885 C   0  0  0  0  0  0  0  0  0  0  0  0
    2.2730   14.9515   41.7010 N   0  0  0  0  0  0  0  0  0  0  0  0
    1.6615   16.1254   42.1666 C   0  0  0  0  0  0  0  0  0  0  0  0
    0.3083   16.3535   41.9233 C   0  0  0  0  0  0  0  0  0  0  0  0
   -0.2979   17.5257   42.3866 C   0  0  0  0  0  0  0  0  0  0  0  0
   -1.5447   17.8505   42.0179 N   0  0  0  0  0  0  0  0  0  0  0  0
    0.3680   18.3362   43.2154 N   0  0  0  0  0  0  0  0  0  0  0  0
   -0.1784   19.4760   43.6750 C   0  0  0  0  0  0  0  0  0  0  0  0
    0.2918   20.4362   44.4856 N   0  0  0  0  0  0  0  0  0  0  0  0
    1.6166   20.4612   45.1127 C   0  0  0  0  0  0  0  0  0  0  0  0
   -0.5545   21.3157   44.6508 N   0  0  0  0  0  0  0  0  0  0  0  0
   -1.6524   20.9506   43.9686 C   0  0  0  0  0  0  0  0  0  0  0  0
   -1.4191   19.7994   43.3240 C   0  0  0  0  0  0  0  0  0  0  0  0
   -2.1107   18.9777   42.4875 C   0  0  0  0  0  0  0  0  0  0  0  0
   -3.3760   19.2783   42.1065 N   0  0  0  0  0  0  0  0  0  0  0  0
   -1.4969   15.5762   41.0185 H   0  0  0  0  0  0  0  0  0  0  0  0
   -0.4132   13.4939   40.1892 H   0  0  0  0  0  0  0  0  0  0  0  0
    2.0040   13.0916   40.6193 H   0  0  0  0  0  0  0  0  0  0  0  0
    2.2513   16.8672   42.7250 H   0  0  0  0  0  0  0  0  0  0  0  0
    2.1031   21.4253   44.9037 H   0  0  0  0  0  0  0  0  0  0  0  0
    1.5102   20.3323   46.2000 H   0  0  0  0  0  0  0  0  0  0  0  0
    2.2307   19.6446   44.7052 H   0  0  0  0  0  0  0  0  0  0  0  0
   -2.5985   21.5110   43.9430 H   0  0  0  0  0  0  0  0  0  0  0  0
   -3.8285   20.1359   42.4539 H   0  0  0  0  0  0  0  0  0  0  0  0
   -3.8852   18.6492   41.4694 H   0  0  0  0  0  0  0  0  0  0  0  0
  1  2  2  0
  1  6  1  0
  2  3  1  0
  3  4  2  0
  4  5  1  0
  5  6  2  0
  6  7  1  0
  7  8  2  0
  7  9  1  0
  8 16  1  0
  9 10  2  0
 10 11  1  0
 10 15  1  0
 11 12  1  0
 11 13  1  0
 13 14  2  0
 14 15  1  0
 15 16  2  0
 16 17  1  0
  1 18  1  0
  2 19  1  0
  3 20  1  0
  5 21  1  0
 12 22  1  0
 12 23  1  0
 12 24  1  0
 14 25  1  0
 17 26  1  0
 17 27  1  0
M  END
>  <mol_id>  (49) 
2026-09-18-6fnk-s0-n100-r8-0049

>  <rmsd_to_ref>  (49) 
2.6581632653086666

>  <pose_kind>  (49) 
rigid

$$$$
6fnk.A
     RDKit          3D

 27 29  0  0  0  0  0  0  0  0999 V2000
    0.8727   16.7029   39.1252 C   0  0  0  0  0  0  0  0  0  0  0  0
    1.2900   15.6511   38.3037 C   0  0  0  0  0  0  0  0  0  0  0  0
    2.4786   14.9703   38.5629 C   0  0  0  0  0  0  0  0  0  0  0  0
    3.2526   15.3268   39.6295 N   0  0  0  0  0  0  0  0  0  0  0  0
    2.8625   16.3487   40.4408 C   0  0  0  0  0  0  0  0  0  0  0  0
    1.6936   17.0317   40.2010 C   0  0  0  0  0  0  0  0  0  0  0  0
    1.3029   18.1314   41.0993 C   0  0  0  0  0  0  0  0  0  0  0  0
    2.1208   18.4199   42.1274 N   0  0  0  0  0  0  0  0  0  0  0  0
    0.1831   18.8229   40.9115 N   0  0  0  0  0  0  0  0  0  0  0  0
   -0.1337   19.8197   41.7581 C   0  0  0  0  0  0  0  0  0  0  0  0
   -1.1730   20.6622   41.8091 N   0  0  0  0  0  0  0  0  0  0  0  0
   -2.2711   20.6478   40.8475 C   0  0  0  0  0  0  0  0  0  0  0  0
   -1.0325   21.4749   42.8426 N   0  0  0  0  0  0  0  0  0  0  0  0
    0.1116   21.1876   43.5051 C   0  0  0  0  0  0  0  0  0  0  0  0
    0.6954   20.1367   42.8278 C   0  0  0  0  0  0  0  0  0  0  0  0
    1.8527   19.4054   43.0031 C   0  0  0  0  0  0  0  0  0  0  0  0
    2.7414   19.6976   44.0963 N   0  0  0  0  0  0  0  0  0  0  0  0
   -0.0424   17.2455   38.9464 H   0  0  0  0  0  0  0  0  0  0  0  0
    0.6560   15.3791   37.4525 H   0  0  0  0  0  0  0  0  0  0  0  0
    2.7981   14.1456   37.9122 H   0  0  0  0  0  0  0  0  0  0  0  0
    3.5336   16.5690   41.2659 H   0  0  0  0  0  0  0  0  0  0  0  0
   -2.0668   21.2908   39.9676 H   0  0  0  0  0  0  0  0  0  0  0  0
   -2.4462   19.6115   40.4878 H   0  0  0  0  0  0  0  0  0  0  0  0
   -3.1808   21.0673   41.3488 H   0  0  0  0  0  0  0  0  0  0  0  0
    0.5412   21.6347   44.3769 H   0  0  0  0  0  0  0  0  0  0  0  0
    2.4270   20.3284   44.8457 H   0  0  0  0  0  0  0  0  0  0  0  0
    3.6849   19.2649   44.1072 H   0  0  0  0  0  0  0  0  0  0  0  0
  1  2  2  0
  1  6  1  0
  2  3  1  0
  3  4  2  0
  4  5  1  0
  5  6  2  0
  6  7  1  0
  7  8  2  0
  7  9  1  0
  8 16  1  0
  9 10  2  0
 10 11  1  0
 10 15  1  0
 11 12  1  0
 11 13  1  0
 13 14  2  0
 14 15  1  0
 15 16  2  0
 16 17  1  0
  1 18  1  0
  2 19  1  0
  3 20  1  0
  5 21  1  0
 12 22  1  0
 12 23  1  0
 12 24  1  0
 14 25  1  0
 17 26  1  0
 17 27  1  0
M  END
>  <mol_id>  (50) 
2026-09-18-6fnk-s0-n100-r8-0050

>  <rmsd_to_ref>  (50) 
2.704081632653608

>  <pose_kind>  (50) 
conformer

$$$$
6fnk.A
     RDKit          3D

 27 29  0  0  0  0  0  0  0  0999 V2000
    1.1374   14.0141   41.6295 C   0  0  0  0  0  0  0  0  0  0  0  0
    0.5486   12.7523   41.7133 C   0  0  0  0  0  0  0  0  0  0  0  0
   -0.5877   12.5680   42.4874 C   0  0  0  0  0  0  0  0  0  0  0  0
   -1.1433   13.6477   43.1794 N   0  0  0  0  0  0  0  0  0  0  0  0
   -0.5480   14.9154   43.0945 C   0  0  0  0  0  0  0  0  0  0  0  0
    0.5947   15.1013   42.3186 C   0  0  0  0  0  0  0  0  0  0  0  0
    1.1872   16.3656   42.2377 C   0  0  0  0  0  0  0  0  0  0  0  0
    2.3777   16.5337   41.6456 N   0  0  0  0  0  0  0  0  0  0  0  0
    0.5596   17.4286   42.7509 N   0  0  0  0  0  0  0  0  0  0  0  0
    1.1016   18.6584   42.7001 C   0  0  0  0  0  0  0  0  0  0  0  0
    0.6764   19.8484   43.1510 N   0  0  0  0  0  0  0  0  0  0  0  0
   -0.5839   20.1019   43.8554 C   0  0  0  0  0  0  0  0  0  0  0  0
    1.4948   20.7295   42.8846 N   0  0  0  0  0  0  0  0  0  0  0  0
    2.4997   20.1529   42.2050 C   0  0  0  0  0  0  0  0  0  0  0  0
    2.2764   18.8358   42.1036 C   0  0  0  0  0  0  0  0  0  0  0  0
    2.9213   17.7625   41.5693 C   0  0  0  0  0  0  0  0  0  0  0  0
    4.1217   17.9064   40.9572 N   0  0  0  0  0  0  0  0  0  0  0  0
    2.0385   14.1545   41.0143 H   0  0  0  0  0  0  0  0  0  0  0  0
    0.9851   11.9039   41.1658 H   0  0  0  0  0  0  0  0  0  0  0  0
   -1.0511   11.5728   42.5566 H   0  0  0  0  0  0  0  0  0  0  0  0
   -0.9841   15.7644   43.6414 H   0  0  0  0  0  0  0  0  0  0  0  0
   -0.3795   20.6497   44.7872 H   0  0  0  0  0  0  0  0  0  0  0  0
   -1.2474   20.7021   43.2154 H   0  0  0  0  0  0  0  0  0  0  0  0
   -1.0707   19.1444   44.0923 H   0  0  0  0  0  0  0  0  0  0  0  0
    3.3727   20.6814   41.7945 H   0  0  0  0  0  0  0  0  0  0  0  0
    4.5560   18.8378   40.8876 H   0  0  0  0  0  0  0  0  0  0  0  0
    4.5999   17.0844   40.5616 H   0  0  0  0  0  0  0  0  0  0  0  0
  1  2  2  0
  1  6  1  0
  2  3  1  0
  3  4  2  0
  4  5  1  0
  5  6  2  0
  6  7  1  0
  7  8  2  0
  7  9  1  0
  8 16  1  0
  9 10  2  0
 10 11  1  0
 10 15  1  0
 11 12  1  0
 11 13  1  0
 13 14  2  0
 14 15  1  0
 15 16  2  0
 16 17  1  0
  1 18  1  0
  2 19  1  0
  3 20  1  0
  5 21  1  0
 12 22  1  0
 12 23  1  0
 12 24  1  0
 14 25  1  0
 17 26  1  0
 17 27  1  0
M  END
>  <mol_id>  (51) 
2026-09-18-6fnk-s0-n100-r8-0051

>  <rmsd_to_ref>  (51) 
2.7500000000029527

>  <pose_kind>  (51) 
rigid

$$$$
6fnk.A
     RDKit          3D

 27 29  0  0  0  0  0  0  0  0999 V2000
    1.4936   14.4068   40.5774 C   0  0  0  0  0  0  0  0  0  0  0  0
    1.0728   13.2898   39.8618 C   0  0  0  0  0  0  0  0  0  0  0  0
   -0.1792   13.1948   39.3240 C   0  0  0  0  0  0  0  0  0  0  0  0
   -1.0688   14.2052   39.4734 N   0  0  0  0  0  0  0  0  0  0  0  0
   -0.6978   15.2969   40.1571 C   0  0  0  0  0  0  0  0  0  0  0  0
    0.5703   15.4287   40.7192 C   0  0  0  0  0  0  0  0  0  0  0  0
    0.9290   16.6361   41.4551 C   0  0  0  0  0  0  0  0  0  0  0  0
    2.1547   16.7993   42.0161 N   0  0  0  0  0  0  0  0  0  0  0  0
    0.0354   17.6145   41.5871 N   0  0  0  0  0  0  0  0  0  0  0  0
    0.2544   18.7596   42.2375 C   0  0  0  0  0  0  0  0  0  0  0  0
   -0.5239   19.8338   42.4619 N   0  0  0  0  0  0  0  0  0  0  0  0
   -1.9089   20.0114   42.0065 C   0  0  0  0  0  0  0  0  0  0  0  0
    0.1829   20.6986   43.1654 N   0  0  0  0  0  0  0  0  0  0  0  0
    1.4282   20.1962   43.4060 C   0  0  0  0  0  0  0  0  0  0  0  0
    1.4900   18.9526   42.8171 C   0  0  0  0  0  0  0  0  0  0  0  0
    2.4335   17.9521   42.6938 C   0  0  0  0  0  0  0  0  0  0  0  0
    3.7107   18.1472   43.2907 N   0  0  0  0  0  0  0  0  0  0  0  0
    2.4854   14.4531   40.9891 H   0  0  0  0  0  0  0  0  0  0  0  0
    1.7422   12.4346   39.7026 H   0  0  0  0  0  0  0  0  0  0  0  0
   -0.5391   12.3375   38.7603 H   0  0  0  0  0  0  0  0  0  0  0  0
   -1.3898   16.1212   40.2921 H   0  0  0  0  0  0  0  0  0  0  0  0
   -2.1827   19.1377   41.3790 H   0  0  0  0  0  0  0  0  0  0  0  0
   -2.0157   20.9189   41.3809 H   0  0  0  0  0  0  0  0  0  0  0  0
   -2.6214   19.9985   42.8652 H   0  0  0  0  0  0  0  0  0  0  0  0
    2.2308   20.6524   43.9455 H   0  0  0  0  0  0  0  0  0  0  0  0
    4.0176   17.4613   44.0159 H   0  0  0  0  0  0  0  0  0  0  0  0
    4.3358   18.9590   43.0143 H   0  0  0  0  0  0  0  0  0  0  0  0
  1  2  2  0
  1  6  1  0
  2  3  1  0
  3  4  2  0
  4  5  1  0
  5  6  2  0
  6  7  1  0
  7  8  2  0
  7  9  1  0
  8 16  1  0
  9 10  2  0
 10 11  1  0
 10 15  1  0
 11 12  1  0
 11 13  1  0
 13 14  2  0
 14 15  1  0
 15 16  2  0
 16 17  1  0
  1 18  1  0
  2 19  1  0
  3 20  1  0
  5 21  1  0
 12 22  1  0
 12 23  1  0
 12 24  1  0
 14 25  1  0
 17 26  1  0
 17 27  1  0
M  END
>  <mol_id>  (52) 
2026-09-18-6fnk-s0-n100-r8-0052

>  <rmsd_to_ref>  (52) 
2.795918367351347

>  <pose_kind>  (52) 
conformer

$$$$
6fnk.A
     RDKit          3D

 27 29  0  0  0  0  0  0  0  0999 V2000
    2.3095   14.5390   42.6519 C   0  0  0  0  0  0  0  0  0  0  0  0
    2.0604   13.3022   43.2471 C   0  0  0  0  0  0  0  0  0  0  0  0
    1.5724   13.2435   44.5444 C   0  0  0  0  0  0  0  0  0  0  0  0
    1.3274   14.4235   45.2520 N   0  0  0  0  0  0  0  0  0  0  0  0
    1.5805   15.6661   44.6512 C   0  0  0  0  0  0  0  0  0  0  0  0
    2.0725   15.7263   43.3487 C   0  0  0  0  0  0  0  0  0  0  0  0
    2.3260   16.9662   42.7534 C   0  0  0  0  0  0  0  0  0  0  0  0
    2.9602   17.0500   41.5758 N   0  0  0  0  0  0  0  0  0  0  0  0
    1.9269   18.0891   43.3592 N   0  0  0  0  0  0  0  0  0  0  0  0
    2.1602   19.2998   42.8220 C   0  0  0  0  0  0  0  0  0  0  0  0
    1.8750   20.5413   43.2435 N   0  0  0  0  0  0  0  0  0  0  0  0
    1.1804   20.8903   44.4864 C   0  0  0  0  0  0  0  0  0  0  0  0
    2.2717   21.3763   42.4296 N   0  0  0  0  0  0  0  0  0  0  0  0
    2.8179   20.7073   41.4009 C   0  0  0  0  0  0  0  0  0  0  0  0
    2.7777   19.3913   41.6483 C   0  0  0  0  0  0  0  0  0  0  0  0
    3.1812   18.2545   41.0173 C   0  0  0  0  0  0  0  0  0  0  0  0
    3.8165   18.3108   39.8216 N   0  0  0  0  0  0  0  0  0  0  0  0
    2.6967   14.5798   41.6231 H   0  0  0  0  0  0  0  0  0  0  0  0
    2.2507   12.3742   42.6882 H   0  0  0  0  0  0  0  0  0  0  0  0
    1.3783   12.2687   45.0157 H   0  0  0  0  0  0  0  0  0  0  0  0
    1.3901   16.5946   45.2095 H   0  0  0  0  0  0  0  0  0  0  0  0
    1.7736   21.6314   45.0422 H   0  0  0  0  0  0  0  0  0  0  0  0
    0.1937   21.3144   44.2484 H   0  0  0  0  0  0  0  0  0  0  0  0
    1.0527   19.9871   45.1012 H   0  0  0  0  0  0  0  0  0  0  0  0
    3.2346   21.1695   40.4938 H   0  0  0  0  0  0  0  0  0  0  0  0
    3.9959   19.2220   39.3762 H   0  0  0  0  0  0  0  0  0  0  0  0
    4.1199   17.4424   39.3582 H   0  0  0  0  0  0  0  0  0  0  0  0
  1  2  2  0
  1  6  1  0
  2  3  1  0
  3  4  2  0
  4  5  1  0
  5  6  2  0
  6  7  1  0
  7  8  2  0
  7  9  1  0
  8 16  1  0
  9 10  2  0
 10 11  1  0
 10 15  1  0
 11 12  1  0
 11 13  1  0
 13 14  2  0
 14 15  1  0
 15 16  2  0
 16 17  1  0
  1 18  1  0
  2 19  1  0
  3 20  1  0
  5 21  1  0
 12 22  1  0
 12 23  1  0
 12 24  1  0
 14 25  1  0
 17 26  1  0
 17 27  1  0
M  END
>  <mol_id>  (53) 
2026-09-18-6fnk-s0-n100-r8-0053

>  <rmsd_to_ref>  (53) 
2.841836734700666

>  <pose_kind>  (53) 
rigid

$$$$
6fnk.A
     RDKit          3D

 27 29  0  0  0  0  0  0  0  0999 V2000
    3.8339   15.3687   43.0258 C   0  0  0  0  0  0  0  0  0  0  0  0
    3.9224   14.1407   43.6720 C   0  0  0  0  0  0  0  0  0  0  0  0
    2.7510   13.5423   44.0956 C   0  0  0  0  0  0  0  0  0  0  0  0
    1.5351   14.1082   43.9030 N   0  0  0  0  0  0  0  0  0  0  0  0
    1.4477   15.3094   43.2710 C   0  0  0  0  0  0  0  0  0  0  0  0
    2.5913   15.9486   42.8281 C   0  0  0  0  0  0  0  0  0  0  0  0
    2.5386   17.2389   42.1455 C   0  0  0  0  0  0  0  0  0  0  0  0
    3.6397   17.8784   41.7063 N   0  0  0  0  0  0  0  0  0  0  0  0
    1.3247   17.8007   41.9549 N   0  0  0  0  0  0  0  0  0  0  0  0
    1.1934   18.9813   41.3378 C   0  0  0  0  0  0  0  0  0  0  0  0
    0.1266   19.7060   41.0473 N   0  0  0  0  0  0  0  0  0  0  0  0
   -1.2439   19.3683   41.3498 C   0  0  0  0  0  0  0  0  0  0  0  0
    0.4968   20.8116   40.4252 N   0  0  0  0  0  0  0  0  0  0  0  0
    1.8545   20.8018   40.3089 C   0  0  0  0  0  0  0  0  0  0  0  0
    2.3215   19.6281   40.8923 C   0  0  0  0  0  0  0  0  0  0  0  0
    3.5642   19.0610   41.0832 C   0  0  0  0  0  0  0  0  0  0  0  0
    4.7270   19.7334   40.6208 N   0  0  0  0  0  0  0  0  0  0  0  0
    4.7516   15.8378   42.6938 H   0  0  0  0  0  0  0  0  0  0  0  0
    4.8730   13.6524   43.8469 H   0  0  0  0  0  0  0  0  0  0  0  0
    2.7786   12.5760   44.6078 H   0  0  0  0  0  0  0  0  0  0  0  0
    0.5124   15.7994   43.0937 H   0  0  0  0  0  0  0  0  0  0  0  0
   -1.6421   20.1338   42.0367 H   0  0  0  0  0  0  0  0  0  0  0  0
   -1.7908   19.4928   40.3716 H   0  0  0  0  0  0  0  0  0  0  0  0
   -1.3684   18.3648   41.7518 H   0  0  0  0  0  0  0  0  0  0  0  0
    2.4824   21.5415   39.8587 H   0  0  0  0  0  0  0  0  0  0  0  0
    5.2837   20.3393   41.2640 H   0  0  0  0  0  0  0  0  0  0  0  0
    4.9919   19.5870   39.6036 H   0  0  0  0  0  0  0  0  0  0  0  0
  1  2  2  0
  1  6  1  0
  2  3  1  0
  3  4  2  0
  4  5  1  0
  5  6  2  0
  6  7  1  0
  7  8  2  0
  7  9  1  0
  8 16  1  0
  9 10  2  0
 10 11  1  0
 10 15  1  0
 11 12  1  0
 11 13  1  0
 13 14  2  0
 14 15  1  0
 15 16  2  0
 16 17  1  0
  1 18  1  0
  2 19  1  0
  3 20  1  0
  5 21  1  0
 12 22  1  0
 12 23  1  0
 12 24  1  0
 14 25  1  0
 17 26  1  0
 17 27  1  0
M  END
>  <mol_id>  (54) 
2026-09-18-6fnk-s0-n100-r8-0054

>  <rmsd_to_ref>  (54) 
2.8877551020426306

>  <pose_kind>  (54) 
conformer

$$$$
6fnk.A
     RDKit          3D

 27 29  0  0  0  0  0  0  0  0999 V2000
    4.3926   16.3433   44.5457 C   0  0  0  0  0  0  0  0  0  0  0  0
    4.7003   14.9959   44.7344 C   0  0  0  0  0  0  0  0  0  0  0  0
    3.8139   14.0168   44.3098 C   0  0  0  0  0  0  0  0  0  0  0  0
    2.6155   14.3817   43.6901 N   0  0  0  0  0  0  0  0  0  0  0  0
    2.3081   15.7379   43.5030 C   0  0  0  0  0  0  0  0  0  0  0  0
    3.1969   16.7224   43.9309 C   0  0  0  0  0  0  0  0  0  0  0  0
    2.8866   18.0734   43.7452 C   0  0  0  0  0  0  0  0  0  0  0  0
    3.6352   19.0364   44.3004 N   0  0  0  0  0  0  0  0  0  0  0  0
    1.8325   18.4174   42.9984 N   0  0  0  0  0  0  0  0  0  0  0  0
    1.4977   19.7054   42.8042 C   0  0  0  0  0  0  0  0  0  0  0  0
    0.4961   20.2818   42.1225 N   0  0  0  0  0  0  0  0  0  0  0  0
   -0.5454   19.5809   41.3655 C   0  0  0  0  0  0  0  0  0  0  0  0
    0.5661   21.5087   42.2054 N   0  0  0  0  0  0  0  0  0  0  0  0
    1.6567   21.8010   42.9330 C   0  0  0  0  0  0  0  0  0  0  0  0
    2.2421   20.6671   43.3411 C   0  0  0  0  0  0  0  0  0  0  0  0
    3.3233   20.3297   44.0964 C   0  0  0  0  0  0  0  0  0  0  0  0
    4.1019   21.2840   44.6617 N   0  0  0  0  0  0  0  0  0  0  0  0
    5.0990   17.1155   44.8845 H   0  0  0  0  0  0  0  0  0  0  0  0
    5.6452   14.7098   45.2196 H   0  0  0  0  0  0  0  0  0  0  0  0
    4.0542   12.9541   44.4608 H   0  0  0  0  0  0  0  0  0  0  0  0
    1.3635   16.0246   43.0177 H   0  0  0  0  0  0  0  0  0  0  0  0
   -1.5349   19.9435   41.6810 H   0  0  0  0  0  0  0  0  0  0  0  0
   -0.4099   19.7732   40.2910 H   0  0  0  0  0  0  0  0  0  0  0  0
   -0.4730   18.5000   41.5565 H   0  0  0  0  0  0  0  0  0  0  0  0
    2.0145   22.8162   43.1592 H   0  0  0  0  0  0  0  0  0  0  0  0
    3.8815   22.2799   44.5186 H   0  0  0  0  0  0  0  0  0  0  0  0
    4.9142   21.0134   45.2344 H   0  0  0  0  0  0  0  0  0  0  0  0
  1  2  2  0
  1  6  1  0
  2  3  1  0
  3  4  2  0
  4  5  1  0
  5  6  2  0
  6  7  1  0
  7  8  2  0
  7  9  1  0
  8 16  1  0
  9 10  2  0
 10 11  1  0
 10 15  1  0
 11 12  1  0
 11 13  1  0
 13 14  2  0
 14 15  1  0
 15 16  2  0
 16 17  1  0
  1 18  1  0
  2 19  1  0
  3 20  1  0
  5 21  1  0
 12 22  1  0
 12 23  1  0
 12 24  1  0
 14 25  1  0
 17 26  1  0
 17 27  1  0
M  END
>  <mol_id>  (55) 
2026-09-18-6fnk-s0-n100-r8-0055

>  <rmsd_to_ref>  (55) 
2.93367346939207

>  <pose_kind>  (55) 
rigid

$$$$
6fnk.A
     RDKit          3D

 27 29  0  0  0  0  0  0  0  0999 V2000
   -1.1493   15.7356   42.1980 C   0  0  0  0  0  0  0  0  0  0  0  0
   -1.7506   14.9525   41.2389 C   0  0  0  0  0  0  0  0  0  0  0  0
   -1.0772   14.5480   40.0811 C   0  0  0  0  0  0  0  0  0  0  0  0
    0.2082   14.9469   39.9102 N   0  0  0  0  0  0  0  0  0  0  0  0
    0.8295   15.7134   40.8268 C   0  0  0  0  0  0  0  0  0  0  0  0
    0.1667   16.1163   41.9748 C   0  0  0  0  0  0  0  0  0  0  0  0
    0.8825   16.9433   42.9332 C   0  0  0  0  0  0  0  0  0  0  0  0
    2.1595   17.2731   42.6476 N   0  0  0  0  0  0  0  0  0  0  0  0
    0.2941   17.3669   44.0670 N   0  0  0  0  0  0  0  0  0  0  0  0
    0.9531   18.1330   44.9576 C   0  0  0  0  0  0  0  0  0  0  0  0
    0.6572   18.7013   46.1467 N   0  0  0  0  0  0  0  0  0  0  0  0
   -0.6309   18.5654   46.7774 C   0  0  0  0  0  0  0  0  0  0  0  0
    1.7304   19.3730   46.5939 N   0  0  0  0  0  0  0  0  0  0  0  0
    2.7290   19.2436   45.6959 C   0  0  0  0  0  0  0  0  0  0  0  0
    2.2683   18.4667   44.6532 C   0  0  0  0  0  0  0  0  0  0  0  0
    2.8768   18.0356   43.4926 C   0  0  0  0  0  0  0  0  0  0  0  0
    4.2078   18.3903   43.2142 N   0  0  0  0  0  0  0  0  0  0  0  0
   -1.6845   16.0274   43.0665 H   0  0  0  0  0  0  0  0  0  0  0  0
   -2.7708   14.6167   41.3412 H   0  0  0  0  0  0  0  0  0  0  0  0
   -1.5753   13.9331   39.3455 H   0  0  0  0  0  0  0  0  0  0  0  0
    1.8576   15.9942   40.6235 H   0  0  0  0  0  0  0  0  0  0  0  0
   -1.4746   18.9053   46.1467 H   0  0  0  0  0  0  0  0  0  0  0  0
   -0.8047   17.5106   47.0635 H   0  0  0  0  0  0  0  0  0  0  0  0
   -0.5908   19.1358   47.7361 H   0  0  0  0  0  0  0  0  0  0  0  0
    3.7057   19.7033   45.8388 H   0  0  0  0  0  0  0  0  0  0  0  0
    4.5933   19.2955   43.5074 H   0  0  0  0  0  0  0  0  0  0  0  0
    4.8248   17.7182   42.6953 H   0  0  0  0  0  0  0  0  0  0  0  0
  1  2  2  0
  1  6  1  0
  2  3  1  0
  3  4  2  0
  4  5  1  0
  5  6  2  0
  6  7  1  0
  7  8  2  0
  7  9  1  0
  8 16  1  0
  9 10  2  0
 10 11  1  0
 10 15  1  0
 11 12  1  0
 11 13  1  0
 13 14  2  0
 14 15  1  0
 15 16  2  0
 16 17  1  0
  1 18  1  0
  2 19  1  0
  3 20  1  0
  5 21  1  0
 12 22  1  0
 12 23  1  0
 12 24  1  0
 14 25  1  0
 17 26  1  0
 17 27  1  0
M  END
>  <mol_id>  (56) 
2026-09-18-6fnk-s0-n100-r8-0056

>  <rmsd_to_ref>  (56) 
2.9795918367394063

>  <pose_kind>  (56) 
conformer

$$$$
6fnk.A
     RDKit          3D

 27 29  0  0  0  0  0  0  0  0999 V2000
    2.1059   18.5487   39.6521 C   0  0  0  0  0  0  0  0  0  0  0  0
    1.6012   18.0414   38.4546 C   0  0  0  0  0  0  0  0  0  0  0  0
    0.7733   16.9284   38.4680 C   0  0  0  0  0  0  0  0  0  0  0  0
    0.4428   16.3189   39.6815 N   0  0  0  0  0  0  0  0  0  0  0  0
    0.9533   16.8305   40.8843 C   0  0  0  0  0  0  0  0  0  0  0  0
    1.7866   17.9474   40.8719 C   0  0  0  0  0  0  0  0  0  0  0  0
    2.2957   18.4536   42.0722 C   0  0  0  0  0  0  0  0  0  0  0  0
    3.2330   19.4115   42.0753 N   0  0  0  0  0  0  0  0  0  0  0  0
    1.8407   17.9843   43.2383 N   0  0  0  0  0  0  0  0  0  0  0  0
    2.3122   18.4400   44.4126 C   0  0  0  0  0  0  0  0  0  0  0  0
    2.0266   18.1169   45.6831 N   0  0  0  0  0  0  0  0  0  0  0  0
    1.0496   17.1142   46.1178 C   0  0  0  0  0  0  0  0  0  0  0  0
    2.6992   18.7926   46.4630 N   0  0  0  0  0  0  0  0  0  0  0  0
    3.4487   19.6294   45.7267 C   0  0  0  0  0  0  0  0  0  0  0  0
    3.2330   19.3987   44.4247 C   0  0  0  0  0  0  0  0  0  0  0  0
    3.6980   19.8911   43.2437 C   0  0  0  0  0  0  0  0  0  0  0  0
    4.6389   20.8660   43.2188 N   0  0  0  0  0  0  0  0  0  0  0  0
    2.7621   19.4313   39.6356 H   0  0  0  0  0  0  0  0  0  0  0  0
    1.8595   18.5237   37.5003 H   0  0  0  0  0  0  0  0  0  0  0  0
    0.3771   16.5258   37.5241 H   0  0  0  0  0  0  0  0  0  0  0  0
    0.6951   16.3488   41.8389 H   0  0  0  0  0  0  0  0  0  0  0  0
    1.5273   16.4187   46.8236 H   0  0  0  0  0  0  0  0  0  0  0  0
    0.2047   17.6158   46.6124 H   0  0  0  0  0  0  0  0  0  0  0  0
    0.6837   16.5557   45.2437 H   0  0  0  0  0  0  0  0  0  0  0  0
    4.1350   20.3881   46.1309 H   0  0  0  0  0  0  0  0  0  0  0  0
    5.0087   21.2475   44.1013 H   0  0  0  0  0  0  0  0  0  0  0  0
    4.9844   21.2254   42.3176 H   0  0  0  0  0  0  0  0  0  0  0  0
  1  2  2  0
  1  6  1  0
  2  3  1  0
  3  4  2  0
  4  5  1  0
  5  6  2  0
  6  7  1  0
  7  8  2  0
  7  9  1  0
  8 16  1  0
  9 10  2  0
 10 11  1  0
 10 15  1  0
 11 12  1  0
 11 13  1  0
 13 14  2  0
 14 15  1  0
 15 16  2  0
 16 17  1  0
  1 18  1  0
  2 19  1  0
  3 20  1  0
  5 21  1  0
 12 22  1  0
 12 23  1  0
 12 24  1  0
 14 25  1  0
 17 26  1  0
 17 27  1  0
M  END
>  <mol_id>  (57) 
2026-09-18-6fnk-s0-n100-r8-0057

>  <rmsd_to_ref>  (57) 
3.0255102040823867

>  <pose_kind>  (57) 
rigid

$$$$
6fnk.A
     RDKit          3D

 27 29  0  0  0  0  0  0  0  0999 V2000
    2.3690   16.5114   40.5530 C   0  0  0  0  0  0  0  0  0  0  0  0
    2.6948   16.3107   39.2269 C   0  0  0  0  0  0  0  0  0  0  0  0
    3.4643   17.1870   38.4930 C   0  0  0  0  0  0  0  0  0  0  0  0
    3.9271   18.3079   39.1069 N   0  0  0  0  0  0  0  0  0  0  0  0
    3.6328   18.5497   40.4126 C   0  0  0  0  0  0  0  0  0  0  0  0
    2.8648   17.6697   41.1353 C   0  0  0  0  0  0  0  0  0  0  0  0
    2.5740   17.9739   42.5414 C   0  0  0  0  0  0  0  0  0  0  0  0
    3.0792   19.1098   43.0558 N   0  0  0  0  0  0  0  0  0  0  0  0
    1.8223   17.1236   43.2683 N   0  0  0  0  0  0  0  0  0  0  0  0
    1.5626   17.4191   44.5666 C   0  0  0  0  0  0  0  0  0  0  0  0
    0.8593   16.7813   45.5270 N   0  0  0  0  0  0  0  0  0  0  0  0
    0.1780   15.5121   45.2999 C   0  0  0  0  0  0  0  0  0  0  0  0
    0.9061   17.4914   46.6496 N   0  0  0  0  0  0  0  0  0  0  0  0
    1.6410   18.6035   46.4377 C   0  0  0  0  0  0  0  0  0  0  0  0
    2.0661   18.5760   45.1233 C   0  0  0  0  0  0  0  0  0  0  0  0
    2.8420   19.4346   44.3392 C   0  0  0  0  0  0  0  0  0  0  0  0
    3.3612   20.6311   44.9194 N   0  0  0  0  0  0  0  0  0  0  0  0
    1.7660   15.8158   41.1124 H   0  0  0  0  0  0  0  0  0  0  0  0
    2.3020   15.3984   38.7751 H   0  0  0  0  0  0  0  0  0  0  0  0
    3.7074   17.0094   37.4540 H   0  0  0  0  0  0  0  0  0  0  0  0
    4.0241   19.4598   40.8650 H   0  0  0  0  0  0  0  0  0  0  0  0
    0.8011   14.6373   45.5169 H   0  0  0  0  0  0  0  0  0  0  0  0
   -0.6726   15.4969   46.0199 H   0  0  0  0  0  0  0  0  0  0  0  0
   -0.2783   15.4615   44.2861 H   0  0  0  0  0  0  0  0  0  0  0  0
    1.8755   19.3962   47.1482 H   0  0  0  0  0  0  0  0  0  0  0  0
    3.9489   20.5360   45.7977 H   0  0  0  0  0  0  0  0  0  0  0  0
    3.1735   21.5746   44.4990 H   0  0  0  0  0  0  0  0  0  0  0  0
  1  2  2  0
  1  6  1  0
  2  3  1  0
  3  4  2  0
  4  5  1  0
  5  6  2  0
  6  7  1  0
  7  8  2  0
  7  9  1  0
  8 16  1  0
  9 10  2  0
 10 11  1  0
 10 15  1  0
 11 12  1  0
 11 13  1  0
 13 14  2  0
 14 15  1  0
 15 16  2  0
 16 17  1  0
  1 18  1  0
  2 19  1  0
  3 20  1  0
  5 21  1  0
 12 22  1  0
 12 23  1  0
 12 24  1  0
 14 25  1  0
 17 26  1  0
 17 27  1  0
M  END
>  <mol_id>  (58) 
2026-09-18-6fnk-s0-n100-r8-0058

>  <rmsd_to_ref>  (58) 
3.071428571430807

>  <pose_kind>  (58) 
conformer

$$$$
6fnk.A
     RDKit          3D

 27 29  0  0  0  0  0  0  0  0999 V2000
    3.2982   17.5792   43.3053 C   0  0  0  0  0  0  0  0  0  0  0  0
    4.3333   17.0745   44.0926 C   0  0  0  0  0  0  0  0  0  0  0  0
    4.0535   16.5234   45.3345 C   0  0  0  0  0  0  0  0  0  0  0  0
    2.7345   16.4711   45.7938 N   0  0  0  0  0  0  0  0  0  0  0  0
    1.6957   16.9810   45.0002 C   0  0  0  0  0  0  0  0  0  0  0  0
    1.9757   17.5366   43.7532 C   0  0  0  0  0  0  0  0  0  0  0  0
    0.9384   18.0462   42.9655 C   0  0  0  0  0  0  0  0  0  0  0  0
    1.1966   18.7398   41.8483 N   0  0  0  0  0  0  0  0  0  0  0  0
   -0.3326   17.8367   43.3227 N   0  0  0  0  0  0  0  0  0  0  0  0
   -1.3566   18.3182   42.5957 C   0  0  0  0  0  0  0  0  0  0  0  0
   -2.6865   18.2514   42.7600 N   0  0  0  0  0  0  0  0  0  0  0  0
   -3.3857   17.5767   43.8577 C   0  0  0  0  0  0  0  0  0  0  0  0
   -3.2656   18.8358   41.8434 N   0  0  0  0  0  0  0  0  0  0  0  0
   -2.3250   19.2948   41.0014 C   0  0  0  0  0  0  0  0  0  0  0  0
   -1.1095   18.9967   41.4795 C   0  0  0  0  0  0  0  0  0  0  0  0
    0.1807   19.2090   41.1004 C   0  0  0  0  0  0  0  0  0  0  0  0
    0.4690   19.8994   39.9705 N   0  0  0  0  0  0  0  0  0  0  0  0
    3.5258   18.0153   42.3214 H   0  0  0  0  0  0  0  0  0  0  0  0
    5.3707   17.1135   43.7289 H   0  0  0  0  0  0  0  0  0  0  0  0
    4.8692   16.1278   45.9575 H   0  0  0  0  0  0  0  0  0  0  0  0
    0.6580   16.9421   45.3632 H   0  0  0  0  0  0  0  0  0  0  0  0
   -4.1045   18.2715   44.3165 H   0  0  0  0  0  0  0  0  0  0  0  0
   -3.9220   16.6996   43.4667 H   0  0  0  0  0  0  0  0  0  0  0  0
   -2.6551   17.2529   44.6136 H   0  0  0  0  0  0  0  0  0  0  0  0
   -2.5226   19.8332   40.0628 H   0  0  0  0  0  0  0  0  0  0  0  0
   -0.2930   20.2675   39.3833 H   0  0  0  0  0  0  0  0  0  0  0  0
    1.4501   20.0560   39.6989 H   0  0  0  0  0  0  0  0  0  0  0  0
  1  2  2  0
  1  6  1  0
  2  3  1  0
  3  4  2  0
  4  5  1  0
  5  6  2  0
  6  7  1  0
  7  8  2  0
  7  9  1  0
  8 16  1  0
  9 10  2  0
 10 11  1  0
 10 15  1  0
 11 12  1  0
 11 13  1  0
 13 14  2  0
 14 15  1  0
 15 16  2  0
 16 17  1  0
  1 18  1  0
  2 19  1  0
  3 20  1  0
  5 21  1  0
 12 22  1  0
 12 23  1  0
 12 24  1  0
 14 25  1  0
 17 26  1  0
 17 27  1  0
M  END
>  <mol_id>  (59) 
2026-09-18-6fnk-s0-n100-r8-0059

>  <rmsd_to_ref>  (59) 
3.1173469387761115

>  <pose_kind>  (59) 
rigid

$$$$
6fnk.A
     RDKit          3D

 27 29  0  0  0  0  0  0  0  0999 V2000
    4.4850   18.4185   41.3003 C   0  0  0  0  0  0  0  0  0  0  0  0
    5.8598   18.1760   41.4060 C   0  0  0  0  0  0  0  0  0  0  0  0
    6.2611   16.9567   41.9400 C   0  0  0  0  0  0  0  0  0  0  0  0
    5.3369   16.0724   42.3277 N   0  0  0  0  0  0  0  0  0  0  0  0
    4.0261   16.2828   42.2359 C   0  0  0  0  0  0  0  0  0  0  0  0
    3.5604   17.4722   41.7151 C   0  0  0  0  0  0  0  0  0  0  0  0
    2.1259   17.7527   41.5927 C   0  0  0  0  0  0  0  0  0  0  0  0
    1.6733   18.9137   41.0843 N   0  0  0  0  0  0  0  0  0  0  0  0
    1.2623   16.7990   42.0107 N   0  0  0  0  0  0  0  0  0  0  0  0
   -0.0683   16.9868   41.9290 C   0  0  0  0  0  0  0  0  0  0  0  0
   -1.1175   16.2154   42.2673 N   0  0  0  0  0  0  0  0  0  0  0  0
   -1.0229   14.8942   42.8459 C   0  0  0  0  0  0  0  0  0  0  0  0
   -2.2085   16.8733   41.9795 N   0  0  0  0  0  0  0  0  0  0  0  0
   -1.9099   18.0763   41.4524 C   0  0  0  0  0  0  0  0  0  0  0  0
   -0.5274   18.1698   41.4110 C   0  0  0  0  0  0  0  0  0  0  0  0
    0.3478   19.1570   40.9782 C   0  0  0  0  0  0  0  0  0  0  0  0
   -0.1776   20.3498   40.4560 N   0  0  0  0  0  0  0  0  0  0  0  0
    4.2003   19.3644   40.8860 H   0  0  0  0  0  0  0  0  0  0  0  0
    6.5829   18.9119   41.0835 H   0  0  0  0  0  0  0  0  0  0  0  0
    7.3203   16.7146   42.0458 H   0  0  0  0  0  0  0  0  0  0  0  0
    3.3008   15.5515   42.5565 H   0  0  0  0  0  0  0  0  0  0  0  0
   -0.8426   14.8949   43.9350 H   0  0  0  0  0  0  0  0  0  0  0  0
   -1.9054   14.2750   42.5469 H   0  0  0  0  0  0  0  0  0  0  0  0
   -0.1440   14.3573   42.3998 H   0  0  0  0  0  0  0  0  0  0  0  0
   -2.5994   18.8237   41.1253 H   0  0  0  0  0  0  0  0  0  0  0  0
   -1.0005   20.7714   40.9384 H   0  0  0  0  0  0  0  0  0  0  0  0
    0.2741   20.7639   39.6109 H   0  0  0  0  0  0  0  0  0  0  0  0
  1  2  2  0
  1  6  1  0
  2  3  1  0
  3  4  2  0
  4  5  1  0
  5  6  2  0
  6  7  1  0
  7  8  2  0
  7  9  1  0
  8 16  1  0
  9 10  2  0
 10 11  1  0
 10 15  1  0
 11 12  1  0
 11 13  1  0
 13 14  2  0
 14 15  1  0
 15 16  2  0
 16 17  1  0
  1 18  1  0
  2 19  1  0
  3 20  1  0
  5 21  1  0
 12 22  1  0
 12 23  1  0
 12 24  1  0
 14 25  1  0
 17 26  1  0
 17 27  1  0
M  END
>  <mol_id>  (60) 
2026-09-18-6fnk-s0-n100-r8-0060

>  <rmsd_to_ref>  (60) 
3.163265306126676

>  <pose_kind>  (60) 
conformer

$$$$
6fnk.A
     RDKit          3D

 27 29  0  0  0  0  0  0  0  0999 V2000
    1.3966   15.6707   42.5644 C   0  0  0  0  0  0  0  0  0  0  0  0
    0.5333   14.5987   42.3374 C   0  0  0  0  0  0  0  0  0  0  0  0
   -0.7735   14.6517   42.7999 C   0  0  0  0  0  0  0  0  0  0  0  0
   -1.2246   15.7806   43.4894 N   0  0  0  0  0  0  0  0  0  0  0  0
   -0.3535   16.8567   43.7175 C   0  0  0  0  0  0  0  0  0  0  0  0
    0.9601   16.8038   43.2550 C   0  0  0  0  0  0  0  0  0  0  0  0
    1.8268   17.8770   43.4860 C   0  0  0  0  0  0  0  0  0  0  0  0
    3.1345   17.7805   43.2091 N   0  0  0  0  0  0  0  0  0  0  0  0
    1.3497   19.0220   43.9845 N   0  0  0  0  0  0  0  0  0  0  0  0
    2.1533   20.0725   44.2281 C   0  0  0  0  0  0  0  0  0  0  0  0
    1.9114   21.2931   44.7301 N   0  0  0  0  0  0  0  0  0  0  0  0
    0.6059   21.8051   45.1574 C   0  0  0  0  0  0  0  0  0  0  0  0
    2.9497   21.9537   44.7808 N   0  0  0  0  0  0  0  0  0  0  0  0
    3.9349   21.1937   44.2748 C   0  0  0  0  0  0  0  0  0  0  0  0
    3.4495   19.9894   43.9447 C   0  0  0  0  0  0  0  0  0  0  0  0
    3.9458   18.8316   43.4284 C   0  0  0  0  0  0  0  0  0  0  0  0
    5.2624   18.7108   43.1312 N   0  0  0  0  0  0  0  0  0  0  0  0
    2.4319   15.6233   42.1957 H   0  0  0  0  0  0  0  0  0  0  0  0
    0.8886   13.7119   41.7921 H   0  0  0  0  0  0  0  0  0  0  0  0
   -1.4542   13.8057   42.6241 H   0  0  0  0  0  0  0  0  0  0  0  0
   -0.7081   17.7439   44.2626 H   0  0  0  0  0  0  0  0  0  0  0  0
    0.6864   22.2085   46.1776 H   0  0  0  0  0  0  0  0  0  0  0  0
    0.2826   22.6025   44.4722 H   0  0  0  0  0  0  0  0  0  0  0  0
   -0.1308   20.9884   45.1432 H   0  0  0  0  0  0  0  0  0  0  0  0
    4.9806   21.5116   44.1503 H   0  0  0  0  0  0  0  0  0  0  0  0
    5.9013   19.5028   43.2912 H   0  0  0  0  0  0  0  0  0  0  0  0
    5.6243   17.8271   42.7453 H   0  0  0  0  0  0  0  0  0  0  0  0
  1  2  2  0
  1  6  1  0
  2  3  1  0
  3  4  2  0
  4  5  1  0
  5  6  2  0
  6  7  1  0
  7  8  2  0
  7  9  1  0
  8 16  1  0
  9 10  2  0
 10 11  1  0
 10 15  1  0
 11 12  1  0
 11 13  1  0
 13 14  2  0
 14 15  1  0
 15 16  2  0
 16 17  1  0
  1 18  1  0
  2 19  1  0
  3 20  1  0
  5 21  1  0
 12 22  1  0
 12 23  1  0
 12 24  1  0
 14 25  1  0
 17 26  1  0
 17 27  1  0
M  END
>  <mol_id>  (61) 
2026-09-18-6fnk-s0-n100-r8-0061

>  <rmsd_to_ref>  (61) 
3.2091836734740813

>  <pose_kind>  (61) 
rigid

$$$$
6fnk.A
     RDKit          3D

 27 29  0  0  0  0  0  0  0  0999 V2000
    2.4520   16.3011   39.7819 C   0  0  0  0  0  0  0  0  0  0  0  0
    2.9179   15.4879   38.7603 C   0  0  0  0  0  0  0  0  0  0  0  0
    4.2777   15.3631   38.5595 C   0  0  0  0  0  0  0  0  0  0  0  0
    5.1664   16.0205   39.3421 N   0  0  0  0  0  0  0  0  0  0  0  0
    4.7379   16.8261   40.3530 C   0  0  0  0  0  0  0  0  0  0  0  0
    3.3649   16.9730   40.5816 C   0  0  0  0  0  0  0  0  0  0  0  0
    2.8791   17.8418   41.6726 C   0  0  0  0  0  0  0  0  0  0  0  0
    1.5642   17.9823   41.8913 N   0  0  0  0  0  0  0  0  0  0  0  0
    3.7822   18.4785   42.4292 N   0  0  0  0  0  0  0  0  0  0  0  0
    3.4002   19.2829   43.4369 C   0  0  0  0  0  0  0  0  0  0  0  0
    4.0820   20.0232   44.3292 N   0  0  0  0  0  0  0  0  0  0  0  0
    5.5260   20.1580   44.4466 C   0  0  0  0  0  0  0  0  0  0  0  0
    3.1860   20.6243   45.1031 N   0  0  0  0  0  0  0  0  0  0  0  0
    1.9245   20.2846   44.7261 C   0  0  0  0  0  0  0  0  0  0  0  0
    2.0445   19.4224   43.6557 C   0  0  0  0  0  0  0  0  0  0  0  0
    1.0971   18.7616   42.8709 C   0  0  0  0  0  0  0  0  0  0  0  0
   -0.2879   18.9026   43.0926 N   0  0  0  0  0  0  0  0  0  0  0  0
    1.3850   16.3963   39.9361 H   0  0  0  0  0  0  0  0  0  0  0  0
    2.2345   14.9469   38.1146 H   0  0  0  0  0  0  0  0  0  0  0  0
    4.6041   14.7208   37.7539 H   0  0  0  0  0  0  0  0  0  0  0  0
    5.4659   17.3398   40.9635 H   0  0  0  0  0  0  0  0  0  0  0  0
    5.8436   21.1889   44.6469 H   0  0  0  0  0  0  0  0  0  0  0  0
    5.9653   19.7677   43.4977 H   0  0  0  0  0  0  0  0  0  0  0  0
    5.8278   19.4531   45.2693 H   0  0  0  0  0  0  0  0  0  0  0  0
    0.9955   20.6179   45.1701 H   0  0  0  0  0  0  0  0  0  0  0  0
   -0.7580   18.6853   44.0111 H   0  0  0  0  0  0  0  0  0  0  0  0
   -0.8702   19.2443   42.2877 H   0  0  0  0  0  0  0  0  0  0  0  0
  1  2  2  0
  1  6  1  0
  2  3  1  0
  3  4  2  0
  4  5  1  0
  5  6  2  0
  6  7  1  0
  7  8  2  0
  7  9  1  0
  8 16  1  0
  9 10  2  0
 10 11  1  0
 10 15  1  0
 11 12  1  0
 11 13  1  0
 13 14  2  0
 14 15  1  0
 15 16  2  0
 16 17  1  0
  1 18  1  0
  2 19  1  0
  3 20  1  0
  5 21  1  0
 12 22  1  0
 12 23  1  0
 12 24  1  0
 14 25  1  0
 17 26  1  0
 17 27  1  0
M  END
>  <mol_id>  (62) 
2026-09-18-6fnk-s0-n100-r8-0062

>  <rmsd_to_ref>  (62) 
3.2551020408197084

>  <pose_kind>  (62) 
conformer

$$$$
6fnk.A
     RDKit          3D

 27 29  0  0  0  0  0  0  0  0999 V2000
   -0.3506   17.1350   41.4986 C   0  0  0  0  0  0  0  0  0  0  0  0
   -0.7648   16.3612   40.4144 C   0  0  0  0  0  0  0  0  0  0  0  0
   -0.2531   15.0837   40.2393 C   0  0  0  0  0  0  0  0  0  0  0  0
    0.6740   14.5722   41.1515 N   0  0  0  0  0  0  0  0  0  0  0  0
    1.0899   15.3534   42.2403 C   0  0  0  0  0  0  0  0  0  0  0  0
    0.5779   16.6376   42.4162 C   0  0  0  0  0  0  0  0  0  0  0  0
    0.9962   17.4149   43.5011 C   0  0  0  0  0  0  0  0  0  0  0  0
    0.6565   18.7078   43.5959 N   0  0  0  0  0  0  0  0  0  0  0  0
    1.7410   16.8650   44.4655 N   0  0  0  0  0  0  0  0  0  0  0  0
    2.1692   17.5824   45.5194 C   0  0  0  0  0  0  0  0  0  0  0  0
    2.9245   17.2597   46.5804 N   0  0  0  0  0  0  0  0  0  0  0  0
    3.4981   15.9398   46.8595 C   0  0  0  0  0  0  0  0  0  0  0  0
    3.0737   18.2348   47.3179 N   0  0  0  0  0  0  0  0  0  0  0  0
    2.3833   19.2543   46.7812 C   0  0  0  0  0  0  0  0  0  0  0  0
    1.8265   18.8623   45.6274 C   0  0  0  0  0  0  0  0  0  0  0  0
    1.0609   19.4314   44.6562 C   0  0  0  0  0  0  0  0  0  0  0  0
    0.6961   20.7343   44.7324 N   0  0  0  0  0  0  0  0  0  0  0  0
   -0.7595   18.1473   41.6325 H   0  0  0  0  0  0  0  0  0  0  0  0
   -1.4968   16.7637   39.6987 H   0  0  0  0  0  0  0  0  0  0  0  0
   -0.5768   14.4738   39.3830 H   0  0  0  0  0  0  0  0  0  0  0  0
    1.8216   14.9514   42.9565 H   0  0  0  0  0  0  0  0  0  0  0  0
    4.5764   16.0417   47.0513 H   0  0  0  0  0  0  0  0  0  0  0  0
    3.0077   15.5064   47.7437 H   0  0  0  0  0  0  0  0  0  0  0  0
    3.3404   15.2808   45.9929 H   0  0  0  0  0  0  0  0  0  0  0  0
    2.2893   20.2579   47.2218 H   0  0  0  0  0  0  0  0  0  0  0  0
    0.9945   21.3066   45.5351 H   0  0  0  0  0  0  0  0  0  0  0  0
    0.1203   21.1523   43.9876 H   0  0  0  0  0  0  0  0  0  0  0  0
  1  2  2  0
  1  6  1  0
  2  3  1  0
  3  4  2  0
  4  5  1  0
  5  6  2  0
  6  7  1  0
  7  8  2  0
  7  9  1  0
  8 16  1  0
  9 10  2  0
 10 11  1  0
 10 15  1  0
 11 12  1  0
 11 13  1  0
 13 14  2  0
 14 15  1  0
 15 16  2  0
 16 17  1  0
  1 18  1  0
  2 19  1  0
  3 20  1  0
  5 21  1  0
 12 22  1  0
 12 23  1  0
 12 24  1  0
 14 25  1  0
 17 26  1  0
 17 27  1  0
M  END
>  <mol_id>  (63) 
2026-09-18-6fnk-s0-n100-r8-0063

>  <rmsd_to_ref>  (63) 
3.301020408163867

>  <pose_kind>  (63) 
rigid

$$$$
6fnk.A
     RDKit          3D

 27 29  0  0  0  0  0  0  0  0999 V2000
    2.7603   16.6044   43.3509 C   0  0  0  0  0  0  0  0  0  0  0  0
    4.0929   16.4084   43.7005 C   0  0  0  0  0  0  0  0  0  0  0  0
    5.1109   17.0547   43.0266 C   0  0  0  0  0  0  0  0  0  0  0  0
    4.8514   17.9080   41.9951 N   0  0  0  0  0  0  0  0  0  0  0  0
    3.5523   18.1169   41.6333 C   0  0  0  0  0  0  0  0  0  0  0  0
    2.5227   17.4805   42.2945 C   0  0  0  0  0  0  0  0  0  0  0  0
    1.1499   17.7474   41.8575 C   0  0  0  0  0  0  0  0  0  0  0  0
    0.9755   18.6019   40.8322 N   0  0  0  0  0  0  0  0  0  0  0  0
    0.1000   17.1585   42.4607 N   0  0  0  0  0  0  0  0  0  0  0  0
   -1.1516   17.4204   42.0405 C   0  0  0  0  0  0  0  0  0  0  0  0
   -2.3614   16.9821   42.4516 N   0  0  0  0  0  0  0  0  0  0  0  0
   -2.5892   16.0461   43.5376 C   0  0  0  0  0  0  0  0  0  0  0  0
   -3.2579   17.5688   41.6788 N   0  0  0  0  0  0  0  0  0  0  0  0
   -2.6837   18.3798   40.7711 C   0  0  0  0  0  0  0  0  0  0  0  0
   -1.3333   18.3067   40.9769 C   0  0  0  0  0  0  0  0  0  0  0  0
   -0.2470   18.9108   40.3590 C   0  0  0  0  0  0  0  0  0  0  0  0
   -0.4491   19.8124   39.2755 N   0  0  0  0  0  0  0  0  0  0  0  0
    1.9602   16.1013   43.8748 H   0  0  0  0  0  0  0  0  0  0  0  0
    4.2928   15.7291   44.5211 H   0  0  0  0  0  0  0  0  0  0  0  0
    6.1604   16.8971   43.3058 H   0  0  0  0  0  0  0  0  0  0  0  0
    3.3622   18.8089   40.7986 H   0  0  0  0  0  0  0  0  0  0  0  0
   -2.3608   15.0032   43.1892 H   0  0  0  0  0  0  0  0  0  0  0  0
   -3.6750   16.1033   43.8100 H   0  0  0  0  0  0  0  0  0  0  0  0
   -2.0274   16.2939   44.4603 H   0  0  0  0  0  0  0  0  0  0  0  0
   -3.1482   18.9816   40.0188 H   0  0  0  0  0  0  0  0  0  0  0  0
   -1.3445   20.3568   39.2059 H   0  0  0  0  0  0  0  0  0  0  0  0
    0.2667   19.9630   38.5280 H   0  0  0  0  0  0  0  0  0  0  0  0
  1  2  2  0
  1  6  1  0
  2  3  1  0
  3  4  2  0
  4  5  1  0
  5  6  2  0
  6  7  1  0
  7  8  2  0
  7  9  1  0
  8 16  1  0
  9 10  2  0
 10 11  1  0
 10 15  1  0
 11 12  1  0
 11 13  1  0
 13 14  2  0
 14 15  1  0
 15 16  2  0
 16 17  1  0
  1 18  1  0
  2 19  1  0
  3 20  1  0
  5 21  1  0
 12 22  1  0
 12 23  1  0
 12 24  1  0
 14 25  1  0
 17 26  1  0
 17 27  1  0
M  END
>  <mol_id>  (64) 
2026-09-18-6fnk-s0-n100-r8-0064

>  <rmsd_to_ref>  (64) 
3.346938775513099

>  <pose_kind>  (64) 
conformer

$$$$
6fnk.A
     RDKit          3D

 27 29  0  0  0  0  0  0  0  0999 V2000
    1.4704   18.9273   39.2956 C   0  0  0  0  0  0  0  0  0  0  0  0
    2.4347   18.8703   38.2892 C   0  0  0  0  0  0  0  0  0  0  0  0
    3.7820   18.9095   38.6177 C   0  0  0  0  0  0  0  0  0  0  0  0
    4.1714   19.0024   39.9567 N   0  0  0  0  0  0  0  0  0  0  0  0
    3.1991   19.0612   40.9667 C   0  0  0  0  0  0  0  0  0  0  0  0
    1.8454   19.0237   40.6378 C   0  0  0  0  0  0  0  0  0  0  0  0
    0.8785   19.0848   41.6465 C   0  0  0  0  0  0  0  0  0  0  0  0
   -0.4207   19.2272   41.3500 N   0  0  0  0  0  0  0  0  0  0  0  0
    1.2476   18.9941   42.9281 N   0  0  0  0  0  0  0  0  0  0  0  0
    0.3479   19.0574   43.9259 C   0  0  0  0  0  0  0  0  0  0  0  0
    0.4791   19.0070   45.2602 N   0  0  0  0  0  0  0  0  0  0  0  0
    1.7372   18.8521   45.9965 C   0  0  0  0  0  0  0  0  0  0  0  0
   -0.6207   19.1001   45.8069 N   0  0  0  0  0  0  0  0  0  0  0  0
   -1.5459   19.1855   44.8369 C   0  0  0  0  0  0  0  0  0  0  0  0
   -0.9440   19.1861   43.6400 C   0  0  0  0  0  0  0  0  0  0  0  0
   -1.3333   19.2707   42.3383 C   0  0  0  0  0  0  0  0  0  0  0  0
   -2.6413   19.4060   42.0109 N   0  0  0  0  0  0  0  0  0  0  0  0
    0.4035   18.8960   39.0294 H   0  0  0  0  0  0  0  0  0  0  0  0
    2.1271   18.7942   37.2358 H   0  0  0  0  0  0  0  0  0  0  0  0
    4.5432   18.8676   37.8247 H   0  0  0  0  0  0  0  0  0  0  0  0
    3.5061   19.1370   42.0202 H   0  0  0  0  0  0  0  0  0  0  0  0
    1.8168   19.6430   46.7568 H   0  0  0  0  0  0  0  0  0  0  0  0
    1.7559   17.8681   46.4877 H   0  0  0  0  0  0  0  0  0  0  0  0
    2.5830   18.9290   45.2974 H   0  0  0  0  0  0  0  0  0  0  0  0
   -2.6321   19.2458   45.0003 H   0  0  0  0  0  0  0  0  0  0  0  0
   -3.3565   19.4415   42.7513 H   0  0  0  0  0  0  0  0  0  0  0  0
   -2.9203   19.4733   41.0217 H   0  0  0  0  0  0  0  0  0  0  0  0
  1  2  2  0
  1  6  1  0
  2  3  1  0
  3  4  2  0
  4  5  1  0
  5  6  2  0
  6  7  1  0
  7  8  2  0
  7  9  1  0
  8 16  1  0
  9 10  2  0
 10 11  1  0
 10 15  1  0
 11 12  1  0
 11 13  1  0
 13 14  2  0
 14 15  1  0
 15 16  2  0
 16 17  1  0
  1 18  1  0
  2 19  1  0
  3 20  1  0
  5 21  1  0
 12 22  1  0
 12 23  1  0
 12 24  1  0
 14 25  1  0
 17 26  1  0
 17 27  1  0
M  END
>  <mol_id>  (65) 
2026-09-18-6fnk-s0-n100-r8-0065

>  <rmsd_to_ref>  (65) 
3.392857142860526

>  <pose_kind>  (65) 
rigid

$$$$
6fnk.A
     RDKit          3D

 27 29  0  0  0  0  0  0  0  0999 V2000
    2.4640   19.2504   41.4265 C   0  0  0  0  0  0  0  0  0  0  0  0
    3.4060   19.2003   40.4176 C   0  0  0  0  0  0  0  0  0  0  0  0
    3.4867   18.0779   39.6005 C   0  0  0  0  0  0  0  0  0  0  0  0
    2.6661   17.0167   39.7574 N   0  0  0  0  0  0  0  0  0  0  0  0
    1.7361   17.0448   40.7394 C   0  0  0  0  0  0  0  0  0  0  0  0
    1.6219   18.1525   41.5817 C   0  0  0  0  0  0  0  0  0  0  0  0
    0.6106   18.1796   42.6473 C   0  0  0  0  0  0  0  0  0  0  0  0
    0.4840   19.2262   43.4625 N   0  0  0  0  0  0  0  0  0  0  0  0
   -0.2013   17.1193   42.7957 N   0  0  0  0  0  0  0  0  0  0  0  0
   -1.1636   17.0737   43.7630 C   0  0  0  0  0  0  0  0  0  0  0  0
   -2.0867   16.1490   44.1152 N   0  0  0  0  0  0  0  0  0  0  0  0
   -2.2423   14.8872   43.4517 C   0  0  0  0  0  0  0  0  0  0  0  0
   -2.7776   16.6338   45.1479 N   0  0  0  0  0  0  0  0  0  0  0  0
   -2.3121   17.8741   45.4761 C   0  0  0  0  0  0  0  0  0  0  0  0
   -1.2850   18.1795   44.6114 C   0  0  0  0  0  0  0  0  0  0  0  0
   -0.4502   19.2650   44.4558 C   0  0  0  0  0  0  0  0  0  0  0  0
   -0.5565   20.3996   45.3075 N   0  0  0  0  0  0  0  0  0  0  0  0
    2.3714   20.1180   42.0896 H   0  0  0  0  0  0  0  0  0  0  0  0
    4.0818   20.0539   40.2753 H   0  0  0  0  0  0  0  0  0  0  0  0
    4.2222   18.0298   38.8070 H   0  0  0  0  0  0  0  0  0  0  0  0
    1.0577   16.1912   40.8845 H   0  0  0  0  0  0  0  0  0  0  0  0
   -3.1846   14.4104   43.8024 H   0  0  0  0  0  0  0  0  0  0  0  0
   -1.3927   14.2103   43.7061 H   0  0  0  0  0  0  0  0  0  0  0  0
   -2.3164   15.0493   42.3565 H   0  0  0  0  0  0  0  0  0  0  0  0
   -2.6699   18.5110   46.2631 H   0  0  0  0  0  0  0  0  0  0  0  0
    0.2019   20.7151   45.9521 H   0  0  0  0  0  0  0  0  0  0  0  0
   -1.4495   20.9389   45.2767 H   0  0  0  0  0  0  0  0  0  0  0  0
  1  2  2  0
  1  6  1  0
  2  3  1  0
  3  4  2  0
  4  5  1  0
  5  6  2  0
  6  7  1  0
  7  8  2  0
  7  9  1  0
  8 16  1  0
  9 10  2  0
 10 11  1  0
 10 15  1  0
 11 12  1  0
 11 13  1  0
 13 14  2  0
 14 15  1  0
 15 16  2  0
 16 17  1  0
  1 18  1  0
  2 19  1  0
  3 20  1  0
  5 21  1  0
 12 22  1  0
 12 23  1  0
 12 24  1  0
 14 25  1  0
 17 26  1  0
 17 27  1  0
M  END
>  <mol_id>  (66) 
2026-09-18-6fnk-s0-n100-r8-0066

>  <rmsd_to_ref>  (66) 
3.438775510205157

>  <pose_kind>  (66) 
conformer

$$$$
6fnk.A
     RDKit          3D

 27 29  0  0  0  0  0  0  0  0999 V2000
    0.4512   17.6247   41.1434 C   0  0  0  0  0  0  0  0  0  0  0  0
   -0.3677   16.6880   40.5126 C   0  0  0  0  0  0  0  0  0  0  0  0
   -0.2059   15.3361   40.7780 C   0  0  0  0  0  0  0  0  0  0  0  0
    0.7748   14.9144   41.6801 N   0  0  0  0  0  0  0  0  0  0  0  0
    1.5981   15.8588   42.3119 C   0  0  0  0  0  0  0  0  0  0  0  0
    1.4378   17.2171   42.0446 C   0  0  0  0  0  0  0  0  0  0  0  0
    2.2615   18.1559   42.6741 C   0  0  0  0  0  0  0  0  0  0  0  0
    2.2470   19.4444   42.3057 N   0  0  0  0  0  0  0  0  0  0  0  0
    3.0736   17.7709   43.6637 N   0  0  0  0  0  0  0  0  0  0  0  0
    3.8862   18.6427   44.2868 C   0  0  0  0  0  0  0  0  0  0  0  0
    4.7812   18.4904   45.2748 N   0  0  0  0  0  0  0  0  0  0  0  0
    5.0996   17.2353   45.9622 C   0  0  0  0  0  0  0  0  0  0  0  0
    5.3115   19.5679   45.5481 N   0  0  0  0  0  0  0  0  0  0  0  0
    4.7554   20.5015   44.7587 C   0  0  0  0  0  0  0  0  0  0  0  0
    3.8691   19.9248   43.9360 C   0  0  0  0  0  0  0  0  0  0  0  0
    3.0399   20.3309   42.9356 C   0  0  0  0  0  0  0  0  0  0  0  0
    2.9993   21.6294   42.5498 N   0  0  0  0  0  0  0  0  0  0  0  0
    0.3188   18.6954   40.9290 H   0  0  0  0  0  0  0  0  0  0  0  0
   -1.1412   17.0213   39.8051 H   0  0  0  0  0  0  0  0  0  0  0  0
   -0.8491   14.5964   40.2789 H   0  0  0  0  0  0  0  0  0  0  0  0
    2.3717   15.5263   43.0197 H   0  0  0  0  0  0  0  0  0  0  0  0
    6.1879   17.0759   45.9488 H   0  0  0  0  0  0  0  0  0  0  0  0
    4.7496   17.2886   47.0036 H   0  0  0  0  0  0  0  0  0  0  0  0
    4.6003   16.3997   45.4498 H   0  0  0  0  0  0  0  0  0  0  0  0
    4.9916   21.5756   44.7838 H   0  0  0  0  0  0  0  0  0  0  0  0
    3.5977   22.3247   43.0182 H   0  0  0  0  0  0  0  0  0  0  0  0
    2.3701   21.9210   41.7883 H   0  0  0  0  0  0  0  0  0  0  0  0
  1  2  2  0
  1  6  1  0
  2  3  1  0
  3  4  2  0
  4  5  1  0
  5  6  2  0
  6  7  1  0
  7  8  2  0
  7  9  1  0
  8 16  1  0
  9 10  2  0
 10 11  1  0
 10 15  1  0
 11 12  1  0
 11 13  1  0
 13 14  2  0
 14 15  1  0
 15 16  2  0
 16 17  1  0
  1 18  1  0
  2 19  1  0
  3 20  1  0
  5 21  1  0
 12 22  1  0
 12 23  1  0
 12 24  1  0
 14 25  1  0
 17 26  1  0
 17 27  1  0
M  END
>  <mol_id>  (67) 
2026-09-18-6fnk-s0-n100-r8-0067

>  <rmsd_to_ref>  (67) 
3.484693877554056

>  <pose_kind>  (67) 
rigid

$$$$
6fnk.A
     RDKit          3D

 27 29  0  0  0  0  0  0  0  0999 V2000
    2.9732   17.6483   44.6086 C   0  0  0  0  0  0  0  0  0  0  0  0
    3.9497   17.1714   45.4591 C   0  0  0  0  0  0  0  0  0  0  0  0
    5.2827   17.2714   45.0989 C   0  0  0  0  0  0  0  0  0  0  0  0
    5.6926   17.8179   43.9434 N   0  0  0  0  0  0  0  0  0  0  0  0
    4.7442   18.2815   43.1164 C   0  0  0  0  0  0  0  0  0  0  0  0
    3.3953   18.2123   43.4161 C   0  0  0  0  0  0  0  0  0  0  0  0
    2.4255   18.7435   42.4548 C   0  0  0  0  0  0  0  0  0  0  0  0
    2.8956   19.2791   41.3141 N   0  0  0  0  0  0  0  0  0  0  0  0
    1.1098   18.6841   42.7307 N   0  0  0  0  0  0  0  0  0  0  0  0
    0.2284   19.1831   41.8241 C   0  0  0  0  0  0  0  0  0  0  0  0
   -1.1221   19.2678   41.8122 N   0  0  0  0  0  0  0  0  0  0  0  0
   -1.9738   18.7846   42.8919 C   0  0  0  0  0  0  0  0  0  0  0  0
   -1.5322   19.8433   40.6948 N   0  0  0  0  0  0  0  0  0  0  0  0
   -0.4340   20.1459   39.9520 C   0  0  0  0  0  0  0  0  0  0  0  0
    0.6998   19.7422   40.6357 C   0  0  0  0  0  0  0  0  0  0  0  0
    2.0632   19.7873   40.3831 C   0  0  0  0  0  0  0  0  0  0  0  0
    2.5189   20.3603   39.1684 N   0  0  0  0  0  0  0  0  0  0  0  0
    1.9126   17.6023   44.8273 H   0  0  0  0  0  0  0  0  0  0  0  0
    3.6485   16.7179   46.4136 H   0  0  0  0  0  0  0  0  0  0  0  0
    6.0452   16.8997   45.7617 H   0  0  0  0  0  0  0  0  0  0  0  0
    5.1095   18.7236   42.1777 H   0  0  0  0  0  0  0  0  0  0  0  0
   -2.1622   17.6862   42.7540 H   0  0  0  0  0  0  0  0  0  0  0  0
   -2.9517   19.3006   42.8204 H   0  0  0  0  0  0  0  0  0  0  0  0
   -1.4834   18.9477   43.8568 H   0  0  0  0  0  0  0  0  0  0  0  0
   -0.4427   20.6339   38.9644 H   0  0  0  0  0  0  0  0  0  0  0  0
    2.1926   21.3310   38.9155 H   0  0  0  0  0  0  0  0  0  0  0  0
    3.1619   19.8825   38.5000 H   0  0  0  0  0  0  0  0  0  0  0  0
  1  2  2  0
  1  6  1  0
  2  3  1  0
  3  4  2  0
  4  5  1  0
  5  6  2  0
  6  7  1  0
  7  8  2  0
  7  9  1  0
  8 16  1  0
  9 10  2  0
 10 11  1  0
 10 15  1  0
 11 12  1  0
 11 13  1  0
 13 14  2  0
 14 15  1  0
 15 16  2  0
 16 17  1  0
  1 18  1  0
  2 19  1  0
  3 20  1  0
  5 21  1  0
 12 22  1  0
 12 23  1  0
 12 24  1  0
 14 25  1  0
 17 26  1  0
 17 27  1  0
M  END
>  <mol_id>  (68) 
2026-09-18-6fnk-s0-n100-r8-0068

>  <rmsd_to_ref>  (68) 
3.530612244904215

>  <pose_kind>  (68) 
conformer

$$$$
6fnk.A
     RDKit          3D

 27 29  0  0  0  0  0  0  0  0999 V2000
    0.2508   15.6920   41.4250 C   0  0  0  0  0  0  0  0  0  0  0  0
   -0.7642   14.7364   41.3749 C   0  0  0  0  0  0  0  0  0  0  0  0
   -0.9871   13.9050   42.4628 C   0  0  0  0  0  0  0  0  0  0  0  0
   -0.1969   14.0283   43.6090 N   0  0  0  0  0  0  0  0  0  0  0  0
    0.8243   14.9894   43.6558 C   0  0  0  0  0  0  0  0  0  0  0  0
    1.0505   15.8240   42.5628 C   0  0  0  0  0  0  0  0  0  0  0  0
    2.0707   16.7794   42.6116 C   0  0  0  0  0  0  0  0  0  0  0  0
    2.4223   17.4705   41.5185 N   0  0  0  0  0  0  0  0  0  0  0  0
    2.7050   17.0171   43.7640 N   0  0  0  0  0  0  0  0  0  0  0  0
    3.6967   17.9218   43.8481 C   0  0  0  0  0  0  0  0  0  0  0  0
    4.4738   18.3126   44.8696 N   0  0  0  0  0  0  0  0  0  0  0  0
    4.4100   17.8050   46.2434 C   0  0  0  0  0  0  0  0  0  0  0  0
    5.2648   19.1828   44.5031 N   0  0  0  0  0  0  0  0  0  0  0  0
    5.0172   19.4310   43.2065 C   0  0  0  0  0  0  0  0  0  0  0  0
    4.0433   18.6203   42.7715 C   0  0  0  0  0  0  0  0  0  0  0  0
    3.3988   18.3936   41.5940 C   0  0  0  0  0  0  0  0  0  0  0  0
    3.7288   19.0850   40.4761 N   0  0  0  0  0  0  0  0  0  0  0  0
    0.4234   16.3486   40.5594 H   0  0  0  0  0  0  0  0  0  0  0  0
   -1.3874   14.6423   40.4734 H   0  0  0  0  0  0  0  0  0  0  0  0
   -1.7852   13.1491   42.4233 H   0  0  0  0  0  0  0  0  0  0  0  0
    1.4478   15.0843   44.5571 H   0  0  0  0  0  0  0  0  0  0  0  0
    5.4136   17.4897   46.5648 H   0  0  0  0  0  0  0  0  0  0  0  0
    4.0437   18.5988   46.9109 H   0  0  0  0  0  0  0  0  0  0  0  0
    3.7247   16.9456   46.2852 H   0  0  0  0  0  0  0  0  0  0  0  0
    5.5349   20.1849   42.5952 H   0  0  0  0  0  0  0  0  0  0  0  0
    4.4731   19.7961   40.5113 H   0  0  0  0  0  0  0  0  0  0  0  0
    3.2353   18.8993   39.5913 H   0  0  0  0  0  0  0  0  0  0  0  0
  1  2  2  0
  1  6  1  0
  2  3  1  0
  3  4  2  0
  4  5  1  0
  5  6  2  0
  6  7  1  0
  7  8  2  0
  7  9  1  0
  8 16  1  0
  9 10  2  0
 10 11  1  0
 10 15  1  0
 11 12  1  0
 11 13  1  0
 13 14  2  0
 14 15  1  0
 15 16  2  0
 16 17  1  0
  1 18  1  0
  2 19  1  0
  3 20  1  0
  5 21  1  0
 12 22  1  0
 12 23  1  0
 12 24  1  0
 14 25  1  0
 17 26  1  0
 17 27  1  0
M  END
>  <mol_id>  (69) 
2026-09-18-6fnk-s0-n100-r8-0069

>  <rmsd_to_ref>  (69) 
3.5765306122500253

>  <pose_kind>  (69) 
rigid

$$$$
6fnk.A
     RDKit          3D

 27 29  0  0  0  0  0  0  0  0999 V2000
    0.1907   16.1106   43.1861 C   0  0  0  0  0  0  0  0  0  0  0  0
   -0.7864   15.3676   42.5132 C   0  0  0  0  0  0  0  0  0  0  0  0
   -1.1662   15.7491   41.2214 C   0  0  0  0  0  0  0  0  0  0  0  0
   -0.5799   16.8355   40.6405 N   0  0  0  0  0  0  0  0  0  0  0  0
    0.3597   17.5522   41.2842 C   0  0  0  0  0  0  0  0  0  0  0  0
    0.7653   17.2061   42.5697 C   0  0  0  0  0  0  0  0  0  0  0  0
    1.7780   17.9982   43.2331 C   0  0  0  0  0  0  0  0  0  0  0  0
    2.3020   19.0585   42.5766 N   0  0  0  0  0  0  0  0  0  0  0  0
    2.1804   17.6756   44.4763 N   0  0  0  0  0  0  0  0  0  0  0  0
    3.1322   18.4186   45.1021 C   0  0  0  0  0  0  0  0  0  0  0  0
    3.7342   18.3640   46.3042 N   0  0  0  0  0  0  0  0  0  0  0  0
    3.4678   17.3687   47.3393 C   0  0  0  0  0  0  0  0  0  0  0  0
    4.6127   19.3630   46.4006 N   0  0  0  0  0  0  0  0  0  0  0  0
    4.5860   20.0787   45.2509 C   0  0  0  0  0  0  0  0  0  0  0  0
    3.6682   19.5073   44.4244 C   0  0  0  0  0  0  0  0  0  0  0  0
    3.2489   19.8302   43.1493 C   0  0  0  0  0  0  0  0  0  0  0  0
    3.7909   20.9379   42.4533 N   0  0  0  0  0  0  0  0  0  0  0  0
    0.4677   15.8008   44.1769 H   0  0  0  0  0  0  0  0  0  0  0  0
   -1.2153   14.5226   43.0154 H   0  0  0  0  0  0  0  0  0  0  0  0
   -1.9250   15.1784   40.6893 H   0  0  0  0  0  0  0  0  0  0  0  0
    0.7833   18.4077   40.7560 H   0  0  0  0  0  0  0  0  0  0  0  0
    3.6544   17.7902   48.3479 H   0  0  0  0  0  0  0  0  0  0  0  0
    4.1619   16.5209   47.1625 H   0  0  0  0  0  0  0  0  0  0  0  0
    2.4184   17.0153   47.2173 H   0  0  0  0  0  0  0  0  0  0  0  0
    5.2081   20.9573   45.0557 H   0  0  0  0  0  0  0  0  0  0  0  0
    3.2417   21.5734   41.8351 H   0  0  0  0  0  0  0  0  0  0  0  0
    4.8257   21.1336   42.5693 H   0  0  0  0  0  0  0  0  0  0  0  0
  1  2  2  0
  1  6  1  0
  2  3  1  0
  3  4  2  0
  4  5  1  0
  5  6  2  0
  6  7  1  0
  7  8  2  0
  7  9  1  0
  8 16  1  0
  9 10  2  0
 10 11  1  0
 10 15  1  0
 11 12  1  0
 11 13  1  0
 13 14  2  0
 14 15  1  0
 15 16  2  0
 16 17  1  0
  1 18  1  0
  2 19  1  0
  3 20  1  0
  5 21  1  0
 12 22  1  0
 12 23  1  0
 12 24  1  0
 14 25  1  0
 17 26  1  0
 17 27  1  0
M  END
>  <mol_id>  (70) 
2026-09-18-6fnk-s0-n100-r8-0070

>  <rmsd_to_ref>  (70) 
3.622448979593442

>  <pose_kind>  (70) 
conformer

$$$$
6fnk.A
     RDKit          3D

 27 29  0  0  0  0  0  0  0  0999 V2000
    5.0056   19.8638   42.4351 C   0  0  0  0  0  0  0  0  0  0  0  0
    6.3901   19.9242   42.5949 C   0  0  0  0  0  0  0  0  0  0  0  0
    7.0463   18.9457   43.3272 C   0  0  0  0  0  0  0  0  0  0  0  0
    6.3199   17.8985   43.9008 N   0  0  0  0  0  0  0  0  0  0  0  0
    4.9273   17.8412   43.7397 C   0  0  0  0  0  0  0  0  0  0  0  0
    4.2667   18.8246   43.0058 C   0  0  0  0  0  0  0  0  0  0  0  0
    2.8781   18.7661   42.8488 C   0  0  0  0  0  0  0  0  0  0  0  0
    2.2015   19.7853   42.3016 N   0  0  0  0  0  0  0  0  0  0  0  0
    2.2094   17.6776   43.2424 N   0  0  0  0  0  0  0  0  0  0  0  0
    0.8735   17.5881   43.1158 C   0  0  0  0  0  0  0  0  0  0  0  0
    0.0009   16.6239   43.4465 N   0  0  0  0  0  0  0  0  0  0  0  0
    0.3329   15.3382   44.0674 C   0  0  0  0  0  0  0  0  0  0  0  0
   -1.1463   16.9575   43.1471 N   0  0  0  0  0  0  0  0  0  0  0  0
   -1.0749   18.1661   42.5656 C   0  0  0  0  0  0  0  0  0  0  0  0
    0.1962   18.5894   42.5628 C   0  0  0  0  0  0  0  0  0  0  0  0
    0.8670   19.6997   42.1498 C   0  0  0  0  0  0  0  0  0  0  0  0
    0.2080   20.7406   41.5852 N   0  0  0  0  0  0  0  0  0  0  0  0
    4.4903   20.6425   41.8536 H   0  0  0  0  0  0  0  0  0  0  0  0
    6.9611   20.7473   42.1405 H   0  0  0  0  0  0  0  0  0  0  0  0
    8.1376   18.9940   43.4564 H   0  0  0  0  0  0  0  0  0  0  0  0
    4.3556   17.0182   44.1936 H   0  0  0  0  0  0  0  0  0  0  0  0
   -0.2933   15.1892   44.9594 H   0  0  0  0  0  0  0  0  0  0  0  0
    0.1478   14.5256   43.3495 H   0  0  0  0  0  0  0  0  0  0  0  0
    1.3935   15.3349   44.3593 H   0  0  0  0  0  0  0  0  0  0  0  0
   -1.9296   18.7233   42.1544 H   0  0  0  0  0  0  0  0  0  0  0  0
   -0.8134   20.6962   41.4595 H   0  0  0  0  0  0  0  0  0  0  0  0
    0.7284   21.5760   41.2817 H   0  0  0  0  0  0  0  0  0  0  0  0
  1  2  2  0
  1  6  1  0
  2  3  1  0
  3  4  2  0
  4  5  1  0
  5  6  2  0
  6  7  1  0
  7  8  2  0
  7  9  1  0
  8 16  1  0
  9 10  2  0
 10 11  1  0
 10 15  1  0
 11 12  1  0
 11 13  1  0
 13 14  2  0
 14 15  1  0
 15 16  2  0
 16 17  1  0
  1 18  1  0
  2 19  1  0
  3 20  1  0
  5 21  1  0
 12 22  1  0
 12 23  1  0
 12 24  1  0
 14 25  1  0
 17 26  1  0
 17 27  1  0
M  END
>  <mol_id>  (71) 
2026-09-18-6fnk-s0-n100-r8-0071

>  <rmsd_to_ref>  (71) 
3.6683673469429556

>  <pose_kind>  (71) 
rigid

$$$$
6fnk.A
     RDKit          3D

 27 29  0  0  0  0  0  0  0  0999 V2000
    2.1756   13.7328   41.6710 C   0  0  0  0  0  0  0  0  0  0  0  0
    2.7376   12.5045   41.3229 C   0  0  0  0  0  0  0  0  0  0  0  0
    2.9071   12.2111   39.9824 C   0  0  0  0  0  0  0  0  0  0  0  0
    2.5461   13.0742   39.0161 N   0  0  0  0  0  0  0  0  0  0  0  0
    2.0011   14.2664   39.3369 C   0  0  0  0  0  0  0  0  0  0  0  0
    1.8077   14.6136   40.6682 C   0  0  0  0  0  0  0  0  0  0  0  0
    1.2186   15.9020   41.0214 C   0  0  0  0  0  0  0  0  0  0  0  0
    1.0181   16.2678   42.3104 N   0  0  0  0  0  0  0  0  0  0  0  0
    0.8635   16.7533   40.0368 N   0  0  0  0  0  0  0  0  0  0  0  0
    0.3164   17.9552   40.2816 C   0  0  0  0  0  0  0  0  0  0  0  0
   -0.1080   18.9506   39.4573 N   0  0  0  0  0  0  0  0  0  0  0  0
   -0.0419   18.8936   38.0149 C   0  0  0  0  0  0  0  0  0  0  0  0
   -0.5695   19.9301   40.2173 N   0  0  0  0  0  0  0  0  0  0  0  0
   -0.4546   19.5931   41.5220 C   0  0  0  0  0  0  0  0  0  0  0  0
    0.1111   18.3299   41.5963 C   0  0  0  0  0  0  0  0  0  0  0  0
    0.4675   17.4738   42.6110 C   0  0  0  0  0  0  0  0  0  0  0  0
    0.2574   17.8570   43.9650 N   0  0  0  0  0  0  0  0  0  0  0  0
    2.0350   13.9794   42.7302 H   0  0  0  0  0  0  0  0  0  0  0  0
    3.0318   11.8012   42.1044 H   0  0  0  0  0  0  0  0  0  0  0  0
    3.3498   11.2431   39.7140 H   0  0  0  0  0  0  0  0  0  0  0  0
    1.7163   14.9493   38.5460 H   0  0  0  0  0  0  0  0  0  0  0  0
   -0.8610   19.4846   37.5814 H   0  0  0  0  0  0  0  0  0  0  0  0
    0.9065   19.3875   37.7120 H   0  0  0  0  0  0  0  0  0  0  0  0
    0.0006   17.8595   37.6458 H   0  0  0  0  0  0  0  0  0  0  0  0
   -0.7297   20.1511   42.3885 H   0  0  0  0  0  0  0  0  0  0  0  0
    0.6797   18.7110   44.3967 H   0  0  0  0  0  0  0  0  0  0  0  0
   -0.3608   17.2252   44.5329 H   0  0  0  0  0  0  0  0  0  0  0  0
  1  2  2  0
  1  6  1  0
  2  3  1  0
  3  4  2  0
  4  5  1  0
  5  6  2  0
  6  7  1  0
  7  8  2  0
  7  9  1  0
  8 16  1  0
  9 10  2  0
 10 11  1  0
 10 15  1  0
 11 12  1  0
 11 13  1  0
 13 14  2  0
 14 15  1  0
 15 16  2  0
 16 17  1  0
  1 18  1  0
  2 19  1  0
  3 20  1  0
  5 21  1  0
 12 22  1  0
 12 23  1  0
 12 24  1  0
 14 25  1  0
 17 26  1  0
 17 27  1  0
M  END
>  <mol_id>  (72) 
2026-09-18-6fnk-s0-n100-r8-0072

>  <rmsd_to_ref>  (72) 
3.714285714288005

>  <pose_kind>  (72) 
conformer

$$$$
6fnk.A
     RDKit          3D

 27 29  0  0  0  0  0  0  0  0999 V2000
    1.8561   17.9292   41.2183 C   0  0  0  0  0  0  0  0  0  0  0  0
    2.9413   18.2197   40.3912 C   0  0  0  0  0  0  0  0  0  0  0  0
    4.2352   18.0847   40.8729 C   0  0  0  0  0  0  0  0  0  0  0  0
    4.4500   17.6541   42.1851 N   0  0  0  0  0  0  0  0  0  0  0  0
    3.3565   17.3640   43.0151 C   0  0  0  0  0  0  0  0  0  0  0  0
    2.0561   17.5011   42.5329 C   0  0  0  0  0  0  0  0  0  0  0  0
    0.9681   17.2136   43.3634 C   0  0  0  0  0  0  0  0  0  0  0  0
   -0.2846   17.5031   42.9853 N   0  0  0  0  0  0  0  0  0  0  0  0
    1.1724   16.6352   44.5511 N   0  0  0  0  0  0  0  0  0  0  0  0
    0.1525   16.3514   45.3806 C   0  0  0  0  0  0  0  0  0  0  0  0
    0.1136   15.7990   46.6027 N   0  0  0  0  0  0  0  0  0  0  0  0
    1.2699   15.3342   47.3747 C   0  0  0  0  0  0  0  0  0  0  0  0
   -1.0479   15.7193   47.0047 N   0  0  0  0  0  0  0  0  0  0  0  0
   -1.8434   16.1956   46.0328 C   0  0  0  0  0  0  0  0  0  0  0  0
   -1.0942   16.6240   45.0081 C   0  0  0  0  0  0  0  0  0  0  0  0
   -1.3159   17.2049   43.7970 C   0  0  0  0  0  0  0  0  0  0  0  0
   -2.5734   17.4998   43.3869 N   0  0  0  0  0  0  0  0  0  0  0  0
    0.8323   18.0382   40.8312 H   0  0  0  0  0  0  0  0  0  0  0  0
    2.7711   18.5557   39.3577 H   0  0  0  0  0  0  0  0  0  0  0  0
    5.0915   18.3164   40.2226 H   0  0  0  0  0  0  0  0  0  0  0  0
    3.5259   17.0277   44.0487 H   0  0  0  0  0  0  0  0  0  0  0  0
    1.2416   15.7785   48.3806 H   0  0  0  0  0  0  0  0  0  0  0  0
    1.2390   14.2378   47.4571 H   0  0  0  0  0  0  0  0  0  0  0  0
    2.1966   15.6377   46.8657 H   0  0  0  0  0  0  0  0  0  0  0  0
   -2.9422   16.2288   46.0722 H   0  0  0  0  0  0  0  0  0  0  0  0
   -3.3773   17.2803   43.9923 H   0  0  0  0  0  0  0  0  0  0  0  0
   -2.7253   17.9435   42.4699 H   0  0  0  0  0  0  0  0  0  0  0  0
  1  2  2  0
  1  6  1  0
  2  3  1  0
  3  4  2  0
  4  5  1  0
  5  6  2  0
  6  7  1  0
  7  8  2  0
  7  9  1  0
  8 16  1  0
  9 10  2  0
 10 11  1  0
 10 15  1  0
 11 12  1  0
 11 13  1  0
 13 14  2  0
 14 15  1  0
 15 16  2  0
 16 17  1  0
  1 18  1  0
  2 19  1  0
  3 20  1  0
  5 21  1  0
 12 22  1  0
 12 23  1  0
 12 24  1  0
 14 25  1  0
 17 26  1  0
 17 27  1  0
M  END
>  <mol_id>  (73) 
2026-09-18-6fnk-s0-n100-r8-0073

>  <rmsd_to_ref>  (73) 
3.7602040816372

>  <pose_kind>  (73) 
rigid

$$$$
6fnk.A
     RDKit          3D

 27 29  0  0  0  0  0  0  0  0999 V2000
   -0.1222   13.9440   41.5382 C   0  0  0  0  0  0  0  0  0  0  0  0
    0.0911   12.6062   41.8823 C   0  0  0  0  0  0  0  0  0  0  0  0
    1.3997   12.1867   42.0966 C   0  0  0  0  0  0  0  0  0  0  0  0
    2.4451   13.0333   41.9802 N   0  0  0  0  0  0  0  0  0  0  0  0
    2.2522   14.3420   41.6450 C   0  0  0  0  0  0  0  0  0  0  0  0
    0.9647   14.7877   41.4260 C   0  0  0  0  0  0  0  0  0  0  0  0
    0.7134   16.1877   41.0636 C   0  0  0  0  0  0  0  0  0  0  0  0
   -0.5421   16.6472   40.8441 N   0  0  0  0  0  0  0  0  0  0  0  0
    1.7778   17.0336   40.9490 N   0  0  0  0  0  0  0  0  0  0  0  0
    1.5942   18.3229   40.6193 C   0  0  0  0  0  0  0  0  0  0  0  0
    2.4565   19.3662   40.4393 N   0  0  0  0  0  0  0  0  0  0  0  0
    3.9194   19.2979   40.5814 C   0  0  0  0  0  0  0  0  0  0  0  0
    1.7682   20.4352   40.1200 N   0  0  0  0  0  0  0  0  0  0  0  0
    0.4386   20.1620   40.0725 C   0  0  0  0  0  0  0  0  0  0  0  0
    0.3259   18.8364   40.3855 C   0  0  0  0  0  0  0  0  0  0  0  0
   -0.7515   17.9517   40.5085 C   0  0  0  0  0  0  0  0  0  0  0  0
   -2.0809   18.4094   40.2831 N   0  0  0  0  0  0  0  0  0  0  0  0
   -1.1343   14.3058   41.3634 H   0  0  0  0  0  0  0  0  0  0  0  0
   -0.7216   11.9077   41.9826 H   0  0  0  0  0  0  0  0  0  0  0  0
    1.5412   11.1288   42.3663 H   0  0  0  0  0  0  0  0  0  0  0  0
    3.0680   15.0370   41.5458 H   0  0  0  0  0  0  0  0  0  0  0  0
    4.4394   19.2865   39.6244 H   0  0  0  0  0  0  0  0  0  0  0  0
    4.2132   18.3743   41.1212 H   0  0  0  0  0  0  0  0  0  0  0  0
    4.2869   20.1373   41.2307 H   0  0  0  0  0  0  0  0  0  0  0  0
   -0.3823   20.8345   39.8383 H   0  0  0  0  0  0  0  0  0  0  0  0
   -2.8230   18.3797   41.0430 H   0  0  0  0  0  0  0  0  0  0  0  0
   -2.3774   18.7989   39.3398 H   0  0  0  0  0  0  0  0  0  0  0  0
  1  2  2  0
  1  6  1  0
  2  3  1  0
  3  4  2  0
  4  5  1  0
  5  6  2  0
  6  7  1  0
  7  8  2  0
  7  9  1  0
  8 16  1  0
  9 10  2  0
 10 11  1  0
 10 15  1  0
 11 12  1  0
 11 13  1  0
 13 14  2  0
 14 15  1  0
 15 16  2  0
 16 17  1  0
  1 18  1  0
  2 19  1  0
  3 20  1  0
  5 21  1  0
 12 22  1  0
 12 23  1  0
 12 24  1  0
 14 25  1  0
 17 26  1  0
 17 27  1  0
M  END
>  <mol_id>  (74) 
2026-09-18-6fnk-s0-n100-r8-0074

>  <rmsd_to_ref>  (74) 
3.806122448981279

>  <pose_kind>  (74) 
conformer

$$$$
6fnk.A
     RDKit          3D

 27 29  0  0  0  0  0  0  0  0999 V2000
    4.4474   19.1952   40.6180 C   0  0  0  0  0  0  0  0  0  0  0  0
    5.8132   19.4791   40.6213 C   0  0  0  0  0  0  0  0  0  0  0  0
    6.6645   18.7777   41.4626 C   0  0  0  0  0  0  0  0  0  0  0  0
    6.1533   17.7851   42.3032 N   0  0  0  0  0  0  0  0  0  0  0  0
    4.7788   17.5029   42.2988 C   0  0  0  0  0  0  0  0  0  0  0  0
    3.9223   18.2081   41.4554 C   0  0  0  0  0  0  0  0  0  0  0  0
    2.5524   17.9262   41.4550 C   0  0  0  0  0  0  0  0  0  0  0  0
    1.6878   18.7032   40.7881 N   0  0  0  0  0  0  0  0  0  0  0  0
    2.0917   16.8635   42.1225 N   0  0  0  0  0  0  0  0  0  0  0  0
    0.7806   16.5653   42.1524 C   0  0  0  0  0  0  0  0  0  0  0  0
    0.0951   15.5816   42.7546 N   0  0  0  0  0  0  0  0  0  0  0  0
    0.6672   14.5145   43.5811 C   0  0  0  0  0  0  0  0  0  0  0  0
   -1.1085   15.6823   42.5131 N   0  0  0  0  0  0  0  0  0  0  0  0
   -1.2682   16.7388   41.6992 C   0  0  0  0  0  0  0  0  0  0  0  0
   -0.0824   17.3237   41.4835 C   0  0  0  0  0  0  0  0  0  0  0  0
    0.3757   18.4036   40.7926 C   0  0  0  0  0  0  0  0  0  0  0  0
   -0.4763   19.2003   40.1027 N   0  0  0  0  0  0  0  0  0  0  0  0
    3.7769   19.7546   39.9490 H   0  0  0  0  0  0  0  0  0  0  0  0
    6.2149   20.2585   39.9571 H   0  0  0  0  0  0  0  0  0  0  0  0
    7.7412   19.0028   41.4681 H   0  0  0  0  0  0  0  0  0  0  0  0
    4.3765   16.7234   42.9625 H   0  0  0  0  0  0  0  0  0  0  0  0
    0.1367   14.4721   44.5438 H   0  0  0  0  0  0  0  0  0  0  0  0
    0.5609   13.5510   43.0611 H   0  0  0  0  0  0  0  0  0  0  0  0
    1.7332   14.7198   43.7586 H   0  0  0  0  0  0  0  0  0  0  0  0
   -2.2264   17.0729   41.2746 H   0  0  0  0  0  0  0  0  0  0  0  0
   -1.4844   18.9895   40.0926 H   0  0  0  0  0  0  0  0  0  0  0  0
   -0.1156   20.0166   39.5884 H   0  0  0  0  0  0  0  0  0  0  0  0
  1  2  2  0
  1  6  1  0
  2  3  1  0
  3  4  2  0
  4  5  1  0
  5  6  2  0
  6  7  1  0
  7  8  2  0
  7  9  1  0
  8 16  1  0
  9 10  2  0
 10 11  1  0
 10 15  1  0
 11 12  1  0
 11 13  1  0
 13 14  2  0
 14 15  1  0
 15 16  2  0
 16 17  1  0
  1 18  1  0
  2 19  1  0
  3 20  1  0
  5 21  1  0
 12 22  1  0
 12 23  1  0
 12 24  1  0
 14 25  1  0
 17 26  1  0
 17 27  1  0
M  END
>  <mol_id>  (75) 
2026-09-18-6fnk-s0-n100-r8-0075

>  <rmsd_to_ref>  (75) 
3.852040816332729

>  <pose_kind>  (75) 
rigid

$$$$
6fnk.A
     RDKit          3D

 27 29  0  0  0  0  0  0  0  0999 V2000
    0.2733   15.9628   39.2018 C   0  0  0  0  0  0  0  0  0  0  0  0
   -0.2085   15.3187   38.0601 C   0  0  0  0  0  0  0  0  0  0  0  0
   -1.2956   15.8773   37.4402 C   0  0  0  0  0  0  0  0  0  0  0  0
   -1.8873   17.0090   37.9076 N   0  0  0  0  0  0  0  0  0  0  0  0
   -1.4194   17.6338   39.0156 C   0  0  0  0  0  0  0  0  0  0  0  0
   -0.3273   17.1109   39.6756 C   0  0  0  0  0  0  0  0  0  0  0  0
    0.1943   17.7652   40.8698 C   0  0  0  0  0  0  0  0  0  0  0  0
   -0.3683   18.8775   41.3494 N   0  0  0  0  0  0  0  0  0  0  0  0
    1.2567   17.2534   41.5087 N   0  0  0  0  0  0  0  0  0  0  0  0
    1.7705   17.8127   42.6023 C   0  0  0  0  0  0  0  0  0  0  0  0
    2.8008   17.4884   43.3892 N   0  0  0  0  0  0  0  0  0  0  0  0
    3.6451   16.3390   43.1749 C   0  0  0  0  0  0  0  0  0  0  0  0
    2.9006   18.3825   44.3654 N   0  0  0  0  0  0  0  0  0  0  0  0
    1.9307   19.3135   44.2330 C   0  0  0  0  0  0  0  0  0  0  0  0
    1.1909   18.9630   43.1006 C   0  0  0  0  0  0  0  0  0  0  0  0
    0.0958   19.5073   42.4583 C   0  0  0  0  0  0  0  0  0  0  0  0
   -0.5022   20.6918   42.9704 N   0  0  0  0  0  0  0  0  0  0  0  0
    1.1266   15.5912   39.7535 H   0  0  0  0  0  0  0  0  0  0  0  0
    0.3056   14.4424   37.7582 H   0  0  0  0  0  0  0  0  0  0  0  0
   -1.6653   15.3716   36.5531 H   0  0  0  0  0  0  0  0  0  0  0  0
   -1.9104   18.5243   39.3562 H   0  0  0  0  0  0  0  0  0  0  0  0
    3.0393   15.3928   43.0748 H   0  0  0  0  0  0  0  0  0  0  0  0
    4.2687   16.1601   44.0818 H   0  0  0  0  0  0  0  0  0  0  0  0
    4.2924   16.4383   42.2939 H   0  0  0  0  0  0  0  0  0  0  0  0
    1.7231   20.1770   44.8504 H   0  0  0  0  0  0  0  0  0  0  0  0
   -0.2260   21.5904   42.5322 H   0  0  0  0  0  0  0  0  0  0  0  0
   -1.1896   20.7147   43.7460 H   0  0  0  0  0  0  0  0  0  0  0  0
  1  2  2  0
  1  6  1  0
  2  3  1  0
  3  4  2  0
  4  5  1  0
  5  6  2  0
  6  7  1  0
  7  8  2  0
  7  9  1  0
  8 16  1  0
  9 10  2  0
 10 11  1  0
 10 15  1  0
 11 12  1  0
 11 13  1  0
 13 14  2  0
 14 15  1  0
 15 16  2  0
 16 17  1  0
  1 18  1  0
  2 19  1  0
  3 20  1  0
  5 21  1  0
 12 22  1  0
 12 23  1  0
 12 24  1  0
 14 25  1  0
 17 26  1  0
 17 27  1  0
M  END
>  <mol_id>  (76) 
2026-09-18-6fnk-s0-n100-r8-0076

>  <rmsd_to_ref>  (76) 
3.8979591836770324

>  <pose_kind>  (76) 
conformer

$$$$
6fnk.A
     RDKit          3D

 27 29  0  0  0  0  0  0  0  0999 V2000
    2.1316   18.4856   40.2146 C   0  0  0  0  0  0  0  0  0  0  0  0
    2.1437   18.5837   38.8231 C   0  0  0  0  0  0  0  0  0  0  0  0
    2.2970   17.4424   38.0495 C   0  0  0  0  0  0  0  0  0  0  0  0
    2.4355   16.1954   38.6651 N   0  0  0  0  0  0  0  0  0  0  0  0
    2.4246   16.1001   40.0650 C   0  0  0  0  0  0  0  0  0  0  0  0
    2.2724   17.2461   40.8432 C   0  0  0  0  0  0  0  0  0  0  0  0
    2.2643   17.1482   42.2384 C   0  0  0  0  0  0  0  0  0  0  0  0
    2.2962   18.2451   43.0077 N   0  0  0  0  0  0  0  0  0  0  0  0
    2.2175   15.9458   42.8206 N   0  0  0  0  0  0  0  0  0  0  0  0
    2.2169   15.8113   44.1588 C   0  0  0  0  0  0  0  0  0  0  0  0
    2.1913   14.7313   44.9545 N   0  0  0  0  0  0  0  0  0  0  0  0
    2.1481   13.3350   44.5100 C   0  0  0  0  0  0  0  0  0  0  0  0
    2.1993   15.0667   46.1397 N   0  0  0  0  0  0  0  0  0  0  0  0
    2.1982   16.4094   46.1775 C   0  0  0  0  0  0  0  0  0  0  0  0
    2.2359   16.8945   44.9292 C   0  0  0  0  0  0  0  0  0  0  0  0
    2.2747   18.1250   44.3481 C   0  0  0  0  0  0  0  0  0  0  0  0
    2.2985   19.2502   45.1029 N   0  0  0  0  0  0  0  0  0  0  0  0
    2.0099   19.3938   40.8231 H   0  0  0  0  0  0  0  0  0  0  0  0
    2.0316   19.5653   38.3396 H   0  0  0  0  0  0  0  0  0  0  0  0
    2.3097   17.5190   36.9522 H   0  0  0  0  0  0  0  0  0  0  0  0
    2.5363   15.1187   40.5491 H   0  0  0  0  0  0  0  0  0  0  0  0
    2.9507   12.7679   45.0041 H   0  0  0  0  0  0  0  0  0  0  0  0
    1.1741   12.8965   44.7727 H   0  0  0  0  0  0  0  0  0  0  0  0
    2.2871   13.2929   43.4196 H   0  0  0  0  0  0  0  0  0  0  0  0
    2.1706   17.0178   47.0935 H   0  0  0  0  0  0  0  0  0  0  0  0
    2.2828   19.1814   46.1305 H   0  0  0  0  0  0  0  0  0  0  0  0
    2.3323   20.1742   44.6490 H   0  0  0  0  0  0  0  0  0  0  0  0
  1  2  2  0
  1  6  1  0
  2  3  1  0
  3  4  2  0
  4  5  1  0
  5  6  2  0
  6  7  1  0
  7  8  2  0
  7  9  1  0
  8 16  1  0
  9 10  2  0
 10 11  1  0
 10 15  1  0
 11 12  1  0
 11 13  1  0
 13 14  2  0
 14 15  1  0
 15 16  2  0
 16 17  1  0
  1 18  1  0
  2 19  1  0
  3 20  1  0
  5 21  1  0
 12 22  1  0
 12 23  1  0
 12 24  1  0
 14 25  1  0
 17 26  1  0
 17 27  1  0
M  END
>  <mol_id>  (77) 
2026-09-18-6fnk-s0-n100-r8-0077

>  <rmsd_to_ref>  (77) 
3.9438775510249595

>  <pose_kind>  (77) 
rigid

$$$$
6fnk.A
     RDKit          3D

 27 29  0  0  0  0  0  0  0  0999 V2000
   -0.1370   17.0333   42.8812 C   0  0  0  0  0  0  0  0  0  0  0  0
   -0.4107   16.1861   41.8195 C   0  0  0  0  0  0  0  0  0  0  0  0
    0.6550   15.6515   41.1026 C   0  0  0  0  0  0  0  0  0  0  0  0
    1.9324   15.9347   41.4125 N   0  0  0  0  0  0  0  0  0  0  0  0
    2.1968   16.7569   42.4428 C   0  0  0  0  0  0  0  0  0  0  0  0
    1.1710   17.3243   43.1997 C   0  0  0  0  0  0  0  0  0  0  0  0
    1.4752   18.2147   44.3150 C   0  0  0  0  0  0  0  0  0  0  0  0
    0.5289   18.7900   45.0789 N   0  0  0  0  0  0  0  0  0  0  0  0
    2.7580   18.4820   44.6046 N   0  0  0  0  0  0  0  0  0  0  0  0
    3.1331   19.2881   45.6105 C   0  0  0  0  0  0  0  0  0  0  0  0
    4.3221   19.7004   46.0871 N   0  0  0  0  0  0  0  0  0  0  0  0
    5.6307   19.3317   45.5710 C   0  0  0  0  0  0  0  0  0  0  0  0
    4.1182   20.4968   47.1026 N   0  0  0  0  0  0  0  0  0  0  0  0
    2.7943   20.6431   47.3380 C   0  0  0  0  0  0  0  0  0  0  0  0
    2.1560   19.8722   46.3866 C   0  0  0  0  0  0  0  0  0  0  0  0
    0.8287   19.6125   46.1083 C   0  0  0  0  0  0  0  0  0  0  0  0
   -0.2043   20.1982   46.8886 N   0  0  0  0  0  0  0  0  0  0  0  0
   -0.9665   17.4502   43.4402 H   0  0  0  0  0  0  0  0  0  0  0  0
   -1.4503   15.9527   41.5637 H   0  0  0  0  0  0  0  0  0  0  0  0
    0.4751   14.9817   40.2619 H   0  0  0  0  0  0  0  0  0  0  0  0
    3.2450   16.9749   42.6789 H   0  0  0  0  0  0  0  0  0  0  0  0
    5.5491   18.7281   44.6431 H   0  0  0  0  0  0  0  0  0  0  0  0
    6.2277   18.7502   46.2828 H   0  0  0  0  0  0  0  0  0  0  0  0
    6.2293   20.2293   45.2739 H   0  0  0  0  0  0  0  0  0  0  0  0
    2.3234   21.2402   48.1114 H   0  0  0  0  0  0  0  0  0  0  0  0
   -0.3354   21.2479   46.8475 H   0  0  0  0  0  0  0  0  0  0  0  0
   -0.8290   19.6016   47.4969 H   0  0  0  0  0  0  0  0  0  0  0  0
  1  2  2  0
  1  6  1  0
  2  3  1  0
  3  4  2  0
  4  5  1  0
  5  6  2  0
  6  7  1  0
  7  8  2  0
  7  9  1  0
  8 16  1  0
  9 10  2  0
 10 11  1  0
 10 15  1  0
 11 12  1  0
 11 13  1  0
 13 14  2  0
 14 15  1  0
 15 16  2  0
 16 17  1  0
  1 18  1  0
  2 19  1  0
  3 20  1  0
  5 21  1  0
 12 22  1  0
 12 23  1  0
 12 24  1  0
 14 25  1  0
 17 26  1  0
 17 27  1  0
M  END
>  <mol_id>  (78) 
2026-09-18-6fnk-s0-n100-r8-0078

>  <rmsd_to_ref>  (78) 
3.989795918368969

>  <pose_kind>  (78) 
conformer

$$$$
6fnk.A
     RDKit          3D

 27 29  0  0  0  0  0  0  0  0999 V2000
   -1.7492   15.5998   43.3014 C   0  0  0  0  0  0  0  0  0  0  0  0
   -2.7240   14.6714   43.6670 C   0  0  0  0  0  0  0  0  0  0  0  0
   -2.5848   13.9471   44.8419 C   0  0  0  0  0  0  0  0  0  0  0  0
   -1.4700   14.1512   45.6597 N   0  0  0  0  0  0  0  0  0  0  0  0
   -0.4903   15.0846   45.2885 C   0  0  0  0  0  0  0  0  0  0  0  0
   -0.6281   15.8115   44.1075 C   0  0  0  0  0  0  0  0  0  0  0  0
    0.3512   16.7395   43.7390 C   0  0  0  0  0  0  0  0  0  0  0  0
    0.3327   17.3201   42.5312 N   0  0  0  0  0  0  0  0  0  0  0  0
    1.3200   17.0623   44.6017 N   0  0  0  0  0  0  0  0  0  0  0  0
    2.2838   17.9437   44.2803 C   0  0  0  0  0  0  0  0  0  0  0  0
    3.3456   18.4033   44.9597 N   0  0  0  0  0  0  0  0  0  0  0  0
    3.7259   18.0227   46.3233 C   0  0  0  0  0  0  0  0  0  0  0  0
    3.9752   19.2154   44.2806 N   0  0  0  0  0  0  0  0  0  0  0  0
    3.3252   19.3531   43.1132 C   0  0  0  0  0  0  0  0  0  0  0  0
    2.2658   18.5334   43.0890 C   0  0  0  0  0  0  0  0  0  0  0  0
    1.2792   18.2196   42.2050 C   0  0  0  0  0  0  0  0  0  0  0  0
    1.2324   18.7988   40.9807 N   0  0  0  0  0  0  0  0  0  0  0  0
   -1.8645   16.1713   42.3685 H   0  0  0  0  0  0  0  0  0  0  0  0
   -3.6025   14.5137   43.0240 H   0  0  0  0  0  0  0  0  0  0  0  0
   -3.3514   13.2125   45.1296 H   0  0  0  0  0  0  0  0  0  0  0  0
    0.3883   15.2430   45.9311 H   0  0  0  0  0  0  0  0  0  0  0  0
    4.7806   17.7105   46.3361 H   0  0  0  0  0  0  0  0  0  0  0  0
    3.5900   18.8828   46.9954 H   0  0  0  0  0  0  0  0  0  0  0  0
    3.0926   17.1894   46.6615 H   0  0  0  0  0  0  0  0  0  0  0  0
    3.6179   20.0349   42.3012 H   0  0  0  0  0  0  0  0  0  0  0  0
    1.9467   19.4898   40.7103 H   0  0  0  0  0  0  0  0  0  0  0  0
    0.4824   18.5481   40.3207 H   0  0  0  0  0  0  0  0  0  0  0  0
  1  2  2  0
  1  6  1  0
  2  3  1  0
  3  4  2  0
  4  5  1  0
  5  6  2  0
  6  7  1  0
  7  8  2  0
  7  9  1  0
  8 16  1  0
  9 10  2  0
 10 11  1  0
 10 15  1  0
 11 12  1  0
 11 13  1  0
 13 14  2  0
 14 15  1  0
 15 16  2  0
 16 17  1  0
  1 18  1  0
  2 19  1  0
  3 20  1  0
  5 21  1  0
 12 22  1  0
 12 23  1  0
 12 24  1  0
 14 25  1  0
 17 26  1  0
 17 27  1  0
M  END
>  <mol_id>  (79) 
2026-09-18-6fnk-s0-n100-r8-0079

>  <rmsd_to_ref>  (79) 
4.035714285718675

>  <pose_kind>  (79) 
rigid

$$$$
6fnk.A
     RDKit          3D

 27 29  0  0  0  0  0  0  0  0999 V2000
    0.4993   14.8270   44.9633 C   0  0  0  0  0  0  0  0  0  0  0  0
   -0.5211   13.8995   45.1254 C   0  0  0  0  0  0  0  0  0  0  0  0
   -1.5516   13.7593   44.2193 C   0  0  0  0  0  0  0  0  0  0  0  0
   -1.5890   14.5548   43.1113 N   0  0  0  0  0  0  0  0  0  0  0  0
   -0.6009   15.4723   42.9284 C   0  0  0  0  0  0  0  0  0  0  0  0
    0.4317   15.6164   43.8314 C   0  0  0  0  0  0  0  0  0  0  0  0
    1.4625   16.6076   43.5949 C   0  0  0  0  0  0  0  0  0  0  0  0
    1.4425   17.3990   42.5110 N   0  0  0  0  0  0  0  0  0  0  0  0
    2.4806   16.7699   44.4582 N   0  0  0  0  0  0  0  0  0  0  0  0
    3.4540   17.6798   44.2700 C   0  0  0  0  0  0  0  0  0  0  0  0
    4.5373   17.9995   44.9911 N   0  0  0  0  0  0  0  0  0  0  0  0
    4.9342   17.3854   46.2372 C   0  0  0  0  0  0  0  0  0  0  0  0
    5.2072   18.9733   44.3948 N   0  0  0  0  0  0  0  0  0  0  0  0
    4.5495   19.2957   43.2633 C   0  0  0  0  0  0  0  0  0  0  0  0
    3.4360   18.4885   43.1648 C   0  0  0  0  0  0  0  0  0  0  0  0
    2.3954   18.3294   42.2736 C   0  0  0  0  0  0  0  0  0  0  0  0
    2.3558   19.1601   41.1159 N   0  0  0  0  0  0  0  0  0  0  0  0
    1.3069   14.9554   45.6485 H   0  0  0  0  0  0  0  0  0  0  0  0
   -0.4859   13.2715   46.0061 H   0  0  0  0  0  0  0  0  0  0  0  0
   -2.3515   13.0385   44.3380 H   0  0  0  0  0  0  0  0  0  0  0  0
   -0.6774   16.0857   42.0234 H   0  0  0  0  0  0  0  0  0  0  0  0
    4.0862   16.7592   46.6324 H   0  0  0  0  0  0  0  0  0  0  0  0
    5.8267   16.7568   46.0315 H   0  0  0  0  0  0  0  0  0  0  0  0
    5.2429   18.1454   46.9834 H   0  0  0  0  0  0  0  0  0  0  0  0
    4.8310   20.0593   42.5368 H   0  0  0  0  0  0  0  0  0  0  0  0
    2.9659   18.9416   40.2789 H   0  0  0  0  0  0  0  0  0  0  0  0
    1.7298   20.0083   41.0487 H   0  0  0  0  0  0  0  0  0  0  0  0
  1  2  2  0
  1  6  1  0
  2  3  1  0
  3  4  2  0
  4  5  1  0
  5  6  2  0
  6  7  1  0
  7  8  2  0
  7  9  1  0
  8 16  1  0
  9 10  2  0
 10 11  1  0
 10 15  1  0
 11 12  1  0
 11 13  1  0
 13 14  2  0
 14 15  1  0
 15 16  2  0
 16 17  1  0
  1 18  1  0
  2 19  1  0
  3 20  1  0
  5 21  1  0
 12 22  1  0
 12 23  1  0
 12 24  1  0
 14 25  1  0
 17 26  1  0
 17 27  1  0
M  END
>  <mol_id>  (80) 
2026-09-18-6fnk-s0-n100-r8-0080

>  <rmsd_to_ref>  (80) 
4.081632653064797

>  <pose_kind>  (80) 
conformer

$$$$
6fnk.A
     RDKit          3D

 27 29  0  0  0  0  0  0  0  0999 V2000
   -0.9242   15.7165   41.8838 C   0  0  0  0  0  0  0  0  0  0  0  0
   -1.4095   14.7824   42.7992 C   0  0  0  0  0  0  0  0  0  0  0  0
   -0.9500   14.7916   44.1080 C   0  0  0  0  0  0  0  0  0  0  0  0
   -0.0042   15.7392   44.5090 N   0  0  0  0  0  0  0  0  0  0  0  0
    0.4833   16.6766   43.5856 C   0  0  0  0  0  0  0  0  0  0  0  0
    0.0238   16.6671   42.2700 C   0  0  0  0  0  0  0  0  0  0  0  0
    0.5134   17.6011   41.3513 C   0  0  0  0  0  0  0  0  0  0  0  0
    0.2229   17.5040   40.0466 N   0  0  0  0  0  0  0  0  0  0  0  0
    1.2780   18.6127   41.7745 N   0  0  0  0  0  0  0  0  0  0  0  0
    1.7741   19.5253   40.9201 C   0  0  0  0  0  0  0  0  0  0  0  0
    2.5611   20.5962   41.1046 N   0  0  0  0  0  0  0  0  0  0  0  0
    3.0997   21.0582   42.3873 C   0  0  0  0  0  0  0  0  0  0  0  0
    2.7744   21.1660   40.0336 N   0  0  0  0  0  0  0  0  0  0  0  0
    2.0981   20.5009   39.0826 C   0  0  0  0  0  0  0  0  0  0  0  0
    1.4807   19.4434   39.6261 C   0  0  0  0  0  0  0  0  0  0  0  0
    0.6957   18.4227   39.1841 C   0  0  0  0  0  0  0  0  0  0  0  0
    0.3797   18.3066   37.8714 N   0  0  0  0  0  0  0  0  0  0  0  0
   -1.2918   15.7044   40.8472 H   0  0  0  0  0  0  0  0  0  0  0  0
   -2.1561   14.0389   42.4833 H   0  0  0  0  0  0  0  0  0  0  0  0
   -1.3298   14.0536   44.8299 H   0  0  0  0  0  0  0  0  0  0  0  0
    1.2297   17.4205   43.9009 H   0  0  0  0  0  0  0  0  0  0  0  0
    4.1879   21.1933   42.3008 H   0  0  0  0  0  0  0  0  0  0  0  0
    2.6317   22.0163   42.6578 H   0  0  0  0  0  0  0  0  0  0  0  0
    2.8836   20.3119   43.1660 H   0  0  0  0  0  0  0  0  0  0  0  0
    2.0572   20.7818   38.0199 H   0  0  0  0  0  0  0  0  0  0  0  0
    0.7307   18.9986   37.1940 H   0  0  0  0  0  0  0  0  0  0  0  0
   -0.2116   17.5265   37.5511 H   0  0  0  0  0  0  0  0  0  0  0  0
  1  2  2  0
  1  6  1  0
  2  3  1  0
  3  4  2  0
  4  5  1  0
  5  6  2  0
  6  7  1  0
  7  8  2  0
  7  9  1  0
  8 16  1  0
  9 10  2  0
 10 11  1  0
 10 15  1  0
 11 12  1  0
 11 13  1  0
 13 14  2  0
 14 15  1  0
 15 16  2  0
 16 17  1  0
  1 18  1  0
  2 19  1  0
  3 20  1  0
  5 21  1  0
 12 22  1  0
 12 23  1  0
 12 24  1  0
 14 25  1  0
 17 26  1  0
 17 27  1  0
M  END
>  <mol_id>  (81) 
2026-09-18-6fnk-s0-n100-r8-0081

>  <rmsd_to_ref>  (81) 
4.127551020412495

>  <pose_kind>  (81) 
rigid

$$$$
6fnk.A
     RDKit          3D

 27 29  0  0  0  0  0  0  0  0999 V2000
    3.1580   16.4182   40.8899 C   0  0  0  0  0  0  0  0  0  0  0  0
    4.3716   16.8266   40.3501 C   0  0  0  0  0  0  0  0  0  0  0  0
    4.8615   18.0762   40.6710 C   0  0  0  0  0  0  0  0  0  0  0  0
    4.2141   18.9253   41.4888 N   0  0  0  0  0  0  0  0  0  0  0  0
    3.0385   18.5505   42.0221 C   0  0  0  0  0  0  0  0  0  0  0  0
    2.4919   17.3029   41.7369 C   0  0  0  0  0  0  0  0  0  0  0  0
    1.2144   16.9312   42.3340 C   0  0  0  0  0  0  0  0  0  0  0  0
    0.6157   17.8239   43.1438 N   0  0  0  0  0  0  0  0  0  0  0  0
    0.6863   15.7246   42.0578 N   0  0  0  0  0  0  0  0  0  0  0  0
   -0.5063   15.3587   42.6059 C   0  0  0  0  0  0  0  0  0  0  0  0
   -1.2605   14.2458   42.5145 N   0  0  0  0  0  0  0  0  0  0  0  0
   -0.9491   13.0567   41.7334 C   0  0  0  0  0  0  0  0  0  0  0  0
   -2.3418   14.4311   43.2683 N   0  0  0  0  0  0  0  0  0  0  0  0
   -2.3012   15.6419   43.8449 C   0  0  0  0  0  0  0  0  0  0  0  0
   -1.1454   16.2514   43.4404 C   0  0  0  0  0  0  0  0  0  0  0  0
   -0.5756   17.4987   43.7112 C   0  0  0  0  0  0  0  0  0  0  0  0
   -1.2167   18.4273   44.5648 N   0  0  0  0  0  0  0  0  0  0  0  0
    2.7430   15.4513   40.6636 H   0  0  0  0  0  0  0  0  0  0  0  0
    4.8788   16.1423   39.6998 H   0  0  0  0  0  0  0  0  0  0  0  0
    5.8073   18.4007   40.2534 H   0  0  0  0  0  0  0  0  0  0  0  0
    2.5459   19.2643   42.6781 H   0  0  0  0  0  0  0  0  0  0  0  0
   -1.8351   12.4020   41.7225 H   0  0  0  0  0  0  0  0  0  0  0  0
   -0.7333   13.3441   40.6856 H   0  0  0  0  0  0  0  0  0  0  0  0
   -0.0401   12.5528   42.1033 H   0  0  0  0  0  0  0  0  0  0  0  0
   -3.0149   16.1155   44.5169 H   0  0  0  0  0  0  0  0  0  0  0  0
   -1.4520   19.3707   44.1791 H   0  0  0  0  0  0  0  0  0  0  0  0
   -1.4736   18.2369   45.5592 H   0  0  0  0  0  0  0  0  0  0  0  0
  1  2  2  0
  1  6  1  0
  2  3  1  0
  3  4  2  0
  4  5  1  0
  5  6  2  0
  6  7  1  0
  7  8  2  0
  7  9  1  0
  8 16  1  0
  9 10  2  0
 10 11  1  0
 10 15  1  0
 11 12  1  0
 11 13  1  0
 13 14  2  0
 14 15  1  0
 15 16  2  0
 16 17  1  0
  1 18  1  0
  2 19  1  0
  3 20  1  0
  5 21  1  0
 12 22  1  0
 12 23  1  0
 12 24  1  0
 14 25  1  0
 17 26  1  0
 17 27  1  0
M  END
>  <mol_id>  (82) 
2026-09-18-6fnk-s0-n100-r8-0082

>  <rmsd_to_ref>  (82) 
4.173469387760217

>  <pose_kind>  (82) 
conformer

$$$$
6fnk.A
     RDKit          3D

 27 29  0  0  0  0  0  0  0  0999 V2000
    3.6237   19.0017   41.7102 C   0  0  0  0  0  0  0  0  0  0  0  0
    3.7953   19.4158   40.3892 C   0  0  0  0  0  0  0  0  0  0  0  0
    3.2449   18.6745   39.3538 C   0  0  0  0  0  0  0  0  0  0  0  0
    2.5160   17.5158   39.6357 N   0  0  0  0  0  0  0  0  0  0  0  0
    2.3464   17.1010   40.9654 C   0  0  0  0  0  0  0  0  0  0  0  0
    2.9004   17.8438   42.0063 C   0  0  0  0  0  0  0  0  0  0  0  0
    2.7316   17.4266   43.3305 C   0  0  0  0  0  0  0  0  0  0  0  0
    3.3968   18.0197   44.3314 N   0  0  0  0  0  0  0  0  0  0  0  0
    1.8908   16.4257   43.6106 N   0  0  0  0  0  0  0  0  0  0  0  0
    1.7088   15.9911   44.8702 C   0  0  0  0  0  0  0  0  0  0  0  0
    0.9466   15.0133   45.3833 N   0  0  0  0  0  0  0  0  0  0  0  0
    0.0595   14.1256   44.6257 C   0  0  0  0  0  0  0  0  0  0  0  0
    1.0803   14.9572   46.6065 N   0  0  0  0  0  0  0  0  0  0  0  0
    1.9287   15.9355   46.9635 C   0  0  0  0  0  0  0  0  0  0  0  0
    2.3553   16.5820   45.8703 C   0  0  0  0  0  0  0  0  0  0  0  0
    3.2076   17.6082   45.5988 C   0  0  0  0  0  0  0  0  0  0  0  0
    3.8855   18.2309   46.5934 N   0  0  0  0  0  0  0  0  0  0  0  0
    4.0624   19.5932   42.5273 H   0  0  0  0  0  0  0  0  0  0  0  0
    4.3667   20.3295   40.1686 H   0  0  0  0  0  0  0  0  0  0  0  0
    3.3822   18.9984   38.3116 H   0  0  0  0  0  0  0  0  0  0  0  0
    1.7749   16.1875   41.1867 H   0  0  0  0  0  0  0  0  0  0  0  0
    0.2819   13.0793   44.8818 H   0  0  0  0  0  0  0  0  0  0  0  0
   -0.9872   14.3505   44.8783 H   0  0  0  0  0  0  0  0  0  0  0  0
    0.2182   14.2811   43.5483 H   0  0  0  0  0  0  0  0  0  0  0  0
    2.2275   16.1701   47.9958 H   0  0  0  0  0  0  0  0  0  0  0  0
    3.7558   17.9321   47.5705 H   0  0  0  0  0  0  0  0  0  0  0  0
    4.5304   19.0029   46.3721 H   0  0  0  0  0  0  0  0  0  0  0  0
  1  2  2  0
  1  6  1  0
  2  3  1  0
  3  4  2  0
  4  5  1  0
  5  6  2  0
  6  7  1  0
  7  8  2  0
  7  9  1  0
  8 16  1  0
  9 10  2  0
 10 11  1  0
 10 15  1  0
 11 12  1  0
 11 13  1  0
 13 14  2  0
 14 15  1  0
 15 16  2  0
 16 17  1  0
  1 18  1  0
  2 19  1  0
  3 20  1  0
  5 21  1  0
 12 22  1  0
 12 23  1  0
 12 24  1  0
 14 25  1  0
 17 26  1  0
 17 27  1  0
M  END
>  <mol_id>  (83) 
2026-09-18-6fnk-s0-n100-r8-0083

>  <rmsd_to_ref>  (83) 
4.219387755103836

>  <pose_kind>  (83) 
rigid

$$$$
6fnk.A
     RDKit          3D

 27 29  0  0  0  0  0  0  0  0999 V2000
    5.2362   19.3359   43.8319 C   0  0  0  0  0  0  0  0  0  0  0  0
    6.5134   19.4835   44.3051 C   0  0  0  0  0  0  0  0  0  0  0  0
    7.2331   18.3234   44.6034 C   0  0  0  0  0  0  0  0  0  0  0  0
    6.6595   17.1009   44.4203 N   0  0  0  0  0  0  0  0  0  0  0  0
    5.4047   16.9683   43.9550 C   0  0  0  0  0  0  0  0  0  0  0  0
    4.6678   18.0884   43.6513 C   0  0  0  0  0  0  0  0  0  0  0  0
    3.2985   17.9726   43.1428 C   0  0  0  0  0  0  0  0  0  0  0  0
    2.5508   19.0490   42.8362 N   0  0  0  0  0  0  0  0  0  0  0  0
    2.7690   16.7475   42.9761 N   0  0  0  0  0  0  0  0  0  0  0  0
    1.5274   16.5731   42.5168 C   0  0  0  0  0  0  0  0  0  0  0  0
    0.7875   15.4759   42.2683 N   0  0  0  0  0  0  0  0  0  0  0  0
    1.2968   14.1209   42.4929 C   0  0  0  0  0  0  0  0  0  0  0  0
   -0.4033   15.8353   41.8144 N   0  0  0  0  0  0  0  0  0  0  0  0
   -0.4811   17.1860   41.7511 C   0  0  0  0  0  0  0  0  0  0  0  0
    0.7309   17.6765   42.1913 C   0  0  0  0  0  0  0  0  0  0  0  0
    1.2929   18.9247   42.3695 C   0  0  0  0  0  0  0  0  0  0  0  0
    0.5232   20.0788   42.0528 N   0  0  0  0  0  0  0  0  0  0  0  0
    4.6918   20.2509   43.6053 H   0  0  0  0  0  0  0  0  0  0  0  0
    6.9338   20.4627   44.4373 H   0  0  0  0  0  0  0  0  0  0  0  0
    8.2599   18.4119   44.9847 H   0  0  0  0  0  0  0  0  0  0  0  0
    5.0246   15.9767   43.8382 H   0  0  0  0  0  0  0  0  0  0  0  0
    1.0859   13.7579   43.5246 H   0  0  0  0  0  0  0  0  0  0  0  0
    0.7300   13.4357   41.8104 H   0  0  0  0  0  0  0  0  0  0  0  0
    2.3408   14.0232   42.2010 H   0  0  0  0  0  0  0  0  0  0  0  0
   -1.3064   17.8066   41.4271 H   0  0  0  0  0  0  0  0  0  0  0  0
   -0.5129   20.0064   41.9433 H   0  0  0  0  0  0  0  0  0  0  0  0
    1.0329   20.9985   41.9343 H   0  0  0  0  0  0  0  0  0  0  0  0
  1  2  2  0
  1  6  1  0
  2  3  1  0
  3  4  2  0
  4  5  1  0
  5  6  2  0
  6  7  1  0
  7  8  2  0
  7  9  1  0
  8 16  1  0
  9 10  2  0
 10 11  1  0
 10 15  1  0
 11 12  1  0
 11 13  1  0
 13 14  2  0
 14 15  1  0
 15 16  2  0
 16 17  1  0
  1 18  1  0
  2 19  1  0
  3 20  1  0
  5 21  1  0
 12 22  1  0
 12 23  1  0
 12 24  1  0
 14 25  1  0
 17 26  1  0
 17 27  1  0
M  END
>  <mol_id>  (84) 
2026-09-18-6fnk-s0-n100-r8-0084

>  <rmsd_to_ref>  (84) 
4.26530612245192

>  <pose_kind>  (84) 
conformer

$$$$
6fnk.A
     RDKit          3D

 27 29  0  0  0  0  0  0  0  0999 V2000
    2.4866   19.8301   43.5155 C   0  0  0  0  0  0  0  0  0  0  0  0
    3.4248   19.7702   44.5462 C   0  0  0  0  0  0  0  0  0  0  0  0
    3.3770   18.7338   45.4671 C   0  0  0  0  0  0  0  0  0  0  0  0
    2.3914   17.7489   45.3588 N   0  0  0  0  0  0  0  0  0  0  0  0
    1.4481   17.8127   44.3220 C   0  0  0  0  0  0  0  0  0  0  0  0
    1.4939   18.8544   43.3974 C   0  0  0  0  0  0  0  0  0  0  0  0
    0.5510   18.9166   42.3664 C   0  0  0  0  0  0  0  0  0  0  0  0
    0.4641   19.9939   41.5740 N   0  0  0  0  0  0  0  0  0  0  0  0
   -0.2755   17.8868   42.1577 N   0  0  0  0  0  0  0  0  0  0  0  0
   -1.2009   17.9134   41.1821 C   0  0  0  0  0  0  0  0  0  0  0  0
   -2.1316   17.0255   40.8003 N   0  0  0  0  0  0  0  0  0  0  0  0
   -2.3680   15.7116   41.4060 C   0  0  0  0  0  0  0  0  0  0  0  0
   -2.7761   17.4585   39.8441 N   0  0  0  0  0  0  0  0  0  0  0  0
   -2.2673   18.6606   39.5275 C   0  0  0  0  0  0  0  0  0  0  0  0
   -1.2855   18.9730   40.3838 C   0  0  0  0  0  0  0  0  0  0  0  0
   -0.4434   20.0245   40.5806 C   0  0  0  0  0  0  0  0  0  0  0  0
   -0.5042   21.1220   39.7881 N   0  0  0  0  0  0  0  0  0  0  0  0
    2.5290   20.6543   42.7882 H   0  0  0  0  0  0  0  0  0  0  0  0
    4.2019   20.5443   44.6286 H   0  0  0  0  0  0  0  0  0  0  0  0
    4.1145   18.6872   46.2819 H   0  0  0  0  0  0  0  0  0  0  0  0
    0.6709   17.0387   44.2388 H   0  0  0  0  0  0  0  0  0  0  0  0
   -3.4338   15.6108   41.6586 H   0  0  0  0  0  0  0  0  0  0  0  0
   -2.0838   14.9231   40.6937 H   0  0  0  0  0  0  0  0  0  0  0  0
   -1.7638   15.6152   42.3201 H   0  0  0  0  0  0  0  0  0  0  0  0
   -2.6051   19.2920   38.6926 H   0  0  0  0  0  0  0  0  0  0  0  0
   -1.1911   21.1665   39.0219 H   0  0  0  0  0  0  0  0  0  0  0  0
    0.1365   21.9117   39.9519 H   0  0  0  0  0  0  0  0  0  0  0  0
  1  2  2  0
  1  6  1  0
  2  3  1  0
  3  4  2  0
  4  5  1  0
  5  6  2  0
  6  7  1  0
  7  8  2  0
  7  9  1  0
  8 16  1  0
  9 10  2  0
 10 11  1  0
 10 15  1  0
 11 12  1  0
 11 13  1  0
 13 14  2  0
 14 15  1  0
 15 16  2  0
 16 17  1  0
  1 18  1  0
  2 19  1  0
  3 20  1  0
  5 21  1  0
 12 22  1  0
 12 23  1  0
 12 24  1  0
 14 25  1  0
 17 26  1  0
 17 27  1  0
M  END
>  <mol_id>  (85) 
2026-09-18-6fnk-s0-n100-r8-0085

>  <rmsd_to_ref>  (85) 
4.311224489798026

>  <pose_kind>  (85) 
rigid

$$$$
6fnk.A
     RDKit          3D

 27 29  0  0  0  0  0  0  0  0999 V2000
    3.8710   19.4483   42.1029 C   0  0  0  0  0  0  0  0  0  0  0  0
    4.7093   20.0416   41.1795 C   0  0  0  0  0  0  0  0  0  0  0  0
    4.2084   21.0853   40.3970 C   0  0  0  0  0  0  0  0  0  0  0  0
    2.9366   21.5184   40.5256 N   0  0  0  0  0  0  0  0  0  0  0  0
    2.1221   20.9292   41.4349 C   0  0  0  0  0  0  0  0  0  0  0  0
    2.5637   19.8851   42.2431 C   0  0  0  0  0  0  0  0  0  0  0  0
    1.6430   19.2878   43.2053 C   0  0  0  0  0  0  0  0  0  0  0  0
    0.3964   19.7913   43.2560 N   0  0  0  0  0  0  0  0  0  0  0  0
    2.0753   18.2836   43.9794 N   0  0  0  0  0  0  0  0  0  0  0  0
    1.2056   17.7339   44.8746 C   0  0  0  0  0  0  0  0  0  0  0  0
    1.3234   16.7289   45.7834 N   0  0  0  0  0  0  0  0  0  0  0  0
    2.5194   15.9262   46.0399 C   0  0  0  0  0  0  0  0  0  0  0  0
    0.1734   16.5755   46.4199 N   0  0  0  0  0  0  0  0  0  0  0  0
   -0.7151   17.4725   45.9424 C   0  0  0  0  0  0  0  0  0  0  0  0
   -0.0877   18.2172   44.9644 C   0  0  0  0  0  0  0  0  0  0  0  0
   -0.4606   19.2488   44.1389 C   0  0  0  0  0  0  0  0  0  0  0  0
   -1.7946   19.7535   44.2256 N   0  0  0  0  0  0  0  0  0  0  0  0
    4.2350   18.6252   42.7332 H   0  0  0  0  0  0  0  0  0  0  0  0
    5.7410   19.6950   41.0706 H   0  0  0  0  0  0  0  0  0  0  0  0
    4.9138   21.5081   39.6929 H   0  0  0  0  0  0  0  0  0  0  0  0
    1.0892   21.3010   41.5202 H   0  0  0  0  0  0  0  0  0  0  0  0
    2.7549   15.9177   47.1375 H   0  0  0  0  0  0  0  0  0  0  0  0
    2.4217   14.9087   45.6520 H   0  0  0  0  0  0  0  0  0  0  0  0
    3.3680   16.4034   45.4854 H   0  0  0  0  0  0  0  0  0  0  0  0
   -1.7527   17.6328   46.2315 H   0  0  0  0  0  0  0  0  0  0  0  0
   -2.4529   19.7542   43.4026 H   0  0  0  0  0  0  0  0  0  0  0  0
   -2.0847   20.1298   45.1732 H   0  0  0  0  0  0  0  0  0  0  0  0
  1  2  2  0
  1  6  1  0
  2  3  1  0
  3  4  2  0
  4  5  1  0
  5  6  2  0
  6  7  1  0
  7  8  2  0
  7  9  1  0
  8 16  1  0
  9 10  2  0
 10 11  1  0
 10 15  1  0
 11 12  1  0
 11 13  1  0
 13 14  2  0
 14 15  1  0
 15 16  2  0
 16 17  1  0
  1 18  1  0
  2 19  1  0
  3 20  1  0
  5 21  1  0
 12 22  1  0
 12 23  1  0
 12 24  1  0
 14 25  1  0
 17 26  1  0
 17 27  1  0
M  END
>  <mol_id>  (86) 
2026-09-18-6fnk-s0-n100-r8-0086

>  <rmsd_to_ref>  (86) 
4.357142857146785

>  <pose_kind>  (86) 
conformer

$$$$
6fnk.A
     RDKit          3D

 27 29  0  0  0  0  0  0  0  0999 V2000
    1.8753   14.7204   41.2639 C   0  0  0  0  0  0  0  0  0  0  0  0
    1.9817   14.5535   39.8830 C   0  0  0  0  0  0  0  0  0  0  0  0
    2.9047   15.2989   39.1642 C   0  0  0  0  0  0  0  0  0  0  0  0
    3.7295   16.2136   39.8249 N   0  0  0  0  0  0  0  0  0  0  0  0
    3.6191   16.3804   41.2137 C   0  0  0  0  0  0  0  0  0  0  0  0
    2.6908   15.6334   41.9367 C   0  0  0  0  0  0  0  0  0  0  0  0
    2.5814   15.8036   43.3206 C   0  0  0  0  0  0  0  0  0  0  0  0
    1.5848   15.2314   44.0100 N   0  0  0  0  0  0  0  0  0  0  0  0
    3.4848   16.5416   43.9735 N   0  0  0  0  0  0  0  0  0  0  0  0
    3.4078   16.7351   45.3022 C   0  0  0  0  0  0  0  0  0  0  0  0
    4.1720   17.4340   46.1554 N   0  0  0  0  0  0  0  0  0  0  0  0
    5.3686   18.2053   45.8060 C   0  0  0  0  0  0  0  0  0  0  0  0
    3.7374   17.3376   47.3039 N   0  0  0  0  0  0  0  0  0  0  0  0
    2.6656   16.5292   47.2618 C   0  0  0  0  0  0  0  0  0  0  0  0
    2.4295   16.1611   45.9954 C   0  0  0  0  0  0  0  0  0  0  0  0
    1.5084   15.3998   45.3431 C   0  0  0  0  0  0  0  0  0  0  0  0
    0.4960   14.8029   46.0177 N   0  0  0  0  0  0  0  0  0  0  0  0
    1.1415   14.1268   41.8289 H   0  0  0  0  0  0  0  0  0  0  0  0
    1.3341   13.8312   39.3644 H   0  0  0  0  0  0  0  0  0  0  0  0
    2.9875   15.1703   38.0749 H   0  0  0  0  0  0  0  0  0  0  0  0
    4.2665   17.1023   41.7330 H   0  0  0  0  0  0  0  0  0  0  0  0
    5.2771   19.2256   46.2068 H   0  0  0  0  0  0  0  0  0  0  0  0
    6.2565   17.7202   46.2374 H   0  0  0  0  0  0  0  0  0  0  0  0
    5.4700   18.2491   44.7116 H   0  0  0  0  0  0  0  0  0  0  0  0
    2.0722   16.2172   48.1339 H   0  0  0  0  0  0  0  0  0  0  0  0
    0.4185   14.9185   47.0383 H   0  0  0  0  0  0  0  0  0  0  0  0
   -0.1960   14.2336   45.5099 H   0  0  0  0  0  0  0  0  0  0  0  0
  1  2  2  0
  1  6  1  0
  2  3  1  0
  3  4  2  0
  4  5  1  0
  5  6  2  0
  6  7  1  0
  7  8  2  0
  7  9  1  0
  8 16  1  0
  9 10  2  0
 10 11  1  0
 10 15  1  0
 11 12  1  0
 11 13  1  0
 13 14  2  0
 14 15  1  0
 15 16  2  0
 16 17  1  0
  1 18  1  0
  2 19  1  0
  3 20  1  0
  5 21  1  0
 12 22  1  0
 12 23  1  0
 12 24  1  0
 14 25  1  0
 17 26  1  0
 17 27  1  0
M  END
>  <mol_id>  (87) 
2026-09-18-6fnk-s0-n100-r8-0087

>  <rmsd_to_ref>  (87) 
4.403061224490827

>  <pose_kind>  (87) 
rigid

$$$$
6fnk.A
     RDKit          3D

 27 29  0  0  0  0  0  0  0  0999 V2000
    0.1805   19.7106   41.7711 C   0  0  0  0  0  0  0  0  0  0  0  0
   -0.8146   19.4727   40.8452 C   0  0  0  0  0  0  0  0  0  0  0  0
   -0.6854   18.4220   39.9530 C   0  0  0  0  0  0  0  0  0  0  0  0
    0.3760   17.6004   39.9340 N   0  0  0  0  0  0  0  0  0  0  0  0
    1.3433   17.8311   40.8336 C   0  0  0  0  0  0  0  0  0  0  0  0
    1.2760   18.8634   41.7522 C   0  0  0  0  0  0  0  0  0  0  0  0
    2.3783   19.0441   42.7003 C   0  0  0  0  0  0  0  0  0  0  0  0
    3.4152   18.1898   42.6335 N   0  0  0  0  0  0  0  0  0  0  0  0
    2.3287   20.0432   43.6004 N   0  0  0  0  0  0  0  0  0  0  0  0
    3.3627   20.1917   44.4702 C   0  0  0  0  0  0  0  0  0  0  0  0
    3.6004   21.0764   45.4662 N   0  0  0  0  0  0  0  0  0  0  0  0
    2.6871   22.1530   45.8286 C   0  0  0  0  0  0  0  0  0  0  0  0
    4.7617   20.8136   46.0409 N   0  0  0  0  0  0  0  0  0  0  0  0
    5.3043   19.7351   45.4149 C   0  0  0  0  0  0  0  0  0  0  0  0
    4.4459   19.3139   44.4140 C   0  0  0  0  0  0  0  0  0  0  0  0
    4.4648   18.2945   43.4732 C   0  0  0  0  0  0  0  0  0  0  0  0
    5.5765   17.4144   43.4350 N   0  0  0  0  0  0  0  0  0  0  0  0
    0.1441   20.5142   42.4976 H   0  0  0  0  0  0  0  0  0  0  0  0
   -1.6976   20.1267   40.8334 H   0  0  0  0  0  0  0  0  0  0  0  0
   -1.4612   18.2356   39.2302 H   0  0  0  0  0  0  0  0  0  0  0  0
    2.2002   17.1423   40.7944 H   0  0  0  0  0  0  0  0  0  0  0  0
    2.8719   23.0378   45.1623 H   0  0  0  0  0  0  0  0  0  0  0  0
    2.9141   22.4663   46.8669 H   0  0  0  0  0  0  0  0  0  0  0  0
    1.6510   21.8213   45.7079 H   0  0  0  0  0  0  0  0  0  0  0  0
    6.2715   19.2697   45.6628 H   0  0  0  0  0  0  0  0  0  0  0  0
    5.8654   16.9286   44.3257 H   0  0  0  0  0  0  0  0  0  0  0  0
    6.1345   17.2121   42.5771 H   0  0  0  0  0  0  0  0  0  0  0  0
  1  2  2  0
  1  6  1  0
  2  3  1  0
  3  4  2  0
  4  5  1  0
  5  6  2  0
  6  7  1  0
  7  8  2  0
  7  9  1  0
  8 16  1  0
  9 10  2  0
 10 11  1  0
 10 15  1  0
 11 12  1  0
 11 13  1  0
 13 14  2  0
 14 15  1  0
 15 16  2  0
 16 17  1  0
  1 18  1  0
  2 19  1  0
  3 20  1  0
  5 21  1  0
 12 22  1  0
 12 23  1  0
 12 24  1  0
 14 25  1  0
 17 26  1  0
 17 27  1  0
M  END
>  <mol_id>  (88) 
2026-09-18-6fnk-s0-n100-r8-0088

>  <rmsd_to_ref>  (88) 
4.448979591839241

>  <pose_kind>  (88) 
conformer

$$$$
6fnk.A
     RDKit          3D

 27 29  0  0  0  0  0  0  0  0999 V2000
    0.0120   15.6672   40.8024 C   0  0  0  0  0  0  0  0  0  0  0  0
   -0.0272   15.6809   39.4081 C   0  0  0  0  0  0  0  0  0  0  0  0
    1.1445   15.8448   38.6837 C   0  0  0  0  0  0  0  0  0  0  0  0
    2.3632   15.9922   39.3517 N   0  0  0  0  0  0  0  0  0  0  0  0
    2.3993   15.9796   40.7543 C   0  0  0  0  0  0  0  0  0  0  0  0
    1.2227   15.8169   41.4832 C   0  0  0  0  0  0  0  0  0  0  0  0
    1.2615   15.8070   42.8812 C   0  0  0  0  0  0  0  0  0  0  0  0
    0.1329   15.8288   43.6035 N   0  0  0  0  0  0  0  0  0  0  0  0
    2.4386   15.7689   43.5137 N   0  0  0  0  0  0  0  0  0  0  0  0
    2.5164   15.7671   44.8564 C   0  0  0  0  0  0  0  0  0  0  0  0
    3.5619   15.7487   45.6971 N   0  0  0  0  0  0  0  0  0  0  0  0
    4.9760   15.7175   45.3119 C   0  0  0  0  0  0  0  0  0  0  0  0
    3.1766   15.7519   46.8670 N   0  0  0  0  0  0  0  0  0  0  0  0
    1.8336   15.7400   46.8480 C   0  0  0  0  0  0  0  0  0  0  0  0
    1.4014   15.7760   45.5803 C   0  0  0  0  0  0  0  0  0  0  0  0
    0.1963   15.8060   44.9477 C   0  0  0  0  0  0  0  0  0  0  0  0
   -0.9599   15.8194   45.6543 N   0  0  0  0  0  0  0  0  0  0  0  0
   -0.9201   15.5372   41.3719 H   0  0  0  0  0  0  0  0  0  0  0  0
   -0.9866   15.5619   38.8833 H   0  0  0  0  0  0  0  0  0  0  0  0
    1.1143   15.8588   37.5842 H   0  0  0  0  0  0  0  0  0  0  0  0
    3.3584   16.0983   41.2797 H   0  0  0  0  0  0  0  0  0  0  0  0
    5.5152   16.5238   45.8307 H   0  0  0  0  0  0  0  0  0  0  0  0
    5.4109   14.7465   45.5916 H   0  0  0  0  0  0  0  0  0  0  0  0
    5.0631   15.8587   44.2245 H   0  0  0  0  0  0  0  0  0  0  0  0
    1.1872   15.7059   47.7374 H   0  0  0  0  0  0  0  0  0  0  0  0
   -0.9346   15.8024   46.6838 H   0  0  0  0  0  0  0  0  0  0  0  0
   -1.8641   15.8467   45.1618 H   0  0  0  0  0  0  0  0  0  0  0  0
  1  2  2  0
  1  6  1  0
  2  3  1  0
  3  4  2  0
  4  5  1  0
  5  6  2  0
  6  7  1  0
  7  8  2  0
  7  9  1  0
  8 16  1  0
  9 10  2  0
 10 11  1  0
 10 15  1  0
 11 12  1  0
 11 13  1  0
 13 14  2  0
 14 15  1  0
 15 16  2  0
 16 17  1  0
  1 18  1  0
  2 19  1  0
  3 20  1  0
  5 21  1  0
 12 22  1  0
 12 23  1  0
 12 24  1  0
 14 25  1  0
 17 26  1  0
 17 27  1  0
M  END
>  <mol_id>  (89) 
2026-09-18-6fnk-s0-n100-r8-0089

>  <rmsd_to_ref>  (89) 
4.494897959187643

>  <pose_kind>  (89) 
rigid

$$$$
6fnk.A
     RDKit          3D

 27 29  0  0  0  0  0  0  0  0999 V2000
    4.4055   18.5693   41.1960 C   0  0  0  0  0  0  0  0  0  0  0  0
    4.9636   18.9440   39.9850 C   0  0  0  0  0  0  0  0  0  0  0  0
    5.8679   18.1323   39.3191 C   0  0  0  0  0  0  0  0  0  0  0  0
    6.1944   16.9601   39.8819 N   0  0  0  0  0  0  0  0  0  0  0  0
    5.6801   16.5413   41.0650 C   0  0  0  0  0  0  0  0  0  0  0  0
    4.7811   17.3512   41.7243 C   0  0  0  0  0  0  0  0  0  0  0  0
    4.2190   16.9134   42.9991 C   0  0  0  0  0  0  0  0  0  0  0  0
    4.5814   15.7256   43.5202 N   0  0  0  0  0  0  0  0  0  0  0  0
    3.3393   17.6928   43.6562 N   0  0  0  0  0  0  0  0  0  0  0  0
    2.7982   17.3091   44.8488 C   0  0  0  0  0  0  0  0  0  0  0  0
    1.9184   17.8911   45.6864 N   0  0  0  0  0  0  0  0  0  0  0  0
    1.2993   19.1861   45.4668 C   0  0  0  0  0  0  0  0  0  0  0  0
    1.7221   17.0981   46.7163 N   0  0  0  0  0  0  0  0  0  0  0  0
    2.4638   15.9640   46.5980 C   0  0  0  0  0  0  0  0  0  0  0  0
    3.1621   16.0905   45.3957 C   0  0  0  0  0  0  0  0  0  0  0  0
    4.0639   15.3023   44.7124 C   0  0  0  0  0  0  0  0  0  0  0  0
    4.4188   14.0644   45.2908 N   0  0  0  0  0  0  0  0  0  0  0  0
    3.7002   19.2166   41.7024 H   0  0  0  0  0  0  0  0  0  0  0  0
    4.6628   19.9046   39.5755 H   0  0  0  0  0  0  0  0  0  0  0  0
    6.2796   18.4636   38.3757 H   0  0  0  0  0  0  0  0  0  0  0  0
    5.9951   15.5808   41.4524 H   0  0  0  0  0  0  0  0  0  0  0  0
    0.1957   19.0755   45.4886 H   0  0  0  0  0  0  0  0  0  0  0  0
    1.6614   19.6397   44.5410 H   0  0  0  0  0  0  0  0  0  0  0  0
    1.6688   19.8379   46.2945 H   0  0  0  0  0  0  0  0  0  0  0  0
    2.5231   15.1212   47.2756 H   0  0  0  0  0  0  0  0  0  0  0  0
    4.2885   13.1607   44.7508 H   0  0  0  0  0  0  0  0  0  0  0  0
    4.8119   14.0679   46.2631 H   0  0  0  0  0  0  0  0  0  0  0  0
  1  2  2  0
  1  6  1  0
  2  3  1  0
  3  4  2  0
  4  5  1  0
  5  6  2  0
  6  7  1  0
  7  8  2  0
  7  9  1  0
  8 16  1  0
  9 10  2  0
 10 11  1  0
 10 15  1  0
 11 12  1  0
 11 13  1  0
 13 14  2  0
 14 15  1  0
 15 16  2  0
 16 17  1  0
  1 18  1  0
  2 19  1  0
  3 20  1  0
  5 21  1  0
 12 22  1  0
 12 23  1  0
 12 24  1  0
 14 25  1  0
 17 26  1  0
 17 27  1  0
M  END
>  <mol_id>  (90) 
2026-09-18-6fnk-s0-n100-r8-0090

>  <rmsd_to_ref>  (90) 
4.540816326532417

>  <pose_kind>  (90) 
conformer

$$$$
6fnk.A
     RDKit          3D

 27 29  0  0  0  0  0  0  0  0999 V2000
    1.8224   17.1944   39.7210 C   0  0  0  0  0  0  0  0  0  0  0  0
    0.7014   17.4390   38.9277 C   0  0  0  0  0  0  0  0  0  0  0  0
   -0.5489   17.5649   39.5153 C   0  0  0  0  0  0  0  0  0  0  0  0
   -0.6833   17.4503   40.9017 N   0  0  0  0  0  0  0  0  0  0  0  0
    0.4459   17.2027   41.6969 C   0  0  0  0  0  0  0  0  0  0  0  0
    1.7022   17.0742   41.1076 C   0  0  0  0  0  0  0  0  0  0  0  0
    2.8256   16.8250   41.9026 C   0  0  0  0  0  0  0  0  0  0  0  0
    4.0092   16.5242   41.3506 N   0  0  0  0  0  0  0  0  0  0  0  0
    2.7266   16.8925   43.2341 N   0  0  0  0  0  0  0  0  0  0  0  0
    3.7823   16.6510   44.0315 C   0  0  0  0  0  0  0  0  0  0  0  0
    3.9185   16.6432   45.3663 N   0  0  0  0  0  0  0  0  0  0  0  0
    2.8610   16.9259   46.3414 C   0  0  0  0  0  0  0  0  0  0  0  0
    5.0776   16.3705   45.6814 N   0  0  0  0  0  0  0  0  0  0  0  0
    5.7771   16.2150   44.5453 C   0  0  0  0  0  0  0  0  0  0  0  0
    4.9628   16.3640   43.4919 C   0  0  0  0  0  0  0  0  0  0  0  0
    5.0785   16.3010   42.1369 C   0  0  0  0  0  0  0  0  0  0  0  0
    6.2658   16.0077   41.5531 N   0  0  0  0  0  0  0  0  0  0  0  0
    2.8115   17.0952   39.2499 H   0  0  0  0  0  0  0  0  0  0  0  0
    0.8088   17.5320   37.8370 H   0  0  0  0  0  0  0  0  0  0  0  0
   -1.4341   17.7549   38.8904 H   0  0  0  0  0  0  0  0  0  0  0  0
    0.3393   17.1099   42.7878 H   0  0  0  0  0  0  0  0  0  0  0  0
    2.8154   16.1114   47.0793 H   0  0  0  0  0  0  0  0  0  0  0  0
    3.0795   17.8740   46.8547 H   0  0  0  0  0  0  0  0  0  0  0  0
    1.8946   17.0045   45.8218 H   0  0  0  0  0  0  0  0  0  0  0  0
    6.8540   15.9983   44.4885 H   0  0  0  0  0  0  0  0  0  0  0  0
    7.0971   15.8334   42.1358 H   0  0  0  0  0  0  0  0  0  0  0  0
    6.3370   15.9592   40.5267 H   0  0  0  0  0  0  0  0  0  0  0  0
  1  2  2  0
  1  6  1  0
  2  3  1  0
  3  4  2  0
  4  5  1  0
  5  6  2  0
  6  7  1  0
  7  8  2  0
  7  9  1  0
  8 16  1  0
  9 10  2  0
 10 11  1  0
 10 15  1  0
 11 12  1  0
 11 13  1  0
 13 14  2  0
 14 15  1  0
 15 16  2  0
 16 17  1  0
  1 18  1  0
  2 19  1  0
  3 20  1  0
  5 21  1  0
 12 22  1  0
 12 23  1  0
 12 24  1  0
 14 25  1  0
 17 26  1  0
 17 27  1  0
M  END
>  <mol_id>  (91) 
2026-09-18-6fnk-s0-n100-r8-0091

>  <rmsd_to_ref>  (91) 
4.586734693879312

>  <pose_kind>  (91) 
rigid

$$$$
6fnk.A
     RDKit          3D

 27 29  0  0  0  0  0  0  0  0999 V2000
    2.9941   18.6077   43.1840 C   0  0  0  0  0  0  0  0  0  0  0  0
    4.1355   19.3059   43.5779 C   0  0  0  0  0  0  0  0  0  0  0  0
    4.8010   18.8955   44.7183 C   0  0  0  0  0  0  0  0  0  0  0  0
    4.3772   17.8489   45.4492 N   0  0  0  0  0  0  0  0  0  0  0  0
    3.2746   17.1634   45.0810 C   0  0  0  0  0  0  0  0  0  0  0  0
    2.5668   17.5320   43.9437 C   0  0  0  0  0  0  0  0  0  0  0  0
    1.3732   16.7940   43.5404 C   0  0  0  0  0  0  0  0  0  0  0  0
    0.6630   17.1302   42.4368 N   0  0  0  0  0  0  0  0  0  0  0  0
    0.9650   15.7473   44.2874 N   0  0  0  0  0  0  0  0  0  0  0  0
   -0.1219   15.0201   43.9817 C   0  0  0  0  0  0  0  0  0  0  0  0
   -0.7012   13.9463   44.5831 N   0  0  0  0  0  0  0  0  0  0  0  0
   -0.2026   13.3240   45.7882 C   0  0  0  0  0  0  0  0  0  0  0  0
   -1.7620   13.6109   43.8675 N   0  0  0  0  0  0  0  0  0  0  0  0
   -1.8864   14.4452   42.8104 C   0  0  0  0  0  0  0  0  0  0  0  0
   -0.8476   15.3618   42.8559 C   0  0  0  0  0  0  0  0  0  0  0  0
   -0.4448   16.4257   42.0842 C   0  0  0  0  0  0  0  0  0  0  0  0
   -1.1899   16.7795   40.9249 N   0  0  0  0  0  0  0  0  0  0  0  0
    2.4558   18.9216   42.2817 H   0  0  0  0  0  0  0  0  0  0  0  0
    4.4827   20.1559   42.9873 H   0  0  0  0  0  0  0  0  0  0  0  0
    5.6987   19.4486   45.0238 H   0  0  0  0  0  0  0  0  0  0  0  0
    2.9475   16.3233   45.6811 H   0  0  0  0  0  0  0  0  0  0  0  0
   -1.0376   12.8870   46.3539 H   0  0  0  0  0  0  0  0  0  0  0  0
    0.4495   12.4806   45.4741 H   0  0  0  0  0  0  0  0  0  0  0  0
    0.4198   14.0107   46.3784 H   0  0  0  0  0  0  0  0  0  0  0  0
   -2.6261   14.4532   42.0420 H   0  0  0  0  0  0  0  0  0  0  0  0
   -1.3577   16.1281   40.1239 H   0  0  0  0  0  0  0  0  0  0  0  0
   -1.5781   17.7556   40.9059 H   0  0  0  0  0  0  0  0  0  0  0  0
  1  2  2  0
  1  6  1  0
  2  3  1  0
  3  4  2  0
  4  5  1  0
  5  6  2  0
  6  7  1  0
  7  8  2  0
  7  9  1  0
  8 16  1  0
  9 10  2  0
 10 11  1  0
 10 15  1  0
 11 12  1  0
 11 13  1  0
 13 14  2  0
 14 15  1  0
 15 16  2  0
 16 17  1  0
  1 18  1  0
  2 19  1  0
  3 20  1  0
  5 21  1  0
 12 22  1  0
 12 23  1  0
 12 24  1  0
 14 25  1  0
 17 26  1  0
 17 27  1  0
M  END
>  <mol_id>  (92) 
2026-09-18-6fnk-s0-n100-r8-0092

>  <rmsd_to_ref>  (92) 
4.632653061225862

>  <pose_kind>  (92) 
conformer

$$$$
6fnk.A
     RDKit          3D

 27 29  0  0  0  0  0  0  0  0999 V2000
   -1.8968   17.4017   40.3737 C   0  0  0  0  0  0  0  0  0  0  0  0
   -3.1780   16.8508   40.3451 C   0  0  0  0  0  0  0  0  0  0  0  0
   -3.3724   15.5294   40.7198 C   0  0  0  0  0  0  0  0  0  0  0  0
   -2.2849   14.7527   41.1289 N   0  0  0  0  0  0  0  0  0  0  0  0
   -0.9971   15.3091   41.1551 C   0  0  0  0  0  0  0  0  0  0  0  0
   -0.8003   16.6360   40.7772 C   0  0  0  0  0  0  0  0  0  0  0  0
    0.4849   17.1872   40.8021 C   0  0  0  0  0  0  0  0  0  0  0  0
    0.7274   18.3975   40.2803 N   0  0  0  0  0  0  0  0  0  0  0  0
    1.4907   16.5049   41.3590 N   0  0  0  0  0  0  0  0  0  0  0  0
    2.7414   16.9982   41.3940 C   0  0  0  0  0  0  0  0  0  0  0  0
    3.8914   16.5013   41.8746 N   0  0  0  0  0  0  0  0  0  0  0  0
    4.0600   15.2017   42.5314 C   0  0  0  0  0  0  0  0  0  0  0  0
    4.8138   17.2985   41.6994 N   0  0  0  0  0  0  0  0  0  0  0  0
    4.2958   18.3903   41.1130 C   0  0  0  0  0  0  0  0  0  0  0  0
    2.9881   18.2032   40.8898 C   0  0  0  0  0  0  0  0  0  0  0  0
    1.9704   18.9116   40.3278 C   0  0  0  0  0  0  0  0  0  0  0  0
    2.1868   20.1413   39.8012 N   0  0  0  0  0  0  0  0  0  0  0  0
   -1.7483   18.4500   40.0753 H   0  0  0  0  0  0  0  0  0  0  0  0
   -4.0337   17.4639   40.0258 H   0  0  0  0  0  0  0  0  0  0  0  0
   -4.3819   15.0931   40.6948 H   0  0  0  0  0  0  0  0  0  0  0  0
   -0.1410   14.6967   41.4746 H   0  0  0  0  0  0  0  0  0  0  0  0
    4.8803   14.6504   42.0484 H   0  0  0  0  0  0  0  0  0  0  0  0
    4.2979   15.3561   43.5942 H   0  0  0  0  0  0  0  0  0  0  0  0
    3.1284   14.6233   42.4445 H   0  0  0  0  0  0  0  0  0  0  0  0
    4.8592   19.2993   40.8555 H   0  0  0  0  0  0  0  0  0  0  0  0
    3.1302   20.5538   39.8268 H   0  0  0  0  0  0  0  0  0  0  0  0
    1.4078   20.6635   39.3753 H   0  0  0  0  0  0  0  0  0  0  0  0
  1  2  2  0
  1  6  1  0
  2  3  1  0
  3  4  2  0
  4  5  1  0
  5  6  2  0
  6  7  1  0
  7  8  2  0
  7  9  1  0
  8 16  1  0
  9 10  2  0
 10 11  1  0
 10 15  1  0
 11 12  1  0
 11 13  1  0
 13 14  2  0
 14 15  1  0
 15 16  2  0
 16 17  1  0
  1 18  1  0
  2 19  1  0
  3 20  1  0
  5 21  1  0
 12 22  1  0
 12 23  1  0
 12 24  1  0
 14 25  1  0
 17 26  1  0
 17 27  1  0
M  END
>  <mol_id>  (93) 
2026-09-18-6fnk-s0-n100-r8-0093

>  <rmsd_to_ref>  (93) 
4.678571428573643

>  <pose_kind>  (93) 
rigid

$$$$
6fnk.A
     RDKit          3D

 27 29  0  0  0  0  0  0  0  0999 V2000
   -0.2671   15.2824   43.6220 C   0  0  0  0  0  0  0  0  0  0  0  0
   -1.4095   14.7093   44.1376 C   0  0  0  0  0  0  0  0  0  0  0  0
   -2.4543   14.3264   43.3031 C   0  0  0  0  0  0  0  0  0  0  0  0
   -2.3541   14.5157   41.9725 N   0  0  0  0  0  0  0  0  0  0  0  0
   -1.2352   15.0778   41.4598 C   0  0  0  0  0  0  0  0  0  0  0  0
   -0.1725   15.4747   42.2403 C   0  0  0  0  0  0  0  0  0  0  0  0
    1.0118   16.0732   41.6651 C   0  0  0  0  0  0  0  0  0  0  0  0
    1.0659   16.2418   40.3323 N   0  0  0  0  0  0  0  0  0  0  0  0
    2.0265   16.4464   42.4639 N   0  0  0  0  0  0  0  0  0  0  0  0
    3.1173   17.0005   41.9083 C   0  0  0  0  0  0  0  0  0  0  0  0
    4.2580   17.4562   42.4719 N   0  0  0  0  0  0  0  0  0  0  0  0
    4.5879   17.4515   43.8973 C   0  0  0  0  0  0  0  0  0  0  0  0
    5.0374   17.9141   41.5015 N   0  0  0  0  0  0  0  0  0  0  0  0
    4.4416   17.7739   40.3029 C   0  0  0  0  0  0  0  0  0  0  0  0
    3.2072   17.1905   40.5277 C   0  0  0  0  0  0  0  0  0  0  0  0
    2.1458   16.7944   39.7451 C   0  0  0  0  0  0  0  0  0  0  0  0
    2.2360   16.9882   38.3313 N   0  0  0  0  0  0  0  0  0  0  0  0
    0.5693   15.5916   44.2658 H   0  0  0  0  0  0  0  0  0  0  0  0
   -1.4404   14.5793   45.2108 H   0  0  0  0  0  0  0  0  0  0  0  0
   -3.3067   13.8890   43.7790 H   0  0  0  0  0  0  0  0  0  0  0  0
   -1.2071   15.2081   40.3720 H   0  0  0  0  0  0  0  0  0  0  0  0
    3.9810   16.7327   44.4437 H   0  0  0  0  0  0  0  0  0  0  0  0
    5.6472   17.2195   44.0859 H   0  0  0  0  0  0  0  0  0  0  0  0
    4.2871   18.4758   44.2527 H   0  0  0  0  0  0  0  0  0  0  0  0
    4.8287   18.0556   39.3197 H   0  0  0  0  0  0  0  0  0  0  0  0
    1.3802   17.1610   37.7434 H   0  0  0  0  0  0  0  0  0  0  0  0
    3.1399   16.9677   37.8240 H   0  0  0  0  0  0  0  0  0  0  0  0
  1  2  2  0
  1  6  1  0
  2  3  1  0
  3  4  2  0
  4  5  1  0
  5  6  2  0
  6  7  1  0
  7  8  2  0
  7  9  1  0
  8 16  1  0
  9 10  2  0
 10 11  1  0
 10 15  1  0
 11 12  1  0
 11 13  1  0
 13 14  2  0
 14 15  1  0
 15 16  2  0
 16 17  1  0
  1 18  1  0
  2 19  1  0
  3 20  1  0
  5 21  1  0
 12 22  1  0
 12 23  1  0
 12 24  1  0
 14 25  1  0
 17 26  1  0
 17 27  1  0
M  END
>  <mol_id>  (94) 
2026-09-18-6fnk-s0-n100-r8-0094

>  <rmsd_to_ref>  (94) 
4.724489795922683

>  <pose_kind>  (94) 
conformer

$$$$
6fnk.A
     RDKit          3D

 27 29  0  0  0  0  0  0  0  0999 V2000
    0.1934   19.5991   39.6094 C   0  0  0  0  0  0  0  0  0  0  0  0
    0.9360   20.4864   38.8301 C   0  0  0  0  0  0  0  0  0  0  0  0
    1.7035   21.4683   39.4394 C   0  0  0  0  0  0  0  0  0  0  0  0
    1.7348   21.5649   40.8333 N   0  0  0  0  0  0  0  0  0  0  0  0
    0.9857   20.6720   41.6145 C   0  0  0  0  0  0  0  0  0  0  0  0
    0.2128   19.6863   41.0035 C   0  0  0  0  0  0  0  0  0  0  0  0
   -0.5348   18.7992   41.7847 C   0  0  0  0  0  0  0  0  0  0  0  0
   -1.4176   17.9609   41.2243 N   0  0  0  0  0  0  0  0  0  0  0  0
   -0.3669   18.7767   43.1107 N   0  0  0  0  0  0  0  0  0  0  0  0
   -1.0735   17.9439   43.8956 C   0  0  0  0  0  0  0  0  0  0  0  0
   -1.0894   17.7563   45.2241 N   0  0  0  0  0  0  0  0  0  0  0  0
   -0.2670   18.4715   46.2045 C   0  0  0  0  0  0  0  0  0  0  0  0
   -1.8968   16.8769   45.5272 N   0  0  0  0  0  0  0  0  0  0  0  0
   -2.4356   16.4153   44.3867 C   0  0  0  0  0  0  0  0  0  0  0  0
   -1.9423   17.1006   43.3466 C   0  0  0  0  0  0  0  0  0  0  0  0
   -2.1157   17.1078   41.9964 C   0  0  0  0  0  0  0  0  0  0  0  0
   -2.9954   16.2644   41.4037 N   0  0  0  0  0  0  0  0  0  0  0  0
   -0.4136   18.8226   39.1210 H   0  0  0  0  0  0  0  0  0  0  0  0
    0.9129   20.4076   37.7332 H   0  0  0  0  0  0  0  0  0  0  0  0
    2.2870   22.1704   38.8258 H   0  0  0  0  0  0  0  0  0  0  0  0
    1.0085   20.7500   42.7114 H   0  0  0  0  0  0  0  0  0  0  0  0
   -0.9125   18.8800   46.9960 H   0  0  0  0  0  0  0  0  0  0  0  0
    0.4619   17.7771   46.6478 H   0  0  0  0  0  0  0  0  0  0  0  0
    0.2665   19.2938   45.7054 H   0  0  0  0  0  0  0  0  0  0  0  0
   -3.1698   15.5991   44.3173 H   0  0  0  0  0  0  0  0  0  0  0  0
   -3.5401   15.6032   41.9755 H   0  0  0  0  0  0  0  0  0  0  0  0
   -3.1191   16.2844   40.3813 H   0  0  0  0  0  0  0  0  0  0  0  0
  1  2  2  0
  1  6  1  0
  2  3  1  0
  3  4  2  0
  4  5  1  0
  5  6  2  0
  6  7  1  0
  7  8  2  0
  7  9  1  0
  8 16  1  0
  9 10  2  0
 10 11  1  0
 10 15  1  0
 11 12  1  0
 11 13  1  0
 13 14  2  0
 14 15  1  0
 15 16  2  0
 16 17  1  0
  1 18  1  0
  2 19  1  0
  3 20  1  0
  5 21  1  0
 12 22  1  0
 12 23  1  0
 12 24  1  0
 14 25  1  0
 17 26  1  0
 17 27  1  0
M  END
>  <mol_id>  (95) 
2026-09-18-6fnk-s0-n100-r8-0095

>  <rmsd_to_ref>  (95) 
4.770408163268745

>  <pose_kind>  (95) 
rigid

$$$$
6fnk.A
     RDKit          3D

 27 29  0  0  0  0  0  0  0  0999 V2000
   -1.3434   15.7428   40.4765 C   0  0  0  0  0  0  0  0  0  0  0  0
   -2.5470   15.0298   40.4638 C   0  0  0  0  0  0  0  0  0  0  0  0
   -2.6689   13.8355   41.1702 C   0  0  0  0  0  0  0  0  0  0  0  0
   -1.6237   13.3561   41.8741 N   0  0  0  0  0  0  0  0  0  0  0  0
   -0.4339   14.0237   41.9101 C   0  0  0  0  0  0  0  0  0  0  0  0
   -0.2916   15.2087   41.2175 C   0  0  0  0  0  0  0  0  0  0  0  0
    0.9868   15.9081   41.2674 C   0  0  0  0  0  0  0  0  0  0  0  0
    1.9868   15.3710   41.9903 N   0  0  0  0  0  0  0  0  0  0  0  0
    1.1425   17.0730   40.5925 N   0  0  0  0  0  0  0  0  0  0  0  0
    2.3188   17.7241   40.6336 C   0  0  0  0  0  0  0  0  0  0  0  0
    2.7521   18.8703   40.0771 N   0  0  0  0  0  0  0  0  0  0  0  0
    1.9265   19.7013   39.2359 C   0  0  0  0  0  0  0  0  0  0  0  0
    4.0109   19.0447   40.4507 N   0  0  0  0  0  0  0  0  0  0  0  0
    4.4196   18.0369   41.2433 C   0  0  0  0  0  0  0  0  0  0  0  0
    3.3531   17.1848   41.3711 C   0  0  0  0  0  0  0  0  0  0  0  0
    3.1789   15.9945   42.0549 C   0  0  0  0  0  0  0  0  0  0  0  0
    4.2245   15.4063   42.8275 N   0  0  0  0  0  0  0  0  0  0  0  0
   -1.2273   16.6723   39.9349 H   0  0  0  0  0  0  0  0  0  0  0  0
   -3.4011   15.4160   39.8921 H   0  0  0  0  0  0  0  0  0  0  0  0
   -3.6294   13.3421   41.1124 H   0  0  0  0  0  0  0  0  0  0  0  0
    0.3765   13.5824   42.4999 H   0  0  0  0  0  0  0  0  0  0  0  0
    1.0045   20.0542   39.7145 H   0  0  0  0  0  0  0  0  0  0  0  0
    1.7408   19.2080   38.2364 H   0  0  0  0  0  0  0  0  0  0  0  0
    2.5076   20.6251   38.9819 H   0  0  0  0  0  0  0  0  0  0  0  0
    5.3821   17.8839   41.7095 H   0  0  0  0  0  0  0  0  0  0  0  0
    4.9776   14.9068   42.3039 H   0  0  0  0  0  0  0  0  0  0  0  0
    4.2835   15.4420   43.8519 H   0  0  0  0  0  0  0  0  0  0  0  0
  1  2  2  0
  1  6  1  0
  2  3  1  0
  3  4  2  0
  4  5  1  0
  5  6  2  0
  6  7  1  0
  7  8  2  0
  7  9  1  0
  8 16  1  0
  9 10  2  0
 10 11  1  0
 10 15  1  0
 11 12  1  0
 11 13  1  0
 13 14  2  0
 14 15  1  0
 15 16  2  0
 16 17  1  0
  1 18  1  0
  2 19  1  0
  3 20  1  0
  5 21  1  0
 12 22  1  0
 12 23  1  0
 12 24  1  0
 14 25  1  0
 17 26  1  0
 17 27  1  0
M  END
>  <mol_id>  (96) 
2026-09-18-6fnk-s0-n100-r8-0096

>  <rmsd_to_ref>  (96) 
4.816326530614326

>  <pose_kind>  (96) 
conformer

$$$$
6fnk.A
     RDKit          3D

 27 29  0  0  0  0  0  0  0  0999 V2000
   -1.5110   14.6734   43.6620 C   0  0  0  0  0  0  0  0  0  0  0  0
   -2.4224   14.2354   44.6230 C   0  0  0  0  0  0  0  0  0  0  0  0
   -2.9630   15.1379   45.5272 C   0  0  0  0  0  0  0  0  0  0  0  0
   -2.5967   16.4855   45.4720 N   0  0  0  0  0  0  0  0  0  0  0  0
   -1.6786   16.9229   44.5052 C   0  0  0  0  0  0  0  0  0  0  0  0
   -1.1334   16.0168   43.5975 C   0  0  0  0  0  0  0  0  0  0  0  0
   -0.2166   16.4553   42.6365 C   0  0  0  0  0  0  0  0  0  0  0  0
    0.4517   15.5820   41.8706 N   0  0  0  0  0  0  0  0  0  0  0  0
   -0.0033   17.7643   42.4691 N   0  0  0  0  0  0  0  0  0  0  0  0
    0.8766   18.2237   41.5615 C   0  0  0  0  0  0  0  0  0  0  0  0
    1.2629   19.4654   41.2312 N   0  0  0  0  0  0  0  0  0  0  0  0
    0.7684   20.7089   41.8297 C   0  0  0  0  0  0  0  0  0  0  0  0
    2.1021   19.4321   40.3302 N   0  0  0  0  0  0  0  0  0  0  0  0
    2.2855   18.1434   39.9989 C   0  0  0  0  0  0  0  0  0  0  0  0
    1.5346   17.3647   40.7893 C   0  0  0  0  0  0  0  0  0  0  0  0
    1.3194   16.0294   40.9441 C   0  0  0  0  0  0  0  0  0  0  0  0
    1.9754   15.1256   40.1764 N   0  0  0  0  0  0  0  0  0  0  0  0
   -1.0852   13.9535   42.9475 H   0  0  0  0  0  0  0  0  0  0  0  0
   -2.7122   13.1751   44.6636 H   0  0  0  0  0  0  0  0  0  0  0  0
   -3.6794   14.7930   46.2873 H   0  0  0  0  0  0  0  0  0  0  0  0
   -1.3885   17.9831   44.4638 H   0  0  0  0  0  0  0  0  0  0  0  0
    1.6207   21.3236   42.1549 H   0  0  0  0  0  0  0  0  0  0  0  0
    0.1783   21.2644   41.0859 H   0  0  0  0  0  0  0  0  0  0  0  0
    0.1351   20.4717   42.6973 H   0  0  0  0  0  0  0  0  0  0  0  0
    2.9506   17.7825   39.2006 H   0  0  0  0  0  0  0  0  0  0  0  0
    2.6438   15.4460   39.4613 H   0  0  0  0  0  0  0  0  0  0  0  0
    1.8055   14.1183   40.3081 H   0  0  0  0  0  0  0  0  0  0  0  0
  1  2  2  0
  1  6  1  0
  2  3  1  0
  3  4  2  0
  4  5  1  0
  5  6  2  0
  6  7  1  0
  7  8  2  0
  7  9  1  0
  8 16  1  0
  9 10  2  0
 10 11  1  0
 10 15  1  0
 11 12  1  0
 11 13  1  0
 13 14  2  0
 14 15  1  0
 15 16  2  0
 16 17  1  0
  1 18  1  0
  2 19  1  0
  3 20  1  0
  5 21  1  0
 12 22  1  0
 12 23  1  0
 12 24  1  0
 14 25  1  0
 17 26  1  0
 17 27  1  0
M  END
>  <mol_id>  (97) 
2026-09-18-6fnk-s0-n100-r8-0097

>  <rmsd_to_ref>  (97) 
4.862244897962867

>  <pose_kind>  (97) 
rigid

$$$$
6fnk.A
     RDKit          3D

 27 29  0  0  0  0  0  0  0  0999 V2000
    0.8450   17.2675   38.1394 C   0  0  0  0  0  0  0  0  0  0  0  0
    0.3610   17.5875   36.8732 C   0  0  0  0  0  0  0  0  0  0  0  0
   -0.8717   18.1834   36.6912 C   0  0  0  0  0  0  0  0  0  0  0  0
   -1.6399   18.4700   37.7566 N   0  0  0  0  0  0  0  0  0  0  0  0
   -1.2087   18.1755   39.0148 C   0  0  0  0  0  0  0  0  0  0  0  0
    0.0207   17.5809   39.2005 C   0  0  0  0  0  0  0  0  0  0  0  0
    0.4253   17.2901   40.5840 C   0  0  0  0  0  0  0  0  0  0  0  0
   -0.4251   17.6211   41.5722 N   0  0  0  0  0  0  0  0  0  0  0  0
    1.6208   16.7061   40.8455 N   0  0  0  0  0  0  0  0  0  0  0  0
    1.9684   16.4489   42.1368 C   0  0  0  0  0  0  0  0  0  0  0  0
    3.0546   15.8934   42.7219 N   0  0  0  0  0  0  0  0  0  0  0  0
    4.2137   15.3969   42.0047 C   0  0  0  0  0  0  0  0  0  0  0  0
    2.9035   15.8708   44.0297 N   0  0  0  0  0  0  0  0  0  0  0  0
    1.7176   16.4077   44.3600 C   0  0  0  0  0  0  0  0  0  0  0  0
    1.1154   16.7776   43.1749 C   0  0  0  0  0  0  0  0  0  0  0  0
   -0.0987   17.3740   42.8638 C   0  0  0  0  0  0  0  0  0  0  0  0
   -1.0169   17.7340   43.8945 N   0  0  0  0  0  0  0  0  0  0  0  0
    1.8115   16.7998   38.2882 H   0  0  0  0  0  0  0  0  0  0  0  0
    0.9928   17.3511   36.0062 H   0  0  0  0  0  0  0  0  0  0  0  0
   -1.2520   18.4353   35.6902 H   0  0  0  0  0  0  0  0  0  0  0  0
   -1.8744   18.4319   39.8267 H   0  0  0  0  0  0  0  0  0  0  0  0
    4.8296   14.7674   42.6794 H   0  0  0  0  0  0  0  0  0  0  0  0
    3.8269   14.8132   41.1341 H   0  0  0  0  0  0  0  0  0  0  0  0
    4.7689   16.2758   41.5928 H   0  0  0  0  0  0  0  0  0  0  0  0
    1.2650   16.5516   45.3349 H   0  0  0  0  0  0  0  0  0  0  0  0
   -1.4420   18.6877   43.8205 H   0  0  0  0  0  0  0  0  0  0  0  0
   -1.2341   17.0637   44.6672 H   0  0  0  0  0  0  0  0  0  0  0  0
  1  2  2  0
  1  6  1  0
  2  3  1  0
  3  4  2  0
  4  5  1  0
  5  6  2  0
  6  7  1  0
  7  8  2  0
  7  9  1  0
  8 16  1  0
  9 10  2  0
 10 11  1  0
 10 15  1  0
 11 12  1  0
 11 13  1  0
 13 14  2  0
 14 15  1  0
 15 16  2  0
 16 17  1  0
  1 18  1  0
  2 19  1  0
  3 20  1  0
  5 21  1  0
 12 22  1  0
 12 23  1  0
 12 24  1  0
 14 25  1  0
 17 26  1  0
 17 27  1  0
M  END
>  <mol_id>  (98) 
2026-09-18-6fnk-s0-n100-r8-0098

>  <rmsd_to_ref>  (98) 
4.908163265309134

>  <pose_kind>  (98) 
conformer

$$$$
6fnk.A
     RDKit          3D

 27 29  0  0  0  0  0  0  0  0999 V2000
    0.7221   20.6214   42.5221 C   0  0  0  0  0  0  0  0  0  0  0  0
    1.8095   21.4669   42.3018 C   0  0  0  0  0  0  0  0  0  0  0  0
    3.1009   20.9628   42.3540 C   0  0  0  0  0  0  0  0  0  0  0  0
    3.3106   19.6075   42.6236 N   0  0  0  0  0  0  0  0  0  0  0  0
    2.2149   18.7598   42.8463 C   0  0  0  0  0  0  0  0  0  0  0  0
    0.9172   19.2655   42.7959 C   0  0  0  0  0  0  0  0  0  0  0  0
   -0.1728   18.4185   43.0206 C   0  0  0  0  0  0  0  0  0  0  0  0
   -1.4131   18.9092   43.1515 N   0  0  0  0  0  0  0  0  0  0  0  0
    0.0165   17.0976   43.1009 N   0  0  0  0  0  0  0  0  0  0  0  0
   -1.0055   16.2524   43.3247 C   0  0  0  0  0  0  0  0  0  0  0  0
   -1.0570   14.9183   43.4579 N   0  0  0  0  0  0  0  0  0  0  0  0
    0.0830   14.0002   43.3771 C   0  0  0  0  0  0  0  0  0  0  0  0
   -2.2152   14.5474   43.6530 N   0  0  0  0  0  0  0  0  0  0  0  0
   -2.9973   15.6391   43.6244 C   0  0  0  0  0  0  0  0  0  0  0  0
   -2.2405   16.7298   43.4433 C   0  0  0  0  0  0  0  0  0  0  0  0
   -2.4474   18.0724   43.3546 C   0  0  0  0  0  0  0  0  0  0  0  0
   -3.6925   18.5936   43.4744 N   0  0  0  0  0  0  0  0  0  0  0  0
   -0.2997   21.0265   42.4797 H   0  0  0  0  0  0  0  0  0  0  0  0
    1.6432   22.5328   42.0868 H   0  0  0  0  0  0  0  0  0  0  0  0
    3.9592   21.6292   42.1834 H   0  0  0  0  0  0  0  0  0  0  0  0
    2.3805   17.6937   43.0610 H   0  0  0  0  0  0  0  0  0  0  0  0
    0.0937   13.3501   44.2643 H   0  0  0  0  0  0  0  0  0  0  0  0
   -0.0070   13.3828   42.4712 H   0  0  0  0  0  0  0  0  0  0  0  0
    1.0175   14.5789   43.3352 H   0  0  0  0  0  0  0  0  0  0  0  0
   -4.0919   15.6379   43.7331 H   0  0  0  0  0  0  0  0  0  0  0  0
   -4.4985   17.9715   43.6303 H   0  0  0  0  0  0  0  0  0  0  0  0
   -3.8330   19.6119   43.4096 H   0  0  0  0  0  0  0  0  0  0  0  0
  1  2  2  0
  1  6  1  0
  2  3  1  0
  3  4  2  0
  4  5  1  0
  5  6  2  0
  6  7  1  0
  7  8  2  0
  7  9  1  0
  8 16  1  0
  9 10  2  0
 10 11  1  0
 10 15  1  0
 11 12  1  0
 11 13  1  0
 13 14  2  0
 14 15  1  0
 15 16  2  0
 16 17  1  0
  1 18  1  0
  2 19  1  0
  3 20  1  0
  5 21  1  0
 12 22  1  0
 12 23  1  0
 12 24  1  0
 14 25  1  0
 17 26  1  0
 17 27  1  0
M  END
>  <mol_id>  (99) 
2026-09-18-6fnk-s0-n100-r8-0099

>  <rmsd_to_ref>  (99) 
4.954081632656244

>  <pose_kind>  (99) 
rigid

$$$$
6fnk.A
     RDKit          3D

 27 29  0  0  0  0  0  0  0  0999 V2000
    2.8513   21.3457   40.0699 C   0  0  0  0  0  0  0  0  0  0  0  0
    3.2714   22.1569   39.0242 C   0  0  0  0  0  0  0  0  0  0  0  0
    2.5381   22.3211   37.8675 C   0  0  0  0  0  0  0  0  0  0  0  0
    1.3482   21.6686   37.7244 N   0  0  0  0  0  0  0  0  0  0  0  0
    0.9134   20.8673   38.7345 C   0  0  0  0  0  0  0  0  0  0  0  0
    1.6429   20.6998   39.8930 C   0  0  0  0  0  0  0  0  0  0  0  0
    1.1399   19.8357   40.9425 C   0  0  0  0  0  0  0  0  0  0  0  0
   -0.0281   19.1859   40.8197 N   0  0  0  0  0  0  0  0  0  0  0  0
    1.8297   19.6539   42.0823 N   0  0  0  0  0  0  0  0  0  0  0  0
    1.3927   18.8595   43.0766 C   0  0  0  0  0  0  0  0  0  0  0  0
    1.9132   18.5452   44.2708 N   0  0  0  0  0  0  0  0  0  0  0  0
    3.1663   19.0314   44.8007 C   0  0  0  0  0  0  0  0  0  0  0  0
    1.1074   17.7126   44.9112 N   0  0  0  0  0  0  0  0  0  0  0  0
    0.0409   17.4787   44.1208 C   0  0  0  0  0  0  0  0  0  0  0  0
    0.2013   18.1953   42.9539 C   0  0  0  0  0  0  0  0  0  0  0  0
   -0.5135   18.3756   41.7881 C   0  0  0  0  0  0  0  0  0  0  0  0
   -1.7566   17.6942   41.6380 N   0  0  0  0  0  0  0  0  0  0  0  0
    3.3991   21.2018   40.9740 H   0  0  0  0  0  0  0  0  0  0  0  0
    4.2158   22.6716   39.1438 H   0  0  0  0  0  0  0  0  0  0  0  0
    2.8583   22.9518   37.0471 H   0  0  0  0  0  0  0  0  0  0  0  0
   -0.0474   20.3665   38.5698 H   0  0  0  0  0  0  0  0  0  0  0  0
    3.7517   19.5303   43.9786 H   0  0  0  0  0  0  0  0  0  0  0  0
    2.9297   19.7534   45.6111 H   0  0  0  0  0  0  0  0  0  0  0  0
    3.7557   18.2135   45.2626 H   0  0  0  0  0  0  0  0  0  0  0  0
   -0.8126   16.8374   44.3452 H   0  0  0  0  0  0  0  0  0  0  0  0
   -2.6305   18.0653   42.1060 H   0  0  0  0  0  0  0  0  0  0  0  0
   -1.8530   16.8113   41.0662 H   0  0  0  0  0  0  0  0  0  0  0  0
  1  2  2  0
  1  6  1  0
  2  3  1  0
  3  4  2  0
  4  5  1  0
  5  6  2  0
  6  7  1  0
  7  8  2  0
  7  9  1  0
  8 16  1  0
  9 10  2  0
 10 11  1  0
 10 15  1  0
 11 12  1  0
 11 13  1  0
 13 14  2  0
 14 15  1  0
 15 16  2  0
 16 17  1  0
  1 18  1  0
  2 19  1  0
  3 20  1  0
  5 21  1  0
 12 22  1  0
 12 23  1  0
 12 24  1  0
 14 25  1  0
 17 26  1  0
 17 27  1  0
M  END
>  <mol_id>  (100) 
2026-09-18-6fnk-s0-n100-r8-0100

>  <rmsd_to_ref>  (100) 
5.000000000002129

>  <pose_kind>  (100) 
conformer

$$$$
