6tgu.A
     RDKit          3D

 32 34  0  0  0  0  0  0  0  0999 V2000
    3.2704   20.0816   36.9100 C   0  0  0  0  0  0  0  0  0  0  0  0
    2.7239   19.8375   38.3194 C   0  0  0  0  0  0  0  0  0  0  0  0
    1.9745   20.8172   38.9669 C   0  0  0  0  0  0  0  0  0  0  0  0
    1.3019   20.5646   40.1670 C   0  0  0  0  0  0  0  0  0  0  0  0
    1.5079   19.3565   40.8488 C   0  0  0  0  0  0  0  0  0  0  0  0
    0.4444   17.8615   42.6087 C   0  0  0  0  0  0  0  0  0  0  0  0
    0.4288   15.6073   42.9153 C   0  0  0  0  0  0  0  0  0  0  0  0
    0.8553   14.2304   42.6635 C   0  0  0  0  0  0  0  0  0  0  0  0
    0.2328   13.1351   43.2790 C   0  0  0  0  0  0  0  0  0  0  0  0
    0.6322   11.8319   42.9995 C   0  0  0  0  0  0  0  0  0  0  0  0
    1.6306   11.6302   42.0652 C   0  0  0  0  0  0  0  0  0  0  0  0
    2.2690   12.6840   41.4288 C   0  0  0  0  0  0  0  0  0  0  0  0
    1.8629   13.9810   41.7304 C   0  0  0  0  0  0  0  0  0  0  0  0
   -0.5843   15.9508   43.7709 C   0  0  0  0  0  0  0  0  0  0  0  0
    2.2504   18.3557   40.2060 C   0  0  0  0  0  0  0  0  0  0  0  0
    2.8437   18.6148   38.9691 C   0  0  0  0  0  0  0  0  0  0  0  0
    0.7803   19.0569   42.0413 N   0  0  0  0  0  0  0  0  0  0  0  0
    0.9791   16.6716   42.1626 N   0  0  0  0  0  0  0  0  0  0  0  0
    2.8674   21.1275   36.3211 O   0  0  0  0  0  0  0  0  0  0  0  0
    4.0035   19.1925   36.4244 O   0  0  0  0  0  0  0  0  0  0  0  0
    3.4800   17.5959   38.3007 O   0  0  0  0  0  0  0  0  0  0  0  0
   -0.9334   17.6347   43.6687 S   0  0  0  0  0  0  0  0  0  0  0  0
    2.1103   10.0114   41.6767 Cl  0  0  0  0  0  0  0  0  0  0  0  0
    1.9097   21.8205   38.5206 H   0  0  0  0  0  0  0  0  0  0  0  0
    0.6099   21.3151   40.5769 H   0  0  0  0  0  0  0  0  0  0  0  0
   -0.5845   13.3089   43.9944 H   0  0  0  0  0  0  0  0  0  0  0  0
    0.1628   10.9792   43.5119 H   0  0  0  0  0  0  0  0  0  0  0  0
    3.0758   12.4998   40.7041 H   0  0  0  0  0  0  0  0  0  0  0  0
    2.3468   14.8280   41.2221 H   0  0  0  0  0  0  0  0  0  0  0  0
   -1.1055   15.2454   44.4348 H   0  0  0  0  0  0  0  0  0  0  0  0
    2.3653   17.3677   40.6757 H   0  0  0  0  0  0  0  0  0  0  0  0
    0.4535   19.8836   42.5615 H   0  0  0  0  0  0  0  0  0  0  0  0
  1  2  1  0
  1 19  1  0
  1 20  2  0
  2  3  1  0
  2 16  2  0
  3  4  2  0
  4  5  1  0
  5 15  2  0
  5 17  1  0
  6 17  1  0
  6 18  2  0
  6 22  1  0
  7  8  1  0
  7 14  2  0
  7 18  1  0
  8  9  1  0
  8 13  2  0
  9 10  2  0
 10 11  1  0
 11 12  2  0
 11 23  1  0
 12 13  1  0
 14 22  1  0
 15 16  1  0
 16 21  1  0
  3 24  1  0
  4 25  1  0
  9 26  1  0
 10 27  1  0
 12 28  1  0
 13 29  1  0
 14 30  1  0
 15 31  1  0
 17 32  1  0
M  CHG  2  19  -1  21  -1
M  END
>  <mol_id>  (1) 
2026-08-23-6tgu-s0-n100-r7-0001

>  <rmsd_to_ref>  (1) 
0.0

$$$$
6tgu.A
     RDKit          3D

 32 34  0  0  0  0  0  0  0  0999 V2000
    3.7204   19.8653   37.2225 C   0  0  0  0  0  0  0  0  0  0  0  0
    2.9495   19.6551   38.4363 C   0  0  0  0  0  0  0  0  0  0  0  0
    2.4647   20.7234   39.1235 C   0  0  0  0  0  0  0  0  0  0  0  0
    1.7361   20.5140   40.2714 C   0  0  0  0  0  0  0  0  0  0  0  0
    1.4731   19.2289   40.7624 C   0  0  0  0  0  0  0  0  0  0  0  0
    0.4510   17.7458   42.4483 C   0  0  0  0  0  0  0  0  0  0  0  0
    0.2297   15.5639   42.9316 C   0  0  0  0  0  0  0  0  0  0  0  0
    0.5321   14.1759   42.5491 C   0  0  0  0  0  0  0  0  0  0  0  0
    1.2660   13.8523   41.4269 C   0  0  0  0  0  0  0  0  0  0  0  0
    1.5437   12.5496   41.0773 C   0  0  0  0  0  0  0  0  0  0  0  0
    1.0876   11.5092   41.8537 C   0  0  0  0  0  0  0  0  0  0  0  0
    0.3429   11.7997   42.9948 C   0  0  0  0  0  0  0  0  0  0  0  0
    0.0833   13.1186   43.3151 C   0  0  0  0  0  0  0  0  0  0  0  0
   -0.5033   15.8672   44.0538 C   0  0  0  0  0  0  0  0  0  0  0  0
    1.9899   18.1931   40.0233 C   0  0  0  0  0  0  0  0  0  0  0  0
    2.7272   18.3770   38.8635 C   0  0  0  0  0  0  0  0  0  0  0  0
    0.7193   19.0739   41.9462 N   0  0  0  0  0  0  0  0  0  0  0  0
    0.6192   16.6222   42.2578 N   0  0  0  0  0  0  0  0  0  0  0  0
    3.9685   21.1675   36.7536 O   0  0  0  0  0  0  0  0  0  0  0  0
    4.1980   18.9274   36.5382 O   0  0  0  0  0  0  0  0  0  0  0  0
    3.2353   17.2927   38.1409 O   0  0  0  0  0  0  0  0  0  0  0  0
   -0.5734   17.6966   44.0467 S   0  0  0  0  0  0  0  0  0  0  0  0
    1.4022    9.8345   41.4705 Cl  0  0  0  0  0  0  0  0  0  0  0  0
    2.6317   21.7470   38.7987 H   0  0  0  0  0  0  0  0  0  0  0  0
    1.3437   21.3790   40.8277 H   0  0  0  0  0  0  0  0  0  0  0  0
    1.6230   14.6776   40.8186 H   0  0  0  0  0  0  0  0  0  0  0  0
    2.1220   12.3091   40.1922 H   0  0  0  0  0  0  0  0  0  0  0  0
   -0.0344   11.0084   43.6326 H   0  0  0  0  0  0  0  0  0  0  0  0
   -0.4968   13.3210   44.2055 H   0  0  0  0  0  0  0  0  0  0  0  0
   -0.9716   15.2529   44.8220 H   0  0  0  0  0  0  0  0  0  0  0  0
    1.8340   17.1780   40.3303 H   0  0  0  0  0  0  0  0  0  0  0  0
    0.3795   19.9322   42.4208 H   0  0  0  0  0  0  0  0  0  0  0  0
  1  2  1  0
  1 19  1  0
  1 20  2  0
  2  3  1  0
  2 16  2  0
  3  4  2  0
  4  5  1  0
  5 15  2  0
  5 17  1  0
  6 17  1  0
  6 18  2  0
  6 22  1  0
  7  8  1  0
  7 14  2  0
  7 18  1  0
  8  9  1  0
  8 13  2  0
  9 10  2  0
 10 11  1  0
 11 12  2  0
 11 23  1  0
 12 13  1  0
 14 22  1  0
 15 16  1  0
 16 21  1  0
  3 24  1  0
  4 25  1  0
  9 26  1  0
 10 27  1  0
 12 28  1  0
 13 29  1  0
 14 30  1  0
 15 31  1  0
 17 32  1  0
M  CHG  2  19  -1  21  -1
M  END
>  <mol_id>  (2) 
2026-08-23-6tgu-s0-n100-r7-0002

>  <rmsd_to_ref>  (2) 
0.5000000000079763

$$$$
6tgu.A
     RDKit          3D

 32 34  0  0  0  0  0  0  0  0999 V2000
    3.7338   20.4969   37.4357 C   0  0  0  0  0  0  0  0  0  0  0  0
    3.1086   20.1188   38.7814 C   0  0  0  0  0  0  0  0  0  0  0  0
    2.3823   21.0564   39.5121 C   0  0  0  0  0  0  0  0  0  0  0  0
    1.6409   20.7023   40.6441 C   0  0  0  0  0  0  0  0  0  0  0  0
    1.7497   19.4116   41.1816 C   0  0  0  0  0  0  0  0  0  0  0  0
    0.5258   17.7821   42.7015 C   0  0  0  0  0  0  0  0  0  0  0  0
    0.3759   15.5122   42.7305 C   0  0  0  0  0  0  0  0  0  0  0  0
    0.7402   14.1526   42.3306 C   0  0  0  0  0  0  0  0  0  0  0  0
    0.0318   13.0300   42.7823 C   0  0  0  0  0  0  0  0  0  0  0  0
    0.3743   11.7483   42.3628 C   0  0  0  0  0  0  0  0  0  0  0  0
    1.4039   11.6015   41.4525 C   0  0  0  0  0  0  0  0  0  0  0  0
    2.1270   12.6845   40.9757 C   0  0  0  0  0  0  0  0  0  0  0  0
    1.7764   13.9578   41.4161 C   0  0  0  0  0  0  0  0  0  0  0  0
   -0.6571   15.8099   43.5794 C   0  0  0  0  0  0  0  0  0  0  0  0
    2.4678   18.4529   40.4526 C   0  0  0  0  0  0  0  0  0  0  0  0
    3.1323   18.8225   39.2818 C   0  0  0  0  0  0  0  0  0  0  0  0
    0.9513   19.0149   42.2980 N   0  0  0  0  0  0  0  0  0  0  0  0
    1.0172   16.6247   42.1361 N   0  0  0  0  0  0  0  0  0  0  0  0
    3.4154   21.6273   36.9625 O   0  0  0  0  0  0  0  0  0  0  0  0
    4.4410   19.6307   36.8758 O   0  0  0  0  0  0  0  0  0  0  0  0
    3.7447   17.8551   38.5209 O   0  0  0  0  0  0  0  0  0  0  0  0
   -0.9111   17.5115   43.6688 S   0  0  0  0  0  0  0  0  0  0  0  0
    1.8150   10.0153   40.8898 Cl  0  0  0  0  0  0  0  0  0  0  0  0
    2.3922   22.1078   39.1890 H   0  0  0  0  0  0  0  0  0  0  0  0
    0.9710   21.4377   41.1136 H   0  0  0  0  0  0  0  0  0  0  0  0
   -0.8083   13.1648   43.4795 H   0  0  0  0  0  0  0  0  0  0  0  0
   -0.1636   10.8695   42.7479 H   0  0  0  0  0  0  0  0  0  0  0  0
    2.9564   12.5411   40.2676 H   0  0  0  0  0  0  0  0  0  0  0  0
    2.3283   14.8296   41.0348 H   0  0  0  0  0  0  0  0  0  0  0  0
   -1.2461   15.0620   44.1307 H   0  0  0  0  0  0  0  0  0  0  0  0
    2.5076   17.4109   40.8029 H   0  0  0  0  0  0  0  0  0  0  0  0
    0.6445   19.7914   42.9012 H   0  0  0  0  0  0  0  0  0  0  0  0
  1  2  1  0
  1 19  1  0
  1 20  2  0
  2  3  1  0
  2 16  2  0
  3  4  2  0
  4  5  1  0
  5 15  2  0
  5 17  1  0
  6 17  1  0
  6 18  2  0
  6 22  1  0
  7  8  1  0
  7 14  2  0
  7 18  1  0
  8  9  1  0
  8 13  2  0
  9 10  2  0
 10 11  1  0
 11 12  2  0
 11 23  1  0
 12 13  1  0
 14 22  1  0
 15 16  1  0
 16 21  1  0
  3 24  1  0
  4 25  1  0
  9 26  1  0
 10 27  1  0
 12 28  1  0
 13 29  1  0
 14 30  1  0
 15 31  1  0
 17 32  1  0
M  CHG  2  19  -1  21  -1
M  END
>  <mol_id>  (3) 
2026-08-23-6tgu-s0-n100-r7-0003

>  <rmsd_to_ref>  (3) 
0.5459183673533425

$$$$
6tgu.A
     RDKit          3D

 32 34  0  0  0  0  0  0  0  0999 V2000
    3.2189   19.7211   36.6987 C   0  0  0  0  0  0  0  0  0  0  0  0
    2.4361   19.5382   37.9146 C   0  0  0  0  0  0  0  0  0  0  0  0
    1.6911   20.5727   38.4273 C   0  0  0  0  0  0  0  0  0  0  0  0
    0.9540   20.3962   39.5746 C   0  0  0  0  0  0  0  0  0  0  0  0
    0.9238   19.1788   40.2669 C   0  0  0  0  0  0  0  0  0  0  0  0
    0.0875   17.8315   42.1806 C   0  0  0  0  0  0  0  0  0  0  0  0
    0.3411   15.7218   42.9444 C   0  0  0  0  0  0  0  0  0  0  0  0
    0.9501   14.3833   42.7889 C   0  0  0  0  0  0  0  0  0  0  0  0
    0.6836   13.3885   43.7005 C   0  0  0  0  0  0  0  0  0  0  0  0
    1.2472   12.1344   43.5647 C   0  0  0  0  0  0  0  0  0  0  0  0
    2.0897   11.8457   42.5152 C   0  0  0  0  0  0  0  0  0  0  0  0
    2.3669   12.8274   41.5953 C   0  0  0  0  0  0  0  0  0  0  0  0
    1.7906   14.0800   41.7501 C   0  0  0  0  0  0  0  0  0  0  0  0
   -0.5268   16.0261   44.0218 C   0  0  0  0  0  0  0  0  0  0  0  0
    1.6841   18.1668   39.7203 C   0  0  0  0  0  0  0  0  0  0  0  0
    2.4340   18.3242   38.5649 C   0  0  0  0  0  0  0  0  0  0  0  0
    0.1605   19.0444   41.4290 N   0  0  0  0  0  0  0  0  0  0  0  0
    0.5328   16.7164   42.1398 N   0  0  0  0  0  0  0  0  0  0  0  0
    3.2175   20.9448   36.0481 O   0  0  0  0  0  0  0  0  0  0  0  0
    3.8915   18.7504   36.2553 O   0  0  0  0  0  0  0  0  0  0  0  0
    3.1819   17.2904   38.0476 O   0  0  0  0  0  0  0  0  0  0  0  0
   -0.9485   17.7824   43.6869 S   0  0  0  0  0  0  0  0  0  0  0  0
    2.8202   10.2742   42.3104 Cl  0  0  0  0  0  0  0  0  0  0  0  0
    1.6929   21.5213   37.9190 H   0  0  0  0  0  0  0  0  0  0  0  0
    0.3853   21.2497   39.9321 H   0  0  0  0  0  0  0  0  0  0  0  0
    0.0167   13.5956   44.5427 H   0  0  0  0  0  0  0  0  0  0  0  0
    1.0105   11.3718   44.3099 H   0  0  0  0  0  0  0  0  0  0  0  0
    3.0191   12.6844   40.7399 H   0  0  0  0  0  0  0  0  0  0  0  0
    2.0138   14.8498   41.0203 H   0  0  0  0  0  0  0  0  0  0  0  0
   -0.8705   15.4594   44.8153 H   0  0  0  0  0  0  0  0  0  0  0  0
    1.7223   17.2003   40.1810 H   0  0  0  0  0  0  0  0  0  0  0  0
   -0.3828   19.8982   41.7495 H   0  0  0  0  0  0  0  0  0  0  0  0
  1  2  1  0
  1 19  1  0
  1 20  2  0
  2  3  1  0
  2 16  2  0
  3  4  2  0
  4  5  1  0
  5 15  2  0
  5 17  1  0
  6 17  1  0
  6 18  2  0
  6 22  1  0
  7  8  1  0
  7 14  2  0
  7 18  1  0
  8  9  1  0
  8 13  2  0
  9 10  2  0
 10 11  1  0
 11 12  2  0
 11 23  1  0
 12 13  1  0
 14 22  1  0
 15 16  1  0
 16 21  1  0
  3 24  1  0
  4 25  1  0
  9 26  1  0
 10 27  1  0
 12 28  1  0
 13 29  1  0
 14 30  1  0
 15 31  1  0
 17 32  1  0
M  CHG  2  19  -1  21  -1
M  END
>  <mol_id>  (4) 
2026-08-23-6tgu-s0-n100-r7-0004

>  <rmsd_to_ref>  (4) 
0.5918367346953894

$$$$
6tgu.A
     RDKit          3D

 32 34  0  0  0  0  0  0  0  0999 V2000
    3.7766   19.6417   36.9102 C   0  0  0  0  0  0  0  0  0  0  0  0
    3.0081   19.5642   38.2324 C   0  0  0  0  0  0  0  0  0  0  0  0
    2.1949   20.6191   38.6406 C   0  0  0  0  0  0  0  0  0  0  0  0
    1.3346   20.5110   39.7382 C   0  0  0  0  0  0  0  0  0  0  0  0
    1.3953   19.3852   40.5722 C   0  0  0  0  0  0  0  0  0  0  0  0
    0.0248   18.1102   42.2925 C   0  0  0  0  0  0  0  0  0  0  0  0
   -0.1046   15.9052   42.8375 C   0  0  0  0  0  0  0  0  0  0  0  0
    0.3159   14.5040   42.8094 C   0  0  0  0  0  0  0  0  0  0  0  0
   -0.4274   13.4922   43.4336 C   0  0  0  0  0  0  0  0  0  0  0  0
   -0.0271   12.1613   43.3659 C   0  0  0  0  0  0  0  0  0  0  0  0
    1.0997   11.8443   42.6309 C   0  0  0  0  0  0  0  0  0  0  0  0
    1.8608   12.8123   41.9932 C   0  0  0  0  0  0  0  0  0  0  0  0
    1.4502   14.1396   42.0822 C   0  0  0  0  0  0  0  0  0  0  0  0
   -1.2294   16.3545   43.4775 C   0  0  0  0  0  0  0  0  0  0  0  0
    2.2003   18.3099   40.1698 C   0  0  0  0  0  0  0  0  0  0  0  0
    2.9883   18.4212   39.0227 C   0  0  0  0  0  0  0  0  0  0  0  0
    0.4806   19.2302   41.6587 N   0  0  0  0  0  0  0  0  0  0  0  0
    0.5882   16.8716   42.0705 N   0  0  0  0  0  0  0  0  0  0  0  0
    3.5021   20.6191   36.1536 O   0  0  0  0  0  0  0  0  0  0  0  0
    4.5508   18.6952   36.6483 O   0  0  0  0  0  0  0  0  0  0  0  0
    3.6920   17.3263   38.5802 O   0  0  0  0  0  0  0  0  0  0  0  0
   -1.5088   18.0200   43.1371 S   0  0  0  0  0  0  0  0  0  0  0  0
    1.5872   10.1867   42.5036 Cl  0  0  0  0  0  0  0  0  0  0  0  0
    2.2305   21.5663   38.0826 H   0  0  0  0  0  0  0  0  0  0  0  0
    0.6089   21.3107   39.9476 H   0  0  0  0  0  0  0  0  0  0  0  0
   -1.3418   13.7548   43.9859 H   0  0  0  0  0  0  0  0  0  0  0  0
   -0.5961   11.3772   43.8869 H   0  0  0  0  0  0  0  0  0  0  0  0
    2.7659   12.5385   41.4313 H   0  0  0  0  0  0  0  0  0  0  0  0
    2.0326   14.9184   41.5681 H   0  0  0  0  0  0  0  0  0  0  0  0
   -1.8690   15.7343   44.1227 H   0  0  0  0  0  0  0  0  0  0  0  0
    2.2109   17.3799   40.7571 H   0  0  0  0  0  0  0  0  0  0  0  0
    0.1002   20.1139   42.0263 H   0  0  0  0  0  0  0  0  0  0  0  0
  1  2  1  0
  1 19  1  0
  1 20  2  0
  2  3  1  0
  2 16  2  0
  3  4  2  0
  4  5  1  0
  5 15  2  0
  5 17  1  0
  6 17  1  0
  6 18  2  0
  6 22  1  0
  7  8  1  0
  7 14  2  0
  7 18  1  0
  8  9  1  0
  8 13  2  0
  9 10  2  0
 10 11  1  0
 11 12  2  0
 11 23  1  0
 12 13  1  0
 14 22  1  0
 15 16  1  0
 16 21  1  0
  3 24  1  0
  4 25  1  0
  9 26  1  0
 10 27  1  0
 12 28  1  0
 13 29  1  0
 14 30  1  0
 15 31  1  0
 17 32  1  0
M  CHG  2  19  -1  21  -1
M  END
>  <mol_id>  (5) 
2026-08-23-6tgu-s0-n100-r7-0005

>  <rmsd_to_ref>  (5) 
0.6377551020467789

$$$$
6tgu.A
     RDKit          3D

 32 34  0  0  0  0  0  0  0  0999 V2000
    3.6809   19.4164   36.7423 C   0  0  0  0  0  0  0  0  0  0  0  0
    2.8589   19.2964   37.9407 C   0  0  0  0  0  0  0  0  0  0  0  0
    2.2044   20.4214   38.3918 C   0  0  0  0  0  0  0  0  0  0  0  0
    1.4262   20.3214   39.5206 C   0  0  0  0  0  0  0  0  0  0  0  0
    1.2788   19.1182   40.2226 C   0  0  0  0  0  0  0  0  0  0  0  0
    0.3140   17.8577   42.0912 C   0  0  0  0  0  0  0  0  0  0  0  0
    0.3022   15.7718   42.9678 C   0  0  0  0  0  0  0  0  0  0  0  0
    0.7489   14.3871   42.9145 C   0  0  0  0  0  0  0  0  0  0  0  0
    0.3363   13.4817   43.8648 C   0  0  0  0  0  0  0  0  0  0  0  0
    0.7791   12.1562   43.7924 C   0  0  0  0  0  0  0  0  0  0  0  0
    1.6260   11.7315   42.7836 C   0  0  0  0  0  0  0  0  0  0  0  0
    2.0401   12.6392   41.8302 C   0  0  0  0  0  0  0  0  0  0  0  0
    1.5909   13.9219   41.9292 C   0  0  0  0  0  0  0  0  0  0  0  0
   -0.5727   16.2715   43.9849 C   0  0  0  0  0  0  0  0  0  0  0  0
    1.9581   18.0285   39.7224 C   0  0  0  0  0  0  0  0  0  0  0  0
    2.7525   18.0864   38.5882 C   0  0  0  0  0  0  0  0  0  0  0  0
    0.4627   19.0849   41.3771 N   0  0  0  0  0  0  0  0  0  0  0  0
    0.6161   16.7353   42.1318 N   0  0  0  0  0  0  0  0  0  0  0  0
    4.3677   18.2914   36.2462 O   0  0  0  0  0  0  0  0  0  0  0  0
    3.8148   20.4961   36.1100 O   0  0  0  0  0  0  0  0  0  0  0  0
    3.4208   16.9541   38.1209 O   0  0  0  0  0  0  0  0  0  0  0  0
   -0.8223   17.9566   43.6388 S   0  0  0  0  0  0  0  0  0  0  0  0
    2.1825   10.0715   42.6901 Cl  0  0  0  0  0  0  0  0  0  0  0  0
    2.2703   21.3880   37.9011 H   0  0  0  0  0  0  0  0  0  0  0  0
    0.9088   21.2225   39.8723 H   0  0  0  0  0  0  0  0  0  0  0  0
   -0.3115   13.7195   44.6722 H   0  0  0  0  0  0  0  0  0  0  0  0
    0.4614   11.4407   44.5316 H   0  0  0  0  0  0  0  0  0  0  0  0
    2.7029   12.3503   41.0228 H   0  0  0  0  0  0  0  0  0  0  0  0
    1.9148   14.6458   41.1779 H   0  0  0  0  0  0  0  0  0  0  0  0
   -1.0026   15.6209   44.8541 H   0  0  0  0  0  0  0  0  0  0  0  0
    1.8931   17.0744   40.2066 H   0  0  0  0  0  0  0  0  0  0  0  0
   -0.0019   19.9792   41.6576 H   0  0  0  0  0  0  0  0  0  0  0  0
  1  2  1  0
  1 19  1  0
  1 20  2  0
  2  3  1  0
  2 16  2  0
  3  4  2  0
  4  5  1  0
  5 15  2  0
  5 17  1  0
  6 17  1  0
  6 18  2  0
  6 22  1  0
  7  8  1  0
  7 14  2  0
  7 18  1  0
  8  9  1  0
  8 13  2  0
  9 10  2  0
 10 11  1  0
 11 12  2  0
 11 23  1  0
 12 13  1  0
 14 22  1  0
 15 16  1  0
 16 21  1  0
  3 24  1  0
  4 25  1  0
  9 26  1  0
 10 27  1  0
 12 28  1  0
 13 29  1  0
 14 30  1  0
 15 31  1  0
 17 32  1  0
M  CHG  2  19  -1  21  -1
M  END
>  <mol_id>  (6) 
2026-08-23-6tgu-s0-n100-r7-0006

>  <rmsd_to_ref>  (6) 
0.6836734693956964

$$$$
6tgu.A
     RDKit          3D

 32 34  0  0  0  0  0  0  0  0999 V2000
    3.0878   19.7167   36.8185 C   0  0  0  0  0  0  0  0  0  0  0  0
    2.3906   19.5862   38.1756 C   0  0  0  0  0  0  0  0  0  0  0  0
    1.4086   20.4979   38.5567 C   0  0  0  0  0  0  0  0  0  0  0  0
    0.6197   20.3058   39.6957 C   0  0  0  0  0  0  0  0  0  0  0  0
    0.9164   19.2678   40.5908 C   0  0  0  0  0  0  0  0  0  0  0  0
   -0.1357   17.8784   42.4417 C   0  0  0  0  0  0  0  0  0  0  0  0
    0.1662   15.7280   43.1203 C   0  0  0  0  0  0  0  0  0  0  0  0
    0.8396   14.4294   43.1559 C   0  0  0  0  0  0  0  0  0  0  0  0
    0.3187   13.3413   43.8706 C   0  0  0  0  0  0  0  0  0  0  0  0
    0.9577   12.1054   43.8635 C   0  0  0  0  0  0  0  0  0  0  0  0
    2.0994   11.9535   43.0993 C   0  0  0  0  0  0  0  0  0  0  0  0
    2.6455   13.0010   42.3729 C   0  0  0  0  0  0  0  0  0  0  0  0
    1.9977   14.2330   42.4020 C   0  0  0  0  0  0  0  0  0  0  0  0
   -1.0012   16.0036   43.7818 C   0  0  0  0  0  0  0  0  0  0  0  0
    1.8943   18.3350   40.2170 C   0  0  0  0  0  0  0  0  0  0  0  0
    2.6100   18.5137   39.0317 C   0  0  0  0  0  0  0  0  0  0  0  0
    0.0824   19.0189   41.7238 N   0  0  0  0  0  0  0  0  0  0  0  0
    0.6413   16.7528   42.2681 N   0  0  0  0  0  0  0  0  0  0  0  0
    2.6113   20.5748   36.0187 O   0  0  0  0  0  0  0  0  0  0  0  0
    4.0160   18.9138   36.5786 O   0  0  0  0  0  0  0  0  0  0  0  0
    3.4908   17.5404   38.6235 O   0  0  0  0  0  0  0  0  0  0  0  0
   -1.5972   17.5632   43.3570 S   0  0  0  0  0  0  0  0  0  0  0  0
    2.8831   10.4093   43.0480 Cl  0  0  0  0  0  0  0  0  0  0  0  0
    1.2488   21.3967   37.9431 H   0  0  0  0  0  0  0  0  0  0  0  0
   -0.2352   20.9703   39.8896 H   0  0  0  0  0  0  0  0  0  0  0  0
   -0.6102   13.4669   44.4463 H   0  0  0  0  0  0  0  0  0  0  0  0
    0.5623   11.2659   44.4541 H   0  0  0  0  0  0  0  0  0  0  0  0
    3.5671   12.8621   41.7887 H   0  0  0  0  0  0  0  0  0  0  0  0
    2.4076   15.0701   41.8179 H   0  0  0  0  0  0  0  0  0  0  0  0
   -1.4926   15.3202   44.4900 H   0  0  0  0  0  0  0  0  0  0  0  0
    2.0973   17.4636   40.8568 H   0  0  0  0  0  0  0  0  0  0  0  0
   -0.4440   19.8397   42.0554 H   0  0  0  0  0  0  0  0  0  0  0  0
  1  2  1  0
  1 19  1  0
  1 20  2  0
  2  3  1  0
  2 16  2  0
  3  4  2  0
  4  5  1  0
  5 15  2  0
  5 17  1  0
  6 17  1  0
  6 18  2  0
  6 22  1  0
  7  8  1  0
  7 14  2  0
  7 18  1  0
  8  9  1  0
  8 13  2  0
  9 10  2  0
 10 11  1  0
 11 12  2  0
 11 23  1  0
 12 13  1  0
 14 22  1  0
 15 16  1  0
 16 21  1  0
  3 24  1  0
  4 25  1  0
  9 26  1  0
 10 27  1  0
 12 28  1  0
 13 29  1  0
 14 30  1  0
 15 31  1  0
 17 32  1  0
M  CHG  2  19  -1  21  -1
M  END
>  <mol_id>  (7) 
2026-08-23-6tgu-s0-n100-r7-0007

>  <rmsd_to_ref>  (7) 
0.7295918367398706

$$$$
6tgu.A
     RDKit          3D

 32 34  0  0  0  0  0  0  0  0999 V2000
    3.6065   19.2202   36.7172 C   0  0  0  0  0  0  0  0  0  0  0  0
    2.7724   19.1544   37.9107 C   0  0  0  0  0  0  0  0  0  0  0  0
    2.0660   20.2559   38.3301 C   0  0  0  0  0  0  0  0  0  0  0  0
    1.2803   20.1899   39.4566 C   0  0  0  0  0  0  0  0  0  0  0  0
    1.1606   19.0217   40.2202 C   0  0  0  0  0  0  0  0  0  0  0  0
    0.1862   17.8421   42.1788 C   0  0  0  0  0  0  0  0  0  0  0  0
    0.2996   15.7745   43.0793 C   0  0  0  0  0  0  0  0  0  0  0  0
    0.8414   14.3995   43.0295 C   0  0  0  0  0  0  0  0  0  0  0  0
    0.4900   13.4791   43.9891 C   0  0  0  0  0  0  0  0  0  0  0  0
    0.9904   12.1917   43.9520 C   0  0  0  0  0  0  0  0  0  0  0  0
    1.8530   11.7949   42.9556 C   0  0  0  0  0  0  0  0  0  0  0  0
    2.2146   12.7012   41.9889 C   0  0  0  0  0  0  0  0  0  0  0  0
    1.7008   13.9889   42.0444 C   0  0  0  0  0  0  0  0  0  0  0  0
   -0.5885   16.1900   44.1016 C   0  0  0  0  0  0  0  0  0  0  0  0
    1.8847   17.9397   39.7663 C   0  0  0  0  0  0  0  0  0  0  0  0
    2.6824   17.9856   38.6334 C   0  0  0  0  0  0  0  0  0  0  0  0
    0.3504   18.9999   41.3580 N   0  0  0  0  0  0  0  0  0  0  0  0
    0.5725   16.7053   42.2234 N   0  0  0  0  0  0  0  0  0  0  0  0
    3.6936   20.3989   35.9935 O   0  0  0  0  0  0  0  0  0  0  0  0
    4.2417   18.1904   36.3603 O   0  0  0  0  0  0  0  0  0  0  0  0
    3.3920   16.8844   38.2095 O   0  0  0  0  0  0  0  0  0  0  0  0
   -0.9038   17.9409   43.6440 S   0  0  0  0  0  0  0  0  0  0  0  0
    2.5054   10.1783   42.8755 Cl  0  0  0  0  0  0  0  0  0  0  0  0
    2.1365   21.1693   37.7652 H   0  0  0  0  0  0  0  0  0  0  0  0
    0.7455   21.0921   39.7391 H   0  0  0  0  0  0  0  0  0  0  0  0
   -0.1944   13.7726   44.7906 H   0  0  0  0  0  0  0  0  0  0  0  0
    0.6870   11.4907   44.7327 H   0  0  0  0  0  0  0  0  0  0  0  0
    2.8882   12.4715   41.1697 H   0  0  0  0  0  0  0  0  0  0  0  0
    1.9906   14.6988   41.2782 H   0  0  0  0  0  0  0  0  0  0  0  0
   -0.9899   15.6926   44.9144 H   0  0  0  0  0  0  0  0  0  0  0  0
    1.8549   17.0035   40.2863 H   0  0  0  0  0  0  0  0  0  0  0  0
   -0.1575   19.8988   41.6044 H   0  0  0  0  0  0  0  0  0  0  0  0
  1  2  1  0
  1 19  1  0
  1 20  2  0
  2  3  1  0
  2 16  2  0
  3  4  2  0
  4  5  1  0
  5 15  2  0
  5 17  1  0
  6 17  1  0
  6 18  2  0
  6 22  1  0
  7  8  1  0
  7 14  2  0
  7 18  1  0
  8  9  1  0
  8 13  2  0
  9 10  2  0
 10 11  1  0
 11 12  2  0
 11 23  1  0
 12 13  1  0
 14 22  1  0
 15 16  1  0
 16 21  1  0
  3 24  1  0
  4 25  1  0
  9 26  1  0
 10 27  1  0
 12 28  1  0
 13 29  1  0
 14 30  1  0
 15 31  1  0
 17 32  1  0
M  CHG  2  19  -1  21  -1
M  END
>  <mol_id>  (8) 
2026-08-23-6tgu-s0-n100-r7-0008

>  <rmsd_to_ref>  (8) 
0.7755102040837804

$$$$
6tgu.A
     RDKit          3D

 32 34  0  0  0  0  0  0  0  0999 V2000
    3.5276   20.6939   37.9738 C   0  0  0  0  0  0  0  0  0  0  0  0
    2.7917   20.1925   39.2195 C   0  0  0  0  0  0  0  0  0  0  0  0
    1.8500   20.9975   39.8565 C   0  0  0  0  0  0  0  0  0  0  0  0
    1.0246   20.5099   40.8751 C   0  0  0  0  0  0  0  0  0  0  0  0
    1.2446   19.2316   41.4083 C   0  0  0  0  0  0  0  0  0  0  0  0
    0.0765   17.4028   42.7329 C   0  0  0  0  0  0  0  0  0  0  0  0
    0.2486   15.1344   42.7170 C   0  0  0  0  0  0  0  0  0  0  0  0
    0.8519   13.8514   42.3548 C   0  0  0  0  0  0  0  0  0  0  0  0
    0.2574   12.6280   42.6953 C   0  0  0  0  0  0  0  0  0  0  0  0
    0.8308   11.4197   42.3116 C   0  0  0  0  0  0  0  0  0  0  0  0
    1.9812   11.4451   41.5458 C   0  0  0  0  0  0  0  0  0  0  0  0
    2.5989   12.6321   41.1819 C   0  0  0  0  0  0  0  0  0  0  0  0
    2.0161   13.8304   41.5852 C   0  0  0  0  0  0  0  0  0  0  0  0
   -0.9185   15.2596   43.4231 C   0  0  0  0  0  0  0  0  0  0  0  0
    2.1811   18.4046   40.7717 C   0  0  0  0  0  0  0  0  0  0  0  0
    2.9338   18.8979   39.7045 C   0  0  0  0  0  0  0  0  0  0  0  0
    0.3714   18.6944   42.4034 N   0  0  0  0  0  0  0  0  0  0  0  0
    0.7974   16.3426   42.2259 N   0  0  0  0  0  0  0  0  0  0  0  0
    3.1164   21.7824   37.4745 O   0  0  0  0  0  0  0  0  0  0  0  0
    4.4180   19.9519   37.5044 O   0  0  0  0  0  0  0  0  0  0  0  0
    3.7720   18.0485   39.0220 O   0  0  0  0  0  0  0  0  0  0  0  0
   -1.4214   16.9057   43.4961 S   0  0  0  0  0  0  0  0  0  0  0  0
    2.6839    9.9492   41.0260 Cl  0  0  0  0  0  0  0  0  0  0  0  0
    1.7524   22.0491   39.5490 H   0  0  0  0  0  0  0  0  0  0  0  0
    0.2012   21.1303   41.2586 H   0  0  0  0  0  0  0  0  0  0  0  0
   -0.6773   12.6234   43.2752 H   0  0  0  0  0  0  0  0  0  0  0  0
    0.3776   10.4634   42.6117 H   0  0  0  0  0  0  0  0  0  0  0  0
    3.5259   12.6270   40.5897 H   0  0  0  0  0  0  0  0  0  0  0  0
    2.4834   14.7816   41.2907 H   0  0  0  0  0  0  0  0  0  0  0  0
   -1.4621   14.4209   43.8824 H   0  0  0  0  0  0  0  0  0  0  0  0
    2.3224   17.3684   41.1129 H   0  0  0  0  0  0  0  0  0  0  0  0
   -0.1191   19.4022   42.9685 H   0  0  0  0  0  0  0  0  0  0  0  0
  1  2  1  0
  1 19  1  0
  1 20  2  0
  2  3  1  0
  2 16  2  0
  3  4  2  0
  4  5  1  0
  5 15  2  0
  5 17  1  0
  6 17  1  0
  6 18  2  0
  6 22  1  0
  7  8  1  0
  7 14  2  0
  7 18  1  0
  8  9  1  0
  8 13  2  0
  9 10  2  0
 10 11  1  0
 11 12  2  0
 11 23  1  0
 12 13  1  0
 14 22  1  0
 15 16  1  0
 16 21  1  0
  3 24  1  0
  4 25  1  0
  9 26  1  0
 10 27  1  0
 12 28  1  0
 13 29  1  0
 14 30  1  0
 15 31  1  0
 17 32  1  0
M  CHG  2  19  -1  21  -1
M  END
>  <mol_id>  (9) 
2026-08-23-6tgu-s0-n100-r7-0009

>  <rmsd_to_ref>  (9) 
0.8214285714367431

$$$$
6tgu.A
     RDKit          3D

 32 34  0  0  0  0  0  0  0  0999 V2000
    3.1693   19.6220   36.5370 C   0  0  0  0  0  0  0  0  0  0  0  0
    2.4034   19.5355   37.7741 C   0  0  0  0  0  0  0  0  0  0  0  0
    1.6573   20.6043   38.2093 C   0  0  0  0  0  0  0  0  0  0  0  0
    0.9362   20.5188   39.3769 C   0  0  0  0  0  0  0  0  0  0  0  0
    0.9238   19.3628   40.1680 C   0  0  0  0  0  0  0  0  0  0  0  0
    0.1220   18.1735   42.1976 C   0  0  0  0  0  0  0  0  0  0  0  0
    0.4009   16.1360   43.1301 C   0  0  0  0  0  0  0  0  0  0  0  0
    1.0179   14.7931   43.0778 C   0  0  0  0  0  0  0  0  0  0  0  0
    0.7704   13.8757   44.0722 C   0  0  0  0  0  0  0  0  0  0  0  0
    1.3417   12.6182   44.0332 C   0  0  0  0  0  0  0  0  0  0  0  0
    2.1729   12.2489   43.0001 C   0  0  0  0  0  0  0  0  0  0  0  0
    2.4310   13.1527   41.9985 C   0  0  0  0  0  0  0  0  0  0  0  0
    1.8474   14.4101   42.0566 C   0  0  0  0  0  0  0  0  0  0  0  0
   -0.4554   16.5230   44.1899 C   0  0  0  0  0  0  0  0  0  0  0  0
    1.6846   18.3138   39.6970 C   0  0  0  0  0  0  0  0  0  0  0  0
    2.4186   18.3797   38.5227 C   0  0  0  0  0  0  0  0  0  0  0  0
    0.1763   19.3203   41.3473 N   0  0  0  0  0  0  0  0  0  0  0  0
    0.5750   17.0616   42.2434 N   0  0  0  0  0  0  0  0  0  0  0  0
    3.1506   20.7876   35.7873 O   0  0  0  0  0  0  0  0  0  0  0  0
    3.8435   18.6222   36.1667 O   0  0  0  0  0  0  0  0  0  0  0  0
    3.1676   17.3114   38.0829 O   0  0  0  0  0  0  0  0  0  0  0  0
   -0.8945   18.2427   43.7164 S   0  0  0  0  0  0  0  0  0  0  0  0
    2.9124   10.6705   42.9165 Cl  0  0  0  0  0  0  0  0  0  0  0  0
    1.6456   21.5075   37.6241 H   0  0  0  0  0  0  0  0  0  0  0  0
    0.3656   21.3953   39.6700 H   0  0  0  0  0  0  0  0  0  0  0  0
    0.1127   14.1476   44.9030 H   0  0  0  0  0  0  0  0  0  0  0  0
    1.1200   11.9185   44.8421 H   0  0  0  0  0  0  0  0  0  0  0  0
    3.0734   12.9434   41.1493 H   0  0  0  0  0  0  0  0  0  0  0  0
    2.0556   15.1182   41.2627 H   0  0  0  0  0  0  0  0  0  0  0  0
   -0.7848   16.0218   45.0322 H   0  0  0  0  0  0  0  0  0  0  0  0
    1.7359   17.3890   40.2356 H   0  0  0  0  0  0  0  0  0  0  0  0
   -0.3692   20.1942   41.6031 H   0  0  0  0  0  0  0  0  0  0  0  0
  1  2  1  0
  1 19  1  0
  1 20  2  0
  2  3  1  0
  2 16  2  0
  3  4  2  0
  4  5  1  0
  5 15  2  0
  5 17  1  0
  6 17  1  0
  6 18  2  0
  6 22  1  0
  7  8  1  0
  7 14  2  0
  7 18  1  0
  8  9  1  0
  8 13  2  0
  9 10  2  0
 10 11  1  0
 11 12  2  0
 11 23  1  0
 12 13  1  0
 14 22  1  0
 15 16  1  0
 16 21  1  0
  3 24  1  0
  4 25  1  0
  9 26  1  0
 10 27  1  0
 12 28  1  0
 13 29  1  0
 14 30  1  0
 15 31  1  0
 17 32  1  0
M  CHG  2  19  -1  21  -1
M  END
>  <mol_id>  (10) 
2026-08-23-6tgu-s0-n100-r7-0010

>  <rmsd_to_ref>  (10) 
0.8673469387842923

$$$$
6tgu.A
     RDKit          3D

 32 34  0  0  0  0  0  0  0  0999 V2000
    2.6769   20.1389   37.1162 C   0  0  0  0  0  0  0  0  0  0  0  0
    2.5658   19.7208   38.5850 C   0  0  0  0  0  0  0  0  0  0  0  0
    2.2451   20.6577   39.5648 C   0  0  0  0  0  0  0  0  0  0  0  0
    1.9492   20.2844   40.8799 C   0  0  0  0  0  0  0  0  0  0  0  0
    2.1394   18.9585   41.2951 C   0  0  0  0  0  0  0  0  0  0  0  0
    1.4326   17.3233   43.1090 C   0  0  0  0  0  0  0  0  0  0  0  0
    1.1116   15.0711   43.1182 C   0  0  0  0  0  0  0  0  0  0  0  0
    1.1844   13.7176   42.5670 C   0  0  0  0  0  0  0  0  0  0  0  0
    0.6013   12.6190   43.2143 C   0  0  0  0  0  0  0  0  0  0  0  0
    0.6534   11.3458   42.6556 C   0  0  0  0  0  0  0  0  0  0  0  0
    1.2553   11.1872   41.4215 C   0  0  0  0  0  0  0  0  0  0  0  0
    1.8393   12.2470   40.7441 C   0  0  0  0  0  0  0  0  0  0  0  0
    1.7868   13.5111   41.3249 C   0  0  0  0  0  0  0  0  0  0  0  0
    0.4966   15.3839   44.3016 C   0  0  0  0  0  0  0  0  0  0  0  0
    2.4514   18.0010   40.3194 C   0  0  0  0  0  0  0  0  0  0  0  0
    2.6630   18.3972   38.9976 C   0  0  0  0  0  0  0  0  0  0  0  0
    1.7814   18.5476   42.6159 N   0  0  0  0  0  0  0  0  0  0  0  0
    1.5788   16.1729   42.3634 N   0  0  0  0  0  0  0  0  0  0  0  0
    2.3032   21.3152   36.8338 O   0  0  0  0  0  0  0  0  0  0  0  0
    3.0495   19.2638   36.3043 O   0  0  0  0  0  0  0  0  0  0  0  0
    2.8647   17.4402   38.0316 O   0  0  0  0  0  0  0  0  0  0  0  0
    0.4397   17.0898   44.5349 S   0  0  0  0  0  0  0  0  0  0  0  0
    1.2917    9.6150   40.6945 Cl  0  0  0  0  0  0  0  0  0  0  0  0
    2.2238   21.7241   39.2958 H   0  0  0  0  0  0  0  0  0  0  0  0
    1.5665   21.0324   41.5899 H   0  0  0  0  0  0  0  0  0  0  0  0
    0.0946   12.7661   44.1795 H   0  0  0  0  0  0  0  0  0  0  0  0
    0.2240   10.4827   43.1854 H   0  0  0  0  0  0  0  0  0  0  0  0
    2.3314   12.0927   39.7725 H   0  0  0  0  0  0  0  0  0  0  0  0
    2.2300   14.3660   40.7933 H   0  0  0  0  0  0  0  0  0  0  0  0
    0.0928   14.6443   45.0087 H   0  0  0  0  0  0  0  0  0  0  0  0
    2.5294   16.9389   40.5952 H   0  0  0  0  0  0  0  0  0  0  0  0
    1.7875   19.3040   43.3150 H   0  0  0  0  0  0  0  0  0  0  0  0
  1  2  1  0
  1 19  1  0
  1 20  2  0
  2  3  1  0
  2 16  2  0
  3  4  2  0
  4  5  1  0
  5 15  2  0
  5 17  1  0
  6 17  1  0
  6 18  2  0
  6 22  1  0
  7  8  1  0
  7 14  2  0
  7 18  1  0
  8  9  1  0
  8 13  2  0
  9 10  2  0
 10 11  1  0
 11 12  2  0
 11 23  1  0
 12 13  1  0
 14 22  1  0
 15 16  1  0
 16 21  1  0
  3 24  1  0
  4 25  1  0
  9 26  1  0
 10 27  1  0
 12 28  1  0
 13 29  1  0
 14 30  1  0
 15 31  1  0
 17 32  1  0
M  CHG  2  19  -1  21  -1
M  END
>  <mol_id>  (11) 
2026-08-23-6tgu-s0-n100-r7-0011

>  <rmsd_to_ref>  (11) 
0.9132653061267494

$$$$
6tgu.A
     RDKit          3D

 32 34  0  0  0  0  0  0  0  0999 V2000
    3.9222   19.2666   36.4988 C   0  0  0  0  0  0  0  0  0  0  0  0
    3.0852   19.3059   37.6861 C   0  0  0  0  0  0  0  0  0  0  0  0
    2.4979   20.4732   38.0615 C   0  0  0  0  0  0  0  0  0  0  0  0
    1.7073   20.5002   39.1870 C   0  0  0  0  0  0  0  0  0  0  0  0
    1.4834   19.3588   39.9672 C   0  0  0  0  0  0  0  0  0  0  0  0
    0.4349   18.2649   41.9141 C   0  0  0  0  0  0  0  0  0  0  0  0
    0.3024   16.2571   42.9113 C   0  0  0  0  0  0  0  0  0  0  0  0
    0.7053   14.8423   42.9007 C   0  0  0  0  0  0  0  0  0  0  0  0
    1.5287   14.3064   41.9325 C   0  0  0  0  0  0  0  0  0  0  0  0
    1.9003   12.9803   41.9313 C   0  0  0  0  0  0  0  0  0  0  0  0
    1.4516   12.1318   42.9172 C   0  0  0  0  0  0  0  0  0  0  0  0
    0.6180   12.6396   43.9114 C   0  0  0  0  0  0  0  0  0  0  0  0
    0.2655   13.9754   43.8811 C   0  0  0  0  0  0  0  0  0  0  0  0
   -0.5191   16.7734   43.8846 C   0  0  0  0  0  0  0  0  0  0  0  0
    2.1043   18.2125   39.5352 C   0  0  0  0  0  0  0  0  0  0  0  0
    2.9057   18.1585   38.4049 C   0  0  0  0  0  0  0  0  0  0  0  0
    0.6624   19.4455   41.1126 N   0  0  0  0  0  0  0  0  0  0  0  0
    0.6769   17.1433   42.0168 N   0  0  0  0  0  0  0  0  0  0  0  0
    4.1288   20.4288   35.7349 O   0  0  0  0  0  0  0  0  0  0  0  0
    4.4950   18.2255   36.0935 O   0  0  0  0  0  0  0  0  0  0  0  0
    3.5195   16.9687   38.0004 O   0  0  0  0  0  0  0  0  0  0  0  0
   -0.6891   18.5362   43.4207 S   0  0  0  0  0  0  0  0  0  0  0  0
    1.8825   10.4404   42.9776 Cl  0  0  0  0  0  0  0  0  0  0  0  0
    2.6294   21.3955   37.5019 H   0  0  0  0  0  0  0  0  0  0  0  0
    1.2319   21.4454   39.4908 H   0  0  0  0  0  0  0  0  0  0  0  0
    1.8794   14.9809   41.1575 H   0  0  0  0  0  0  0  0  0  0  0  0
    2.5483   12.5719   41.1640 H   0  0  0  0  0  0  0  0  0  0  0  0
    0.2433   12.0037   44.7055 H   0  0  0  0  0  0  0  0  0  0  0  0
   -0.3826   14.3482   44.6630 H   0  0  0  0  0  0  0  0  0  0  0  0
   -1.0028   16.3342   44.7564 H   0  0  0  0  0  0  0  0  0  0  0  0
    1.9844   17.2948   40.0760 H   0  0  0  0  0  0  0  0  0  0  0  0
    0.2451   20.3679   41.3418 H   0  0  0  0  0  0  0  0  0  0  0  0
  1  2  1  0
  1 19  1  0
  1 20  2  0
  2  3  1  0
  2 16  2  0
  3  4  2  0
  4  5  1  0
  5 15  2  0
  5 17  1  0
  6 17  1  0
  6 18  2  0
  6 22  1  0
  7  8  1  0
  7 14  2  0
  7 18  1  0
  8  9  1  0
  8 13  2  0
  9 10  2  0
 10 11  1  0
 11 12  2  0
 11 23  1  0
 12 13  1  0
 14 22  1  0
 15 16  1  0
 16 21  1  0
  3 24  1  0
  4 25  1  0
  9 26  1  0
 10 27  1  0
 12 28  1  0
 13 29  1  0
 14 30  1  0
 15 31  1  0
 17 32  1  0
M  CHG  2  19  -1  21  -1
M  END
>  <mol_id>  (12) 
2026-08-23-6tgu-s0-n100-r7-0012

>  <rmsd_to_ref>  (12) 
0.9591836734760006

$$$$
6tgu.A
     RDKit          3D

 32 34  0  0  0  0  0  0  0  0999 V2000
    3.5661   19.1645   36.7189 C   0  0  0  0  0  0  0  0  0  0  0  0
    3.1118   19.1954   38.1809 C   0  0  0  0  0  0  0  0  0  0  0  0
    2.6920   20.3880   38.7660 C   0  0  0  0  0  0  0  0  0  0  0  0
    2.0942   20.4241   40.0300 C   0  0  0  0  0  0  0  0  0  0  0  0
    2.0589   19.2696   40.8255 C   0  0  0  0  0  0  0  0  0  0  0  0
    0.8301   18.2597   42.8088 C   0  0  0  0  0  0  0  0  0  0  0  0
    0.2874   16.1210   43.3631 C   0  0  0  0  0  0  0  0  0  0  0  0
    0.3350   14.6640   43.2364 C   0  0  0  0  0  0  0  0  0  0  0  0
   -0.4777   13.8237   44.0106 C   0  0  0  0  0  0  0  0  0  0  0  0
   -0.4407   12.4420   43.8501 C   0  0  0  0  0  0  0  0  0  0  0  0
    0.3843   11.9092   42.8775 C   0  0  0  0  0  0  0  0  0  0  0  0
    1.2001   12.7037   42.0861 C   0  0  0  0  0  0  0  0  0  0  0  0
    1.1572   14.0830   42.2696 C   0  0  0  0  0  0  0  0  0  0  0  0
   -0.5241   16.7870   44.2430 C   0  0  0  0  0  0  0  0  0  0  0  0
    2.4672   18.0590   40.2478 C   0  0  0  0  0  0  0  0  0  0  0  0
    2.9867   18.0460   38.9520 C   0  0  0  0  0  0  0  0  0  0  0  0
    1.3957   19.2739   42.0909 N   0  0  0  0  0  0  0  0  0  0  0  0
    1.0099   16.9377   42.4613 N   0  0  0  0  0  0  0  0  0  0  0  0
    3.3801   20.2215   36.0471 O   0  0  0  0  0  0  0  0  0  0  0  0
    4.0078   18.0779   36.2854 O   0  0  0  0  0  0  0  0  0  0  0  0
    3.2857   16.8428   38.3583 O   0  0  0  0  0  0  0  0  0  0  0  0
   -0.4546   18.4881   43.9795 S   0  0  0  0  0  0  0  0  0  0  0  0
    0.4106   10.1935   42.6384 Cl  0  0  0  0  0  0  0  0  0  0  0  0
    2.8351   21.3303   38.2170 H   0  0  0  0  0  0  0  0  0  0  0  0
    1.6508   21.3600   40.4009 H   0  0  0  0  0  0  0  0  0  0  0  0
   -1.1555   14.2638   44.7568 H   0  0  0  0  0  0  0  0  0  0  0  0
   -1.0556   11.7869   44.4847 H   0  0  0  0  0  0  0  0  0  0  0  0
    1.8643   12.2554   41.3326 H   0  0  0  0  0  0  0  0  0  0  0  0
    1.7851   14.7294   41.6387 H   0  0  0  0  0  0  0  0  0  0  0  0
   -1.1383   16.3005   45.0151 H   0  0  0  0  0  0  0  0  0  0  0  0
    2.3784   17.1206   40.8149 H   0  0  0  0  0  0  0  0  0  0  0  0
    1.3338   20.1998   42.5378 H   0  0  0  0  0  0  0  0  0  0  0  0
  1  2  1  0
  1 19  1  0
  1 20  2  0
  2  3  1  0
  2 16  2  0
  3  4  2  0
  4  5  1  0
  5 15  2  0
  5 17  1  0
  6 17  1  0
  6 18  2  0
  6 22  1  0
  7  8  1  0
  7 14  2  0
  7 18  1  0
  8  9  1  0
  8 13  2  0
  9 10  2  0
 10 11  1  0
 11 12  2  0
 11 23  1  0
 12 13  1  0
 14 22  1  0
 15 16  1  0
 16 21  1  0
  3 24  1  0
  4 25  1  0
  9 26  1  0
 10 27  1  0
 12 28  1  0
 13 29  1  0
 14 30  1  0
 15 31  1  0
 17 32  1  0
M  CHG  2  19  -1  21  -1
M  END
>  <mol_id>  (13) 
2026-08-23-6tgu-s0-n100-r7-0013

>  <rmsd_to_ref>  (13) 
1.0051020408196136

$$$$
6tgu.A
     RDKit          3D

 32 34  0  0  0  0  0  0  0  0999 V2000
    4.7365   19.1525   37.1133 C   0  0  0  0  0  0  0  0  0  0  0  0
    3.7347   19.1685   38.1719 C   0  0  0  0  0  0  0  0  0  0  0  0
    3.1253   20.3443   38.5384 C   0  0  0  0  0  0  0  0  0  0  0  0
    2.1807   20.3553   39.5375 C   0  0  0  0  0  0  0  0  0  0  0  0
    1.7975   19.1938   40.2204 C   0  0  0  0  0  0  0  0  0  0  0  0
    0.3993   18.1049   41.9628 C   0  0  0  0  0  0  0  0  0  0  0  0
    0.1062   16.0172   42.7715 C   0  0  0  0  0  0  0  0  0  0  0  0
    0.4640   14.5828   42.7341 C   0  0  0  0  0  0  0  0  0  0  0  0
   -0.1426   13.6930   43.5896 C   0  0  0  0  0  0  0  0  0  0  0  0
    0.1843   12.3507   43.5631 C   0  0  0  0  0  0  0  0  0  0  0  0
    1.1242   11.8673   42.6815 C   0  0  0  0  0  0  0  0  0  0  0  0
    1.7400   12.7420   41.8199 C   0  0  0  0  0  0  0  0  0  0  0  0
    1.3974   14.0858   41.8627 C   0  0  0  0  0  0  0  0  0  0  0  0
   -0.8601   16.5219   43.6759 C   0  0  0  0  0  0  0  0  0  0  0  0
    2.4319   18.0359   39.8232 C   0  0  0  0  0  0  0  0  0  0  0  0
    3.3866   18.0035   38.8184 C   0  0  0  0  0  0  0  0  0  0  0  0
    0.8331   19.2517   41.2293 N   0  0  0  0  0  0  0  0  0  0  0  0
    0.6220   16.9252   42.0080 N   0  0  0  0  0  0  0  0  0  0  0  0
    5.0832   20.3278   36.4658 O   0  0  0  0  0  0  0  0  0  0  0  0
    5.2763   18.0557   36.8019 O   0  0  0  0  0  0  0  0  0  0  0  0
    3.9998   16.8277   38.4479 O   0  0  0  0  0  0  0  0  0  0  0  0
   -0.8718   18.3115   43.2615 S   0  0  0  0  0  0  0  0  0  0  0  0
    1.5631   10.1795   42.6186 Cl  0  0  0  0  0  0  0  0  0  0  0  0
    3.3974   21.2547   38.0330 H   0  0  0  0  0  0  0  0  0  0  0  0
    1.7335   21.3141   39.7836 H   0  0  0  0  0  0  0  0  0  0  0  0
   -0.8927   14.0551   44.2988 H   0  0  0  0  0  0  0  0  0  0  0  0
   -0.3201   11.6765   44.2588 H   0  0  0  0  0  0  0  0  0  0  0  0
    2.4907   12.4450   41.0947 H   0  0  0  0  0  0  0  0  0  0  0  0
    1.8874   14.7703   41.1799 H   0  0  0  0  0  0  0  0  0  0  0  0
   -1.4385   16.0618   44.3990 H   0  0  0  0  0  0  0  0  0  0  0  0
    2.2032   17.0985   40.2888 H   0  0  0  0  0  0  0  0  0  0  0  0
    0.4171   20.2045   41.4433 H   0  0  0  0  0  0  0  0  0  0  0  0
  1  2  1  0
  1 19  1  0
  1 20  2  0
  2  3  1  0
  2 16  2  0
  3  4  2  0
  4  5  1  0
  5 15  2  0
  5 17  1  0
  6 17  1  0
  6 18  2  0
  6 22  1  0
  7  8  1  0
  7 14  2  0
  7 18  1  0
  8  9  1  0
  8 13  2  0
  9 10  2  0
 10 11  1  0
 11 12  2  0
 11 23  1  0
 12 13  1  0
 14 22  1  0
 15 16  1  0
 16 21  1  0
  3 24  1  0
  4 25  1  0
  9 26  1  0
 10 27  1  0
 12 28  1  0
 13 29  1  0
 14 30  1  0
 15 31  1  0
 17 32  1  0
M  CHG  2  19  -1  21  -1
M  END
>  <mol_id>  (14) 
2026-08-23-6tgu-s0-n100-r7-0014

>  <rmsd_to_ref>  (14) 
1.0510204081714791

$$$$
6tgu.A
     RDKit          3D

 32 34  0  0  0  0  0  0  0  0999 V2000
    3.7765   20.6164   37.8377 C   0  0  0  0  0  0  0  0  0  0  0  0
    3.0707   20.1342   39.1081 C   0  0  0  0  0  0  0  0  0  0  0  0
    2.3876   21.0344   39.9227 C   0  0  0  0  0  0  0  0  0  0  0  0
    1.5764   20.6101   40.9803 C   0  0  0  0  0  0  0  0  0  0  0  0
    1.5664   19.2608   41.3625 C   0  0  0  0  0  0  0  0  0  0  0  0
    0.1632   17.5668   42.6371 C   0  0  0  0  0  0  0  0  0  0  0  0
   -0.1572   15.3281   42.3894 C   0  0  0  0  0  0  0  0  0  0  0  0
    0.1202   14.0001   41.8412 C   0  0  0  0  0  0  0  0  0  0  0  0
   -0.6880   12.8920   42.1327 C   0  0  0  0  0  0  0  0  0  0  0  0
   -0.4257   11.6451   41.5737 C   0  0  0  0  0  0  0  0  0  0  0  0
    0.6261   11.5247   40.6851 C   0  0  0  0  0  0  0  0  0  0  0  0
    1.4469   12.5954   40.3644 C   0  0  0  0  0  0  0  0  0  0  0  0
    1.1751   13.8322   40.9429 C   0  0  0  0  0  0  0  0  0  0  0  0
   -1.1987   15.6053   43.2350 C   0  0  0  0  0  0  0  0  0  0  0  0
    2.2397   18.3402   40.5469 C   0  0  0  0  0  0  0  0  0  0  0  0
    2.9769   18.7904   39.4501 C   0  0  0  0  0  0  0  0  0  0  0  0
    0.6959   18.8008   42.3978 N   0  0  0  0  0  0  0  0  0  0  0  0
    0.5891   16.4482   41.9529 N   0  0  0  0  0  0  0  0  0  0  0  0
    3.5631   21.8160   37.4935 O   0  0  0  0  0  0  0  0  0  0  0  0
    4.4389   19.7684   37.2006 O   0  0  0  0  0  0  0  0  0  0  0  0
    3.5455   17.8733   38.5985 O   0  0  0  0  0  0  0  0  0  0  0  0
   -1.3279   17.2995   43.5195 S   0  0  0  0  0  0  0  0  0  0  0  0
    0.9397    9.9877   39.9497 Cl  0  0  0  0  0  0  0  0  0  0  0  0
    2.4893   22.1123   39.7283 H   0  0  0  0  0  0  0  0  0  0  0  0
    0.9450   21.3362   41.5132 H   0  0  0  0  0  0  0  0  0  0  0  0
   -1.5432   13.0103   42.8143 H   0  0  0  0  0  0  0  0  0  0  0  0
   -1.0431   10.7727   41.8337 H   0  0  0  0  0  0  0  0  0  0  0  0
    2.2914   12.4707   39.6706 H   0  0  0  0  0  0  0  0  0  0  0  0
    1.8057   14.6962   40.6863 H   0  0  0  0  0  0  0  0  0  0  0  0
   -1.8638   14.8471   43.6739 H   0  0  0  0  0  0  0  0  0  0  0  0
    2.1870   17.2645   40.7709 H   0  0  0  0  0  0  0  0  0  0  0  0
    0.4238   19.5232   43.0797 H   0  0  0  0  0  0  0  0  0  0  0  0
  1  2  1  0
  1 19  1  0
  1 20  2  0
  2  3  1  0
  2 16  2  0
  3  4  2  0
  4  5  1  0
  5 15  2  0
  5 17  1  0
  6 17  1  0
  6 18  2  0
  6 22  1  0
  7  8  1  0
  7 14  2  0
  7 18  1  0
  8  9  1  0
  8 13  2  0
  9 10  2  0
 10 11  1  0
 11 12  2  0
 11 23  1  0
 12 13  1  0
 14 22  1  0
 15 16  1  0
 16 21  1  0
  3 24  1  0
  4 25  1  0
  9 26  1  0
 10 27  1  0
 12 28  1  0
 13 29  1  0
 14 30  1  0
 15 31  1  0
 17 32  1  0
M  CHG  2  19  -1  21  -1
M  END
>  <mol_id>  (15) 
2026-08-23-6tgu-s0-n100-r7-0015

>  <rmsd_to_ref>  (15) 
1.0969387755118705

$$$$
6tgu.A
     RDKit          3D

 32 34  0  0  0  0  0  0  0  0999 V2000
    2.9587   21.2327   37.8977 C   0  0  0  0  0  0  0  0  0  0  0  0
    2.5407   20.5665   39.1275 C   0  0  0  0  0  0  0  0  0  0  0  0
    2.4186   21.3016   40.2927 C   0  0  0  0  0  0  0  0  0  0  0  0
    2.0312   20.6903   41.4715 C   0  0  0  0  0  0  0  0  0  0  0  0
    1.7636   19.3147   41.4666 C   0  0  0  0  0  0  0  0  0  0  0  0
    0.8781   17.2966   42.5703 C   0  0  0  0  0  0  0  0  0  0  0  0
    0.5344   15.0643   42.4199 C   0  0  0  0  0  0  0  0  0  0  0  0
    1.0488   13.6825   42.2666 C   0  0  0  0  0  0  0  0  0  0  0  0
    2.3895   13.4159   42.1500 C   0  0  0  0  0  0  0  0  0  0  0  0
    2.8608   12.1061   41.9905 C   0  0  0  0  0  0  0  0  0  0  0  0
    1.9687   11.0345   41.9458 C   0  0  0  0  0  0  0  0  0  0  0  0
    0.6490   11.3202   42.0637 C   0  0  0  0  0  0  0  0  0  0  0  0
    0.1838   12.6111   42.2207 C   0  0  0  0  0  0  0  0  0  0  0  0
   -0.8481   15.3000   42.5277 C   0  0  0  0  0  0  0  0  0  0  0  0
    1.8873   18.5756   40.2868 C   0  0  0  0  0  0  0  0  0  0  0  0
    2.2759   19.2019   39.1195 C   0  0  0  0  0  0  0  0  0  0  0  0
    1.3803   18.6192   42.6501 N   0  0  0  0  0  0  0  0  0  0  0  0
    1.2801   16.1167   42.4534 N   0  0  0  0  0  0  0  0  0  0  0  0
    3.0916   20.5036   36.7284 O   0  0  0  0  0  0  0  0  0  0  0  0
    3.2105   22.4676   37.8491 O   0  0  0  0  0  0  0  0  0  0  0  0
    2.4052   18.4860   37.9350 O   0  0  0  0  0  0  0  0  0  0  0  0
   -0.9537   17.0572   42.6707 S   0  0  0  0  0  0  0  0  0  0  0  0
    2.5180    9.3814   41.7477 Cl  0  0  0  0  0  0  0  0  0  0  0  0
    2.6206   22.3696   40.3178 H   0  0  0  0  0  0  0  0  0  0  0  0
    1.9224   21.2383   42.4118 H   0  0  0  0  0  0  0  0  0  0  0  0
    3.1045   14.1990   42.1785 H   0  0  0  0  0  0  0  0  0  0  0  0
    3.9260   11.9175   41.8983 H   0  0  0  0  0  0  0  0  0  0  0  0
   -0.0777   10.5160   42.0356 H   0  0  0  0  0  0  0  0  0  0  0  0
   -0.8650   12.7580   42.3075 H   0  0  0  0  0  0  0  0  0  0  0  0
   -1.6551   14.6045   42.5246 H   0  0  0  0  0  0  0  0  0  0  0  0
    1.6840   17.5059   40.2564 H   0  0  0  0  0  0  0  0  0  0  0  0
    1.4715   19.0901   43.5837 H   0  0  0  0  0  0  0  0  0  0  0  0
  1  2  1  0
  1 19  1  0
  1 20  2  0
  2  3  1  0
  2 16  2  0
  3  4  2  0
  4  5  1  0
  5 15  2  0
  5 17  1  0
  6 17  1  0
  6 18  2  0
  6 22  1  0
  7  8  1  0
  7 14  2  0
  7 18  1  0
  8  9  1  0
  8 13  2  0
  9 10  2  0
 10 11  1  0
 11 12  2  0
 11 23  1  0
 12 13  1  0
 14 22  1  0
 15 16  1  0
 16 21  1  0
  3 24  1  0
  4 25  1  0
  9 26  1  0
 10 27  1  0
 12 28  1  0
 13 29  1  0
 14 30  1  0
 15 31  1  0
 17 32  1  0
M  CHG  2  19  -1  21  -1
M  END
>  <mol_id>  (16) 
2026-08-23-6tgu-s0-n100-r7-0016

>  <rmsd_to_ref>  (16) 
1.1428571428612921

$$$$
6tgu.A
     RDKit          3D

 32 34  0  0  0  0  0  0  0  0999 V2000
    3.7432   19.1189   36.2868 C   0  0  0  0  0  0  0  0  0  0  0  0
    3.3845   19.0482   37.7738 C   0  0  0  0  0  0  0  0  0  0  0  0
    3.1581   20.2134   38.5030 C   0  0  0  0  0  0  0  0  0  0  0  0
    2.6464   20.1866   39.8044 C   0  0  0  0  0  0  0  0  0  0  0  0
    2.5096   18.9665   40.4822 C   0  0  0  0  0  0  0  0  0  0  0  0
    1.2809   17.9077   42.4399 C   0  0  0  0  0  0  0  0  0  0  0  0
    0.5003   15.8045   42.8180 C   0  0  0  0  0  0  0  0  0  0  0  0
    0.3514   14.3747   42.5447 C   0  0  0  0  0  0  0  0  0  0  0  0
   -0.5155   13.5620   43.2889 C   0  0  0  0  0  0  0  0  0  0  0  0
   -0.6671   12.2115   42.9904 C   0  0  0  0  0  0  0  0  0  0  0  0
    0.0226   11.6892   41.9124 C   0  0  0  0  0  0  0  0  0  0  0  0
    0.8857   12.4581   41.1464 C   0  0  0  0  0  0  0  0  0  0  0  0
    1.0325   13.8046   41.4680 C   0  0  0  0  0  0  0  0  0  0  0  0
   -0.1644   16.4666   43.8161 C   0  0  0  0  0  0  0  0  0  0  0  0
    2.7228   17.7840   39.7595 C   0  0  0  0  0  0  0  0  0  0  0  0
    3.1581   17.8467   38.4345 C   0  0  0  0  0  0  0  0  0  0  0  0
    1.9291   18.9161   41.7867 N   0  0  0  0  0  0  0  0  0  0  0  0
    1.2673   16.6186   41.9513 N   0  0  0  0  0  0  0  0  0  0  0  0
    3.6557   20.2566   35.7381 O   0  0  0  0  0  0  0  0  0  0  0  0
    4.0140   18.0393   35.7170 O   0  0  0  0  0  0  0  0  0  0  0  0
    3.2631   16.6866   37.7045 O   0  0  0  0  0  0  0  0  0  0  0  0
    0.1085   18.1647   43.7177 S   0  0  0  0  0  0  0  0  0  0  0  0
   -0.1875   10.0188   41.5035 Cl  0  0  0  0  0  0  0  0  0  0  0  0
    3.3889   21.1846   38.0409 H   0  0  0  0  0  0  0  0  0  0  0  0
    2.3506   21.1245   40.2973 H   0  0  0  0  0  0  0  0  0  0  0  0
   -1.0851   13.9992   44.1223 H   0  0  0  0  0  0  0  0  0  0  0  0
   -1.3226   11.5723   43.6000 H   0  0  0  0  0  0  0  0  0  0  0  0
    1.4403   12.0153   40.3059 H   0  0  0  0  0  0  0  0  0  0  0  0
    1.6999   14.4331   40.8602 H   0  0  0  0  0  0  0  0  0  0  0  0
   -0.7893   15.9789   44.5788 H   0  0  0  0  0  0  0  0  0  0  0  0
    2.5473   16.8082   40.2360 H   0  0  0  0  0  0  0  0  0  0  0  0
    2.0142   19.7894   42.3263 H   0  0  0  0  0  0  0  0  0  0  0  0
  1  2  1  0
  1 19  1  0
  1 20  2  0
  2  3  1  0
  2 16  2  0
  3  4  2  0
  4  5  1  0
  5 15  2  0
  5 17  1  0
  6 17  1  0
  6 18  2  0
  6 22  1  0
  7  8  1  0
  7 14  2  0
  7 18  1  0
  8  9  1  0
  8 13  2  0
  9 10  2  0
 10 11  1  0
 11 12  2  0
 11 23  1  0
 12 13  1  0
 14 22  1  0
 15 16  1  0
 16 21  1  0
  3 24  1  0
  4 25  1  0
  9 26  1  0
 10 27  1  0
 12 28  1  0
 13 29  1  0
 14 30  1  0
 15 31  1  0
 17 32  1  0
M  CHG  2  19  -1  21  -1
M  END
>  <mol_id>  (17) 
2026-08-23-6tgu-s0-n100-r7-0017

>  <rmsd_to_ref>  (17) 
1.1887755102092206

$$$$
6tgu.A
     RDKit          3D

 32 34  0  0  0  0  0  0  0  0999 V2000
    2.9206   20.7274   37.0753 C   0  0  0  0  0  0  0  0  0  0  0  0
    2.1836   20.2021   38.1961 C   0  0  0  0  0  0  0  0  0  0  0  0
    1.0454   20.8424   38.6552 C   0  0  0  0  0  0  0  0  0  0  0  0
    0.3564   20.3312   39.7176 C   0  0  0  0  0  0  0  0  0  0  0  0
    0.8297   19.1676   40.3096 C   0  0  0  0  0  0  0  0  0  0  0  0
    0.6047   17.4773   42.1216 C   0  0  0  0  0  0  0  0  0  0  0  0
    1.2119   15.4893   42.9571 C   0  0  0  0  0  0  0  0  0  0  0  0
    1.1697   14.0293   42.8224 C   0  0  0  0  0  0  0  0  0  0  0  0
    0.5147   13.3853   41.7942 C   0  0  0  0  0  0  0  0  0  0  0  0
    0.4928   12.0255   41.6900 C   0  0  0  0  0  0  0  0  0  0  0  0
    1.1262   11.2094   42.6095 C   0  0  0  0  0  0  0  0  0  0  0  0
    1.7908   11.8390   43.6517 C   0  0  0  0  0  0  0  0  0  0  0  0
    1.8060   13.2240   43.7469 C   0  0  0  0  0  0  0  0  0  0  0  0
    1.8857   16.1105   43.9951 C   0  0  0  0  0  0  0  0  0  0  0  0
    1.9591   18.5093   39.8741 C   0  0  0  0  0  0  0  0  0  0  0  0
    2.6437   19.0483   38.7914 C   0  0  0  0  0  0  0  0  0  0  0  0
    0.0891   18.6507   41.4059 N   0  0  0  0  0  0  0  0  0  0  0  0
    0.6398   16.3351   42.1297 N   0  0  0  0  0  0  0  0  0  0  0  0
    2.5068   21.9033   36.4180 O   0  0  0  0  0  0  0  0  0  0  0  0
    3.9598   20.1046   36.6866 O   0  0  0  0  0  0  0  0  0  0  0  0
    3.7839   18.3787   38.3565 O   0  0  0  0  0  0  0  0  0  0  0  0
    1.6378   17.8792   43.6915 S   0  0  0  0  0  0  0  0  0  0  0  0
    1.0935    9.4551   42.4677 Cl  0  0  0  0  0  0  0  0  0  0  0  0
    0.7197   21.7480   38.1559 H   0  0  0  0  0  0  0  0  0  0  0  0
   -0.5435   20.8414   40.0801 H   0  0  0  0  0  0  0  0  0  0  0  0
   -0.0033   13.9923   41.0372 H   0  0  0  0  0  0  0  0  0  0  0  0
   -0.0436   11.5816   40.8531 H   0  0  0  0  0  0  0  0  0  0  0  0
    2.3023   11.2450   44.3961 H   0  0  0  0  0  0  0  0  0  0  0  0
    2.3395   13.6668   44.5811 H   0  0  0  0  0  0  0  0  0  0  0  0
    2.4433   15.7026   44.8197 H   0  0  0  0  0  0  0  0  0  0  0  0
    2.2868   17.6080   40.3683 H   0  0  0  0  0  0  0  0  0  0  0  0
   -0.7928   19.0332   41.7499 H   0  0  0  0  0  0  0  0  0  0  0  0
  1  2  1  0
  1 19  1  0
  1 20  2  0
  2  3  1  0
  2 16  2  0
  3  4  2  0
  4  5  1  0
  5 15  2  0
  5 17  1  0
  6 17  1  0
  6 18  2  0
  6 22  1  0
  7  8  1  0
  7 14  2  0
  7 18  1  0
  8  9  1  0
  8 13  2  0
  9 10  2  0
 10 11  1  0
 11 12  2  0
 11 23  1  0
 12 13  1  0
 14 22  1  0
 15 16  1  0
 16 21  1  0
  3 24  1  0
  4 25  1  0
  9 26  1  0
 10 27  1  0
 12 28  1  0
 13 29  1  0
 14 30  1  0
 15 31  1  0
 17 32  1  0
M  CHG  2  19  -1  21  -1
M  END
>  <mol_id>  (18) 
2026-08-23-6tgu-s0-n100-r7-0018

>  <rmsd_to_ref>  (18) 
1.234693877552187

$$$$
6tgu.A
     RDKit          3D

 32 34  0  0  0  0  0  0  0  0999 V2000
    4.2166   20.8992   37.9479 C   0  0  0  0  0  0  0  0  0  0  0  0
    3.4846   20.3491   39.1751 C   0  0  0  0  0  0  0  0  0  0  0  0
    2.7692   21.2016   40.0130 C   0  0  0  0  0  0  0  0  0  0  0  0
    1.9365   20.7182   41.0276 C   0  0  0  0  0  0  0  0  0  0  0  0
    1.9340   19.3523   41.3454 C   0  0  0  0  0  0  0  0  0  0  0  0
    0.5203   17.5835   42.5013 C   0  0  0  0  0  0  0  0  0  0  0  0
    0.2351   15.3556   42.1400 C   0  0  0  0  0  0  0  0  0  0  0  0
    0.5435   14.0584   41.5373 C   0  0  0  0  0  0  0  0  0  0  0  0
   -0.2576   12.9284   41.7548 C   0  0  0  0  0  0  0  0  0  0  0  0
    0.0350   11.7126   41.1447 C   0  0  0  0  0  0  0  0  0  0  0  0
    1.1108   11.6467   40.2795 C   0  0  0  0  0  0  0  0  0  0  0  0
    1.9258   12.7408   40.0314 C   0  0  0  0  0  0  0  0  0  0  0  0
    1.6234   13.9455   40.6602 C   0  0  0  0  0  0  0  0  0  0  0  0
   -0.8313   15.5802   42.9700 C   0  0  0  0  0  0  0  0  0  0  0  0
    2.6398   18.4793   40.5053 C   0  0  0  0  0  0  0  0  0  0  0  0
    3.3992   18.9896   39.4508 C   0  0  0  0  0  0  0  0  0  0  0  0
    1.0431   18.8336   42.3345 N   0  0  0  0  0  0  0  0  0  0  0  0
    0.9780   16.5037   41.7766 N   0  0  0  0  0  0  0  0  0  0  0  0
    3.9968   22.1112   37.6551 O   0  0  0  0  0  0  0  0  0  0  0  0
    4.9061   20.0901   37.2892 O   0  0  0  0  0  0  0  0  0  0  0  0
    4.0013   18.1206   38.5721 O   0  0  0  0  0  0  0  0  0  0  0  0
   -0.9895   17.2573   43.3305 S   0  0  0  0  0  0  0  0  0  0  0  0
    1.4629   10.1501   39.4809 Cl  0  0  0  0  0  0  0  0  0  0  0  0
    2.8620   22.2886   39.8723 H   0  0  0  0  0  0  0  0  0  0  0  0
    1.2823   21.4109   41.5774 H   0  0  0  0  0  0  0  0  0  0  0  0
   -1.1316   13.0043   42.4185 H   0  0  0  0  0  0  0  0  0  0  0  0
   -0.5777   10.8216   41.3470 H   0  0  0  0  0  0  0  0  0  0  0  0
    2.7894   12.6590   39.3549 H   0  0  0  0  0  0  0  0  0  0  0  0
    2.2492   14.8280   40.4613 H   0  0  0  0  0  0  0  0  0  0  0  0
   -1.4977   14.7943   43.3550 H   0  0  0  0  0  0  0  0  0  0  0  0
    2.5952   17.3936   40.6769 H   0  0  0  0  0  0  0  0  0  0  0  0
    0.7443   19.5196   43.0423 H   0  0  0  0  0  0  0  0  0  0  0  0
  1  2  1  0
  1 19  1  0
  1 20  2  0
  2  3  1  0
  2 16  2  0
  3  4  2  0
  4  5  1  0
  5 15  2  0
  5 17  1  0
  6 17  1  0
  6 18  2  0
  6 22  1  0
  7  8  1  0
  7 14  2  0
  7 18  1  0
  8  9  1  0
  8 13  2  0
  9 10  2  0
 10 11  1  0
 11 12  2  0
 11 23  1  0
 12 13  1  0
 14 22  1  0
 15 16  1  0
 16 21  1  0
  3 24  1  0
  4 25  1  0
  9 26  1  0
 10 27  1  0
 12 28  1  0
 13 29  1  0
 14 30  1  0
 15 31  1  0
 17 32  1  0
M  CHG  2  19  -1  21  -1
M  END
>  <mol_id>  (19) 
2026-08-23-6tgu-s0-n100-r7-0019

>  <rmsd_to_ref>  (19) 
1.2806122449069712

$$$$
6tgu.A
     RDKit          3D

 32 34  0  0  0  0  0  0  0  0999 V2000
    4.3731   18.8880   37.1943 C   0  0  0  0  0  0  0  0  0  0  0  0
    3.6455   18.9436   38.4510 C   0  0  0  0  0  0  0  0  0  0  0  0
    3.4923   20.1327   39.0921 C   0  0  0  0  0  0  0  0  0  0  0  0
    2.8019   20.1749   40.2812 C   0  0  0  0  0  0  0  0  0  0  0  0
    2.2461   19.0274   40.8607 C   0  0  0  0  0  0  0  0  0  0  0  0
    0.9760   17.9433   42.6767 C   0  0  0  0  0  0  0  0  0  0  0  0
    0.2293   15.9196   43.3014 C   0  0  0  0  0  0  0  0  0  0  0  0
    0.1418   14.4841   42.9916 C   0  0  0  0  0  0  0  0  0  0  0  0
    0.7017   13.9277   41.8604 C   0  0  0  0  0  0  0  0  0  0  0  0
    0.6143   12.5823   41.5792 C   0  0  0  0  0  0  0  0  0  0  0  0
   -0.0484   11.7346   42.4367 C   0  0  0  0  0  0  0  0  0  0  0  0
   -0.6261   12.2628   43.5893 C   0  0  0  0  0  0  0  0  0  0  0  0
   -0.5188   13.6176   43.8395 C   0  0  0  0  0  0  0  0  0  0  0  0
   -0.3350   16.4561   44.4338 C   0  0  0  0  0  0  0  0  0  0  0  0
    2.4354   17.8589   40.1644 C   0  0  0  0  0  0  0  0  0  0  0  0
    3.1270   17.7891   38.9646 C   0  0  0  0  0  0  0  0  0  0  0  0
    1.5474   19.1304   42.0833 N   0  0  0  0  0  0  0  0  0  0  0  0
    0.8383   16.8068   42.5480 N   0  0  0  0  0  0  0  0  0  0  0  0
    4.9202   20.0570   36.6364 O   0  0  0  0  0  0  0  0  0  0  0  0
    4.5530   17.8267   36.5484 O   0  0  0  0  0  0  0  0  0  0  0  0
    3.2965   16.5768   38.2881 O   0  0  0  0  0  0  0  0  0  0  0  0
    0.0675   18.2384   44.3182 S   0  0  0  0  0  0  0  0  0  0  0  0
   -0.1979   10.0194   42.1431 Cl  0  0  0  0  0  0  0  0  0  0  0  0
    3.8979   21.0610   38.6985 H   0  0  0  0  0  0  0  0  0  0  0  0
    2.6780   21.1378   40.8002 H   0  0  0  0  0  0  0  0  0  0  0  0
    1.2232   14.6017   41.1879 H   0  0  0  0  0  0  0  0  0  0  0  0
    1.0591   12.1579   40.6862 H   0  0  0  0  0  0  0  0  0  0  0  0
   -1.1568   11.6282   44.2900 H   0  0  0  0  0  0  0  0  0  0  0  0
   -0.9749   14.0061   44.7402 H   0  0  0  0  0  0  0  0  0  0  0  0
   -0.9004   16.0221   45.2577 H   0  0  0  0  0  0  0  0  0  0  0  0
    2.0417   16.9350   40.5393 H   0  0  0  0  0  0  0  0  0  0  0  0
    1.4678   20.0692   42.5190 H   0  0  0  0  0  0  0  0  0  0  0  0
  1  2  1  0
  1 19  1  0
  1 20  2  0
  2  3  1  0
  2 16  2  0
  3  4  2  0
  4  5  1  0
  5 15  2  0
  5 17  1  0
  6 17  1  0
  6 18  2  0
  6 22  1  0
  7  8  1  0
  7 14  2  0
  7 18  1  0
  8  9  1  0
  8 13  2  0
  9 10  2  0
 10 11  1  0
 11 12  2  0
 11 23  1  0
 12 13  1  0
 14 22  1  0
 15 16  1  0
 16 21  1  0
  3 24  1  0
  4 25  1  0
  9 26  1  0
 10 27  1  0
 12 28  1  0
 13 29  1  0
 14 30  1  0
 15 31  1  0
 17 32  1  0
M  CHG  2  19  -1  21  -1
M  END
>  <mol_id>  (20) 
2026-08-23-6tgu-s0-n100-r7-0020

>  <rmsd_to_ref>  (20) 
1.3265306122527443

$$$$
6tgu.A
     RDKit          3D

 32 34  0  0  0  0  0  0  0  0999 V2000
    4.2957   19.3268   36.9888 C   0  0  0  0  0  0  0  0  0  0  0  0
    3.7440   19.1193   38.4020 C   0  0  0  0  0  0  0  0  0  0  0  0
    3.4669   20.2119   39.2206 C   0  0  0  0  0  0  0  0  0  0  0  0
    2.7893   20.0751   40.4366 C   0  0  0  0  0  0  0  0  0  0  0  0
    2.5211   18.7993   40.9535 C   0  0  0  0  0  0  0  0  0  0  0  0
    1.0102   17.6048   42.6129 C   0  0  0  0  0  0  0  0  0  0  0  0
    0.1110   15.5155   42.6563 C   0  0  0  0  0  0  0  0  0  0  0  0
   -0.0527   14.1313   42.2109 C   0  0  0  0  0  0  0  0  0  0  0  0
   -1.0383   13.2899   42.7463 C   0  0  0  0  0  0  0  0  0  0  0  0
   -1.1985   11.9872   42.2844 C   0  0  0  0  0  0  0  0  0  0  0  0
   -0.3937   11.5463   41.2508 C   0  0  0  0  0  0  0  0  0  0  0  0
    0.5892   12.3467   40.6885 C   0  0  0  0  0  0  0  0  0  0  0  0
    0.7416   13.6433   41.1722 C   0  0  0  0  0  0  0  0  0  0  0  0
   -0.6536   16.1022   43.6296 C   0  0  0  0  0  0  0  0  0  0  0  0
    2.7836   17.6895   40.1377 C   0  0  0  0  0  0  0  0  0  0  0  0
    3.3899   17.8683   38.8929 C   0  0  0  0  0  0  0  0  0  0  0  0
    1.7742   18.6422   42.1612 N   0  0  0  0  0  0  0  0  0  0  0  0
    1.0135   16.3761   41.9876 N   0  0  0  0  0  0  0  0  0  0  0  0
    4.3218   20.5185   36.5619 O   0  0  0  0  0  0  0  0  0  0  0  0
    4.5990   18.3003   36.3423 O   0  0  0  0  0  0  0  0  0  0  0  0
    3.5469   16.7869   38.0587 O   0  0  0  0  0  0  0  0  0  0  0  0
   -0.3086   17.7855   43.7537 S   0  0  0  0  0  0  0  0  0  0  0  0
   -0.6092    9.9404   40.6375 Cl  0  0  0  0  0  0  0  0  0  0  0  0
    3.7911   21.2132   38.9008 H   0  0  0  0  0  0  0  0  0  0  0  0
    2.4661   20.9700   40.9885 H   0  0  0  0  0  0  0  0  0  0  0  0
   -1.6953   13.6656   43.5445 H   0  0  0  0  0  0  0  0  0  0  0  0
   -1.9508   11.3215   42.7328 H   0  0  0  0  0  0  0  0  0  0  0  0
    1.2322   11.9669   39.8808 H   0  0  0  0  0  0  0  0  0  0  0  0
    1.5050   14.2975   40.7258 H   0  0  0  0  0  0  0  0  0  0  0  0
   -1.3898   15.5696   44.2495 H   0  0  0  0  0  0  0  0  0  0  0  0
    2.5122   16.6793   40.4781 H   0  0  0  0  0  0  0  0  0  0  0  0
    1.8198   19.4490   42.7999 H   0  0  0  0  0  0  0  0  0  0  0  0
  1  2  1  0
  1 19  1  0
  1 20  2  0
  2  3  1  0
  2 16  2  0
  3  4  2  0
  4  5  1  0
  5 15  2  0
  5 17  1  0
  6 17  1  0
  6 18  2  0
  6 22  1  0
  7  8  1  0
  7 14  2  0
  7 18  1  0
  8  9  1  0
  8 13  2  0
  9 10  2  0
 10 11  1  0
 11 12  2  0
 11 23  1  0
 12 13  1  0
 14 22  1  0
 15 16  1  0
 16 21  1  0
  3 24  1  0
  4 25  1  0
  9 26  1  0
 10 27  1  0
 12 28  1  0
 13 29  1  0
 14 30  1  0
 15 31  1  0
 17 32  1  0
M  CHG  2  19  -1  21  -1
M  END
>  <mol_id>  (21) 
2026-08-23-6tgu-s0-n100-r7-0021

>  <rmsd_to_ref>  (21) 
1.372448979593137

$$$$
6tgu.A
     RDKit          3D

 32 34  0  0  0  0  0  0  0  0999 V2000
    3.5841   19.5992   36.3187 C   0  0  0  0  0  0  0  0  0  0  0  0
    3.1036   19.3969   37.7024 C   0  0  0  0  0  0  0  0  0  0  0  0
    3.1148   20.4734   38.5653 C   0  0  0  0  0  0  0  0  0  0  0  0
    2.6700   20.3020   39.8840 C   0  0  0  0  0  0  0  0  0  0  0  0
    2.2220   19.0385   40.2982 C   0  0  0  0  0  0  0  0  0  0  0  0
    1.1114   17.7215   42.1210 C   0  0  0  0  0  0  0  0  0  0  0  0
    0.3357   15.7840   42.9353 C   0  0  0  0  0  0  0  0  0  0  0  0
    0.6328   14.4163   43.3941 C   0  0  0  0  0  0  0  0  0  0  0  0
    1.9240   13.9061   43.4022 C   0  0  0  0  0  0  0  0  0  0  0  0
    2.2215   12.6299   43.8317 C   0  0  0  0  0  0  0  0  0  0  0  0
    1.1661   11.8438   44.2693 C   0  0  0  0  0  0  0  0  0  0  0  0
   -0.1416   12.2902   44.2870 C   0  0  0  0  0  0  0  0  0  0  0  0
   -0.3573   13.5767   43.8419 C   0  0  0  0  0  0  0  0  0  0  0  0
   -0.9615   16.2747   42.9297 C   0  0  0  0  0  0  0  0  0  0  0  0
    2.2117   17.9581   39.4278 C   0  0  0  0  0  0  0  0  0  0  0  0
    2.6570   18.1313   38.1106 C   0  0  0  0  0  0  0  0  0  0  0  0
    1.7992   18.8861   41.6258 N   0  0  0  0  0  0  0  0  0  0  0  0
    1.2234   16.6439   42.5006 N   0  0  0  0  0  0  0  0  0  0  0  0
    3.6035   18.5388   35.4257 O   0  0  0  0  0  0  0  0  0  0  0  0
    3.9805   20.7302   35.9339 O   0  0  0  0  0  0  0  0  0  0  0  0
    2.6540   17.0506   37.2211 O   0  0  0  0  0  0  0  0  0  0  0  0
   -0.7905   17.9566   42.2898 S   0  0  0  0  0  0  0  0  0  0  0  0
    1.4275   10.1892   44.8430 Cl  0  0  0  0  0  0  0  0  0  0  0  0
    3.4655   21.4518   38.2307 H   0  0  0  0  0  0  0  0  0  0  0  0
    2.6682   21.1382   40.5879 H   0  0  0  0  0  0  0  0  0  0  0  0
    2.7515   14.5119   43.0614 H   0  0  0  0  0  0  0  0  0  0  0  0
    3.2180   12.2191   43.8443 H   0  0  0  0  0  0  0  0  0  0  0  0
   -0.9685   11.6746   44.6312 H   0  0  0  0  0  0  0  0  0  0  0  0
   -1.3804   13.9236   43.8531 H   0  0  0  0  0  0  0  0  0  0  0  0
   -1.8878   15.8162   43.2228 H   0  0  0  0  0  0  0  0  0  0  0  0
    1.8581   16.9809   39.7663 H   0  0  0  0  0  0  0  0  0  0  0  0
    1.9652   19.6283   42.3384 H   0  0  0  0  0  0  0  0  0  0  0  0
  1  2  1  0
  1 19  1  0
  1 20  2  0
  2  3  1  0
  2 16  2  0
  3  4  2  0
  4  5  1  0
  5 15  2  0
  5 17  1  0
  6 17  1  0
  6 18  2  0
  6 22  1  0
  7  8  1  0
  7 14  2  0
  7 18  1  0
  8  9  1  0
  8 13  2  0
  9 10  2  0
 10 11  1  0
 11 12  2  0
 11 23  1  0
 12 13  1  0
 14 22  1  0
 15 16  1  0
 16 21  1  0
  3 24  1  0
  4 25  1  0
  9 26  1  0
 10 27  1  0
 12 28  1  0
 13 29  1  0
 14 30  1  0
 15 31  1  0
 17 32  1  0
M  CHG  2  19  -1  21  -1
M  END
>  <mol_id>  (22) 
2026-08-23-6tgu-s0-n100-r7-0022

>  <rmsd_to_ref>  (22) 
1.41836734694003

$$$$
6tgu.A
     RDKit          3D

 32 34  0  0  0  0  0  0  0  0999 V2000
    4.0264   20.9112   37.8344 C   0  0  0  0  0  0  0  0  0  0  0  0
    3.0473   20.3049   38.8435 C   0  0  0  0  0  0  0  0  0  0  0  0
    1.7801   20.8565   39.0186 C   0  0  0  0  0  0  0  0  0  0  0  0
    0.7951   20.2245   39.7846 C   0  0  0  0  0  0  0  0  0  0  0  0
    1.1154   19.0927   40.5483 C   0  0  0  0  0  0  0  0  0  0  0  0
    0.0338   17.0989   41.6965 C   0  0  0  0  0  0  0  0  0  0  0  0
    0.7372   14.9699   42.0818 C   0  0  0  0  0  0  0  0  0  0  0  0
    1.7163   13.8836   42.1295 C   0  0  0  0  0  0  0  0  0  0  0  0
    1.3513   12.5673   42.4462 C   0  0  0  0  0  0  0  0  0  0  0  0
    2.2929   11.5429   42.4529 C   0  0  0  0  0  0  0  0  0  0  0  0
    3.5956   11.8372   42.0969 C   0  0  0  0  0  0  0  0  0  0  0  0
    3.9986   13.1236   41.7713 C   0  0  0  0  0  0  0  0  0  0  0  0
    3.0440   14.1369   41.7814 C   0  0  0  0  0  0  0  0  0  0  0  0
   -0.5960   14.8117   42.3537 C   0  0  0  0  0  0  0  0  0  0  0  0
    2.3829   18.5185   40.3753 C   0  0  0  0  0  0  0  0  0  0  0  0
    3.3175   19.1328   39.5398 C   0  0  0  0  0  0  0  0  0  0  0  0
    0.1070   18.3985   41.2848 N   0  0  0  0  0  0  0  0  0  0  0  0
    1.1166   16.2496   41.6120 N   0  0  0  0  0  0  0  0  0  0  0  0
    3.5662   21.8102   37.0708 O   0  0  0  0  0  0  0  0  0  0  0  0
    5.1740   20.4162   37.7903 O   0  0  0  0  0  0  0  0  0  0  0  0
    4.5170   18.5072   39.2961 O   0  0  0  0  0  0  0  0  0  0  0  0
   -1.4707   16.2560   42.0117 S   0  0  0  0  0  0  0  0  0  0  0  0
    4.7703   10.5643   42.0611 Cl  0  0  0  0  0  0  0  0  0  0  0  0
    1.5469   21.8188   38.5396 H   0  0  0  0  0  0  0  0  0  0  0  0
   -0.2328   20.6160   39.7881 H   0  0  0  0  0  0  0  0  0  0  0  0
    0.3036   12.3409   42.6933 H   0  0  0  0  0  0  0  0  0  0  0  0
    2.0062   10.5193   42.7358 H   0  0  0  0  0  0  0  0  0  0  0  0
    5.0458   13.3378   41.5116 H   0  0  0  0  0  0  0  0  0  0  0  0
    3.3428   15.1599   41.5090 H   0  0  0  0  0  0  0  0  0  0  0  0
   -1.0479   13.8858   42.7390 H   0  0  0  0  0  0  0  0  0  0  0  0
    2.6406   17.5851   40.8973 H   0  0  0  0  0  0  0  0  0  0  0  0
   -0.7027   18.9771   41.5504 H   0  0  0  0  0  0  0  0  0  0  0  0
  1  2  1  0
  1 19  1  0
  1 20  2  0
  2  3  1  0
  2 16  2  0
  3  4  2  0
  4  5  1  0
  5 15  2  0
  5 17  1  0
  6 17  1  0
  6 18  2  0
  6 22  1  0
  7  8  1  0
  7 14  2  0
  7 18  1  0
  8  9  1  0
  8 13  2  0
  9 10  2  0
 10 11  1  0
 11 12  2  0
 11 23  1  0
 12 13  1  0
 14 22  1  0
 15 16  1  0
 16 21  1  0
  3 24  1  0
  4 25  1  0
  9 26  1  0
 10 27  1  0
 12 28  1  0
 13 29  1  0
 14 30  1  0
 15 31  1  0
 17 32  1  0
M  CHG  2  19  -1  21  -1
M  END
>  <mol_id>  (23) 
2026-08-23-6tgu-s0-n100-r7-0023

>  <rmsd_to_ref>  (23) 
1.46428571429066

$$$$
6tgu.A
     RDKit          3D

 32 34  0  0  0  0  0  0  0  0999 V2000
    3.4153   20.2892   37.1878 C   0  0  0  0  0  0  0  0  0  0  0  0
    2.5539   19.9231   38.3032 C   0  0  0  0  0  0  0  0  0  0  0  0
    2.5602   18.6326   38.7791 C   0  0  0  0  0  0  0  0  0  0  0  0
    1.7325   18.3137   39.8385 C   0  0  0  0  0  0  0  0  0  0  0  0
    0.8960   19.2349   40.4438 C   0  0  0  0  0  0  0  0  0  0  0  0
   -0.0174   17.6451   42.0763 C   0  0  0  0  0  0  0  0  0  0  0  0
    0.2054   15.4499   42.6452 C   0  0  0  0  0  0  0  0  0  0  0  0
    0.8418   14.1280   42.4174 C   0  0  0  0  0  0  0  0  0  0  0  0
    0.5242   13.0353   43.1871 C   0  0  0  0  0  0  0  0  0  0  0  0
    1.1358   11.8217   42.9469 C   0  0  0  0  0  0  0  0  0  0  0  0
    2.0701   11.6539   41.9487 C   0  0  0  0  0  0  0  0  0  0  0  0
    2.3942   12.7529   41.1691 C   0  0  0  0  0  0  0  0  0  0  0  0
    1.7788   13.9438   41.4221 C   0  0  0  0  0  0  0  0  0  0  0  0
   -0.7455   15.5891   43.6731 C   0  0  0  0  0  0  0  0  0  0  0  0
    0.9417   20.5222   39.9100 C   0  0  0  0  0  0  0  0  0  0  0  0
    1.7440   20.8769   38.8660 C   0  0  0  0  0  0  0  0  0  0  0  0
    0.0437   18.9135   41.5320 N   0  0  0  0  0  0  0  0  0  0  0  0
    0.4598   16.5024   41.9622 N   0  0  0  0  0  0  0  0  0  0  0  0
    4.2504   19.3311   36.5980 O   0  0  0  0  0  0  0  0  0  0  0  0
    3.4320   21.4547   36.7326 O   0  0  0  0  0  0  0  0  0  0  0  0
    1.7432   22.1952   38.3734 O   0  0  0  0  0  0  0  0  0  0  0  0
   -1.1948   17.3762   43.5142 S   0  0  0  0  0  0  0  0  0  0  0  0
    2.8108   10.0833   41.6955 Cl  0  0  0  0  0  0  0  0  0  0  0  0
    3.2127   17.8749   38.3216 H   0  0  0  0  0  0  0  0  0  0  0  0
    1.7672   17.2933   40.1811 H   0  0  0  0  0  0  0  0  0  0  0  0
   -0.2135   13.1238   43.9919 H   0  0  0  0  0  0  0  0  0  0  0  0
    0.8378   11.0026   43.5921 H   0  0  0  0  0  0  0  0  0  0  0  0
    3.1176   12.6090   40.4014 H   0  0  0  0  0  0  0  0  0  0  0  0
    2.0624   14.7888   40.7837 H   0  0  0  0  0  0  0  0  0  0  0  0
   -1.1430   14.9366   44.3688 H   0  0  0  0  0  0  0  0  0  0  0  0
    0.3001   21.2972   40.3486 H   0  0  0  0  0  0  0  0  0  0  0  0
   -0.5440   19.7220   41.8969 H   0  0  0  0  0  0  0  0  0  0  0  0
  1  2  1  0
  1 19  1  0
  1 20  2  0
  2  3  1  0
  2 16  2  0
  3  4  2  0
  4  5  1  0
  5 15  2  0
  5 17  1  0
  6 17  1  0
  6 18  2  0
  6 22  1  0
  7  8  1  0
  7 14  2  0
  7 18  1  0
  8  9  1  0
  8 13  2  0
  9 10  2  0
 10 11  1  0
 11 12  2  0
 11 23  1  0
 12 13  1  0
 14 22  1  0
 15 16  1  0
 16 21  1  0
  3 24  1  0
  4 25  1  0
  9 26  1  0
 10 27  1  0
 12 28  1  0
 13 29  1  0
 14 30  1  0
 15 31  1  0
 17 32  1  0
M  CHG  2  19  -1  21  -1
M  END
>  <mol_id>  (24) 
2026-08-23-6tgu-s0-n100-r7-0024

>  <rmsd_to_ref>  (24) 
1.5102040816334263

$$$$
6tgu.A
     RDKit          3D

 32 34  0  0  0  0  0  0  0  0999 V2000
    3.4649   20.6911   37.0197 C   0  0  0  0  0  0  0  0  0  0  0  0
    2.4425   20.3695   38.1134 C   0  0  0  0  0  0  0  0  0  0  0  0
    1.1705   20.9368   38.0814 C   0  0  0  0  0  0  0  0  0  0  0  0
    0.1525   20.5251   38.9477 C   0  0  0  0  0  0  0  0  0  0  0  0
    0.4374   19.6428   39.9999 C   0  0  0  0  0  0  0  0  0  0  0  0
   -0.6969   18.0211   41.5959 C   0  0  0  0  0  0  0  0  0  0  0  0
   -0.0160   16.0801   42.5677 C   0  0  0  0  0  0  0  0  0  0  0  0
    0.9573   15.0550   42.9459 C   0  0  0  0  0  0  0  0  0  0  0  0
    0.5758   13.8690   43.5892 C   0  0  0  0  0  0  0  0  0  0  0  0
    1.5135   12.8924   43.9097 C   0  0  0  0  0  0  0  0  0  0  0  0
    2.8309   13.0917   43.5418 C   0  0  0  0  0  0  0  0  0  0  0  0
    3.2506   14.2468   42.8995 C   0  0  0  0  0  0  0  0  0  0  0  0
    2.2992   15.2173   42.5976 C   0  0  0  0  0  0  0  0  0  0  0  0
   -1.3599   15.9890   42.8168 C   0  0  0  0  0  0  0  0  0  0  0  0
    1.7095   19.0543   40.0400 C   0  0  0  0  0  0  0  0  0  0  0  0
    2.6800   19.4299   39.1094 C   0  0  0  0  0  0  0  0  0  0  0  0
   -0.6030   19.1630   40.8536 N   0  0  0  0  0  0  0  0  0  0  0  0
    0.3862   17.1899   41.7874 N   0  0  0  0  0  0  0  0  0  0  0  0
    3.0396   21.3480   36.0244 O   0  0  0  0  0  0  0  0  0  0  0  0
    4.6119   20.2126   37.1576 O   0  0  0  0  0  0  0  0  0  0  0  0
    3.8871   18.7723   39.0925 O   0  0  0  0  0  0  0  0  0  0  0  0
   -2.2156   17.2807   42.0636 S   0  0  0  0  0  0  0  0  0  0  0  0
    4.0026   11.8662   43.8978 Cl  0  0  0  0  0  0  0  0  0  0  0  0
    0.9603   21.7331   37.3522 H   0  0  0  0  0  0  0  0  0  0  0  0
   -0.8737   20.8941   38.8034 H   0  0  0  0  0  0  0  0  0  0  0  0
   -0.4820   13.7081   43.8446 H   0  0  0  0  0  0  0  0  0  0  0  0
    1.2125   11.9799   44.4451 H   0  0  0  0  0  0  0  0  0  0  0  0
    4.3084   14.3926   42.6353 H   0  0  0  0  0  0  0  0  0  0  0  0
    2.6119   16.1321   42.0730 H   0  0  0  0  0  0  0  0  0  0  0  0
   -1.8301   15.1967   43.4177 H   0  0  0  0  0  0  0  0  0  0  0  0
    1.9424   18.2977   40.8038 H   0  0  0  0  0  0  0  0  0  0  0  0
   -1.4216   19.7846   40.9203 H   0  0  0  0  0  0  0  0  0  0  0  0
  1  2  1  0
  1 19  1  0
  1 20  2  0
  2  3  1  0
  2 16  2  0
  3  4  2  0
  4  5  1  0
  5 15  2  0
  5 17  1  0
  6 17  1  0
  6 18  2  0
  6 22  1  0
  7  8  1  0
  7 14  2  0
  7 18  1  0
  8  9  1  0
  8 13  2  0
  9 10  2  0
 10 11  1  0
 11 12  2  0
 11 23  1  0
 12 13  1  0
 14 22  1  0
 15 16  1  0
 16 21  1  0
  3 24  1  0
  4 25  1  0
  9 26  1  0
 10 27  1  0
 12 28  1  0
 13 29  1  0
 14 30  1  0
 15 31  1  0
 17 32  1  0
M  CHG  2  19  -1  21  -1
M  END
>  <mol_id>  (25) 
2026-08-23-6tgu-s0-n100-r7-0025

>  <rmsd_to_ref>  (25) 
1.5561224489800092

$$$$
6tgu.A
     RDKit          3D

 32 34  0  0  0  0  0  0  0  0999 V2000
    4.8857   18.9402   37.0108 C   0  0  0  0  0  0  0  0  0  0  0  0
    3.6759   18.9822   37.8149 C   0  0  0  0  0  0  0  0  0  0  0  0
    2.9246   20.1149   37.8480 C   0  0  0  0  0  0  0  0  0  0  0  0
    1.7811   20.1448   38.6122 C   0  0  0  0  0  0  0  0  0  0  0  0
    1.3589   19.0411   39.3641 C   0  0  0  0  0  0  0  0  0  0  0  0
   -0.2546   17.9873   40.9044 C   0  0  0  0  0  0  0  0  0  0  0  0
   -0.6187   16.0446   41.9705 C   0  0  0  0  0  0  0  0  0  0  0  0
   -0.1559   14.6733   42.2342 C   0  0  0  0  0  0  0  0  0  0  0  0
    0.9916   14.1507   41.6750 C   0  0  0  0  0  0  0  0  0  0  0  0
    1.4165   12.8654   41.9282 C   0  0  0  0  0  0  0  0  0  0  0  0
    0.6935   12.0463   42.7646 C   0  0  0  0  0  0  0  0  0  0  0  0
   -0.4712   12.5417   43.3469 C   0  0  0  0  0  0  0  0  0  0  0  0
   -0.8675   13.8364   43.0704 C   0  0  0  0  0  0  0  0  0  0  0  0
   -1.7650   16.5482   42.5370 C   0  0  0  0  0  0  0  0  0  0  0  0
    2.1606   17.9286   39.2882 C   0  0  0  0  0  0  0  0  0  0  0  0
    3.3175   17.8725   38.5259 C   0  0  0  0  0  0  0  0  0  0  0  0
    0.1763   19.1289   40.1305 N   0  0  0  0  0  0  0  0  0  0  0  0
    0.0001   16.9006   41.1894 N   0  0  0  0  0  0  0  0  0  0  0  0
    5.2847   20.0641   36.2661 O   0  0  0  0  0  0  0  0  0  0  0  0
    5.6268   17.9298   36.9331 O   0  0  0  0  0  0  0  0  0  0  0  0
    4.1054   16.7179   38.4772 O   0  0  0  0  0  0  0  0  0  0  0  0
   -1.8604   18.2553   41.8823 S   0  0  0  0  0  0  0  0  0  0  0  0
    1.1731   10.4071   43.1298 Cl  0  0  0  0  0  0  0  0  0  0  0  0
    3.1942   21.0070   37.2890 H   0  0  0  0  0  0  0  0  0  0  0  0
    1.1729   21.0620   38.6390 H   0  0  0  0  0  0  0  0  0  0  0  0
    1.5576   14.8018   41.0161 H   0  0  0  0  0  0  0  0  0  0  0  0
    2.3208   12.4670   41.4818 H   0  0  0  0  0  0  0  0  0  0  0  0
   -1.0687   11.9281   44.0115 H   0  0  0  0  0  0  0  0  0  0  0  0
   -1.7750   14.2002   43.5335 H   0  0  0  0  0  0  0  0  0  0  0  0
   -2.5037   16.1255   43.2170 H   0  0  0  0  0  0  0  0  0  0  0  0
    1.9084   17.0409   39.8335 H   0  0  0  0  0  0  0  0  0  0  0  0
   -0.3495   20.0237   40.1105 H   0  0  0  0  0  0  0  0  0  0  0  0
  1  2  1  0
  1 19  1  0
  1 20  2  0
  2  3  1  0
  2 16  2  0
  3  4  2  0
  4  5  1  0
  5 15  2  0
  5 17  1  0
  6 17  1  0
  6 18  2  0
  6 22  1  0
  7  8  1  0
  7 14  2  0
  7 18  1  0
  8  9  1  0
  8 13  2  0
  9 10  2  0
 10 11  1  0
 11 12  2  0
 11 23  1  0
 12 13  1  0
 14 22  1  0
 15 16  1  0
 16 21  1  0
  3 24  1  0
  4 25  1  0
  9 26  1  0
 10 27  1  0
 12 28  1  0
 13 29  1  0
 14 30  1  0
 15 31  1  0
 17 32  1  0
M  CHG  2  19  -1  21  -1
M  END
>  <mol_id>  (26) 
2026-08-23-6tgu-s0-n100-r7-0026

>  <rmsd_to_ref>  (26) 
1.602040816331768

$$$$
6tgu.A
     RDKit          3D

 32 34  0  0  0  0  0  0  0  0999 V2000
    1.3213   18.9573   36.2741 C   0  0  0  0  0  0  0  0  0  0  0  0
    1.4817   19.1012   37.7901 C   0  0  0  0  0  0  0  0  0  0  0  0
    1.2627   20.3289   38.4110 C   0  0  0  0  0  0  0  0  0  0  0  0
    1.2129   20.4579   39.8029 C   0  0  0  0  0  0  0  0  0  0  0  0
    1.5592   19.3745   40.6233 C   0  0  0  0  0  0  0  0  0  0  0  0
    1.2735   18.5076   42.9961 C   0  0  0  0  0  0  0  0  0  0  0  0
    1.1135   16.4115   43.8657 C   0  0  0  0  0  0  0  0  0  0  0  0
    1.1875   14.9505   43.8305 C   0  0  0  0  0  0  0  0  0  0  0  0
    0.7953   14.1599   44.9201 C   0  0  0  0  0  0  0  0  0  0  0  0
    0.8420   12.7710   44.8531 C   0  0  0  0  0  0  0  0  0  0  0  0
    1.2427   12.1772   43.6710 C   0  0  0  0  0  0  0  0  0  0  0  0
    1.6335   12.9206   42.5676 C   0  0  0  0  0  0  0  0  0  0  0  0
    1.5906   14.3092   42.6582 C   0  0  0  0  0  0  0  0  0  0  0  0
    0.6811   17.1305   44.9486 C   0  0  0  0  0  0  0  0  0  0  0  0
    1.7717   18.1292   40.0149 C   0  0  0  0  0  0  0  0  0  0  0  0
    1.7358   18.0187   38.6237 C   0  0  0  0  0  0  0  0  0  0  0  0
    1.4518   19.4704   42.0447 N   0  0  0  0  0  0  0  0  0  0  0  0
    1.3738   17.1655   42.6971 N   0  0  0  0  0  0  0  0  0  0  0  0
    0.8265   19.9488   35.6616 O   0  0  0  0  0  0  0  0  0  0  0  0
    1.6146   17.8485   35.7758 O   0  0  0  0  0  0  0  0  0  0  0  0
    1.8413   16.7768   38.0437 O   0  0  0  0  0  0  0  0  0  0  0  0
    0.5465   18.8042   44.5636 S   0  0  0  0  0  0  0  0  0  0  0  0
    1.2669   10.4484   43.5592 Cl  0  0  0  0  0  0  0  0  0  0  0  0
    1.1245   21.2245   37.7874 H   0  0  0  0  0  0  0  0  0  0  0  0
    0.9016   21.4112   40.2550 H   0  0  0  0  0  0  0  0  0  0  0  0
    0.4449   14.6457   45.8428 H   0  0  0  0  0  0  0  0  0  0  0  0
    0.5656   12.1577   45.7234 H   0  0  0  0  0  0  0  0  0  0  0  0
    1.9689   12.4258   41.6442 H   0  0  0  0  0  0  0  0  0  0  0  0
    1.8808   14.9143   41.7866 H   0  0  0  0  0  0  0  0  0  0  0  0
    0.4505   16.6968   45.9328 H   0  0  0  0  0  0  0  0  0  0  0  0
    1.9665   17.2404   40.6331 H   0  0  0  0  0  0  0  0  0  0  0  0
    1.5208   20.4291   42.4147 H   0  0  0  0  0  0  0  0  0  0  0  0
  1  2  1  0
  1 19  1  0
  1 20  2  0
  2  3  1  0
  2 16  2  0
  3  4  2  0
  4  5  1  0
  5 15  2  0
  5 17  1  0
  6 17  1  0
  6 18  2  0
  6 22  1  0
  7  8  1  0
  7 14  2  0
  7 18  1  0
  8  9  1  0
  8 13  2  0
  9 10  2  0
 10 11  1  0
 11 12  2  0
 11 23  1  0
 12 13  1  0
 14 22  1  0
 15 16  1  0
 16 21  1  0
  3 24  1  0
  4 25  1  0
  9 26  1  0
 10 27  1  0
 12 28  1  0
 13 29  1  0
 14 30  1  0
 15 31  1  0
 17 32  1  0
M  CHG  2  19  -1  21  -1
M  END
>  <mol_id>  (27) 
2026-08-23-6tgu-s0-n100-r7-0027

>  <rmsd_to_ref>  (27) 
1.6479591836771126

$$$$
6tgu.A
     RDKit          3D

 32 34  0  0  0  0  0  0  0  0999 V2000
    3.5551   18.3606   36.2840 C   0  0  0  0  0  0  0  0  0  0  0  0
    2.7889   18.6768   37.4777 C   0  0  0  0  0  0  0  0  0  0  0  0
    2.3767   19.9534   37.6986 C   0  0  0  0  0  0  0  0  0  0  0  0
    1.6519   20.2426   38.8315 C   0  0  0  0  0  0  0  0  0  0  0  0
    1.3203   19.2612   39.7740 C   0  0  0  0  0  0  0  0  0  0  0  0
    0.2347   18.5993   41.8883 C   0  0  0  0  0  0  0  0  0  0  0  0
   -0.1081   16.7856   43.1673 C   0  0  0  0  0  0  0  0  0  0  0  0
    0.1072   15.3416   43.3483 C   0  0  0  0  0  0  0  0  0  0  0  0
    0.8063   14.5704   42.4432 C   0  0  0  0  0  0  0  0  0  0  0  0
    1.0025   13.2190   42.6217 C   0  0  0  0  0  0  0  0  0  0  0  0
    0.4962   12.5839   43.7323 C   0  0  0  0  0  0  0  0  0  0  0  0
   -0.2154   13.3323   44.6674 C   0  0  0  0  0  0  0  0  0  0  0  0
   -0.3930   14.6864   44.4558 C   0  0  0  0  0  0  0  0  0  0  0  0
   -0.8075   17.5379   44.0802 C   0  0  0  0  0  0  0  0  0  0  0  0
    1.7657   17.9928   39.4931 C   0  0  0  0  0  0  0  0  0  0  0  0
    2.4975   17.6749   38.3590 C   0  0  0  0  0  0  0  0  0  0  0  0
    0.5739   19.6158   40.9190 N   0  0  0  0  0  0  0  0  0  0  0  0
    0.3341   17.4805   42.1440 N   0  0  0  0  0  0  0  0  0  0  0  0
    3.8732   19.3671   35.3551 O   0  0  0  0  0  0  0  0  0  0  0  0
    3.9680   17.2057   36.0158 O   0  0  0  0  0  0  0  0  0  0  0  0
    2.9317   16.3686   38.1118 O   0  0  0  0  0  0  0  0  0  0  0  0
   -0.7702   19.2261   43.3729 S   0  0  0  0  0  0  0  0  0  0  0  0
    0.7069   10.8745   44.0224 Cl  0  0  0  0  0  0  0  0  0  0  0  0
    2.5992   20.7630   37.0086 H   0  0  0  0  0  0  0  0  0  0  0  0
    1.3182   21.2763   39.0102 H   0  0  0  0  0  0  0  0  0  0  0  0
    1.2032   15.0774   41.5692 H   0  0  0  0  0  0  0  0  0  0  0  0
    1.5542   12.6245   41.9022 H   0  0  0  0  0  0  0  0  0  0  0  0
   -0.6303   12.8692   45.5555 H   0  0  0  0  0  0  0  0  0  0  0  0
   -0.9487   15.2479   45.1949 H   0  0  0  0  0  0  0  0  0  0  0  0
   -1.3012   17.2932   45.0201 H   0  0  0  0  0  0  0  0  0  0  0  0
    1.5544   17.1836   40.1635 H   0  0  0  0  0  0  0  0  0  0  0  0
    0.2912   20.6089   41.0254 H   0  0  0  0  0  0  0  0  0  0  0  0
  1  2  1  0
  1 19  1  0
  1 20  2  0
  2  3  1  0
  2 16  2  0
  3  4  2  0
  4  5  1  0
  5 15  2  0
  5 17  1  0
  6 17  1  0
  6 18  2  0
  6 22  1  0
  7  8  1  0
  7 14  2  0
  7 18  1  0
  8  9  1  0
  8 13  2  0
  9 10  2  0
 10 11  1  0
 11 12  2  0
 11 23  1  0
 12 13  1  0
 14 22  1  0
 15 16  1  0
 16 21  1  0
  3 24  1  0
  4 25  1  0
  9 26  1  0
 10 27  1  0
 12 28  1  0
 13 29  1  0
 14 30  1  0
 15 31  1  0
 17 32  1  0
M  CHG  2  19  -1  21  -1
M  END
>  <mol_id>  (28) 
2026-08-23-6tgu-s0-n100-r7-0028

>  <rmsd_to_ref>  (28) 
1.6938775510296737

$$$$
6tgu.A
     RDKit          3D

 32 34  0  0  0  0  0  0  0  0999 V2000
    3.5051   20.9975   37.8290 C   0  0  0  0  0  0  0  0  0  0  0  0
    2.3875   20.3390   38.6427 C   0  0  0  0  0  0  0  0  0  0  0  0
    1.1034   20.8791   38.6470 C   0  0  0  0  0  0  0  0  0  0  0  0
    0.0178   20.2074   39.2186 C   0  0  0  0  0  0  0  0  0  0  0  0
    0.2269   19.0385   39.9649 C   0  0  0  0  0  0  0  0  0  0  0  0
   -1.0005   16.9872   40.8302 C   0  0  0  0  0  0  0  0  0  0  0  0
   -0.3453   14.8424   41.2123 C   0  0  0  0  0  0  0  0  0  0  0  0
    0.6248   13.7564   41.3564 C   0  0  0  0  0  0  0  0  0  0  0  0
    0.2275   12.4251   41.5462 C   0  0  0  0  0  0  0  0  0  0  0  0
    1.1663   11.4031   41.6471 C   0  0  0  0  0  0  0  0  0  0  0  0
    2.5056   11.7171   41.5123 C   0  0  0  0  0  0  0  0  0  0  0  0
    2.9420   13.0190   41.3180 C   0  0  0  0  0  0  0  0  0  0  0  0
    1.9879   14.0291   41.2311 C   0  0  0  0  0  0  0  0  0  0  0  0
   -1.7029   14.6685   41.2663 C   0  0  0  0  0  0  0  0  0  0  0  0
    1.5111   18.4758   39.9615 C   0  0  0  0  0  0  0  0  0  0  0  0
    2.5578   19.1333   39.3126 C   0  0  0  0  0  0  0  0  0  0  0  0
   -0.8767   18.3062   40.5006 N   0  0  0  0  0  0  0  0  0  0  0  0
    0.0901   16.1449   40.8717 N   0  0  0  0  0  0  0  0  0  0  0  0
    3.1600   21.9336   37.0495 O   0  0  0  0  0  0  0  0  0  0  0  0
    4.6502   20.5071   37.9382 O   0  0  0  0  0  0  0  0  0  0  0  0
    3.7864   18.5227   39.2264 O   0  0  0  0  0  0  0  0  0  0  0  0
   -2.5277   16.1271   40.8660 S   0  0  0  0  0  0  0  0  0  0  0  0
    3.6835   10.4494   41.5949 Cl  0  0  0  0  0  0  0  0  0  0  0  0
    0.9380   21.8644   38.1866 H   0  0  0  0  0  0  0  0  0  0  0  0
   -1.0019   20.5967   39.0826 H   0  0  0  0  0  0  0  0  0  0  0  0
   -0.8436   12.1849   41.6165 H   0  0  0  0  0  0  0  0  0  0  0  0
    0.8489   10.3660   41.8305 H   0  0  0  0  0  0  0  0  0  0  0  0
    4.0147   13.2477   41.2346 H   0  0  0  0  0  0  0  0  0  0  0  0
    2.3156   15.0651   41.0600 H   0  0  0  0  0  0  0  0  0  0  0  0
   -2.2003   13.7235   41.5300 H   0  0  0  0  0  0  0  0  0  0  0  0
    1.6937   17.5173   40.4696 H   0  0  0  0  0  0  0  0  0  0  0  0
   -1.7231   18.8693   40.6663 H   0  0  0  0  0  0  0  0  0  0  0  0
  1  2  1  0
  1 19  1  0
  1 20  2  0
  2  3  1  0
  2 16  2  0
  3  4  2  0
  4  5  1  0
  5 15  2  0
  5 17  1  0
  6 17  1  0
  6 18  2  0
  6 22  1  0
  7  8  1  0
  7 14  2  0
  7 18  1  0
  8  9  1  0
  8 13  2  0
  9 10  2  0
 10 11  1  0
 11 12  2  0
 11 23  1  0
 12 13  1  0
 14 22  1  0
 15 16  1  0
 16 21  1  0
  3 24  1  0
  4 25  1  0
  9 26  1  0
 10 27  1  0
 12 28  1  0
 13 29  1  0
 14 30  1  0
 15 31  1  0
 17 32  1  0
M  CHG  2  19  -1  21  -1
M  END
>  <mol_id>  (29) 
2026-08-23-6tgu-s0-n100-r7-0029

>  <rmsd_to_ref>  (29) 
1.73979591837024

$$$$
6tgu.A
     RDKit          3D

 32 34  0  0  0  0  0  0  0  0999 V2000
    3.1352   21.7502   38.3351 C   0  0  0  0  0  0  0  0  0  0  0  0
    2.5626   20.7788   39.2707 C   0  0  0  0  0  0  0  0  0  0  0  0
    2.5973   21.1508   40.6157 C   0  0  0  0  0  0  0  0  0  0  0  0
    2.0598   20.2501   41.5217 C   0  0  0  0  0  0  0  0  0  0  0  0
    1.5241   19.0584   41.1129 C   0  0  0  0  0  0  0  0  0  0  0  0
    0.4707   16.8872   41.7832 C   0  0  0  0  0  0  0  0  0  0  0  0
    0.1454   14.6890   41.4470 C   0  0  0  0  0  0  0  0  0  0  0  0
    0.7560   13.3359   41.4942 C   0  0  0  0  0  0  0  0  0  0  0  0
    2.0670   13.1359   41.8784 C   0  0  0  0  0  0  0  0  0  0  0  0
    2.6534   11.8884   41.9331 C   0  0  0  0  0  0  0  0  0  0  0  0
    1.9067   10.7793   41.5903 C   0  0  0  0  0  0  0  0  0  0  0  0
    0.5990   10.9600   41.2047 C   0  0  0  0  0  0  0  0  0  0  0  0
    0.0322   12.2145   41.1570 C   0  0  0  0  0  0  0  0  0  0  0  0
   -1.1217   14.9026   41.0878 C   0  0  0  0  0  0  0  0  0  0  0  0
    1.5017   18.7107   39.7660 C   0  0  0  0  0  0  0  0  0  0  0  0
    2.0218   19.5757   38.8558 C   0  0  0  0  0  0  0  0  0  0  0  0
    0.9830   18.1831   42.0729 N   0  0  0  0  0  0  0  0  0  0  0  0
    0.8047   15.7831   41.7643 N   0  0  0  0  0  0  0  0  0  0  0  0
    3.1114   21.4022   36.9683 O   0  0  0  0  0  0  0  0  0  0  0  0
    3.6301   22.8475   38.7023 O   0  0  0  0  0  0  0  0  0  0  0  0
    2.0549   19.3390   37.4767 O   0  0  0  0  0  0  0  0  0  0  0  0
   -1.3425   16.7344   41.2201 S   0  0  0  0  0  0  0  0  0  0  0  0
    2.6227    9.1907   41.6497 Cl  0  0  0  0  0  0  0  0  0  0  0  0
    3.0274   22.1048   40.9325 H   0  0  0  0  0  0  0  0  0  0  0  0
    2.0585   20.4883   42.5876 H   0  0  0  0  0  0  0  0  0  0  0  0
    2.6320   14.0081   42.1409 H   0  0  0  0  0  0  0  0  0  0  0  0
    3.7016   11.8090   42.2513 H   0  0  0  0  0  0  0  0  0  0  0  0
   -0.0040   10.0860   40.9299 H   0  0  0  0  0  0  0  0  0  0  0  0
   -0.9894   12.3314   40.8534 H   0  0  0  0  0  0  0  0  0  0  0  0
   -1.9588   14.2635   40.7661 H   0  0  0  0  0  0  0  0  0  0  0  0
    1.0870   17.7787   39.4063 H   0  0  0  0  0  0  0  0  0  0  0  0
    0.9320   18.4639   43.0962 H   0  0  0  0  0  0  0  0  0  0  0  0
  1  2  1  0
  1 19  1  0
  1 20  2  0
  2  3  1  0
  2 16  2  0
  3  4  2  0
  4  5  1  0
  5 15  2  0
  5 17  1  0
  6 17  1  0
  6 18  2  0
  6 22  1  0
  7  8  1  0
  7 14  2  0
  7 18  1  0
  8  9  1  0
  8 13  2  0
  9 10  2  0
 10 11  1  0
 11 12  2  0
 11 23  1  0
 12 13  1  0
 14 22  1  0
 15 16  1  0
 16 21  1  0
  3 24  1  0
  4 25  1  0
  9 26  1  0
 10 27  1  0
 12 28  1  0
 13 29  1  0
 14 30  1  0
 15 31  1  0
 17 32  1  0
M  CHG  2  19  -1  21  -1
M  END
>  <mol_id>  (30) 
2026-08-23-6tgu-s0-n100-r7-0030

>  <rmsd_to_ref>  (30) 
1.7857142857180295

$$$$
6tgu.A
     RDKit          3D

 32 34  0  0  0  0  0  0  0  0999 V2000
    4.2411   21.4607   39.1640 C   0  0  0  0  0  0  0  0  0  0  0  0
    3.3973   20.7654   40.2360 C   0  0  0  0  0  0  0  0  0  0  0  0
    2.5839   21.5089   41.0883 C   0  0  0  0  0  0  0  0  0  0  0  0
    1.6607   20.9041   41.9476 C   0  0  0  0  0  0  0  0  0  0  0  0
    1.6511   19.5103   42.1024 C   0  0  0  0  0  0  0  0  0  0  0  0
    0.1594   17.6087   42.8913 C   0  0  0  0  0  0  0  0  0  0  0  0
   -0.0456   15.4369   42.2457 C   0  0  0  0  0  0  0  0  0  0  0  0
    0.3472   14.2216   41.5316 C   0  0  0  0  0  0  0  0  0  0  0  0
   -0.4508   13.0687   41.5317 C   0  0  0  0  0  0  0  0  0  0  0  0
   -0.0745   11.9350   40.8182 C   0  0  0  0  0  0  0  0  0  0  0  0
    1.0855   11.9783   40.0679 C   0  0  0  0  0  0  0  0  0  0  0  0
    1.9011   13.0993   40.0349 C   0  0  0  0  0  0  0  0  0  0  0  0
    1.5133   14.2197   40.7645 C   0  0  0  0  0  0  0  0  0  0  0  0
   -1.1955   15.5555   42.9806 C   0  0  0  0  0  0  0  0  0  0  0  0
    2.4555   18.7467   41.2446 C   0  0  0  0  0  0  0  0  0  0  0  0
    3.3095   19.3824   40.3414 C   0  0  0  0  0  0  0  0  0  0  0  0
    0.6731   18.8731   42.9264 N   0  0  0  0  0  0  0  0  0  0  0  0
    0.7091   16.6246   42.0976 N   0  0  0  0  0  0  0  0  0  0  0  0
    4.0298   22.6973   38.9929 O   0  0  0  0  0  0  0  0  0  0  0  0
    5.0094   20.7392   38.4911 O   0  0  0  0  0  0  0  0  0  0  0  0
    4.0147   18.6266   39.4352 O   0  0  0  0  0  0  0  0  0  0  0  0
   -1.4212   17.1775   43.5152 S   0  0  0  0  0  0  0  0  0  0  0  0
    1.5456   10.5883   39.1418 Cl  0  0  0  0  0  0  0  0  0  0  0  0
    2.6704   22.6055   41.0854 H   0  0  0  0  0  0  0  0  0  0  0  0
    0.9407   21.5230   42.5031 H   0  0  0  0  0  0  0  0  0  0  0  0
   -1.3895   13.0604   42.1051 H   0  0  0  0  0  0  0  0  0  0  0  0
   -0.6880   11.0225   40.8506 H   0  0  0  0  0  0  0  0  0  0  0  0
    2.8309   13.1032   39.4471 H   0  0  0  0  0  0  0  0  0  0  0  0
    2.1397   15.1235   40.7359 H   0  0  0  0  0  0  0  0  0  0  0  0
   -1.8832   14.7255   43.2001 H   0  0  0  0  0  0  0  0  0  0  0  0
    2.4138   17.6482   41.2832 H   0  0  0  0  0  0  0  0  0  0  0  0
    0.2906   19.4692   43.6742 H   0  0  0  0  0  0  0  0  0  0  0  0
  1  2  1  0
  1 19  1  0
  1 20  2  0
  2  3  1  0
  2 16  2  0
  3  4  2  0
  4  5  1  0
  5 15  2  0
  5 17  1  0
  6 17  1  0
  6 18  2  0
  6 22  1  0
  7  8  1  0
  7 14  2  0
  7 18  1  0
  8  9  1  0
  8 13  2  0
  9 10  2  0
 10 11  1  0
 11 12  2  0
 11 23  1  0
 12 13  1  0
 14 22  1  0
 15 16  1  0
 16 21  1  0
  3 24  1  0
  4 25  1  0
  9 26  1  0
 10 27  1  0
 12 28  1  0
 13 29  1  0
 14 30  1  0
 15 31  1  0
 17 32  1  0
M  CHG  2  19  -1  21  -1
M  END
>  <mol_id>  (31) 
2026-08-23-6tgu-s0-n100-r7-0031

>  <rmsd_to_ref>  (31) 
1.8316326530641753

$$$$
6tgu.A
     RDKit          3D

 32 34  0  0  0  0  0  0  0  0999 V2000
    5.7209   19.4921   37.9969 C   0  0  0  0  0  0  0  0  0  0  0  0
    4.6714   19.5098   39.0083 C   0  0  0  0  0  0  0  0  0  0  0  0
    4.3839   20.6644   39.6956 C   0  0  0  0  0  0  0  0  0  0  0  0
    3.3931   20.6771   40.6489 C   0  0  0  0  0  0  0  0  0  0  0  0
    2.6403   19.5384   40.9636 C   0  0  0  0  0  0  0  0  0  0  0  0
    0.8411   18.4729   42.3069 C   0  0  0  0  0  0  0  0  0  0  0  0
   -0.0957   16.4252   42.4743 C   0  0  0  0  0  0  0  0  0  0  0  0
   -0.1508   15.0173   42.0254 C   0  0  0  0  0  0  0  0  0  0  0  0
   -1.0570   14.1455   42.5825 C   0  0  0  0  0  0  0  0  0  0  0  0
   -1.1170   12.8280   42.1706 C   0  0  0  0  0  0  0  0  0  0  0  0
   -0.2733   12.3519   41.1929 C   0  0  0  0  0  0  0  0  0  0  0  0
    0.6380   13.2088   40.6255 C   0  0  0  0  0  0  0  0  0  0  0  0
    0.6819   14.5279   41.0535 C   0  0  0  0  0  0  0  0  0  0  0  0
   -0.9607   16.9223   43.4798 C   0  0  0  0  0  0  0  0  0  0  0  0
    2.9595   18.4013   40.2522 C   0  0  0  0  0  0  0  0  0  0  0  0
    3.9544   18.3676   39.2873 C   0  0  0  0  0  0  0  0  0  0  0  0
    1.6428   19.5971   41.9398 N   0  0  0  0  0  0  0  0  0  0  0  0
    0.7204   17.3150   42.0099 N   0  0  0  0  0  0  0  0  0  0  0  0
    6.4394   20.6444   37.7199 O   0  0  0  0  0  0  0  0  0  0  0  0
    5.9589   18.4152   37.3847 O   0  0  0  0  0  0  0  0  0  0  0  0
    4.2459   17.2130   38.5962 O   0  0  0  0  0  0  0  0  0  0  0  0
   -0.4344   18.6780   43.6014 S   0  0  0  0  0  0  0  0  0  0  0  0
   -0.3194   10.6951   40.6466 Cl  0  0  0  0  0  0  0  0  0  0  0  0
    4.9443   21.5570   39.4774 H   0  0  0  0  0  0  0  0  0  0  0  0
    3.2110   21.6185   41.1592 H   0  0  0  0  0  0  0  0  0  0  0  0
   -1.7375   14.5022   43.3613 H   0  0  0  0  0  0  0  0  0  0  0  0
   -1.8508   12.1675   42.6379 H   0  0  0  0  0  0  0  0  0  0  0  0
    1.3386   12.9159   39.8503 H   0  0  0  0  0  0  0  0  0  0  0  0
    1.4036   15.1985   40.6014 H   0  0  0  0  0  0  0  0  0  0  0  0
   -1.7079   16.4721   44.0349 H   0  0  0  0  0  0  0  0  0  0  0  0
    2.4367   17.4822   40.4249 H   0  0  0  0  0  0  0  0  0  0  0  0
    1.4917   20.5327   42.4179 H   0  0  0  0  0  0  0  0  0  0  0  0
  1  2  1  0
  1 19  1  0
  1 20  2  0
  2  3  1  0
  2 16  2  0
  3  4  2  0
  4  5  1  0
  5 15  2  0
  5 17  1  0
  6 17  1  0
  6 18  2  0
  6 22  1  0
  7  8  1  0
  7 14  2  0
  7 18  1  0
  8  9  1  0
  8 13  2  0
  9 10  2  0
 10 11  1  0
 11 12  2  0
 11 23  1  0
 12 13  1  0
 14 22  1  0
 15 16  1  0
 16 21  1  0
  3 24  1  0
  4 25  1  0
  9 26  1  0
 10 27  1  0
 12 28  1  0
 13 29  1  0
 14 30  1  0
 15 31  1  0
 17 32  1  0
M  CHG  2  19  -1  21  -1
M  END
>  <mol_id>  (32) 
2026-08-23-6tgu-s0-n100-r7-0032

>  <rmsd_to_ref>  (32) 
1.8775510204164105

$$$$
6tgu.A
     RDKit          3D

 32 34  0  0  0  0  0  0  0  0999 V2000
    1.1943   20.8867   37.9314 C   0  0  0  0  0  0  0  0  0  0  0  0
    1.2161   20.2612   39.3288 C   0  0  0  0  0  0  0  0  0  0  0  0
    0.4738   20.8214   40.3661 C   0  0  0  0  0  0  0  0  0  0  0  0
    0.3168   20.1776   41.5979 C   0  0  0  0  0  0  0  0  0  0  0  0
    1.0538   19.0198   41.8862 C   0  0  0  0  0  0  0  0  0  0  0  0
    1.0629   17.0045   43.4360 C   0  0  0  0  0  0  0  0  0  0  0  0
    1.7669   14.8572   43.1730 C   0  0  0  0  0  0  0  0  0  0  0  0
    2.4521   13.7590   42.4905 C   0  0  0  0  0  0  0  0  0  0  0  0
    2.3856   12.4380   42.9557 C   0  0  0  0  0  0  0  0  0  0  0  0
    3.0170   11.4034   42.2724 C   0  0  0  0  0  0  0  0  0  0  0  0
    3.6794   11.6938   41.0945 C   0  0  0  0  0  0  0  0  0  0  0  0
    3.7651   12.9848   40.5955 C   0  0  0  0  0  0  0  0  0  0  0  0
    3.1363   14.0080   41.2997 C   0  0  0  0  0  0  0  0  0  0  0  0
    1.0271   14.7057   44.3158 C   0  0  0  0  0  0  0  0  0  0  0  0
    1.7971   18.4370   40.8499 C   0  0  0  0  0  0  0  0  0  0  0  0
    1.8687   19.0658   39.6055 C   0  0  0  0  0  0  0  0  0  0  0  0
    0.8574   18.3150   43.1134 N   0  0  0  0  0  0  0  0  0  0  0  0
    1.7327   16.1461   42.5902 N   0  0  0  0  0  0  0  0  0  0  0  0
    0.3529   21.8135   37.7403 O   0  0  0  0  0  0  0  0  0  0  0  0
    1.9485   20.3806   37.0719 O   0  0  0  0  0  0  0  0  0  0  0  0
    2.5125   18.4344   38.5679 O   0  0  0  0  0  0  0  0  0  0  0  0
    0.2146   16.1692   44.7229 S   0  0  0  0  0  0  0  0  0  0  0  0
    4.4357   10.4095   40.2112 Cl  0  0  0  0  0  0  0  0  0  0  0  0
   -0.0035   21.8003   40.2117 H   0  0  0  0  0  0  0  0  0  0  0  0
   -0.3862   20.5802   42.3420 H   0  0  0  0  0  0  0  0  0  0  0  0
    1.8252   12.2159   43.8758 H   0  0  0  0  0  0  0  0  0  0  0  0
    2.9896   10.3750   42.6617 H   0  0  0  0  0  0  0  0  0  0  0  0
    4.3158   13.1951   39.6668 H   0  0  0  0  0  0  0  0  0  0  0  0
    3.1797   15.0353   40.9090 H   0  0  0  0  0  0  0  0  0  0  0  0
    0.9606   13.7737   44.8963 H   0  0  0  0  0  0  0  0  0  0  0  0
    2.3231   17.4855   41.0172 H   0  0  0  0  0  0  0  0  0  0  0  0
    0.4998   18.8943   43.8863 H   0  0  0  0  0  0  0  0  0  0  0  0
  1  2  1  0
  1 19  1  0
  1 20  2  0
  2  3  1  0
  2 16  2  0
  3  4  2  0
  4  5  1  0
  5 15  2  0
  5 17  1  0
  6 17  1  0
  6 18  2  0
  6 22  1  0
  7  8  1  0
  7 14  2  0
  7 18  1  0
  8  9  1  0
  8 13  2  0
  9 10  2  0
 10 11  1  0
 11 12  2  0
 11 23  1  0
 12 13  1  0
 14 22  1  0
 15 16  1  0
 16 21  1  0
  3 24  1  0
  4 25  1  0
  9 26  1  0
 10 27  1  0
 12 28  1  0
 13 29  1  0
 14 30  1  0
 15 31  1  0
 17 32  1  0
M  CHG  2  19  -1  21  -1
M  END
>  <mol_id>  (33) 
2026-08-23-6tgu-s0-n100-r7-0033

>  <rmsd_to_ref>  (33) 
1.9234693877571656

$$$$
6tgu.A
     RDKit          3D

 32 34  0  0  0  0  0  0  0  0999 V2000
    2.9508   21.3236   37.4210 C   0  0  0  0  0  0  0  0  0  0  0  0
    2.2157   20.5764   38.4295 C   0  0  0  0  0  0  0  0  0  0  0  0
    2.7522   19.4787   39.0869 C   0  0  0  0  0  0  0  0  0  0  0  0
    2.0147   18.7866   40.0500 C   0  0  0  0  0  0  0  0  0  0  0  0
    0.7281   19.1988   40.3565 C   0  0  0  0  0  0  0  0  0  0  0  0
    0.5718   17.3958   42.0163 C   0  0  0  0  0  0  0  0  0  0  0  0
    1.3492   15.4065   42.7329 C   0  0  0  0  0  0  0  0  0  0  0  0
    1.4821   13.9513   42.5167 C   0  0  0  0  0  0  0  0  0  0  0  0
    0.9415   13.3274   41.4116 C   0  0  0  0  0  0  0  0  0  0  0  0
    1.0960   11.9497   41.2538 C   0  0  0  0  0  0  0  0  0  0  0  0
    1.7685   11.1773   42.1573 C   0  0  0  0  0  0  0  0  0  0  0  0
    2.3089   11.7912   43.2592 C   0  0  0  0  0  0  0  0  0  0  0  0
    2.1536   13.1630   43.4136 C   0  0  0  0  0  0  0  0  0  0  0  0
    1.9089   16.0377   43.8675 C   0  0  0  0  0  0  0  0  0  0  0  0
    0.1896   20.2908   39.7050 C   0  0  0  0  0  0  0  0  0  0  0  0
    0.9332   20.9778   38.7431 C   0  0  0  0  0  0  0  0  0  0  0  0
   -0.0237   18.4886   41.3426 N   0  0  0  0  0  0  0  0  0  0  0  0
    0.7349   16.2306   41.9423 N   0  0  0  0  0  0  0  0  0  0  0  0
    4.2519   20.9418   37.0805 O   0  0  0  0  0  0  0  0  0  0  0  0
    2.3667   22.3019   36.8898 O   0  0  0  0  0  0  0  0  0  0  0  0
    0.3074   22.0630   38.1421 O   0  0  0  0  0  0  0  0  0  0  0  0
    1.4865   17.7565   43.6692 S   0  0  0  0  0  0  0  0  0  0  0  0
    1.9669    9.4394   41.9633 Cl  0  0  0  0  0  0  0  0  0  0  0  0
    3.7694   19.1466   38.8494 H   0  0  0  0  0  0  0  0  0  0  0  0
    2.4720   17.9233   40.5490 H   0  0  0  0  0  0  0  0  0  0  0  0
    0.4084   13.9237   40.6902 H   0  0  0  0  0  0  0  0  0  0  0  0
    0.6676   11.4431   40.3747 H   0  0  0  0  0  0  0  0  0  0  0  0
    2.8470   11.2205   43.9962 H   0  0  0  0  0  0  0  0  0  0  0  0
    2.5996   13.5879   44.2984 H   0  0  0  0  0  0  0  0  0  0  0  0
    2.4683   15.5853   44.6768 H   0  0  0  0  0  0  0  0  0  0  0  0
   -0.8325   20.6257   39.9424 H   0  0  0  0  0  0  0  0  0  0  0  0
   -1.0004   18.7930   41.5449 H   0  0  0  0  0  0  0  0  0  0  0  0
  1  2  1  0
  1 19  1  0
  1 20  2  0
  2  3  1  0
  2 16  2  0
  3  4  2  0
  4  5  1  0
  5 15  2  0
  5 17  1  0
  6 17  1  0
  6 18  2  0
  6 22  1  0
  7  8  1  0
  7 14  2  0
  7 18  1  0
  8  9  1  0
  8 13  2  0
  9 10  2  0
 10 11  1  0
 11 12  2  0
 11 23  1  0
 12 13  1  0
 14 22  1  0
 15 16  1  0
 16 21  1  0
  3 24  1  0
  4 25  1  0
  9 26  1  0
 10 27  1  0
 12 28  1  0
 13 29  1  0
 14 30  1  0
 15 31  1  0
 17 32  1  0
M  CHG  2  19  -1  21  -1
M  END
>  <mol_id>  (34) 
2026-08-23-6tgu-s0-n100-r7-0034

>  <rmsd_to_ref>  (34) 
1.969387755103541

$$$$
6tgu.A
     RDKit          3D

 32 34  0  0  0  0  0  0  0  0999 V2000
    2.9015   18.0418   35.2540 C   0  0  0  0  0  0  0  0  0  0  0  0
    2.6715   18.4954   36.6983 C   0  0  0  0  0  0  0  0  0  0  0  0
    2.3061   19.8105   36.9769 C   0  0  0  0  0  0  0  0  0  0  0  0
    1.9044   20.2142   38.2545 C   0  0  0  0  0  0  0  0  0  0  0  0
    2.0267   19.3363   39.3412 C   0  0  0  0  0  0  0  0  0  0  0  0
    1.1438   18.9513   41.6940 C   0  0  0  0  0  0  0  0  0  0  0  0
    0.7604   17.0676   42.9107 C   0  0  0  0  0  0  0  0  0  0  0  0
    0.8357   15.6348   43.1982 C   0  0  0  0  0  0  0  0  0  0  0  0
    0.1764   15.0611   44.2947 C   0  0  0  0  0  0  0  0  0  0  0  0
    0.2338   13.6911   44.5305 C   0  0  0  0  0  0  0  0  0  0  0  0
    0.9198   12.8922   43.6352 C   0  0  0  0  0  0  0  0  0  0  0  0
    1.5811   13.4169   42.5350 C   0  0  0  0  0  0  0  0  0  0  0  0
    1.5214   14.7915   42.3226 C   0  0  0  0  0  0  0  0  0  0  0  0
    0.0694   17.9674   43.6782 C   0  0  0  0  0  0  0  0  0  0  0  0
    2.3826   18.0061   39.0766 C   0  0  0  0  0  0  0  0  0  0  0  0
    2.7013   17.6165   37.7744 C   0  0  0  0  0  0  0  0  0  0  0  0
    1.5617   19.7106   40.6393 N   0  0  0  0  0  0  0  0  0  0  0  0
    1.3121   17.5831   41.7140 N   0  0  0  0  0  0  0  0  0  0  0  0
    2.5823   18.8644   34.3459 O   0  0  0  0  0  0  0  0  0  0  0  0
    3.3079   16.8713   35.0853 O   0  0  0  0  0  0  0  0  0  0  0  0
    2.9465   16.2901   37.5092 O   0  0  0  0  0  0  0  0  0  0  0  0
    0.0431   19.5208   42.9339 S   0  0  0  0  0  0  0  0  0  0  0  0
    0.9655   11.1796   43.8933 Cl  0  0  0  0  0  0  0  0  0  0  0  0
    2.3343   20.5545   36.1672 H   0  0  0  0  0  0  0  0  0  0  0  0
    1.4918   21.2224   38.4071 H   0  0  0  0  0  0  0  0  0  0  0  0
   -0.3953   15.7046   44.9796 H   0  0  0  0  0  0  0  0  0  0  0  0
   -0.2571   13.2525   45.4118 H   0  0  0  0  0  0  0  0  0  0  0  0
    2.1385   12.7637   41.8477 H   0  0  0  0  0  0  0  0  0  0  0  0
    2.0259   15.2225   41.4453 H   0  0  0  0  0  0  0  0  0  0  0  0
   -0.4056   17.7297   44.6415 H   0  0  0  0  0  0  0  0  0  0  0  0
    2.4106   17.2705   39.8940 H   0  0  0  0  0  0  0  0  0  0  0  0
    1.5377   20.7264   40.8080 H   0  0  0  0  0  0  0  0  0  0  0  0
  1  2  1  0
  1 19  1  0
  1 20  2  0
  2  3  1  0
  2 16  2  0
  3  4  2  0
  4  5  1  0
  5 15  2  0
  5 17  1  0
  6 17  1  0
  6 18  2  0
  6 22  1  0
  7  8  1  0
  7 14  2  0
  7 18  1  0
  8  9  1  0
  8 13  2  0
  9 10  2  0
 10 11  1  0
 11 12  2  0
 11 23  1  0
 12 13  1  0
 14 22  1  0
 15 16  1  0
 16 21  1  0
  3 24  1  0
  4 25  1  0
  9 26  1  0
 10 27  1  0
 12 28  1  0
 13 29  1  0
 14 30  1  0
 15 31  1  0
 17 32  1  0
M  CHG  2  19  -1  21  -1
M  END
>  <mol_id>  (35) 
2026-08-23-6tgu-s0-n100-r7-0035

>  <rmsd_to_ref>  (35) 
2.015306122453541

$$$$
6tgu.A
     RDKit          3D

 32 34  0  0  0  0  0  0  0  0999 V2000
    2.5947   20.7195   36.2471 C   0  0  0  0  0  0  0  0  0  0  0  0
    2.4130   20.1924   37.6065 C   0  0  0  0  0  0  0  0  0  0  0  0
    2.2607   18.8506   37.8202 C   0  0  0  0  0  0  0  0  0  0  0  0
    2.0722   18.3197   39.0984 C   0  0  0  0  0  0  0  0  0  0  0  0
    2.0437   19.2054   40.1508 C   0  0  0  0  0  0  0  0  0  0  0  0
    1.2718   17.5052   41.8184 C   0  0  0  0  0  0  0  0  0  0  0  0
    0.5340   15.4371   42.3362 C   0  0  0  0  0  0  0  0  0  0  0  0
    0.7523   14.1387   42.9618 C   0  0  0  0  0  0  0  0  0  0  0  0
    1.9239   13.8190   43.6039 C   0  0  0  0  0  0  0  0  0  0  0  0
    2.0819   12.5750   44.1765 C   0  0  0  0  0  0  0  0  0  0  0  0
    1.0784   11.6191   44.1246 C   0  0  0  0  0  0  0  0  0  0  0  0
   -0.0886   11.9306   43.4876 C   0  0  0  0  0  0  0  0  0  0  0  0
   -0.2274   13.1779   42.9220 C   0  0  0  0  0  0  0  0  0  0  0  0
   -0.6926   15.7720   41.6987 C   0  0  0  0  0  0  0  0  0  0  0  0
    2.1988   20.5844   39.9542 C   0  0  0  0  0  0  0  0  0  0  0  0
    2.3843   21.0748   38.6670 C   0  0  0  0  0  0  0  0  0  0  0  0
    1.8063   18.8120   41.5023 N   0  0  0  0  0  0  0  0  0  0  0  0
    1.3701   16.4547   42.2760 N   0  0  0  0  0  0  0  0  0  0  0  0
    2.7258   22.0832   36.0383 O   0  0  0  0  0  0  0  0  0  0  0  0
    2.6258   19.8917   35.2702 O   0  0  0  0  0  0  0  0  0  0  0  0
    2.5360   22.4555   38.4897 O   0  0  0  0  0  0  0  0  0  0  0  0
   -0.4910   17.4378   41.1191 S   0  0  0  0  0  0  0  0  0  0  0  0
    1.2636   10.0267   44.8499 Cl  0  0  0  0  0  0  0  0  0  0  0  0
    2.2783   18.1322   36.9960 H   0  0  0  0  0  0  0  0  0  0  0  0
    1.9498   17.2610   39.2775 H   0  0  0  0  0  0  0  0  0  0  0  0
    2.6924   14.5712   43.6403 H   0  0  0  0  0  0  0  0  0  0  0  0
    3.0224   12.3520   44.6788 H   0  0  0  0  0  0  0  0  0  0  0  0
   -0.9072   11.2033   43.4193 H   0  0  0  0  0  0  0  0  0  0  0  0
   -1.1988   13.3467   42.4256 H   0  0  0  0  0  0  0  0  0  0  0  0
   -1.6275   15.1020   41.5817 H   0  0  0  0  0  0  0  0  0  0  0  0
    2.1723   21.2615   40.8225 H   0  0  0  0  0  0  0  0  0  0  0  0
    2.0020   19.4292   42.3110 H   0  0  0  0  0  0  0  0  0  0  0  0
  1  2  1  0
  1 19  1  0
  1 20  2  0
  2  3  1  0
  2 16  2  0
  3  4  2  0
  4  5  1  0
  5 15  2  0
  5 17  1  0
  6 17  1  0
  6 18  2  0
  6 22  1  0
  7  8  1  0
  7 14  2  0
  7 18  1  0
  8  9  1  0
  8 13  2  0
  9 10  2  0
 10 11  1  0
 11 12  2  0
 11 23  1  0
 12 13  1  0
 14 22  1  0
 15 16  1  0
 16 21  1  0
  3 24  1  0
  4 25  1  0
  9 26  1  0
 10 27  1  0
 12 28  1  0
 13 29  1  0
 14 30  1  0
 15 31  1  0
 17 32  1  0
M  CHG  2  19  -1  21  -1
M  END
>  <mol_id>  (36) 
2026-08-23-6tgu-s0-n100-r7-0036

>  <rmsd_to_ref>  (36) 
2.0612244897963263

$$$$
6tgu.A
     RDKit          3D

 32 34  0  0  0  0  0  0  0  0999 V2000
    3.5951   17.8125   36.0880 C   0  0  0  0  0  0  0  0  0  0  0  0
    3.0189   18.3107   37.4164 C   0  0  0  0  0  0  0  0  0  0  0  0
    2.5669   19.6222   37.5437 C   0  0  0  0  0  0  0  0  0  0  0  0
    1.8646   20.0588   38.6719 C   0  0  0  0  0  0  0  0  0  0  0  0
    1.7467   19.2256   39.7938 C   0  0  0  0  0  0  0  0  0  0  0  0
    0.3410   18.8978   41.8866 C   0  0  0  0  0  0  0  0  0  0  0  0
   -0.2751   17.0480   43.0591 C   0  0  0  0  0  0  0  0  0  0  0  0
   -0.2362   15.6300   43.4181 C   0  0  0  0  0  0  0  0  0  0  0  0
   -1.1227   15.0752   44.3521 C   0  0  0  0  0  0  0  0  0  0  0  0
   -1.0905   13.7173   44.6539 C   0  0  0  0  0  0  0  0  0  0  0  0
   -0.1932   12.9095   43.9811 C   0  0  0  0  0  0  0  0  0  0  0  0
    0.6972   13.4154   43.0461 C   0  0  0  0  0  0  0  0  0  0  0  0
    0.6571   14.7785   42.7662 C   0  0  0  0  0  0  0  0  0  0  0  0
   -1.1493   17.9518   43.6024 C   0  0  0  0  0  0  0  0  0  0  0  0
    2.1865   17.8992   39.6785 C   0  0  0  0  0  0  0  0  0  0  0  0
    2.8137   17.4731   38.5063 C   0  0  0  0  0  0  0  0  0  0  0  0
    0.9788   19.6315   40.9282 N   0  0  0  0  0  0  0  0  0  0  0  0
    0.5320   17.5375   42.0050 N   0  0  0  0  0  0  0  0  0  0  0  0
    3.4807   18.5903   35.0955 O   0  0  0  0  0  0  0  0  0  0  0  0
    4.0575   16.6507   36.0709 O   0  0  0  0  0  0  0  0  0  0  0  0
    3.1460   16.1468   38.3641 O   0  0  0  0  0  0  0  0  0  0  0  0
   -1.0353   19.4753   42.8063 S   0  0  0  0  0  0  0  0  0  0  0  0
   -0.1695   11.2100   44.3167 Cl  0  0  0  0  0  0  0  0  0  0  0  0
    2.7685   20.3366   36.7320 H   0  0  0  0  0  0  0  0  0  0  0  0
    1.4038   21.0576   38.6791 H   0  0  0  0  0  0  0  0  0  0  0  0
   -1.8555   15.7239   44.8543 H   0  0  0  0  0  0  0  0  0  0  0  0
   -1.7657   13.2952   45.4129 H   0  0  0  0  0  0  0  0  0  0  0  0
    1.4169   12.7563   42.5385 H   0  0  0  0  0  0  0  0  0  0  0  0
    1.3448   15.1937   42.0147 H   0  0  0  0  0  0  0  0  0  0  0  0
   -1.8332   17.7339   44.4360 H   0  0  0  0  0  0  0  0  0  0  0  0
    2.0374   17.1953   40.5105 H   0  0  0  0  0  0  0  0  0  0  0  0
    0.8915   20.6514   41.0423 H   0  0  0  0  0  0  0  0  0  0  0  0
  1  2  1  0
  1 19  1  0
  1 20  2  0
  2  3  1  0
  2 16  2  0
  3  4  2  0
  4  5  1  0
  5 15  2  0
  5 17  1  0
  6 17  1  0
  6 18  2  0
  6 22  1  0
  7  8  1  0
  7 14  2  0
  7 18  1  0
  8  9  1  0
  8 13  2  0
  9 10  2  0
 10 11  1  0
 11 12  2  0
 11 23  1  0
 12 13  1  0
 14 22  1  0
 15 16  1  0
 16 21  1  0
  3 24  1  0
  4 25  1  0
  9 26  1  0
 10 27  1  0
 12 28  1  0
 13 29  1  0
 14 30  1  0
 15 31  1  0
 17 32  1  0
M  CHG  2  19  -1  21  -1
M  END
>  <mol_id>  (37) 
2026-08-23-6tgu-s0-n100-r7-0037

>  <rmsd_to_ref>  (37) 
2.107142857149058

$$$$
6tgu.A
     RDKit          3D

 32 34  0  0  0  0  0  0  0  0999 V2000
    4.4386   19.4488   36.4253 C   0  0  0  0  0  0  0  0  0  0  0  0
    3.5998   19.2947   37.6168 C   0  0  0  0  0  0  0  0  0  0  0  0
    3.8162   20.2338   38.6268 C   0  0  0  0  0  0  0  0  0  0  0  0
    3.0338   20.1116   39.7643 C   0  0  0  0  0  0  0  0  0  0  0  0
    2.0988   19.1189   39.8857 C   0  0  0  0  0  0  0  0  0  0  0  0
    0.3793   18.0169   41.3354 C   0  0  0  0  0  0  0  0  0  0  0  0
   -0.7085   16.1716   42.0156 C   0  0  0  0  0  0  0  0  0  0  0  0
   -0.6091   14.8945   42.7672 C   0  0  0  0  0  0  0  0  0  0  0  0
    0.5630   14.4903   43.3748 C   0  0  0  0  0  0  0  0  0  0  0  0
    0.6770   13.3106   44.0809 C   0  0  0  0  0  0  0  0  0  0  0  0
   -0.4239   12.4856   44.1931 C   0  0  0  0  0  0  0  0  0  0  0  0
   -1.5997   12.8723   43.5936 C   0  0  0  0  0  0  0  0  0  0  0  0
   -1.6926   14.0547   42.8932 C   0  0  0  0  0  0  0  0  0  0  0  0
   -1.8337   16.5845   41.4295 C   0  0  0  0  0  0  0  0  0  0  0  0
    1.9024   18.1947   38.8645 C   0  0  0  0  0  0  0  0  0  0  0  0
    2.6558   18.2915   37.7374 C   0  0  0  0  0  0  0  0  0  0  0  0
    1.3241   19.0446   41.0583 N   0  0  0  0  0  0  0  0  0  0  0  0
    0.3044   17.0005   41.8761 N   0  0  0  0  0  0  0  0  0  0  0  0
    4.2400   18.5152   35.3867 O   0  0  0  0  0  0  0  0  0  0  0  0
    5.3008   20.3578   36.3057 O   0  0  0  0  0  0  0  0  0  0  0  0
    2.5490   17.4242   36.6442 O   0  0  0  0  0  0  0  0  0  0  0  0
   -1.3935   18.2110   40.6662 S   0  0  0  0  0  0  0  0  0  0  0  0
   -0.3078   10.9884   45.0788 Cl  0  0  0  0  0  0  0  0  0  0  0  0
    4.5654   21.0230   38.5206 H   0  0  0  0  0  0  0  0  0  0  0  0
    3.1585   20.8190   40.5870 H   0  0  0  0  0  0  0  0  0  0  0  0
    1.4077   15.1430   43.2774 H   0  0  0  0  0  0  0  0  0  0  0  0
    1.6428   13.0584   44.5390 H   0  0  0  0  0  0  0  0  0  0  0  0
   -2.4811   12.2246   43.6759 H   0  0  0  0  0  0  0  0  0  0  0  0
   -2.6198   14.3358   42.4340 H   0  0  0  0  0  0  0  0  0  0  0  0
   -2.8537   16.1815   41.3300 H   0  0  0  0  0  0  0  0  0  0  0  0
    1.1736   17.3978   38.9250 H   0  0  0  0  0  0  0  0  0  0  0  0
    1.4155   19.7824   41.8172 H   0  0  0  0  0  0  0  0  0  0  0  0
  1  2  1  0
  1 19  1  0
  1 20  2  0
  2  3  1  0
  2 16  2  0
  3  4  2  0
  4  5  1  0
  5 15  2  0
  5 17  1  0
  6 17  1  0
  6 18  2  0
  6 22  1  0
  7  8  1  0
  7 14  2  0
  7 18  1  0
  8  9  1  0
  8 13  2  0
  9 10  2  0
 10 11  1  0
 11 12  2  0
 11 23  1  0
 12 13  1  0
 14 22  1  0
 15 16  1  0
 16 21  1  0
  3 24  1  0
  4 25  1  0
  9 26  1  0
 10 27  1  0
 12 28  1  0
 13 29  1  0
 14 30  1  0
 15 31  1  0
 17 32  1  0
M  CHG  2  19  -1  21  -1
M  END
>  <mol_id>  (38) 
2026-08-23-6tgu-s0-n100-r7-0038

>  <rmsd_to_ref>  (38) 
2.153061224494917

$$$$
6tgu.A
     RDKit          3D

 32 34  0  0  0  0  0  0  0  0999 V2000
    0.3773   21.0077   37.2020 C   0  0  0  0  0  0  0  0  0  0  0  0
    0.2050   20.4163   38.6039 C   0  0  0  0  0  0  0  0  0  0  0  0
   -0.8656   20.8019   39.4075 C   0  0  0  0  0  0  0  0  0  0  0  0
   -1.1641   20.1505   40.6087 C   0  0  0  0  0  0  0  0  0  0  0  0
   -0.2806   19.1938   41.1292 C   0  0  0  0  0  0  0  0  0  0  0  0
   -0.1961   17.2477   42.7630 C   0  0  0  0  0  0  0  0  0  0  0  0
    1.0035   15.3150   42.8020 C   0  0  0  0  0  0  0  0  0  0  0  0
    2.0542   14.3958   42.3636 C   0  0  0  0  0  0  0  0  0  0  0  0
    2.1711   13.0986   42.8830 C   0  0  0  0  0  0  0  0  0  0  0  0
    3.1572   12.2290   42.4276 C   0  0  0  0  0  0  0  0  0  0  0  0
    3.9988   12.6520   41.4161 C   0  0  0  0  0  0  0  0  0  0  0  0
    3.9146   13.9240   40.8701 C   0  0  0  0  0  0  0  0  0  0  0  0
    2.9286   14.7833   41.3471 C   0  0  0  0  0  0  0  0  0  0  0  0
    0.0664   15.0093   43.7531 C   0  0  0  0  0  0  0  0  0  0  0  0
    0.7957   18.7863   40.3282 C   0  0  0  0  0  0  0  0  0  0  0  0
    1.0195   19.4036   39.0962 C   0  0  0  0  0  0  0  0  0  0  0  0
   -0.6019   18.4739   42.3208 N   0  0  0  0  0  0  0  0  0  0  0  0
    0.8260   16.5569   42.1474 N   0  0  0  0  0  0  0  0  0  0  0  0
   -0.5773   21.7165   36.7666 O   0  0  0  0  0  0  0  0  0  0  0  0
    1.4053   20.6790   36.5705 O   0  0  0  0  0  0  0  0  0  0  0  0
    2.0126   18.9261   38.2742 O   0  0  0  0  0  0  0  0  0  0  0  0
   -1.1200   16.2528   43.8720 S   0  0  0  0  0  0  0  0  0  0  0  0
    5.2051   11.5659   40.8105 Cl  0  0  0  0  0  0  0  0  0  0  0  0
   -1.4957   21.6449   39.0875 H   0  0  0  0  0  0  0  0  0  0  0  0
   -2.0937   20.3891   41.1462 H   0  0  0  0  0  0  0  0  0  0  0  0
    1.4719   12.7630   43.6631 H   0  0  0  0  0  0  0  0  0  0  0  0
    3.2648   11.2250   42.8639 H   0  0  0  0  0  0  0  0  0  0  0  0
    4.6092   14.2458   40.0802 H   0  0  0  0  0  0  0  0  0  0  0  0
    2.8367   15.7899   40.9133 H   0  0  0  0  0  0  0  0  0  0  0  0
    0.0707   14.0920   44.3602 H   0  0  0  0  0  0  0  0  0  0  0  0
    1.4628   17.9813   40.6701 H   0  0  0  0  0  0  0  0  0  0  0  0
   -1.2501   18.9635   42.9541 H   0  0  0  0  0  0  0  0  0  0  0  0
  1  2  1  0
  1 19  1  0
  1 20  2  0
  2  3  1  0
  2 16  2  0
  3  4  2  0
  4  5  1  0
  5 15  2  0
  5 17  1  0
  6 17  1  0
  6 18  2  0
  6 22  1  0
  7  8  1  0
  7 14  2  0
  7 18  1  0
  8  9  1  0
  8 13  2  0
  9 10  2  0
 10 11  1  0
 11 12  2  0
 11 23  1  0
 12 13  1  0
 14 22  1  0
 15 16  1  0
 16 21  1  0
  3 24  1  0
  4 25  1  0
  9 26  1  0
 10 27  1  0
 12 28  1  0
 13 29  1  0
 14 30  1  0
 15 31  1  0
 17 32  1  0
M  CHG  2  19  -1  21  -1
M  END
>  <mol_id>  (39) 
2026-08-23-6tgu-s0-n100-r7-0039

>  <rmsd_to_ref>  (39) 
2.19897959184643

$$$$
6tgu.A
     RDKit          3D

 32 34  0  0  0  0  0  0  0  0999 V2000
    6.5586   19.2684   39.2254 C   0  0  0  0  0  0  0  0  0  0  0  0
    5.1990   19.2630   39.7387 C   0  0  0  0  0  0  0  0  0  0  0  0
    4.5579   20.4397   39.9687 C   0  0  0  0  0  0  0  0  0  0  0  0
    3.2711   20.4240   40.4546 C   0  0  0  0  0  0  0  0  0  0  0  0
    2.5912   19.2294   40.7235 C   0  0  0  0  0  0  0  0  0  0  0  0
    0.5740   18.0383   41.4973 C   0  0  0  0  0  0  0  0  0  0  0  0
   -0.1944   15.9513   41.8089 C   0  0  0  0  0  0  0  0  0  0  0  0
    0.0767   14.5080   41.7216 C   0  0  0  0  0  0  0  0  0  0  0  0
    1.2776   13.9983   41.2736 C   0  0  0  0  0  0  0  0  0  0  0  0
    1.5217   12.6452   41.1955 C   0  0  0  0  0  0  0  0  0  0  0  0
    0.5541   11.7416   41.5701 C   0  0  0  0  0  0  0  0  0  0  0  0
   -0.6712   12.2215   42.0277 C   0  0  0  0  0  0  0  0  0  0  0  0
   -0.8813   13.5858   42.0928 C   0  0  0  0  0  0  0  0  0  0  0  0
   -1.3974   16.4407   42.2580 C   0  0  0  0  0  0  0  0  0  0  0  0
    3.2929   18.0763   40.4704 C   0  0  0  0  0  0  0  0  0  0  0  0
    4.5902   18.0646   39.9808 C   0  0  0  0  0  0  0  0  0  0  0  0
    1.2707   19.2738   41.2215 N   0  0  0  0  0  0  0  0  0  0  0  0
    0.6622   16.8899   41.4759 N   0  0  0  0  0  0  0  0  0  0  0  0
    7.2160   20.4837   38.9648 O   0  0  0  0  0  0  0  0  0  0  0  0
    7.2106   18.2218   38.9900 O   0  0  0  0  0  0  0  0  0  0  0  0
    5.2685   16.8660   39.7369 O   0  0  0  0  0  0  0  0  0  0  0  0
   -1.1917   18.2573   42.1616 S   0  0  0  0  0  0  0  0  0  0  0  0
    0.7950   10.0133   41.4972 Cl  0  0  0  0  0  0  0  0  0  0  0  0
    5.0265   21.4023   39.7819 H   0  0  0  0  0  0  0  0  0  0  0  0
    2.7522   21.3768   40.6408 H   0  0  0  0  0  0  0  0  0  0  0  0
    2.0369   14.7163   40.9795 H   0  0  0  0  0  0  0  0  0  0  0  0
    2.4705   12.2579   40.8414 H   0  0  0  0  0  0  0  0  0  0  0  0
   -1.4593   11.5422   42.3322 H   0  0  0  0  0  0  0  0  0  0  0  0
   -1.8401   13.9361   42.4511 H   0  0  0  0  0  0  0  0  0  0  0  0
   -2.3100   15.9591   42.6075 H   0  0  0  0  0  0  0  0  0  0  0  0
    2.8448   17.1191   40.6493 H   0  0  0  0  0  0  0  0  0  0  0  0
    0.8409   20.2062   41.3741 H   0  0  0  0  0  0  0  0  0  0  0  0
  1  2  1  0
  1 19  1  0
  1 20  2  0
  2  3  1  0
  2 16  2  0
  3  4  2  0
  4  5  1  0
  5 15  2  0
  5 17  1  0
  6 17  1  0
  6 18  2  0
  6 22  1  0
  7  8  1  0
  7 14  2  0
  7 18  1  0
  8  9  1  0
  8 13  2  0
  9 10  2  0
 10 11  1  0
 11 12  2  0
 11 23  1  0
 12 13  1  0
 14 22  1  0
 15 16  1  0
 16 21  1  0
  3 24  1  0
  4 25  1  0
  9 26  1  0
 10 27  1  0
 12 28  1  0
 13 29  1  0
 14 30  1  0
 15 31  1  0
 17 32  1  0
M  CHG  2  19  -1  21  -1
M  END
>  <mol_id>  (40) 
2026-08-23-6tgu-s0-n100-r7-0040

>  <rmsd_to_ref>  (40) 
2.2448979591910785

$$$$
6tgu.A
     RDKit          3D

 32 34  0  0  0  0  0  0  0  0999 V2000
   -0.6446   19.0505   35.8400 C   0  0  0  0  0  0  0  0  0  0  0  0
   -0.0444   19.0951   37.2480 C   0  0  0  0  0  0  0  0  0  0  0  0
   -0.1898   20.2296   38.0432 C   0  0  0  0  0  0  0  0  0  0  0  0
    0.1751   20.2411   39.3935 C   0  0  0  0  0  0  0  0  0  0  0  0
    0.8664   19.1528   39.9452 C   0  0  0  0  0  0  0  0  0  0  0  0
    1.4117   18.0717   42.1807 C   0  0  0  0  0  0  0  0  0  0  0  0
    1.7445   15.9112   42.8110 C   0  0  0  0  0  0  0  0  0  0  0  0
    1.9559   14.4807   42.5873 C   0  0  0  0  0  0  0  0  0  0  0  0
    2.0001   13.5615   43.6452 C   0  0  0  0  0  0  0  0  0  0  0  0
    2.1686   12.2009   43.4077 C   0  0  0  0  0  0  0  0  0  0  0  0
    2.2484   11.7610   42.0998 C   0  0  0  0  0  0  0  0  0  0  0  0
    2.2035   12.6346   41.0237 C   0  0  0  0  0  0  0  0  0  0  0  0
    2.0459   13.9933   41.2825 C   0  0  0  0  0  0  0  0  0  0  0  0
    1.5913   16.4784   44.0485 C   0  0  0  0  0  0  0  0  0  0  0  0
    1.0114   17.9989   39.1619 C   0  0  0  0  0  0  0  0  0  0  0  0
    0.5636   17.9943   37.8395 C   0  0  0  0  0  0  0  0  0  0  0  0
    1.1894   19.1214   41.3366 N   0  0  0  0  0  0  0  0  0  0  0  0
    1.5550   16.7828   41.7126 N   0  0  0  0  0  0  0  0  0  0  0  0
   -1.4034   20.0118   35.5186 O   0  0  0  0  0  0  0  0  0  0  0  0
   -0.4039   18.0337   35.1531 O   0  0  0  0  0  0  0  0  0  0  0  0
    0.6156   16.8272   37.1149 O   0  0  0  0  0  0  0  0  0  0  0  0
    1.1719   18.1440   43.9158 S   0  0  0  0  0  0  0  0  0  0  0  0
    2.4172   10.0653   41.7871 Cl  0  0  0  0  0  0  0  0  0  0  0  0
   -0.6045   21.1448   37.5954 H   0  0  0  0  0  0  0  0  0  0  0  0
   -0.0807   21.1055   40.0238 H   0  0  0  0  0  0  0  0  0  0  0  0
    1.9000   13.9218   44.6797 H   0  0  0  0  0  0  0  0  0  0  0  0
    2.2370   11.4897   44.2440 H   0  0  0  0  0  0  0  0  0  0  0  0
    2.2902   12.2633   39.9919 H   0  0  0  0  0  0  0  0  0  0  0  0
    1.9911   14.6985   40.4401 H   0  0  0  0  0  0  0  0  0  0  0  0
    1.7191   15.9417   45.0002 H   0  0  0  0  0  0  0  0  0  0  0  0
    1.4773   17.0985   39.5886 H   0  0  0  0  0  0  0  0  0  0  0  0
    1.2678   20.0487   41.7780 H   0  0  0  0  0  0  0  0  0  0  0  0
  1  2  1  0
  1 19  1  0
  1 20  2  0
  2  3  1  0
  2 16  2  0
  3  4  2  0
  4  5  1  0
  5 15  2  0
  5 17  1  0
  6 17  1  0
  6 18  2  0
  6 22  1  0
  7  8  1  0
  7 14  2  0
  7 18  1  0
  8  9  1  0
  8 13  2  0
  9 10  2  0
 10 11  1  0
 11 12  2  0
 11 23  1  0
 12 13  1  0
 14 22  1  0
 15 16  1  0
 16 21  1  0
  3 24  1  0
  4 25  1  0
  9 26  1  0
 10 27  1  0
 12 28  1  0
 13 29  1  0
 14 30  1  0
 15 31  1  0
 17 32  1  0
M  CHG  2  19  -1  21  -1
M  END
>  <mol_id>  (41) 
2026-08-23-6tgu-s0-n100-r7-0041

>  <rmsd_to_ref>  (41) 
2.290816326531838

$$$$
6tgu.A
     RDKit          3D

 32 34  0  0  0  0  0  0  0  0999 V2000
    1.6738   22.0934   37.2839 C   0  0  0  0  0  0  0  0  0  0  0  0
    1.7011   20.7543   37.8569 C   0  0  0  0  0  0  0  0  0  0  0  0
    0.8312   20.3732   38.8534 C   0  0  0  0  0  0  0  0  0  0  0  0
    0.8872   19.0821   39.3803 C   0  0  0  0  0  0  0  0  0  0  0  0
    1.7841   18.1407   38.9528 C   0  0  0  0  0  0  0  0  0  0  0  0
    1.5965   16.3648   40.7345 C   0  0  0  0  0  0  0  0  0  0  0  0
    1.2482   15.1323   42.5714 C   0  0  0  0  0  0  0  0  0  0  0  0
    1.2816   13.7825   43.1791 C   0  0  0  0  0  0  0  0  0  0  0  0
    1.6579   12.6627   42.4900 C   0  0  0  0  0  0  0  0  0  0  0  0
    1.7013   11.3947   43.0280 C   0  0  0  0  0  0  0  0  0  0  0  0
    1.3404   11.2275   44.3620 C   0  0  0  0  0  0  0  0  0  0  0  0
    0.9600   12.3466   45.0652 C   0  0  0  0  0  0  0  0  0  0  0  0
    0.9231   13.6066   44.5089 C   0  0  0  0  0  0  0  0  0  0  0  0
    0.8729   16.2331   43.2778 C   0  0  0  0  0  0  0  0  0  0  0  0
    2.6593   18.5518   37.9366 C   0  0  0  0  0  0  0  0  0  0  0  0
    2.6108   19.8194   37.4132 C   0  0  0  0  0  0  0  0  0  0  0  0
    1.9295   16.8357   39.4324 N   0  0  0  0  0  0  0  0  0  0  0  0
    1.5757   15.3693   41.3266 N   0  0  0  0  0  0  0  0  0  0  0  0
    0.7728   23.0442   37.7095 O   0  0  0  0  0  0  0  0  0  0  0  0
    2.5085   22.3708   36.3716 O   0  0  0  0  0  0  0  0  0  0  0  0
    3.5116   20.1509   36.4093 O   0  0  0  0  0  0  0  0  0  0  0  0
    1.0228   17.5808   42.0592 S   0  0  0  0  0  0  0  0  0  0  0  0
    1.3623    9.6588   45.1412 Cl  0  0  0  0  0  0  0  0  0  0  0  0
    0.0907   21.0762   39.2401 H   0  0  0  0  0  0  0  0  0  0  0  0
    0.1739   18.8561   40.1411 H   0  0  0  0  0  0  0  0  0  0  0  0
    1.9451   12.7806   41.4336 H   0  0  0  0  0  0  0  0  0  0  0  0
    1.9979   10.5420   42.4699 H   0  0  0  0  0  0  0  0  0  0  0  0
    0.6725   12.2281   46.1200 H   0  0  0  0  0  0  0  0  0  0  0  0
    0.6221   14.4590   45.0805 H   0  0  0  0  0  0  0  0  0  0  0  0
    0.5524   16.3849   44.2962 H   0  0  0  0  0  0  0  0  0  0  0  0
    3.3935   17.8528   37.5538 H   0  0  0  0  0  0  0  0  0  0  0  0
    2.3180   16.1127   38.7872 H   0  0  0  0  0  0  0  0  0  0  0  0
  1  2  1  0
  1 19  1  0
  1 20  2  0
  2  3  1  0
  2 16  2  0
  3  4  2  0
  4  5  1  0
  5 15  2  0
  5 17  1  0
  6 17  1  0
  6 18  2  0
  6 22  1  0
  7  8  1  0
  7 14  2  0
  7 18  1  0
  8  9  1  0
  8 13  2  0
  9 10  2  0
 10 11  1  0
 11 12  2  0
 11 23  1  0
 12 13  1  0
 14 22  1  0
 15 16  1  0
 16 21  1  0
  3 24  1  0
  4 25  1  0
  9 26  1  0
 10 27  1  0
 12 28  1  0
 13 29  1  0
 14 30  1  0
 15 31  1  0
 17 32  1  0
M  CHG  2  19  -1  21  -1
M  END
>  <mol_id>  (42) 
2026-08-23-6tgu-s0-n100-r7-0042

>  <rmsd_to_ref>  (42) 
2.3367346938792517

$$$$
6tgu.A
     RDKit          3D

 32 34  0  0  0  0  0  0  0  0999 V2000
    2.8962   21.7895   39.8833 C   0  0  0  0  0  0  0  0  0  0  0  0
    2.4714   20.7770   40.9505 C   0  0  0  0  0  0  0  0  0  0  0  0
    1.7797   21.1939   42.0856 C   0  0  0  0  0  0  0  0  0  0  0  0
    1.2115   20.2848   42.9840 C   0  0  0  0  0  0  0  0  0  0  0  0
    1.4746   18.9130   42.8584 C   0  0  0  0  0  0  0  0  0  0  0  0
    0.5643   16.6432   43.5533 C   0  0  0  0  0  0  0  0  0  0  0  0
    0.5747   14.6019   42.5490 C   0  0  0  0  0  0  0  0  0  0  0  0
    0.9782   13.6199   41.5420 C   0  0  0  0  0  0  0  0  0  0  0  0
    0.4101   12.3394   41.4830 C   0  0  0  0  0  0  0  0  0  0  0  0
    0.7843   11.4327   40.4961 C   0  0  0  0  0  0  0  0  0  0  0  0
    1.6997   11.8325   39.5409 C   0  0  0  0  0  0  0  0  0  0  0  0
    2.2818   13.0910   39.5583 C   0  0  0  0  0  0  0  0  0  0  0  0
    1.9029   13.9800   40.5604 C   0  0  0  0  0  0  0  0  0  0  0  0
   -0.3621   14.3628   43.5195 C   0  0  0  0  0  0  0  0  0  0  0  0
    2.1597   18.4756   41.7159 C   0  0  0  0  0  0  0  0  0  0  0  0
    2.6459   19.4068   40.7964 C   0  0  0  0  0  0  0  0  0  0  0  0
    0.8509   17.9665   43.7281 N   0  0  0  0  0  0  0  0  0  0  0  0
    1.0591   15.9297   42.4824 N   0  0  0  0  0  0  0  0  0  0  0  0
    2.4447   22.9657   40.0090 O   0  0  0  0  0  0  0  0  0  0  0  0
    3.5854   21.3569   38.9338 O   0  0  0  0  0  0  0  0  0  0  0  0
    3.2230   18.9636   39.6301 O   0  0  0  0  0  0  0  0  0  0  0  0
   -0.7185   15.8000   44.3999 S   0  0  0  0  0  0  0  0  0  0  0  0
    2.1446   10.7285   38.2820 Cl  0  0  0  0  0  0  0  0  0  0  0  0
    1.6773   22.2715   42.2815 H   0  0  0  0  0  0  0  0  0  0  0  0
    0.5569   20.6466   43.7906 H   0  0  0  0  0  0  0  0  0  0  0  0
   -0.3434   12.0468   42.2290 H   0  0  0  0  0  0  0  0  0  0  0  0
    0.3600   10.4180   40.4766 H   0  0  0  0  0  0  0  0  0  0  0  0
    3.0241   13.3796   38.7995 H   0  0  0  0  0  0  0  0  0  0  0  0
    2.3419   14.9884   40.5791 H   0  0  0  0  0  0  0  0  0  0  0  0
   -0.8251   13.3836   43.7111 H   0  0  0  0  0  0  0  0  0  0  0  0
    2.3140   17.4001   41.5443 H   0  0  0  0  0  0  0  0  0  0  0  0
    0.5695   18.3474   44.6428 H   0  0  0  0  0  0  0  0  0  0  0  0
  1  2  1  0
  1 19  1  0
  1 20  2  0
  2  3  1  0
  2 16  2  0
  3  4  2  0
  4  5  1  0
  5 15  2  0
  5 17  1  0
  6 17  1  0
  6 18  2  0
  6 22  1  0
  7  8  1  0
  7 14  2  0
  7 18  1  0
  8  9  1  0
  8 13  2  0
  9 10  2  0
 10 11  1  0
 11 12  2  0
 11 23  1  0
 12 13  1  0
 14 22  1  0
 15 16  1  0
 16 21  1  0
  3 24  1  0
  4 25  1  0
  9 26  1  0
 10 27  1  0
 12 28  1  0
 13 29  1  0
 14 30  1  0
 15 31  1  0
 17 32  1  0
M  CHG  2  19  -1  21  -1
M  END
>  <mol_id>  (43) 
2026-08-23-6tgu-s0-n100-r7-0043

>  <rmsd_to_ref>  (43) 
2.382653061228928

$$$$
6tgu.A
     RDKit          3D

 32 34  0  0  0  0  0  0  0  0999 V2000
    4.2784   21.2143   38.2328 C   0  0  0  0  0  0  0  0  0  0  0  0
    3.8488   20.3371   39.3304 C   0  0  0  0  0  0  0  0  0  0  0  0
    3.2069   19.1582   39.0712 C   0  0  0  0  0  0  0  0  0  0  0  0
    2.7737   18.3093   40.0924 C   0  0  0  0  0  0  0  0  0  0  0  0
    3.0176   18.7055   41.3873 C   0  0  0  0  0  0  0  0  0  0  0  0
    1.5958   16.9175   42.4115 C   0  0  0  0  0  0  0  0  0  0  0  0
    0.1292   15.2126   42.2318 C   0  0  0  0  0  0  0  0  0  0  0  0
   -0.1730   13.7907   42.3393 C   0  0  0  0  0  0  0  0  0  0  0  0
    0.7673   12.8656   42.7227 C   0  0  0  0  0  0  0  0  0  0  0  0
    0.4316   11.5311   42.8053 C   0  0  0  0  0  0  0  0  0  0  0  0
   -0.8475   11.0846   42.5088 C   0  0  0  0  0  0  0  0  0  0  0  0
   -1.7868   11.9992   42.1268 C   0  0  0  0  0  0  0  0  0  0  0  0
   -1.4324   13.3271   42.0502 C   0  0  0  0  0  0  0  0  0  0  0  0
   -0.8569   16.1690   41.8627 C   0  0  0  0  0  0  0  0  0  0  0  0
    3.6748   19.9094   41.6752 C   0  0  0  0  0  0  0  0  0  0  0  0
    4.0908   20.7277   40.6316 C   0  0  0  0  0  0  0  0  0  0  0  0
    2.5854   17.9663   42.5294 N   0  0  0  0  0  0  0  0  0  0  0  0
    1.2809   15.8125   42.4601 N   0  0  0  0  0  0  0  0  0  0  0  0
    4.9083   22.4181   38.5061 O   0  0  0  0  0  0  0  0  0  0  0  0
    4.0543   20.8401   37.0284 O   0  0  0  0  0  0  0  0  0  0  0  0
    4.7446   21.9274   40.9384 O   0  0  0  0  0  0  0  0  0  0  0  0
   -0.0326   17.7409   41.8904 S   0  0  0  0  0  0  0  0  0  0  0  0
   -1.2928    9.3853   42.6088 Cl  0  0  0  0  0  0  0  0  0  0  0  0
    3.0026   18.8282   38.0489 H   0  0  0  0  0  0  0  0  0  0  0  0
    2.2647   17.3761   39.8979 H   0  0  0  0  0  0  0  0  0  0  0  0
    1.7544   13.2260   42.9538 H   0  0  0  0  0  0  0  0  0  0  0  0
    1.1994   10.8222   43.1127 H   0  0  0  0  0  0  0  0  0  0  0  0
   -2.8098   11.6895   41.8791 H   0  0  0  0  0  0  0  0  0  0  0  0
   -2.2490   13.9983   41.7320 H   0  0  0  0  0  0  0  0  0  0  0  0
   -1.9647   15.9677   41.6000 H   0  0  0  0  0  0  0  0  0  0  0  0
    3.8536   20.1911   42.7249 H   0  0  0  0  0  0  0  0  0  0  0  0
    2.9519   18.1383   43.4831 H   0  0  0  0  0  0  0  0  0  0  0  0
  1  2  1  0
  1 19  1  0
  1 20  2  0
  2  3  1  0
  2 16  2  0
  3  4  2  0
  4  5  1  0
  5 15  2  0
  5 17  1  0
  6 17  1  0
  6 18  2  0
  6 22  1  0
  7  8  1  0
  7 14  2  0
  7 18  1  0
  8  9  1  0
  8 13  2  0
  9 10  2  0
 10 11  1  0
 11 12  2  0
 11 23  1  0
 12 13  1  0
 14 22  1  0
 15 16  1  0
 16 21  1  0
  3 24  1  0
  4 25  1  0
  9 26  1  0
 10 27  1  0
 12 28  1  0
 13 29  1  0
 14 30  1  0
 15 31  1  0
 17 32  1  0
M  CHG  2  19  -1  21  -1
M  END
>  <mol_id>  (44) 
2026-08-23-6tgu-s0-n100-r7-0044

>  <rmsd_to_ref>  (44) 
2.4285714285761273

$$$$
6tgu.A
     RDKit          3D

 32 34  0  0  0  0  0  0  0  0999 V2000
    3.2836   17.6250   36.1621 C   0  0  0  0  0  0  0  0  0  0  0  0
    2.6454   18.2359   37.4128 C   0  0  0  0  0  0  0  0  0  0  0  0
    1.8807   19.3967   37.3215 C   0  0  0  0  0  0  0  0  0  0  0  0
    1.1295   19.8770   38.3992 C   0  0  0  0  0  0  0  0  0  0  0  0
    1.2645   19.2934   39.6672 C   0  0  0  0  0  0  0  0  0  0  0  0
    0.0594   19.0812   41.8957 C   0  0  0  0  0  0  0  0  0  0  0  0
   -0.0282   17.4246   43.4525 C   0  0  0  0  0  0  0  0  0  0  0  0
    0.3806   16.1650   44.0749 C   0  0  0  0  0  0  0  0  0  0  0  0
   -0.3044   15.6207   45.1707 C   0  0  0  0  0  0  0  0  0  0  0  0
    0.0808   14.4045   45.7261 C   0  0  0  0  0  0  0  0  0  0  0  0
    1.1300   13.7144   45.1488 C   0  0  0  0  0  0  0  0  0  0  0  0
    1.8311   14.2130   44.0612 C   0  0  0  0  0  0  0  0  0  0  0  0
    1.4378   15.4369   43.5269 C   0  0  0  0  0  0  0  0  0  0  0  0
   -1.0839   18.1841   43.8826 C   0  0  0  0  0  0  0  0  0  0  0  0
    2.0215   18.1180   39.7741 C   0  0  0  0  0  0  0  0  0  0  0  0
    2.6961   17.6203   38.6577 C   0  0  0  0  0  0  0  0  0  0  0  0
    0.4577   19.7300   40.7625 N   0  0  0  0  0  0  0  0  0  0  0  0
    0.5925   17.8627   42.2587 N   0  0  0  0  0  0  0  0  0  0  0  0
    2.9425   18.1273   35.0510 O   0  0  0  0  0  0  0  0  0  0  0  0
    4.0242   16.6317   36.3311 O   0  0  0  0  0  0  0  0  0  0  0  0
    3.3483   16.4135   38.7476 O   0  0  0  0  0  0  0  0  0  0  0  0
   -1.3863   19.4892   42.7996 S   0  0  0  0  0  0  0  0  0  0  0  0
    1.5946   12.1794   45.8041 Cl  0  0  0  0  0  0  0  0  0  0  0  0
    1.8672   19.9528   36.3725 H   0  0  0  0  0  0  0  0  0  0  0  0
    0.4314   20.7142   38.2518 H   0  0  0  0  0  0  0  0  0  0  0  0
   -1.1600   16.1640   45.5981 H   0  0  0  0  0  0  0  0  0  0  0  0
   -0.4394   14.0003   46.6070 H   0  0  0  0  0  0  0  0  0  0  0  0
    2.6766   13.6556   43.6316 H   0  0  0  0  0  0  0  0  0  0  0  0
    1.9720   15.8390   42.6534 H   0  0  0  0  0  0  0  0  0  0  0  0
   -1.6616   17.9870   44.7977 H   0  0  0  0  0  0  0  0  0  0  0  0
    2.0839   17.5887   40.7364 H   0  0  0  0  0  0  0  0  0  0  0  0
    0.1189   20.6996   40.6838 H   0  0  0  0  0  0  0  0  0  0  0  0
  1  2  1  0
  1 19  1  0
  1 20  2  0
  2  3  1  0
  2 16  2  0
  3  4  2  0
  4  5  1  0
  5 15  2  0
  5 17  1  0
  6 17  1  0
  6 18  2  0
  6 22  1  0
  7  8  1  0
  7 14  2  0
  7 18  1  0
  8  9  1  0
  8 13  2  0
  9 10  2  0
 10 11  1  0
 11 12  2  0
 11 23  1  0
 12 13  1  0
 14 22  1  0
 15 16  1  0
 16 21  1  0
  3 24  1  0
  4 25  1  0
  9 26  1  0
 10 27  1  0
 12 28  1  0
 13 29  1  0
 14 30  1  0
 15 31  1  0
 17 32  1  0
M  CHG  2  19  -1  21  -1
M  END
>  <mol_id>  (45) 
2026-08-23-6tgu-s0-n100-r7-0045

>  <rmsd_to_ref>  (45) 
2.4744897959230174

$$$$
6tgu.A
     RDKit          3D

 32 34  0  0  0  0  0  0  0  0999 V2000
    5.3358   19.4421   37.4913 C   0  0  0  0  0  0  0  0  0  0  0  0
    4.7721   19.1632   38.8161 C   0  0  0  0  0  0  0  0  0  0  0  0
    3.9296   18.0589   38.9794 C   0  0  0  0  0  0  0  0  0  0  0  0
    3.3759   17.7636   40.2314 C   0  0  0  0  0  0  0  0  0  0  0  0
    3.6707   18.5811   41.3144 C   0  0  0  0  0  0  0  0  0  0  0  0
    1.9341   17.6030   42.8341 C   0  0  0  0  0  0  0  0  0  0  0  0
    0.3497   15.9557   42.8062 C   0  0  0  0  0  0  0  0  0  0  0  0
   -0.1592   14.6354   42.4161 C   0  0  0  0  0  0  0  0  0  0  0  0
    0.5646   13.7766   41.6261 C   0  0  0  0  0  0  0  0  0  0  0  0
    0.0453   12.5435   41.2959 C   0  0  0  0  0  0  0  0  0  0  0  0
   -1.1958   12.1486   41.7435 C   0  0  0  0  0  0  0  0  0  0  0  0
   -1.9311   12.9801   42.5257 C   0  0  0  0  0  0  0  0  0  0  0  0
   -1.3946   14.2136   42.8476 C   0  0  0  0  0  0  0  0  0  0  0  0
   -0.4106   16.7897   43.6375 C   0  0  0  0  0  0  0  0  0  0  0  0
    4.5106   19.6750   41.1288 C   0  0  0  0  0  0  0  0  0  0  0  0
    5.0669   19.9838   39.9071 C   0  0  0  0  0  0  0  0  0  0  0  0
    3.1175   18.3613   42.5916 N   0  0  0  0  0  0  0  0  0  0  0  0
    1.5088   16.4268   42.4448 N   0  0  0  0  0  0  0  0  0  0  0  0
    6.1684   20.5364   37.2747 O   0  0  0  0  0  0  0  0  0  0  0  0
    5.0658   18.6729   36.5020 O   0  0  0  0  0  0  0  0  0  0  0  0
    5.9148   21.0994   39.7531 O   0  0  0  0  0  0  0  0  0  0  0  0
    0.6866   18.2812   43.8403 S   0  0  0  0  0  0  0  0  0  0  0  0
   -1.8909   10.5760   41.3513 Cl  0  0  0  0  0  0  0  0  0  0  0  0
    3.6776   17.3997   38.1601 H   0  0  0  0  0  0  0  0  0  0  0  0
    2.7227   16.8859   40.3312 H   0  0  0  0  0  0  0  0  0  0  0  0
    1.5534   14.1045   41.2702 H   0  0  0  0  0  0  0  0  0  0  0  0
    0.5850   11.8533   40.6827 H   0  0  0  0  0  0  0  0  0  0  0  0
   -2.9026   12.7065   42.8989 H   0  0  0  0  0  0  0  0  0  0  0  0
   -2.0007   14.8479   43.4704 H   0  0  0  0  0  0  0  0  0  0  0  0
   -1.3804   16.6973   44.0935 H   0  0  0  0  0  0  0  0  0  0  0  0
    4.7687   20.3470   41.9585 H   0  0  0  0  0  0  0  0  0  0  0  0
    3.6022   18.7702   43.4464 H   0  0  0  0  0  0  0  0  0  0  0  0
  1  2  1  0
  1 19  1  0
  1 20  2  0
  2  3  1  0
  2 16  2  0
  3  4  2  0
  4  5  1  0
  5 15  2  0
  5 17  1  0
  6 17  1  0
  6 18  2  0
  6 22  1  0
  7  8  1  0
  7 14  2  0
  7 18  1  0
  8  9  1  0
  8 13  2  0
  9 10  2  0
 10 11  1  0
 11 12  2  0
 11 23  1  0
 12 13  1  0
 14 22  1  0
 15 16  1  0
 16 21  1  0
  3 24  1  0
  4 25  1  0
  9 26  1  0
 10 27  1  0
 12 28  1  0
 13 29  1  0
 14 30  1  0
 15 31  1  0
 17 32  1  0
M  CHG  2  19  -1  21  -1
M  END
>  <mol_id>  (46) 
2026-08-23-6tgu-s0-n100-r7-0046

>  <rmsd_to_ref>  (46) 
2.520408163270914

$$$$
6tgu.A
     RDKit          3D

 32 34  0  0  0  0  0  0  0  0999 V2000
    4.7379   17.2856   36.0803 C   0  0  0  0  0  0  0  0  0  0  0  0
    4.0065   17.9327   37.2597 C   0  0  0  0  0  0  0  0  0  0  0  0
    3.3338   19.1417   37.0974 C   0  0  0  0  0  0  0  0  0  0  0  0
    2.5009   19.6666   38.0911 C   0  0  0  0  0  0  0  0  0  0  0  0
    2.4566   19.0707   39.3598 C   0  0  0  0  0  0  0  0  0  0  0  0
    1.0013   18.9304   41.4397 C   0  0  0  0  0  0  0  0  0  0  0  0
    0.6345   17.2776   42.9593 C   0  0  0  0  0  0  0  0  0  0  0  0
    0.8891   15.9915   43.6092 C   0  0  0  0  0  0  0  0  0  0  0  0
    0.0532   15.4896   44.6169 C   0  0  0  0  0  0  0  0  0  0  0  0
    0.2946   14.2487   45.1981 C   0  0  0  0  0  0  0  0  0  0  0  0
    1.3540   13.4930   44.7323 C   0  0  0  0  0  0  0  0  0  0  0  0
    2.2020   13.9482   43.7339 C   0  0  0  0  0  0  0  0  0  0  0  0
    1.9507   15.1973   43.1729 C   0  0  0  0  0  0  0  0  0  0  0  0
   -0.4105   18.1035   43.2789 C   0  0  0  0  0  0  0  0  0  0  0  0
    3.1191   17.8476   39.5366 C   0  0  0  0  0  0  0  0  0  0  0  0
    3.8790   17.3106   38.4959 C   0  0  0  0  0  0  0  0  0  0  0  0
    1.5639   19.5557   40.3644 N   0  0  0  0  0  0  0  0  0  0  0  0
    1.4105   17.6781   41.8460 N   0  0  0  0  0  0  0  0  0  0  0  0
    4.5551   17.8133   34.9440 O   0  0  0  0  0  0  0  0  0  0  0  0
    5.3890   16.2450   36.3190 O   0  0  0  0  0  0  0  0  0  0  0  0
    4.4374   16.0631   38.6439 O   0  0  0  0  0  0  0  0  0  0  0  0
   -0.5057   19.4296   42.1834 S   0  0  0  0  0  0  0  0  0  0  0  0
    1.6423   11.9283   45.4180 Cl  0  0  0  0  0  0  0  0  0  0  0  0
    3.4616   19.7010   36.1589 H   0  0  0  0  0  0  0  0  0  0  0  0
    1.8794   20.5485   37.8769 H   0  0  0  0  0  0  0  0  0  0  0  0
   -0.8072   16.0866   44.9534 H   0  0  0  0  0  0  0  0  0  0  0  0
   -0.3450   13.8765   46.0120 H   0  0  0  0  0  0  0  0  0  0  0  0
    3.0517   13.3379   43.3940 H   0  0  0  0  0  0  0  0  0  0  0  0
    2.6032   15.5665   42.3680 H   0  0  0  0  0  0  0  0  0  0  0  0
   -1.0974   17.9416   44.1226 H   0  0  0  0  0  0  0  0  0  0  0  0
    3.0401   17.3119   40.4941 H   0  0  0  0  0  0  0  0  0  0  0  0
    1.2998   20.5457   40.2594 H   0  0  0  0  0  0  0  0  0  0  0  0
  1  2  1  0
  1 19  1  0
  1 20  2  0
  2  3  1  0
  2 16  2  0
  3  4  2  0
  4  5  1  0
  5 15  2  0
  5 17  1  0
  6 17  1  0
  6 18  2  0
  6 22  1  0
  7  8  1  0
  7 14  2  0
  7 18  1  0
  8  9  1  0
  8 13  2  0
  9 10  2  0
 10 11  1  0
 11 12  2  0
 11 23  1  0
 12 13  1  0
 14 22  1  0
 15 16  1  0
 16 21  1  0
  3 24  1  0
  4 25  1  0
  9 26  1  0
 10 27  1  0
 12 28  1  0
 13 29  1  0
 14 30  1  0
 15 31  1  0
 17 32  1  0
M  CHG  2  19  -1  21  -1
M  END
>  <mol_id>  (47) 
2026-08-23-6tgu-s0-n100-r7-0047

>  <rmsd_to_ref>  (47) 
2.566326530618159

$$$$
6tgu.A
     RDKit          3D

 32 34  0  0  0  0  0  0  0  0999 V2000
    3.0306   22.8205   38.7704 C   0  0  0  0  0  0  0  0  0  0  0  0
    2.5756   21.6173   39.4421 C   0  0  0  0  0  0  0  0  0  0  0  0
    1.5083   21.6756   40.3071 C   0  0  0  0  0  0  0  0  0  0  0  0
    1.0589   20.5598   40.9523 C   0  0  0  0  0  0  0  0  0  0  0  0
    1.6531   19.2940   40.7732 C   0  0  0  0  0  0  0  0  0  0  0  0
    1.1841   16.8536   41.2168 C   0  0  0  0  0  0  0  0  0  0  0  0
    1.0113   14.6179   41.2516 C   0  0  0  0  0  0  0  0  0  0  0  0
    0.5389   13.4225   41.9836 C   0  0  0  0  0  0  0  0  0  0  0  0
   -0.1006   13.5032   43.1968 C   0  0  0  0  0  0  0  0  0  0  0  0
   -0.5517   12.4183   43.9095 C   0  0  0  0  0  0  0  0  0  0  0  0
   -0.3525   11.1710   43.3797 C   0  0  0  0  0  0  0  0  0  0  0  0
    0.2920   11.0603   42.1528 C   0  0  0  0  0  0  0  0  0  0  0  0
    0.7360   12.1693   41.4565 C   0  0  0  0  0  0  0  0  0  0  0  0
    1.6420   14.5535   40.0469 C   0  0  0  0  0  0  0  0  0  0  0  0
    2.7053   19.2599   39.9153 C   0  0  0  0  0  0  0  0  0  0  0  0
    3.1723   20.4005   39.2499 C   0  0  0  0  0  0  0  0  0  0  0  0
    1.1083   18.2419   41.5023 N   0  0  0  0  0  0  0  0  0  0  0  0
    0.8696   15.8456   41.6798 N   0  0  0  0  0  0  0  0  0  0  0  0
    2.3834   24.0408   39.0032 O   0  0  0  0  0  0  0  0  0  0  0  0
    4.0145   22.7850   37.9687 O   0  0  0  0  0  0  0  0  0  0  0  0
    4.2525   20.3315   38.3766 O   0  0  0  0  0  0  0  0  0  0  0  0
    1.9885   16.2588   39.6120 S   0  0  0  0  0  0  0  0  0  0  0  0
   -0.8836    9.7271   44.1962 Cl  0  0  0  0  0  0  0  0  0  0  0  0
    1.0132   22.6439   40.4776 H   0  0  0  0  0  0  0  0  0  0  0  0
    0.2127   20.6855   41.6202 H   0  0  0  0  0  0  0  0  0  0  0  0
   -0.2580   14.4848   43.6114 H   0  0  0  0  0  0  0  0  0  0  0  0
   -1.0511   12.5517   44.8662 H   0  0  0  0  0  0  0  0  0  0  0  0
    0.4486   10.0589   41.7381 H   0  0  0  0  0  0  0  0  0  0  0  0
    1.2311   12.0006   40.5044 H   0  0  0  0  0  0  0  0  0  0  0  0
    1.9141   13.6785   39.4148 H   0  0  0  0  0  0  0  0  0  0  0  0
    3.2253   18.3605   39.7240 H   0  0  0  0  0  0  0  0  0  0  0  0
    0.5629   18.4669   42.3914 H   0  0  0  0  0  0  0  0  0  0  0  0
  1  2  1  0
  1 19  1  0
  1 20  2  0
  2  3  1  0
  2 16  2  0
  3  4  2  0
  4  5  1  0
  5 15  2  0
  5 17  1  0
  6 17  1  0
  6 18  2  0
  6 22  1  0
  7  8  1  0
  7 14  2  0
  7 18  1  0
  8  9  1  0
  8 13  2  0
  9 10  2  0
 10 11  1  0
 11 12  2  0
 11 23  1  0
 12 13  1  0
 14 22  1  0
 15 16  1  0
 16 21  1  0
  3 24  1  0
  4 25  1  0
  9 26  1  0
 10 27  1  0
 12 28  1  0
 13 29  1  0
 14 30  1  0
 15 31  1  0
 17 32  1  0
M  CHG  2  19  -1  21  -1
M  END
>  <mol_id>  (48) 
2026-08-23-6tgu-s0-n100-r7-0048

>  <rmsd_to_ref>  (48) 
2.6122448979596045

$$$$
6tgu.A
     RDKit          3D

 32 34  0  0  0  0  0  0  0  0999 V2000
    2.0764   21.4272   38.7864 C   0  0  0  0  0  0  0  0  0  0  0  0
    2.1567   20.3735   39.8946 C   0  0  0  0  0  0  0  0  0  0  0  0
    1.8072   20.6961   41.2039 C   0  0  0  0  0  0  0  0  0  0  0  0
    1.6852   19.7224   42.2007 C   0  0  0  0  0  0  0  0  0  0  0  0
    2.0852   18.4022   41.9480 C   0  0  0  0  0  0  0  0  0  0  0  0
    1.7692   16.0308   42.8082 C   0  0  0  0  0  0  0  0  0  0  0  0
    1.7489   14.0035   41.7761 C   0  0  0  0  0  0  0  0  0  0  0  0
    1.9478   13.0813   40.6576 C   0  0  0  0  0  0  0  0  0  0  0  0
    1.5760   11.7314   40.7320 C   0  0  0  0  0  0  0  0  0  0  0  0
    1.7431   10.8796   39.6446 C   0  0  0  0  0  0  0  0  0  0  0  0
    2.2446   11.3993   38.4661 C   0  0  0  0  0  0  0  0  0  0  0  0
    2.6195   12.7290   38.3469 C   0  0  0  0  0  0  0  0  0  0  0  0
    2.4552   13.5627   39.4497 C   0  0  0  0  0  0  0  0  0  0  0  0
    1.2096   13.6399   42.9817 C   0  0  0  0  0  0  0  0  0  0  0  0
    2.4292   18.0584   40.6329 C   0  0  0  0  0  0  0  0  0  0  0  0
    2.4643   19.0419   39.6426 C   0  0  0  0  0  0  0  0  0  0  0  0
    1.9073   17.3832   42.9335 N   0  0  0  0  0  0  0  0  0  0  0  0
    1.9959   15.3868   41.6104 N   0  0  0  0  0  0  0  0  0  0  0  0
    1.5270   22.5266   39.0910 O   0  0  0  0  0  0  0  0  0  0  0  0
    2.4843   21.0905   37.6533 O   0  0  0  0  0  0  0  0  0  0  0  0
    2.7003   18.6764   38.3385 O   0  0  0  0  0  0  0  0  0  0  0  0
    0.9510   15.0182   43.9823 S   0  0  0  0  0  0  0  0  0  0  0  0
    2.4200   10.3600   37.0910 Cl  0  0  0  0  0  0  0  0  0  0  0  0
    1.6215   21.7491   41.4620 H   0  0  0  0  0  0  0  0  0  0  0  0
    1.2745   19.9927   43.1847 H   0  0  0  0  0  0  0  0  0  0  0  0
    1.1453   11.3394   41.6652 H   0  0  0  0  0  0  0  0  0  0  0  0
    1.4814    9.8140   39.7213 H   0  0  0  0  0  0  0  0  0  0  0  0
    3.0362   13.1153   37.4050 H   0  0  0  0  0  0  0  0  0  0  0  0
    2.7315   14.6242   39.3673 H   0  0  0  0  0  0  0  0  0  0  0  0
    0.9732   12.6056   43.2722 H   0  0  0  0  0  0  0  0  0  0  0  0
    2.6710   17.0151   40.3817 H   0  0  0  0  0  0  0  0  0  0  0  0
    1.8784   17.7276   43.9038 H   0  0  0  0  0  0  0  0  0  0  0  0
  1  2  1  0
  1 19  1  0
  1 20  2  0
  2  3  1  0
  2 16  2  0
  3  4  2  0
  4  5  1  0
  5 15  2  0
  5 17  1  0
  6 17  1  0
  6 18  2  0
  6 22  1  0
  7  8  1  0
  7 14  2  0
  7 18  1  0
  8  9  1  0
  8 13  2  0
  9 10  2  0
 10 11  1  0
 11 12  2  0
 11 23  1  0
 12 13  1  0
 14 22  1  0
 15 16  1  0
 16 21  1  0
  3 24  1  0
  4 25  1  0
  9 26  1  0
 10 27  1  0
 12 28  1  0
 13 29  1  0
 14 30  1  0
 15 31  1  0
 17 32  1  0
M  CHG  2  19  -1  21  -1
M  END
>  <mol_id>  (49) 
2026-08-23-6tgu-s0-n100-r7-0049

>  <rmsd_to_ref>  (49) 
2.6581632653116434

$$$$
6tgu.A
     RDKit          3D

 32 34  0  0  0  0  0  0  0  0999 V2000
    1.4129   23.0180   39.3657 C   0  0  0  0  0  0  0  0  0  0  0  0
    1.6624   21.6397   39.7522 C   0  0  0  0  0  0  0  0  0  0  0  0
    2.8454   21.2613   40.3531 C   0  0  0  0  0  0  0  0  0  0  0  0
    3.0679   19.9568   40.7135 C   0  0  0  0  0  0  0  0  0  0  0  0
    2.1288   18.9402   40.5006 C   0  0  0  0  0  0  0  0  0  0  0  0
    1.6315   16.5711   41.2141 C   0  0  0  0  0  0  0  0  0  0  0  0
    0.7705   14.5854   41.7893 C   0  0  0  0  0  0  0  0  0  0  0  0
    0.9647   13.1659   42.1646 C   0  0  0  0  0  0  0  0  0  0  0  0
   -0.0851   12.3421   42.4347 C   0  0  0  0  0  0  0  0  0  0  0  0
    0.1179   11.0257   42.7826 C   0  0  0  0  0  0  0  0  0  0  0  0
    1.3853   10.4748   42.8756 C   0  0  0  0  0  0  0  0  0  0  0  0
    2.4445   11.2990   42.6051 C   0  0  0  0  0  0  0  0  0  0  0  0
    2.2388   12.6158   42.2571 C   0  0  0  0  0  0  0  0  0  0  0  0
   -0.5219   15.1153   41.7055 C   0  0  0  0  0  0  0  0  0  0  0  0
    0.9587   19.3201   39.9045 C   0  0  0  0  0  0  0  0  0  0  0  0
    0.7373   20.6328   39.5433 C   0  0  0  0  0  0  0  0  0  0  0  0
    2.4898   17.6502   40.9036 N   0  0  0  0  0  0  0  0  0  0  0  0
    1.7364   15.4069   41.5235 N   0  0  0  0  0  0  0  0  0  0  0  0
    0.2294   23.3772   38.7689 O   0  0  0  0  0  0  0  0  0  0  0  0
    2.3210   23.8771   39.5966 O   0  0  0  0  0  0  0  0  0  0  0  0
   -0.4648   21.0350   38.9294 O   0  0  0  0  0  0  0  0  0  0  0  0
   -0.2359   16.7791   41.2434 S   0  0  0  0  0  0  0  0  0  0  0  0
    1.6271    8.8063   43.3178 Cl  0  0  0  0  0  0  0  0  0  0  0  0
    3.5939   22.0090   40.5356 H   0  0  0  0  0  0  0  0  0  0  0  0
    4.0322   19.7367   41.1861 H   0  0  0  0  0  0  0  0  0  0  0  0
   -1.1054   12.6963   42.3837 H   0  0  0  0  0  0  0  0  0  0  0  0
   -0.7331   10.3774   42.9963 H   0  0  0  0  0  0  0  0  0  0  0  0
    3.4734   10.9443   42.6552 H   0  0  0  0  0  0  0  0  0  0  0  0
    3.0708   13.2728   42.0419 H   0  0  0  0  0  0  0  0  0  0  0  0
   -1.4502   14.6385   41.8770 H   0  0  0  0  0  0  0  0  0  0  0  0
    0.1962   18.6163   39.6947 H   0  0  0  0  0  0  0  0  0  0  0  0
    3.5269   17.4214   40.9947 H   0  0  0  0  0  0  0  0  0  0  0  0
  1  2  1  0
  1 19  1  0
  1 20  2  0
  2  3  1  0
  2 16  2  0
  3  4  2  0
  4  5  1  0
  5 15  2  0
  5 17  1  0
  6 17  1  0
  6 18  2  0
  6 22  1  0
  7  8  1  0
  7 14  2  0
  7 18  1  0
  8  9  1  0
  8 13  2  0
  9 10  2  0
 10 11  1  0
 11 12  2  0
 11 23  1  0
 12 13  1  0
 14 22  1  0
 15 16  1  0
 16 21  1  0
  3 24  1  0
  4 25  1  0
  9 26  1  0
 10 27  1  0
 12 28  1  0
 13 29  1  0
 14 30  1  0
 15 31  1  0
 17 32  1  0
M  CHG  2  19  -1  21  -1
M  END
>  <mol_id>  (50) 
2026-08-23-6tgu-s0-n100-r7-0050

>  <rmsd_to_ref>  (50) 
2.704081632657819

$$$$
6tgu.A
     RDKit          3D

 32 34  0  0  0  0  0  0  0  0999 V2000
    4.1773   20.7888   39.7486 C   0  0  0  0  0  0  0  0  0  0  0  0
    3.4906   19.9617   40.8390 C   0  0  0  0  0  0  0  0  0  0  0  0
    3.2010   20.5272   42.0788 C   0  0  0  0  0  0  0  0  0  0  0  0
    2.4106   19.8704   43.0276 C   0  0  0  0  0  0  0  0  0  0  0  0
    2.0281   18.5366   42.8235 C   0  0  0  0  0  0  0  0  0  0  0  0
    0.3117   16.8228   43.5851 C   0  0  0  0  0  0  0  0  0  0  0  0
   -0.7000   15.0777   42.5331 C   0  0  0  0  0  0  0  0  0  0  0  0
   -0.8982   14.1161   41.4480 C   0  0  0  0  0  0  0  0  0  0  0  0
   -1.9720   13.2146   41.4407 C   0  0  0  0  0  0  0  0  0  0  0  0
   -2.1608   12.3314   40.3822 C   0  0  0  0  0  0  0  0  0  0  0  0
   -1.2917   12.3871   39.3090 C   0  0  0  0  0  0  0  0  0  0  0  0
   -0.2202   13.2666   39.2724 C   0  0  0  0  0  0  0  0  0  0  0  0
   -0.0415   14.1345   40.3462 C   0  0  0  0  0  0  0  0  0  0  0  0
   -1.5158   15.1742   43.6292 C   0  0  0  0  0  0  0  0  0  0  0  0
    2.3020   17.9562   41.5769 C   0  0  0  0  0  0  0  0  0  0  0  0
    3.0263   18.6701   40.6204 C   0  0  0  0  0  0  0  0  0  0  0  0
    1.1684   17.8726   43.7515 N   0  0  0  0  0  0  0  0  0  0  0  0
    0.3043   16.0692   42.4306 N   0  0  0  0  0  0  0  0  0  0  0  0
    4.3064   22.0276   39.9762 O   0  0  0  0  0  0  0  0  0  0  0  0
    4.4812   20.1929   38.6920 O   0  0  0  0  0  0  0  0  0  0  0  0
    3.1985   18.1330   39.3668 O   0  0  0  0  0  0  0  0  0  0  0  0
   -1.0923   16.5364   44.5950 S   0  0  0  0  0  0  0  0  0  0  0  0
   -1.5383   11.3215   37.9653 Cl  0  0  0  0  0  0  0  0  0  0  0  0
    3.6065   21.5211   42.3190 H   0  0  0  0  0  0  0  0  0  0  0  0
    2.0884   20.4010   43.9356 H   0  0  0  0  0  0  0  0  0  0  0  0
   -2.6766   13.2054   42.2853 H   0  0  0  0  0  0  0  0  0  0  0  0
   -2.9853   11.6035   40.3992 H   0  0  0  0  0  0  0  0  0  0  0  0
    0.4710   13.2783   38.4168 H   0  0  0  0  0  0  0  0  0  0  0  0
    0.7933   14.8505   40.3259 H   0  0  0  0  0  0  0  0  0  0  0  0
   -2.3325   14.4750   43.8618 H   0  0  0  0  0  0  0  0  0  0  0  0
    1.9466   16.9396   41.3527 H   0  0  0  0  0  0  0  0  0  0  0  0
    1.2004   18.2503   44.7092 H   0  0  0  0  0  0  0  0  0  0  0  0
  1  2  1  0
  1 19  1  0
  1 20  2  0
  2  3  1  0
  2 16  2  0
  3  4  2  0
  4  5  1  0
  5 15  2  0
  5 17  1  0
  6 17  1  0
  6 18  2  0
  6 22  1  0
  7  8  1  0
  7 14  2  0
  7 18  1  0
  8  9  1  0
  8 13  2  0
  9 10  2  0
 10 11  1  0
 11 12  2  0
 11 23  1  0
 12 13  1  0
 14 22  1  0
 15 16  1  0
 16 21  1  0
  3 24  1  0
  4 25  1  0
  9 26  1  0
 10 27  1  0
 12 28  1  0
 13 29  1  0
 14 30  1  0
 15 31  1  0
 17 32  1  0
M  CHG  2  19  -1  21  -1
M  END
>  <mol_id>  (51) 
2026-08-23-6tgu-s0-n100-r7-0051

>  <rmsd_to_ref>  (51) 
2.7500000000008136

$$$$
6tgu.A
     RDKit          3D

 32 34  0  0  0  0  0  0  0  0999 V2000
    4.0188   20.8085   36.8861 C   0  0  0  0  0  0  0  0  0  0  0  0
    3.5853   19.6774   37.6903 C   0  0  0  0  0  0  0  0  0  0  0  0
    3.7032   18.3885   37.2351 C   0  0  0  0  0  0  0  0  0  0  0  0
    3.2956   17.3106   37.9869 C   0  0  0  0  0  0  0  0  0  0  0  0
    2.7355   17.4660   39.2631 C   0  0  0  0  0  0  0  0  0  0  0  0
    1.4621   16.1908   41.0081 C   0  0  0  0  0  0  0  0  0  0  0  0
    0.1967   15.3272   42.6785 C   0  0  0  0  0  0  0  0  0  0  0  0
   -0.1940   14.1498   43.4883 C   0  0  0  0  0  0  0  0  0  0  0  0
   -1.1263   14.2750   44.4729 C   0  0  0  0  0  0  0  0  0  0  0  0
   -1.5387   13.2351   45.2622 C   0  0  0  0  0  0  0  0  0  0  0  0
   -0.9957   11.9829   45.0696 C   0  0  0  0  0  0  0  0  0  0  0  0
   -0.0548   11.8425   44.0802 C   0  0  0  0  0  0  0  0  0  0  0  0
    0.3610   12.9063   43.2796 C   0  0  0  0  0  0  0  0  0  0  0  0
   -0.3746   16.5865   42.8997 C   0  0  0  0  0  0  0  0  0  0  0  0
    2.6242   18.7596   39.7054 C   0  0  0  0  0  0  0  0  0  0  0  0
    3.0377   19.8560   38.9427 C   0  0  0  0  0  0  0  0  0  0  0  0
    2.3641   16.3112   39.9518 N   0  0  0  0  0  0  0  0  0  0  0  0
    1.0773   15.2847   41.7240 N   0  0  0  0  0  0  0  0  0  0  0  0
    3.8788   22.0987   37.3858 O   0  0  0  0  0  0  0  0  0  0  0  0
    4.5251   20.6691   35.7351 O   0  0  0  0  0  0  0  0  0  0  0  0
    2.8996   21.1456   39.4433 O   0  0  0  0  0  0  0  0  0  0  0  0
    0.4526   17.6076   41.6602 S   0  0  0  0  0  0  0  0  0  0  0  0
   -1.5164   10.6394   46.0763 Cl  0  0  0  0  0  0  0  0  0  0  0  0
    4.1309   18.2374   36.2554 H   0  0  0  0  0  0  0  0  0  0  0  0
    3.4197   16.3150   37.5615 H   0  0  0  0  0  0  0  0  0  0  0  0
   -1.5984   15.2472   44.6784 H   0  0  0  0  0  0  0  0  0  0  0  0
   -2.2790   13.3833   46.0283 H   0  0  0  0  0  0  0  0  0  0  0  0
    0.3625   10.8379   43.9460 H   0  0  0  0  0  0  0  0  0  0  0  0
    1.1083   12.7610   42.5052 H   0  0  0  0  0  0  0  0  0  0  0  0
   -1.1129   16.9132   43.6059 H   0  0  0  0  0  0  0  0  0  0  0  0
    2.2237   18.9732   40.6566 H   0  0  0  0  0  0  0  0  0  0  0  0
    2.8249   15.3968   39.6402 H   0  0  0  0  0  0  0  0  0  0  0  0
  1  2  1  0
  1 19  1  0
  1 20  2  0
  2  3  1  0
  2 16  2  0
  3  4  2  0
  4  5  1  0
  5 15  2  0
  5 17  1  0
  6 17  1  0
  6 18  2  0
  6 22  1  0
  7  8  1  0
  7 14  2  0
  7 18  1  0
  8  9  1  0
  8 13  2  0
  9 10  2  0
 10 11  1  0
 11 12  2  0
 11 23  1  0
 12 13  1  0
 14 22  1  0
 15 16  1  0
 16 21  1  0
  3 24  1  0
  4 25  1  0
  9 26  1  0
 10 27  1  0
 12 28  1  0
 13 29  1  0
 14 30  1  0
 15 31  1  0
 17 32  1  0
M  CHG  2  19  -1  21  -1
M  END
>  <mol_id>  (52) 
2026-08-23-6tgu-s0-n100-r7-0052

>  <rmsd_to_ref>  (52) 
2.7959183673496115

$$$$
6tgu.A
     RDKit          3D

 32 34  0  0  0  0  0  0  0  0999 V2000
    1.8919   17.9514   35.2937 C   0  0  0  0  0  0  0  0  0  0  0  0
    2.1989   18.5150   36.6839 C   0  0  0  0  0  0  0  0  0  0  0  0
    2.2559   19.8912   36.8924 C   0  0  0  0  0  0  0  0  0  0  0  0
    2.3441   20.4444   38.1741 C   0  0  0  0  0  0  0  0  0  0  0  0
    2.5554   19.6158   39.2856 C   0  0  0  0  0  0  0  0  0  0  0  0
    2.3131   19.5853   41.8162 C   0  0  0  0  0  0  0  0  0  0  0  0
    1.8499   17.9272   43.3034 C   0  0  0  0  0  0  0  0  0  0  0  0
    1.6564   16.5401   43.7272 C   0  0  0  0  0  0  0  0  0  0  0  0
    1.2186   16.2115   45.0181 C   0  0  0  0  0  0  0  0  0  0  0  0
    1.0088   14.8871   45.3897 C   0  0  0  0  0  0  0  0  0  0  0  0
    1.1981   13.8955   44.4457 C   0  0  0  0  0  0  0  0  0  0  0  0
    1.6249   14.1762   43.1565 C   0  0  0  0  0  0  0  0  0  0  0  0
    1.8403   15.5066   42.8073 C   0  0  0  0  0  0  0  0  0  0  0  0
    1.6438   19.0116   44.1146 C   0  0  0  0  0  0  0  0  0  0  0  0
    2.4898   18.2282   39.0948 C   0  0  0  0  0  0  0  0  0  0  0  0
    2.3211   17.7093   37.8097 C   0  0  0  0  0  0  0  0  0  0  0  0
    2.5836   20.1584   40.6070 N   0  0  0  0  0  0  0  0  0  0  0  0
    2.1453   18.2236   41.9517 N   0  0  0  0  0  0  0  0  0  0  0  0
    1.5355   18.7868   34.4115 O   0  0  0  0  0  0  0  0  0  0  0  0
    1.9391   16.7087   35.1626 O   0  0  0  0  0  0  0  0  0  0  0  0
    2.1536   16.3546   37.6471 O   0  0  0  0  0  0  0  0  0  0  0  0
    1.7819   20.4812   43.2263 S   0  0  0  0  0  0  0  0  0  0  0  0
    0.9014   12.2453   44.8819 Cl  0  0  0  0  0  0  0  0  0  0  0  0
    2.2309   20.5636   36.0222 H   0  0  0  0  0  0  0  0  0  0  0  0
    2.2475   21.5316   38.3104 H   0  0  0  0  0  0  0  0  0  0  0  0
    1.0380   17.0136   45.7488 H   0  0  0  0  0  0  0  0  0  0  0  0
    0.6985   14.6344   46.4143 H   0  0  0  0  0  0  0  0  0  0  0  0
    1.7892   13.3683   42.4282 H   0  0  0  0  0  0  0  0  0  0  0  0
    2.1625   15.7486   41.7838 H   0  0  0  0  0  0  0  0  0  0  0  0
    1.4201   18.9519   45.1899 H   0  0  0  0  0  0  0  0  0  0  0  0
    2.5712   17.5494   39.9565 H   0  0  0  0  0  0  0  0  0  0  0  0
    2.8540   21.1511   40.6556 H   0  0  0  0  0  0  0  0  0  0  0  0
  1  2  1  0
  1 19  1  0
  1 20  2  0
  2  3  1  0
  2 16  2  0
  3  4  2  0
  4  5  1  0
  5 15  2  0
  5 17  1  0
  6 17  1  0
  6 18  2  0
  6 22  1  0
  7  8  1  0
  7 14  2  0
  7 18  1  0
  8  9  1  0
  8 13  2  0
  9 10  2  0
 10 11  1  0
 11 12  2  0
 11 23  1  0
 12 13  1  0
 14 22  1  0
 15 16  1  0
 16 21  1  0
  3 24  1  0
  4 25  1  0
  9 26  1  0
 10 27  1  0
 12 28  1  0
 13 29  1  0
 14 30  1  0
 15 31  1  0
 17 32  1  0
M  CHG  2  19  -1  21  -1
M  END
>  <mol_id>  (53) 
2026-08-23-6tgu-s0-n100-r7-0053

>  <rmsd_to_ref>  (53) 
2.841836734694827

$$$$
6tgu.A
     RDKit          3D

 32 34  0  0  0  0  0  0  0  0999 V2000
    5.7874   19.9521   37.5326 C   0  0  0  0  0  0  0  0  0  0  0  0
    4.7891   19.9223   38.6033 C   0  0  0  0  0  0  0  0  0  0  0  0
    4.2367   21.0849   39.1169 C   0  0  0  0  0  0  0  0  0  0  0  0
    3.3028   20.9924   40.1236 C   0  0  0  0  0  0  0  0  0  0  0  0
    2.9127   19.7637   40.6240 C   0  0  0  0  0  0  0  0  0  0  0  0
    1.5214   18.4295   42.1650 C   0  0  0  0  0  0  0  0  0  0  0  0
    0.4912   16.4923   42.6063 C   0  0  0  0  0  0  0  0  0  0  0  0
   -0.5931   15.5267   42.3146 C   0  0  0  0  0  0  0  0  0  0  0  0
   -1.5203   15.7834   41.2997 C   0  0  0  0  0  0  0  0  0  0  0  0
   -2.5296   14.8791   41.0327 C   0  0  0  0  0  0  0  0  0  0  0  0
   -2.6600   13.7090   41.7435 C   0  0  0  0  0  0  0  0  0  0  0  0
   -1.7489   13.4497   42.7458 C   0  0  0  0  0  0  0  0  0  0  0  0
   -0.7467   14.3629   43.0001 C   0  0  0  0  0  0  0  0  0  0  0  0
    1.4048   16.2286   43.6206 C   0  0  0  0  0  0  0  0  0  0  0  0
    3.4597   18.5953   40.1165 C   0  0  0  0  0  0  0  0  0  0  0  0
    4.3960   18.6917   39.1070 C   0  0  0  0  0  0  0  0  0  0  0  0
    1.9538   19.6911   41.6598 N   0  0  0  0  0  0  0  0  0  0  0  0
    0.7207   17.6317   42.0059 N   0  0  0  0  0  0  0  0  0  0  0  0
    6.2049   21.1665   37.0028 O   0  0  0  0  0  0  0  0  0  0  0  0
    6.2294   18.8469   37.1344 O   0  0  0  0  0  0  0  0  0  0  0  0
    4.9352   17.4902   38.6099 O   0  0  0  0  0  0  0  0  0  0  0  0
    2.5001   17.6522   43.6026 S   0  0  0  0  0  0  0  0  0  0  0  0
   -3.9671   12.6255   41.3362 Cl  0  0  0  0  0  0  0  0  0  0  0  0
    4.5590   22.0524   38.7067 H   0  0  0  0  0  0  0  0  0  0  0  0
    2.8545   21.9032   40.5421 H   0  0  0  0  0  0  0  0  0  0  0  0
   -1.4032   16.7109   40.7478 H   0  0  0  0  0  0  0  0  0  0  0  0
   -3.2142   15.1314   40.2403 H   0  0  0  0  0  0  0  0  0  0  0  0
   -1.8274   12.5468   43.3133 H   0  0  0  0  0  0  0  0  0  0  0  0
   -0.0461   14.1195   43.8016 H   0  0  0  0  0  0  0  0  0  0  0  0
    1.4774   15.3865   44.2833 H   0  0  0  0  0  0  0  0  0  0  0  0
    3.1416   17.6424   40.5209 H   0  0  0  0  0  0  0  0  0  0  0  0
    1.5471   20.5613   42.0712 H   0  0  0  0  0  0  0  0  0  0  0  0
  1  2  1  0
  1 19  1  0
  1 20  2  0
  2  3  1  0
  2 16  2  0
  3  4  2  0
  4  5  1  0
  5 15  2  0
  5 17  1  0
  6 17  1  0
  6 18  2  0
  6 22  1  0
  7  8  1  0
  7 14  2  0
  7 18  1  0
  8  9  1  0
  8 13  2  0
  9 10  2  0
 10 11  1  0
 11 12  2  0
 11 23  1  0
 12 13  1  0
 14 22  1  0
 15 16  1  0
 16 21  1  0
  3 24  1  0
  4 25  1  0
  9 26  1  0
 10 27  1  0
 12 28  1  0
 13 29  1  0
 14 30  1  0
 15 31  1  0
 17 32  1  0
M  CHG  2  19  -1  21  -1
M  END
>  <mol_id>  (54) 
2026-08-23-6tgu-s0-n100-r7-0054

>  <rmsd_to_ref>  (54) 
2.887755102049179

$$$$
6tgu.A
     RDKit          3D

 32 34  0  0  0  0  0  0  0  0999 V2000
    4.4844   19.9261   40.7038 C   0  0  0  0  0  0  0  0  0  0  0  0
    3.0373   19.4257   40.7011 C   0  0  0  0  0  0  0  0  0  0  0  0
    2.0992   19.9791   39.8326 C   0  0  0  0  0  0  0  0  0  0  0  0
    0.8254   19.4258   39.6658 C   0  0  0  0  0  0  0  0  0  0  0  0
    0.3919   18.3904   40.5066 C   0  0  0  0  0  0  0  0  0  0  0  0
   -1.3313   16.5257   40.6365 C   0  0  0  0  0  0  0  0  0  0  0  0
   -1.3040   14.4614   41.5923 C   0  0  0  0  0  0  0  0  0  0  0  0
   -0.7639   13.3984   42.4405 C   0  0  0  0  0  0  0  0  0  0  0  0
   -1.3418   12.1219   42.4909 C   0  0  0  0  0  0  0  0  0  0  0  0
   -0.7920   11.1154   43.2787 C   0  0  0  0  0  0  0  0  0  0  0  0
    0.3672   11.3826   43.9824 C   0  0  0  0  0  0  0  0  0  0  0  0
    0.9750   12.6288   43.9566 C   0  0  0  0  0  0  0  0  0  0  0  0
    0.4032   13.6261   43.1713 C   0  0  0  0  0  0  0  0  0  0  0  0
   -2.4114   14.3196   40.7987 C   0  0  0  0  0  0  0  0  0  0  0  0
    1.3270   17.8148   41.3786 C   0  0  0  0  0  0  0  0  0  0  0  0
    2.6168   18.3422   41.4632 C   0  0  0  0  0  0  0  0  0  0  0  0
   -0.8805   17.7717   40.3079 N   0  0  0  0  0  0  0  0  0  0  0  0
   -0.6063   15.6846   41.4535 N   0  0  0  0  0  0  0  0  0  0  0  0
    4.8064   20.7287   39.7790 O   0  0  0  0  0  0  0  0  0  0  0  0
    5.2500   19.4423   41.5662 O   0  0  0  0  0  0  0  0  0  0  0  0
    3.5545   17.7067   42.2421 O   0  0  0  0  0  0  0  0  0  0  0  0
   -2.6374   15.7065   39.8020 S   0  0  0  0  0  0  0  0  0  0  0  0
    1.0862   10.1270   44.9354 Cl  0  0  0  0  0  0  0  0  0  0  0  0
    2.3685   20.8790   39.2603 H   0  0  0  0  0  0  0  0  0  0  0  0
    0.1623   19.8036   38.8736 H   0  0  0  0  0  0  0  0  0  0  0  0
   -2.2445   11.9127   41.8980 H   0  0  0  0  0  0  0  0  0  0  0  0
   -1.2703   10.1267   43.3403 H   0  0  0  0  0  0  0  0  0  0  0  0
    1.8857   12.8244   44.5418 H   0  0  0  0  0  0  0  0  0  0  0  0
    0.8819   14.6155   43.1258 H   0  0  0  0  0  0  0  0  0  0  0  0
   -3.0688   13.4377   40.7979 H   0  0  0  0  0  0  0  0  0  0  0  0
    1.0446   16.9487   41.9952 H   0  0  0  0  0  0  0  0  0  0  0  0
   -1.5762   18.3672   39.8364 H   0  0  0  0  0  0  0  0  0  0  0  0
  1  2  1  0
  1 19  1  0
  1 20  2  0
  2  3  1  0
  2 16  2  0
  3  4  2  0
  4  5  1  0
  5 15  2  0
  5 17  1  0
  6 17  1  0
  6 18  2  0
  6 22  1  0
  7  8  1  0
  7 14  2  0
  7 18  1  0
  8  9  1  0
  8 13  2  0
  9 10  2  0
 10 11  1  0
 11 12  2  0
 11 23  1  0
 12 13  1  0
 14 22  1  0
 15 16  1  0
 16 21  1  0
  3 24  1  0
  4 25  1  0
  9 26  1  0
 10 27  1  0
 12 28  1  0
 13 29  1  0
 14 30  1  0
 15 31  1  0
 17 32  1  0
M  CHG  2  19  -1  21  -1
M  END
>  <mol_id>  (55) 
2026-08-23-6tgu-s0-n100-r7-0055

>  <rmsd_to_ref>  (55) 
2.9336734693913136

$$$$
6tgu.A
     RDKit          3D

 32 34  0  0  0  0  0  0  0  0999 V2000
   -0.0633   20.4089   36.7483 C   0  0  0  0  0  0  0  0  0  0  0  0
    0.1695   20.0039   38.1233 C   0  0  0  0  0  0  0  0  0  0  0  0
    0.3518   20.9496   39.1000 C   0  0  0  0  0  0  0  0  0  0  0  0
    0.5624   20.5273   40.3894 C   0  0  0  0  0  0  0  0  0  0  0  0
    0.5992   19.1877   40.7459 C   0  0  0  0  0  0  0  0  0  0  0  0
    0.9670   17.4070   42.4675 C   0  0  0  0  0  0  0  0  0  0  0  0
    1.7330   15.4196   43.2134 C   0  0  0  0  0  0  0  0  0  0  0  0
    2.8417   14.6616   43.8245 C   0  0  0  0  0  0  0  0  0  0  0  0
    4.0375   15.2503   44.1688 C   0  0  0  0  0  0  0  0  0  0  0  0
    5.0762   14.5461   44.7438 C   0  0  0  0  0  0  0  0  0  0  0  0
    4.9061   13.2017   44.9812 C   0  0  0  0  0  0  0  0  0  0  0  0
    3.7192   12.5851   44.6467 C   0  0  0  0  0  0  0  0  0  0  0  0
    2.7024   13.3129   44.0749 C   0  0  0  0  0  0  0  0  0  0  0  0
    0.5516   14.8504   42.8765 C   0  0  0  0  0  0  0  0  0  0  0  0
    0.4102   18.2768   39.7249 C   0  0  0  0  0  0  0  0  0  0  0  0
    0.1945   18.6470   38.4139 C   0  0  0  0  0  0  0  0  0  0  0  0
    0.8021   18.7856   42.0833 N   0  0  0  0  0  0  0  0  0  0  0  0
    1.7994   16.7074   42.9512 N   0  0  0  0  0  0  0  0  0  0  0  0
   -0.2618   19.4773   35.7273 O   0  0  0  0  0  0  0  0  0  0  0  0
   -0.1010   21.6266   36.3858 O   0  0  0  0  0  0  0  0  0  0  0  0
    0.0034   17.6987   37.3926 O   0  0  0  0  0  0  0  0  0  0  0  0
   -0.4498   16.2039   42.1813 S   0  0  0  0  0  0  0  0  0  0  0  0
    6.1756   12.2191   45.7085 Cl  0  0  0  0  0  0  0  0  0  0  0  0
    0.3230   21.9813   38.8104 H   0  0  0  0  0  0  0  0  0  0  0  0
    0.7136   21.2527   41.1908 H   0  0  0  0  0  0  0  0  0  0  0  0
    4.1931   16.3084   43.9902 H   0  0  0  0  0  0  0  0  0  0  0  0
    6.0215   15.0449   45.0101 H   0  0  0  0  0  0  0  0  0  0  0  0
    3.5374   11.5358   44.8131 H   0  0  0  0  0  0  0  0  0  0  0  0
    1.7598   12.8046   43.8149 H   0  0  0  0  0  0  0  0  0  0  0  0
    0.1520   13.7637   42.9595 H   0  0  0  0  0  0  0  0  0  0  0  0
    0.4248   17.2094   39.9255 H   0  0  0  0  0  0  0  0  0  0  0  0
    0.8343   19.5299   42.8235 H   0  0  0  0  0  0  0  0  0  0  0  0
  1  2  1  0
  1 19  1  0
  1 20  2  0
  2  3  1  0
  2 16  2  0
  3  4  2  0
  4  5  1  0
  5 15  2  0
  5 17  1  0
  6 17  1  0
  6 18  2  0
  6 22  1  0
  7  8  1  0
  7 14  2  0
  7 18  1  0
  8  9  1  0
  8 13  2  0
  9 10  2  0
 10 11  1  0
 11 12  2  0
 11 23  1  0
 12 13  1  0
 14 22  1  0
 15 16  1  0
 16 21  1  0
  3 24  1  0
  4 25  1  0
  9 26  1  0
 10 27  1  0
 12 28  1  0
 13 29  1  0
 14 30  1  0
 15 31  1  0
 17 32  1  0
M  CHG  2  19  -1  21  -1
M  END
>  <mol_id>  (56) 
2026-08-23-6tgu-s0-n100-r7-0056

>  <rmsd_to_ref>  (56) 
2.9795918367391296

$$$$
6tgu.A
     RDKit          3D

 32 34  0  0  0  0  0  0  0  0999 V2000
    5.9214   18.1134   38.0645 C   0  0  0  0  0  0  0  0  0  0  0  0
    5.0254   18.5427   39.2296 C   0  0  0  0  0  0  0  0  0  0  0  0
    4.9655   19.8784   39.6209 C   0  0  0  0  0  0  0  0  0  0  0  0
    4.0243   20.3385   40.5477 C   0  0  0  0  0  0  0  0  0  0  0  0
    3.2203   19.4264   41.2466 C   0  0  0  0  0  0  0  0  0  0  0  0
    1.0532   19.2949   42.5694 C   0  0  0  0  0  0  0  0  0  0  0  0
   -0.4990   17.6525   42.8313 C   0  0  0  0  0  0  0  0  0  0  0  0
   -1.0263   16.2929   42.7106 C   0  0  0  0  0  0  0  0  0  0  0  0
   -2.3367   15.9675   43.0887 C   0  0  0  0  0  0  0  0  0  0  0  0
   -2.8288   14.6753   42.9340 C   0  0  0  0  0  0  0  0  0  0  0  0
   -2.0137   13.7200   42.3566 C   0  0  0  0  0  0  0  0  0  0  0  0
   -0.7137   13.9998   41.9632 C   0  0  0  0  0  0  0  0  0  0  0  0
   -0.2359   15.2958   42.1367 C   0  0  0  0  0  0  0  0  0  0  0  0
   -1.2132   18.7092   43.3309 C   0  0  0  0  0  0  0  0  0  0  0  0
    3.2604   18.0800   40.8574 C   0  0  0  0  0  0  0  0  0  0  0  0
    4.1577   17.6668   39.8709 C   0  0  0  0  0  0  0  0  0  0  0  0
    2.2108   19.8835   42.1485 N   0  0  0  0  0  0  0  0  0  0  0  0
    0.7728   17.9722   42.3000 N   0  0  0  0  0  0  0  0  0  0  0  0
    6.4556   19.0426   37.3904 O   0  0  0  0  0  0  0  0  0  0  0  0
    5.9890   16.8883   37.8228 O   0  0  0  0  0  0  0  0  0  0  0  0
    4.1159   16.3674   39.4240 O   0  0  0  0  0  0  0  0  0  0  0  0
   -0.3442   20.1848   43.1429 S   0  0  0  0  0  0  0  0  0  0  0  0
   -2.6266   12.1169   42.1201 Cl  0  0  0  0  0  0  0  0  0  0  0  0
    5.6804   20.5933   39.1876 H   0  0  0  0  0  0  0  0  0  0  0  0
    3.9146   21.4179   40.7287 H   0  0  0  0  0  0  0  0  0  0  0  0
   -2.9862   16.7465   43.5145 H   0  0  0  0  0  0  0  0  0  0  0  0
   -3.8462   14.4191   43.2646 H   0  0  0  0  0  0  0  0  0  0  0  0
   -0.0763   13.2176   41.5251 H   0  0  0  0  0  0  0  0  0  0  0  0
    0.7872   15.5395   41.8144 H   0  0  0  0  0  0  0  0  0  0  0  0
   -2.2090   18.6266   43.7909 H   0  0  0  0  0  0  0  0  0  0  0  0
    2.5857   17.3501   41.3287 H   0  0  0  0  0  0  0  0  0  0  0  0
    2.3865   20.8159   42.5494 H   0  0  0  0  0  0  0  0  0  0  0  0
  1  2  1  0
  1 19  1  0
  1 20  2  0
  2  3  1  0
  2 16  2  0
  3  4  2  0
  4  5  1  0
  5 15  2  0
  5 17  1  0
  6 17  1  0
  6 18  2  0
  6 22  1  0
  7  8  1  0
  7 14  2  0
  7 18  1  0
  8  9  1  0
  8 13  2  0
  9 10  2  0
 10 11  1  0
 11 12  2  0
 11 23  1  0
 12 13  1  0
 14 22  1  0
 15 16  1  0
 16 21  1  0
  3 24  1  0
  4 25  1  0
  9 26  1  0
 10 27  1  0
 12 28  1  0
 13 29  1  0
 14 30  1  0
 15 31  1  0
 17 32  1  0
M  CHG  2  19  -1  21  -1
M  END
>  <mol_id>  (57) 
2026-08-23-6tgu-s0-n100-r7-0057

>  <rmsd_to_ref>  (57) 
3.0255102040890183

$$$$
6tgu.A
     RDKit          3D

 32 34  0  0  0  0  0  0  0  0999 V2000
    2.7248   20.5673   36.0791 C   0  0  0  0  0  0  0  0  0  0  0  0
    2.5874   19.8559   37.3462 C   0  0  0  0  0  0  0  0  0  0  0  0
    1.3867   19.8226   38.0029 C   0  0  0  0  0  0  0  0  0  0  0  0
    1.2900   19.1337   39.2141 C   0  0  0  0  0  0  0  0  0  0  0  0
    2.3365   18.4802   39.7924 C   0  0  0  0  0  0  0  0  0  0  0  0
    1.2438   17.1896   41.6445 C   0  0  0  0  0  0  0  0  0  0  0  0
   -0.0510   16.0899   43.1697 C   0  0  0  0  0  0  0  0  0  0  0  0
   -0.1416   15.3718   44.4431 C   0  0  0  0  0  0  0  0  0  0  0  0
    0.9557   15.1506   45.2466 C   0  0  0  0  0  0  0  0  0  0  0  0
    0.8656   14.4749   46.4462 C   0  0  0  0  0  0  0  0  0  0  0  0
   -0.3516   13.9969   46.8743 C   0  0  0  0  0  0  0  0  0  0  0  0
   -1.4787   14.2107   46.0741 C   0  0  0  0  0  0  0  0  0  0  0  0
   -1.3503   14.8903   44.8812 C   0  0  0  0  0  0  0  0  0  0  0  0
   -1.1887   16.2995   42.3595 C   0  0  0  0  0  0  0  0  0  0  0  0
    3.5516   18.5382   39.0872 C   0  0  0  0  0  0  0  0  0  0  0  0
    3.6561   19.2122   37.8980 C   0  0  0  0  0  0  0  0  0  0  0  0
    2.3240   17.7526   40.9866 N   0  0  0  0  0  0  0  0  0  0  0  0
    1.0431   16.5852   42.6742 N   0  0  0  0  0  0  0  0  0  0  0  0
    1.6319   21.2241   35.5111 O   0  0  0  0  0  0  0  0  0  0  0  0
    3.8528   20.5731   35.5123 O   0  0  0  0  0  0  0  0  0  0  0  0
    4.8766   19.2597   37.2084 O   0  0  0  0  0  0  0  0  0  0  0  0
   -0.5031   17.2235   40.9269 S   0  0  0  0  0  0  0  0  0  0  0  0
   -0.5131   13.1243   48.4071 Cl  0  0  0  0  0  0  0  0  0  0  0  0
    0.5360   20.3303   37.5721 H   0  0  0  0  0  0  0  0  0  0  0  0
    0.3237   19.1562   39.6813 H   0  0  0  0  0  0  0  0  0  0  0  0
    1.9169   15.5128   44.9357 H   0  0  0  0  0  0  0  0  0  0  0  0
    1.7362   14.2997   47.0831 H   0  0  0  0  0  0  0  0  0  0  0  0
   -2.4470   13.8501   46.3797 H   0  0  0  0  0  0  0  0  0  0  0  0
   -2.2501   15.0343   44.2901 H   0  0  0  0  0  0  0  0  0  0  0  0
   -2.2591   16.0131   42.4824 H   0  0  0  0  0  0  0  0  0  0  0  0
    4.4442   18.0531   39.4598 H   0  0  0  0  0  0  0  0  0  0  0  0
    3.2738   17.6110   41.4630 H   0  0  0  0  0  0  0  0  0  0  0  0
  1  2  1  0
  1 19  1  0
  1 20  2  0
  2  3  1  0
  2 16  2  0
  3  4  2  0
  4  5  1  0
  5 15  2  0
  5 17  1  0
  6 17  1  0
  6 18  2  0
  6 22  1  0
  7  8  1  0
  7 14  2  0
  7 18  1  0
  8  9  1  0
  8 13  2  0
  9 10  2  0
 10 11  1  0
 11 12  2  0
 11 23  1  0
 12 13  1  0
 14 22  1  0
 15 16  1  0
 16 21  1  0
  3 24  1  0
  4 25  1  0
  9 26  1  0
 10 27  1  0
 12 28  1  0
 13 29  1  0
 14 30  1  0
 15 31  1  0
 17 32  1  0
M  CHG  2  19  -1  21  -1
M  END
>  <mol_id>  (58) 
2026-08-23-6tgu-s0-n100-r7-0058

>  <rmsd_to_ref>  (58) 
3.071428571430059

$$$$
6tgu.A
     RDKit          3D

 32 34  0  0  0  0  0  0  0  0999 V2000
    2.6963   17.3711   36.4171 C   0  0  0  0  0  0  0  0  0  0  0  0
    1.9397   17.8430   37.6619 C   0  0  0  0  0  0  0  0  0  0  0  0
    0.7055   18.4776   37.5411 C   0  0  0  0  0  0  0  0  0  0  0  0
   -0.1000   18.7513   38.6514 C   0  0  0  0  0  0  0  0  0  0  0  0
    0.3957   18.5493   39.9477 C   0  0  0  0  0  0  0  0  0  0  0  0
   -0.3845   18.2322   42.3465 C   0  0  0  0  0  0  0  0  0  0  0  0
    0.4565   17.0528   44.1008 C   0  0  0  0  0  0  0  0  0  0  0  0
    1.4680   16.2691   44.8105 C   0  0  0  0  0  0  0  0  0  0  0  0
    1.2161   15.6894   46.0621 C   0  0  0  0  0  0  0  0  0  0  0  0
    2.1810   14.9197   46.7042 C   0  0  0  0  0  0  0  0  0  0  0  0
    3.3857   14.6971   46.0642 C   0  0  0  0  0  0  0  0  0  0  0  0
    3.6744   15.2463   44.8240 C   0  0  0  0  0  0  0  0  0  0  0  0
    2.7002   16.0230   44.2028 C   0  0  0  0  0  0  0  0  0  0  0  0
   -0.7985   17.3045   44.5888 C   0  0  0  0  0  0  0  0  0  0  0  0
    1.6314   17.9015   40.0869 C   0  0  0  0  0  0  0  0  0  0  0  0
    2.3754   17.5700   38.9531 C   0  0  0  0  0  0  0  0  0  0  0  0
   -0.4359   18.7629   41.0897 N   0  0  0  0  0  0  0  0  0  0  0  0
    0.6961   17.4922   42.7773 N   0  0  0  0  0  0  0  0  0  0  0  0
    2.0720   17.4372   35.3176 O   0  0  0  0  0  0  0  0  0  0  0  0
    3.8346   16.8852   36.5959 O   0  0  0  0  0  0  0  0  0  0  0  0
    3.5335   16.8433   39.0962 O   0  0  0  0  0  0  0  0  0  0  0  0
   -1.7742   18.0893   43.4055 S   0  0  0  0  0  0  0  0  0  0  0  0
    4.5813   13.7070   46.8333 Cl  0  0  0  0  0  0  0  0  0  0  0  0
    0.3534   18.7727   36.5416 H   0  0  0  0  0  0  0  0  0  0  0  0
   -1.1242   19.1257   38.5076 H   0  0  0  0  0  0  0  0  0  0  0  0
    0.2397   15.8458   46.5442 H   0  0  0  0  0  0  0  0  0  0  0  0
    1.9890   14.4967   47.7013 H   0  0  0  0  0  0  0  0  0  0  0  0
    4.6485   15.0727   44.3433 H   0  0  0  0  0  0  0  0  0  0  0  0
    2.9061   16.4521   43.2111 H   0  0  0  0  0  0  0  0  0  0  0  0
   -1.1381   17.0407   45.6013 H   0  0  0  0  0  0  0  0  0  0  0  0
    2.0142   17.6549   41.0882 H   0  0  0  0  0  0  0  0  0  0  0  0
   -1.2051   19.4310   40.9392 H   0  0  0  0  0  0  0  0  0  0  0  0
  1  2  1  0
  1 19  1  0
  1 20  2  0
  2  3  1  0
  2 16  2  0
  3  4  2  0
  4  5  1  0
  5 15  2  0
  5 17  1  0
  6 17  1  0
  6 18  2  0
  6 22  1  0
  7  8  1  0
  7 14  2  0
  7 18  1  0
  8  9  1  0
  8 13  2  0
  9 10  2  0
 10 11  1  0
 11 12  2  0
 11 23  1  0
 12 13  1  0
 14 22  1  0
 15 16  1  0
 16 21  1  0
  3 24  1  0
  4 25  1  0
  9 26  1  0
 10 27  1  0
 12 28  1  0
 13 29  1  0
 14 30  1  0
 15 31  1  0
 17 32  1  0
M  CHG  2  19  -1  21  -1
M  END
>  <mol_id>  (59) 
2026-08-23-6tgu-s0-n100-r7-0059

>  <rmsd_to_ref>  (59) 
3.117346938777479

$$$$
6tgu.A
     RDKit          3D

 32 34  0  0  0  0  0  0  0  0999 V2000
    6.6762   19.3905   38.7372 C   0  0  0  0  0  0  0  0  0  0  0  0
    5.2927   19.1251   39.1563 C   0  0  0  0  0  0  0  0  0  0  0  0
    4.3999   20.1835   39.3722 C   0  0  0  0  0  0  0  0  0  0  0  0
    3.1051   19.9039   39.7689 C   0  0  0  0  0  0  0  0  0  0  0  0
    2.6529   18.6119   39.9621 C   0  0  0  0  0  0  0  0  0  0  0  0
    0.8928   17.1488   40.9572 C   0  0  0  0  0  0  0  0  0  0  0  0
    0.0854   15.1992   41.7319 C   0  0  0  0  0  0  0  0  0  0  0  0
   -0.9232   14.1553   41.6195 C   0  0  0  0  0  0  0  0  0  0  0  0
   -0.8869   13.0691   42.4922 C   0  0  0  0  0  0  0  0  0  0  0  0
   -1.8217   12.0484   42.4293 C   0  0  0  0  0  0  0  0  0  0  0  0
   -2.8108   12.1037   41.4860 C   0  0  0  0  0  0  0  0  0  0  0  0
   -2.8809   13.1695   40.5998 C   0  0  0  0  0  0  0  0  0  0  0  0
   -1.9370   14.1547   40.6967 C   0  0  0  0  0  0  0  0  0  0  0  0
    1.0827   15.1746   42.6737 C   0  0  0  0  0  0  0  0  0  0  0  0
    3.5273   17.5710   39.7503 C   0  0  0  0  0  0  0  0  0  0  0  0
    4.8401   17.8151   39.3501 C   0  0  0  0  0  0  0  0  0  0  0  0
    1.2938   18.4258   40.3554 N   0  0  0  0  0  0  0  0  0  0  0  0
    0.1616   16.2704   40.9664 N   0  0  0  0  0  0  0  0  0  0  0  0
    7.0778   20.6971   38.5684 O   0  0  0  0  0  0  0  0  0  0  0  0
    7.4064   18.3847   38.5602 O   0  0  0  0  0  0  0  0  0  0  0  0
    5.7498   16.7887   39.1286 O   0  0  0  0  0  0  0  0  0  0  0  0
    2.0803   16.6879   42.4139 S   0  0  0  0  0  0  0  0  0  0  0  0
   -3.9739   10.7926   41.4390 Cl  0  0  0  0  0  0  0  0  0  0  0  0
    4.7188   21.2281   39.2336 H   0  0  0  0  0  0  0  0  0  0  0  0
    2.4522   20.7712   39.9255 H   0  0  0  0  0  0  0  0  0  0  0  0
   -0.1028   12.9924   43.2666 H   0  0  0  0  0  0  0  0  0  0  0  0
   -1.7261   11.2297   43.1482 H   0  0  0  0  0  0  0  0  0  0  0  0
   -3.6720   13.2198   39.8391 H   0  0  0  0  0  0  0  0  0  0  0  0
   -2.0189   14.9813   39.9868 H   0  0  0  0  0  0  0  0  0  0  0  0
    1.3357   14.4156   43.5045 H   0  0  0  0  0  0  0  0  0  0  0  0
    3.1859   16.5623   39.8975 H   0  0  0  0  0  0  0  0  0  0  0  0
    0.5903   19.1531   40.2321 H   0  0  0  0  0  0  0  0  0  0  0  0
  1  2  1  0
  1 19  1  0
  1 20  2  0
  2  3  1  0
  2 16  2  0
  3  4  2  0
  4  5  1  0
  5 15  2  0
  5 17  1  0
  6 17  1  0
  6 18  2  0
  6 22  1  0
  7  8  1  0
  7 14  2  0
  7 18  1  0
  8  9  1  0
  8 13  2  0
  9 10  2  0
 10 11  1  0
 11 12  2  0
 11 23  1  0
 12 13  1  0
 14 22  1  0
 15 16  1  0
 16 21  1  0
  3 24  1  0
  4 25  1  0
  9 26  1  0
 10 27  1  0
 12 28  1  0
 13 29  1  0
 14 30  1  0
 15 31  1  0
 17 32  1  0
M  CHG  2  19  -1  21  -1
M  END
>  <mol_id>  (60) 
2026-08-23-6tgu-s0-n100-r7-0060

>  <rmsd_to_ref>  (60) 
3.163265306122915

$$$$
6tgu.A
     RDKit          3D

 32 34  0  0  0  0  0  0  0  0999 V2000
    1.2768   21.8298   39.4616 C   0  0  0  0  0  0  0  0  0  0  0  0
    1.4492   20.6095   40.3704 C   0  0  0  0  0  0  0  0  0  0  0  0
    1.5131   20.7613   41.7537 C   0  0  0  0  0  0  0  0  0  0  0  0
    1.4790   19.6657   42.6226 C   0  0  0  0  0  0  0  0  0  0  0  0
    1.5560   18.3610   42.1141 C   0  0  0  0  0  0  0  0  0  0  0  0
    1.0510   15.9500   42.7429 C   0  0  0  0  0  0  0  0  0  0  0  0
    0.4007   14.1406   41.5269 C   0  0  0  0  0  0  0  0  0  0  0  0
    0.1351   13.3936   40.2970 C   0  0  0  0  0  0  0  0  0  0  0  0
   -0.4416   12.1156   40.3134 C   0  0  0  0  0  0  0  0  0  0  0  0
   -0.7166   11.4368   39.1304 C   0  0  0  0  0  0  0  0  0  0  0  0
   -0.4509   12.0649   37.9282 C   0  0  0  0  0  0  0  0  0  0  0  0
    0.1136   13.3300   37.8660 C   0  0  0  0  0  0  0  0  0  0  0  0
    0.3920   13.9882   39.0607 C   0  0  0  0  0  0  0  0  0  0  0  0
    0.1342   13.6658   42.7839 C   0  0  0  0  0  0  0  0  0  0  0  0
    1.4815   18.1903   40.7243 C   0  0  0  0  0  0  0  0  0  0  0  0
    1.4366   19.3066   39.8871 C   0  0  0  0  0  0  0  0  0  0  0  0
    1.4578   17.2309   42.9827 N   0  0  0  0  0  0  0  0  0  0  0  0
    0.8414   15.4836   41.4626 N   0  0  0  0  0  0  0  0  0  0  0  0
    1.0318   22.9315   40.0355 O   0  0  0  0  0  0  0  0  0  0  0  0
    1.3113   21.6274   38.2281 O   0  0  0  0  0  0  0  0  0  0  0  0
    1.2585   19.1282   38.5357 O   0  0  0  0  0  0  0  0  0  0  0  0
    0.3947   14.8859   43.9719 S   0  0  0  0  0  0  0  0  0  0  0  0
   -0.8260   11.2484   36.4469 Cl  0  0  0  0  0  0  0  0  0  0  0  0
    1.5929   21.7740   42.1757 H   0  0  0  0  0  0  0  0  0  0  0  0
    1.3916   19.8278   43.7071 H   0  0  0  0  0  0  0  0  0  0  0  0
   -0.6803   11.6420   41.2771 H   0  0  0  0  0  0  0  0  0  0  0  0
   -1.1371   10.4205   39.1515 H   0  0  0  0  0  0  0  0  0  0  0  0
    0.3357   13.8014   36.8973 H   0  0  0  0  0  0  0  0  0  0  0  0
    0.8240   14.9993   39.0296 H   0  0  0  0  0  0  0  0  0  0  0  0
   -0.2015   12.6420   43.0052 H   0  0  0  0  0  0  0  0  0  0  0  0
    1.4585   17.1781   40.2943 H   0  0  0  0  0  0  0  0  0  0  0  0
    1.7425   17.4138   43.9556 H   0  0  0  0  0  0  0  0  0  0  0  0
  1  2  1  0
  1 19  1  0
  1 20  2  0
  2  3  1  0
  2 16  2  0
  3  4  2  0
  4  5  1  0
  5 15  2  0
  5 17  1  0
  6 17  1  0
  6 18  2  0
  6 22  1  0
  7  8  1  0
  7 14  2  0
  7 18  1  0
  8  9  1  0
  8 13  2  0
  9 10  2  0
 10 11  1  0
 11 12  2  0
 11 23  1  0
 12 13  1  0
 14 22  1  0
 15 16  1  0
 16 21  1  0
  3 24  1  0
  4 25  1  0
  9 26  1  0
 10 27  1  0
 12 28  1  0
 13 29  1  0
 14 30  1  0
 15 31  1  0
 17 32  1  0
M  CHG  2  19  -1  21  -1
M  END
>  <mol_id>  (61) 
2026-08-23-6tgu-s0-n100-r7-0061

>  <rmsd_to_ref>  (61) 
3.2091836734764345

$$$$
6tgu.A
     RDKit          3D

 32 34  0  0  0  0  0  0  0  0999 V2000
    3.7317   21.0631   40.2762 C   0  0  0  0  0  0  0  0  0  0  0  0
    2.8425   20.1902   41.0325 C   0  0  0  0  0  0  0  0  0  0  0  0
    2.4845   20.5059   42.3211 C   0  0  0  0  0  0  0  0  0  0  0  0
    1.6455   19.6799   43.0313 C   0  0  0  0  0  0  0  0  0  0  0  0
    1.1222   18.4981   42.4910 C   0  0  0  0  0  0  0  0  0  0  0  0
   -0.2930   16.4725   42.7573 C   0  0  0  0  0  0  0  0  0  0  0  0
   -0.8811   14.6969   41.4923 C   0  0  0  0  0  0  0  0  0  0  0  0
   -0.7876   13.9707   40.2076 C   0  0  0  0  0  0  0  0  0  0  0  0
   -1.4669   12.7886   40.0266 C   0  0  0  0  0  0  0  0  0  0  0  0
   -1.3865   12.1020   38.8303 C   0  0  0  0  0  0  0  0  0  0  0  0
   -0.6256   12.5807   37.7880 C   0  0  0  0  0  0  0  0  0  0  0  0
    0.0596   13.7599   37.9513 C   0  0  0  0  0  0  0  0  0  0  0  0
   -0.0347   14.4337   39.1605 C   0  0  0  0  0  0  0  0  0  0  0  0
   -1.6621   14.2104   42.5693 C   0  0  0  0  0  0  0  0  0  0  0  0
    1.5053   18.2174   41.1965 C   0  0  0  0  0  0  0  0  0  0  0  0
    2.3500   19.0368   40.4636 C   0  0  0  0  0  0  0  0  0  0  0  0
    0.2730   17.6886   43.2491 N   0  0  0  0  0  0  0  0  0  0  0  0
   -0.2797   15.8119   41.7537 N   0  0  0  0  0  0  0  0  0  0  0  0
    4.2246   22.2227   40.8534 O   0  0  0  0  0  0  0  0  0  0  0  0
    4.0402   20.7432   39.0956 O   0  0  0  0  0  0  0  0  0  0  0  0
    2.7113   18.7244   39.1723 O   0  0  0  0  0  0  0  0  0  0  0  0
   -1.3919   15.5003   43.8490 S   0  0  0  0  0  0  0  0  0  0  0  0
   -0.4996   11.7420   36.2628 Cl  0  0  0  0  0  0  0  0  0  0  0  0
    2.8695   21.4073   42.7655 H   0  0  0  0  0  0  0  0  0  0  0  0
    1.3978   19.9812   44.0450 H   0  0  0  0  0  0  0  0  0  0  0  0
   -2.0779   12.3894   40.8416 H   0  0  0  0  0  0  0  0  0  0  0  0
   -1.9411   11.1668   38.7265 H   0  0  0  0  0  0  0  0  0  0  0  0
    0.6811   14.2068   37.1822 H   0  0  0  0  0  0  0  0  0  0  0  0
    0.5088   15.3637   39.2823 H   0  0  0  0  0  0  0  0  0  0  0  0
   -2.2490   13.3655   42.6727 H   0  0  0  0  0  0  0  0  0  0  0  0
    1.1548   17.3348   40.7006 H   0  0  0  0  0  0  0  0  0  0  0  0
    0.0520   18.0135   44.2352 H   0  0  0  0  0  0  0  0  0  0  0  0
  1  2  1  0
  1 19  1  0
  1 20  2  0
  2  3  1  0
  2 16  2  0
  3  4  2  0
  4  5  1  0
  5 15  2  0
  5 17  1  0
  6 17  1  0
  6 18  2  0
  6 22  1  0
  7  8  1  0
  7 14  2  0
  7 18  1  0
  8  9  1  0
  8 13  2  0
  9 10  2  0
 10 11  1  0
 11 12  2  0
 11 23  1  0
 12 13  1  0
 14 22  1  0
 15 16  1  0
 16 21  1  0
  3 24  1  0
  4 25  1  0
  9 26  1  0
 10 27  1  0
 12 28  1  0
 13 29  1  0
 14 30  1  0
 15 31  1  0
 17 32  1  0
M  CHG  2  19  -1  21  -1
M  END
>  <mol_id>  (62) 
2026-08-23-6tgu-s0-n100-r7-0062

>  <rmsd_to_ref>  (62) 
3.2551020408203817

$$$$
6tgu.A
     RDKit          3D

 32 34  0  0  0  0  0  0  0  0999 V2000
    4.3001   16.6265   36.4051 C   0  0  0  0  0  0  0  0  0  0  0  0
    4.0184   17.4598   37.6585 C   0  0  0  0  0  0  0  0  0  0  0  0
    4.0189   18.8516   37.5974 C   0  0  0  0  0  0  0  0  0  0  0  0
    3.5828   19.6414   38.6662 C   0  0  0  0  0  0  0  0  0  0  0  0
    3.2941   19.0517   39.9055 C   0  0  0  0  0  0  0  0  0  0  0  0
    2.0256   19.4861   42.0655 C   0  0  0  0  0  0  0  0  0  0  0  0
    0.9467   18.1148   43.5253 C   0  0  0  0  0  0  0  0  0  0  0  0
    0.5601   16.8240   44.0957 C   0  0  0  0  0  0  0  0  0  0  0  0
   -0.3809   16.7203   45.1301 C   0  0  0  0  0  0  0  0  0  0  0  0
   -0.7591   15.4801   45.6350 C   0  0  0  0  0  0  0  0  0  0  0  0
   -0.2213   14.3407   45.0667 C   0  0  0  0  0  0  0  0  0  0  0  0
    0.7077   14.3972   44.0387 C   0  0  0  0  0  0  0  0  0  0  0  0
    1.0819   15.6478   43.5550 C   0  0  0  0  0  0  0  0  0  0  0  0
    0.4510   19.3191   43.9502 C   0  0  0  0  0  0  0  0  0  0  0  0
    3.2782   17.6517   39.9811 C   0  0  0  0  0  0  0  0  0  0  0  0
    3.6433   16.8902   38.8694 C   0  0  0  0  0  0  0  0  0  0  0  0
    2.7867   19.8351   40.9872 N   0  0  0  0  0  0  0  0  0  0  0  0
    1.7824   18.1671   42.3847 N   0  0  0  0  0  0  0  0  0  0  0  0
    4.3619   17.2576   35.3092 O   0  0  0  0  0  0  0  0  0  0  0  0
    4.3657   15.3864   36.5518 O   0  0  0  0  0  0  0  0  0  0  0  0
    3.5239   15.5217   38.9218 O   0  0  0  0  0  0  0  0  0  0  0  0
    0.9814   20.5997   42.9273 S   0  0  0  0  0  0  0  0  0  0  0  0
   -0.7136   12.7882   45.6575 Cl  0  0  0  0  0  0  0  0  0  0  0  0
    4.3732   19.3446   36.6801 H   0  0  0  0  0  0  0  0  0  0  0  0
    3.4660   20.7272   38.5345 H   0  0  0  0  0  0  0  0  0  0  0  0
   -0.8273   17.6341   45.5492 H   0  0  0  0  0  0  0  0  0  0  0  0
   -1.4718   15.4079   46.4697 H   0  0  0  0  0  0  0  0  0  0  0  0
    1.1381   13.4772   43.6163 H   0  0  0  0  0  0  0  0  0  0  0  0
    1.8048   15.7104   42.7282 H   0  0  0  0  0  0  0  0  0  0  0  0
   -0.1991   19.4508   44.8277 H   0  0  0  0  0  0  0  0  0  0  0  0
    2.9785   17.1540   40.9152 H   0  0  0  0  0  0  0  0  0  0  0  0
    3.0378   20.8332   40.9465 H   0  0  0  0  0  0  0  0  0  0  0  0
  1  2  1  0
  1 19  1  0
  1 20  2  0
  2  3  1  0
  2 16  2  0
  3  4  2  0
  4  5  1  0
  5 15  2  0
  5 17  1  0
  6 17  1  0
  6 18  2  0
  6 22  1  0
  7  8  1  0
  7 14  2  0
  7 18  1  0
  8  9  1  0
  8 13  2  0
  9 10  2  0
 10 11  1  0
 11 12  2  0
 11 23  1  0
 12 13  1  0
 14 22  1  0
 15 16  1  0
 16 21  1  0
  3 24  1  0
  4 25  1  0
  9 26  1  0
 10 27  1  0
 12 28  1  0
 13 29  1  0
 14 30  1  0
 15 31  1  0
 17 32  1  0
M  CHG  2  19  -1  21  -1
M  END
>  <mol_id>  (63) 
2026-08-23-6tgu-s0-n100-r7-0063

>  <rmsd_to_ref>  (63) 
3.301020408170136

$$$$
6tgu.A
     RDKit          3D

 32 34  0  0  0  0  0  0  0  0999 V2000
    0.7138   17.9991   34.6491 C   0  0  0  0  0  0  0  0  0  0  0  0
    0.6179   18.1721   36.0901 C   0  0  0  0  0  0  0  0  0  0  0  0
    1.4136   17.4690   36.9831 C   0  0  0  0  0  0  0  0  0  0  0  0
    1.2920   17.6628   38.3608 C   0  0  0  0  0  0  0  0  0  0  0  0
    0.3643   18.5695   38.8472 C   0  0  0  0  0  0  0  0  0  0  0  0
    1.0971   18.0554   41.1340 C   0  0  0  0  0  0  0  0  0  0  0  0
    2.1228   16.5994   42.5134 C   0  0  0  0  0  0  0  0  0  0  0  0
    2.1120   15.2941   43.2049 C   0  0  0  0  0  0  0  0  0  0  0  0
    1.0649   14.4064   43.0676 C   0  0  0  0  0  0  0  0  0  0  0  0
    1.1038   13.1856   43.7418 C   0  0  0  0  0  0  0  0  0  0  0  0
    2.1471   12.8222   44.5446 C   0  0  0  0  0  0  0  0  0  0  0  0
    3.1922   13.7003   44.6860 C   0  0  0  0  0  0  0  0  0  0  0  0
    3.1508   14.9151   44.0135 C   0  0  0  0  0  0  0  0  0  0  0  0
    3.2016   17.5016   42.6582 C   0  0  0  0  0  0  0  0  0  0  0  0
   -0.4300   19.2718   37.9626 C   0  0  0  0  0  0  0  0  0  0  0  0
   -0.3026   19.0726   36.5863 C   0  0  0  0  0  0  0  0  0  0  0  0
    0.2426   18.7655   40.2575 N   0  0  0  0  0  0  0  0  0  0  0  0
    1.1888   17.0429   41.7309 N   0  0  0  0  0  0  0  0  0  0  0  0
    1.6360   17.0941   34.1150 O   0  0  0  0  0  0  0  0  0  0  0  0
   -0.0563   18.6889   33.9339 O   0  0  0  0  0  0  0  0  0  0  0  0
   -1.1444   19.8243   35.7759 O   0  0  0  0  0  0  0  0  0  0  0  0
    2.7494   18.8957   41.6463 S   0  0  0  0  0  0  0  0  0  0  0  0
    2.2018   11.2835   45.3971 Cl  0  0  0  0  0  0  0  0  0  0  0  0
    2.1495   16.7497   36.6055 H   0  0  0  0  0  0  0  0  0  0  0  0
    1.9383   17.0889   39.0363 H   0  0  0  0  0  0  0  0  0  0  0  0
    0.2351   14.6792   42.4374 H   0  0  0  0  0  0  0  0  0  0  0  0
    0.2722   12.4708   43.6382 H   0  0  0  0  0  0  0  0  0  0  0  0
    4.0347   13.4542   45.3088 H   0  0  0  0  0  0  0  0  0  0  0  0
    3.9998   15.5623   44.1636 H   0  0  0  0  0  0  0  0  0  0  0  0
    4.1013   17.3795   43.2484 H   0  0  0  0  0  0  0  0  0  0  0  0
   -1.1701   19.9948   38.3404 H   0  0  0  0  0  0  0  0  0  0  0  0
   -0.4777   19.4314   40.6116 H   0  0  0  0  0  0  0  0  0  0  0  0
  1  2  1  0
  1 19  1  0
  1 20  2  0
  2  3  1  0
  2 16  2  0
  3  4  2  0
  4  5  1  0
  5 15  2  0
  5 17  1  0
  6 17  1  0
  6 18  2  0
  6 22  1  0
  7  8  1  0
  7 14  2  0
  7 18  1  0
  8  9  1  0
  8 13  2  0
  9 10  2  0
 10 11  1  0
 11 12  2  0
 11 23  1  0
 12 13  1  0
 14 22  1  0
 15 16  1  0
 16 21  1  0
  3 24  1  0
  4 25  1  0
  9 26  1  0
 10 27  1  0
 12 28  1  0
 13 29  1  0
 14 30  1  0
 15 31  1  0
 17 32  1  0
M  CHG  2  19  -1  21  -1
M  END
>  <mol_id>  (64) 
2026-08-23-6tgu-s0-n100-r7-0064

>  <rmsd_to_ref>  (64) 
3.3469387755125366

$$$$
6tgu.A
     RDKit          3D

 32 34  0  0  0  0  0  0  0  0999 V2000
    1.4066   16.6039   34.7405 C   0  0  0  0  0  0  0  0  0  0  0  0
    1.5014   17.4866   35.9881 C   0  0  0  0  0  0  0  0  0  0  0  0
    1.0207   18.7940   35.9678 C   0  0  0  0  0  0  0  0  0  0  0  0
    0.9156   19.5641   37.1307 C   0  0  0  0  0  0  0  0  0  0  0  0
    1.4602   19.0973   38.3358 C   0  0  0  0  0  0  0  0  0  0  0  0
    1.3086   19.4416   40.8502 C   0  0  0  0  0  0  0  0  0  0  0  0
    1.5656   18.0352   42.6198 C   0  0  0  0  0  0  0  0  0  0  0  0
    1.9400   16.7821   43.2760 C   0  0  0  0  0  0  0  0  0  0  0  0
    1.6959   16.5544   44.6379 C   0  0  0  0  0  0  0  0  0  0  0  0
    2.0295   15.3424   45.2343 C   0  0  0  0  0  0  0  0  0  0  0  0
    2.5692   14.3424   44.4474 C   0  0  0  0  0  0  0  0  0  0  0  0
    2.8218   14.5228   43.0959 C   0  0  0  0  0  0  0  0  0  0  0  0
    2.4916   15.7466   42.5201 C   0  0  0  0  0  0  0  0  0  0  0  0
    0.9712   19.0886   43.2629 C   0  0  0  0  0  0  0  0  0  0  0  0
    1.9379   17.7796   38.3762 C   0  0  0  0  0  0  0  0  0  0  0  0
    1.9553   17.0094   37.2119 C   0  0  0  0  0  0  0  0  0  0  0  0
    1.3050   19.8422   39.5451 N   0  0  0  0  0  0  0  0  0  0  0  0
    1.6899   18.1684   41.2166 N   0  0  0  0  0  0  0  0  0  0  0  0
    0.7313   17.0637   33.7732 O   0  0  0  0  0  0  0  0  0  0  0  0
    1.9328   15.4714   34.8060 O   0  0  0  0  0  0  0  0  0  0  0  0
    2.3270   15.6879   37.2842 O   0  0  0  0  0  0  0  0  0  0  0  0
    0.5027   20.3102   42.1422 S   0  0  0  0  0  0  0  0  0  0  0  0
    2.9516   12.8138   45.1675 Cl  0  0  0  0  0  0  0  0  0  0  0  0
    0.7143   19.2343   35.0074 H   0  0  0  0  0  0  0  0  0  0  0  0
    0.4049   20.5378   37.0999 H   0  0  0  0  0  0  0  0  0  0  0  0
    1.2333   17.3468   45.2446 H   0  0  0  0  0  0  0  0  0  0  0  0
    1.8669   15.1832   46.3105 H   0  0  0  0  0  0  0  0  0  0  0  0
    3.2717   13.7194   42.4941 H   0  0  0  0  0  0  0  0  0  0  0  0
    2.6694   15.9008   41.4456 H   0  0  0  0  0  0  0  0  0  0  0  0
    0.8139   19.1466   44.3500 H   0  0  0  0  0  0  0  0  0  0  0  0
    2.2984   17.3533   39.3239 H   0  0  0  0  0  0  0  0  0  0  0  0
    1.1668   20.8538   39.4090 H   0  0  0  0  0  0  0  0  0  0  0  0
  1  2  1  0
  1 19  1  0
  1 20  2  0
  2  3  1  0
  2 16  2  0
  3  4  2  0
  4  5  1  0
  5 15  2  0
  5 17  1  0
  6 17  1  0
  6 18  2  0
  6 22  1  0
  7  8  1  0
  7 14  2  0
  7 18  1  0
  8  9  1  0
  8 13  2  0
  9 10  2  0
 10 11  1  0
 11 12  2  0
 11 23  1  0
 12 13  1  0
 14 22  1  0
 15 16  1  0
 16 21  1  0
  3 24  1  0
  4 25  1  0
  9 26  1  0
 10 27  1  0
 12 28  1  0
 13 29  1  0
 14 30  1  0
 15 31  1  0
 17 32  1  0
M  CHG  2  19  -1  21  -1
M  END
>  <mol_id>  (65) 
2026-08-23-6tgu-s0-n100-r7-0065

>  <rmsd_to_ref>  (65) 
3.392857142858394

$$$$
6tgu.A
     RDKit          3D

 32 34  0  0  0  0  0  0  0  0999 V2000
    6.1607   21.4292   36.3707 C   0  0  0  0  0  0  0  0  0  0  0  0
    5.3527   20.3463   36.9114 C   0  0  0  0  0  0  0  0  0  0  0  0
    5.5356   19.8740   38.1900 C   0  0  0  0  0  0  0  0  0  0  0  0
    4.7403   18.8370   38.6743 C   0  0  0  0  0  0  0  0  0  0  0  0
    3.7572   18.2397   37.9361 C   0  0  0  0  0  0  0  0  0  0  0  0
    2.5088   16.8757   39.6479 C   0  0  0  0  0  0  0  0  0  0  0  0
    1.5603   15.8936   41.4355 C   0  0  0  0  0  0  0  0  0  0  0  0
    0.6721   14.8174   41.9346 C   0  0  0  0  0  0  0  0  0  0  0  0
    0.0696   13.9138   41.0801 C   0  0  0  0  0  0  0  0  0  0  0  0
   -0.7493   12.9366   41.5539 C   0  0  0  0  0  0  0  0  0  0  0  0
   -1.0203   12.7951   42.8950 C   0  0  0  0  0  0  0  0  0  0  0  0
   -0.4199   13.6965   43.7536 C   0  0  0  0  0  0  0  0  0  0  0  0
    0.4064   14.6817   43.2715 C   0  0  0  0  0  0  0  0  0  0  0  0
    2.1453   16.7905   42.2920 C   0  0  0  0  0  0  0  0  0  0  0  0
    3.5910   18.7396   36.6339 C   0  0  0  0  0  0  0  0  0  0  0  0
    4.3697   19.7628   36.1432 C   0  0  0  0  0  0  0  0  0  0  0  0
    2.8934   17.2163   38.3374 N   0  0  0  0  0  0  0  0  0  0  0  0
    1.8378   16.0710   40.1769 N   0  0  0  0  0  0  0  0  0  0  0  0
    7.1523   22.0209   37.1354 O   0  0  0  0  0  0  0  0  0  0  0  0
    5.9786   21.8513   35.2022 O   0  0  0  0  0  0  0  0  0  0  0  0
    4.1241   20.1887   34.8304 O   0  0  0  0  0  0  0  0  0  0  0  0
    3.0973   17.8707   41.1294 S   0  0  0  0  0  0  0  0  0  0  0  0
   -2.0621   11.5635   43.5497 Cl  0  0  0  0  0  0  0  0  0  0  0  0
    6.3089   20.3256   38.8101 H   0  0  0  0  0  0  0  0  0  0  0  0
    4.9541   18.5166   39.6768 H   0  0  0  0  0  0  0  0  0  0  0  0
    0.2582   13.9923   40.0213 H   0  0  0  0  0  0  0  0  0  0  0  0
   -1.2364   12.2109   40.8900 H   0  0  0  0  0  0  0  0  0  0  0  0
   -0.6204   13.6019   44.8057 H   0  0  0  0  0  0  0  0  0  0  0  0
    0.8476   15.3595   44.0077 H   0  0  0  0  0  0  0  0  0  0  0  0
    2.1391   16.9361   43.3361 H   0  0  0  0  0  0  0  0  0  0  0  0
    2.8276   18.3093   35.9928 H   0  0  0  0  0  0  0  0  0  0  0  0
    2.4732   16.6171   37.5784 H   0  0  0  0  0  0  0  0  0  0  0  0
  1  2  1  0
  1 19  1  0
  1 20  2  0
  2  3  1  0
  2 16  2  0
  3  4  2  0
  4  5  1  0
  5 15  2  0
  5 17  1  0
  6 17  1  0
  6 18  2  0
  6 22  1  0
  7  8  1  0
  7 14  2  0
  7 18  1  0
  8  9  1  0
  8 13  2  0
  9 10  2  0
 10 11  1  0
 11 12  2  0
 11 23  1  0
 12 13  1  0
 14 22  1  0
 15 16  1  0
 16 21  1  0
  3 24  1  0
  4 25  1  0
  9 26  1  0
 10 27  1  0
 12 28  1  0
 13 29  1  0
 14 30  1  0
 15 31  1  0
 17 32  1  0
M  CHG  2  19  -1  21  -1
M  END
>  <mol_id>  (66) 
2026-08-23-6tgu-s0-n100-r7-0066

>  <rmsd_to_ref>  (66) 
3.4387755102054154

$$$$
6tgu.A
     RDKit          3D

 32 34  0  0  0  0  0  0  0  0999 V2000
   -0.8595   17.3234   35.9492 C   0  0  0  0  0  0  0  0  0  0  0  0
   -0.6248   18.0201   37.2924 C   0  0  0  0  0  0  0  0  0  0  0  0
   -1.4208   19.0957   37.6798 C   0  0  0  0  0  0  0  0  0  0  0  0
   -1.3644   19.6338   38.9696 C   0  0  0  0  0  0  0  0  0  0  0  0
   -0.3701   19.2137   39.8650 C   0  0  0  0  0  0  0  0  0  0  0  0
    0.1756   19.1620   42.3475 C   0  0  0  0  0  0  0  0  0  0  0  0
    1.3342   17.6949   43.6438 C   0  0  0  0  0  0  0  0  0  0  0  0
    2.2150   16.5535   43.8945 C   0  0  0  0  0  0  0  0  0  0  0  0
    2.4740   16.0850   45.1904 C   0  0  0  0  0  0  0  0  0  0  0  0
    3.2880   14.9770   45.4040 C   0  0  0  0  0  0  0  0  0  0  0  0
    3.8060   14.3135   44.3077 C   0  0  0  0  0  0  0  0  0  0  0  0
    3.5707   14.7390   43.0090 C   0  0  0  0  0  0  0  0  0  0  0  0
    2.7630   15.8564   42.8165 C   0  0  0  0  0  0  0  0  0  0  0  0
    0.7075   18.4096   44.6301 C   0  0  0  0  0  0  0  0  0  0  0  0
    0.4321   18.1249   39.4949 C   0  0  0  0  0  0  0  0  0  0  0  0
    0.2954   17.5587   38.2261 C   0  0  0  0  0  0  0  0  0  0  0  0
   -0.3384   19.7062   41.2058 N   0  0  0  0  0  0  0  0  0  0  0  0
    0.9785   18.0417   42.3189 N   0  0  0  0  0  0  0  0  0  0  0  0
   -1.8979   17.6641   35.3098 O   0  0  0  0  0  0  0  0  0  0  0  0
   -0.0550   16.4205   35.6307 O   0  0  0  0  0  0  0  0  0  0  0  0
    1.0118   16.4282   37.9123 O   0  0  0  0  0  0  0  0  0  0  0  0
   -0.3941   19.5515   43.9591 S   0  0  0  0  0  0  0  0  0  0  0  0
    4.7879   12.9079   44.5566 Cl  0  0  0  0  0  0  0  0  0  0  0  0
   -2.1152   19.5354   36.9487 H   0  0  0  0  0  0  0  0  0  0  0  0
   -2.1015   20.3881   39.2824 H   0  0  0  0  0  0  0  0  0  0  0  0
    2.0264   16.6018   46.0521 H   0  0  0  0  0  0  0  0  0  0  0  0
    3.5147   14.6359   46.4249 H   0  0  0  0  0  0  0  0  0  0  0  0
    4.0112   14.2072   42.1527 H   0  0  0  0  0  0  0  0  0  0  0  0
    2.5520   16.1975   41.7923 H   0  0  0  0  0  0  0  0  0  0  0  0
    0.8841   18.2726   45.7072 H   0  0  0  0  0  0  0  0  0  0  0  0
    1.1683   17.7173   40.2034 H   0  0  0  0  0  0  0  0  0  0  0  0
   -0.7781   20.6289   41.3326 H   0  0  0  0  0  0  0  0  0  0  0  0
  1  2  1  0
  1 19  1  0
  1 20  2  0
  2  3  1  0
  2 16  2  0
  3  4  2  0
  4  5  1  0
  5 15  2  0
  5 17  1  0
  6 17  1  0
  6 18  2  0
  6 22  1  0
  7  8  1  0
  7 14  2  0
  7 18  1  0
  8  9  1  0
  8 13  2  0
  9 10  2  0
 10 11  1  0
 11 12  2  0
 11 23  1  0
 12 13  1  0
 14 22  1  0
 15 16  1  0
 16 21  1  0
  3 24  1  0
  4 25  1  0
  9 26  1  0
 10 27  1  0
 12 28  1  0
 13 29  1  0
 14 30  1  0
 15 31  1  0
 17 32  1  0
M  CHG  2  19  -1  21  -1
M  END
>  <mol_id>  (67) 
2026-08-23-6tgu-s0-n100-r7-0067

>  <rmsd_to_ref>  (67) 
3.484693877551078

$$$$
6tgu.A
     RDKit          3D

 32 34  0  0  0  0  0  0  0  0999 V2000
    3.8734   22.8110   41.2931 C   0  0  0  0  0  0  0  0  0  0  0  0
    3.1036   21.6314   41.6463 C   0  0  0  0  0  0  0  0  0  0  0  0
    3.0112   21.2341   42.9560 C   0  0  0  0  0  0  0  0  0  0  0  0
    2.2686   20.1175   43.2509 C   0  0  0  0  0  0  0  0  0  0  0  0
    1.6093   19.3751   42.2829 C   0  0  0  0  0  0  0  0  0  0  0  0
    0.2451   17.3792   41.6305 C   0  0  0  0  0  0  0  0  0  0  0  0
   -0.3370   15.6561   40.2945 C   0  0  0  0  0  0  0  0  0  0  0  0
   -0.1495   14.2361   39.9398 C   0  0  0  0  0  0  0  0  0  0  0  0
    0.7387   13.4201   40.6033 C   0  0  0  0  0  0  0  0  0  0  0  0
    0.9151   12.0904   40.2772 C   0  0  0  0  0  0  0  0  0  0  0  0
    0.1714   11.5625   39.2472 C   0  0  0  0  0  0  0  0  0  0  0  0
   -0.7260   12.3561   38.5647 C   0  0  0  0  0  0  0  0  0  0  0  0
   -0.8797   13.6775   38.9122 C   0  0  0  0  0  0  0  0  0  0  0  0
   -1.2120   16.4648   39.6514 C   0  0  0  0  0  0  0  0  0  0  0  0
    1.7349   19.8178   40.9805 C   0  0  0  0  0  0  0  0  0  0  0  0
    2.4676   20.9324   40.6298 C   0  0  0  0  0  0  0  0  0  0  0  0
    0.8405   18.2407   42.6198 N   0  0  0  0  0  0  0  0  0  0  0  0
    0.3248   16.2495   41.2648 N   0  0  0  0  0  0  0  0  0  0  0  0
    3.9845   23.2526   39.9731 O   0  0  0  0  0  0  0  0  0  0  0  0
    4.4917   23.5132   42.1534 O   0  0  0  0  0  0  0  0  0  0  0  0
    2.5784   21.3630   39.2953 O   0  0  0  0  0  0  0  0  0  0  0  0
   -1.0588   18.0835   40.4727 S   0  0  0  0  0  0  0  0  0  0  0  0
    0.3291    9.8771   38.7567 Cl  0  0  0  0  0  0  0  0  0  0  0  0
    3.5273   21.8158   43.6939 H   0  0  0  0  0  0  0  0  0  0  0  0
    2.1758   19.7720   44.2821 H   0  0  0  0  0  0  0  0  0  0  0  0
    1.3352   13.8155   41.4177 H   0  0  0  0  0  0  0  0  0  0  0  0
    1.6326   11.4613   40.8274 H   0  0  0  0  0  0  0  0  0  0  0  0
   -1.3315   11.9893   37.7518 H   0  0  0  0  0  0  0  0  0  0  0  0
   -1.6023   14.2973   38.3571 H   0  0  0  0  0  0  0  0  0  0  0  0
   -1.9423   16.2855   38.7670 H   0  0  0  0  0  0  0  0  0  0  0  0
    1.2471   19.2891   40.1666 H   0  0  0  0  0  0  0  0  0  0  0  0
    0.7026   18.0219   43.6376 H   0  0  0  0  0  0  0  0  0  0  0  0
  1  2  1  0
  1 19  1  0
  1 20  2  0
  2  3  1  0
  2 16  2  0
  3  4  2  0
  4  5  1  0
  5 15  2  0
  5 17  1  0
  6 17  1  0
  6 18  2  0
  6 22  1  0
  7  8  1  0
  7 14  2  0
  7 18  1  0
  8  9  1  0
  8 13  2  0
  9 10  2  0
 10 11  1  0
 11 12  2  0
 11 23  1  0
 12 13  1  0
 14 22  1  0
 15 16  1  0
 16 21  1  0
  3 24  1  0
  4 25  1  0
  9 26  1  0
 10 27  1  0
 12 28  1  0
 13 29  1  0
 14 30  1  0
 15 31  1  0
 17 32  1  0
M  CHG  2  19  -1  21  -1
M  END
>  <mol_id>  (68) 
2026-08-23-6tgu-s0-n100-r7-0068

>  <rmsd_to_ref>  (68) 
3.530612244904984

$$$$
6tgu.A
     RDKit          3D

 32 34  0  0  0  0  0  0  0  0999 V2000
    2.7595   21.6011   41.7890 C   0  0  0  0  0  0  0  0  0  0  0  0
    1.9246   20.4205   42.2929 C   0  0  0  0  0  0  0  0  0  0  0  0
    0.8412   20.6320   43.1426 C   0  0  0  0  0  0  0  0  0  0  0  0
   -0.0553   19.6096   43.4705 C   0  0  0  0  0  0  0  0  0  0  0  0
    0.2141   18.2875   43.0880 C   0  0  0  0  0  0  0  0  0  0  0  0
   -0.9352   16.0474   42.7355 C   0  0  0  0  0  0  0  0  0  0  0  0
   -0.5540   14.3252   41.2987 C   0  0  0  0  0  0  0  0  0  0  0  0
    0.2052   13.5746   40.2980 C   0  0  0  0  0  0  0  0  0  0  0  0
   -0.3115   12.4268   39.6802 C   0  0  0  0  0  0  0  0  0  0  0  0
    0.4139   11.7474   38.7065 C   0  0  0  0  0  0  0  0  0  0  0  0
    1.6429   12.2505   38.3232 C   0  0  0  0  0  0  0  0  0  0  0  0
    2.1887   13.3855   38.9037 C   0  0  0  0  0  0  0  0  0  0  0  0
    1.4525   14.0447   39.8843 C   0  0  0  0  0  0  0  0  0  0  0  0
   -1.8060   13.9756   41.7309 C   0  0  0  0  0  0  0  0  0  0  0  0
    1.2943   18.0589   42.2238 C   0  0  0  0  0  0  0  0  0  0  0  0
    2.1244   19.1179   41.8516 C   0  0  0  0  0  0  0  0  0  0  0  0
   -0.7222   17.2430   43.3592 N   0  0  0  0  0  0  0  0  0  0  0  0
   -0.0625   15.5592   41.7864 N   0  0  0  0  0  0  0  0  0  0  0  0
    2.3146   22.7582   42.0462 O   0  0  0  0  0  0  0  0  0  0  0  0
    3.7657   21.3298   41.0979 O   0  0  0  0  0  0  0  0  0  0  0  0
    3.1153   18.9028   40.9234 O   0  0  0  0  0  0  0  0  0  0  0  0
   -2.4637   15.1893   42.7615 S   0  0  0  0  0  0  0  0  0  0  0  0
    2.5393   11.4384   37.0829 Cl  0  0  0  0  0  0  0  0  0  0  0  0
    0.6858   21.6341   43.5689 H   0  0  0  0  0  0  0  0  0  0  0  0
   -0.9735   19.8431   44.0295 H   0  0  0  0  0  0  0  0  0  0  0  0
   -1.3063   12.0576   39.9700 H   0  0  0  0  0  0  0  0  0  0  0  0
    0.0172   10.8281   38.2508 H   0  0  0  0  0  0  0  0  0  0  0  0
    3.1783   13.7554   38.5973 H   0  0  0  0  0  0  0  0  0  0  0  0
    1.8630   14.9563   40.3431 H   0  0  0  0  0  0  0  0  0  0  0  0
   -2.3226   13.0441   41.4564 H   0  0  0  0  0  0  0  0  0  0  0  0
    1.4873   17.0465   41.8394 H   0  0  0  0  0  0  0  0  0  0  0  0
   -1.3420   17.4225   44.1620 H   0  0  0  0  0  0  0  0  0  0  0  0
  1  2  1  0
  1 19  1  0
  1 20  2  0
  2  3  1  0
  2 16  2  0
  3  4  2  0
  4  5  1  0
  5 15  2  0
  5 17  1  0
  6 17  1  0
  6 18  2  0
  6 22  1  0
  7  8  1  0
  7 14  2  0
  7 18  1  0
  8  9  1  0
  8 13  2  0
  9 10  2  0
 10 11  1  0
 11 12  2  0
 11 23  1  0
 12 13  1  0
 14 22  1  0
 15 16  1  0
 16 21  1  0
  3 24  1  0
  4 25  1  0
  9 26  1  0
 10 27  1  0
 12 28  1  0
 13 29  1  0
 14 30  1  0
 15 31  1  0
 17 32  1  0
M  CHG  2  19  -1  21  -1
M  END
>  <mol_id>  (69) 
2026-08-23-6tgu-s0-n100-r7-0069

>  <rmsd_to_ref>  (69) 
3.57653061225226

$$$$
6tgu.A
     RDKit          3D

 32 34  0  0  0  0  0  0  0  0999 V2000
    4.9288   19.5583   39.5059 C   0  0  0  0  0  0  0  0  0  0  0  0
    4.1360   18.7315   40.4108 C   0  0  0  0  0  0  0  0  0  0  0  0
    4.5586   18.5517   41.7155 C   0  0  0  0  0  0  0  0  0  0  0  0
    3.8276   17.7666   42.5887 C   0  0  0  0  0  0  0  0  0  0  0  0
    2.6517   17.1569   42.1311 C   0  0  0  0  0  0  0  0  0  0  0  0
    0.5636   15.9225   42.5689 C   0  0  0  0  0  0  0  0  0  0  0  0
   -1.2791   14.9603   41.6732 C   0  0  0  0  0  0  0  0  0  0  0  0
   -1.9141   13.9638   40.7779 C   0  0  0  0  0  0  0  0  0  0  0  0
   -1.1737   13.0786   40.0363 C   0  0  0  0  0  0  0  0  0  0  0  0
   -1.7867   12.1520   39.1826 C   0  0  0  0  0  0  0  0  0  0  0  0
   -3.1763   12.1094   39.0665 C   0  0  0  0  0  0  0  0  0  0  0  0
   -3.8883   12.9922   39.8086 C   0  0  0  0  0  0  0  0  0  0  0  0
   -3.2847   13.9059   40.6502 C   0  0  0  0  0  0  0  0  0  0  0  0
   -2.0706   15.8583   42.4119 C   0  0  0  0  0  0  0  0  0  0  0  0
    2.2275   17.3418   40.8123 C   0  0  0  0  0  0  0  0  0  0  0  0
    2.9700   18.1281   39.9541 C   0  0  0  0  0  0  0  0  0  0  0  0
    1.8627   16.3194   42.9723 N   0  0  0  0  0  0  0  0  0  0  0  0
   -0.0047   15.0861   41.8308 N   0  0  0  0  0  0  0  0  0  0  0  0
    4.5180   19.7374   38.1960 O   0  0  0  0  0  0  0  0  0  0  0  0
    5.9934   20.1290   39.8686 O   0  0  0  0  0  0  0  0  0  0  0  0
    2.5667   18.3254   38.6386 O   0  0  0  0  0  0  0  0  0  0  0  0
   -0.8815   16.8267   43.2878 S   0  0  0  0  0  0  0  0  0  0  0  0
   -3.9815   10.9653   38.0099 Cl  0  0  0  0  0  0  0  0  0  0  0  0
    5.4671   19.0164   42.0905 H   0  0  0  0  0  0  0  0  0  0  0  0
    4.1289   17.6024   43.6272 H   0  0  0  0  0  0  0  0  0  0  0  0
   -0.1144   13.0743   40.0923 H   0  0  0  0  0  0  0  0  0  0  0  0
   -1.1817   11.4614   38.6031 H   0  0  0  0  0  0  0  0  0  0  0  0
   -4.9710   12.9913   39.7490 H   0  0  0  0  0  0  0  0  0  0  0  0
   -3.9082   14.5664   41.2017 H   0  0  0  0  0  0  0  0  0  0  0  0
   -3.1312   15.9523   42.4491 H   0  0  0  0  0  0  0  0  0  0  0  0
    1.3170   16.8800   40.4328 H   0  0  0  0  0  0  0  0  0  0  0  0
    2.2475   15.9959   43.8937 H   0  0  0  0  0  0  0  0  0  0  0  0
  1  2  1  0
  1 19  1  0
  1 20  2  0
  2  3  1  0
  2 16  2  0
  3  4  2  0
  4  5  1  0
  5 15  2  0
  5 17  1  0
  6 17  1  0
  6 18  2  0
  6 22  1  0
  7  8  1  0
  7 14  2  0
  7 18  1  0
  8  9  1  0
  8 13  2  0
  9 10  2  0
 10 11  1  0
 11 12  2  0
 11 23  1  0
 12 13  1  0
 14 22  1  0
 15 16  1  0
 16 21  1  0
  3 24  1  0
  4 25  1  0
  9 26  1  0
 10 27  1  0
 12 28  1  0
 13 29  1  0
 14 30  1  0
 15 31  1  0
 17 32  1  0
M  CHG  2  19  -1  21  -1
M  END
>  <mol_id>  (70) 
2026-08-23-6tgu-s0-n100-r7-0070

>  <rmsd_to_ref>  (70) 
3.622448979597204

$$$$
6tgu.A
     RDKit          3D

 32 34  0  0  0  0  0  0  0  0999 V2000
    6.0156   16.2992   38.9862 C   0  0  0  0  0  0  0  0  0  0  0  0
    4.6799   16.9480   39.3596 C   0  0  0  0  0  0  0  0  0  0  0  0
    4.2889   18.1497   38.7733 C   0  0  0  0  0  0  0  0  0  0  0  0
    3.0033   18.6740   38.9423 C   0  0  0  0  0  0  0  0  0  0  0  0
    2.1182   18.0869   39.8581 C   0  0  0  0  0  0  0  0  0  0  0  0
   -0.3574   17.9482   40.4197 C   0  0  0  0  0  0  0  0  0  0  0  0
   -1.6478   16.3030   41.3162 C   0  0  0  0  0  0  0  0  0  0  0  0
   -1.8942   15.0239   41.9830 C   0  0  0  0  0  0  0  0  0  0  0  0
   -3.1896   14.5217   42.1721 C   0  0  0  0  0  0  0  0  0  0  0  0
   -3.3995   13.2872   42.7787 C   0  0  0  0  0  0  0  0  0  0  0  0
   -2.3008   12.5378   43.1552 C   0  0  0  0  0  0  0  0  0  0  0  0
   -1.0027   12.9936   42.9817 C   0  0  0  0  0  0  0  0  0  0  0  0
   -0.8137   14.2363   42.3833 C   0  0  0  0  0  0  0  0  0  0  0  0
   -2.6377   17.1216   40.8404 C   0  0  0  0  0  0  0  0  0  0  0  0
    2.4918   16.8711   40.4484 C   0  0  0  0  0  0  0  0  0  0  0  0
    3.7552   16.3336   40.1956 C   0  0  0  0  0  0  0  0  0  0  0  0
    0.7810   18.5709   39.9953 N   0  0  0  0  0  0  0  0  0  0  0  0
   -0.3255   16.7026   41.0099 N   0  0  0  0  0  0  0  0  0  0  0  0
    6.6438   16.8170   38.0165 O   0  0  0  0  0  0  0  0  0  0  0  0
    6.3389   15.2663   39.6127 O   0  0  0  0  0  0  0  0  0  0  0  0
    4.0712   15.0924   40.6949 O   0  0  0  0  0  0  0  0  0  0  0  0
   -1.9738   18.4389   39.9506 S   0  0  0  0  0  0  0  0  0  0  0  0
   -2.5457   10.9808   43.8744 Cl  0  0  0  0  0  0  0  0  0  0  0  0
    5.0137   18.7033   38.1584 H   0  0  0  0  0  0  0  0  0  0  0  0
    2.6857   19.5487   38.3557 H   0  0  0  0  0  0  0  0  0  0  0  0
   -4.0538   15.1132   41.8356 H   0  0  0  0  0  0  0  0  0  0  0  0
   -4.4195   12.9150   42.9550 H   0  0  0  0  0  0  0  0  0  0  0  0
   -0.1441   12.3887   43.3086 H   0  0  0  0  0  0  0  0  0  0  0  0
    0.2099   14.6057   42.2224 H   0  0  0  0  0  0  0  0  0  0  0  0
   -3.7132   16.9594   41.0045 H   0  0  0  0  0  0  0  0  0  0  0  0
    1.7903   16.3416   41.1098 H   0  0  0  0  0  0  0  0  0  0  0  0
    0.6542   19.5576   39.7287 H   0  0  0  0  0  0  0  0  0  0  0  0
  1  2  1  0
  1 19  1  0
  1 20  2  0
  2  3  1  0
  2 16  2  0
  3  4  2  0
  4  5  1  0
  5 15  2  0
  5 17  1  0
  6 17  1  0
  6 18  2  0
  6 22  1  0
  7  8  1  0
  7 14  2  0
  7 18  1  0
  8  9  1  0
  8 13  2  0
  9 10  2  0
 10 11  1  0
 11 12  2  0
 11 23  1  0
 12 13  1  0
 14 22  1  0
 15 16  1  0
 16 21  1  0
  3 24  1  0
  4 25  1  0
  9 26  1  0
 10 27  1  0
 12 28  1  0
 13 29  1  0
 14 30  1  0
 15 31  1  0
 17 32  1  0
M  CHG  2  19  -1  21  -1
M  END
>  <mol_id>  (71) 
2026-08-23-6tgu-s0-n100-r7-0071

>  <rmsd_to_ref>  (71) 
3.6683673469428846

$$$$
6tgu.A
     RDKit          3D

 32 34  0  0  0  0  0  0  0  0999 V2000
    2.8438   22.3383   42.5720 C   0  0  0  0  0  0  0  0  0  0  0  0
    2.6858   20.9388   42.1887 C   0  0  0  0  0  0  0  0  0  0  0  0
    1.4267   20.4527   42.0352 C   0  0  0  0  0  0  0  0  0  0  0  0
    1.2168   19.1376   41.6733 C   0  0  0  0  0  0  0  0  0  0  0  0
    2.2553   18.2742   41.4559 C   0  0  0  0  0  0  0  0  0  0  0  0
    1.0531   16.0767   41.2773 C   0  0  0  0  0  0  0  0  0  0  0  0
   -0.2228   14.1996   41.1868 C   0  0  0  0  0  0  0  0  0  0  0  0
   -0.3674   12.7822   40.7561 C   0  0  0  0  0  0  0  0  0  0  0  0
    0.6463   12.1318   40.0818 C   0  0  0  0  0  0  0  0  0  0  0  0
    0.5358   10.8201   39.6719 C   0  0  0  0  0  0  0  0  0  0  0  0
   -0.6314   10.1379   39.9481 C   0  0  0  0  0  0  0  0  0  0  0  0
   -1.6677   10.7861   40.6312 C   0  0  0  0  0  0  0  0  0  0  0  0
   -1.5261   12.0994   41.0279 C   0  0  0  0  0  0  0  0  0  0  0  0
   -1.2406   14.8401   41.8562 C   0  0  0  0  0  0  0  0  0  0  0  0
    3.5335   18.8035   41.6210 C   0  0  0  0  0  0  0  0  0  0  0  0
    3.7457   20.0951   41.9764 C   0  0  0  0  0  0  0  0  0  0  0  0
    2.1617   16.9246   41.1033 N   0  0  0  0  0  0  0  0  0  0  0  0
    0.8532   14.8928   40.9546 N   0  0  0  0  0  0  0  0  0  0  0  0
    4.1207   22.8880   42.7390 O   0  0  0  0  0  0  0  0  0  0  0  0
    1.8452   23.1038   42.7668 O   0  0  0  0  0  0  0  0  0  0  0  0
    5.0334   20.6002   42.1358 O   0  0  0  0  0  0  0  0  0  0  0  0
   -0.4990   16.5403   42.1200 S   0  0  0  0  0  0  0  0  0  0  0  0
   -0.8878    8.4762   39.4812 Cl  0  0  0  0  0  0  0  0  0  0  0  0
    0.5761   21.1082   42.1997 H   0  0  0  0  0  0  0  0  0  0  0  0
    0.2108   18.8176   41.5597 H   0  0  0  0  0  0  0  0  0  0  0  0
    1.5680   12.6472   39.8546 H   0  0  0  0  0  0  0  0  0  0  0  0
    1.3419   10.3158   39.1405 H   0  0  0  0  0  0  0  0  0  0  0  0
   -2.5732   10.2685   40.8488 H   0  0  0  0  0  0  0  0  0  0  0  0
   -2.3660   12.5529   41.5554 H   0  0  0  0  0  0  0  0  0  0  0  0
   -2.1941   14.5922   42.1892 H   0  0  0  0  0  0  0  0  0  0  0  0
    4.4115   18.1641   41.4621 H   0  0  0  0  0  0  0  0  0  0  0  0
    3.0124   16.4680   40.6486 H   0  0  0  0  0  0  0  0  0  0  0  0
  1  2  1  0
  1 19  1  0
  1 20  2  0
  2  3  1  0
  2 16  2  0
  3  4  2  0
  4  5  1  0
  5 15  2  0
  5 17  1  0
  6 17  1  0
  6 18  2  0
  6 22  1  0
  7  8  1  0
  7 14  2  0
  7 18  1  0
  8  9  1  0
  8 13  2  0
  9 10  2  0
 10 11  1  0
 11 12  2  0
 11 23  1  0
 12 13  1  0
 14 22  1  0
 15 16  1  0
 16 21  1  0
  3 24  1  0
  4 25  1  0
  9 26  1  0
 10 27  1  0
 12 28  1  0
 13 29  1  0
 14 30  1  0
 15 31  1  0
 17 32  1  0
M  CHG  2  19  -1  21  -1
M  END
>  <mol_id>  (72) 
2026-08-23-6tgu-s0-n100-r7-0072

>  <rmsd_to_ref>  (72) 
3.7142857142901295

$$$$
6tgu.A
     RDKit          3D

 32 34  0  0  0  0  0  0  0  0999 V2000
   -0.6197   17.9413   35.2828 C   0  0  0  0  0  0  0  0  0  0  0  0
    0.6210   18.0457   36.1742 C   0  0  0  0  0  0  0  0  0  0  0  0
    1.3475   19.2325   36.2391 C   0  0  0  0  0  0  0  0  0  0  0  0
    2.3663   19.4285   37.1771 C   0  0  0  0  0  0  0  0  0  0  0  0
    2.8065   18.3603   37.9721 C   0  0  0  0  0  0  0  0  0  0  0  0
    4.0586   17.8735   40.1305 C   0  0  0  0  0  0  0  0  0  0  0  0
    3.8896   16.2091   41.6722 C   0  0  0  0  0  0  0  0  0  0  0  0
    3.4205   14.9245   42.1928 C   0  0  0  0  0  0  0  0  0  0  0  0
    3.7063   14.5029   43.4992 C   0  0  0  0  0  0  0  0  0  0  0  0
    3.2219   13.2925   43.9851 C   0  0  0  0  0  0  0  0  0  0  0  0
    2.4117   12.5265   43.1683 C   0  0  0  0  0  0  0  0  0  0  0  0
    2.0993   12.9081   41.8723 C   0  0  0  0  0  0  0  0  0  0  0  0
    2.6029   14.1172   41.4004 C   0  0  0  0  0  0  0  0  0  0  0  0
    4.6507   17.0940   42.3891 C   0  0  0  0  0  0  0  0  0  0  0  0
    2.0793   17.1623   37.9270 C   0  0  0  0  0  0  0  0  0  0  0  0
    1.0153   17.0269   37.0333 C   0  0  0  0  0  0  0  0  0  0  0  0
    3.8008   18.5594   38.9786 N   0  0  0  0  0  0  0  0  0  0  0  0
    3.4546   16.6650   40.4053 N   0  0  0  0  0  0  0  0  0  0  0  0
   -1.0302   19.0178   34.7577 O   0  0  0  0  0  0  0  0  0  0  0  0
   -1.1729   16.8222   35.2100 O   0  0  0  0  0  0  0  0  0  0  0  0
    0.2450   15.8889   37.0707 O   0  0  0  0  0  0  0  0  0  0  0  0
    4.8505   18.5734   41.5292 S   0  0  0  0  0  0  0  0  0  0  0  0
    1.7677   11.0365   43.7740 Cl  0  0  0  0  0  0  0  0  0  0  0  0
    1.1126   20.0406   35.5306 H   0  0  0  0  0  0  0  0  0  0  0  0
    2.8232   20.4226   37.2916 H   0  0  0  0  0  0  0  0  0  0  0  0
    4.3234   15.1394   44.1504 H   0  0  0  0  0  0  0  0  0  0  0  0
    3.4786   12.9520   44.9991 H   0  0  0  0  0  0  0  0  0  0  0  0
    1.4696   12.2716   41.2332 H   0  0  0  0  0  0  0  0  0  0  0  0
    2.3509   14.4434   40.3806 H   0  0  0  0  0  0  0  0  0  0  0  0
    5.0775   16.8876   43.3817 H   0  0  0  0  0  0  0  0  0  0  0  0
    2.3468   16.3302   38.5949 H   0  0  0  0  0  0  0  0  0  0  0  0
    4.4303   19.3560   38.8056 H   0  0  0  0  0  0  0  0  0  0  0  0
  1  2  1  0
  1 19  1  0
  1 20  2  0
  2  3  1  0
  2 16  2  0
  3  4  2  0
  4  5  1  0
  5 15  2  0
  5 17  1  0
  6 17  1  0
  6 18  2  0
  6 22  1  0
  7  8  1  0
  7 14  2  0
  7 18  1  0
  8  9  1  0
  8 13  2  0
  9 10  2  0
 10 11  1  0
 11 12  2  0
 11 23  1  0
 12 13  1  0
 14 22  1  0
 15 16  1  0
 16 21  1  0
  3 24  1  0
  4 25  1  0
  9 26  1  0
 10 27  1  0
 12 28  1  0
 13 29  1  0
 14 30  1  0
 15 31  1  0
 17 32  1  0
M  CHG  2  19  -1  21  -1
M  END
>  <mol_id>  (73) 
2026-08-23-6tgu-s0-n100-r7-0073

>  <rmsd_to_ref>  (73) 
3.760204081637929

$$$$
6tgu.A
     RDKit          3D

 32 34  0  0  0  0  0  0  0  0999 V2000
   -2.3970   21.7337   38.0050 C   0  0  0  0  0  0  0  0  0  0  0  0
   -1.8393   20.4379   38.4428 C   0  0  0  0  0  0  0  0  0  0  0  0
   -1.7307   20.2282   39.7885 C   0  0  0  0  0  0  0  0  0  0  0  0
   -1.2096   19.0290   40.2723 C   0  0  0  0  0  0  0  0  0  0  0  0
   -0.7939   18.0342   39.4281 C   0  0  0  0  0  0  0  0  0  0  0  0
    0.4612   16.5275   40.9923 C   0  0  0  0  0  0  0  0  0  0  0  0
    1.6049   15.4896   42.6657 C   0  0  0  0  0  0  0  0  0  0  0  0
    2.1879   14.2610   43.2717 C   0  0  0  0  0  0  0  0  0  0  0  0
    2.8469   14.3001   44.4601 C   0  0  0  0  0  0  0  0  0  0  0  0
    3.3701   13.1483   44.9846 C   0  0  0  0  0  0  0  0  0  0  0  0
    3.2598   11.9232   44.3532 C   0  0  0  0  0  0  0  0  0  0  0  0
    2.5889   11.8690   43.1382 C   0  0  0  0  0  0  0  0  0  0  0  0
    2.0739   13.0415   42.6358 C   0  0  0  0  0  0  0  0  0  0  0  0
    1.7444   16.7071   43.3449 C   0  0  0  0  0  0  0  0  0  0  0  0
   -0.9218   18.2880   38.0647 C   0  0  0  0  0  0  0  0  0  0  0  0
   -1.4362   19.4702   37.5752 C   0  0  0  0  0  0  0  0  0  0  0  0
   -0.2352   16.8017   39.8028 N   0  0  0  0  0  0  0  0  0  0  0  0
    0.9778   15.5050   41.5524 N   0  0  0  0  0  0  0  0  0  0  0  0
   -2.4965   21.9306   36.6294 O   0  0  0  0  0  0  0  0  0  0  0  0
   -2.7631   22.6139   38.8239 O   0  0  0  0  0  0  0  0  0  0  0  0
   -1.5439   19.6757   36.2026 O   0  0  0  0  0  0  0  0  0  0  0  0
    0.8770   17.8958   42.2180 S   0  0  0  0  0  0  0  0  0  0  0  0
    3.9531   10.4986   45.0811 Cl  0  0  0  0  0  0  0  0  0  0  0  0
   -2.0569   21.0109   40.4895 H   0  0  0  0  0  0  0  0  0  0  0  0
   -1.1616   18.9211   41.3228 H   0  0  0  0  0  0  0  0  0  0  0  0
    2.9710   15.2247   45.0103 H   0  0  0  0  0  0  0  0  0  0  0  0
    3.8885   13.2059   45.9299 H   0  0  0  0  0  0  0  0  0  0  0  0
    2.4771   10.9394   42.6114 H   0  0  0  0  0  0  0  0  0  0  0  0
    1.5517   12.9555   41.6755 H   0  0  0  0  0  0  0  0  0  0  0  0
    2.2073   16.9925   44.2704 H   0  0  0  0  0  0  0  0  0  0  0  0
   -0.6184   17.5586   37.3101 H   0  0  0  0  0  0  0  0  0  0  0  0
   -0.3406   15.9894   39.1382 H   0  0  0  0  0  0  0  0  0  0  0  0
  1  2  1  0
  1 19  1  0
  1 20  2  0
  2  3  1  0
  2 16  2  0
  3  4  2  0
  4  5  1  0
  5 15  2  0
  5 17  1  0
  6 17  1  0
  6 18  2  0
  6 22  1  0
  7  8  1  0
  7 14  2  0
  7 18  1  0
  8  9  1  0
  8 13  2  0
  9 10  2  0
 10 11  1  0
 11 12  2  0
 11 23  1  0
 12 13  1  0
 14 22  1  0
 15 16  1  0
 16 21  1  0
  3 24  1  0
  4 25  1  0
  9 26  1  0
 10 27  1  0
 12 28  1  0
 13 29  1  0
 14 30  1  0
 15 31  1  0
 17 32  1  0
M  CHG  2  19  -1  21  -1
M  END
>  <mol_id>  (74) 
2026-08-23-6tgu-s0-n100-r7-0074

>  <rmsd_to_ref>  (74) 
3.8061224489808514

$$$$
6tgu.A
     RDKit          3D

 32 34  0  0  0  0  0  0  0  0999 V2000
    3.6215   21.4319   41.6403 C   0  0  0  0  0  0  0  0  0  0  0  0
    2.3980   20.5259   41.8041 C   0  0  0  0  0  0  0  0  0  0  0  0
    1.1999   21.0377   42.2972 C   0  0  0  0  0  0  0  0  0  0  0  0
    0.0144   20.2954   42.2834 C   0  0  0  0  0  0  0  0  0  0  0  0
    0.0373   18.9386   41.9292 C   0  0  0  0  0  0  0  0  0  0  0  0
   -1.4860   17.0686   41.1256 C   0  0  0  0  0  0  0  0  0  0  0  0
   -1.1416   15.2668   39.7800 C   0  0  0  0  0  0  0  0  0  0  0  0
   -0.3336   14.3156   39.0162 C   0  0  0  0  0  0  0  0  0  0  0  0
   -0.9144   13.3261   38.2101 C   0  0  0  0  0  0  0  0  0  0  0  0
   -0.1272   12.4532   37.4656 C   0  0  0  0  0  0  0  0  0  0  0  0
    1.2461   12.6060   37.4990 C   0  0  0  0  0  0  0  0  0  0  0  0
    1.8617   13.5743   38.2777 C   0  0  0  0  0  0  0  0  0  0  0  0
    1.0573   14.4308   39.0244 C   0  0  0  0  0  0  0  0  0  0  0  0
   -2.5114   15.2696   39.7945 C   0  0  0  0  0  0  0  0  0  0  0  0
    1.2325   18.4108   41.4203 C   0  0  0  0  0  0  0  0  0  0  0  0
    2.3802   19.2045   41.3740 C   0  0  0  0  0  0  0  0  0  0  0  0
   -1.1730   18.1838   41.8482 N   0  0  0  0  0  0  0  0  0  0  0  0
   -0.5220   16.3423   40.4593 N   0  0  0  0  0  0  0  0  0  0  0  0
    3.4334   22.6720   41.8133 O   0  0  0  0  0  0  0  0  0  0  0  0
    4.6850   20.8872   41.2716 O   0  0  0  0  0  0  0  0  0  0  0  0
    3.5165   18.7113   40.7779 O   0  0  0  0  0  0  0  0  0  0  0  0
   -3.1163   16.6417   40.6425 S   0  0  0  0  0  0  0  0  0  0  0  0
    2.2373   11.5527   36.5452 Cl  0  0  0  0  0  0  0  0  0  0  0  0
    1.1856   22.0571   42.7102 H   0  0  0  0  0  0  0  0  0  0  0  0
   -0.9378   20.7768   42.5509 H   0  0  0  0  0  0  0  0  0  0  0  0
   -2.0100   13.2386   38.1656 H   0  0  0  0  0  0  0  0  0  0  0  0
   -0.5886   11.6574   36.8624 H   0  0  0  0  0  0  0  0  0  0  0  0
    2.9578   13.6634   38.3047 H   0  0  0  0  0  0  0  0  0  0  0  0
    1.5284   15.2157   39.6343 H   0  0  0  0  0  0  0  0  0  0  0  0
   -3.1412   14.4984   39.3269 H   0  0  0  0  0  0  0  0  0  0  0  0
    1.2659   17.3727   41.0580 H   0  0  0  0  0  0  0  0  0  0  0  0
   -1.9400   18.5420   42.4349 H   0  0  0  0  0  0  0  0  0  0  0  0
  1  2  1  0
  1 19  1  0
  1 20  2  0
  2  3  1  0
  2 16  2  0
  3  4  2  0
  4  5  1  0
  5 15  2  0
  5 17  1  0
  6 17  1  0
  6 18  2  0
  6 22  1  0
  7  8  1  0
  7 14  2  0
  7 18  1  0
  8  9  1  0
  8 13  2  0
  9 10  2  0
 10 11  1  0
 11 12  2  0
 11 23  1  0
 12 13  1  0
 14 22  1  0
 15 16  1  0
 16 21  1  0
  3 24  1  0
  4 25  1  0
  9 26  1  0
 10 27  1  0
 12 28  1  0
 13 29  1  0
 14 30  1  0
 15 31  1  0
 17 32  1  0
M  CHG  2  19  -1  21  -1
M  END
>  <mol_id>  (75) 
2026-08-23-6tgu-s0-n100-r7-0075

>  <rmsd_to_ref>  (75) 
3.852040816332938

$$$$
6tgu.A
     RDKit          3D

 32 34  0  0  0  0  0  0  0  0999 V2000
    1.8693   15.7379   35.4234 C   0  0  0  0  0  0  0  0  0  0  0  0
    1.0811   16.2914   36.5218 C   0  0  0  0  0  0  0  0  0  0  0  0
    1.4303   15.9820   37.7983 C   0  0  0  0  0  0  0  0  0  0  0  0
    0.6760   16.5124   38.8278 C   0  0  0  0  0  0  0  0  0  0  0  0
   -0.4080   17.3358   38.6285 C   0  0  0  0  0  0  0  0  0  0  0  0
   -0.9319   17.6421   41.0473 C   0  0  0  0  0  0  0  0  0  0  0  0
   -0.1028   16.9459   43.0298 C   0  0  0  0  0  0  0  0  0  0  0  0
    0.8963   16.1673   43.7552 C   0  0  0  0  0  0  0  0  0  0  0  0
    1.8877   15.4440   43.1223 C   0  0  0  0  0  0  0  0  0  0  0  0
    2.8333   14.7063   43.8312 C   0  0  0  0  0  0  0  0  0  0  0  0
    2.8048   14.6774   45.2142 C   0  0  0  0  0  0  0  0  0  0  0  0
    1.8166   15.3982   45.8526 C   0  0  0  0  0  0  0  0  0  0  0  0
    0.8873   16.1240   45.1331 C   0  0  0  0  0  0  0  0  0  0  0  0
   -1.0858   17.6634   43.6500 C   0  0  0  0  0  0  0  0  0  0  0  0
   -0.7131   17.6142   37.2911 C   0  0  0  0  0  0  0  0  0  0  0  0
    0.0191   17.1008   36.2488 C   0  0  0  0  0  0  0  0  0  0  0  0
   -1.2011   17.8962   39.6356 N   0  0  0  0  0  0  0  0  0  0  0  0
   -0.1668   17.0423   41.7034 N   0  0  0  0  0  0  0  0  0  0  0  0
    2.9599   14.9089   35.6439 O   0  0  0  0  0  0  0  0  0  0  0  0
    1.5066   16.0541   34.2393 O   0  0  0  0  0  0  0  0  0  0  0  0
   -0.3425   17.4212   34.9288 O   0  0  0  0  0  0  0  0  0  0  0  0
   -2.0513   18.4399   42.2859 S   0  0  0  0  0  0  0  0  0  0  0  0
    3.9979   13.7470   46.0975 Cl  0  0  0  0  0  0  0  0  0  0  0  0
    2.2753   15.3381   38.0121 H   0  0  0  0  0  0  0  0  0  0  0  0
    0.9771   16.2493   39.8266 H   0  0  0  0  0  0  0  0  0  0  0  0
    1.8973   15.4765   42.0287 H   0  0  0  0  0  0  0  0  0  0  0  0
    3.5817   14.1641   43.2479 H   0  0  0  0  0  0  0  0  0  0  0  0
    1.7764   15.3890   46.9345 H   0  0  0  0  0  0  0  0  0  0  0  0
    0.1318   16.6720   45.7014 H   0  0  0  0  0  0  0  0  0  0  0  0
   -1.3586   17.8286   44.7539 H   0  0  0  0  0  0  0  0  0  0  0  0
   -1.5623   18.2622   37.0522 H   0  0  0  0  0  0  0  0  0  0  0  0
   -2.0008   18.5082   39.3594 H   0  0  0  0  0  0  0  0  0  0  0  0
  1  2  1  0
  1 19  1  0
  1 20  2  0
  2  3  1  0
  2 16  2  0
  3  4  2  0
  4  5  1  0
  5 15  2  0
  5 17  1  0
  6 17  1  0
  6 18  2  0
  6 22  1  0
  7  8  1  0
  7 14  2  0
  7 18  1  0
  8  9  1  0
  8 13  2  0
  9 10  2  0
 10 11  1  0
 11 12  2  0
 11 23  1  0
 12 13  1  0
 14 22  1  0
 15 16  1  0
 16 21  1  0
  3 24  1  0
  4 25  1  0
  9 26  1  0
 10 27  1  0
 12 28  1  0
 13 29  1  0
 14 30  1  0
 15 31  1  0
 17 32  1  0
M  CHG  2  19  -1  21  -1
M  END
>  <mol_id>  (76) 
2026-08-23-6tgu-s0-n100-r7-0076

>  <rmsd_to_ref>  (76) 
3.897959183681241

$$$$
6tgu.A
     RDKit          3D

 32 34  0  0  0  0  0  0  0  0999 V2000
    1.9368   15.7947   35.0982 C   0  0  0  0  0  0  0  0  0  0  0  0
    2.0117   16.8186   36.2342 C   0  0  0  0  0  0  0  0  0  0  0  0
    2.0537   18.1828   35.9552 C   0  0  0  0  0  0  0  0  0  0  0  0
    1.9313   19.1495   36.9586 C   0  0  0  0  0  0  0  0  0  0  0  0
    1.9377   18.7682   38.3082 C   0  0  0  0  0  0  0  0  0  0  0  0
    1.2683   19.6062   40.6132 C   0  0  0  0  0  0  0  0  0  0  0  0
    0.5334   18.5476   42.4880 C   0  0  0  0  0  0  0  0  0  0  0  0
    0.2492   17.3863   43.3317 C   0  0  0  0  0  0  0  0  0  0  0  0
   -0.4067   17.5063   44.5651 C   0  0  0  0  0  0  0  0  0  0  0  0
   -0.6970   16.3850   45.3360 C   0  0  0  0  0  0  0  0  0  0  0  0
   -0.3654   15.1371   44.8428 C   0  0  0  0  0  0  0  0  0  0  0  0
    0.2787   14.9724   43.6258 C   0  0  0  0  0  0  0  0  0  0  0  0
    0.5708   16.1074   42.8745 C   0  0  0  0  0  0  0  0  0  0  0  0
    0.2093   19.8355   42.8235 C   0  0  0  0  0  0  0  0  0  0  0  0
    1.8841   17.3991   38.6061 C   0  0  0  0  0  0  0  0  0  0  0  0
    1.9282   16.4598   37.5743 C   0  0  0  0  0  0  0  0  0  0  0  0
    1.7492   19.7361   39.3421 N   0  0  0  0  0  0  0  0  0  0  0  0
    1.0589   18.3699   41.1863 N   0  0  0  0  0  0  0  0  0  0  0  0
    1.7485   16.2554   33.9339 O   0  0  0  0  0  0  0  0  0  0  0  0
    1.9864   14.5871   35.4192 O   0  0  0  0  0  0  0  0  0  0  0  0
    1.7699   15.1266   37.8699 O   0  0  0  0  0  0  0  0  0  0  0  0
    0.5190   20.9106   41.5135 S   0  0  0  0  0  0  0  0  0  0  0  0
   -0.7574   13.7290   45.7729 Cl  0  0  0  0  0  0  0  0  0  0  0  0
    2.1874   18.5099   34.9135 H   0  0  0  0  0  0  0  0  0  0  0  0
    1.8298   20.2111   36.6887 H   0  0  0  0  0  0  0  0  0  0  0  0
   -0.6964   18.5031   44.9292 H   0  0  0  0  0  0  0  0  0  0  0  0
   -1.1809   16.4895   46.3184 H   0  0  0  0  0  0  0  0  0  0  0  0
    0.5518   13.9704   43.2634 H   0  0  0  0  0  0  0  0  0  0  0  0
    1.0661   15.9937   41.8988 H   0  0  0  0  0  0  0  0  0  0  0  0
   -0.1949   20.1424   43.7995 H   0  0  0  0  0  0  0  0  0  0  0  0
    1.8073   17.0656   39.6515 H   0  0  0  0  0  0  0  0  0  0  0  0
    2.0228   20.6951   39.0847 H   0  0  0  0  0  0  0  0  0  0  0  0
  1  2  1  0
  1 19  1  0
  1 20  2  0
  2  3  1  0
  2 16  2  0
  3  4  2  0
  4  5  1  0
  5 15  2  0
  5 17  1  0
  6 17  1  0
  6 18  2  0
  6 22  1  0
  7  8  1  0
  7 14  2  0
  7 18  1  0
  8  9  1  0
  8 13  2  0
  9 10  2  0
 10 11  1  0
 11 12  2  0
 11 23  1  0
 12 13  1  0
 14 22  1  0
 15 16  1  0
 16 21  1  0
  3 24  1  0
  4 25  1  0
  9 26  1  0
 10 27  1  0
 12 28  1  0
 13 29  1  0
 14 30  1  0
 15 31  1  0
 17 32  1  0
M  CHG  2  19  -1  21  -1
M  END
>  <mol_id>  (77) 
2026-08-23-6tgu-s0-n100-r7-0077

>  <rmsd_to_ref>  (77) 
3.9438775510259636

$$$$
6tgu.A
     RDKit          3D

 32 34  0  0  0  0  0  0  0  0999 V2000
    7.1468   17.8568   37.6998 C   0  0  0  0  0  0  0  0  0  0  0  0
    6.1494   17.9611   38.7736 C   0  0  0  0  0  0  0  0  0  0  0  0
    5.1525   17.0331   38.8928 C   0  0  0  0  0  0  0  0  0  0  0  0
    4.1814   17.1119   39.8937 C   0  0  0  0  0  0  0  0  0  0  0  0
    4.2623   18.1710   40.7683 C   0  0  0  0  0  0  0  0  0  0  0  0
    2.0293   17.7348   41.8129 C   0  0  0  0  0  0  0  0  0  0  0  0
    0.0698   16.6200   41.8968 C   0  0  0  0  0  0  0  0  0  0  0  0
   -0.8147   15.6699   42.5599 C   0  0  0  0  0  0  0  0  0  0  0  0
   -0.4636   15.0240   43.7203 C   0  0  0  0  0  0  0  0  0  0  0  0
   -1.3354   14.1312   44.3062 C   0  0  0  0  0  0  0  0  0  0  0  0
   -2.5774   13.8594   43.7523 C   0  0  0  0  0  0  0  0  0  0  0  0
   -2.9324   14.4980   42.5987 C   0  0  0  0  0  0  0  0  0  0  0  0
   -2.0484   15.3860   42.0286 C   0  0  0  0  0  0  0  0  0  0  0  0
   -0.3118   17.3075   40.7115 C   0  0  0  0  0  0  0  0  0  0  0  0
    5.2763   19.1329   40.6647 C   0  0  0  0  0  0  0  0  0  0  0  0
    6.2248   19.0203   39.6549 C   0  0  0  0  0  0  0  0  0  0  0  0
    3.3099   18.4081   41.8048 N   0  0  0  0  0  0  0  0  0  0  0  0
    1.2796   16.9904   42.2673 N   0  0  0  0  0  0  0  0  0  0  0  0
    8.1402   18.8147   37.5735 O   0  0  0  0  0  0  0  0  0  0  0  0
    7.0716   16.8668   36.8905 O   0  0  0  0  0  0  0  0  0  0  0  0
    7.2297   19.9914   39.5661 O   0  0  0  0  0  0  0  0  0  0  0  0
    1.0629   18.3529   40.3013 S   0  0  0  0  0  0  0  0  0  0  0  0
   -3.7018   12.7227   44.4869 Cl  0  0  0  0  0  0  0  0  0  0  0  0
    5.0711   16.1862   38.2059 H   0  0  0  0  0  0  0  0  0  0  0  0
    3.3891   16.3842   39.9956 H   0  0  0  0  0  0  0  0  0  0  0  0
    0.5010   15.2472   44.1415 H   0  0  0  0  0  0  0  0  0  0  0  0
   -1.0279   13.6354   45.2262 H   0  0  0  0  0  0  0  0  0  0  0  0
   -3.9035   14.3100   42.1239 H   0  0  0  0  0  0  0  0  0  0  0  0
   -2.4119   15.8560   41.0983 H   0  0  0  0  0  0  0  0  0  0  0  0
   -1.3087   17.2088   40.1342 H   0  0  0  0  0  0  0  0  0  0  0  0
    5.3088   19.9653   41.3853 H   0  0  0  0  0  0  0  0  0  0  0  0
    3.4837   19.0607   42.5905 H   0  0  0  0  0  0  0  0  0  0  0  0
  1  2  1  0
  1 19  1  0
  1 20  2  0
  2  3  1  0
  2 16  2  0
  3  4  2  0
  4  5  1  0
  5 15  2  0
  5 17  1  0
  6 17  1  0
  6 18  2  0
  6 22  1  0
  7  8  1  0
  7 14  2  0
  7 18  1  0
  8  9  1  0
  8 13  2  0
  9 10  2  0
 10 11  1  0
 11 12  2  0
 11 23  1  0
 12 13  1  0
 14 22  1  0
 15 16  1  0
 16 21  1  0
  3 24  1  0
  4 25  1  0
  9 26  1  0
 10 27  1  0
 12 28  1  0
 13 29  1  0
 14 30  1  0
 15 31  1  0
 17 32  1  0
M  CHG  2  19  -1  21  -1
M  END
>  <mol_id>  (78) 
2026-08-23-6tgu-s0-n100-r7-0078

>  <rmsd_to_ref>  (78) 
3.989795918375852

$$$$
6tgu.A
     RDKit          3D

 32 34  0  0  0  0  0  0  0  0999 V2000
   -1.7094   18.1301   37.2739 C   0  0  0  0  0  0  0  0  0  0  0  0
   -0.5585   18.3468   38.2604 C   0  0  0  0  0  0  0  0  0  0  0  0
   -0.6210   19.3669   39.2071 C   0  0  0  0  0  0  0  0  0  0  0  0
    0.3144   19.4781   40.2410 C   0  0  0  0  0  0  0  0  0  0  0  0
    1.4533   18.6597   40.2511 C   0  0  0  0  0  0  0  0  0  0  0  0
    3.2559   17.7821   41.8143 C   0  0  0  0  0  0  0  0  0  0  0  0
    4.4262   15.8324   41.8818 C   0  0  0  0  0  0  0  0  0  0  0  0
    4.8934   14.5460   41.3640 C   0  0  0  0  0  0  0  0  0  0  0  0
    5.6794   13.6763   42.1334 C   0  0  0  0  0  0  0  0  0  0  0  0
    6.0848   12.4427   41.6334 C   0  0  0  0  0  0  0  0  0  0  0  0
    5.6606   12.0662   40.3729 C   0  0  0  0  0  0  0  0  0  0  0  0
    4.8781   12.8926   39.5806 C   0  0  0  0  0  0  0  0  0  0  0  0
    4.4924   14.1277   40.0943 C   0  0  0  0  0  0  0  0  0  0  0  0
    4.7207   16.3069   43.1326 C   0  0  0  0  0  0  0  0  0  0  0  0
    1.5263   17.6209   39.3121 C   0  0  0  0  0  0  0  0  0  0  0  0
    0.5325   17.4896   38.3404 C   0  0  0  0  0  0  0  0  0  0  0  0
    2.3846   18.7164   41.3331 N   0  0  0  0  0  0  0  0  0  0  0  0
    3.5125   16.6112   41.1331 N   0  0  0  0  0  0  0  0  0  0  0  0
   -2.7619   18.8039   37.4769 O   0  0  0  0  0  0  0  0  0  0  0  0
   -1.5485   17.2506   36.3996 O   0  0  0  0  0  0  0  0  0  0  0  0
    0.5586   16.4081   37.4921 O   0  0  0  0  0  0  0  0  0  0  0  0
    3.8472   17.7542   43.4645 S   0  0  0  0  0  0  0  0  0  0  0  0
    6.1235   10.5160   39.7533 Cl  0  0  0  0  0  0  0  0  0  0  0  0
   -1.4312   20.1079   39.1394 H   0  0  0  0  0  0  0  0  0  0  0  0
    0.1566   20.2089   41.0478 H   0  0  0  0  0  0  0  0  0  0  0  0
    5.9804   13.9740   43.1486 H   0  0  0  0  0  0  0  0  0  0  0  0
    6.7299   11.7804   42.2293 H   0  0  0  0  0  0  0  0  0  0  0  0
    4.5701   12.5802   38.5719 H   0  0  0  0  0  0  0  0  0  0  0  0
    3.8574   14.7886   39.4860 H   0  0  0  0  0  0  0  0  0  0  0  0
    5.4216   15.8277   43.8320 H   0  0  0  0  0  0  0  0  0  0  0  0
    2.3656   16.9105   39.3409 H   0  0  0  0  0  0  0  0  0  0  0  0
    2.4014   19.6153   41.8357 H   0  0  0  0  0  0  0  0  0  0  0  0
  1  2  1  0
  1 19  1  0
  1 20  2  0
  2  3  1  0
  2 16  2  0
  3  4  2  0
  4  5  1  0
  5 15  2  0
  5 17  1  0
  6 17  1  0
  6 18  2  0
  6 22  1  0
  7  8  1  0
  7 14  2  0
  7 18  1  0
  8  9  1  0
  8 13  2  0
  9 10  2  0
 10 11  1  0
 11 12  2  0
 11 23  1  0
 12 13  1  0
 14 22  1  0
 15 16  1  0
 16 21  1  0
  3 24  1  0
  4 25  1  0
  9 26  1  0
 10 27  1  0
 12 28  1  0
 13 29  1  0
 14 30  1  0
 15 31  1  0
 17 32  1  0
M  CHG  2  19  -1  21  -1
M  END
>  <mol_id>  (79) 
2026-08-23-6tgu-s0-n100-r7-0079

>  <rmsd_to_ref>  (79) 
4.0357142857146

$$$$
6tgu.A
     RDKit          3D

 32 34  0  0  0  0  0  0  0  0999 V2000
    6.7594   18.3810   36.9204 C   0  0  0  0  0  0  0  0  0  0  0  0
    5.5428   17.6104   36.9525 C   0  0  0  0  0  0  0  0  0  0  0  0
    5.1244   16.9046   35.8375 C   0  0  0  0  0  0  0  0  0  0  0  0
    3.9697   16.1771   35.8841 C   0  0  0  0  0  0  0  0  0  0  0  0
    3.2439   16.1708   37.0680 C   0  0  0  0  0  0  0  0  0  0  0  0
    1.2049   15.4383   38.2916 C   0  0  0  0  0  0  0  0  0  0  0  0
    0.1296   15.2282   40.2457 C   0  0  0  0  0  0  0  0  0  0  0  0
    0.0568   14.5578   41.5482 C   0  0  0  0  0  0  0  0  0  0  0  0
    0.9529   13.5898   41.9494 C   0  0  0  0  0  0  0  0  0  0  0  0
    0.8650   12.9832   43.1679 C   0  0  0  0  0  0  0  0  0  0  0  0
   -0.1286   13.3019   44.0756 C   0  0  0  0  0  0  0  0  0  0  0  0
   -1.0401   14.2739   43.6900 C   0  0  0  0  0  0  0  0  0  0  0  0
   -0.9401   14.8842   42.4470 C   0  0  0  0  0  0  0  0  0  0  0  0
   -0.7786   16.2046   39.8720 C   0  0  0  0  0  0  0  0  0  0  0  0
    3.6360   16.8635   38.1927 C   0  0  0  0  0  0  0  0  0  0  0  0
    4.8145   17.5967   38.1216 C   0  0  0  0  0  0  0  0  0  0  0  0
    2.0525   15.3979   37.0937 N   0  0  0  0  0  0  0  0  0  0  0  0
    1.0391   14.9867   39.3282 N   0  0  0  0  0  0  0  0  0  0  0  0
    7.5543   18.4393   35.7581 O   0  0  0  0  0  0  0  0  0  0  0  0
    7.1059   19.0124   37.9693 O   0  0  0  0  0  0  0  0  0  0  0  0
    5.2049   18.2944   39.2611 O   0  0  0  0  0  0  0  0  0  0  0  0
   -0.2429   16.6997   38.2137 S   0  0  0  0  0  0  0  0  0  0  0  0
   -0.2350   12.5146   45.6464 Cl  0  0  0  0  0  0  0  0  0  0  0  0
    5.7294   16.9438   34.9387 H   0  0  0  0  0  0  0  0  0  0  0  0
    3.6400   15.6206   34.9991 H   0  0  0  0  0  0  0  0  0  0  0  0
    1.7620   13.3030   41.2616 H   0  0  0  0  0  0  0  0  0  0  0  0
    1.6054   12.2264   43.4211 H   0  0  0  0  0  0  0  0  0  0  0  0
   -1.8352   14.5591   44.3646 H   0  0  0  0  0  0  0  0  0  0  0  0
   -1.6781   15.6377   42.1938 H   0  0  0  0  0  0  0  0  0  0  0  0
   -1.6248   16.6182   40.3916 H   0  0  0  0  0  0  0  0  0  0  0  0
    3.0368   16.8273   39.0891 H   0  0  0  0  0  0  0  0  0  0  0  0
    1.7240   14.8018   36.3327 H   0  0  0  0  0  0  0  0  0  0  0  0
  1  2  1  0
  1 19  1  0
  1 20  2  0
  2  3  1  0
  2 16  2  0
  3  4  2  0
  4  5  1  0
  5 15  2  0
  5 17  1  0
  6 17  1  0
  6 18  2  0
  6 22  1  0
  7  8  1  0
  7 14  2  0
  7 18  1  0
  8  9  1  0
  8 13  2  0
  9 10  2  0
 10 11  1  0
 11 12  2  0
 11 23  1  0
 12 13  1  0
 14 22  1  0
 15 16  1  0
 16 21  1  0
  3 24  1  0
  4 25  1  0
  9 26  1  0
 10 27  1  0
 12 28  1  0
 13 29  1  0
 14 30  1  0
 15 31  1  0
 17 32  1  0
M  CHG  2  19  -1  21  -1
M  END
>  <mol_id>  (80) 
2026-08-23-6tgu-s0-n100-r7-0080

>  <rmsd_to_ref>  (80) 
4.081632653061796

$$$$
6tgu.A
     RDKit          3D

 32 34  0  0  0  0  0  0  0  0999 V2000
    2.9309   16.0498   36.4456 C   0  0  0  0  0  0  0  0  0  0  0  0
    3.4318   16.1430   37.8896 C   0  0  0  0  0  0  0  0  0  0  0  0
    4.5432   16.9218   38.2038 C   0  0  0  0  0  0  0  0  0  0  0  0
    4.9157   17.1838   39.5264 C   0  0  0  0  0  0  0  0  0  0  0  0
    4.2760   16.5194   40.5828 C   0  0  0  0  0  0  0  0  0  0  0  0
    3.8680   16.6978   43.0858 C   0  0  0  0  0  0  0  0  0  0  0  0
    2.1292   16.0771   44.4152 C   0  0  0  0  0  0  0  0  0  0  0  0
    0.8679   15.4016   44.7219 C   0  0  0  0  0  0  0  0  0  0  0  0
    0.2229   15.5567   45.9571 C   0  0  0  0  0  0  0  0  0  0  0  0
   -0.9931   14.9319   46.2156 C   0  0  0  0  0  0  0  0  0  0  0  0
   -1.5816   14.1854   45.2122 C   0  0  0  0  0  0  0  0  0  0  0  0
   -0.9814   14.0104   43.9744 C   0  0  0  0  0  0  0  0  0  0  0  0
    0.2406   14.6344   43.7390 C   0  0  0  0  0  0  0  0  0  0  0  0
    2.7943   16.8924   45.2924 C   0  0  0  0  0  0  0  0  0  0  0  0
    3.1487   15.7407   40.2849 C   0  0  0  0  0  0  0  0  0  0  0  0
    2.7559   15.5637   38.9569 C   0  0  0  0  0  0  0  0  0  0  0  0
    4.6005   16.8232   41.9407 N   0  0  0  0  0  0  0  0  0  0  0  0
    2.6695   16.0167   43.1089 N   0  0  0  0  0  0  0  0  0  0  0  0
    3.4677   16.8348   35.6097 O   0  0  0  0  0  0  0  0  0  0  0  0
    1.9806   15.2676   36.2246 O   0  0  0  0  0  0  0  0  0  0  0  0
    1.5913   14.8863   38.6836 O   0  0  0  0  0  0  0  0  0  0  0  0
    4.1322   17.6612   44.5265 S   0  0  0  0  0  0  0  0  0  0  0  0
   -3.1154   13.4350   45.5055 Cl  0  0  0  0  0  0  0  0  0  0  0  0
    5.1466   17.3437   37.3866 H   0  0  0  0  0  0  0  0  0  0  0  0
    5.7120   17.9125   39.7382 H   0  0  0  0  0  0  0  0  0  0  0  0
    0.6857   16.1825   46.7345 H   0  0  0  0  0  0  0  0  0  0  0  0
   -1.4765   15.0300   47.1988 H   0  0  0  0  0  0  0  0  0  0  0  0
   -1.4588   13.3943   43.1981 H   0  0  0  0  0  0  0  0  0  0  0  0
    0.7224   14.5203   42.7568 H   0  0  0  0  0  0  0  0  0  0  0  0
    2.5117   17.0369   46.3456 H   0  0  0  0  0  0  0  0  0  0  0  0
    2.5745   15.2698   41.0964 H   0  0  0  0  0  0  0  0  0  0  0  0
    5.5485   17.2013   42.0791 H   0  0  0  0  0  0  0  0  0  0  0  0
  1  2  1  0
  1 19  1  0
  1 20  2  0
  2  3  1  0
  2 16  2  0
  3  4  2  0
  4  5  1  0
  5 15  2  0
  5 17  1  0
  6 17  1  0
  6 18  2  0
  6 22  1  0
  7  8  1  0
  7 14  2  0
  7 18  1  0
  8  9  1  0
  8 13  2  0
  9 10  2  0
 10 11  1  0
 11 12  2  0
 11 23  1  0
 12 13  1  0
 14 22  1  0
 15 16  1  0
 16 21  1  0
  3 24  1  0
  4 25  1  0
  9 26  1  0
 10 27  1  0
 12 28  1  0
 13 29  1  0
 14 30  1  0
 15 31  1  0
 17 32  1  0
M  CHG  2  19  -1  21  -1
M  END
>  <mol_id>  (81) 
2026-08-23-6tgu-s0-n100-r7-0081

>  <rmsd_to_ref>  (81) 
4.127551020411652

$$$$
6tgu.A
     RDKit          3D

 32 34  0  0  0  0  0  0  0  0999 V2000
    7.2250   21.3251   39.6669 C   0  0  0  0  0  0  0  0  0  0  0  0
    6.3032   20.2271   39.9267 C   0  0  0  0  0  0  0  0  0  0  0  0
    5.0379   20.2820   39.3940 C   0  0  0  0  0  0  0  0  0  0  0  0
    4.1270   19.2616   39.6153 C   0  0  0  0  0  0  0  0  0  0  0  0
    4.4186   18.1500   40.3665 C   0  0  0  0  0  0  0  0  0  0  0  0
    2.1533   17.0963   40.7199 C   0  0  0  0  0  0  0  0  0  0  0  0
   -0.0167   16.5885   40.9182 C   0  0  0  0  0  0  0  0  0  0  0  0
   -1.0374   15.5409   41.1326 C   0  0  0  0  0  0  0  0  0  0  0  0
   -2.3870   15.8664   41.1587 C   0  0  0  0  0  0  0  0  0  0  0  0
   -3.3747   14.9245   41.3543 C   0  0  0  0  0  0  0  0  0  0  0  0
   -3.0270   13.5995   41.5333 C   0  0  0  0  0  0  0  0  0  0  0  0
   -1.6800   13.2384   41.5130 C   0  0  0  0  0  0  0  0  0  0  0  0
   -0.7222   14.2183   41.3130 C   0  0  0  0  0  0  0  0  0  0  0  0
   -0.3681   17.9035   40.7399 C   0  0  0  0  0  0  0  0  0  0  0  0
    5.7171   18.1136   40.9011 C   0  0  0  0  0  0  0  0  0  0  0  0
    6.6235   19.1241   40.6831 C   0  0  0  0  0  0  0  0  0  0  0  0
    3.5778   17.0881   40.6643 N   0  0  0  0  0  0  0  0  0  0  0  0
    1.2758   16.3764   40.8775 N   0  0  0  0  0  0  0  0  0  0  0  0
    8.5146   21.2534   40.2254 O   0  0  0  0  0  0  0  0  0  0  0  0
    6.8829   22.3208   38.9591 O   0  0  0  0  0  0  0  0  0  0  0  0
    7.9159   19.0809   41.2196 O   0  0  0  0  0  0  0  0  0  0  0  0
    1.2309   18.7395   40.5242 S   0  0  0  0  0  0  0  0  0  0  0  0
   -4.2707   12.3781   41.7849 Cl  0  0  0  0  0  0  0  0  0  0  0  0
    4.7743   21.1429   38.7970 H   0  0  0  0  0  0  0  0  0  0  0  0
    3.1678   19.3680   39.1588 H   0  0  0  0  0  0  0  0  0  0  0  0
   -2.6929   16.8974   41.0213 H   0  0  0  0  0  0  0  0  0  0  0  0
   -4.4017   15.2461   41.3628 H   0  0  0  0  0  0  0  0  0  0  0  0
   -1.3926   12.1997   41.6533 H   0  0  0  0  0  0  0  0  0  0  0  0
    0.3223   13.8995   41.3033 H   0  0  0  0  0  0  0  0  0  0  0  0
   -1.3192   18.4026   40.7187 H   0  0  0  0  0  0  0  0  0  0  0  0
    6.0249   17.2609   41.5108 H   0  0  0  0  0  0  0  0  0  0  0  0
    4.0073   16.1410   40.8798 H   0  0  0  0  0  0  0  0  0  0  0  0
  1  2  1  0
  1 19  1  0
  1 20  2  0
  2  3  1  0
  2 16  2  0
  3  4  2  0
  4  5  1  0
  5 15  2  0
  5 17  1  0
  6 17  1  0
  6 18  2  0
  6 22  1  0
  7  8  1  0
  7 14  2  0
  7 18  1  0
  8  9  1  0
  8 13  2  0
  9 10  2  0
 10 11  1  0
 11 12  2  0
 11 23  1  0
 12 13  1  0
 14 22  1  0
 15 16  1  0
 16 21  1  0
  3 24  1  0
  4 25  1  0
  9 26  1  0
 10 27  1  0
 12 28  1  0
 13 29  1  0
 14 30  1  0
 15 31  1  0
 17 32  1  0
M  CHG  2  19  -1  21  -1
M  END
>  <mol_id>  (82) 
2026-08-23-6tgu-s0-n100-r7-0082

>  <rmsd_to_ref>  (82) 
4.173469387761401

$$$$
6tgu.A
     RDKit          3D

 32 34  0  0  0  0  0  0  0  0999 V2000
    6.5910   16.7354   39.7867 C   0  0  0  0  0  0  0  0  0  0  0  0
    5.1543   17.2318   39.6016 C   0  0  0  0  0  0  0  0  0  0  0  0
    4.8799   18.3038   38.7553 C   0  0  0  0  0  0  0  0  0  0  0  0
    3.5721   18.6635   38.4137 C   0  0  0  0  0  0  0  0  0  0  0  0
    2.4840   18.0577   39.0585 C   0  0  0  0  0  0  0  0  0  0  0  0
   -0.0091   17.6426   38.7835 C   0  0  0  0  0  0  0  0  0  0  0  0
   -1.3708   15.9371   39.4259 C   0  0  0  0  0  0  0  0  0  0  0  0
   -1.7121   14.7107   40.1474 C   0  0  0  0  0  0  0  0  0  0  0  0
   -2.9406   14.0593   39.9666 C   0  0  0  0  0  0  0  0  0  0  0  0
   -3.2313   12.8756   40.6376 C   0  0  0  0  0  0  0  0  0  0  0  0
   -2.2655   12.3241   41.4583 C   0  0  0  0  0  0  0  0  0  0  0  0
   -1.0355   12.9316   41.6612 C   0  0  0  0  0  0  0  0  0  0  0  0
   -0.7679   14.1214   40.9897 C   0  0  0  0  0  0  0  0  0  0  0  0
   -2.2071   16.5616   38.5388 C   0  0  0  0  0  0  0  0  0  0  0  0
    2.7421   16.9699   39.9048 C   0  0  0  0  0  0  0  0  0  0  0  0
    4.0593   16.5857   40.1627 C   0  0  0  0  0  0  0  0  0  0  0  0
    1.1427   18.3675   38.6760 N   0  0  0  0  0  0  0  0  0  0  0  0
   -0.0672   16.4790   39.5208 N   0  0  0  0  0  0  0  0  0  0  0  0
    7.4642   17.2327   39.0163 O   0  0  0  0  0  0  0  0  0  0  0  0
    6.7727   15.8247   40.6241 O   0  0  0  0  0  0  0  0  0  0  0  0
    4.2975   15.4558   40.9086 O   0  0  0  0  0  0  0  0  0  0  0  0
   -1.4024   17.8597   37.7419 S   0  0  0  0  0  0  0  0  0  0  0  0
   -2.5977   10.8292   42.2685 Cl  0  0  0  0  0  0  0  0  0  0  0  0
    5.7176   18.8853   38.3429 H   0  0  0  0  0  0  0  0  0  0  0  0
    3.3967   19.4231   37.6376 H   0  0  0  0  0  0  0  0  0  0  0  0
   -3.6865   14.4911   39.2831 H   0  0  0  0  0  0  0  0  0  0  0  0
   -4.2102   12.3885   40.5175 H   0  0  0  0  0  0  0  0  0  0  0  0
   -0.2902   12.4848   42.3357 H   0  0  0  0  0  0  0  0  0  0  0  0
    0.2092   14.6078   41.1258 H   0  0  0  0  0  0  0  0  0  0  0  0
   -3.2532   16.2727   38.3592 H   0  0  0  0  0  0  0  0  0  0  0  0
    1.9079   16.4200   40.3648 H   0  0  0  0  0  0  0  0  0  0  0  0
    1.0247   19.2958   38.2457 H   0  0  0  0  0  0  0  0  0  0  0  0
  1  2  1  0
  1 19  1  0
  1 20  2  0
  2  3  1  0
  2 16  2  0
  3  4  2  0
  4  5  1  0
  5 15  2  0
  5 17  1  0
  6 17  1  0
  6 18  2  0
  6 22  1  0
  7  8  1  0
  7 14  2  0
  7 18  1  0
  8  9  1  0
  8 13  2  0
  9 10  2  0
 10 11  1  0
 11 12  2  0
 11 23  1  0
 12 13  1  0
 14 22  1  0
 15 16  1  0
 16 21  1  0
  3 24  1  0
  4 25  1  0
  9 26  1  0
 10 27  1  0
 12 28  1  0
 13 29  1  0
 14 30  1  0
 15 31  1  0
 17 32  1  0
M  CHG  2  19  -1  21  -1
M  END
>  <mol_id>  (83) 
2026-08-23-6tgu-s0-n100-r7-0083

>  <rmsd_to_ref>  (83) 
4.219387755106682

$$$$
6tgu.A
     RDKit          3D

 32 34  0  0  0  0  0  0  0  0999 V2000
    2.4849   18.7111   34.5682 C   0  0  0  0  0  0  0  0  0  0  0  0
    2.6219   18.5267   35.9938 C   0  0  0  0  0  0  0  0  0  0  0  0
    3.6813   19.0448   36.7034 C   0  0  0  0  0  0  0  0  0  0  0  0
    3.7827   18.8529   38.0588 C   0  0  0  0  0  0  0  0  0  0  0  0
    2.8384   18.1358   38.7875 C   0  0  0  0  0  0  0  0  0  0  0  0
    2.1161   17.7126   41.1625 C   0  0  0  0  0  0  0  0  0  0  0  0
    1.1077   17.2931   43.1330 C   0  0  0  0  0  0  0  0  0  0  0  0
    1.2341   17.1012   44.5937 C   0  0  0  0  0  0  0  0  0  0  0  0
    0.1264   16.8447   45.3672 C   0  0  0  0  0  0  0  0  0  0  0  0
    0.2180   16.6694   46.7309 C   0  0  0  0  0  0  0  0  0  0  0  0
    1.4387   16.7450   47.3800 C   0  0  0  0  0  0  0  0  0  0  0  0
    2.5609   17.0026   46.6099 C   0  0  0  0  0  0  0  0  0  0  0  0
    2.4471   17.1755   45.2433 C   0  0  0  0  0  0  0  0  0  0  0  0
   -0.1275   17.2315   42.5006 C   0  0  0  0  0  0  0  0  0  0  0  0
    1.7900   17.6267   38.0626 C   0  0  0  0  0  0  0  0  0  0  0  0
    1.6789   17.8182   36.6789 C   0  0  0  0  0  0  0  0  0  0  0  0
    3.0489   17.9946   40.1616 N   0  0  0  0  0  0  0  0  0  0  0  0
    2.1157   17.5366   42.3460 N   0  0  0  0  0  0  0  0  0  0  0  0
    3.3836   19.4120   33.7798 O   0  0  0  0  0  0  0  0  0  0  0  0
    1.4832   18.2015   34.0052 O   0  0  0  0  0  0  0  0  0  0  0  0
    0.5806   17.2708   35.9990 O   0  0  0  0  0  0  0  0  0  0  0  0
    0.2798   17.5359   40.7968 S   0  0  0  0  0  0  0  0  0  0  0  0
    1.4981   16.5176   49.1047 Cl  0  0  0  0  0  0  0  0  0  0  0  0
    4.4351   19.6070   36.1769 H   0  0  0  0  0  0  0  0  0  0  0  0
    4.6442   19.2893   38.5553 H   0  0  0  0  0  0  0  0  0  0  0  0
   -0.8687   16.7692   44.9379 H   0  0  0  0  0  0  0  0  0  0  0  0
   -0.6796   16.4684   47.3102 H   0  0  0  0  0  0  0  0  0  0  0  0
    3.5054   17.0583   47.1352 H   0  0  0  0  0  0  0  0  0  0  0  0
    3.3387   17.3731   44.6822 H   0  0  0  0  0  0  0  0  0  0  0  0
   -1.0876   17.0490   42.9140 H   0  0  0  0  0  0  0  0  0  0  0  0
    1.0234   17.0576   38.5180 H   0  0  0  0  0  0  0  0  0  0  0  0
    4.0552   18.1108   40.5072 H   0  0  0  0  0  0  0  0  0  0  0  0
  1  2  1  0
  1 19  1  0
  1 20  2  0
  2  3  1  0
  2 16  2  0
  3  4  2  0
  4  5  1  0
  5 15  2  0
  5 17  1  0
  6 17  1  0
  6 18  2  0
  6 22  1  0
  7  8  1  0
  7 14  2  0
  7 18  1  0
  8  9  1  0
  8 13  2  0
  9 10  2  0
 10 11  1  0
 11 12  2  0
 11 23  1  0
 12 13  1  0
 14 22  1  0
 15 16  1  0
 16 21  1  0
  3 24  1  0
  4 25  1  0
  9 26  1  0
 10 27  1  0
 12 28  1  0
 13 29  1  0
 14 30  1  0
 15 31  1  0
 17 32  1  0
M  CHG  2  19  -1  21  -1
M  END
>  <mol_id>  (84) 
2026-08-23-6tgu-s0-n100-r7-0084

>  <rmsd_to_ref>  (84) 
4.265306122456208

$$$$
6tgu.A
     RDKit          3D

 32 34  0  0  0  0  0  0  0  0999 V2000
    3.4785   14.7224   35.6411 C   0  0  0  0  0  0  0  0  0  0  0  0
    3.1748   15.8816   36.5943 C   0  0  0  0  0  0  0  0  0  0  0  0
    3.2595   17.2005   36.1536 C   0  0  0  0  0  0  0  0  0  0  0  0
    2.8098   18.2729   36.9309 C   0  0  0  0  0  0  0  0  0  0  0  0
    2.4173   18.0627   38.2607 C   0  0  0  0  0  0  0  0  0  0  0  0
    1.0553   19.1304   40.1231 C   0  0  0  0  0  0  0  0  0  0  0  0
   -0.1828   18.2629   41.8231 C   0  0  0  0  0  0  0  0  0  0  0  0
   -0.6755   17.1978   42.6972 C   0  0  0  0  0  0  0  0  0  0  0  0
   -1.6782   17.4233   43.6510 C   0  0  0  0  0  0  0  0  0  0  0  0
   -2.1559   16.3883   44.4489 C   0  0  0  0  0  0  0  0  0  0  0  0
   -1.6536   15.1153   44.2549 C   0  0  0  0  0  0  0  0  0  0  0  0
   -0.6659   14.8468   43.3194 C   0  0  0  0  0  0  0  0  0  0  0  0
   -0.1928   15.8978   42.5385 C   0  0  0  0  0  0  0  0  0  0  0  0
   -0.6312   19.5566   41.8649 C   0  0  0  0  0  0  0  0  0  0  0  0
    2.3160   16.7406   38.7165 C   0  0  0  0  0  0  0  0  0  0  0  0
    2.6989   15.6863   37.8854 C   0  0  0  0  0  0  0  0  0  0  0  0
    1.8955   19.1354   39.0470 N   0  0  0  0  0  0  0  0  0  0  0  0
    0.7181   17.9628   40.7741 N   0  0  0  0  0  0  0  0  0  0  0  0
    3.6392   15.0213   34.4213 O   0  0  0  0  0  0  0  0  0  0  0  0
    3.4637   13.5702   36.1270 O   0  0  0  0  0  0  0  0  0  0  0  0
    2.4975   14.3921   38.3029 O   0  0  0  0  0  0  0  0  0  0  0  0
    0.0300   20.4805   40.5698 S   0  0  0  0  0  0  0  0  0  0  0  0
   -2.2681   13.8090   45.2129 Cl  0  0  0  0  0  0  0  0  0  0  0  0
    3.6935   17.4048   35.1637 H   0  0  0  0  0  0  0  0  0  0  0  0
    2.7639   19.2831   36.4981 H   0  0  0  0  0  0  0  0  0  0  0  0
   -2.0940   18.4347   43.7704 H   0  0  0  0  0  0  0  0  0  0  0  0
   -2.9180   16.5794   45.2188 H   0  0  0  0  0  0  0  0  0  0  0  0
   -0.2663   13.8293   43.1973 H   0  0  0  0  0  0  0  0  0  0  0  0
    0.5784   15.6994   41.7797 H   0  0  0  0  0  0  0  0  0  0  0  0
   -1.3214   19.9528   42.6242 H   0  0  0  0  0  0  0  0  0  0  0  0
    1.9352   16.5343   39.7277 H   0  0  0  0  0  0  0  0  0  0  0  0
    2.2060   20.0720   38.7517 H   0  0  0  0  0  0  0  0  0  0  0  0
  1  2  1  0
  1 19  1  0
  1 20  2  0
  2  3  1  0
  2 16  2  0
  3  4  2  0
  4  5  1  0
  5 15  2  0
  5 17  1  0
  6 17  1  0
  6 18  2  0
  6 22  1  0
  7  8  1  0
  7 14  2  0
  7 18  1  0
  8  9  1  0
  8 13  2  0
  9 10  2  0
 10 11  1  0
 11 12  2  0
 11 23  1  0
 12 13  1  0
 14 22  1  0
 15 16  1  0
 16 21  1  0
  3 24  1  0
  4 25  1  0
  9 26  1  0
 10 27  1  0
 12 28  1  0
 13 29  1  0
 14 30  1  0
 15 31  1  0
 17 32  1  0
M  CHG  2  19  -1  21  -1
M  END
>  <mol_id>  (85) 
2026-08-23-6tgu-s0-n100-r7-0085

>  <rmsd_to_ref>  (85) 
4.311224489798754

$$$$
6tgu.A
     RDKit          3D

 32 34  0  0  0  0  0  0  0  0999 V2000
   -2.1336   17.7378   35.6602 C   0  0  0  0  0  0  0  0  0  0  0  0
   -1.1233   17.1771   36.5530 C   0  0  0  0  0  0  0  0  0  0  0  0
   -1.1171   17.5330   37.8766 C   0  0  0  0  0  0  0  0  0  0  0  0
   -0.1607   17.0049   38.7198 C   0  0  0  0  0  0  0  0  0  0  0  0
    0.8079   16.1213   38.2928 C   0  0  0  0  0  0  0  0  0  0  0  0
    1.7956   15.7938   40.5563 C   0  0  0  0  0  0  0  0  0  0  0  0
    1.7060   15.4685   42.8211 C   0  0  0  0  0  0  0  0  0  0  0  0
    1.5968   14.5818   43.9936 C   0  0  0  0  0  0  0  0  0  0  0  0
    1.4685   13.2147   43.7877 C   0  0  0  0  0  0  0  0  0  0  0  0
    1.3772   12.3593   44.8649 C   0  0  0  0  0  0  0  0  0  0  0  0
    1.4101   12.8268   46.1643 C   0  0  0  0  0  0  0  0  0  0  0  0
    1.5391   14.2039   46.3581 C   0  0  0  0  0  0  0  0  0  0  0  0
    1.6277   15.0356   45.2820 C   0  0  0  0  0  0  0  0  0  0  0  0
    1.8461   16.8974   43.0727 C   0  0  0  0  0  0  0  0  0  0  0  0
    0.7983   15.7628   36.9512 C   0  0  0  0  0  0  0  0  0  0  0  0
   -0.1526   16.2872   36.1113 C   0  0  0  0  0  0  0  0  0  0  0  0
    1.8002   15.5844   39.1895 N   0  0  0  0  0  0  0  0  0  0  0  0
    1.7009   15.1254   41.6117 N   0  0  0  0  0  0  0  0  0  0  0  0
   -2.2006   17.4170   34.3171 O   0  0  0  0  0  0  0  0  0  0  0  0
   -2.9951   18.5488   36.0970 O   0  0  0  0  0  0  0  0  0  0  0  0
   -0.1403   15.9122   34.7724 O   0  0  0  0  0  0  0  0  0  0  0  0
    1.9564   17.5324   41.2910 S   0  0  0  0  0  0  0  0  0  0  0  0
    1.3033   11.8050   47.5616 Cl  0  0  0  0  0  0  0  0  0  0  0  0
   -1.8837   18.2302   38.2054 H   0  0  0  0  0  0  0  0  0  0  0  0
   -0.1949   17.3147   39.7617 H   0  0  0  0  0  0  0  0  0  0  0  0
    1.4380   12.8030   42.7798 H   0  0  0  0  0  0  0  0  0  0  0  0
    1.2776   11.3016   44.7245 H   0  0  0  0  0  0  0  0  0  0  0  0
    1.5710   14.6273   47.3375 H   0  0  0  0  0  0  0  0  0  0  0  0
    1.7283   16.1130   45.4721 H   0  0  0  0  0  0  0  0  0  0  0  0
    1.8812   17.4397   43.8669 H   0  0  0  0  0  0  0  0  0  0  0  0
    1.5184   15.0828   36.5542 H   0  0  0  0  0  0  0  0  0  0  0  0
    2.5616   15.0031   38.7650 H   0  0  0  0  0  0  0  0  0  0  0  0
  1  2  1  0
  1 19  1  0
  1 20  2  0
  2  3  1  0
  2 16  2  0
  3  4  2  0
  4  5  1  0
  5 15  2  0
  5 17  1  0
  6 17  1  0
  6 18  2  0
  6 22  1  0
  7  8  1  0
  7 14  2  0
  7 18  1  0
  8  9  1  0
  8 13  2  0
  9 10  2  0
 10 11  1  0
 11 12  2  0
 11 23  1  0
 12 13  1  0
 14 22  1  0
 15 16  1  0
 16 21  1  0
  3 24  1  0
  4 25  1  0
  9 26  1  0
 10 27  1  0
 12 28  1  0
 13 29  1  0
 14 30  1  0
 15 31  1  0
 17 32  1  0
M  CHG  2  19  -1  21  -1
M  END
>  <mol_id>  (86) 
2026-08-23-6tgu-s0-n100-r7-0086

>  <rmsd_to_ref>  (86) 
4.357142857146976

$$$$
6tgu.A
     RDKit          3D

 32 34  0  0  0  0  0  0  0  0999 V2000
    0.2239   14.8000   35.0822 C   0  0  0  0  0  0  0  0  0  0  0  0
    0.2909   15.9868   36.0475 C   0  0  0  0  0  0  0  0  0  0  0  0
   -0.3592   17.1814   35.7459 C   0  0  0  0  0  0  0  0  0  0  0  0
   -0.4810   18.2160   36.6792 C   0  0  0  0  0  0  0  0  0  0  0  0
    0.2065   18.1479   37.8996 C   0  0  0  0  0  0  0  0  0  0  0  0
    0.1932   19.1279   40.2454 C   0  0  0  0  0  0  0  0  0  0  0  0
    0.7622   18.2779   42.2775 C   0  0  0  0  0  0  0  0  0  0  0  0
    1.3461   17.2922   43.1879 C   0  0  0  0  0  0  0  0  0  0  0  0
    1.2338   17.4086   44.5806 C   0  0  0  0  0  0  0  0  0  0  0  0
    1.7676   16.4420   45.4273 C   0  0  0  0  0  0  0  0  0  0  0  0
    2.3768   15.3343   44.8685 C   0  0  0  0  0  0  0  0  0  0  0  0
    2.5046   15.1764   43.4967 C   0  0  0  0  0  0  0  0  0  0  0  0
    1.9741   16.1599   42.6665 C   0  0  0  0  0  0  0  0  0  0  0  0
    0.0814   19.3926   42.6902 C   0  0  0  0  0  0  0  0  0  0  0  0
    0.8565   16.9484   38.2234 C   0  0  0  0  0  0  0  0  0  0  0  0
    0.8916   15.9037   37.2980 C   0  0  0  0  0  0  0  0  0  0  0  0
    0.0419   19.1652   38.8892 N   0  0  0  0  0  0  0  0  0  0  0  0
    0.7656   18.0469   40.8815 N   0  0  0  0  0  0  0  0  0  0  0  0
   -0.5748   14.9102   34.1059 O   0  0  0  0  0  0  0  0  0  0  0  0
    0.8991   13.7899   35.3780 O   0  0  0  0  0  0  0  0  0  0  0  0
    1.4397   14.6974   37.6645 O   0  0  0  0  0  0  0  0  0  0  0  0
   -0.6251   20.2146   41.3512 S   0  0  0  0  0  0  0  0  0  0  0  0
    3.0099   14.1026   45.9094 Cl  0  0  0  0  0  0  0  0  0  0  0  0
   -0.7902   17.3151   34.7427 H   0  0  0  0  0  0  0  0  0  0  0  0
   -1.1174   19.0849   36.4555 H   0  0  0  0  0  0  0  0  0  0  0  0
    0.7153   18.2781   45.0109 H   0  0  0  0  0  0  0  0  0  0  0  0
    1.7060   16.5571   46.5195 H   0  0  0  0  0  0  0  0  0  0  0  0
    3.0123   14.2962   43.0752 H   0  0  0  0  0  0  0  0  0  0  0  0
    2.0515   16.0422   41.5756 H   0  0  0  0  0  0  0  0  0  0  0  0
   -0.0030   19.7193   43.7372 H   0  0  0  0  0  0  0  0  0  0  0  0
    1.3382   16.8307   39.2053 H   0  0  0  0  0  0  0  0  0  0  0  0
   -0.2388   20.0831   38.5156 H   0  0  0  0  0  0  0  0  0  0  0  0
  1  2  1  0
  1 19  1  0
  1 20  2  0
  2  3  1  0
  2 16  2  0
  3  4  2  0
  4  5  1  0
  5 15  2  0
  5 17  1  0
  6 17  1  0
  6 18  2  0
  6 22  1  0
  7  8  1  0
  7 14  2  0
  7 18  1  0
  8  9  1  0
  8 13  2  0
  9 10  2  0
 10 11  1  0
 11 12  2  0
 11 23  1  0
 12 13  1  0
 14 22  1  0
 15 16  1  0
 16 21  1  0
  3 24  1  0
  4 25  1  0
  9 26  1  0
 10 27  1  0
 12 28  1  0
 13 29  1  0
 14 30  1  0
 15 31  1  0
 17 32  1  0
M  CHG  2  19  -1  21  -1
M  END
>  <mol_id>  (87) 
2026-08-23-6tgu-s0-n100-r7-0087

>  <rmsd_to_ref>  (87) 
4.4030612244964935

$$$$
6tgu.A
     RDKit          3D

 32 34  0  0  0  0  0  0  0  0999 V2000
    6.9361   18.9091   36.4781 C   0  0  0  0  0  0  0  0  0  0  0  0
    5.8472   18.8109   37.4353 C   0  0  0  0  0  0  0  0  0  0  0  0
    5.3585   19.9203   38.0905 C   0  0  0  0  0  0  0  0  0  0  0  0
    4.3304   19.8611   39.0005 C   0  0  0  0  0  0  0  0  0  0  0  0
    3.7180   18.6387   39.3101 C   0  0  0  0  0  0  0  0  0  0  0  0
    1.6988   17.6631   40.4285 C   0  0  0  0  0  0  0  0  0  0  0  0
   -0.1106   16.6474   41.3599 C   0  0  0  0  0  0  0  0  0  0  0  0
   -1.2005   16.6025   42.3731 C   0  0  0  0  0  0  0  0  0  0  0  0
   -1.3203   17.6179   43.3002 C   0  0  0  0  0  0  0  0  0  0  0  0
   -2.3192   17.5991   44.2456 C   0  0  0  0  0  0  0  0  0  0  0  0
   -3.2194   16.5665   44.2853 C   0  0  0  0  0  0  0  0  0  0  0  0
   -3.0788   15.5563   43.3424 C   0  0  0  0  0  0  0  0  0  0  0  0
   -2.0818   15.5627   42.3890 C   0  0  0  0  0  0  0  0  0  0  0  0
    0.0072   15.6089   40.4154 C   0  0  0  0  0  0  0  0  0  0  0  0
    4.2139   17.5436   38.6518 C   0  0  0  0  0  0  0  0  0  0  0  0
    5.2518   17.6030   37.7329 C   0  0  0  0  0  0  0  0  0  0  0  0
    2.6922   18.6643   40.2486 N   0  0  0  0  0  0  0  0  0  0  0  0
    0.7500   17.5866   41.2819 N   0  0  0  0  0  0  0  0  0  0  0  0
    7.3838   17.7556   35.8511 O   0  0  0  0  0  0  0  0  0  0  0  0
    7.5005   20.0109   36.1872 O   0  0  0  0  0  0  0  0  0  0  0  0
    5.7043   16.4384   37.0993 O   0  0  0  0  0  0  0  0  0  0  0  0
    1.4668   16.1801   39.4657 S   0  0  0  0  0  0  0  0  0  0  0  0
   -4.5147   16.4577   45.4436 Cl  0  0  0  0  0  0  0  0  0  0  0  0
    5.8094   20.8888   37.8760 H   0  0  0  0  0  0  0  0  0  0  0  0
    4.0055   20.7877   39.4731 H   0  0  0  0  0  0  0  0  0  0  0  0
   -0.6433   18.4494   43.3141 H   0  0  0  0  0  0  0  0  0  0  0  0
   -2.4431   18.3812   44.9902 H   0  0  0  0  0  0  0  0  0  0  0  0
   -3.7674   14.7338   43.3465 H   0  0  0  0  0  0  0  0  0  0  0  0
   -2.0314   14.7365   41.6801 H   0  0  0  0  0  0  0  0  0  0  0  0
   -0.5464   14.7210   40.2388 H   0  0  0  0  0  0  0  0  0  0  0  0
    3.8073   16.5649   38.8368 H   0  0  0  0  0  0  0  0  0  0  0  0
    2.6237   19.4845   40.8961 H   0  0  0  0  0  0  0  0  0  0  0  0
  1  2  1  0
  1 19  1  0
  1 20  2  0
  2  3  1  0
  2 16  2  0
  3  4  2  0
  4  5  1  0
  5 15  2  0
  5 17  1  0
  6 17  1  0
  6 18  2  0
  6 22  1  0
  7  8  1  0
  7 14  2  0
  7 18  1  0
  8  9  1  0
  8 13  2  0
  9 10  2  0
 10 11  1  0
 11 12  2  0
 11 23  1  0
 12 13  1  0
 14 22  1  0
 15 16  1  0
 16 21  1  0
  3 24  1  0
  4 25  1  0
  9 26  1  0
 10 27  1  0
 12 28  1  0
 13 29  1  0
 14 30  1  0
 15 31  1  0
 17 32  1  0
M  CHG  2  19  -1  21  -1
M  END
>  <mol_id>  (88) 
2026-08-23-6tgu-s0-n100-r7-0088

>  <rmsd_to_ref>  (88) 
4.448979591840665

$$$$
6tgu.A
     RDKit          3D

 32 34  0  0  0  0  0  0  0  0999 V2000
    5.2278   14.1553   37.9069 C   0  0  0  0  0  0  0  0  0  0  0  0
    4.5955   15.1573   38.8769 C   0  0  0  0  0  0  0  0  0  0  0  0
    5.0060   16.4885   38.8859 C   0  0  0  0  0  0  0  0  0  0  0  0
    4.3275   17.4693   39.6167 C   0  0  0  0  0  0  0  0  0  0  0  0
    3.3085   17.1040   40.5083 C   0  0  0  0  0  0  0  0  0  0  0  0
    1.3025   18.0688   41.7366 C   0  0  0  0  0  0  0  0  0  0  0  0
   -0.6892   17.1777   42.3804 C   0  0  0  0  0  0  0  0  0  0  0  0
   -1.6446   16.0948   42.6166 C   0  0  0  0  0  0  0  0  0  0  0  0
   -2.9640   16.3427   43.0210 C   0  0  0  0  0  0  0  0  0  0  0  0
   -3.8659   15.2997   43.2074 C   0  0  0  0  0  0  0  0  0  0  0  0
   -3.4501   14.0083   42.9432 C   0  0  0  0  0  0  0  0  0  0  0  0
   -2.1565   13.7187   42.5360 C   0  0  0  0  0  0  0  0  0  0  0  0
   -1.2657   14.7750   42.3662 C   0  0  0  0  0  0  0  0  0  0  0  0
   -0.9809   18.5058   42.5459 C   0  0  0  0  0  0  0  0  0  0  0  0
    2.8758   15.7703   40.5035 C   0  0  0  0  0  0  0  0  0  0  0  0
    3.5251   14.8305   39.7009 C   0  0  0  0  0  0  0  0  0  0  0  0
    2.5632   18.0983   41.2135 N   0  0  0  0  0  0  0  0  0  0  0  0
    0.5831   16.8964   41.8288 N   0  0  0  0  0  0  0  0  0  0  0  0
    6.0000   14.6333   37.0247 O   0  0  0  0  0  0  0  0  0  0  0  0
    4.8700   12.9617   38.0118 O   0  0  0  0  0  0  0  0  0  0  0  0
    3.0276   13.5513   39.6248 O   0  0  0  0  0  0  0  0  0  0  0  0
    0.3167   19.4955   41.9938 S   0  0  0  0  0  0  0  0  0  0  0  0
   -4.5739   12.7032   43.1314 Cl  0  0  0  0  0  0  0  0  0  0  0  0
    5.8912   16.7772   38.3002 H   0  0  0  0  0  0  0  0  0  0  0  0
    4.5937   18.5292   39.4918 H   0  0  0  0  0  0  0  0  0  0  0  0
   -3.2915   17.3785   43.1938 H   0  0  0  0  0  0  0  0  0  0  0  0
   -4.8893   15.4989   43.5580 H   0  0  0  0  0  0  0  0  0  0  0  0
   -1.8422   12.6807   42.3519 H   0  0  0  0  0  0  0  0  0  0  0  0
   -0.2406   14.5648   42.0272 H   0  0  0  0  0  0  0  0  0  0  0  0
   -1.9187   18.8893   42.9742 H   0  0  0  0  0  0  0  0  0  0  0  0
    2.0257   15.4649   41.1313 H   0  0  0  0  0  0  0  0  0  0  0  0
    3.0620   18.9890   41.3505 H   0  0  0  0  0  0  0  0  0  0  0  0
  1  2  1  0
  1 19  1  0
  1 20  2  0
  2  3  1  0
  2 16  2  0
  3  4  2  0
  4  5  1  0
  5 15  2  0
  5 17  1  0
  6 17  1  0
  6 18  2  0
  6 22  1  0
  7  8  1  0
  7 14  2  0
  7 18  1  0
  8  9  1  0
  8 13  2  0
  9 10  2  0
 10 11  1  0
 11 12  2  0
 11 23  1  0
 12 13  1  0
 14 22  1  0
 15 16  1  0
 16 21  1  0
  3 24  1  0
  4 25  1  0
  9 26  1  0
 10 27  1  0
 12 28  1  0
 13 29  1  0
 14 30  1  0
 15 31  1  0
 17 32  1  0
M  CHG  2  19  -1  21  -1
M  END
>  <mol_id>  (89) 
2026-08-23-6tgu-s0-n100-r7-0089

>  <rmsd_to_ref>  (89) 
4.494897959185566

$$$$
6tgu.A
     RDKit          3D

 32 34  0  0  0  0  0  0  0  0999 V2000
    4.9452   21.3949   39.4582 C   0  0  0  0  0  0  0  0  0  0  0  0
    4.4013   20.1086   39.8832 C   0  0  0  0  0  0  0  0  0  0  0  0
    5.1396   19.3039   40.7321 C   0  0  0  0  0  0  0  0  0  0  0  0
    4.6477   18.0779   41.1421 C   0  0  0  0  0  0  0  0  0  0  0  0
    3.3894   17.6640   40.6845 C   0  0  0  0  0  0  0  0  0  0  0  0
    1.4709   16.1197   40.7837 C   0  0  0  0  0  0  0  0  0  0  0  0
   -0.5462   15.5634   39.9204 C   0  0  0  0  0  0  0  0  0  0  0  0
   -1.3954   15.1437   38.7800 C   0  0  0  0  0  0  0  0  0  0  0  0
   -0.8742   14.9198   37.5309 C   0  0  0  0  0  0  0  0  0  0  0  0
   -1.6910   14.5380   36.4583 C   0  0  0  0  0  0  0  0  0  0  0  0
   -3.0649   14.3763   36.6387 C   0  0  0  0  0  0  0  0  0  0  0  0
   -3.5585   14.6018   37.8807 C   0  0  0  0  0  0  0  0  0  0  0  0
   -2.7539   14.9783   38.9383 C   0  0  0  0  0  0  0  0  0  0  0  0
   -1.1174   15.7924   41.1852 C   0  0  0  0  0  0  0  0  0  0  0  0
    2.6461   18.4804   39.8275 C   0  0  0  0  0  0  0  0  0  0  0  0
    3.1529   19.7008   39.4277 C   0  0  0  0  0  0  0  0  0  0  0  0
    2.8329   16.4042   41.0516 N   0  0  0  0  0  0  0  0  0  0  0  0
    0.7274   15.7552   39.8447 N   0  0  0  0  0  0  0  0  0  0  0  0
    4.2171   22.2035   38.6022 O   0  0  0  0  0  0  0  0  0  0  0  0
    6.0715   21.8133   39.8419 O   0  0  0  0  0  0  0  0  0  0  0  0
    2.4307   20.5285   38.5759 O   0  0  0  0  0  0  0  0  0  0  0  0
    0.2625   16.2754   42.1759 S   0  0  0  0  0  0  0  0  0  0  0  0
   -4.1207   13.8998   35.3227 Cl  0  0  0  0  0  0  0  0  0  0  0  0
    6.1171   19.6066   41.0991 H   0  0  0  0  0  0  0  0  0  0  0  0
    5.2012   17.4151   41.8133 H   0  0  0  0  0  0  0  0  0  0  0  0
    0.1646   15.0304   37.3468 H   0  0  0  0  0  0  0  0  0  0  0  0
   -1.2582   14.3676   35.4773 H   0  0  0  0  0  0  0  0  0  0  0  0
   -4.6209   14.4858   38.0640 H   0  0  0  0  0  0  0  0  0  0  0  0
   -3.2121   15.1367   39.8840 H   0  0  0  0  0  0  0  0  0  0  0  0
   -2.1331   15.7046   41.4946 H   0  0  0  0  0  0  0  0  0  0  0  0
    1.6655   18.1823   39.4589 H   0  0  0  0  0  0  0  0  0  0  0  0
    3.4362   15.6855   41.5219 H   0  0  0  0  0  0  0  0  0  0  0  0
  1  2  1  0
  1 19  1  0
  1 20  2  0
  2  3  1  0
  2 16  2  0
  3  4  2  0
  4  5  1  0
  5 15  2  0
  5 17  1  0
  6 17  1  0
  6 18  2  0
  6 22  1  0
  7  8  1  0
  7 14  2  0
  7 18  1  0
  8  9  1  0
  8 13  2  0
  9 10  2  0
 10 11  1  0
 11 12  2  0
 11 23  1  0
 12 13  1  0
 14 22  1  0
 15 16  1  0
 16 21  1  0
  3 24  1  0
  4 25  1  0
  9 26  1  0
 10 27  1  0
 12 28  1  0
 13 29  1  0
 14 30  1  0
 15 31  1  0
 17 32  1  0
M  CHG  2  19  -1  21  -1
M  END
>  <mol_id>  (90) 
2026-08-23-6tgu-s0-n100-r7-0090

>  <rmsd_to_ref>  (90) 
4.540816326534657

$$$$
6tgu.A
     RDKit          3D

 32 34  0  0  0  0  0  0  0  0999 V2000
    0.2422   20.8708   40.8790 C   0  0  0  0  0  0  0  0  0  0  0  0
    0.7374   19.5648   41.5065 C   0  0  0  0  0  0  0  0  0  0  0  0
    0.3180   19.1887   42.7806 C   0  0  0  0  0  0  0  0  0  0  0  0
    0.5934   17.9232   43.3090 C   0  0  0  0  0  0  0  0  0  0  0  0
    1.4582   17.0507   42.6325 C   0  0  0  0  0  0  0  0  0  0  0  0
    2.0803   14.5904   42.4814 C   0  0  0  0  0  0  0  0  0  0  0  0
    2.8082   13.2839   40.7670 C   0  0  0  0  0  0  0  0  0  0  0  0
    3.3190   13.0236   39.4207 C   0  0  0  0  0  0  0  0  0  0  0  0
    3.4873   11.7215   38.9285 C   0  0  0  0  0  0  0  0  0  0  0  0
    3.9427   11.4969   37.6331 C   0  0  0  0  0  0  0  0  0  0  0  0
    4.1866   12.5859   36.8177 C   0  0  0  0  0  0  0  0  0  0  0  0
    4.0279   13.8900   37.2618 C   0  0  0  0  0  0  0  0  0  0  0  0
    3.5823   14.0942   38.5648 C   0  0  0  0  0  0  0  0  0  0  0  0
    2.4708   12.3025   41.6611 C   0  0  0  0  0  0  0  0  0  0  0  0
    1.8804   17.4092   41.3443 C   0  0  0  0  0  0  0  0  0  0  0  0
    1.5210   18.6496   40.8138 C   0  0  0  0  0  0  0  0  0  0  0  0
    1.6988   15.7317   43.1260 N   0  0  0  0  0  0  0  0  0  0  0  0
    2.5100   14.6066   41.1715 N   0  0  0  0  0  0  0  0  0  0  0  0
   -0.6762   21.4830   41.4994 O   0  0  0  0  0  0  0  0  0  0  0  0
    0.7246   21.1849   39.7689 O   0  0  0  0  0  0  0  0  0  0  0  0
    1.8516   18.9471   39.5131 O   0  0  0  0  0  0  0  0  0  0  0  0
    1.7297   12.9744   43.0637 S   0  0  0  0  0  0  0  0  0  0  0  0
    4.7148   12.3211   35.1891 Cl  0  0  0  0  0  0  0  0  0  0  0  0
   -0.2473   19.9092   43.3900 H   0  0  0  0  0  0  0  0  0  0  0  0
    0.1307   17.6118   44.2571 H   0  0  0  0  0  0  0  0  0  0  0  0
    3.2557   10.8637   39.5770 H   0  0  0  0  0  0  0  0  0  0  0  0
    4.1053   10.4730   37.2652 H   0  0  0  0  0  0  0  0  0  0  0  0
    4.2485   14.7415   36.6013 H   0  0  0  0  0  0  0  0  0  0  0  0
    3.4346   15.1219   38.9279 H   0  0  0  0  0  0  0  0  0  0  0  0
    2.6492   11.2284   41.5043 H   0  0  0  0  0  0  0  0  0  0  0  0
    2.4940   16.7140   40.7525 H   0  0  0  0  0  0  0  0  0  0  0  0
    1.5610   15.6235   44.1410 H   0  0  0  0  0  0  0  0  0  0  0  0
  1  2  1  0
  1 19  1  0
  1 20  2  0
  2  3  1  0
  2 16  2  0
  3  4  2  0
  4  5  1  0
  5 15  2  0
  5 17  1  0
  6 17  1  0
  6 18  2  0
  6 22  1  0
  7  8  1  0
  7 14  2  0
  7 18  1  0
  8  9  1  0
  8 13  2  0
  9 10  2  0
 10 11  1  0
 11 12  2  0
 11 23  1  0
 12 13  1  0
 14 22  1  0
 15 16  1  0
 16 21  1  0
  3 24  1  0
  4 25  1  0
  9 26  1  0
 10 27  1  0
 12 28  1  0
 13 29  1  0
 14 30  1  0
 15 31  1  0
 17 32  1  0
M  CHG  2  19  -1  21  -1
M  END
>  <mol_id>  (91) 
2026-08-23-6tgu-s0-n100-r7-0091

>  <rmsd_to_ref>  (91) 
4.5867346938824145

$$$$
6tgu.A
     RDKit          3D

 32 34  0  0  0  0  0  0  0  0999 V2000
   -0.0838   23.0406   43.8564 C   0  0  0  0  0  0  0  0  0  0  0  0
    0.0477   21.7892   43.1600 C   0  0  0  0  0  0  0  0  0  0  0  0
   -0.1074   20.5654   43.7695 C   0  0  0  0  0  0  0  0  0  0  0  0
    0.0290   19.3834   43.0441 C   0  0  0  0  0  0  0  0  0  0  0  0
    0.3216   19.3683   41.7014 C   0  0  0  0  0  0  0  0  0  0  0  0
    0.8098   16.9251   41.3340 C   0  0  0  0  0  0  0  0  0  0  0  0
    1.2434   14.7170   41.2050 C   0  0  0  0  0  0  0  0  0  0  0  0
    1.3846   13.4984   40.3724 C   0  0  0  0  0  0  0  0  0  0  0  0
    1.2028   13.5217   39.0085 C   0  0  0  0  0  0  0  0  0  0  0  0
    1.3223   12.4131   38.1987 C   0  0  0  0  0  0  0  0  0  0  0  0
    1.6432   11.2227   38.8138 C   0  0  0  0  0  0  0  0  0  0  0  0
    1.8335   11.1551   40.1763 C   0  0  0  0  0  0  0  0  0  0  0  0
    1.7033   12.2956   40.9535 C   0  0  0  0  0  0  0  0  0  0  0  0
    1.4281   14.6901   42.5532 C   0  0  0  0  0  0  0  0  0  0  0  0
    0.4736   20.6226   41.1080 C   0  0  0  0  0  0  0  0  0  0  0  0
    0.3398   21.7931   41.8187 C   0  0  0  0  0  0  0  0  0  0  0  0
    0.4962   18.2539   40.8899 N   0  0  0  0  0  0  0  0  0  0  0  0
    0.9392   15.8837   40.7094 N   0  0  0  0  0  0  0  0  0  0  0  0
   -0.3741   23.1593   45.2044 O   0  0  0  0  0  0  0  0  0  0  0  0
    0.0764   24.1077   43.1897 O   0  0  0  0  0  0  0  0  0  0  0  0
    0.5133   23.0008   41.1215 O   0  0  0  0  0  0  0  0  0  0  0  0
    1.1326   16.4555   43.0407 S   0  0  0  0  0  0  0  0  0  0  0  0
    1.7984    9.8052   37.7871 Cl  0  0  0  0  0  0  0  0  0  0  0  0
   -0.3397   20.5485   44.8350 H   0  0  0  0  0  0  0  0  0  0  0  0
   -0.1134   18.4823   43.5759 H   0  0  0  0  0  0  0  0  0  0  0  0
    0.9474   14.4747   38.5222 H   0  0  0  0  0  0  0  0  0  0  0  0
    1.1672   12.4837   37.1134 H   0  0  0  0  0  0  0  0  0  0  0  0
    2.0803   10.2268   40.6389 H   0  0  0  0  0  0  0  0  0  0  0  0
    1.8608   12.2079   42.0296 H   0  0  0  0  0  0  0  0  0  0  0  0
    1.6846   13.9162   43.2943 H   0  0  0  0  0  0  0  0  0  0  0  0
    0.7076   20.6863   40.0386 H   0  0  0  0  0  0  0  0  0  0  0  0
    0.3960   18.3548   39.8497 H   0  0  0  0  0  0  0  0  0  0  0  0
  1  2  1  0
  1 19  1  0
  1 20  2  0
  2  3  1  0
  2 16  2  0
  3  4  2  0
  4  5  1  0
  5 15  2  0
  5 17  1  0
  6 17  1  0
  6 18  2  0
  6 22  1  0
  7  8  1  0
  7 14  2  0
  7 18  1  0
  8  9  1  0
  8 13  2  0
  9 10  2  0
 10 11  1  0
 11 12  2  0
 11 23  1  0
 12 13  1  0
 14 22  1  0
 15 16  1  0
 16 21  1  0
  3 24  1  0
  4 25  1  0
  9 26  1  0
 10 27  1  0
 12 28  1  0
 13 29  1  0
 14 30  1  0
 15 31  1  0
 17 32  1  0
M  CHG  2  19  -1  21  -1
M  END
>  <mol_id>  (92) 
2026-08-23-6tgu-s0-n100-r7-0092

>  <rmsd_to_ref>  (92) 
4.632653061224646

$$$$
6tgu.A
     RDKit          3D

 32 34  0  0  0  0  0  0  0  0999 V2000
    6.8814   17.8986   37.1619 C   0  0  0  0  0  0  0  0  0  0  0  0
    6.0382   17.4073   38.3419 C   0  0  0  0  0  0  0  0  0  0  0  0
    6.4999   17.5488   39.6486 C   0  0  0  0  0  0  0  0  0  0  0  0
    5.6853   17.2891   40.7556 C   0  0  0  0  0  0  0  0  0  0  0  0
    4.4223   16.7057   40.5789 C   0  0  0  0  0  0  0  0  0  0  0  0
    2.1929   16.3972   41.7613 C   0  0  0  0  0  0  0  0  0  0  0  0
    0.0530   16.2378   41.0055 C   0  0  0  0  0  0  0  0  0  0  0  0
   -0.9878   16.0917   39.9874 C   0  0  0  0  0  0  0  0  0  0  0  0
   -2.3516   16.1817   40.3003 C   0  0  0  0  0  0  0  0  0  0  0  0
   -3.3239   16.0733   39.3111 C   0  0  0  0  0  0  0  0  0  0  0  0
   -2.9201   15.9180   37.9984 C   0  0  0  0  0  0  0  0  0  0  0  0
   -1.5823   15.8298   37.6438 C   0  0  0  0  0  0  0  0  0  0  0  0
   -0.6248   15.9291   38.6495 C   0  0  0  0  0  0  0  0  0  0  0  0
   -0.2005   16.4535   42.3342 C   0  0  0  0  0  0  0  0  0  0  0  0
    3.9381   16.5667   39.2704 C   0  0  0  0  0  0  0  0  0  0  0  0
    4.7494   16.9106   38.1876 C   0  0  0  0  0  0  0  0  0  0  0  0
    3.5530   16.4934   41.6927 N   0  0  0  0  0  0  0  0  0  0  0  0
    1.4155   16.2919   40.6275 N   0  0  0  0  0  0  0  0  0  0  0  0
    7.9134   18.5742   37.4476 O   0  0  0  0  0  0  0  0  0  0  0  0
    6.4424   17.6638   36.0148 O   0  0  0  0  0  0  0  0  0  0  0  0
    4.2287   16.8694   36.9160 O   0  0  0  0  0  0  0  0  0  0  0  0
    1.2574   16.7658   43.1973 S   0  0  0  0  0  0  0  0  0  0  0  0
   -4.1185   15.8225   36.7509 Cl  0  0  0  0  0  0  0  0  0  0  0  0
    7.5373   17.8747   39.8149 H   0  0  0  0  0  0  0  0  0  0  0  0
    6.0361   17.5431   41.7667 H   0  0  0  0  0  0  0  0  0  0  0  0
   -2.6577   16.3407   41.3449 H   0  0  0  0  0  0  0  0  0  0  0  0
   -4.3927   16.1104   39.5685 H   0  0  0  0  0  0  0  0  0  0  0  0
   -1.2853   15.6850   36.5946 H   0  0  0  0  0  0  0  0  0  0  0  0
    0.4414   15.8784   38.3838 H   0  0  0  0  0  0  0  0  0  0  0  0
   -1.2016   16.4304   42.7895 H   0  0  0  0  0  0  0  0  0  0  0  0
    2.9202   16.1872   39.0973 H   0  0  0  0  0  0  0  0  0  0  0  0
    4.0344   16.3966   42.5981 H   0  0  0  0  0  0  0  0  0  0  0  0
  1  2  1  0
  1 19  1  0
  1 20  2  0
  2  3  1  0
  2 16  2  0
  3  4  2  0
  4  5  1  0
  5 15  2  0
  5 17  1  0
  6 17  1  0
  6 18  2  0
  6 22  1  0
  7  8  1  0
  7 14  2  0
  7 18  1  0
  8  9  1  0
  8 13  2  0
  9 10  2  0
 10 11  1  0
 11 12  2  0
 11 23  1  0
 12 13  1  0
 14 22  1  0
 15 16  1  0
 16 21  1  0
  3 24  1  0
  4 25  1  0
  9 26  1  0
 10 27  1  0
 12 28  1  0
 13 29  1  0
 14 30  1  0
 15 31  1  0
 17 32  1  0
M  CHG  2  19  -1  21  -1
M  END
>  <mol_id>  (93) 
2026-08-23-6tgu-s0-n100-r7-0093

>  <rmsd_to_ref>  (93) 
4.678571428576346

$$$$
6tgu.A
     RDKit          3D

 32 34  0  0  0  0  0  0  0  0999 V2000
    8.0799   16.1585   38.4840 C   0  0  0  0  0  0  0  0  0  0  0  0
    6.6817   16.5982   38.7001 C   0  0  0  0  0  0  0  0  0  0  0  0
    5.9899   17.2435   37.6701 C   0  0  0  0  0  0  0  0  0  0  0  0
    4.6858   17.6454   37.9105 C   0  0  0  0  0  0  0  0  0  0  0  0
    4.0548   17.4274   39.1313 C   0  0  0  0  0  0  0  0  0  0  0  0
    2.0904   17.6680   40.6231 C   0  0  0  0  0  0  0  0  0  0  0  0
    0.8581   17.0999   42.4296 C   0  0  0  0  0  0  0  0  0  0  0  0
   -0.2900   16.3952   43.0130 C   0  0  0  0  0  0  0  0  0  0  0  0
   -1.1500   15.6632   42.2162 C   0  0  0  0  0  0  0  0  0  0  0  0
   -2.2360   14.9911   42.7645 C   0  0  0  0  0  0  0  0  0  0  0  0
   -2.4767   15.0439   44.1284 C   0  0  0  0  0  0  0  0  0  0  0  0
   -1.6197   15.7787   44.9540 C   0  0  0  0  0  0  0  0  0  0  0  0
   -0.5575   16.4259   44.3548 C   0  0  0  0  0  0  0  0  0  0  0  0
    1.7146   17.8510   43.2325 C   0  0  0  0  0  0  0  0  0  0  0  0
    4.7595   16.7875   40.1309 C   0  0  0  0  0  0  0  0  0  0  0  0
    6.0811   16.3674   39.9221 C   0  0  0  0  0  0  0  0  0  0  0  0
    2.7008   17.8720   39.3538 N   0  0  0  0  0  0  0  0  0  0  0  0
    1.1617   17.0976   41.1616 N   0  0  0  0  0  0  0  0  0  0  0  0
    8.7107   16.3698   37.2790 O   0  0  0  0  0  0  0  0  0  0  0  0
    8.6427   15.5907   39.4542 O   0  0  0  0  0  0  0  0  0  0  0  0
    6.7742   15.7208   40.9530 O   0  0  0  0  0  0  0  0  0  0  0  0
    2.9681   18.5419   42.0405 S   0  0  0  0  0  0  0  0  0  0  0  0
   -3.8518   14.1943   44.8365 Cl  0  0  0  0  0  0  0  0  0  0  0  0
    6.4669   17.4159   36.7288 H   0  0  0  0  0  0  0  0  0  0  0  0
    4.1225   18.1552   37.1162 H   0  0  0  0  0  0  0  0  0  0  0  0
   -1.0147   15.5823   41.1313 H   0  0  0  0  0  0  0  0  0  0  0  0
   -2.9026   14.4228   42.1408 H   0  0  0  0  0  0  0  0  0  0  0  0
   -1.7706   15.8436   46.0106 H   0  0  0  0  0  0  0  0  0  0  0  0
    0.1053   16.9952   44.9922 H   0  0  0  0  0  0  0  0  0  0  0  0
    1.7478   18.0578   44.2916 H   0  0  0  0  0  0  0  0  0  0  0  0
    4.3121   16.5860   41.1149 H   0  0  0  0  0  0  0  0  0  0  0  0
    2.2120   18.3329   38.5549 H   0  0  0  0  0  0  0  0  0  0  0  0
  1  2  1  0
  1 19  1  0
  1 20  2  0
  2  3  1  0
  2 16  2  0
  3  4  2  0
  4  5  1  0
  5 15  2  0
  5 17  1  0
  6 17  1  0
  6 18  2  0
  6 22  1  0
  7  8  1  0
  7 14  2  0
  7 18  1  0
  8  9  1  0
  8 13  2  0
  9 10  2  0
 10 11  1  0
 11 12  2  0
 11 23  1  0
 12 13  1  0
 14 22  1  0
 15 16  1  0
 16 21  1  0
  3 24  1  0
  4 25  1  0
  9 26  1  0
 10 27  1  0
 12 28  1  0
 13 29  1  0
 14 30  1  0
 15 31  1  0
 17 32  1  0
M  CHG  2  19  -1  21  -1
M  END
>  <mol_id>  (94) 
2026-08-23-6tgu-s0-n100-r7-0094

>  <rmsd_to_ref>  (94) 
4.72448979592174

$$$$
6tgu.A
     RDKit          3D

 32 34  0  0  0  0  0  0  0  0999 V2000
    1.5776   20.6803   41.3248 C   0  0  0  0  0  0  0  0  0  0  0  0
    2.0528   19.2363   41.5083 C   0  0  0  0  0  0  0  0  0  0  0  0
    2.6075   18.8224   42.7174 C   0  0  0  0  0  0  0  0  0  0  0  0
    2.8766   17.4769   42.9883 C   0  0  0  0  0  0  0  0  0  0  0  0
    2.7563   16.5166   41.9733 C   0  0  0  0  0  0  0  0  0  0  0  0
    2.4891   14.0119   41.6289 C   0  0  0  0  0  0  0  0  0  0  0  0
    1.4328   12.7758   40.0376 C   0  0  0  0  0  0  0  0  0  0  0  0
    0.7397   12.5607   38.7670 C   0  0  0  0  0  0  0  0  0  0  0  0
    0.1964   11.3160   38.4182 C   0  0  0  0  0  0  0  0  0  0  0  0
   -0.4884   11.1420   37.2195 C   0  0  0  0  0  0  0  0  0  0  0  0
   -0.6640   12.2347   36.3914 C   0  0  0  0  0  0  0  0  0  0  0  0
   -0.1485   13.4845   36.7001 C   0  0  0  0  0  0  0  0  0  0  0  0
    0.5434   13.6357   37.8987 C   0  0  0  0  0  0  0  0  0  0  0  0
    1.6286   11.7993   40.9781 C   0  0  0  0  0  0  0  0  0  0  0  0
    2.1894   16.9143   40.7541 C   0  0  0  0  0  0  0  0  0  0  0  0
    1.8579   18.2541   40.5445 C   0  0  0  0  0  0  0  0  0  0  0  0
    2.9653   15.1305   42.2499 N   0  0  0  0  0  0  0  0  0  0  0  0
    1.8327   14.0787   40.4183 N   0  0  0  0  0  0  0  0  0  0  0  0
    1.5626   21.4062   42.3621 O   0  0  0  0  0  0  0  0  0  0  0  0
    1.1679   21.0021   40.1880 O   0  0  0  0  0  0  0  0  0  0  0  0
    1.2078   18.6142   39.3880 O   0  0  0  0  0  0  0  0  0  0  0  0
    2.3060   12.4576   42.4188 S   0  0  0  0  0  0  0  0  0  0  0  0
   -1.5498   12.0426   34.9149 Cl  0  0  0  0  0  0  0  0  0  0  0  0
    2.8409   19.5772   43.4827 H   0  0  0  0  0  0  0  0  0  0  0  0
    3.1833   17.1712   43.9995 H   0  0  0  0  0  0  0  0  0  0  0  0
    0.3133   10.4634   39.1032 H   0  0  0  0  0  0  0  0  0  0  0  0
   -0.8820   10.1546   36.9365 H   0  0  0  0  0  0  0  0  0  0  0  0
   -0.2828   14.3348   36.0153 H   0  0  0  0  0  0  0  0  0  0  0  0
    0.9442   14.6242   38.1673 H   0  0  0  0  0  0  0  0  0  0  0  0
    1.3855   10.7364   40.8327 H   0  0  0  0  0  0  0  0  0  0  0  0
    2.0061   16.1715   39.9637 H   0  0  0  0  0  0  0  0  0  0  0  0
    3.5799   14.9434   43.0549 H   0  0  0  0  0  0  0  0  0  0  0  0
  1  2  1  0
  1 19  1  0
  1 20  2  0
  2  3  1  0
  2 16  2  0
  3  4  2  0
  4  5  1  0
  5 15  2  0
  5 17  1  0
  6 17  1  0
  6 18  2  0
  6 22  1  0
  7  8  1  0
  7 14  2  0
  7 18  1  0
  8  9  1  0
  8 13  2  0
  9 10  2  0
 10 11  1  0
 11 12  2  0
 11 23  1  0
 12 13  1  0
 14 22  1  0
 15 16  1  0
 16 21  1  0
  3 24  1  0
  4 25  1  0
  9 26  1  0
 10 27  1  0
 12 28  1  0
 13 29  1  0
 14 30  1  0
 15 31  1  0
 17 32  1  0
M  CHG  2  19  -1  21  -1
M  END
>  <mol_id>  (95) 
2026-08-23-6tgu-s0-n100-r7-0095

>  <rmsd_to_ref>  (95) 
4.770408163267999

$$$$
6tgu.A
     RDKit          3D

 32 34  0  0  0  0  0  0  0  0999 V2000
    1.7954   22.0302   42.4115 C   0  0  0  0  0  0  0  0  0  0  0  0
    1.7414   20.5846   42.3855 C   0  0  0  0  0  0  0  0  0  0  0  0
    2.4111   19.8432   41.4348 C   0  0  0  0  0  0  0  0  0  0  0  0
    2.3757   18.4685   41.3802 C   0  0  0  0  0  0  0  0  0  0  0  0
    1.6301   17.8073   42.3297 C   0  0  0  0  0  0  0  0  0  0  0  0
    2.4588   15.6164   41.4732 C   0  0  0  0  0  0  0  0  0  0  0  0
    3.3947   14.0914   40.0833 C   0  0  0  0  0  0  0  0  0  0  0  0
    3.2110   12.9266   39.1631 C   0  0  0  0  0  0  0  0  0  0  0  0
    1.9244   12.4143   38.9572 C   0  0  0  0  0  0  0  0  0  0  0  0
    1.7594   11.3275   38.0987 C   0  0  0  0  0  0  0  0  0  0  0  0
    2.8454   10.7670   37.4657 C   0  0  0  0  0  0  0  0  0  0  0  0
    4.1194   11.2788   37.6735 C   0  0  0  0  0  0  0  0  0  0  0  0
    4.2974   12.3664   38.5296 C   0  0  0  0  0  0  0  0  0  0  0  0
    4.6218   14.6337   40.2817 C   0  0  0  0  0  0  0  0  0  0  0  0
    0.9479   18.4721   43.2918 C   0  0  0  0  0  0  0  0  0  0  0  0
    1.0058   19.8616   43.3157 C   0  0  0  0  0  0  0  0  0  0  0  0
    1.5739   16.3971   42.2871 N   0  0  0  0  0  0  0  0  0  0  0  0
    2.3814   14.6281   40.7021 N   0  0  0  0  0  0  0  0  0  0  0  0
    2.5772   22.6383   41.4040 O   0  0  0  0  0  0  0  0  0  0  0  0
    1.2390   22.7900   43.2063 O   0  0  0  0  0  0  0  0  0  0  0  0
    0.3148   20.5867   44.2915 O   0  0  0  0  0  0  0  0  0  0  0  0
    4.3038   16.0400   41.4598 S   0  0  0  0  0  0  0  0  0  0  0  0
    2.6423    9.3876   36.3754 Cl  0  0  0  0  0  0  0  0  0  0  0  0
    3.0079   20.3643   40.6788 H   0  0  0  0  0  0  0  0  0  0  0  0
    2.9334   17.9727   40.5948 H   0  0  0  0  0  0  0  0  0  0  0  0
    1.0624   12.8456   39.4522 H   0  0  0  0  0  0  0  0  0  0  0  0
    0.7483   10.9602   37.9616 H   0  0  0  0  0  0  0  0  0  0  0  0
    5.0006   10.8741   37.1995 H   0  0  0  0  0  0  0  0  0  0  0  0
    5.3198   12.7560   38.6782 H   0  0  0  0  0  0  0  0  0  0  0  0
    5.5796   14.4076   39.9293 H   0  0  0  0  0  0  0  0  0  0  0  0
    0.3516   17.9525   44.0549 H   0  0  0  0  0  0  0  0  0  0  0  0
    0.8811   15.8404   42.8475 H   0  0  0  0  0  0  0  0  0  0  0  0
  1  2  1  0
  1 19  1  0
  1 20  2  0
  2  3  1  0
  2 16  2  0
  3  4  2  0
  4  5  1  0
  5 15  2  0
  5 17  1  0
  6 17  1  0
  6 18  2  0
  6 22  1  0
  7  8  1  0
  7 14  2  0
  7 18  1  0
  8  9  1  0
  8 13  2  0
  9 10  2  0
 10 11  1  0
 11 12  2  0
 11 23  1  0
 12 13  1  0
 14 22  1  0
 15 16  1  0
 16 21  1  0
  3 24  1  0
  4 25  1  0
  9 26  1  0
 10 27  1  0
 12 28  1  0
 13 29  1  0
 14 30  1  0
 15 31  1  0
 17 32  1  0
M  CHG  2  19  -1  21  -1
M  END
>  <mol_id>  (96) 
2026-08-23-6tgu-s0-n100-r7-0096

>  <rmsd_to_ref>  (96) 
4.816326530618885

$$$$
6tgu.A
     RDKit          3D

 32 34  0  0  0  0  0  0  0  0999 V2000
   -1.2155   20.1324   40.8335 C   0  0  0  0  0  0  0  0  0  0  0  0
   -0.4336   19.1674   41.7291 C   0  0  0  0  0  0  0  0  0  0  0  0
   -0.9466   18.7752   42.9635 C   0  0  0  0  0  0  0  0  0  0  0  0
   -0.3594   17.7566   43.7212 C   0  0  0  0  0  0  0  0  0  0  0  0
    0.8759   17.2156   43.3364 C   0  0  0  0  0  0  0  0  0  0  0  0
    2.3389   15.1641   43.6747 C   0  0  0  0  0  0  0  0  0  0  0  0
    3.8147   14.0801   42.3247 C   0  0  0  0  0  0  0  0  0  0  0  0
    4.6493   13.9127   41.1345 C   0  0  0  0  0  0  0  0  0  0  0  0
    5.3613   12.7306   40.8862 C   0  0  0  0  0  0  0  0  0  0  0  0
    6.1223   12.5799   39.7311 C   0  0  0  0  0  0  0  0  0  0  0  0
    6.1304   13.6049   38.8039 C   0  0  0  0  0  0  0  0  0  0  0  0
    5.4365   14.7883   39.0066 C   0  0  0  0  0  0  0  0  0  0  0  0
    4.6900   14.9244   40.1738 C   0  0  0  0  0  0  0  0  0  0  0  0
    3.6672   13.1264   43.2968 C   0  0  0  0  0  0  0  0  0  0  0  0
    1.4005   17.5914   42.0915 C   0  0  0  0  0  0  0  0  0  0  0  0
    0.7458   18.5552   41.3224 C   0  0  0  0  0  0  0  0  0  0  0  0
    1.4573   16.1315   44.0630 N   0  0  0  0  0  0  0  0  0  0  0  0
    2.9949   15.2249   42.4636 N   0  0  0  0  0  0  0  0  0  0  0  0
   -2.3968   20.4083   41.1961 O   0  0  0  0  0  0  0  0  0  0  0  0
   -0.6570   20.5055   39.7787 O   0  0  0  0  0  0  0  0  0  0  0  0
    1.2107   18.8393   40.0602 O   0  0  0  0  0  0  0  0  0  0  0  0
    2.4662   13.5923   44.4406 S   0  0  0  0  0  0  0  0  0  0  0  0
    7.0406   13.4151   37.3420 Cl  0  0  0  0  0  0  0  0  0  0  0  0
   -1.8411   19.2822   43.3544 H   0  0  0  0  0  0  0  0  0  0  0  0
   -0.8676   17.3792   44.6208 H   0  0  0  0  0  0  0  0  0  0  0  0
    5.3175   11.9090   41.6163 H   0  0  0  0  0  0  0  0  0  0  0  0
    6.7058   11.6634   39.5594 H   0  0  0  0  0  0  0  0  0  0  0  0
    5.4748   15.5988   38.2639 H   0  0  0  0  0  0  0  0  0  0  0  0
    4.1197   15.8497   40.3426 H   0  0  0  0  0  0  0  0  0  0  0  0
    4.2394   12.1879   43.3412 H   0  0  0  0  0  0  0  0  0  0  0  0
    2.3266   17.1274   41.7214 H   0  0  0  0  0  0  0  0  0  0  0  0
    1.1609   16.0692   45.0474 H   0  0  0  0  0  0  0  0  0  0  0  0
  1  2  1  0
  1 19  1  0
  1 20  2  0
  2  3  1  0
  2 16  2  0
  3  4  2  0
  4  5  1  0
  5 15  2  0
  5 17  1  0
  6 17  1  0
  6 18  2  0
  6 22  1  0
  7  8  1  0
  7 14  2  0
  7 18  1  0
  8  9  1  0
  8 13  2  0
  9 10  2  0
 10 11  1  0
 11 12  2  0
 11 23  1  0
 12 13  1  0
 14 22  1  0
 15 16  1  0
 16 21  1  0
  3 24  1  0
  4 25  1  0
  9 26  1  0
 10 27  1  0
 12 28  1  0
 13 29  1  0
 14 30  1  0
 15 31  1  0
 17 32  1  0
M  CHG  2  19  -1  21  -1
M  END
>  <mol_id>  (97) 
2026-08-23-6tgu-s0-n100-r7-0097

>  <rmsd_to_ref>  (97) 
4.862244897965392

$$$$
6tgu.A
     RDKit          3D

 32 34  0  0  0  0  0  0  0  0999 V2000
    0.9655   13.7442   35.3012 C   0  0  0  0  0  0  0  0  0  0  0  0
    1.2433   14.7151   36.3800 C   0  0  0  0  0  0  0  0  0  0  0  0
    1.0878   14.3855   37.7110 C   0  0  0  0  0  0  0  0  0  0  0  0
    1.3475   15.2924   38.7209 C   0  0  0  0  0  0  0  0  0  0  0  0
    1.7742   16.5650   38.4249 C   0  0  0  0  0  0  0  0  0  0  0  0
    1.8078   17.3386   40.8071 C   0  0  0  0  0  0  0  0  0  0  0  0
    1.5521   16.9489   43.0020 C   0  0  0  0  0  0  0  0  0  0  0  0
    2.1087   16.3803   44.2348 C   0  0  0  0  0  0  0  0  0  0  0  0
    3.3513   15.7543   44.2655 C   0  0  0  0  0  0  0  0  0  0  0  0
    3.8623   15.2287   45.4339 C   0  0  0  0  0  0  0  0  0  0  0  0
    3.0982   15.3410   46.5920 C   0  0  0  0  0  0  0  0  0  0  0  0
    1.8633   15.9508   46.6142 C   0  0  0  0  0  0  0  0  0  0  0  0
    1.3975   16.4602   45.4175 C   0  0  0  0  0  0  0  0  0  0  0  0
    0.3224   17.5685   42.9779 C   0  0  0  0  0  0  0  0  0  0  0  0
    1.9373   16.9163   37.0923 C   0  0  0  0  0  0  0  0  0  0  0  0
    1.6770   16.0095   36.0837 C   0  0  0  0  0  0  0  0  0  0  0  0
    2.0606   17.5590   39.3897 N   0  0  0  0  0  0  0  0  0  0  0  0
    2.1244   16.9438   41.8106 N   0  0  0  0  0  0  0  0  0  0  0  0
    1.1530   14.1929   33.9808 O   0  0  0  0  0  0  0  0  0  0  0  0
    0.5785   12.5675   35.5542 O   0  0  0  0  0  0  0  0  0  0  0  0
    1.8524   16.4004   34.7429 O   0  0  0  0  0  0  0  0  0  0  0  0
    0.0903   18.0913   41.2495 S   0  0  0  0  0  0  0  0  0  0  0  0
    3.6866   14.6951   48.1248 Cl  0  0  0  0  0  0  0  0  0  0  0  0
    0.7467   13.3626   37.9155 H   0  0  0  0  0  0  0  0  0  0  0  0
    1.2198   15.0227   39.7443 H   0  0  0  0  0  0  0  0  0  0  0  0
    3.9162   15.6846   43.3474 H   0  0  0  0  0  0  0  0  0  0  0  0
    4.8189   14.7372   45.4892 H   0  0  0  0  0  0  0  0  0  0  0  0
    1.2577   16.0473   47.5011 H   0  0  0  0  0  0  0  0  0  0  0  0
    0.4298   16.9381   45.4352 H   0  0  0  0  0  0  0  0  0  0  0  0
   -0.4254   17.7539   43.7758 H   0  0  0  0  0  0  0  0  0  0  0  0
    2.2718   17.9159   36.8239 H   0  0  0  0  0  0  0  0  0  0  0  0
    2.4553   18.4751   39.1567 H   0  0  0  0  0  0  0  0  0  0  0  0
  1  2  1  0
  1 19  1  0
  1 20  2  0
  2  3  1  0
  2 16  2  0
  3  4  2  0
  4  5  1  0
  5 15  2  0
  5 17  1  0
  6 17  1  0
  6 18  2  0
  6 22  1  0
  7  8  1  0
  7 14  2  0
  7 18  1  0
  8  9  1  0
  8 13  2  0
  9 10  2  0
 10 11  1  0
 11 12  2  0
 11 23  1  0
 12 13  1  0
 14 22  1  0
 15 16  1  0
 16 21  1  0
  3 24  1  0
  4 25  1  0
  9 26  1  0
 10 27  1  0
 12 28  1  0
 13 29  1  0
 14 30  1  0
 15 31  1  0
 17 32  1  0
M  CHG  2  19  -1  21  -1
M  END
>  <mol_id>  (98) 
2026-08-23-6tgu-s0-n100-r7-0098

>  <rmsd_to_ref>  (98) 
4.908163265309669

$$$$
6tgu.A
     RDKit          3D

 32 34  0  0  0  0  0  0  0  0999 V2000
    5.4714   15.8304   38.7274 C   0  0  0  0  0  0  0  0  0  0  0  0
    4.8356   16.8505   39.6761 C   0  0  0  0  0  0  0  0  0  0  0  0
    5.4202   18.1008   39.8650 C   0  0  0  0  0  0  0  0  0  0  0  0
    4.7751   19.1226   40.5694 C   0  0  0  0  0  0  0  0  0  0  0  0
    3.5843   18.8577   41.2613 C   0  0  0  0  0  0  0  0  0  0  0  0
    1.5596   20.0317   42.2540 C   0  0  0  0  0  0  0  0  0  0  0  0
   -0.6144   19.4114   42.5086 C   0  0  0  0  0  0  0  0  0  0  0  0
   -1.7365   18.4722   42.5010 C   0  0  0  0  0  0  0  0  0  0  0  0
   -3.0566   18.8895   42.7224 C   0  0  0  0  0  0  0  0  0  0  0  0
   -4.1128   17.9848   42.6773 C   0  0  0  0  0  0  0  0  0  0  0  0
   -3.8431   16.6656   42.3651 C   0  0  0  0  0  0  0  0  0  0  0  0
   -2.5536   16.2113   42.1335 C   0  0  0  0  0  0  0  0  0  0  0  0
   -1.5091   17.1296   42.1944 C   0  0  0  0  0  0  0  0  0  0  0  0
   -0.7417   20.7546   42.7454 C   0  0  0  0  0  0  0  0  0  0  0  0
    2.9771   17.6080   41.0729 C   0  0  0  0  0  0  0  0  0  0  0  0
    3.6110   16.6357   40.2971 C   0  0  0  0  0  0  0  0  0  0  0  0
    2.8800   19.9046   41.9315 N   0  0  0  0  0  0  0  0  0  0  0  0
    0.6789   18.9779   42.1322 N   0  0  0  0  0  0  0  0  0  0  0  0
    6.4352   16.2433   38.0175 O   0  0  0  0  0  0  0  0  0  0  0  0
    4.9391   14.7003   38.6708 O   0  0  0  0  0  0  0  0  0  0  0  0
    2.9596   15.4542   40.0336 O   0  0  0  0  0  0  0  0  0  0  0  0
    0.7529   21.5709   42.4853 S   0  0  0  0  0  0  0  0  0  0  0  0
   -5.1528   15.5359   42.2652 Cl  0  0  0  0  0  0  0  0  0  0  0  0
    6.4200   18.2903   39.4474 H   0  0  0  0  0  0  0  0  0  0  0  0
    5.2026   20.1361   40.5807 H   0  0  0  0  0  0  0  0  0  0  0  0
   -3.2606   19.9493   42.9351 H   0  0  0  0  0  0  0  0  0  0  0  0
   -5.1418   18.3129   42.8860 H   0  0  0  0  0  0  0  0  0  0  0  0
   -2.3609   15.1521   41.9075 H   0  0  0  0  0  0  0  0  0  0  0  0
   -0.4818   16.7897   41.9964 H   0  0  0  0  0  0  0  0  0  0  0  0
   -1.6740   21.2464   43.0599 H   0  0  0  0  0  0  0  0  0  0  0  0
    2.0025   17.3939   41.5358 H   0  0  0  0  0  0  0  0  0  0  0  0
    3.4688   20.6987   42.2207 H   0  0  0  0  0  0  0  0  0  0  0  0
  1  2  1  0
  1 19  1  0
  1 20  2  0
  2  3  1  0
  2 16  2  0
  3  4  2  0
  4  5  1  0
  5 15  2  0
  5 17  1  0
  6 17  1  0
  6 18  2  0
  6 22  1  0
  7  8  1  0
  7 14  2  0
  7 18  1  0
  8  9  1  0
  8 13  2  0
  9 10  2  0
 10 11  1  0
 11 12  2  0
 11 23  1  0
 12 13  1  0
 14 22  1  0
 15 16  1  0
 16 21  1  0
  3 24  1  0
  4 25  1  0
  9 26  1  0
 10 27  1  0
 12 28  1  0
 13 29  1  0
 14 30  1  0
 15 31  1  0
 17 32  1  0
M  CHG  2  19  -1  21  -1
M  END
>  <mol_id>  (99) 
2026-08-23-6tgu-s0-n100-r7-0099

>  <rmsd_to_ref>  (99) 
4.954081632655477

$$$$
6tgu.A
     RDKit          3D

 32 34  0  0  0  0  0  0  0  0999 V2000
   -0.8856   16.3878   35.3083 C   0  0  0  0  0  0  0  0  0  0  0  0
   -1.1354   16.3562   36.7683 C   0  0  0  0  0  0  0  0  0  0  0  0
   -2.2971   15.7534   37.2610 C   0  0  0  0  0  0  0  0  0  0  0  0
   -2.4996   15.7479   38.6317 C   0  0  0  0  0  0  0  0  0  0  0  0
   -1.5914   16.3175   39.5187 C   0  0  0  0  0  0  0  0  0  0  0  0
   -0.9121   16.9282   41.8226 C   0  0  0  0  0  0  0  0  0  0  0  0
    0.6167   17.5296   43.3735 C   0  0  0  0  0  0  0  0  0  0  0  0
    1.5003   17.1734   44.4906 C   0  0  0  0  0  0  0  0  0  0  0  0
    1.5606   15.8741   44.9581 C   0  0  0  0  0  0  0  0  0  0  0  0
    2.3985   15.5314   46.0127 C   0  0  0  0  0  0  0  0  0  0  0  0
    3.1926   16.4928   46.6176 C   0  0  0  0  0  0  0  0  0  0  0  0
    3.1476   17.8141   46.1612 C   0  0  0  0  0  0  0  0  0  0  0  0
    2.2974   18.0968   45.1108 C   0  0  0  0  0  0  0  0  0  0  0  0
    0.5449   18.8435   42.9144 C   0  0  0  0  0  0  0  0  0  0  0  0
   -0.4523   16.9052   39.0066 C   0  0  0  0  0  0  0  0  0  0  0  0
   -0.2155   16.9290   37.6246 C   0  0  0  0  0  0  0  0  0  0  0  0
   -1.8399   16.3078   40.9395 N   0  0  0  0  0  0  0  0  0  0  0  0
   -0.1562   16.6892   42.7440 N   0  0  0  0  0  0  0  0  0  0  0  0
   -1.7788   15.8258   34.4246 O   0  0  0  0  0  0  0  0  0  0  0  0
    0.1749   16.9506   34.9355 O   0  0  0  0  0  0  0  0  0  0  0  0
    0.9479   17.5321   37.1307 O   0  0  0  0  0  0  0  0  0  0  0  0
   -0.7006   18.7757   41.5311 S   0  0  0  0  0  0  0  0  0  0  0  0
    4.2609   16.0700   47.9570 Cl  0  0  0  0  0  0  0  0  0  0  0  0
   -3.0010   15.3137   36.5868 H   0  0  0  0  0  0  0  0  0  0  0  0
   -3.4059   15.2805   39.0420 H   0  0  0  0  0  0  0  0  0  0  0  0
    0.9581   15.0682   44.5231 H   0  0  0  0  0  0  0  0  0  0  0  0
    2.4423   14.5193   46.3733 H   0  0  0  0  0  0  0  0  0  0  0  0
    3.7449   18.5846   46.6005 H   0  0  0  0  0  0  0  0  0  0  0  0
    2.2611   19.1184   44.7578 H   0  0  0  0  0  0  0  0  0  0  0  0
    1.0371   19.7592   43.2057 H   0  0  0  0  0  0  0  0  0  0  0  0
    0.3017   17.3688   39.6590 H   0  0  0  0  0  0  0  0  0  0  0  0
   -2.7086   15.8322   41.2693 H   0  0  0  0  0  0  0  0  0  0  0  0
  1  2  1  0
  1 19  1  0
  1 20  2  0
  2  3  1  0
  2 16  2  0
  3  4  2  0
  4  5  1  0
  5 15  2  0
  5 17  1  0
  6 17  1  0
  6 18  2  0
  6 22  1  0
  7  8  1  0
  7 14  2  0
  7 18  1  0
  8  9  1  0
  8 13  2  0
  9 10  2  0
 10 11  1  0
 11 12  2  0
 11 23  1  0
 12 13  1  0
 14 22  1  0
 15 16  1  0
 16 21  1  0
  3 24  1  0
  4 25  1  0
  9 26  1  0
 10 27  1  0
 12 28  1  0
 13 29  1  0
 14 30  1  0
 15 31  1  0
 17 32  1  0
M  CHG  2  19  -1  21  -1
M  END
>  <mol_id>  (100) 
2026-08-23-6tgu-s0-n100-r7-0100

>  <rmsd_to_ref>  (100) 
5.000000000005358

$$$$
