@<TRIPOS>MOLECULE
6fnk.A
27 29 1 0 0 
SMALL
USER_CHARGES


@<TRIPOS>ATOM
  1 CAC      2.9034    16.1161    40.7342 C.ar  1 DXK  -0.1500 
  2 HAC      3.0528    16.9765    40.0987 H     1 DXK   0.1500 
  3 CAE      3.3991    14.8730    40.3406 C.ar  1 DXK  -0.1500 
  4 HAE      3.9290    14.7743    39.4047 H     1 DXK   0.1500 
  5 CAF      3.2111    13.7637    41.1521 C.ar  1 DXK   0.1600 
  6 HAF      3.5971    12.8014    40.8497 H     1 DXK   0.1500 
  7 NAD      2.5220    13.8922    42.3612 N.ar  1 DXK  -0.6200 
  8 CAB      2.0259    15.1442    42.7552 C.ar  1 DXK   0.1600 
  9 HAB      1.4959    15.2436    43.6909 H     1 DXK   0.1500 
 10 CAA      2.2158    16.2597    41.9417 C.ar  1 DXK   0.0000 
 11 C2       1.7222    17.5068    42.3382 C.ar  1 DXK   0.6200 
 12 N1       2.0408    18.6212    41.6654 N.ar  1 DXK  -0.6200 
 13 N3       0.9145    17.5957    43.3997 N.ar  1 DXK  -0.5670 
 14 C4       0.4272    18.7780    43.8163 C.ar  1 DXK   0.1054 
 15 NAM     -0.3708    19.1111    44.8422 N.pl3 1 DXK   0.3140 
 16 CAQ     -0.9468    18.1844    45.8212 C.3   1 DXK   0.0156 
 17 HAQ1    -0.6196    17.1691    45.5967 H     1 DXK   0.0800 
 18 HAQ2    -2.0346    18.2346    45.7729 H     1 DXK   0.0800 
 19 HAQ3    -0.6144    18.4602    46.8220 H     1 DXK   0.0800 
 20 NAN     -0.5738    20.3259    44.8557 N.2   1 DXK  -0.7068 
 21 CAO      0.0681    20.8526    43.7999 C.2   1 DXK   0.1388 
 22 HAO      0.0541    21.8956    43.5198 H     1 DXK   0.1500 
 23 C5       0.7283    19.8866    43.1473 C.ar  1 DXK   0.0000 
 24 C6       1.5428    19.8079    42.0593 C.ar  1 DXK   0.4100 
 25 NAP      1.8732    20.9182    41.3561 N.pl3 1 DXK  -0.9000 
 26 HAP1     1.5141    21.8194    41.6371 H     1 DXK   0.4000 
 27 HAP2     2.4786    20.8445    40.5510 H     1 DXK   0.4000 
@<TRIPOS>BOND
  1   1   2  1   
  2   1   3  ar  
  3   1  10  ar  
  4   3   4  1   
  5   3   5  ar  
  6   5   6  1   
  7   5   7  ar  
  8   7   8  ar  
  9   8   9  1   
 10   8  10  ar  
 11  10  11  1   
 12  11  12  ar  
 13  11  13  ar  
 14  12  24  ar  
 15  13  14  ar  
 16  14  15  1   
 17  14  23  ar  
 18  15  16  1   
 19  15  20  1   
 20  16  17  1   
 21  16  18  1   
 22  16  19  1   
 23  20  21  2   
 24  21  22  1   
 25  21  23  1   
 26  23  24  ar  
 27  24  25  1   
 28  25  26  1   
 29  25  27  1   
@<TRIPOS>SUBSTRUCTURE
  1 DXK  11 GROUP 4 A **** 0

# MOE 2012.10 (io_trps.svl 2012.10)
