
     RDKit          3D

 48 50  0  0  0  0  0  0  0  0999 V2000
    2.4260   24.5150   34.3560 C   0  0  0  0  0  0  0  0  0  0  0  0
   -0.7090   19.6910   45.2040 N   0  0  0  0  0  0  0  0  0  0  0  0
    3.5760   23.8470   33.6910 C   0  0  0  0  0  0  0  0  0  0  0  0
    4.5620   21.4400   39.3600 C   0  0  0  0  0  0  0  0  0  0  0  0
    0.9090   18.2050   43.5310 C   0  0  0  0  0  0  0  0  0  0  0  0
    4.5860   22.8960   31.2600 S   0  0  0  0  0  4  0  0  0  0  0  0
    1.7300   17.6720   42.7430 N   0  0  0  0  0  0  0  0  0  0  0  0
    4.0550   20.9840   40.6340 C   0  0  0  0  0  0  0  0  0  0  0  0
    2.6440   20.4360   38.1760 C   0  0  0  0  0  0  0  0  0  0  0  0
    1.6340   16.3290   43.2420 O   0  0  0  0  0  0  0  0  0  0  0  0
    1.9170   21.7890   32.6810 S   0  0  0  0  0  0  0  0  0  0  0  0
    2.1880   19.9340   39.3620 C   0  0  0  0  0  0  0  0  0  0  0  0
    3.7800   21.3350   38.2580 C   0  0  0  0  0  0  0  0  0  0  0  0
    0.7690   19.5720   43.3460 C   0  0  0  0  0  0  0  0  0  0  0  0
    2.4860   23.0870   34.9830 C   0  0  0  0  0  0  0  0  0  0  0  0
    3.6690   22.7330   30.0280 O   0  0  0  0  0  0  0  0  0  0  0  0
    0.2140   17.5840   44.5310 C   0  0  0  0  0  0  0  0  0  0  0  0
    2.2660   23.2770   31.6770 C   0  0  0  0  0  0  0  0  0  0  0  0
   -0.0660   20.3400   44.1780 C   0  0  0  0  0  0  0  0  0  0  0  0
   -1.2570   17.6870   46.6430 C   0  0  0  0  0  0  0  0  0  0  0  0
    5.8960   22.1510   39.2360 F   0  0  0  0  0  0  0  0  0  0  0  0
    2.1110   19.9150   41.9950 C   0  0  0  0  0  0  0  0  0  0  0  0
    2.1470   21.8720   34.2890 N   0  0  0  0  0  0  0  0  0  0  0  0
    4.0210   21.9390   37.1310 F   0  0  0  0  0  0  0  0  0  0  0  0
    3.4480   23.8270   32.2200 C   0  0  0  0  0  0  0  0  0  0  0  0
    2.8600   20.2640   40.6280 C   0  0  0  0  0  0  0  0  0  0  0  0
   -0.5670   18.3180   45.4440 C   0  0  0  0  0  0  0  0  0  0  0  0
    2.6500   25.3656   35.0165 H   0  0  0  0  0  0  0  0  0  0  0  0
    1.5663   25.0152   33.8862 H   0  0  0  0  0  0  0  0  0  0  0  0
    4.6701   23.8276   33.5790 H   0  0  0  0  0  0  0  0  0  0  0  0
    4.9102   21.6978   31.8397 H   0  0  0  0  0  0  0  0  0  0  0  0
    2.2940   18.0723   41.9798 H   0  0  0  0  0  0  0  0  0  0  0  0
    4.5900   21.1961   41.5714 H   0  0  0  0  0  0  0  0  0  0  0  0
    2.1772   20.1740   37.2150 H   0  0  0  0  0  0  0  0  0  0  0  0
    1.6351   16.3439   44.2319 H   0  0  0  0  0  0  0  0  0  0  0  0
    1.3074   19.2749   39.3702 H   0  0  0  0  0  0  0  0  0  0  0  0
    4.4505   20.5148   37.9618 H   0  0  0  0  0  0  0  0  0  0  0  0
    2.2805   22.7724   36.0168 H   0  0  0  0  0  0  0  0  0  0  0  0
    0.2660   16.4892   44.6242 H   0  0  0  0  0  0  0  0  0  0  0  0
    1.4368   23.9958   31.7530 H   0  0  0  0  0  0  0  0  0  0  0  0
    2.3806   23.0333   30.6105 H   0  0  0  0  0  0  0  0  0  0  0  0
   -0.1990   21.4194   44.0132 H   0  0  0  0  0  0  0  0  0  0  0  0
   -0.8199   18.0867   47.5699 H   0  0  0  0  0  0  0  0  0  0  0  0
   -2.3313   17.9217   46.6133 H   0  0  0  0  0  0  0  0  0  0  0  0
   -1.1190   16.5961   46.6133 H   0  0  0  0  0  0  0  0  0  0  0  0
    1.2706   21.5395   34.7159 H   0  0  0  0  0  0  0  0  0  0  0  0
    3.5710   24.9173   32.1419 H   0  0  0  0  0  0  0  0  0  0  0  0
   -1.4629   18.1193   44.8374 H   0  0  0  0  0  0  0  0  0  0  0  0
  2 27  1  0
  3  1  1  0
  3 15  1  0
  4  8  2  0
  5 17  2  0
  7 10  1  0
  7  5  1  0
  9 13  1  0
  9 12  2  0
 11 23  1  0
 12 26  1  0
 13 24  1  0
 13  4  1  0
 14  5  1  0
 14 19  1  0
 15  1  1  0
 16  6  2  0
 17 27  1  0
 18 25  1  0
 18 11  1  0
 19  2  2  0
 21  4  1  0
 22 14  2  0
 23 15  1  0
 25  6  1  0
 25  3  1  0
 26  8  1  0
 26 22  2  0
 27 20  1  0
  1 28  1  0
  1 29  1  0
  3 30  1  0
  6 31  1  0
  7 32  1  0
  8 33  1  0
  9 34  1  0
 10 35  1  0
 12 36  1  0
 13 37  1  0
 15 38  1  0
 17 39  1  0
 18 40  1  0
 18 41  1  0
 19 42  1  0
 20 43  1  0
 20 44  1  0
 20 45  1  0
 23 46  1  0
 25 47  1  0
 27 48  1  0
M  END
>  <mol_id>  (1) 
2026-09-18-6fnk-s0-n100-0001

>  <rmsd_to_ref>  (1) 


$$$$

     RDKit          3D

 58 58  0  0  0  0  0  0  0  0999 V2000
    2.1570   15.9860   36.3790 N   0  0  0  0  0  0  0  0  0  0  0  0
    1.8890   24.3540   32.6520 C   0  0  0  0  0  0  0  0  0  0  0  0
    1.5060   17.4530   39.3820 C   0  0  0  0  0  0  0  0  0  0  0  0
    0.6040   16.2890   39.8910 C   0  0  0  0  0  0  0  0  0  0  0  0
    1.8460   23.5250   35.1050 C   0  0  0  0  0  0  0  0  0  0  0  0
    4.9960   21.3960   38.4600 N   0  0  0  0  0  4  0  0  0  0  0  0
   -0.7750   13.7500   41.0650 O   0  0  0  0  0  1  0  0  0  0  0  0
    5.7560   22.2290   39.3860 C   0  0  0  0  0  0  0  0  0  0  0  0
    2.3480   22.6580   36.2160 C   0  0  0  0  0  0  0  0  0  0  0  0
    0.2550   26.3420   33.3720 C   0  0  0  0  0  0  0  0  0  0  0  0
    2.6320   18.7620   37.7590 C   0  0  0  0  0  0  0  0  0  0  0  0
    3.2510   21.9610   36.7730 C   0  0  0  0  0  0  0  0  0  0  0  0
   -2.4280   14.3640   39.6680 O   0  0  0  0  0  0  0  0  0  0  0  0
    1.1020   16.7280   36.9110 C   0  0  0  0  0  0  0  0  0  0  0  0
    2.7540   21.8500   39.2250 C   0  0  0  0  0  0  0  0  0  0  0  0
    0.1560   25.2570   34.4060 C   0  0  0  0  0  0  0  0  0  0  0  0
    0.7630   24.4100   35.2530 C   0  0  0  0  0  0  0  0  0  0  0  0
    3.5260   21.7060   38.1790 C   0  0  0  0  0  0  0  0  0  0  0  0
    5.7300   21.9240   40.8250 C   0  0  0  0  0  0  0  0  0  0  0  0
    2.9670   24.1330   33.9010 S   0  0  0  0  0  0  0  0  0  0  0  0
   -0.0270   16.7290   36.4030 O   0  0  0  0  0  0  0  0  0  0  0  0
   -0.2470   15.2600   39.2360 C   0  0  0  0  0  0  0  0  0  0  0  0
    1.7070   17.6720   38.0010 C   0  0  0  0  0  0  0  0  0  0  0  0
    0.1820   26.4860   31.9610 C   0  0  0  0  0  0  0  0  0  0  0  0
    1.4530   25.8920   32.4860 C   0  0  0  0  0  0  0  0  0  0  0  0
   -1.2600   14.3800   40.0440 C   0  0  0  0  0  0  0  0  0  0  0  0
    1.9776   15.2947   35.6368 H   0  0  0  0  0  0  0  0  0  0  0  0
    3.1152   16.1295   36.7285 H   0  0  0  0  0  0  0  0  0  0  0  0
    2.3583   24.0166   31.7161 H   0  0  0  0  0  0  0  0  0  0  0  0
    0.9847   23.7713   32.8815 H   0  0  0  0  0  0  0  0  0  0  0  0
    1.9950   18.1160   40.1109 H   0  0  0  0  0  0  0  0  0  0  0  0
    0.5944   16.2100   40.9881 H   0  0  0  0  0  0  0  0  0  0  0  0
    1.3714   22.6059   34.7308 H   0  0  0  0  0  0  0  0  0  0  0  0
    5.4859   21.4354   37.5548 H   0  0  0  0  0  0  0  0  0  0  0  0
    4.9571   20.4855   38.9400 H   0  0  0  0  0  0  0  0  0  0  0  0
    6.8081   22.1823   39.0683 H   0  0  0  0  0  0  0  0  0  0  0  0
    5.2577   23.2075   39.3209 H   0  0  0  0  0  0  0  0  0  0  0  0
    2.1485   23.3464   37.0504 H   0  0  0  0  0  0  0  0  0  0  0  0
    2.0877   21.7795   35.6074 H   0  0  0  0  0  0  0  0  0  0  0  0
   -0.2501   27.0466   34.0490 H   0  0  0  0  0  0  0  0  0  0  0  0
    2.9779   19.1696   38.7203 H   0  0  0  0  0  0  0  0  0  0  0  0
    3.4947   18.3905   37.1865 H   0  0  0  0  0  0  0  0  0  0  0  0
    2.1251   19.5528   37.1865 H   0  0  0  0  0  0  0  0  0  0  0  0
    3.1112   20.9573   36.3452 H   0  0  0  0  0  0  0  0  0  0  0  0
    4.0865   22.6539   36.5948 H   0  0  0  0  0  0  0  0  0  0  0  0
    3.1348   21.6051   40.2275 H   0  0  0  0  0  0  0  0  0  0  0  0
    1.7240   22.2160   39.1022 H   0  0  0  0  0  0  0  0  0  0  0  0
   -0.5034   25.7679   35.1231 H   0  0  0  0  0  0  0  0  0  0  0  0
    0.2656   24.5091   33.6068 H   0  0  0  0  0  0  0  0  0  0  0  0
   -0.0554   23.7568   35.5899 H   0  0  0  0  0  0  0  0  0  0  0  0
    1.3164   25.1795   35.8112 H   0  0  0  0  0  0  0  0  0  0  0  0
    5.8097   22.8587   41.3994 H   0  0  0  0  0  0  0  0  0  0  0  0
    4.7855   21.4189   41.0758 H   0  0  0  0  0  0  0  0  0  0  0  0
    6.5753   21.2663   41.0758 H   0  0  0  0  0  0  0  0  0  0  0  0
   -0.1623   15.1122   38.1493 H   0  0  0  0  0  0  0  0  0  0  0  0
   -0.5127   25.8513   31.3913 H   0  0  0  0  0  0  0  0  0  0  0  0
   -0.0316   27.3416   31.3035 H   0  0  0  0  0  0  0  0  0  0  0  0
    2.5029   26.1035   32.2350 H   0  0  0  0  0  0  0  0  0  0  0  0
  1 14  1  0
  2 20  1  0
  3  4  1  0
  5 17  1  0
  5  9  1  0
  6  8  1  0
  8 19  1  0
  9 12  1  0
 10 24  1  0
 10 16  1  0
 11 23  1  0
 12 18  1  0
 13 26  2  0
 14 23  1  0
 16 17  1  0
 18  6  1  0
 18 15  2  3
 20  5  1  0
 21 14  2  0
 22  4  2  3
 22 26  1  0
 23  3  2  3
 25 24  1  0
 25  2  1  0
 25 10  1  0
 26  7  1  0
  1 27  1  0
  1 28  1  0
  2 29  1  0
  2 30  1  0
  3 31  1  0
  4 32  1  0
  5 33  1  0
  6 34  1  0
  6 35  1  0
  8 36  1  0
  8 37  1  0
  9 38  1  0
  9 39  1  0
 10 40  1  0
 11 41  1  0
 11 42  1  0
 11 43  1  0
 12 44  1  0
 12 45  1  0
 15 46  1  0
 15 47  1  0
 16 48  1  0
 16 49  1  0
 17 50  1  0
 17 51  1  0
 19 52  1  0
 19 53  1  0
 19 54  1  0
 22 55  1  0
 24 56  1  0
 24 57  1  0
 25 58  1  0
M  CHG  2   6   1   7  -1
M  END
>  <mol_id>  (2) 
2026-09-18-6fnk-s0-n100-0002

>  <rmsd_to_ref>  (2) 


$$$$

     RDKit          3D

 52 54  0  0  0  0  0  0  0  0999 V2000
    2.6210   17.7270   37.5420 N   0  0  0  0  0  0  0  0  0  0  0  0
    2.7780   23.8300   33.6470 C   0  0  0  0  0  0  0  0  0  0  0  0
    3.4270   23.0030   34.7880 C   0  0  0  0  0  0  0  0  0  0  0  0
    2.3010   18.7560   38.1230 C   0  0  0  0  0  0  0  0  0  0  0  0
    0.3840   26.4590   32.2990 C   0  0  0  0  0  0  0  0  0  0  0  0
    1.2670   14.2240   37.3320 S   0  0  0  0  0  0  0  0  0  0  0  0
    3.2890   16.8630   36.4620 C   0  0  0  0  0  0  0  0  0  0  0  0
    0.9970   15.9270   36.7630 N   0  0  0  0  0  0  0  0  0  0  0  0
    1.8950   19.8120   41.6590 C   0  0  0  0  0  0  0  0  0  0  0  0
    2.2590   15.7490   36.1580 C   0  0  0  0  0  0  0  0  0  0  0  0
    2.9450   22.9290   36.2720 C   0  0  0  0  0  0  0  0  0  0  0  0
    2.3770   18.9320   37.0110 O   0  0  0  0  0  0  0  0  0  0  0  0
    2.4010   20.7900   39.1950 C   0  0  0  0  0  0  0  0  0  0  0  0
    1.7100   21.6050   40.0780 C   0  0  0  0  0  0  0  0  0  0  0  0
    2.0620   25.9340   32.0590 S   0  0  0  0  0  0  0  0  0  0  0  0
   -0.0520   26.2310   33.4280 C   0  0  0  0  0  0  0  0  0  0  0  0
    2.0500   18.8340   40.5770 C   0  0  0  0  0  0  0  0  0  0  0  0
    0.2160   25.6340   34.2070 C   0  0  0  0  0  0  0  0  0  0  0  0
    2.1830   21.7670   36.8530 C   0  0  0  0  0  0  0  0  0  0  0  0
    2.8120   21.1500   38.0080 O   0  0  0  0  0  0  0  0  0  0  0  0
    4.1710   17.0210   35.7920 O   0  0  0  0  0  0  0  0  0  0  0  0
    1.9620   24.8670   33.0640 C   0  0  0  0  0  0  0  0  0  0  0  0
    2.0580   19.5500   42.9830 O   0  0  0  0  0  0  0  0  0  0  0  0
    1.4090   21.0740   41.3380 C   0  0  0  0  0  0  0  0  0  0  0  0
   -0.4660   26.6300   31.0540 C   0  0  0  0  0  0  0  0  0  0  0  0
    2.7530   14.3780   36.2640 C   0  0  0  0  0  0  0  0  0  0  0  0
    0.9430   19.2670   43.8590 C   0  0  0  0  0  0  0  0  0  0  0  0
    2.1990   19.3070   39.3320 C   0  0  0  0  0  0  0  0  0  0  0  0
    4.3153   22.4095   34.5258 H   0  0  0  0  0  0  0  0  0  0  0  0
    1.8840   19.2042   39.0369 H   0  0  0  0  0  0  0  0  0  0  0  0
    0.2913   27.5489   32.4148 H   0  0  0  0  0  0  0  0  0  0  0  0
    0.2079   16.0590   36.1144 H   0  0  0  0  0  0  0  0  0  0  0  0
    2.0903   15.8914   35.0804 H   0  0  0  0  0  0  0  0  0  0  0  0
    3.8527   23.0270   36.8856 H   0  0  0  0  0  0  0  0  0  0  0  0
    2.1717   23.7112   36.2800 H   0  0  0  0  0  0  0  0  0  0  0  0
    1.4106   22.6264   39.8003 H   0  0  0  0  0  0  0  0  0  0  0  0
   -0.9553   26.8186   33.6490 H   0  0  0  0  0  0  0  0  0  0  0  0
    2.0442   17.7529   40.7798 H   0  0  0  0  0  0  0  0  0  0  0  0
   -0.3815   25.6336   35.1306 H   0  0  0  0  0  0  0  0  0  0  0  0
    1.1033   24.9889   34.1257 H   0  0  0  0  0  0  0  0  0  0  0  0
    1.1877   22.1254   37.1546 H   0  0  0  0  0  0  0  0  0  0  0  0
    2.1439   20.9959   36.0695 H   0  0  0  0  0  0  0  0  0  0  0  0
    0.9559   24.8552   33.5084 H   0  0  0  0  0  0  0  0  0  0  0  0
    0.8017   21.6427   42.0576 H   0  0  0  0  0  0  0  0  0  0  0  0
   -1.5058   26.8392   31.3458 H   0  0  0  0  0  0  0  0  0  0  0  0
   -0.0771   27.4679   30.4568 H   0  0  0  0  0  0  0  0  0  0  0  0
   -0.4314   25.7069   30.4568 H   0  0  0  0  0  0  0  0  0  0  0  0
    2.7425   13.7886   35.3353 H   0  0  0  0  0  0  0  0  0  0  0  0
    3.7744   14.0967   36.5600 H   0  0  0  0  0  0  0  0  0  0  0  0
    1.2693   19.3498   44.9062 H   0  0  0  0  0  0  0  0  0  0  0  0
    0.1348   19.9885   43.6686 H   0  0  0  0  0  0  0  0  0  0  0  0
    0.5767   18.2474   43.6686 H   0  0  0  0  0  0  0  0  0  0  0  0
  1  4  1  0
  2  3  2  0
  3 11  1  0
  4 28  1  0
  5 25  1  0
  5 16  1  0
  7  1  1  0
  8  6  1  0
  9 23  1  0
 10 26  1  0
 10  7  1  0
 10  8  1  0
 11 19  1  0
 12  1  1  0
 12  4  1  0
 13 28  2  0
 13 14  1  0
 14 24  2  0
 15  5  1  0
 15 22  1  0
 16 18  2  3
 17  9  2  0
 19 20  1  0
 20 13  1  0
 21  7  2  0
 22  2  2  0
 23 27  1  0
 24  9  1  0
 26  6  1  0
 28 17  1  0
  3 29  1  0
  4 30  1  0
  5 31  1  0
  8 32  1  0
 10 33  1  0
 11 34  1  0
 11 35  1  0
 14 36  1  0
 16 37  1  0
 17 38  1  0
 18 39  1  0
 18 40  1  0
 19 41  1  0
 19 42  1  0
 22 43  1  0
 24 44  1  0
 25 45  1  0
 25 46  1  0
 25 47  1  0
 26 48  1  0
 26 49  1  0
 27 50  1  0
 27 51  1  0
 27 52  1  0
M  END
>  <mol_id>  (3) 
2026-09-18-6fnk-s0-n100-0003

>  <rmsd_to_ref>  (3) 


$$$$

     RDKit          3D

 63 65  0  0  0  0  0  0  0  0999 V2000
    2.0980   20.8190   41.0140 O   0  0  0  0  0  0  0  0  0  0  0  0
    1.1100   17.6170   39.8790 C   0  0  0  0  0  0  0  0  0  0  0  0
    1.9470   18.1900   42.1750 C   0  0  0  0  0  0  0  0  0  0  0  0
    1.6200   16.7080   42.5690 C   0  0  0  0  0  0  0  0  0  0  0  0
    1.7160   18.5130   40.7900 C   0  0  0  0  0  0  0  0  0  0  0  0
    1.2590   17.8880   38.5420 O   0  0  0  0  0  0  0  0  0  0  0  0
   -1.5740   29.3390   35.2720 C   0  0  0  0  0  0  0  0  0  0  0  0
    2.0150   23.6380   35.7490 C   0  0  0  0  0  0  0  0  0  0  0  0
    3.1850   25.9100   33.0510 C   0  0  0  0  0  0  0  0  0  0  0  0
    0.4030   16.5520   40.4450 C   0  0  0  0  0  0  0  0  0  0  0  0
    2.0660   19.8610   40.2760 C   0  0  0  0  0  0  0  0  0  0  0  0
    0.6640   26.2360   33.8510 C   0  0  0  0  0  0  0  0  0  0  0  0
    2.4420   21.6460   37.1720 C   0  0  0  0  0  0  0  0  0  0  0  0
    2.6070   24.9490   35.4150 C   0  0  0  0  0  0  0  0  0  0  0  0
    1.6710   16.8280   37.6460 C   0  0  0  0  0  0  0  0  0  0  0  0
    4.4100   21.5560   38.8670 C   0  0  0  0  0  0  0  0  0  0  0  0
    3.5700   24.8820   34.2270 C   0  0  0  0  0  0  0  0  0  0  0  0
    2.9780   22.5490   36.1440 C   0  0  0  0  0  0  0  0  0  0  0  0
    2.1950   25.8480   31.9230 C   0  0  0  0  0  0  0  0  0  0  0  0
    1.9560   26.6560   33.2210 C   0  0  0  0  0  0  0  0  0  0  0  0
    3.0260   21.0840   38.3410 C   0  0  0  0  0  0  0  0  0  0  0  0
    0.6530   15.9970   41.6950 C   0  0  0  0  0  0  0  0  0  0  0  0
    2.4090   19.9620   38.9380 N   0  0  0  0  0  0  0  0  0  0  0  0
    0.7950   28.8440   34.0420 N   0  0  0  0  0  4  0  0  0  0  0  0
   -0.3990   29.1660   34.6360 C   0  0  0  0  0  0  0  0  0  0  0  0
    0.9680   27.5730   33.4750 C   0  0  0  0  0  0  0  0  0  0  0  0
    0.1996   18.2339   39.9026 H   0  0  0  0  0  0  0  0  0  0  0  0
    1.3211   18.8534   42.7899 H   0  0  0  0  0  0  0  0  0  0  0  0
    3.0247   18.3255   42.3485 H   0  0  0  0  0  0  0  0  0  0  0  0
    2.5628   16.1415   42.5573 H   0  0  0  0  0  0  0  0  0  0  0  0
    1.1389   16.7645   43.5566 H   0  0  0  0  0  0  0  0  0  0  0  0
    2.7086   18.1425   40.4942 H   0  0  0  0  0  0  0  0  0  0  0  0
   -1.4094   29.3148   36.3593 H   0  0  0  0  0  0  0  0  0  0  0  0
   -2.0051   30.3103   34.9880 H   0  0  0  0  0  0  0  0  0  0  0  0
   -2.2668   28.5332   34.9880 H   0  0  0  0  0  0  0  0  0  0  0  0
    1.4576   23.2882   34.8676 H   0  0  0  0  0  0  0  0  0  0  0  0
    1.3943   23.8162   36.6395 H   0  0  0  0  0  0  0  0  0  0  0  0
    4.2727   26.0515   32.9674 H   0  0  0  0  0  0  0  0  0  0  0  0
   -0.4170   16.1183   39.8539 H   0  0  0  0  0  0  0  0  0  0  0  0
   -0.0715   25.6472   33.2832 H   0  0  0  0  0  0  0  0  0  0  0  0
    0.3528   25.7131   34.7673 H   0  0  0  0  0  0  0  0  0  0  0  0
    1.3955   21.3499   37.0070 H   0  0  0  0  0  0  0  0  0  0  0  0
    1.7946   25.6487   35.1693 H   0  0  0  0  0  0  0  0  0  0  0  0
    3.1843   25.2832   36.2897 H   0  0  0  0  0  0  0  0  0  0  0  0
    2.0079   15.9613   38.2337 H   0  0  0  0  0  0  0  0  0  0  0  0
    0.8219   16.5333   37.0118 H   0  0  0  0  0  0  0  0  0  0  0  0
    2.4962   17.1840   37.0118 H   0  0  0  0  0  0  0  0  0  0  0  0
    4.4043   21.5541   39.9670 H   0  0  0  0  0  0  0  0  0  0  0  0
    5.1926   20.8740   38.5032 H   0  0  0  0  0  0  0  0  0  0  0  0
    4.6128   22.5741   38.5032 H   0  0  0  0  0  0  0  0  0  0  0  0
    3.5542   23.8604   33.8194 H   0  0  0  0  0  0  0  0  0  0  0  0
    4.5686   25.1602   34.5951 H   0  0  0  0  0  0  0  0  0  0  0  0
    3.2206   21.9559   35.2500 H   0  0  0  0  0  0  0  0  0  0  0  0
    3.8667   23.0377   36.5699 H   0  0  0  0  0  0  0  0  0  0  0  0
    2.3973   26.3638   30.9727 H   0  0  0  0  0  0  0  0  0  0  0  0
    1.6681   25.0581   31.3676 H   0  0  0  0  0  0  0  0  0  0  0  0
    0.1562   15.0717   42.0221 H   0  0  0  0  0  0  0  0  0  0  0  0
    2.1980   19.1569   38.3313 H   0  0  0  0  0  0  0  0  0  0  0  0
    0.9491   29.5303   33.2896 H   0  0  0  0  0  0  0  0  0  0  0  0
    1.4626   28.8499   34.8263 H   0  0  0  0  0  0  0  0  0  0  0  0
    0.0497   30.0259   35.1549 H   0  0  0  0  0  0  0  0  0  0  0  0
   -0.9359   28.8427   33.7320 H   0  0  0  0  0  0  0  0  0  0  0  0
    0.5173   28.3996   32.9061 H   0  0  0  0  0  0  0  0  0  0  0  0
  2  6  1  0
  2 10  1  0
  2  5  1  0
  3  4  1  0
  5 11  1  0
  5  3  1  0
  8 18  1  0
  9 20  1  0
  9 17  1  0
 10 22  2  0
 11  1  2  0
 13 21  2  3
 14  8  1  0
 15  6  1  0
 17 14  1  0
 18 13  1  0
 19  9  1  0
 20 19  1  0
 20 26  1  0
 20 12  1  0
 21 16  1  0
 21 23  1  0
 22  4  1  0
 23 11  1  0
 24 25  1  0
 25  7  1  0
 26 12  1  0
 26 24  1  0
  2 27  1  0
  3 28  1  0
  3 29  1  0
  4 30  1  0
  4 31  1  0
  5 32  1  0
  7 33  1  0
  7 34  1  0
  7 35  1  0
  8 36  1  0
  8 37  1  0
  9 38  1  0
 10 39  1  0
 12 40  1  0
 12 41  1  0
 13 42  1  0
 14 43  1  0
 14 44  1  0
 15 45  1  0
 15 46  1  0
 15 47  1  0
 16 48  1  0
 16 49  1  0
 16 50  1  0
 17 51  1  0
 17 52  1  0
 18 53  1  0
 18 54  1  0
 19 55  1  0
 19 56  1  0
 22 57  1  0
 23 58  1  0
 24 59  1  0
 24 60  1  0
 25 61  1  0
 25 62  1  0
 26 63  1  0
M  CHG  1  24   1
M  END
>  <mol_id>  (4) 
2026-09-18-6fnk-s0-n100-0004

>  <rmsd_to_ref>  (4) 


$$$$

     RDKit          3D

 42 41  0  0  0  0  0  0  0  0999 V2000
    3.9670   23.7520   35.3030 C   0  0  0  0  0  0  0  0  0  0  0  0
    2.5510   22.8250   35.3130 C   0  0  0  0  0  0  0  0  0  0  0  0
    0.7190   20.4730   39.5260 C   0  0  0  0  0  0  0  0  0  0  0  0
    2.5890   22.4030   36.8020 C   0  0  0  0  0  0  0  0  0  0  0  0
    5.7960   22.5770   38.2540 C   0  0  0  0  0  0  0  0  0  0  0  0
   -0.1700   19.8380   43.0620 N   0  0  0  0  0  4  0  0  0  0  0  0
    0.2900   20.3640   41.9020 C   0  0  0  0  0  0  0  0  0  0  0  0
    5.3690   23.8210   36.1940 C   0  0  0  0  0  0  0  0  0  0  0  0
    0.7450   21.4570   41.5590 N   0  0  0  0  0  4  0  0  0  0  0  0
    1.7600   21.0790   36.3930 O   0  0  0  0  0  0  0  0  0  0  0  0
   -0.1630   22.1060   37.1700 O   0  0  0  0  0  0  0  0  0  0  0  0
    0.4520   19.1510   40.5160 S   0  0  0  0  0  0  0  0  0  0  0  0
    6.2200   23.0530   37.0150 C   0  0  0  0  0  0  0  0  0  0  0  0
    3.3680   21.9850   38.0450 C   0  0  0  0  0  0  0  0  0  0  0  0
    0.7150   21.2780   36.9610 C   0  0  0  0  0  0  0  0  0  0  0  0
    0.7740   21.6910   40.2070 C   0  0  0  0  0  0  0  0  0  0  0  0
    0.2280   20.0120   36.9160 F   0  0  0  0  0  0  0  0  0  0  0  0
    4.3445   23.5943   34.2819 H   0  0  0  0  0  0  0  0  0  0  0  0
    3.5050   24.6099   35.8134 H   0  0  0  0  0  0  0  0  0  0  0  0
    1.6593   23.4217   35.0705 H   0  0  0  0  0  0  0  0  0  0  0  0
    2.5005   22.0081   34.5781 H   0  0  0  0  0  0  0  0  0  0  0  0
   -0.0972   20.5246   38.7904 H   0  0  0  0  0  0  0  0  0  0  0  0
    1.7032   20.3258   39.0573 H   0  0  0  0  0  0  0  0  0  0  0  0
    2.6218   23.3914   37.2836 H   0  0  0  0  0  0  0  0  0  0  0  0
    6.2978   23.1404   39.0545 H   0  0  0  0  0  0  0  0  0  0  0  0
    4.7071   22.7048   38.3428 H   0  0  0  0  0  0  0  0  0  0  0  0
    6.0484   21.5100   38.3428 H   0  0  0  0  0  0  0  0  0  0  0  0
    0.2610   20.3308   43.8572 H   0  0  0  0  0  0  0  0  0  0  0  0
   -1.1935   19.9452   43.1056 H   0  0  0  0  0  0  0  0  0  0  0  0
    0.0726   18.8379   43.1056 H   0  0  0  0  0  0  0  0  0  0  0  0
   -0.7250   20.7094   41.6561 H   0  0  0  0  0  0  0  0  0  0  0  0
    6.0802   24.1573   35.4252 H   0  0  0  0  0  0  0  0  0  0  0  0
    4.8223   24.1979   37.0710 H   0  0  0  0  0  0  0  0  0  0  0  0
    0.1686   22.1908   41.9950 H   0  0  0  0  0  0  0  0  0  0  0  0
    1.7281   21.4611   41.8661 H   0  0  0  0  0  0  0  0  0  0  0  0
    6.5084   22.1706   36.4249 H   0  0  0  0  0  0  0  0  0  0  0  0
    7.0003   23.7770   37.2924 H   0  0  0  0  0  0  0  0  0  0  0  0
    2.8106   22.2841   38.9449 H   0  0  0  0  0  0  0  0  0  0  0  0
    3.5030   20.8933   38.0433 H   0  0  0  0  0  0  0  0  0  0  0  0
    4.3523   22.4761   38.0433 H   0  0  0  0  0  0  0  0  0  0  0  0
    1.7041   22.2167   39.9450 H   0  0  0  0  0  0  0  0  0  0  0  0
   -0.0884   22.3115   39.9221 H   0  0  0  0  0  0  0  0  0  0  0  0
  1  2  1  0
  1  8  1  0
  2  4  1  0
  3 16  1  0
  3 12  1  0
  4 14  1  0
  7  6  1  0
  8 13  1  0
  9  7  1  0
 10  4  1  0
 10 15  1  0
 12  7  1  0
 13  5  1  0
 15 11  2  0
 16  9  1  0
 17 15  1  0
  1 18  1  0
  1 19  1  0
  2 20  1  0
  2 21  1  0
  3 22  1  0
  3 23  1  0
  4 24  1  0
  5 25  1  0
  5 26  1  0
  5 27  1  0
  6 28  1  0
  6 29  1  0
  6 30  1  0
  7 31  1  0
  8 32  1  0
  8 33  1  0
  9 34  1  0
  9 35  1  0
 13 36  1  0
 13 37  1  0
 14 38  1  0
 14 39  1  0
 14 40  1  0
 16 41  1  0
 16 42  1  0
M  CHG  2   6   1   9   1
M  END
>  <mol_id>  (5) 
2026-09-18-6fnk-s0-n100-0005

>  <rmsd_to_ref>  (5) 


$$$$

     RDKit          3D

 53 56  0  0  0  0  0  0  0  0999 V2000
    2.3370   18.2780   38.2530 C   0  0  0  0  0  0  0  0  0  0  0  0
    0.8210   16.4580   40.2530 N   0  0  0  0  0  0  0  0  0  0  0  0
    2.7540   26.3240   31.4780 C   0  0  0  0  0  0  0  0  0  0  0  0
    2.6320   22.1270   37.7700 C   0  0  0  0  0  0  0  0  0  0  0  0
    3.2370   25.0420   33.6560 C   0  0  0  0  0  0  0  0  0  0  0  0
    0.7320   15.3410   41.0350 C   0  0  0  0  0  0  0  0  0  0  0  0
    3.6080   20.8090   42.2060 F   0  0  0  0  0  0  0  0  0  0  0  0
    0.7300   24.6830   34.2520 C   0  0  0  0  0  0  0  0  0  0  0  0
   -0.1950   14.5280   40.5030 N   0  0  0  0  0  0  0  0  0  0  0  0
    2.1810   23.9770   34.2350 S   0  0  0  0  0  4  0  0  0  0  0  0
    2.1960   18.4990   39.7040 C   0  0  0  0  0  0  0  0  0  0  0  0
   -0.0100   16.3030   39.2380 C   0  0  0  0  0  0  0  0  0  0  0  0
    2.9480   20.7320   37.5750 C   0  0  0  0  0  0  0  0  0  0  0  0
    2.9190   19.8300   41.6460 C   0  0  0  0  0  0  0  0  0  0  0  0
    1.1920   24.5890   37.1330 S   0  0  0  0  0  0  0  0  0  0  0  0
    2.2270   23.1530   36.7600 C   0  0  0  0  0  0  0  0  0  0  0  0
    1.5650   17.5940   40.6030 C   0  0  0  0  0  0  0  0  0  0  0  0
    2.8940   19.6220   40.2820 C   0  0  0  0  0  0  0  0  0  0  0  0
    2.6790   19.4900   37.5130 N   0  0  0  0  0  0  0  0  0  0  0  0
    0.8190   25.5790   33.0610 C   0  0  0  0  0  0  0  0  0  0  0  0
    2.7660   23.1430   35.4890 C   0  0  0  0  0  0  0  0  0  0  0  0
    0.3840   25.1710   35.6660 C   0  0  0  0  0  0  0  0  0  0  0  0
    2.0460   17.2610   37.6180 O   0  0  0  0  0  0  0  0  0  0  0  0
    1.5580   17.8700   42.0590 C   0  0  0  0  0  0  0  0  0  0  0  0
    2.2060   18.9700   42.5220 C   0  0  0  0  0  0  0  0  0  0  0  0
   -0.6430   15.1480   39.3570 C   0  0  0  0  0  0  0  0  0  0  0  0
    2.2250   25.4460   32.6240 C   0  0  0  0  0  0  0  0  0  0  0  0
    3.2791   27.1955   31.8961 H   0  0  0  0  0  0  0  0  0  0  0  0
    3.4500   25.7388   30.8590 H   0  0  0  0  0  0  0  0  0  0  0  0
    1.9114   26.6658   30.8590 H   0  0  0  0  0  0  0  0  0  0  0  0
    1.8076   22.1208   38.4982 H   0  0  0  0  0  0  0  0  0  0  0  0
    3.6526   22.4913   37.9590 H   0  0  0  0  0  0  0  0  0  0  0  0
    3.5077   25.8410   34.3619 H   0  0  0  0  0  0  0  0  0  0  0  0
    4.2504   24.7309   33.3625 H   0  0  0  0  0  0  0  0  0  0  0  0
    1.3187   15.1420   41.9439 H   0  0  0  0  0  0  0  0  0  0  0  0
   -0.1826   24.0851   34.1117 H   0  0  0  0  0  0  0  0  0  0  0  0
    1.9571   22.8857   33.4376 H   0  0  0  0  0  0  0  0  0  0  0  0
   -0.1534   17.0238   38.4196 H   0  0  0  0  0  0  0  0  0  0  0  0
    3.3928   20.8285   36.5736 H   0  0  0  0  0  0  0  0  0  0  0  0
    2.9825   20.6286   38.6696 H   0  0  0  0  0  0  0  0  0  0  0  0
    3.1267   23.7403   36.9958 H   0  0  0  0  0  0  0  0  0  0  0  0
    3.4178   20.3279   39.6207 H   0  0  0  0  0  0  0  0  0  0  0  0
    2.7197   19.2276   36.5178 H   0  0  0  0  0  0  0  0  0  0  0  0
    0.1298   25.2488   32.2698 H   0  0  0  0  0  0  0  0  0  0  0  0
    0.5409   26.6186   33.2890 H   0  0  0  0  0  0  0  0  0  0  0  0
    2.7556   22.0895   35.1728 H   0  0  0  0  0  0  0  0  0  0  0  0
    3.7092   23.6806   35.6660 H   0  0  0  0  0  0  0  0  0  0  0  0
    0.5359   26.2604   35.6525 H   0  0  0  0  0  0  0  0  0  0  0  0
   -0.6230   24.7478   35.7962 H   0  0  0  0  0  0  0  0  0  0  0  0
    1.0364   17.1949   42.7534 H   0  0  0  0  0  0  0  0  0  0  0  0
    2.1778   19.1992   43.5975 H   0  0  0  0  0  0  0  0  0  0  0  0
   -1.3969   14.7509   38.6613 H   0  0  0  0  0  0  0  0  0  0  0  0
    2.0652   24.5157   32.0592 H   0  0  0  0  0  0  0  0  0  0  0  0
  1 11  1  0
  2 17  1  0
  2  6  1  0
  8 20  1  0
  8 22  1  0
  9  6  2  0
 10  5  1  0
 10  8  1  0
 10 21  1  0
 11 18  2  0
 11 17  1  0
 12 26  2  0
 12  2  1  0
 13  4  1  0
 14  7  1  0
 14 25  2  0
 16 15  1  0
 16  4  1  0
 17 24  2  0
 18 14  1  0
 19 13  1  0
 19  1  1  0
 21 16  1  0
 22 15  1  0
 23  1  2  0
 24 25  1  0
 26  9  1  0
 27  3  1  0
 27 20  1  0
 27  5  1  0
  3 28  1  0
  3 29  1  0
  3 30  1  0
  4 31  1  0
  4 32  1  0
  5 33  1  0
  5 34  1  0
  6 35  1  0
  8 36  1  0
 10 37  1  0
 12 38  1  0
 13 39  1  0
 13 40  1  0
 16 41  1  0
 18 42  1  0
 19 43  1  0
 20 44  1  0
 20 45  1  0
 21 46  1  0
 21 47  1  0
 22 48  1  0
 22 49  1  0
 24 50  1  0
 25 51  1  0
 26 52  1  0
 27 53  1  0
M  END
>  <mol_id>  (6) 
2026-09-18-6fnk-s0-n100-0006

>  <rmsd_to_ref>  (6) 


$$$$

     RDKit          3D

 65 65  0  0  0  0  0  0  0  0999 V2000
    0.3370   17.9330   38.8850 N   0  0  0  0  0  4  0  0  0  0  0  0
    3.6850   24.1700   35.3440 C   0  0  0  0  0  0  0  0  0  0  0  0
    4.2400   21.4290   38.2300 C   0  0  0  0  0  0  0  0  0  0  0  0
    4.6880   24.1600   34.9340 O   0  0  0  0  0  0  0  0  0  0  0  0
    2.1440   18.8080   41.9650 C   0  0  0  0  0  0  0  0  0  0  0  0
   -3.3340   14.6850   39.5700 O   0  0  0  0  0  0  0  0  0  0  0  0
    4.4420   22.9070   37.5050 C   0  0  0  0  0  0  0  0  0  0  0  0
    2.5390   24.3590   34.4870 C   0  0  0  0  0  0  0  0  0  0  0  0
    2.0430   19.9250   40.9730 C   0  0  0  0  0  0  0  0  0  0  0  0
    1.5940   18.7960   38.3840 C   0  0  0  0  0  0  0  0  0  0  0  0
    5.7450   23.5920   37.9610 C   0  0  0  0  0  0  0  0  0  0  0  0
   -2.0710   15.0920   39.6530 C   0  0  0  0  0  0  0  0  0  0  0  0
    2.5770   25.5270   33.2830 C   0  0  0  0  0  0  0  0  0  0  0  0
    2.6470   21.3870   38.7910 S   0  0  0  0  0  0  0  0  0  0  0  0
    0.3160   17.6790   36.1100 C   0  0  0  0  0  0  0  0  0  0  0  0
    1.8170   25.3100   32.0560 C   0  0  0  0  0  0  0  0  0  0  0  0
   -1.5560   15.9670   40.7690 C   0  0  0  0  0  0  0  0  0  0  0  0
    2.0960   19.8450   39.4060 C   0  0  0  0  0  0  0  0  0  0  0  0
   -1.4670   16.3450   38.7290 C   0  0  0  0  0  0  0  0  0  0  0  0
    1.4010   26.3360   33.1690 C   0  0  0  0  0  0  0  0  0  0  0  0
    1.2760   24.2170   35.2450 C   0  0  0  0  0  0  0  0  0  0  0  0
   -0.3860   16.9910   38.1770 C   0  0  0  0  0  0  0  0  0  0  0  0
    6.9020   22.5690   38.0630 C   0  0  0  0  0  0  0  0  0  0  0  0
   -0.6510   17.2180   36.8690 O   0  0  0  0  0  0  0  0  0  0  0  0
    3.3590   23.5510   36.7650 C   0  0  0  0  0  0  0  0  0  0  0  0
    0.6815   17.4279   39.7139 H   0  0  0  0  0  0  0  0  0  0  0  0
   -0.3675   18.6840   38.9081 H   0  0  0  0  0  0  0  0  0  0  0  0
    4.9421   21.3179   39.0695 H   0  0  0  0  0  0  0  0  0  0  0  0
    4.4361   20.6084   37.5242 H   0  0  0  0  0  0  0  0  0  0  0  0
    2.1069   19.2188   42.9847 H   0  0  0  0  0  0  0  0  0  0  0  0
    1.3052   18.1114   41.8195 H   0  0  0  0  0  0  0  0  0  0  0  0
    3.0942   18.2732   41.8195 H   0  0  0  0  0  0  0  0  0  0  0  0
   -3.7029   14.5661   40.4810 H   0  0  0  0  0  0  0  0  0  0  0  0
    4.5264   22.9356   36.4086 H   0  0  0  0  0  0  0  0  0  0  0  0
    2.6055   23.5132   33.7869 H   0  0  0  0  0  0  0  0  0  0  0  0
    1.0773   20.4036   41.1929 H   0  0  0  0  0  0  0  0  0  0  0  0
    3.0278   20.3839   41.1451 H   0  0  0  0  0  0  0  0  0  0  0  0
    2.4213   18.1046   38.1657 H   0  0  0  0  0  0  0  0  0  0  0  0
    1.2585   19.3553   37.4982 H   0  0  0  0  0  0  0  0  0  0  0  0
    6.0162   24.3706   37.2328 H   0  0  0  0  0  0  0  0  0  0  0  0
    5.5796   24.0348   38.9543 H   0  0  0  0  0  0  0  0  0  0  0  0
   -1.8150   14.0300   39.5245 H   0  0  0  0  0  0  0  0  0  0  0  0
    3.6433   25.7457   33.4414 H   0  0  0  0  0  0  0  0  0  0  0  0
    1.1273   18.0658   36.7443 H   0  0  0  0  0  0  0  0  0  0  0  0
    0.7020   16.8680   35.4749 H   0  0  0  0  0  0  0  0  0  0  0  0
   -0.0710   18.4895   35.4749 H   0  0  0  0  0  0  0  0  0  0  0  0
    1.2454   24.3819   31.9080 H   0  0  0  0  0  0  0  0  0  0  0  0
    2.0186   25.3417   30.9751 H   0  0  0  0  0  0  0  0  0  0  0  0
   -1.8200   15.5185   41.7381 H   0  0  0  0  0  0  0  0  0  0  0  0
   -0.4623   16.0546   40.6913 H   0  0  0  0  0  0  0  0  0  0  0  0
   -2.0103   16.9658   40.6913 H   0  0  0  0  0  0  0  0  0  0  0  0
    2.2787   18.7618   39.4637 H   0  0  0  0  0  0  0  0  0  0  0  0
   -2.0471   16.1721   37.8105 H   0  0  0  0  0  0  0  0  0  0  0  0
   -1.3286   16.9338   39.6478 H   0  0  0  0  0  0  0  0  0  0  0  0
    1.4862   27.4176   32.9874 H   0  0  0  0  0  0  0  0  0  0  0  0
    0.5049   26.5172   33.7807 H   0  0  0  0  0  0  0  0  0  0  0  0
    1.4910   24.2412   36.3235 H   0  0  0  0  0  0  0  0  0  0  0  0
    0.5988   25.0447   34.9875 H   0  0  0  0  0  0  0  0  0  0  0  0
    0.7995   23.2596   34.9875 H   0  0  0  0  0  0  0  0  0  0  0  0
    0.4587   16.2931   38.2739 H   0  0  0  0  0  0  0  0  0  0  0  0
    7.1249   22.3719   39.1220 H   0  0  0  0  0  0  0  0  0  0  0  0
    6.6068   21.6312   37.5697 H   0  0  0  0  0  0  0  0  0  0  0  0
    7.7966   22.9769   37.5697 H   0  0  0  0  0  0  0  0  0  0  0  0
    2.9741   24.3665   37.3949 H   0  0  0  0  0  0  0  0  0  0  0  0
    2.6539   22.7345   36.5502 H   0  0  0  0  0  0  0  0  0  0  0  0
  2 25  1  0
  3 14  1  0
  4  2  2  0
  6 12  1  0
  7 25  1  0
  7 11  1  0
  7  3  1  0
  8 21  1  0
  8  2  1  0
  9  5  1  0
 10  1  1  0
 11 23  1  0
 12 17  1  0
 13  8  1  0
 14 18  1  0
 15 24  1  0
 16 20  1  0
 16 13  1  0
 18 10  1  0
 18  9  1  0
 19 12  1  0
 20 13  1  0
 22 19  1  0
 22  1  1  0
 24 22  1  0
  1 26  1  0
  1 27  1  0
  3 28  1  0
  3 29  1  0
  5 30  1  0
  5 31  1  0
  5 32  1  0
  6 33  1  0
  7 34  1  0
  8 35  1  0
  9 36  1  0
  9 37  1  0
 10 38  1  0
 10 39  1  0
 11 40  1  0
 11 41  1  0
 12 42  1  0
 13 43  1  0
 15 44  1  0
 15 45  1  0
 15 46  1  0
 16 47  1  0
 16 48  1  0
 17 49  1  0
 17 50  1  0
 17 51  1  0
 18 52  1  0
 19 53  1  0
 19 54  1  0
 20 55  1  0
 20 56  1  0
 21 57  1  0
 21 58  1  0
 21 59  1  0
 22 60  1  0
 23 61  1  0
 23 62  1  0
 23 63  1  0
 25 64  1  0
 25 65  1  0
M  CHG  1   1   1
M  END
>  <mol_id>  (7) 
2026-09-18-6fnk-s0-n100-0007

>  <rmsd_to_ref>  (7) 


$$$$

     RDKit          3D

 48 50  0  0  0  0  0  0  0  0999 V2000
    4.4650   23.2210   34.7200 C   0  0  0  0  0  0  0  0  0  0  0  0
    2.4920   21.2980   38.7050 C   0  0  0  0  0  0  0  0  0  0  0  0
   -0.5880   16.3870   38.2660 C   0  0  0  0  0  0  0  0  0  0  0  0
    1.2390   20.0700   42.2960 C   0  0  0  0  0  0  0  0  0  0  0  0
    0.6070   16.2180   40.1980 C   0  0  0  0  0  0  0  0  0  0  0  0
    2.5110   17.7210   39.9430 C   0  0  0  0  0  0  0  0  0  0  0  0
    1.5590   18.9210   42.5840 O   0  0  0  0  0  0  0  0  0  0  0  0
    2.2000   22.3180   35.2210 C   0  0  0  0  0  0  0  0  0  0  0  0
    2.6280   22.1100   36.5240 C   0  0  0  0  0  0  0  0  0  0  0  0
    1.2910   16.9550   39.4280 C   0  0  0  0  0  0  0  0  0  0  0  0
    2.8740   22.8050   32.8750 C   0  0  0  0  0  0  0  0  0  0  0  0
    0.6430   17.1070   38.4250 C   0  0  0  0  0  0  0  0  0  0  0  0
    4.7940   23.0290   36.0190 C   0  0  0  0  0  0  0  0  0  0  0  0
   -0.3180   15.3300   40.2030 N   0  0  0  0  0  0  0  0  0  0  0  0
   -0.9680   15.4270   39.1510 C   0  0  0  0  0  0  0  0  0  0  0  0
    1.8520   21.6010   37.6020 C   0  0  0  0  0  0  0  0  0  0  0  0
    3.9390   22.2940   36.8930 C   0  0  0  0  0  0  0  0  0  0  0  0
    4.1880   21.8180   38.6180 S   0  0  0  0  0  0  0  0  0  0  0  0
    3.1470   22.7730   34.2270 C   0  0  0  0  0  0  0  0  0  0  0  0
    5.8660   23.4160   36.3560 C   0  0  0  0  0  0  0  0  0  0  0  0
    1.6910   20.7720   41.0930 N   0  0  0  0  0  0  0  0  0  0  0  0
    0.3200   20.8130   43.1400 C   0  0  0  0  0  0  0  0  0  0  0  0
    3.3920   23.8890   32.0490 C   0  0  0  0  0  0  0  0  0  0  0  0
   -2.0670   14.6470   39.1810 O   0  0  0  0  0  0  0  0  0  0  0  0
    2.7860   19.1570   40.1580 N   0  0  0  0  0  0  0  0  0  0  0  0
    2.0750   20.3060   39.7970 C   0  0  0  0  0  0  0  0  0  0  0  0
    6.8560   23.5440   36.9230 O   0  0  0  0  0  0  0  0  0  0  0  0
    5.1753   23.7079   34.0356 H   0  0  0  0  0  0  0  0  0  0  0  0
   -1.3898   17.1400   38.2614 H   0  0  0  0  0  0  0  0  0  0  0  0
   -0.4060   15.8060   37.3499 H   0  0  0  0  0  0  0  0  0  0  0  0
    0.1668   16.9739   40.8649 H   0  0  0  0  0  0  0  0  0  0  0  0
    1.3881   15.4435   40.1951 H   0  0  0  0  0  0  0  0  0  0  0  0
    3.3568   17.0694   40.2075 H   0  0  0  0  0  0  0  0  0  0  0  0
    1.7922   21.3619   34.8611 H   0  0  0  0  0  0  0  0  0  0  0  0
    1.4943   23.1571   35.3104 H   0  0  0  0  0  0  0  0  0  0  0  0
    3.2650   21.8685   32.4505 H   0  0  0  0  0  0  0  0  0  0  0  0
    1.7857   22.9619   32.8420 H   0  0  0  0  0  0  0  0  0  0  0  0
    0.9913   17.7916   37.6376 H   0  0  0  0  0  0  0  0  0  0  0  0
   -0.4924   14.6490   40.9558 H   0  0  0  0  0  0  0  0  0  0  0  0
    0.7637   21.4677   37.5139 H   0  0  0  0  0  0  0  0  0  0  0  0
    1.7419   21.7951   41.2009 H   0  0  0  0  0  0  0  0  0  0  0  0
    0.5567   20.6216   44.1971 H   0  0  0  0  0  0  0  0  0  0  0  0
    0.4183   21.8885   42.9311 H   0  0  0  0  0  0  0  0  0  0  0  0
   -0.7111   20.4916   42.9311 H   0  0  0  0  0  0  0  0  0  0  0  0
    3.7756   24.6918   32.6959 H   0  0  0  0  0  0  0  0  0  0  0  0
    4.2060   23.5093   31.4140 H   0  0  0  0  0  0  0  0  0  0  0  0
    2.5852   24.2838   31.4140 H   0  0  0  0  0  0  0  0  0  0  0  0
    1.2703   20.0679   39.0859 H   0  0  0  0  0  0  0  0  0  0  0  0
  1 13  1  0
  2 26  1  0
  3 12  1  0
  3 15  1  0
  4  7  2  0
  4 22  1  0
  5 14  1  0
  6 25  2  3
  8  9  1  0
  9 17  2  0
  9 16  1  0
 10  6  1  0
 10  5  1  0
 11 19  1  0
 12 10  2  0
 13 20  2  0
 13 17  1  0
 15 24  2  0
 15 14  1  0
 16  2  2  0
 17 18  1  0
 18  2  1  0
 19  1  2  0
 19  8  1  0
 20 27  2  0
 21  4  1  0
 23 11  1  0
 26 25  1  0
 26 21  1  0
  1 28  1  0
  3 29  1  0
  3 30  1  0
  5 31  1  0
  5 32  1  0
  6 33  1  0
  8 34  1  0
  8 35  1  0
 11 36  1  0
 11 37  1  0
 12 38  1  0
 14 39  1  0
 16 40  1  0
 21 41  1  0
 22 42  1  0
 22 43  1  0
 22 44  1  0
 23 45  1  0
 23 46  1  0
 23 47  1  0
 26 48  1  0
M  END
>  <mol_id>  (8) 
2026-09-18-6fnk-s0-n100-0008

>  <rmsd_to_ref>  (8) 


$$$$

     RDKit          3D

 58 59  0  0  0  0  0  0  0  0999 V2000
    0.2010   25.7110   32.3050 C   0  0  0  0  0  0  0  0  0  0  0  0
   -0.6830   15.7860   39.2310 C   0  0  0  0  0  0  0  0  0  0  0  0
    1.9610   20.1210   41.9970 C   0  0  0  0  0  0  0  0  0  0  0  0
    2.5070   19.5170   38.4040 N   0  0  0  0  0  0  0  0  0  0  0  0
    1.5280   18.0470   40.2000 N   0  0  0  0  0  0  0  0  0  0  0  0
    2.9360   20.6910   38.0120 C   0  0  0  0  0  0  0  0  0  0  0  0
    3.6920   20.3360   42.2330 C   0  0  0  0  0  0  0  0  0  0  0  0
    1.0120   24.3510   34.6240 C   0  0  0  0  0  0  0  0  0  0  0  0
    1.3910   17.8180   41.6560 C   0  0  0  0  0  0  0  0  0  0  0  0
    3.2180   24.5710   33.7590 C   0  0  0  0  0  0  0  0  0  0  0  0
    1.7210   18.8730   42.6760 C   0  0  0  0  0  0  0  0  0  0  0  0
    3.7320   23.5660   34.3350 C   0  0  0  0  0  0  0  0  0  0  0  0
    1.6750   23.3090   35.4390 C   0  0  0  0  0  0  0  0  0  0  0  0
    2.7020   22.6930   35.0770 C   0  0  0  0  0  0  0  0  0  0  0  0
    1.6260   16.9180   39.4260 C   0  0  0  0  0  0  0  0  0  0  0  0
    1.8040   25.0240   33.8030 C   0  0  0  0  0  0  0  0  0  0  0  0
    0.9930   27.2760   34.0390 C   0  0  0  0  0  0  0  0  0  0  0  0
    3.8770   21.2880   38.7480 O   0  0  0  0  0  0  0  0  0  0  0  0
    1.3660   26.1740   33.0460 C   0  0  0  0  0  0  0  0  0  0  0  0
    2.7380   16.5070   39.5670 O   0  0  0  0  0  0  0  0  0  0  0  0
    2.8320   21.6020   35.8710 N   0  0  0  0  0  0  0  0  0  0  0  0
    2.6890   21.1780   36.8420 N   0  0  0  0  0  0  0  0  0  0  0  0
    1.7600   19.4230   39.6610 C   0  0  0  0  0  0  0  0  0  0  0  0
   -1.3440   14.6350   39.5040 O   0  0  0  0  0  0  0  0  0  0  0  0
   -1.0260   16.4770   37.9430 C   0  0  0  0  0  0  0  0  0  0  0  0
    0.4620   16.3600   38.3850 C   0  0  0  0  0  0  0  0  0  0  0  0
   -0.5827   25.3995   33.0112 H   0  0  0  0  0  0  0  0  0  0  0  0
   -0.1788   26.5265   31.6720 H   0  0  0  0  0  0  0  0  0  0  0  0
    0.4846   24.8572   31.6720 H   0  0  0  0  0  0  0  0  0  0  0  0
   -0.7100   15.7998   40.3306 H   0  0  0  0  0  0  0  0  0  0  0  0
    1.3898   20.9419   42.4550 H   0  0  0  0  0  0  0  0  0  0  0  0
    1.6534   20.1186   40.9409 H   0  0  0  0  0  0  0  0  0  0  0  0
    3.9146   20.3636   43.3099 H   0  0  0  0  0  0  0  0  0  0  0  0
    4.2323   19.4981   41.7683 H   0  0  0  0  0  0  0  0  0  0  0  0
    4.0109   21.2807   41.7683 H   0  0  0  0  0  0  0  0  0  0  0  0
    0.2332   23.8634   34.0193 H   0  0  0  0  0  0  0  0  0  0  0  0
    0.6214   25.0899   35.3392 H   0  0  0  0  0  0  0  0  0  0  0  0
    0.3378   17.5491   41.8249 H   0  0  0  0  0  0  0  0  0  0  0  0
    2.1780   17.0722   41.8413 H   0  0  0  0  0  0  0  0  0  0  0  0
    3.9024   25.1824   33.1525 H   0  0  0  0  0  0  0  0  0  0  0  0
    2.6214   18.5776   43.2345 H   0  0  0  0  0  0  0  0  0  0  0  0
    0.8824   18.9867   43.3787 H   0  0  0  0  0  0  0  0  0  0  0  0
    4.2315   22.9465   33.5756 H   0  0  0  0  0  0  0  0  0  0  0  0
    4.4363   23.9485   35.0884 H   0  0  0  0  0  0  0  0  0  0  0  0
    1.9368   23.7946   36.3907 H   0  0  0  0  0  0  0  0  0  0  0  0
    0.9240   22.5058   35.4083 H   0  0  0  0  0  0  0  0  0  0  0  0
    2.8336   22.1004   34.1597 H   0  0  0  0  0  0  0  0  0  0  0  0
    1.1194   26.9024   35.0659 H   0  0  0  0  0  0  0  0  0  0  0  0
    1.6464   28.1470   33.8826 H   0  0  0  0  0  0  0  0  0  0  0  0
   -0.0551   27.5711   33.8826 H   0  0  0  0  0  0  0  0  0  0  0  0
    2.1275   26.5785   32.3630 H   0  0  0  0  0  0  0  0  0  0  0  0
    2.3030   20.9199   35.3091 H   0  0  0  0  0  0  0  0  0  0  0  0
    1.6608   21.1166   36.8484 H   0  0  0  0  0  0  0  0  0  0  0  0
    1.3889   20.3182   40.1815 H   0  0  0  0  0  0  0  0  0  0  0  0
   -1.4113   14.5178   40.4847 H   0  0  0  0  0  0  0  0  0  0  0  0
   -1.5293   17.4550   37.9613 H   0  0  0  0  0  0  0  0  0  0  0  0
   -1.5920   16.2016   37.0409 H   0  0  0  0  0  0  0  0  0  0  0  0
    1.2813   16.3291   37.6517 H   0  0  0  0  0  0  0  0  0  0  0  0
  1 19  1  0
  2 24  1  0
  3  7  1  0
  3 11  1  0
  4 23  2  3
  5  9  1  0
  6  4  1  0
  6 18  2  0
  8 13  1  0
  9 11  1  0
 10 16  2  0
 10 12  1  0
 12 14  1  0
 14 13  1  0
 14 21  1  0
 15 20  2  0
 15  5  1  0
 16  8  1  0
 19 16  1  0
 19 17  1  0
 21 22  1  0
 22  6  1  0
 23  5  1  0
 25 26  1  0
 25  2  1  0
 26  2  1  0
 26 15  1  0
  1 27  1  0
  1 28  1  0
  1 29  1  0
  2 30  1  0
  3 31  1  0
  3 32  1  0
  7 33  1  0
  7 34  1  0
  7 35  1  0
  8 36  1  0
  8 37  1  0
  9 38  1  0
  9 39  1  0
 10 40  1  0
 11 41  1  0
 11 42  1  0
 12 43  1  0
 12 44  1  0
 13 45  1  0
 13 46  1  0
 14 47  1  0
 17 48  1  0
 17 49  1  0
 17 50  1  0
 19 51  1  0
 21 52  1  0
 22 53  1  0
 23 54  1  0
 24 55  1  0
 25 56  1  0
 25 57  1  0
 26 58  1  0
M  END
>  <mol_id>  (9) 
2026-09-18-6fnk-s0-n100-0009

>  <rmsd_to_ref>  (9) 


$$$$

     RDKit          3D

 63 65  0  0  0  0  0  0  0  0999 V2000
   -0.1640   20.3530   43.6240 C   0  0  0  0  0  0  0  0  0  0  0  0
    1.5030   15.9070   36.6290 C   0  0  0  0  0  0  0  0  0  0  0  0
    3.5070   24.0020   34.5460 C   0  0  0  0  0  0  0  0  0  0  0  0
    0.9040   20.8290   42.5790 O   0  0  0  0  0  0  0  0  0  0  0  0
    1.9390   25.5400   32.7460 C   0  0  0  0  0  0  0  0  0  0  0  0
    2.7490   20.9010   38.5520 C   0  0  0  0  0  0  0  0  0  0  0  0
    1.8500   19.8690   42.1510 C   0  0  0  0  0  0  0  0  0  0  0  0
    5.0080   24.1800   34.9840 C   0  0  0  0  0  0  0  0  0  0  0  0
    2.1770   16.9850   37.2750 C   0  0  0  0  0  0  0  0  0  0  0  0
    1.9830   22.7150   36.2190 C   0  0  0  0  0  0  0  0  0  0  0  0
    1.6970   17.4880   38.6000 C   0  0  0  0  0  0  0  0  0  0  0  0
    2.7760   25.2210   33.9650 N   0  0  0  0  0  0  0  0  0  0  0  0
    2.4990   19.8600   39.5820 C   0  0  0  0  0  0  0  0  0  0  0  0
    2.8980   22.0660   37.5300 S   0  0  0  0  0  4  0  0  0  0  0  0
    2.5650   20.1690   41.0510 N   0  0  0  0  0  4  0  0  0  0  0  0
   -0.9380   14.1550   40.0900 C   0  0  0  0  0  0  0  0  0  0  0  0
   -0.1550   15.7330   38.4680 C   0  0  0  0  0  0  0  0  0  0  0  0
    1.0240   26.7390   32.8140 C   0  0  0  0  0  0  0  0  0  0  0  0
    0.3730   15.3170   37.2510 C   0  0  0  0  0  0  0  0  0  0  0  0
    2.1970   18.6420   39.1870 N   0  0  0  0  0  0  0  0  0  0  0  0
    2.4460   23.7360   35.5570 C   0  0  0  0  0  0  0  0  0  0  0  0
    1.5950   24.4810   34.6290 C   0  0  0  0  0  0  0  0  0  0  0  0
    0.8090   25.7650   35.1630 C   0  0  0  0  0  0  0  0  0  0  0  0
   -1.2130   15.1120   39.0450 O   0  0  0  0  0  0  0  0  0  0  0  0
    0.3210   26.7280   34.1040 C   0  0  0  0  0  0  0  0  0  0  0  0
    1.8890   18.6220   42.9880 C   0  0  0  0  0  0  0  0  0  0  0  0
    0.5530   16.7860   39.2230 C   0  0  0  0  0  0  0  0  0  0  0  0
    0.2175   20.5230   44.6416 H   0  0  0  0  0  0  0  0  0  0  0  0
   -1.0950   20.9214   43.4817 H   0  0  0  0  0  0  0  0  0  0  0  0
   -0.3637   19.2807   43.4817 H   0  0  0  0  0  0  0  0  0  0  0  0
    1.8567   15.5359   35.6558 H   0  0  0  0  0  0  0  0  0  0  0  0
    3.7759   23.1669   33.8825 H   0  0  0  0  0  0  0  0  0  0  0  0
    1.3120   24.6602   32.5393 H   0  0  0  0  0  0  0  0  0  0  0  0
    2.6717   25.7948   31.9661 H   0  0  0  0  0  0  0  0  0  0  0  0
    3.7988   21.0012   38.8649 H   0  0  0  0  0  0  0  0  0  0  0  0
    2.0620   20.3858   37.8645 H   0  0  0  0  0  0  0  0  0  0  0  0
    2.6100   20.3285   42.8001 H   0  0  0  0  0  0  0  0  0  0  0  0
    5.0711   24.1875   36.0822 H   0  0  0  0  0  0  0  0  0  0  0  0
    5.6068   23.3466   34.5880 H   0  0  0  0  0  0  0  0  0  0  0  0
    5.3953   25.1304   34.5880 H   0  0  0  0  0  0  0  0  0  0  0  0
    3.0529   17.4484   36.7975 H   0  0  0  0  0  0  0  0  0  0  0  0
    1.0155   22.2693   35.9445 H   0  0  0  0  0  0  0  0  0  0  0  0
    3.5697   19.6078   39.5870 H   0  0  0  0  0  0  0  0  0  0  0  0
    4.0972   21.7780   36.9334 H   0  0  0  0  0  0  0  0  0  0  0  0
    3.5053   19.8326   41.3031 H   0  0  0  0  0  0  0  0  0  0  0  0
    2.1467   21.1044   40.9464 H   0  0  0  0  0  0  0  0  0  0  0  0
   -1.0755   14.6335   41.0709 H   0  0  0  0  0  0  0  0  0  0  0  0
   -1.6277   13.3030   39.9977 H   0  0  0  0  0  0  0  0  0  0  0  0
    0.0988   13.7991   39.9977 H   0  0  0  0  0  0  0  0  0  0  0  0
    1.6166   27.6614   32.7242 H   0  0  0  0  0  0  0  0  0  0  0  0
    0.2947   26.6986   31.9915 H   0  0  0  0  0  0  0  0  0  0  0  0
   -0.1169   14.4765   36.7376 H   0  0  0  0  0  0  0  0  0  0  0  0
    2.8615   18.1622   39.8108 H   0  0  0  0  0  0  0  0  0  0  0  0
    2.7403   23.8621   36.6094 H   0  0  0  0  0  0  0  0  0  0  0  0
    0.8562   23.8120   34.1635 H   0  0  0  0  0  0  0  0  0  0  0  0
   -0.0668   25.4133   35.7281 H   0  0  0  0  0  0  0  0  0  0  0  0
    1.5353   26.3291   35.7666 H   0  0  0  0  0  0  0  0  0  0  0  0
    0.3910   27.7419   34.5248 H   0  0  0  0  0  0  0  0  0  0  0  0
   -0.6958   26.3842   33.8633 H   0  0  0  0  0  0  0  0  0  0  0  0
    1.8805   18.8952   44.0535 H   0  0  0  0  0  0  0  0  0  0  0  0
    1.0098   18.0008   42.7617 H   0  0  0  0  0  0  0  0  0  0  0  0
    2.8053   18.0570   42.7617 H   0  0  0  0  0  0  0  0  0  0  0  0
    0.2320   17.0470   40.2422 H   0  0  0  0  0  0  0  0  0  0  0  0
  2 19  2  0
  2  9  1  0
  3  8  1  0
  3 21  1  0
  4  1  1  0
  5 18  1  0
  7  4  1  0
  7 26  1  0
  9 11  2  0
 10 14  2  3
 11 20  1  0
 11 27  1  0
 12  5  1  0
 12  3  1  0
 12 22  1  0
 13  6  1  0
 13 15  1  0
 14  6  1  0
 15  7  1  0
 17 24  1  0
 17 27  2  0
 18 25  1  0
 19 17  1  0
 20 13  1  0
 21 10  1  0
 22 23  1  0
 22 21  1  0
 24 16  1  0
 25 23  1  0
  1 28  1  0
  1 29  1  0
  1 30  1  0
  2 31  1  0
  3 32  1  0
  5 33  1  0
  5 34  1  0
  6 35  1  0
  6 36  1  0
  7 37  1  0
  8 38  1  0
  8 39  1  0
  8 40  1  0
  9 41  1  0
 10 42  1  0
 13 43  1  0
 14 44  1  0
 15 45  1  0
 15 46  1  0
 16 47  1  0
 16 48  1  0
 16 49  1  0
 18 50  1  0
 18 51  1  0
 19 52  1  0
 20 53  1  0
 21 54  1  0
 22 55  1  0
 23 56  1  0
 23 57  1  0
 25 58  1  0
 25 59  1  0
 26 60  1  0
 26 61  1  0
 26 62  1  0
 27 63  1  0
M  CHG  1  15   1
M  END
>  <mol_id>  (10) 
2026-09-18-6fnk-s0-n100-0010

>  <rmsd_to_ref>  (10) 


$$$$

     RDKit          3D

 70 72  0  0  0  0  0  0  0  0999 V2000
    3.7210   19.5490   41.6900 C   0  0  0  0  0  0  0  0  0  0  0  0
    5.1830   21.5870   41.7630 C   0  0  0  0  0  0  0  0  0  0  0  0
    3.7190   23.5360   33.9120 C   0  0  0  0  0  0  0  0  0  0  0  0
    1.0340   18.2110   42.1160 O   0  0  0  0  0  0  0  0  0  0  0  0
   -1.8860   15.3740   39.0270 C   0  0  0  0  0  0  0  0  0  0  0  0
    3.6030   23.8040   32.7150 C   0  0  0  0  0  0  0  0  0  0  0  0
    2.2520   24.5620   32.2150 C   0  0  0  0  0  0  0  0  0  0  0  0
    2.1050   20.5520   39.8300 C   0  0  0  0  0  0  0  0  0  0  0  0
   -1.0500   15.9310   37.8390 C   0  0  0  0  0  0  0  0  0  0  0  0
    1.7740   21.1080   37.2460 S   0  0  0  0  0  0  0  0  0  0  0  0
    2.1060   25.4670   32.9390 C   0  0  0  0  0  0  0  0  0  0  0  0
    1.4210   25.6670   34.1080 C   0  0  0  0  0  0  0  0  0  0  0  0
    3.9680   20.8550   42.4530 C   0  0  0  0  0  0  0  0  0  0  0  0
   -0.9510   14.6270   39.9810 C   0  0  0  0  0  0  0  0  0  0  0  0
    2.4930   19.7780   40.8350 C   0  0  0  0  0  0  0  0  0  0  0  0
    0.4290   16.7570   39.5990 N   0  0  0  0  0  0  0  0  0  0  0  0
    4.0490   21.4510   38.5820 C   0  0  0  0  0  0  0  0  0  0  0  0
    1.3280   26.1250   31.3810 C   0  0  0  0  0  0  0  0  0  0  0  0
    1.6820   17.5560   39.9280 C   0  0  0  0  0  0  0  0  0  0  0  0
    1.6120   18.4580   41.0580 C   0  0  0  0  0  0  0  0  0  0  0  0
    1.1120   26.3690   32.7510 C   0  0  0  0  0  0  0  0  0  0  0  0
    2.8890   21.2040   35.9200 C   0  0  0  0  0  0  0  0  0  0  0  0
    0.2840   15.4950   40.2690 C   0  0  0  0  0  0  0  0  0  0  0  0
    0.3180   16.5940   38.1250 C   0  0  0  0  0  0  0  0  0  0  0  0
    2.6380   21.0180   38.5920 C   0  0  0  0  0  0  0  0  0  0  0  0
    2.1900   21.5100   34.7070 C   0  0  0  0  0  0  0  0  0  0  0  0
    2.1690   22.6720   34.0710 C   0  0  0  0  0  0  0  0  0  0  0  0
    4.5870   19.3098   41.0553 H   0  0  0  0  0  0  0  0  0  0  0  0
    3.5738   18.7058   42.3809 H   0  0  0  0  0  0  0  0  0  0  0  0
    5.8540   21.9913   42.5352 H   0  0  0  0  0  0  0  0  0  0  0  0
    5.7346   20.8708   41.1363 H   0  0  0  0  0  0  0  0  0  0  0  0
    4.8077   22.4094   41.1363 H   0  0  0  0  0  0  0  0  0  0  0  0
    3.7698   24.4347   34.5443 H   0  0  0  0  0  0  0  0  0  0  0  0
    4.6261   22.9929   34.2158 H   0  0  0  0  0  0  0  0  0  0  0  0
   -2.6543   14.6845   38.6471 H   0  0  0  0  0  0  0  0  0  0  0  0
   -2.3781   16.2020   39.5582 H   0  0  0  0  0  0  0  0  0  0  0  0
    4.4545   24.4446   32.4419 H   0  0  0  0  0  0  0  0  0  0  0  0
    3.5577   22.8213   32.2227 H   0  0  0  0  0  0  0  0  0  0  0  0
    2.3722   24.9153   31.1803 H   0  0  0  0  0  0  0  0  0  0  0  0
    1.3822   23.8887   32.2297 H   0  0  0  0  0  0  0  0  0  0  0  0
    1.1741   20.0617   39.5090 H   0  0  0  0  0  0  0  0  0  0  0  0
    2.3438   21.4838   40.3636 H   0  0  0  0  0  0  0  0  0  0  0  0
   -1.6724   16.6836   37.3328 H   0  0  0  0  0  0  0  0  0  0  0  0
   -0.7898   15.0337   37.2584 H   0  0  0  0  0  0  0  0  0  0  0  0
    0.7500   24.8927   34.5082 H   0  0  0  0  0  0  0  0  0  0  0  0
    1.6546   25.9700   35.1393 H   0  0  0  0  0  0  0  0  0  0  0  0
    3.0718   21.4913   42.4078 H   0  0  0  0  0  0  0  0  0  0  0  0
    4.1906   20.6489   43.5103 H   0  0  0  0  0  0  0  0  0  0  0  0
   -1.4792   14.4164   40.9226 H   0  0  0  0  0  0  0  0  0  0  0  0
   -0.6349   13.6800   39.5192 H   0  0  0  0  0  0  0  0  0  0  0  0
    2.5790   20.8645   40.9839 H   0  0  0  0  0  0  0  0  0  0  0  0
    4.4062   21.5606   39.6166 H   0  0  0  0  0  0  0  0  0  0  0  0
    4.6597   20.6989   38.0610 H   0  0  0  0  0  0  0  0  0  0  0  0
    4.1327   22.4162   38.0610 H   0  0  0  0  0  0  0  0  0  0  0  0
    1.8423   26.8500   30.7331 H   0  0  0  0  0  0  0  0  0  0  0  0
    0.7918   25.7742   30.4869 H   0  0  0  0  0  0  0  0  0  0  0  0
    2.4903   16.8371   40.1276 H   0  0  0  0  0  0  0  0  0  0  0  0
    1.8420   18.2059   39.0551 H   0  0  0  0  0  0  0  0  0  0  0  0
    0.4038   27.2104   32.7272 H   0  0  0  0  0  0  0  0  0  0  0  0
    3.6277   21.9935   36.1228 H   0  0  0  0  0  0  0  0  0  0  0  0
    3.3968   20.2348   35.8070 H   0  0  0  0  0  0  0  0  0  0  0  0
    0.2847   15.7034   41.3491 H   0  0  0  0  0  0  0  0  0  0  0  0
    1.1198   14.8958   39.8786 H   0  0  0  0  0  0  0  0  0  0  0  0
    1.1319   15.9535   37.7545 H   0  0  0  0  0  0  0  0  0  0  0  0
    0.3934   17.5673   37.6181 H   0  0  0  0  0  0  0  0  0  0  0  0
    2.9492   19.9976   38.3240 H   0  0  0  0  0  0  0  0  0  0  0  0
    2.5737   20.7899   33.9693 H   0  0  0  0  0  0  0  0  0  0  0  0
    1.1587   21.4988   35.0894 H   0  0  0  0  0  0  0  0  0  0  0  0
    1.4746   23.3329   34.6105 H   0  0  0  0  0  0  0  0  0  0  0  0
    1.8713   22.4280   33.0405 H   0  0  0  0  0  0  0  0  0  0  0  0
  1 13  1  0
  2 13  1  0
  3 27  1  0
  5 14  1  0
  6  3  1  0
  7  6  1  0
  9 24  1  0
  9  5  1  0
 10 25  1  0
 11  7  1  0
 11 12  1  0
 14 23  1  0
 15  8  1  0
 15 20  1  0
 15  1  1  0
 16 19  1  0
 16 23  1  0
 18 11  1  0
 19 20  1  0
 20  4  2  0
 21 18  1  0
 21 11  1  0
 21 12  1  0
 22 10  1  0
 24 16  1  0
 25 17  1  0
 25  8  1  0
 26 22  1  0
 27 26  1  0
  1 28  1  0
  1 29  1  0
  2 30  1  0
  2 31  1  0
  2 32  1  0
  3 33  1  0
  3 34  1  0
  5 35  1  0
  5 36  1  0
  6 37  1  0
  6 38  1  0
  7 39  1  0
  7 40  1  0
  8 41  1  0
  8 42  1  0
  9 43  1  0
  9 44  1  0
 12 45  1  0
 12 46  1  0
 13 47  1  0
 13 48  1  0
 14 49  1  0
 14 50  1  0
 15 51  1  0
 17 52  1  0
 17 53  1  0
 17 54  1  0
 18 55  1  0
 18 56  1  0
 19 57  1  0
 19 58  1  0
 21 59  1  0
 22 60  1  0
 22 61  1  0
 23 62  1  0
 23 63  1  0
 24 64  1  0
 24 65  1  0
 25 66  1  0
 26 67  1  0
 26 68  1  0
 27 69  1  0
 27 70  1  0
M  END
>  <mol_id>  (11) 
2026-09-18-6fnk-s0-n100-0011

>  <rmsd_to_ref>  (11) 


$$$$

     RDKit          3D

 56 58  0  0  0  0  0  0  0  0999 V2000
    2.5380   21.0270   38.4920 C   0  0  0  0  0  0  0  0  0  0  0  0
    3.1990   21.6340   37.6570 C   0  0  0  0  0  0  0  0  0  0  0  0
    0.4850   16.4840   38.0100 C   0  0  0  0  0  0  0  0  0  0  0  0
   -0.3000   15.0990   40.2330 C   0  0  0  0  0  0  0  0  0  0  0  0
    2.7240   23.4120   35.0840 C   0  0  0  0  0  0  0  0  0  0  0  0
   -1.6210   14.5660   39.8530 O   0  0  0  0  0  0  0  0  0  0  0  0
    2.6150   24.2590   33.6930 C   0  0  0  0  0  0  0  0  0  0  0  0
    0.2950   16.2310   39.6240 C   0  0  0  0  0  0  0  0  0  0  0  0
    1.0140   20.9370   42.8380 O   0  0  0  0  0  0  0  0  0  0  0  0
    4.6270   24.4450   32.3140 C   0  0  0  0  0  0  0  0  0  0  0  0
    2.7670   19.9330   41.4970 O   0  0  0  0  0  0  0  0  0  0  0  0
    1.8100   18.5560   43.3290 O   0  0  0  0  0  0  0  0  0  0  0  0
    1.3570   17.2080   40.5800 S   0  0  0  0  0  0  0  0  0  0  0  0
    0.9850   18.5770   44.7190 S   0  0  0  0  0  0  0  0  0  0  0  0
    1.9460   24.8090   35.1190 C   0  0  0  0  0  0  0  0  0  0  0  0
    2.2870   19.6110   39.0530 C   0  0  0  0  0  0  0  0  0  0  0  0
    2.3730   19.8290   40.4660 C   0  0  0  0  0  0  0  0  0  0  0  0
    5.6030   24.4830   31.1210 C   0  0  0  0  0  0  0  0  0  0  0  0
    1.1430   18.8030   39.7770 C   0  0  0  0  0  0  0  0  0  0  0  0
    3.5840   25.1310   30.1790 C   0  0  0  0  0  0  0  0  0  0  0  0
    5.2720   25.5310   29.7920 S   0  0  0  0  0  0  0  0  0  0  0  0
   -0.4410   15.4560   37.3480 O   0  0  0  0  0  0  0  0  0  0  0  0
    2.2060   22.6580   36.6100 C   0  0  0  0  0  0  0  0  0  0  0  0
   -0.4170   16.7240   36.7700 C   0  0  0  0  0  0  0  0  0  0  0  0
    3.6780   25.6240   31.5970 C   0  0  0  0  0  0  0  0  0  0  0  0
    1.8770   19.8570   42.6370 C   0  0  0  0  0  0  0  0  0  0  0  0
    2.8204   21.5649   39.4090 H   0  0  0  0  0  0  0  0  0  0  0  0
    1.6880   20.9373   37.7996 H   0  0  0  0  0  0  0  0  0  0  0  0
    3.9288   22.2692   38.1803 H   0  0  0  0  0  0  0  0  0  0  0  0
    3.6929   20.8870   37.0182 H   0  0  0  0  0  0  0  0  0  0  0  0
    1.4491   16.9803   38.1948 H   0  0  0  0  0  0  0  0  0  0  0  0
   -0.3698   15.3372   41.3046 H   0  0  0  0  0  0  0  0  0  0  0  0
    0.3630   14.2950   39.8809 H   0  0  0  0  0  0  0  0  0  0  0  0
    3.4467   22.5830   35.0606 H   0  0  0  0  0  0  0  0  0  0  0  0
   -2.1398   14.3567   40.6698 H   0  0  0  0  0  0  0  0  0  0  0  0
    3.5039   24.7503   33.2706 H   0  0  0  0  0  0  0  0  0  0  0  0
    2.2501   24.0609   32.6744 H   0  0  0  0  0  0  0  0  0  0  0  0
   -0.7691   16.5097   39.6209 H   0  0  0  0  0  0  0  0  0  0  0  0
    4.1173   23.4789   32.4437 H   0  0  0  0  0  0  0  0  0  0  0  0
    5.0022   24.5864   33.3383 H   0  0  0  0  0  0  0  0  0  0  0  0
    1.8622   18.5547   45.7711 H   0  0  0  0  0  0  0  0  0  0  0  0
    0.8532   24.8273   35.2431 H   0  0  0  0  0  0  0  0  0  0  0  0
    2.0285   25.7313   35.7128 H   0  0  0  0  0  0  0  0  0  0  0  0
    2.7071   19.1458   38.1491 H   0  0  0  0  0  0  0  0  0  0  0  0
    2.8803   20.6292   41.0248 H   0  0  0  0  0  0  0  0  0  0  0  0
    6.5864   24.7720   31.5202 H   0  0  0  0  0  0  0  0  0  0  0  0
    5.5208   23.4763   30.6853 H   0  0  0  0  0  0  0  0  0  0  0  0
    0.0845   18.6568   39.5158 H   0  0  0  0  0  0  0  0  0  0  0  0
    3.3674   24.0548   30.1086 H   0  0  0  0  0  0  0  0  0  0  0  0
    2.7921   25.5443   29.5370 H   0  0  0  0  0  0  0  0  0  0  0  0
    1.8817   23.4932   37.2481 H   0  0  0  0  0  0  0  0  0  0  0  0
    1.5093   21.9027   36.2174 H   0  0  0  0  0  0  0  0  0  0  0  0
    0.0447   16.8613   35.7811 H   0  0  0  0  0  0  0  0  0  0  0  0
   -1.1920   17.4642   36.5221 H   0  0  0  0  0  0  0  0  0  0  0  0
    4.1618   26.6107   31.6458 H   0  0  0  0  0  0  0  0  0  0  0  0
    2.7013   25.7634   32.0835 H   0  0  0  0  0  0  0  0  0  0  0  0
  2  1  1  0
  3  8  1  0
  5 15  1  0
  5 23  1  0
  6  4  1  0
  7  5  1  0
  7 15  1  0
  8  4  1  0
  8 13  1  0
 11 26  1  0
 12 14  1  0
 16  1  1  0
 16 19  1  0
 16 17  1  0
 17 11  1  0
 18 10  1  0
 19 17  1  0
 19 13  1  0
 20 25  1  0
 21 20  1  0
 21 18  1  0
 22  3  1  0
 23  2  1  0
 24 22  1  0
 24  3  1  0
 25 10  1  0
 26  9  2  0
 26 12  1  0
  1 27  1  0
  1 28  1  0
  2 29  1  0
  2 30  1  0
  3 31  1  0
  4 32  1  0
  4 33  1  0
  5 34  1  0
  6 35  1  0
  7 36  1  0
  7 37  1  0
  8 38  1  0
 10 39  1  0
 10 40  1  0
 14 41  1  0
 15 42  1  0
 15 43  1  0
 16 44  1  0
 17 45  1  0
 18 46  1  0
 18 47  1  0
 19 48  1  0
 20 49  1  0
 20 50  1  0
 23 51  1  0
 23 52  1  0
 24 53  1  0
 24 54  1  0
 25 55  1  0
 25 56  1  0
M  END
>  <mol_id>  (12) 
2026-09-18-6fnk-s0-n100-0012

>  <rmsd_to_ref>  (12) 


$$$$

     RDKit          3D

 68 70  0  0  0  0  0  0  0  0999 V2000
    3.1710   25.0950   32.2100 C   0  0  0  0  0  0  0  0  0  0  0  0
    0.1210   15.6780   37.2440 C   0  0  0  0  0  0  0  0  0  0  0  0
    0.7160   17.8350   42.7450 C   0  0  0  0  0  0  0  0  0  0  0  0
    3.4440   23.2090   35.2230 C   0  0  0  0  0  0  0  0  0  0  0  0
    6.1500   24.6310   35.0740 C   0  0  0  0  0  0  0  0  0  0  0  0
    3.3360   25.1860   34.0780 C   0  0  0  0  0  0  0  0  0  0  0  0
    1.8270   18.6140   38.5840 O   0  0  0  0  0  0  0  0  0  0  0  0
    1.5290   16.1940   41.2730 C   0  0  0  0  0  0  0  0  0  0  0  0
    3.8470   22.3950   37.1400 C   0  0  0  0  0  0  0  0  0  0  0  0
    0.6750   16.5710   39.1120 N   0  0  0  0  0  0  0  0  0  0  0  0
    5.6870   23.5340   36.3260 C   0  0  0  0  0  0  0  0  0  0  0  0
    5.5230   23.3830   32.4600 C   0  0  0  0  0  0  0  0  0  0  0  0
    1.7190   17.6930   41.3220 C   0  0  0  0  0  0  0  0  0  0  0  0
    3.0590   16.8330   38.6800 O   0  0  0  0  0  0  0  0  0  0  0  0
    4.4330   25.1600   33.2350 C   0  0  0  0  0  0  0  0  0  0  0  0
    2.5680   21.2740   35.5010 O   0  0  0  0  0  0  0  0  0  0  0  0
    6.7950   24.4110   36.7840 C   0  0  0  0  0  0  0  0  0  0  0  0
    0.1690   14.1900   37.2790 N   0  0  0  0  0  4  0  0  0  0  0  0
    3.1900   17.9910   41.8750 C   0  0  0  0  0  0  0  0  0  0  0  0
    1.8580   17.4700   39.0980 C   0  0  0  0  0  0  0  0  0  0  0  0
    0.5950   15.6740   40.2430 C   0  0  0  0  0  0  0  0  0  0  0  0
   -0.6400   16.1870   38.6230 C   0  0  0  0  0  0  0  0  0  0  0  0
    4.6520   23.1180   36.3590 C   0  0  0  0  0  0  0  0  0  0  0  0
    2.7890   22.2010   36.1340 C   0  0  0  0  0  0  0  0  0  0  0  0
    2.4260   23.9470   34.8760 O   0  0  0  0  0  0  0  0  0  0  0  0
   -1.5760   16.9120   37.9820 C   0  0  0  0  0  0  0  0  0  0  0  0
    5.3230   24.0510   33.9150 C   0  0  0  0  0  0  0  0  0  0  0  0
    2.8849   24.1675   31.6925 H   0  0  0  0  0  0  0  0  0  0  0  0
    2.7302   25.6465   31.3665 H   0  0  0  0  0  0  0  0  0  0  0  0
    1.1421   16.0854   37.2069 H   0  0  0  0  0  0  0  0  0  0  0  0
   -0.4214   16.0261   36.3526 H   0  0  0  0  0  0  0  0  0  0  0  0
    1.3420   17.7464   43.6452 H   0  0  0  0  0  0  0  0  0  0  0  0
    0.2131   18.8133   42.7430 H   0  0  0  0  0  0  0  0  0  0  0  0
   -0.0387   17.0347   42.7430 H   0  0  0  0  0  0  0  0  0  0  0  0
    3.9129   23.3604   34.2395 H   0  0  0  0  0  0  0  0  0  0  0  0
    6.4806   25.4523   34.4211 H   0  0  0  0  0  0  0  0  0  0  0  0
    3.1947   25.8021   34.9782 H   0  0  0  0  0  0  0  0  0  0  0  0
    1.8085   19.2972   39.3002 H   0  0  0  0  0  0  0  0  0  0  0  0
    2.5137   15.7389   41.0903 H   0  0  0  0  0  0  0  0  0  0  0  0
    1.0723   15.9287   42.2379 H   0  0  0  0  0  0  0  0  0  0  0  0
    4.3055   21.4485   37.4623 H   0  0  0  0  0  0  0  0  0  0  0  0
    3.5496   22.8390   38.1015 H   0  0  0  0  0  0  0  0  0  0  0  0
    5.5859   22.5365   36.7785 H   0  0  0  0  0  0  0  0  0  0  0  0
    5.8367   22.3353   32.5776 H   0  0  0  0  0  0  0  0  0  0  0  0
    4.5739   23.4216   31.9052 H   0  0  0  0  0  0  0  0  0  0  0  0
    6.2947   23.9368   31.9052 H   0  0  0  0  0  0  0  0  0  0  0  0
    1.5410   18.2793   40.4085 H   0  0  0  0  0  0  0  0  0  0  0  0
    3.5800   16.5567   39.4752 H   0  0  0  0  0  0  0  0  0  0  0  0
    5.2795   25.7712   32.8887 H   0  0  0  0  0  0  0  0  0  0  0  0
    2.3845   20.5043   36.0959 H   0  0  0  0  0  0  0  0  0  0  0  0
    7.7983   23.9872   36.9386 H   0  0  0  0  0  0  0  0  0  0  0  0
    6.9394   25.0820   37.6436 H   0  0  0  0  0  0  0  0  0  0  0  0
    0.1793   13.8698   38.2579 H   0  0  0  0  0  0  0  0  0  0  0  0
   -0.6601   13.8084   36.8017 H   0  0  0  0  0  0  0  0  0  0  0  0
    1.0210   13.8626   36.8017 H   0  0  0  0  0  0  0  0  0  0  0  0
    3.1758   17.9881   42.9749 H   0  0  0  0  0  0  0  0  0  0  0  0
    3.8812   17.2146   41.5152 H   0  0  0  0  0  0  0  0  0  0  0  0
    3.5246   18.9752   41.5152 H   0  0  0  0  0  0  0  0  0  0  0  0
    1.8214   17.6889   40.1754 H   0  0  0  0  0  0  0  0  0  0  0  0
   -0.4313   15.6545   40.6384 H   0  0  0  0  0  0  0  0  0  0  0  0
    0.8626   14.6477   39.9512 H   0  0  0  0  0  0  0  0  0  0  0  0
   -1.2145   15.7617   39.4591 H   0  0  0  0  0  0  0  0  0  0  0  0
    5.0124   22.1850   35.9010 H   0  0  0  0  0  0  0  0  0  0  0  0
    1.8029   22.2115   36.6214 H   0  0  0  0  0  0  0  0  0  0  0  0
   -2.2213   17.4118   38.7194 H   0  0  0  0  0  0  0  0  0  0  0  0
   -1.0857   17.6683   37.3514 H   0  0  0  0  0  0  0  0  0  0  0  0
   -2.1857   16.2482   37.3514 H   0  0  0  0  0  0  0  0  0  0  0  0
    5.2027   23.2256   34.6321 H   0  0  0  0  0  0  0  0  0  0  0  0
  2 18  1  0
  2 22  1  0
  4 25  1  0
  4 24  1  0
  4 23  1  0
  5 11  1  0
  5 17  1  0
  6  1  1  0
  6 25  1  0
  7 20  1  0
  8 13  1  0
 10 21  1  0
 11 23  1  0
 11 17  1  0
 13 19  1  0
 13  3  1  0
 14 20  1  0
 15  1  1  0
 15 27  1  0
 15  6  1  0
 20 10  1  0
 21  8  1  0
 22 26  1  0
 22 10  1  0
 23  9  1  0
 24 16  1  0
 24  9  1  0
 27 12  1  0
 27  5  1  0
  1 28  1  0
  1 29  1  0
  2 30  1  0
  2 31  1  0
  3 32  1  0
  3 33  1  0
  3 34  1  0
  4 35  1  0
  5 36  1  0
  6 37  1  0
  7 38  1  0
  8 39  1  0
  8 40  1  0
  9 41  1  0
  9 42  1  0
 11 43  1  0
 12 44  1  0
 12 45  1  0
 12 46  1  0
 13 47  1  0
 14 48  1  0
 15 49  1  0
 16 50  1  0
 17 51  1  0
 17 52  1  0
 18 53  1  0
 18 54  1  0
 18 55  1  0
 19 56  1  0
 19 57  1  0
 19 58  1  0
 20 59  1  0
 21 60  1  0
 21 61  1  0
 22 62  1  0
 23 63  1  0
 24 64  1  0
 26 65  1  0
 26 66  1  0
 26 67  1  0
 27 68  1  0
M  CHG  1  18   1
M  END
>  <mol_id>  (13) 
2026-09-18-6fnk-s0-n100-0013

>  <rmsd_to_ref>  (13) 


$$$$

     RDKit          3D

 77 79  0  0  0  0  0  0  0  0999 V2000
    3.4370   24.0800   33.3480 C   0  0  0  0  0  0  0  0  0  0  0  0
    3.2620   25.0880   32.2240 C   0  0  0  0  0  0  0  0  0  0  0  0
    1.9550   19.1850   39.4980 C   0  0  0  0  0  0  0  0  0  0  0  0
    1.7460   22.0750   37.1050 C   0  0  0  0  0  0  0  0  0  0  0  0
   -0.5890   13.8320   39.5260 O   0  0  0  0  0  0  0  0  0  0  0  0
    2.4850   19.9840   42.0760 C   0  0  0  0  0  0  0  0  0  0  0  0
    1.2770   16.4300   40.8720 C   0  0  0  0  0  0  0  0  0  0  0  0
    2.0100   22.4680   35.9090 C   0  0  0  0  0  0  0  0  0  0  0  0
    2.0190   26.0710   32.2510 C   0  0  0  0  0  0  0  0  0  0  0  0
   -0.0700   14.9820   39.1980 C   0  0  0  0  0  0  0  0  0  0  0  0
    0.3720   28.5860   34.7210 C   0  0  0  0  0  0  0  0  0  0  0  0
    3.8480   19.8160   42.6170 O   0  0  0  0  0  0  0  0  0  0  0  0
   -0.5470   16.7940   38.0960 O   0  0  0  0  0  0  0  0  0  0  0  0
    2.1270   18.7520   41.0130 C   0  0  0  0  0  0  0  0  0  0  0  0
   -1.0000   13.9500   41.8430 O   0  0  0  0  0  0  0  0  0  0  0  0
   -0.2810   16.9430   36.8850 C   0  0  0  0  0  0  0  0  0  0  0  0
    2.1250   22.7500   34.5860 C   0  0  0  0  0  0  0  0  0  0  0  0
    2.4870   21.4160   41.3460 C   0  0  0  0  0  0  0  0  0  0  0  0
    2.5410   20.9190   37.7040 C   0  0  0  0  0  0  0  0  0  0  0  0
   -0.8580   11.7650   40.7700 C   0  0  0  0  0  0  0  0  0  0  0  0
    2.2830   20.5800   39.0970 C   0  0  0  0  0  0  0  0  0  0  0  0
    1.6260   28.0460   33.8760 C   0  0  0  0  0  0  0  0  0  0  0  0
    1.7770   17.4680   41.1430 C   0  0  0  0  0  0  0  0  0  0  0  0
    1.9330   26.9750   33.2680 C   0  0  0  0  0  0  0  0  0  0  0  0
    2.2870   21.6110   40.1140 C   0  0  0  0  0  0  0  0  0  0  0  0
    4.7480   20.8440   43.2200 C   0  0  0  0  0  0  0  0  0  0  0  0
    1.5410   29.3690   34.5960 C   0  0  0  0  0  0  0  0  0  0  0  0
    1.3200   19.7070   43.1680 C   0  0  0  0  0  0  0  0  0  0  0  0
    1.0660   26.1640   33.5250 C   0  0  0  0  0  0  0  0  0  0  0  0
   -0.8890   13.2820   40.7750 C   0  0  0  0  0  0  0  0  0  0  0  0
   -0.8450   16.1600   38.8540 C   0  0  0  0  0  0  0  0  0  0  0  0
    0.9490   15.4920   40.0130 C   0  0  0  0  0  0  0  0  0  0  0  0
    2.5120   24.1850   34.2960 C   0  0  0  0  0  0  0  0  0  0  0  0
    4.4252   24.2351   33.8055 H   0  0  0  0  0  0  0  0  0  0  0  0
    3.3382   23.0778   32.9056 H   0  0  0  0  0  0  0  0  0  0  0  0
    4.1663   25.7142   32.2107 H   0  0  0  0  0  0  0  0  0  0  0  0
    3.0800   24.4618   31.3381 H   0  0  0  0  0  0  0  0  0  0  0  0
    2.5954   18.5202   38.8997 H   0  0  0  0  0  0  0  0  0  0  0  0
    0.8705   19.1137   39.3285 H   0  0  0  0  0  0  0  0  0  0  0  0
    0.9551   22.5674   37.6898 H   0  0  0  0  0  0  0  0  0  0  0  0
    0.8867   16.0620   41.8323 H   0  0  0  0  0  0  0  0  0  0  0  0
    1.9004   23.5289   36.1782 H   0  0  0  0  0  0  0  0  0  0  0  0
    2.2743   21.4276   35.6688 H   0  0  0  0  0  0  0  0  0  0  0  0
    1.9308   25.9986   31.1569 H   0  0  0  0  0  0  0  0  0  0  0  0
    0.2538   14.5178   38.2548 H   0  0  0  0  0  0  0  0  0  0  0  0
   -0.5514   28.8879   34.2051 H   0  0  0  0  0  0  0  0  0  0  0  0
   -0.2249   28.2038   35.5622 H   0  0  0  0  0  0  0  0  0  0  0  0
    0.6745   17.4782   36.7826 H   0  0  0  0  0  0  0  0  0  0  0  0
   -0.2027   15.9574   36.4028 H   0  0  0  0  0  0  0  0  0  0  0  0
   -1.0805   17.5246   36.4028 H   0  0  0  0  0  0  0  0  0  0  0  0
    2.8936   22.0905   34.1568 H   0  0  0  0  0  0  0  0  0  0  0  0
    1.1332   22.5899   34.1380 H   0  0  0  0  0  0  0  0  0  0  0  0
    2.6786   22.3003   41.9716 H   0  0  0  0  0  0  0  0  0  0  0  0
    3.2798   20.3635   37.1077 H   0  0  0  0  0  0  0  0  0  0  0  0
   -0.8504   11.3950   41.8059 H   0  0  0  0  0  0  0  0  0  0  0  0
   -1.7485   11.3818   40.2502 H   0  0  0  0  0  0  0  0  0  0  0  0
    0.0474   11.4185   40.2502 H   0  0  0  0  0  0  0  0  0  0  0  0
    1.2132   20.7892   38.9498 H   0  0  0  0  0  0  0  0  0  0  0  0
    2.0361   27.5786   34.7834 H   0  0  0  0  0  0  0  0  0  0  0  0
    2.8972   27.5010   33.3278 H   0  0  0  0  0  0  0  0  0  0  0  0
    2.1013   22.6451   39.7881 H   0  0  0  0  0  0  0  0  0  0  0  0
    4.6931   20.7813   44.3168 H   0  0  0  0  0  0  0  0  0  0  0  0
    5.7826   20.6623   42.8936 H   0  0  0  0  0  0  0  0  0  0  0  0
    4.4311   21.8455   42.8936 H   0  0  0  0  0  0  0  0  0  0  0  0
    2.1689   29.5311   35.4845 H   0  0  0  0  0  0  0  0  0  0  0  0
    1.7025   30.4034   34.2584 H   0  0  0  0  0  0  0  0  0  0  0  0
    1.7363   19.8060   44.1814 H   0  0  0  0  0  0  0  0  0  0  0  0
    0.5087   20.4373   43.0319 H   0  0  0  0  0  0  0  0  0  0  0  0
    0.9242   18.6897   43.0319 H   0  0  0  0  0  0  0  0  0  0  0  0
    0.0034   26.4249   33.4120 H   0  0  0  0  0  0  0  0  0  0  0  0
    0.8021   25.5178   34.3751 H   0  0  0  0  0  0  0  0  0  0  0  0
   -1.8505   15.8040   38.5853 H   0  0  0  0  0  0  0  0  0  0  0  0
   -0.7346   16.7891   39.7496 H   0  0  0  0  0  0  0  0  0  0  0  0
    1.1777   14.5982   40.6120 H   0  0  0  0  0  0  0  0  0  0  0  0
    1.3123   16.1149   39.1823 H   0  0  0  0  0  0  0  0  0  0  0  0
    2.9246   24.6684   35.1938 H   0  0  0  0  0  0  0  0  0  0  0  0
    1.6552   24.8018   33.9870 H   0  0  0  0  0  0  0  0  0  0  0  0
  1 33  1  0
  2  1  1  0
  3 14  1  0
  4 19  2  3
  5 30  1  0
  6 12  1  0
  6 28  1  0
  7 23  2  0
  8  4  1  0
  9  2  1  0
  9 24  1  0
  9 29  1  0
 10 31  1  0
 10  5  1  0
 10 32  1  0
 12 26  1  0
 13 31  1  0
 14 23  2  0
 14  6  1  0
 16 13  1  0
 17  8  1  0
 18  6  1  0
 20 30  1  0
 21 19  1  0
 21  3  1  0
 21 25  1  0
 22 27  1  0
 22 11  1  0
 24 29  1  0
 24 22  1  0
 25 18  2  0
 27 11  1  0
 30 15  2  0
 32  7  1  0
 33 17  1  0
  1 34  1  0
  1 35  1  0
  2 36  1  0
  2 37  1  0
  3 38  1  0
  3 39  1  0
  4 40  1  0
  7 41  1  0
  8 42  1  0
  8 43  1  0
  9 44  1  0
 10 45  1  0
 11 46  1  0
 11 47  1  0
 16 48  1  0
 16 49  1  0
 16 50  1  0
 17 51  1  0
 17 52  1  0
 18 53  1  0
 19 54  1  0
 20 55  1  0
 20 56  1  0
 20 57  1  0
 21 58  1  0
 22 59  1  0
 24 60  1  0
 25 61  1  0
 26 62  1  0
 26 63  1  0
 26 64  1  0
 27 65  1  0
 27 66  1  0
 28 67  1  0
 28 68  1  0
 28 69  1  0
 29 70  1  0
 29 71  1  0
 31 72  1  0
 31 73  1  0
 32 74  1  0
 32 75  1  0
 33 76  1  0
 33 77  1  0
M  END
>  <mol_id>  (14) 
2026-09-18-6fnk-s0-n100-0014

>  <rmsd_to_ref>  (14) 


$$$$

     RDKit          3D

 51 51  0  0  0  0  0  0  0  0999 V2000
    2.4280   20.2580   41.2180 C   0  0  0  0  0  0  0  0  0  0  0  0
    0.8140   23.4370   34.8430 C   0  0  0  0  0  0  0  0  0  0  0  0
    3.8600   21.5550   37.9060 C   0  0  0  0  0  0  0  0  0  0  0  0
    1.6550   14.9590   36.8630 C   0  0  0  0  0  0  0  0  0  0  0  0
    2.8530   16.5090   35.6810 F   0  0  0  0  0  0  0  0  0  0  0  0
    1.3330   17.3790   37.3450 N   0  0  0  0  0  0  0  0  0  0  0  0
    3.4970   20.7610   40.3620 N   0  0  0  0  0  0  0  0  0  0  0  0
    2.1610   20.0700   38.5660 O   0  0  0  0  0  0  0  0  0  0  0  0
    0.7530   22.8940   35.9470 C   0  0  0  0  0  0  0  0  0  0  0  0
    3.1340   23.5370   34.6050 C   0  0  0  0  0  0  0  0  0  0  0  0
    0.5140   17.1230   38.5510 C   0  0  0  0  0  0  0  0  0  0  0  0
    3.1070   20.7460   38.9430 C   0  0  0  0  0  0  0  0  0  0  0  0
    2.9850   22.3160   36.7410 C   0  0  0  0  0  0  0  0  0  0  0  0
    1.8350   24.0580   34.0610 C   0  0  0  0  0  0  0  0  0  0  0  0
    6.0180   22.9380   38.0440 C   0  0  0  0  0  0  0  0  0  0  0  0
    1.6280   22.5180   36.9310 C   0  0  0  0  0  0  0  0  0  0  0  0
   -0.3640   14.8970   38.1330 O   0  0  0  0  0  0  0  0  0  0  0  0
    5.2610   21.6040   37.9790 C   0  0  0  0  0  0  0  0  0  0  0  0
    0.7560   14.2480   37.6590 C   0  0  0  0  0  0  0  0  0  0  0  0
    3.0580   19.4300   42.3350 C   0  0  0  0  0  0  0  0  0  0  0  0
    3.5320   22.8540   35.6020 C   0  0  0  0  0  0  0  0  0  0  0  0
   -0.6860   16.2450   38.1770 C   0  0  0  0  0  0  0  0  0  0  0  0
    1.3480   25.0640   32.9580 C   0  0  0  0  0  0  0  0  0  0  0  0
    1.7560   16.3250   36.5970 C   0  0  0  0  0  0  0  0  0  0  0  0
    1.7446   19.6289   40.6288 H   0  0  0  0  0  0  0  0  0  0  0  0
    1.8570   21.0964   41.6435 H   0  0  0  0  0  0  0  0  0  0  0  0
   -0.1603   23.4458   34.3325 H   0  0  0  0  0  0  0  0  0  0  0  0
    3.9247   20.6669   37.2602 H   0  0  0  0  0  0  0  0  0  0  0  0
    2.4114   14.3380   36.3607 H   0  0  0  0  0  0  0  0  0  0  0  0
    4.4111   21.0862   40.7078 H   0  0  0  0  0  0  0  0  0  0  0  0
    0.0608   23.5530   36.4916 H   0  0  0  0  0  0  0  0  0  0  0  0
    0.6745   21.8805   35.5266 H   0  0  0  0  0  0  0  0  0  0  0  0
    3.9776   23.8270   33.9614 H   0  0  0  0  0  0  0  0  0  0  0  0
    1.1248   16.6067   39.3062 H   0  0  0  0  0  0  0  0  0  0  0  0
    0.1554   18.0789   38.9604 H   0  0  0  0  0  0  0  0  0  0  0  0
    6.1771   23.2184   39.0957 H   0  0  0  0  0  0  0  0  0  0  0  0
    6.9908   22.8324   37.5414 H   0  0  0  0  0  0  0  0  0  0  0  0
    5.4285   23.7190   37.5414 H   0  0  0  0  0  0  0  0  0  0  0  0
    1.2249   22.3657   37.9431 H   0  0  0  0  0  0  0  0  0  0  0  0
    5.5438   21.0432   38.8821 H   0  0  0  0  0  0  0  0  0  0  0  0
    5.5612   21.2113   36.9963 H   0  0  0  0  0  0  0  0  0  0  0  0
    0.9374   13.1909   37.9033 H   0  0  0  0  0  0  0  0  0  0  0  0
    2.7498   19.8351   43.3102 H   0  0  0  0  0  0  0  0  0  0  0  0
    2.7243   18.3853   42.2499 H   0  0  0  0  0  0  0  0  0  0  0  0
    4.1539   19.4730   42.2499 H   0  0  0  0  0  0  0  0  0  0  0  0
    4.6077   22.6346   35.5327 H   0  0  0  0  0  0  0  0  0  0  0  0
   -1.0532   16.5525   37.1868 H   0  0  0  0  0  0  0  0  0  0  0  0
   -1.4540   16.3802   38.9528 H   0  0  0  0  0  0  0  0  0  0  0  0
    0.9169   25.9546   33.4386 H   0  0  0  0  0  0  0  0  0  0  0  0
    2.2014   25.3624   32.3314 H   0  0  0  0  0  0  0  0  0  0  0  0
    0.5846   24.5797   32.3314 H   0  0  0  0  0  0  0  0  0  0  0  0
  1 20  1  0
  2  9  1  0
  3 18  1  0
  3 12  1  0
  4 19  2  0
  5 24  1  0
  6 11  1  0
  7  1  1  0
  8 12  2  0
  9 16  1  0
 10 21  2  0
 12  7  1  0
 13 16  2  0
 13  3  1  0
 14 10  1  0
 14  2  2  0
 17 22  1  0
 18 15  1  0
 19 17  1  0
 21 13  1  0
 22 11  1  0
 23 14  1  0
 24  4  1  0
 24  6  2  0
  1 25  1  0
  1 26  1  0
  2 27  1  0
  3 28  1  0
  4 29  1  0
  7 30  1  0
  9 31  1  0
  9 32  1  0
 10 33  1  0
 11 34  1  0
 11 35  1  0
 15 36  1  0
 15 37  1  0
 15 38  1  0
 16 39  1  0
 18 40  1  0
 18 41  1  0
 19 42  1  0
 20 43  1  0
 20 44  1  0
 20 45  1  0
 21 46  1  0
 22 47  1  0
 22 48  1  0
 23 49  1  0
 23 50  1  0
 23 51  1  0
M  END
>  <mol_id>  (15) 
2026-09-18-6fnk-s0-n100-0015

>  <rmsd_to_ref>  (15) 


$$$$

     RDKit          3D

 55 57  0  0  0  0  0  0  0  0999 V2000
    1.4460   18.1220   40.3950 C   0  0  0  0  0  0  0  0  0  0  0  0
    1.4960   26.3280   33.5420 C   0  0  0  0  0  0  0  0  0  0  0  0
    1.7160   18.1500   38.9190 C   0  0  0  0  0  0  0  0  0  0  0  0
    1.0910   23.2250   35.6020 C   0  0  0  0  0  0  0  0  0  0  0  0
    2.7470   22.3100   35.2830 N   0  0  0  0  0  0  0  0  0  0  0  0
    3.4140   22.8310   34.3390 N   0  0  0  0  0  0  0  0  0  0  0  0
    2.1080   22.2600   36.3140 N   0  0  0  0  0  0  0  0  0  0  0  0
    2.2030   25.7560   32.5080 C   0  0  0  0  0  0  0  0  0  0  0  0
    2.9050   24.5030   32.6680 C   0  0  0  0  0  0  0  0  0  0  0  0
    2.7560   19.8700   35.7850 O   0  0  0  0  0  0  0  0  0  0  0  0
    3.3140   19.5760   43.1060 N   0  0  0  0  0  0  0  0  0  0  0  0
    2.6650   23.9360   33.8940 C   0  0  0  0  0  0  0  0  0  0  0  0
    0.8400   15.5750   39.0310 S   0  0  0  0  0  0  0  0  0  0  0  0
    1.5800   24.3050   34.7390 C   0  0  0  0  0  0  0  0  0  0  0  0
    0.9050   18.4730   43.4850 Cl  0  0  0  0  0  0  0  0  0  0  0  0
    3.8760   20.3250   42.1340 O   0  0  0  0  0  0  0  0  0  0  0  0
    1.2220   17.0490   38.1520 C   0  0  0  0  0  0  0  0  0  0  0  0
    1.2430   27.5850   33.5380 F   0  0  0  0  0  0  0  0  0  0  0  0
    2.1540   19.2220   41.1200 C   0  0  0  0  0  0  0  0  0  0  0  0
    0.9710   25.5690   34.5720 C   0  0  0  0  0  0  0  0  0  0  0  0
    2.3340   20.5760   38.1420 N   0  0  0  0  0  0  0  0  0  0  0  0
    2.3300   19.2840   38.5870 O   0  0  0  0  0  0  0  0  0  0  0  0
   -0.3250   16.8430   36.4190 C   0  0  0  0  0  0  0  0  0  0  0  0
    3.1800   20.3480   41.0210 C   0  0  0  0  0  0  0  0  0  0  0  0
    2.2060   19.0540   42.5950 C   0  0  0  0  0  0  0  0  0  0  0  0
    1.0870   17.0270   36.8120 N   0  0  0  0  0  0  0  0  0  0  0  0
    2.0650   20.7830   36.7180 C   0  0  0  0  0  0  0  0  0  0  0  0
    0.3636   18.2289   40.5592 H   0  0  0  0  0  0  0  0  0  0  0  0
    1.8180   17.1644   40.7882 H   0  0  0  0  0  0  0  0  0  0  0  0
    2.4013   26.5121   34.1391 H   0  0  0  0  0  0  0  0  0  0  0  0
    2.6617   17.6123   39.0818 H   0  0  0  0  0  0  0  0  0  0  0  0
    0.4379   22.5944   34.9808 H   0  0  0  0  0  0  0  0  0  0  0  0
    0.6279   23.7647   36.4412 H   0  0  0  0  0  0  0  0  0  0  0  0
    3.4573   21.6155   35.5550 H   0  0  0  0  0  0  0  0  0  0  0  0
    4.3359   23.1384   34.6802 H   0  0  0  0  0  0  0  0  0  0  0  0
    2.9574   26.4961   32.2028 H   0  0  0  0  0  0  0  0  0  0  0  0
    1.4051   25.4879   31.7998 H   0  0  0  0  0  0  0  0  0  0  0  0
    2.5740   23.8070   31.8832 H   0  0  0  0  0  0  0  0  0  0  0  0
    3.9837   24.7038   32.5901 H   0  0  0  0  0  0  0  0  0  0  0  0
    3.2662   19.1959   36.3001 H   0  0  0  0  0  0  0  0  0  0  0  0
    3.9591   18.8265   43.3939 H   0  0  0  0  0  0  0  0  0  0  0  0
    1.9327   23.2551   33.4357 H   0  0  0  0  0  0  0  0  0  0  0  0
    1.5971   25.0029   35.5891 H   0  0  0  0  0  0  0  0  0  0  0  0
    1.6532   19.4598   40.1699 H   0  0  0  0  0  0  0  0  0  0  0  0
    1.0887   26.1333   35.5089 H   0  0  0  0  0  0  0  0  0  0  0  0
   -0.0810   25.3773   34.3139 H   0  0  0  0  0  0  0  0  0  0  0  0
    1.6171   21.0909   38.6729 H   0  0  0  0  0  0  0  0  0  0  0  0
   -0.9491   16.7617   37.3212 H   0  0  0  0  0  0  0  0  0  0  0  0
   -0.6547   17.7058   35.8216 H   0  0  0  0  0  0  0  0  0  0  0  0
   -0.4226   15.9245   35.8216 H   0  0  0  0  0  0  0  0  0  0  0  0
    3.8411   20.1833   40.1574 H   0  0  0  0  0  0  0  0  0  0  0  0
    2.6863   21.3214   40.8839 H   0  0  0  0  0  0  0  0  0  0  0  0
    2.0508   18.0748   43.0715 H   0  0  0  0  0  0  0  0  0  0  0  0
    1.8675   17.1257   36.1472 H   0  0  0  0  0  0  0  0  0  0  0  0
    1.0179   20.4677   36.5989 H   0  0  0  0  0  0  0  0  0  0  0  0
  2 18  1  0
  2 20  1  0
  3  1  1  0
  4  7  1  0
  5  7  1  0
  6  5  1  0
  7 27  1  0
  8  9  1  0
  8  2  1  0
 12  9  1  0
 12  6  1  0
 12 14  1  0
 14 20  1  0
 14  4  1  0
 16 11  1  0
 17  3  1  0
 17 13  2  0
 19  1  1  0
 19 25  1  0
 21 22  1  0
 22  3  1  0
 23 26  1  0
 24 19  1  0
 24 16  1  0
 25 11  1  0
 25 15  1  0
 26 17  1  0
 27 10  1  0
 27 21  1  0
  1 28  1  0
  1 29  1  0
  2 30  1  0
  3 31  1  0
  4 32  1  0
  4 33  1  0
  5 34  1  0
  6 35  1  0
  8 36  1  0
  8 37  1  0
  9 38  1  0
  9 39  1  0
 10 40  1  0
 11 41  1  0
 12 42  1  0
 14 43  1  0
 19 44  1  0
 20 45  1  0
 20 46  1  0
 21 47  1  0
 23 48  1  0
 23 49  1  0
 23 50  1  0
 24 51  1  0
 24 52  1  0
 25 53  1  0
 26 54  1  0
 27 55  1  0
M  END
>  <mol_id>  (16) 
2026-09-18-6fnk-s0-n100-0016

>  <rmsd_to_ref>  (16) 


$$$$

     RDKit          3D

 93 95  0  0  0  0  0  0  0  0999 V2000
    3.1400   20.5010   41.9040 C   0  0  0  0  0  0  0  0  0  0  0  0
    1.6540   19.1660   40.4920 F   0  0  0  0  0  0  0  0  0  0  0  0
   -0.7950   12.2210   40.5860 C   0  0  0  0  0  0  0  0  0  0  0  0
    0.1220   11.7910   38.2060 N   0  0  0  0  0  4  0  0  0  0  0  0
    0.5340   15.7390   37.8010 C   0  0  0  0  0  0  0  0  0  0  0  0
    1.5550   29.3080   34.1570 C   0  0  0  0  0  0  0  0  0  0  0  0
    1.9270   27.1250   33.0000 C   0  0  0  0  0  0  0  0  0  0  0  0
    4.9810   21.6410   41.0340 C   0  0  0  0  0  0  0  0  0  0  0  0
    3.5750   15.1930   39.8920 N   0  0  0  0  0  4  0  0  0  0  0  0
   -0.1530   13.4530   40.7580 C   0  0  0  0  0  0  0  0  0  0  0  0
    2.0190   28.8220   35.5840 C   0  0  0  0  0  0  0  0  0  0  0  0
    1.0570   26.6790   34.8990 C   0  0  0  0  0  0  0  0  0  0  0  0
    1.1410   14.7650   38.8350 C   0  0  0  0  0  0  0  0  0  0  0  0
   -0.1150   28.8920   35.8340 C   0  0  0  0  0  0  0  0  0  0  0  0
    0.1070   28.2530   34.1140 S   0  0  0  0  0  4  0  0  0  0  0  0
    2.6930   18.1630   37.9010 C   0  0  0  0  0  0  0  0  0  0  0  0
    0.1560   25.3870   35.8400 C   0  0  0  0  0  0  0  0  0  0  0  0
    0.7120   24.6690   34.9770 C   0  0  0  0  0  0  0  0  0  0  0  0
    1.8500   17.9230   36.6190 O   0  0  0  0  0  0  0  0  0  0  0  0
    0.4740   30.1450   36.2280 O   0  0  0  0  0  0  0  0  0  0  0  0
    1.2860   17.1690   37.8840 C   0  0  0  0  0  0  0  0  0  0  0  0
   -1.2360   15.0510   39.1420 C   0  0  0  0  0  0  0  0  0  0  0  0
    0.0220   11.3660   39.6650 C   0  0  0  0  0  0  0  0  0  0  0  0
    2.3040   15.4590   39.5660 C   0  0  0  0  0  0  0  0  0  0  0  0
    1.2550   25.0510   33.8900 C   0  0  0  0  0  0  0  0  0  0  0  0
   -0.8480   15.5420   37.8390 O   0  0  0  0  0  0  0  0  0  0  0  0
    3.2250   19.5910   38.1940 C   0  0  0  0  0  0  0  0  0  0  0  0
    0.2160   26.6500   34.2280 C   0  0  0  0  0  0  0  0  0  0  0  0
    0.4820   23.1840   35.4530 C   0  0  0  0  0  0  0  0  0  0  0  0
    2.5230   28.4750   33.2620 N   0  0  0  0  0  4  0  0  0  0  0  0
    2.7160   19.9970   40.6650 C   0  0  0  0  0  0  0  0  0  0  0  0
    3.5350   20.1910   39.5860 C   0  0  0  0  0  0  0  0  0  0  0  0
   -0.0340   14.3720   39.5790 N   0  0  0  0  0  0  0  0  0  0  0  0
    2.6450   20.4120   37.2860 C   0  0  0  0  0  0  0  0  0  0  0  0
    1.5600   30.5500   33.8760 C   0  0  0  0  0  0  0  0  0  0  0  0
   -0.7640   14.2590   41.9030 C   0  0  0  0  0  0  0  0  0  0  0  0
    4.6900   21.1270   39.8290 C   0  0  0  0  0  0  0  0  0  0  0  0
    4.1690   21.2740   42.1360 C   0  0  0  0  0  0  0  0  0  0  0  0
    0.7210   26.2290   33.3730 C   0  0  0  0  0  0  0  0  0  0  0  0
    2.5388   20.2134   42.7791 H   0  0  0  0  0  0  0  0  0  0  0  0
   -0.8972   11.7199   41.5599 H   0  0  0  0  0  0  0  0  0  0  0  0
   -1.7939   12.3810   40.1541 H   0  0  0  0  0  0  0  0  0  0  0  0
    0.3576   12.7924   38.1555 H   0  0  0  0  0  0  0  0  0  0  0  0
    0.8566   11.2414   37.7379 H   0  0  0  0  0  0  0  0  0  0  0  0
   -0.7806   11.6266   37.7379 H   0  0  0  0  0  0  0  0  0  0  0  0
    0.7229   15.5780   36.7294 H   0  0  0  0  0  0  0  0  0  0  0  0
    1.8347   27.1494   31.9042 H   0  0  0  0  0  0  0  0  0  0  0  0
    2.5514   26.6632   33.7790 H   0  0  0  0  0  0  0  0  0  0  0  0
    5.8287   22.3300   41.1632 H   0  0  0  0  0  0  0  0  0  0  0  0
    3.6695   15.1732   40.9175 H   0  0  0  0  0  0  0  0  0  0  0  0
    3.8444   14.2774   39.5047 H   0  0  0  0  0  0  0  0  0  0  0  0
    4.1889   15.9237   39.5047 H   0  0  0  0  0  0  0  0  0  0  0  0
    0.8712   13.1108   40.9678 H   0  0  0  0  0  0  0  0  0  0  0  0
    1.4789   29.3877   36.3575 H   0  0  0  0  0  0  0  0  0  0  0  0
    1.8012   27.7495   35.6948 H   0  0  0  0  0  0  0  0  0  0  0  0
    3.1004   28.9899   35.6948 H   0  0  0  0  0  0  0  0  0  0  0  0
    0.6973   26.6666   35.9385 H   0  0  0  0  0  0  0  0  0  0  0  0
    1.6976   25.8024   34.7222 H   0  0  0  0  0  0  0  0  0  0  0  0
    1.6357   27.5976   34.7222 H   0  0  0  0  0  0  0  0  0  0  0  0
    1.6463   13.8565   38.4754 H   0  0  0  0  0  0  0  0  0  0  0  0
    0.2919   28.1257   36.5102 H   0  0  0  0  0  0  0  0  0  0  0  0
   -1.1943   29.0984   35.8846 H   0  0  0  0  0  0  0  0  0  0  0  0
   -0.7048   28.3183   33.0123 H   0  0  0  0  0  0  0  0  0  0  0  0
    3.6100   17.9928   38.4842 H   0  0  0  0  0  0  0  0  0  0  0  0
    0.1734   26.4822   35.7384 H   0  0  0  0  0  0  0  0  0  0  0  0
   -0.3496   24.9223   36.6993 H   0  0  0  0  0  0  0  0  0  0  0  0
    0.5003   30.2010   37.2161 H   0  0  0  0  0  0  0  0  0  0  0  0
    0.5864   17.0002   38.7159 H   0  0  0  0  0  0  0  0  0  0  0  0
   -2.0845   14.3547   39.0702 H   0  0  0  0  0  0  0  0  0  0  0  0
   -1.5745   15.8397   39.8300 H   0  0  0  0  0  0  0  0  0  0  0  0
   -0.4121   10.3554   39.6837 H   0  0  0  0  0  0  0  0  0  0  0  0
    1.0496   11.4474   40.0490 H   0  0  0  0  0  0  0  0  0  0  0  0
    2.4065   16.3934   38.9947 H   0  0  0  0  0  0  0  0  0  0  0  0
    1.9231   15.1936   40.5632 H   0  0  0  0  0  0  0  0  0  0  0  0
    2.3274   25.2100   34.0763 H   0  0  0  0  0  0  0  0  0  0  0  0
    1.0664   24.2629   33.1461 H   0  0  0  0  0  0  0  0  0  0  0  0
   -0.7389   26.1396   34.4219 H   0  0  0  0  0  0  0  0  0  0  0  0
    0.4764   23.1481   36.5524 H   0  0  0  0  0  0  0  0  0  0  0  0
   -0.4830   22.8213   35.0694 H   0  0  0  0  0  0  0  0  0  0  0  0
    1.2921   22.5464   35.0694 H   0  0  0  0  0  0  0  0  0  0  0  0
    3.4260   28.3635   33.7448 H   0  0  0  0  0  0  0  0  0  0  0  0
    2.6690   28.9644   32.3676 H   0  0  0  0  0  0  0  0  0  0  0  0
    2.8712   21.4885   37.2944 H   0  0  0  0  0  0  0  0  0  0  0  0
    1.9479   20.0022   36.5403 H   0  0  0  0  0  0  0  0  0  0  0  0
    1.5624   31.1365   34.8066 H   0  0  0  0  0  0  0  0  0  0  0  0
    2.4591   30.7896   33.2893 H   0  0  0  0  0  0  0  0  0  0  0  0
    0.6628   30.7968   33.2893 H   0  0  0  0  0  0  0  0  0  0  0  0
   -0.4411   13.8330   42.8644 H   0  0  0  0  0  0  0  0  0  0  0  0
   -0.4297   15.3047   41.8345 H   0  0  0  0  0  0  0  0  0  0  0  0
   -1.8612   14.2196   41.8345 H   0  0  0  0  0  0  0  0  0  0  0  0
    5.3270   21.4031   38.9757 H   0  0  0  0  0  0  0  0  0  0  0  0
    4.3967   21.6275   43.1525 H   0  0  0  0  0  0  0  0  0  0  0  0
    0.0635   26.1121   32.4989 H   0  0  0  0  0  0  0  0  0  0  0  0
  1 38  2  0
  2 31  1  0
  3 10  1  0
  4 23  1  0
  5 26  1  0
  5 21  1  0
  5 13  1  0
  6 11  1  0
  7 30  1  0
  7 39  1  0
  8 38  1  0
 10 36  1  0
 13 24  1  0
 13 33  1  0
 14 20  1  0
 15  6  1  0
 15 28  1  0
 15 14  1  0
 16 27  1  0
 18 29  1  0
 18 17  2  3
 19 16  1  0
 21 19  1  0
 21 16  1  0
 22 33  1  0
 23  3  1  0
 24  9  1  0
 25 18  1  0
 26 22  1  0
 27 32  1  0
 28 12  1  0
 30  6  1  0
 31  1  1  0
 32 37  1  0
 32 31  2  0
 33 10  1  0
 34 27  2  3
 35  6  1  0
 37  8  2  0
 39 25  1  0
 39 28  1  0
  1 40  1  0
  3 41  1  0
  3 42  1  0
  4 43  1  0
  4 44  1  0
  4 45  1  0
  5 46  1  0
  7 47  1  0
  7 48  1  0
  8 49  1  0
  9 50  1  0
  9 51  1  0
  9 52  1  0
 10 53  1  0
 11 54  1  0
 11 55  1  0
 11 56  1  0
 12 57  1  0
 12 58  1  0
 12 59  1  0
 13 60  1  0
 14 61  1  0
 14 62  1  0
 15 63  1  0
 16 64  1  0
 17 65  1  0
 17 66  1  0
 20 67  1  0
 21 68  1  0
 22 69  1  0
 22 70  1  0
 23 71  1  0
 23 72  1  0
 24 73  1  0
 24 74  1  0
 25 75  1  0
 25 76  1  0
 28 77  1  0
 29 78  1  0
 29 79  1  0
 29 80  1  0
 30 81  1  0
 30 82  1  0
 34 83  1  0
 34 84  1  0
 35 85  1  0
 35 86  1  0
 35 87  1  0
 36 88  1  0
 36 89  1  0
 36 90  1  0
 37 91  1  0
 38 92  1  0
 39 93  1  0
M  CHG  3   4   1   9   1  30   1
M  END
>  <mol_id>  (17) 
2026-09-18-6fnk-s0-n100-0017

>  <rmsd_to_ref>  (17) 


$$$$

     RDKit          3D

 58 61  0  0  0  0  0  0  0  0999 V2000
    3.2790   22.6700   36.7600 C   0  0  0  0  0  0  0  0  0  0  0  0
   -0.2630   17.4260   43.9530 C   0  0  0  0  0  0  0  0  0  0  0  0
    3.9460   22.1240   35.7940 C   0  0  0  0  0  0  0  0  0  0  0  0
    1.1720   16.4230   35.8780 C   0  0  0  0  0  0  0  0  0  0  0  0
    1.9320   19.8190   42.0950 C   0  0  0  0  0  0  0  0  0  0  0  0
    1.8270   18.2260   37.3000 C   0  0  0  0  0  0  0  0  0  0  0  0
    2.7150   25.9710   32.4660 C   0  0  0  0  0  0  0  0  0  0  0  0
    1.5130   26.3300   33.1400 C   0  0  0  0  0  0  0  0  0  0  0  0
    2.8090   18.1240   36.6250 O   0  0  0  0  0  0  0  0  0  0  0  0
   -0.6520   18.5820   44.5570 N   0  0  0  0  0  0  0  0  0  0  0  0
   -0.5820   16.3170   44.2970 O   0  0  0  0  0  0  0  0  0  0  0  0
    3.2720   24.8950   33.0620 C   0  0  0  0  0  0  0  0  0  0  0  0
    3.2370   20.5520   40.0470 C   0  0  0  0  0  0  0  0  0  0  0  0
    4.9510   23.2070   35.0630 C   0  0  0  0  0  0  0  0  0  0  0  0
    2.7610   24.0890   34.2420 C   0  0  0  0  0  0  0  0  0  0  0  0
    0.7930   17.5670   36.7950 O   0  0  0  0  0  0  0  0  0  0  0  0
    0.5590   18.0180   42.9070 C   0  0  0  0  0  0  0  0  0  0  0  0
    2.5320   20.1620   41.1340 C   0  0  0  0  0  0  0  0  0  0  0  0
    2.0180   18.9780   38.5260 C   0  0  0  0  0  0  0  0  0  0  0  0
    0.8690   19.2030   42.9390 C   0  0  0  0  0  0  0  0  0  0  0  0
    2.7790   21.4380   37.7010 C   0  0  0  0  0  0  0  0  0  0  0  0
    1.5500   24.5310   34.8070 C   0  0  0  0  0  0  0  0  0  0  0  0
    1.2100   16.8290   41.9590 C   0  0  0  0  0  0  0  0  0  0  0  0
    3.9400   23.6230   34.0490 C   0  0  0  0  0  0  0  0  0  0  0  0
    2.6780   20.3830   38.6140 C   0  0  0  0  0  0  0  0  0  0  0  0
    0.9370   25.6480   34.1900 C   0  0  0  0  0  0  0  0  0  0  0  0
   -0.1300   19.6540   43.9140 C   0  0  0  0  0  0  0  0  0  0  0  0
   -0.5570   20.8560   44.1110 O   0  0  0  0  0  0  0  0  0  0  0  0
    4.5070   24.0660   32.7710 C   0  0  0  0  0  0  0  0  0  0  0  0
    2.4158   23.2253   36.3643 H   0  0  0  0  0  0  0  0  0  0  0  0
    3.8936   23.3878   37.3231 H   0  0  0  0  0  0  0  0  0  0  0  0
    4.5468   21.2960   36.1983 H   0  0  0  0  0  0  0  0  0  0  0  0
    3.2290   21.7591   35.0438 H   0  0  0  0  0  0  0  0  0  0  0  0
    1.4613   15.5499   36.4813 H   0  0  0  0  0  0  0  0  0  0  0  0
    0.3124   16.1616   35.2433 H   0  0  0  0  0  0  0  0  0  0  0  0
    2.0176   16.7265   35.2433 H   0  0  0  0  0  0  0  0  0  0  0  0
    3.1282   26.4927   31.5901 H   0  0  0  0  0  0  0  0  0  0  0  0
    0.9962   27.2358   32.7900 H   0  0  0  0  0  0  0  0  0  0  0  0
   -1.2589   18.6345   45.3875 H   0  0  0  0  0  0  0  0  0  0  0  0
    3.4374   21.6258   40.1767 H   0  0  0  0  0  0  0  0  0  0  0  0
    4.0848   19.8512   40.0528 H   0  0  0  0  0  0  0  0  0  0  0  0
    5.2602   24.0272   35.7275 H   0  0  0  0  0  0  0  0  0  0  0  0
    5.9284   22.8500   34.7061 H   0  0  0  0  0  0  0  0  0  0  0  0
    2.2276   23.4397   34.9518 H   0  0  0  0  0  0  0  0  0  0  0  0
    0.1940   18.7220   42.1446 H   0  0  0  0  0  0  0  0  0  0  0  0
    1.0129   19.0981   38.9566 H   0  0  0  0  0  0  0  0  0  0  0  0
    2.7875   18.3650   39.0180 H   0  0  0  0  0  0  0  0  0  0  0  0
    1.6137   18.9871   43.7193 H   0  0  0  0  0  0  0  0  0  0  0  0
    1.9612   22.0150   38.1574 H   0  0  0  0  0  0  0  0  0  0  0  0
    3.4141   20.7804   37.0894 H   0  0  0  0  0  0  0  0  0  0  0  0
    1.1036   24.0349   35.6814 H   0  0  0  0  0  0  0  0  0  0  0  0
    1.6397   16.0441   42.5987 H   0  0  0  0  0  0  0  0  0  0  0  0
    0.4238   16.3948   41.3239 H   0  0  0  0  0  0  0  0  0  0  0  0
    1.9994   17.2574   41.3239 H   0  0  0  0  0  0  0  0  0  0  0  0
    3.6212   19.9637   38.2339 H   0  0  0  0  0  0  0  0  0  0  0  0
   -0.0405   25.9859   34.5645 H   0  0  0  0  0  0  0  0  0  0  0  0
    4.4708   23.3680   31.9216 H   0  0  0  0  0  0  0  0  0  0  0  0
    5.5304   24.3890   32.5296 H   0  0  0  0  0  0  0  0  0  0  0  0
  1 21  1  0
  2 11  2  0
  2 10  1  0
  3  1  1  0
  4 16  1  0
  6 19  1  0
  7  8  2  0
  8 26  1  0
  9  6  2  0
 12  7  1  0
 12 24  1  0
 12 15  1  0
 13 18  1  0
 14  3  1  0
 15 22  1  0
 16  6  1  0
 17 23  1  0
 17 20  1  0
 17  2  1  0
 18  5  3  0
 19 25  1  0
 20  5  1  0
 20 27  1  0
 24 15  1  0
 24 14  1  0
 25 21  1  0
 25 13  1  0
 26 22  2  0
 27 28  2  0
 27 10  1  0
 29 12  1  0
 29 24  1  0
  1 30  1  0
  1 31  1  0
  3 32  1  0
  3 33  1  0
  4 34  1  0
  4 35  1  0
  4 36  1  0
  7 37  1  0
  8 38  1  0
 10 39  1  0
 13 40  1  0
 13 41  1  0
 14 42  1  0
 14 43  1  0
 15 44  1  0
 17 45  1  0
 19 46  1  0
 19 47  1  0
 20 48  1  0
 21 49  1  0
 21 50  1  0
 22 51  1  0
 23 52  1  0
 23 53  1  0
 23 54  1  0
 25 55  1  0
 26 56  1  0
 29 57  1  0
 29 58  1  0
M  END
>  <mol_id>  (18) 
2026-09-18-6fnk-s0-n100-0018

>  <rmsd_to_ref>  (18) 


$$$$

     RDKit          3D

 66 68  0  0  0  0  0  0  0  0999 V2000
    0.0940   15.0920   38.7770 C   0  0  0  0  0  0  0  0  0  0  0  0
    2.8250   20.2880   40.5070 O   0  0  0  0  0  0  0  0  0  0  0  0
    3.3550   20.9850   38.4380 C   0  0  0  0  0  0  0  0  0  0  0  0
    2.2630   17.0000   38.3320 C   0  0  0  0  0  0  0  0  0  0  0  0
   -0.3810   19.5680   43.6710 C   0  0  0  0  0  0  0  0  0  0  0  0
    1.5620   17.0430   36.9680 C   0  0  0  0  0  0  0  0  0  0  0  0
    0.4660   16.0830   39.7380 C   0  0  0  0  0  0  0  0  0  0  0  0
    1.6540   24.6830   30.0040 C   0  0  0  0  0  0  0  0  0  0  0  0
    0.4800   18.6060   42.8250 N   0  0  0  0  0  4  0  0  0  0  0  0
    2.9630   21.9350   37.3120 C   0  0  0  0  0  0  0  0  0  0  0  0
    1.4260   24.6140   29.1670 C   0  0  0  0  0  0  0  0  0  0  0  0
    1.3660   17.2190   39.5230 C   0  0  0  0  0  0  0  0  0  0  0  0
    3.4380   24.1340   31.1820 C   0  0  0  0  0  0  0  0  0  0  0  0
    1.7660   26.0160   32.2190 C   0  0  0  0  0  0  0  0  0  0  0  0
    1.9260   19.1760   40.9750 C   0  0  0  0  0  0  0  0  0  0  0  0
    5.7250   22.1250   38.6810 C   0  0  0  0  0  0  0  0  0  0  0  0
    2.4130   20.1750   43.2270 O   0  0  0  0  0  0  0  0  0  0  0  0
    0.0520   15.2620   37.4360 O   0  0  0  0  0  0  0  0  0  0  0  0
    0.1230   20.7270   42.9720 C   0  0  0  0  0  0  0  0  0  0  0  0
    2.5640   22.9920   32.5240 C   0  0  0  0  0  0  0  0  0  0  0  0
    1.2520   19.7290   42.2840 C   0  0  0  0  0  0  0  0  0  0  0  0
    4.5900   21.2540   39.1370 O   0  0  0  0  0  0  0  0  0  0  0  0
    2.0550   17.6360   40.8040 C   0  0  0  0  0  0  0  0  0  0  0  0
    4.4080   23.5760   32.2440 C   0  0  0  0  0  0  0  0  0  0  0  0
    3.4440   24.1140   33.1940 C   0  0  0  0  0  0  0  0  0  0  0  0
    2.2370   21.0050   39.4910 C   0  0  0  0  0  0  0  0  0  0  0  0
    2.2530   25.1710   31.2570 C   0  0  0  0  0  0  0  0  0  0  0  0
    0.1560   16.5670   36.9910 C   0  0  0  0  0  0  0  0  0  0  0  0
    0.7904   14.2563   38.9401 H   0  0  0  0  0  0  0  0  0  0  0  0
   -0.9825   15.0182   38.9906 H   0  0  0  0  0  0  0  0  0  0  0  0
    3.5075   20.0201   37.9324 H   0  0  0  0  0  0  0  0  0  0  0  0
    3.0373   17.7813   38.3412 H   0  0  0  0  0  0  0  0  0  0  0  0
    2.6645   15.9812   38.4362 H   0  0  0  0  0  0  0  0  0  0  0  0
   -1.4632   19.4151   43.5462 H   0  0  0  0  0  0  0  0  0  0  0  0
   -0.3073   19.5295   44.7679 H   0  0  0  0  0  0  0  0  0  0  0  0
    2.1288   16.4107   36.2688 H   0  0  0  0  0  0  0  0  0  0  0  0
    1.5332   18.0988   36.6606 H   0  0  0  0  0  0  0  0  0  0  0  0
   -0.4834   16.5305   40.0673 H   0  0  0  0  0  0  0  0  0  0  0  0
    1.1048   15.4693   40.3901 H   0  0  0  0  0  0  0  0  0  0  0  0
    1.0398   17.9467   43.3844 H   0  0  0  0  0  0  0  0  0  0  0  0
    0.0251   17.9407   42.1836 H   0  0  0  0  0  0  0  0  0  0  0  0
    2.5765   22.8716   37.7403 H   0  0  0  0  0  0  0  0  0  0  0  0
    3.8450   22.1520   36.6916 H   0  0  0  0  0  0  0  0  0  0  0  0
    2.1846   21.4669   36.6916 H   0  0  0  0  0  0  0  0  0  0  0  0
    1.1378   24.5268   28.1090 H   0  0  0  0  0  0  0  0  0  0  0  0
    0.7697   18.1007   39.2455 H   0  0  0  0  0  0  0  0  0  0  0  0
    3.8396   24.3354   30.1779 H   0  0  0  0  0  0  0  0  0  0  0  0
    2.3806   26.2616   33.0976 H   0  0  0  0  0  0  0  0  0  0  0  0
    0.7604   26.4490   32.1128 H   0  0  0  0  0  0  0  0  0  0  0  0
    1.3634   18.9522   40.0566 H   0  0  0  0  0  0  0  0  0  0  0  0
    6.2520   22.5294   39.5578 H   0  0  0  0  0  0  0  0  0  0  0  0
    6.4240   21.5293   38.0756 H   0  0  0  0  0  0  0  0  0  0  0  0
    5.3304   22.9543   38.0756 H   0  0  0  0  0  0  0  0  0  0  0  0
    2.1320   20.0671   44.1701 H   0  0  0  0  0  0  0  0  0  0  0  0
   -0.5849   21.1781   42.2611 H   0  0  0  0  0  0  0  0  0  0  0  0
    0.4100   21.6453   43.5052 H   0  0  0  0  0  0  0  0  0  0  0  0
    1.7230   22.3043   32.6969 H   0  0  0  0  0  0  0  0  0  0  0  0
    1.5815   17.1299   41.6582 H   0  0  0  0  0  0  0  0  0  0  0  0
    3.1180   17.3564   40.7602 H   0  0  0  0  0  0  0  0  0  0  0  0
    5.4868   23.3673   32.1923 H   0  0  0  0  0  0  0  0  0  0  0  0
    3.1209   25.1516   33.0235 H   0  0  0  0  0  0  0  0  0  0  0  0
    3.6109   24.2353   34.2745 H   0  0  0  0  0  0  0  0  0  0  0  0
    1.9967   22.0310   39.8064 H   0  0  0  0  0  0  0  0  0  0  0  0
    1.2768   20.5966   39.1427 H   0  0  0  0  0  0  0  0  0  0  0  0
   -0.4267   17.2167   37.6605 H   0  0  0  0  0  0  0  0  0  0  0  0
   -0.2290   16.6036   35.9612 H   0  0  0  0  0  0  0  0  0  0  0  0
  1  7  1  0
  2 15  1  0
  3 10  1  0
  3 22  1  0
  3 26  1  0
  4 12  1  0
  6 28  1  0
  6  4  1  0
  8 27  1  0
  9  5  1  0
 11  8  3  0
 12  7  1  0
 12 23  1  0
 13 27  1  0
 13 24  1  0
 13 20  1  0
 15 23  1  0
 15 21  1  0
 16 22  1  0
 18  1  1  0
 19  5  1  0
 20 25  1  0
 21  9  1  0
 21 19  1  0
 21 17  1  0
 24 20  1  0
 24 25  1  0
 26  2  1  0
 27 14  2  3
 28 18  1  0
  1 29  1  0
  1 30  1  0
  3 31  1  0
  4 32  1  0
  4 33  1  0
  5 34  1  0
  5 35  1  0
  6 36  1  0
  6 37  1  0
  7 38  1  0
  7 39  1  0
  9 40  1  0
  9 41  1  0
 10 42  1  0
 10 43  1  0
 10 44  1  0
 11 45  1  0
 12 46  1  0
 13 47  1  0
 14 48  1  0
 14 49  1  0
 15 50  1  0
 16 51  1  0
 16 52  1  0
 16 53  1  0
 17 54  1  0
 19 55  1  0
 19 56  1  0
 20 57  1  0
 23 58  1  0
 23 59  1  0
 24 60  1  0
 25 61  1  0
 25 62  1  0
 26 63  1  0
 26 64  1  0
 28 65  1  0
 28 66  1  0
M  CHG  1   9   1
M  END
>  <mol_id>  (19) 
2026-09-18-6fnk-s0-n100-0019

>  <rmsd_to_ref>  (19) 


$$$$

     RDKit          3D

 66 67  0  0  0  0  0  0  0  0999 V2000
    1.5030   26.3330   33.1720 C   0  0  0  0  0  0  0  0  0  0  0  0
   -0.3630   15.2580   39.2450 C   0  0  0  0  0  0  0  0  0  0  0  0
    0.6150   28.6910   33.5220 C   0  0  0  0  0  0  0  0  0  0  0  0
    2.5810   25.8140   33.9700 C   0  0  0  0  0  0  0  0  0  0  0  0
    3.8180   21.4450   39.9420 C   0  0  0  0  0  0  0  0  0  0  0  0
    1.8070   18.1330   38.1600 C   0  0  0  0  0  0  0  0  0  0  0  0
    2.2810   20.3580   38.5020 N   0  0  0  0  0  0  0  0  0  0  0  0
    5.7320   21.6100   42.0490 C   0  0  0  0  0  0  0  0  0  0  0  0
    0.8070   17.1650   38.1500 N   0  0  0  0  0  0  0  0  0  0  0  0
    4.6060   20.8300   42.2700 N   0  0  0  0  0  0  0  0  0  0  0  0
    0.8960   15.9450   39.0460 C   0  0  0  0  0  0  0  0  0  0  0  0
    1.7770   26.5070   31.7450 F   0  0  0  0  0  0  0  0  0  0  0  0
    1.9660   19.1660   40.5220 C   0  0  0  0  0  0  0  0  0  0  0  0
    1.1960   27.6750   32.6040 C   0  0  0  0  0  0  0  0  0  0  0  0
    2.6690   17.9680   37.3540 O   0  0  0  0  0  0  0  0  0  0  0  0
    2.7930   20.1860   35.6770 C   0  0  0  0  0  0  0  0  0  0  0  0
   -1.5920   15.5180   38.2560 C   0  0  0  0  0  0  0  0  0  0  0  0
    3.6380   20.8010   41.2170 C   0  0  0  0  0  0  0  0  0  0  0  0
    4.5080   19.9410   43.4850 C   0  0  0  0  0  0  0  0  0  0  0  0
    3.1740   24.4900   33.7460 C   0  0  0  0  0  0  0  0  0  0  0  0
   -1.5150   16.9220   37.6420 C   0  0  0  0  0  0  0  0  0  0  0  0
    2.7720   21.5240   35.7590 C   0  0  0  0  0  0  0  0  0  0  0  0
    2.9320   21.4220   38.6660 C   0  0  0  0  0  0  0  0  0  0  0  0
    2.4080   23.4290   34.5190 C   0  0  0  0  0  0  0  0  0  0  0  0
    2.4870   22.4290   37.2280 S   0  0  0  0  0  0  0  0  0  0  0  0
    1.1910   28.1680   35.0510 S   0  0  0  0  0  0  0  0  0  0  0  0
   -0.0860   17.1260   37.0990 C   0  0  0  0  0  0  0  0  0  0  0  0
    2.4600   20.0670   41.3680 C   0  0  0  0  0  0  0  0  0  0  0  0
    2.0520   19.2010   39.1460 C   0  0  0  0  0  0  0  0  0  0  0  0
    3.1890   22.1940   34.5420 N   0  0  0  0  0  4  0  0  0  0  0  0
    0.8698   25.7617   33.8667 H   0  0  0  0  0  0  0  0  0  0  0  0
   -0.1450   14.1807   39.2011 H   0  0  0  0  0  0  0  0  0  0  0  0
   -0.7218   15.6688   40.2003 H   0  0  0  0  0  0  0  0  0  0  0  0
   -0.4843   28.6801   33.4848 H   0  0  0  0  0  0  0  0  0  0  0  0
    0.8978   29.7245   33.2732 H   0  0  0  0  0  0  0  0  0  0  0  0
    3.4052   26.5359   33.8728 H   0  0  0  0  0  0  0  0  0  0  0  0
    2.0875   25.6731   34.9429 H   0  0  0  0  0  0  0  0  0  0  0  0
    4.7314   22.0521   39.8576 H   0  0  0  0  0  0  0  0  0  0  0  0
    6.1654   21.9102   43.0144 H   0  0  0  0  0  0  0  0  0  0  0  0
    6.4731   21.0308   41.4787 H   0  0  0  0  0  0  0  0  0  0  0  0
    5.4502   22.5074   41.4787 H   0  0  0  0  0  0  0  0  0  0  0  0
    1.6069   15.2373   38.5946 H   0  0  0  0  0  0  0  0  0  0  0  0
    1.2186   16.3035   40.0346 H   0  0  0  0  0  0  0  0  0  0  0  0
    1.4369   18.3088   40.9640 H   0  0  0  0  0  0  0  0  0  0  0  0
    2.1352   28.0878   32.2071 H   0  0  0  0  0  0  0  0  0  0  0  0
    0.4109   27.4906   31.8559 H   0  0  0  0  0  0  0  0  0  0  0  0
    2.9803   19.6971   34.7096 H   0  0  0  0  0  0  0  0  0  0  0  0
    2.6230   19.5771   36.5772 H   0  0  0  0  0  0  0  0  0  0  0  0
   -1.5690   14.7706   37.4492 H   0  0  0  0  0  0  0  0  0  0  0  0
   -2.5271   15.4367   38.8295 H   0  0  0  0  0  0  0  0  0  0  0  0
    3.1279   21.6980   41.5981 H   0  0  0  0  0  0  0  0  0  0  0  0
    4.5757   20.5551   44.3951 H   0  0  0  0  0  0  0  0  0  0  0  0
    3.5457   19.4083   43.4729 H   0  0  0  0  0  0  0  0  0  0  0  0
    5.3312   19.2114   43.4729 H   0  0  0  0  0  0  0  0  0  0  0  0
    3.1375   24.2534   32.6724 H   0  0  0  0  0  0  0  0  0  0  0  0
    4.2171   24.5024   34.0950 H   0  0  0  0  0  0  0  0  0  0  0  0
   -2.2425   17.0113   36.8218 H   0  0  0  0  0  0  0  0  0  0  0  0
   -1.7486   17.6843   38.3999 H   0  0  0  0  0  0  0  0  0  0  0  0
    2.2372   23.7756   35.5489 H   0  0  0  0  0  0  0  0  0  0  0  0
    1.4389   23.2446   34.0324 H   0  0  0  0  0  0  0  0  0  0  0  0
    0.4920   28.8026   36.0438 H   0  0  0  0  0  0  0  0  0  0  0  0
    0.1734   16.2932   36.4289 H   0  0  0  0  0  0  0  0  0  0  0  0
   -0.0381   18.0742   36.5434 H   0  0  0  0  0  0  0  0  0  0  0  0
    1.8786   20.2530   42.2831 H   0  0  0  0  0  0  0  0  0  0  0  0
    2.9785   21.6146   33.7168 H   0  0  0  0  0  0  0  0  0  0  0  0
    4.2034   22.3713   34.5201 H   0  0  0  0  0  0  0  0  0  0  0  0
  1 12  1  0
  1  4  1  0
  3 26  1  0
  5 18  1  0
  6 29  1  0
  7 23  1  0
  7 29  2  0
  8 10  1  0
  9  6  1  0
  9 11  1  0
 10 19  1  0
 11  2  1  0
 13 28  2  0
 14  1  1  0
 14  3  1  0
 15  6  2  0
 16 22  2  3
 17  2  1  0
 18 28  1  0
 18 10  1  0
 20  4  1  0
 20 24  1  0
 21 17  1  0
 22 25  1  0
 23  5  2  0
 24 30  1  0
 25 23  1  0
 27 21  1  0
 27  9  1  0
 29 13  1  0
 30 22  1  0
  1 31  1  0
  2 32  1  0
  2 33  1  0
  3 34  1  0
  3 35  1  0
  4 36  1  0
  4 37  1  0
  5 38  1  0
  8 39  1  0
  8 40  1  0
  8 41  1  0
 11 42  1  0
 11 43  1  0
 13 44  1  0
 14 45  1  0
 14 46  1  0
 16 47  1  0
 16 48  1  0
 17 49  1  0
 17 50  1  0
 18 51  1  0
 19 52  1  0
 19 53  1  0
 19 54  1  0
 20 55  1  0
 20 56  1  0
 21 57  1  0
 21 58  1  0
 24 59  1  0
 24 60  1  0
 26 61  1  0
 27 62  1  0
 27 63  1  0
 28 64  1  0
 30 65  1  0
 30 66  1  0
M  CHG  1  30   1
M  END
>  <mol_id>  (20) 
2026-09-18-6fnk-s0-n100-0020

>  <rmsd_to_ref>  (20) 


$$$$

     RDKit          3D

 59 60  0  0  0  0  0  0  0  0999 V2000
    1.8690   26.6970   33.6380 C   0  0  0  0  0  0  0  0  0  0  0  0
   -1.1690   14.7120   39.7860 O   0  0  0  0  0  0  0  0  0  0  0  0
   -0.2960   15.5720   39.1570 C   0  0  0  0  0  0  0  0  0  0  0  0
    2.8080   23.1460   35.3450 C   0  0  0  0  0  0  0  0  0  0  0  0
    3.0780   25.7410   33.1480 C   0  0  0  0  0  0  0  0  0  0  0  0
    3.5230   21.7210   37.2450 C   0  0  0  0  0  0  0  0  0  0  0  0
    2.7610   22.3320   34.5550 O   0  0  0  0  0  0  0  0  0  0  0  0
    0.4380   16.6160   36.9910 C   0  0  0  0  0  0  0  0  0  0  0  0
    2.7510   27.0360   35.8760 C   0  0  0  0  0  0  0  0  0  0  0  0
   -0.3420   15.2830   41.9640 C   0  0  0  0  0  0  0  0  0  0  0  0
    1.4670   18.1320   43.2070 O   0  0  0  0  0  0  0  0  0  0  0  0
    2.8680   25.3990   31.6770 C   0  0  0  0  0  0  0  0  0  0  0  0
    1.5250   17.3570   39.1530 C   0  0  0  0  0  0  0  0  0  0  0  0
   -0.3250   15.5740   37.7000 C   0  0  0  0  0  0  0  0  0  0  0  0
    3.7300   25.0330   34.1500 C   0  0  0  0  0  0  0  0  0  0  0  0
   -1.2360   14.5770   41.1220 C   0  0  0  0  0  0  0  0  0  0  0  0
    0.9460   17.5260   44.4000 C   0  0  0  0  0  0  0  0  0  0  0  0
    0.6420   16.3450   41.4300 C   0  0  0  0  0  0  0  0  0  0  0  0
    4.3400   25.2820   31.3540 C   0  0  0  0  0  0  0  0  0  0  0  0
    1.5590   27.4440   35.0060 C   0  0  0  0  0  0  0  0  0  0  0  0
    2.3760   25.4950   36.1880 C   0  0  0  0  0  0  0  0  0  0  0  0
    2.9510   24.5030   35.2220 N   0  0  0  0  0  0  0  0  0  0  0  0
    1.4590   17.3460   37.6610 C   0  0  0  0  0  0  0  0  0  0  0  0
    1.5060   17.5860   41.8940 C   0  0  0  0  0  0  0  0  0  0  0  0
    0.6220   16.4460   39.8970 C   0  0  0  0  0  0  0  0  0  0  0  0
   -2.1450   13.8560   41.5950 O   0  0  0  0  0  0  0  0  0  0  0  0
    2.6820   22.6470   36.6160 O   0  0  0  0  0  0  0  0  0  0  0  0
    4.7840   22.5180   37.9030 C   0  0  0  0  0  0  0  0  0  0  0  0
    0.9759   26.0738   33.4829 H   0  0  0  0  0  0  0  0  0  0  0  0
    2.2068   27.5922   33.0953 H   0  0  0  0  0  0  0  0  0  0  0  0
    4.1091   26.0949   33.0007 H   0  0  0  0  0  0  0  0  0  0  0  0
    3.8904   20.9938   36.5060 H   0  0  0  0  0  0  0  0  0  0  0  0
    2.9686   21.1859   38.0300 H   0  0  0  0  0  0  0  0  0  0  0  0
    0.2165   16.8313   35.9353 H   0  0  0  0  0  0  0  0  0  0  0  0
    2.8052   27.6350   36.7970 H   0  0  0  0  0  0  0  0  0  0  0  0
    3.7337   27.1815   35.4036 H   0  0  0  0  0  0  0  0  0  0  0  0
   -0.9668   15.7947   42.7108 H   0  0  0  0  0  0  0  0  0  0  0  0
    0.3431   14.4837   42.2831 H   0  0  0  0  0  0  0  0  0  0  0  0
    2.3208   24.4561   31.5301 H   0  0  0  0  0  0  0  0  0  0  0  0
    2.2669   26.0942   31.0725 H   0  0  0  0  0  0  0  0  0  0  0  0
    2.2227   18.0211   39.6842 H   0  0  0  0  0  0  0  0  0  0  0  0
   -0.9006   14.8185   37.1450 H   0  0  0  0  0  0  0  0  0  0  0  0
    4.2417   24.1859   33.6698 H   0  0  0  0  0  0  0  0  0  0  0  0
    4.3796   25.7794   34.6304 H   0  0  0  0  0  0  0  0  0  0  0  0
    1.3747   18.0246   45.2818 H   0  0  0  0  0  0  0  0  0  0  0  0
   -0.1489   17.6301   44.4160 H   0  0  0  0  0  0  0  0  0  0  0  0
    1.2132   16.4591   44.4160 H   0  0  0  0  0  0  0  0  0  0  0  0
    4.9180   25.2361   32.2888 H   0  0  0  0  0  0  0  0  0  0  0  0
    4.5155   24.3671   30.7691 H   0  0  0  0  0  0  0  0  0  0  0  0
    4.6578   26.1577   30.7691 H   0  0  0  0  0  0  0  0  0  0  0  0
    1.5227   28.5344   34.8655 H   0  0  0  0  0  0  0  0  0  0  0  0
    0.5841   27.1800   35.4417 H   0  0  0  0  0  0  0  0  0  0  0  0
    2.7472   25.2488   37.1938 H   0  0  0  0  0  0  0  0  0  0  0  0
    1.2823   25.4171   36.0996 H   0  0  0  0  0  0  0  0  0  0  0  0
    2.2042   17.9056   37.0766 H   0  0  0  0  0  0  0  0  0  0  0  0
    2.1763   18.0543   41.1582 H   0  0  0  0  0  0  0  0  0  0  0  0
    4.7138   22.4736   38.9999 H   0  0  0  0  0  0  0  0  0  0  0  0
    5.7243   22.0498   37.5765 H   0  0  0  0  0  0  0  0  0  0  0  0
    4.7646   23.5683   37.5765 H   0  0  0  0  0  0  0  0  0  0  0  0
  1 20  1  0
  2 16  1  0
  3  2  1  0
  3 25  2  0
  4 27  1  0
  5 12  1  0
  5  1  1  0
  5 15  1  0
  6 28  1  0
  7  4  2  0
  8 23  1  0
  8 14  2  0
  9 21  1  0
 11 17  1  0
 13 25  1  0
 14  3  1  0
 15 22  1  0
 16 26  2  0
 16 10  1  0
 18 24  2  3
 18 10  1  0
 19 12  1  0
 20  9  1  0
 22  4  1  0
 22 21  1  0
 23 13  2  0
 24 11  1  0
 25 18  1  0
 27  6  1  0
  1 29  1  0
  1 30  1  0
  5 31  1  0
  6 32  1  0
  6 33  1  0
  8 34  1  0
  9 35  1  0
  9 36  1  0
 10 37  1  0
 10 38  1  0
 12 39  1  0
 12 40  1  0
 13 41  1  0
 14 42  1  0
 15 43  1  0
 15 44  1  0
 17 45  1  0
 17 46  1  0
 17 47  1  0
 19 48  1  0
 19 49  1  0
 19 50  1  0
 20 51  1  0
 20 52  1  0
 21 53  1  0
 21 54  1  0
 23 55  1  0
 24 56  1  0
 28 57  1  0
 28 58  1  0
 28 59  1  0
M  END
>  <mol_id>  (21) 
2026-09-18-6fnk-s0-n100-0021

>  <rmsd_to_ref>  (21) 


$$$$

     RDKit          3D

 62 64  0  0  0  0  0  0  0  0999 V2000
    2.5530   27.2120   29.8170 C   0  0  0  0  0  0  0  0  0  0  0  0
    1.4290   25.9540   31.5760 C   0  0  0  0  0  0  0  0  0  0  0  0
    2.4250   25.6950   30.5390 C   0  0  0  0  0  0  0  0  0  0  0  0
   -0.5900   15.7370   39.4760 C   0  0  0  0  0  0  0  0  0  0  0  0
    2.2350   19.3940   41.8390 O   0  0  0  0  0  0  0  0  0  0  0  0
    2.2120   19.7570   40.5570 C   0  0  0  0  0  0  0  0  0  0  0  0
    1.2990   17.4370   39.9420 C   0  0  0  0  0  0  0  0  0  0  0  0
    1.7890   24.8580   29.3580 C   0  0  0  0  0  0  0  0  0  0  0  0
   -0.0920   15.8050   38.1250 C   0  0  0  0  0  0  0  0  0  0  0  0
    0.5040   16.2140   40.3570 C   0  0  0  0  0  0  0  0  0  0  0  0
    2.7630   24.7640   32.9180 C   0  0  0  0  0  0  0  0  0  0  0  0
    2.7740   20.4930   37.5850 O   0  0  0  0  0  0  0  0  0  0  0  0
    4.6080   21.7720   38.2680 C   0  0  0  0  0  0  0  0  0  0  0  0
    1.0180   16.2450   37.8910 C   0  0  0  0  0  0  0  0  0  0  0  0
    1.7840   17.2100   38.6110 C   0  0  0  0  0  0  0  0  0  0  0  0
    5.2970   21.8820   40.6090 C   0  0  0  0  0  0  0  0  0  0  0  0
    0.0490   26.3060   30.8250 C   0  0  0  0  0  0  0  0  0  0  0  0
    3.2630   20.6000   40.0100 C   0  0  0  0  0  0  0  0  0  0  0  0
    4.2800   21.0550   40.9410 C   0  0  0  0  0  0  0  0  0  0  0  0
    3.4980   20.9180   38.6630 C   0  0  0  0  0  0  0  0  0  0  0  0
    1.4650   19.1080   39.7770 N   0  0  0  0  0  0  0  0  0  0  0  0
    5.4240   22.2760   39.2370 C   0  0  0  0  0  0  0  0  0  0  0  0
    1.7500   25.9580   32.9270 C   0  0  0  0  0  0  0  0  0  0  0  0
    2.2590   24.3350   31.6950 C   0  0  0  0  0  0  0  0  0  0  0  0
    2.5850   21.6490   35.3750 C   0  0  0  0  0  0  0  0  0  0  0  0
    2.1970   21.3150   36.5640 C   0  0  0  0  0  0  0  0  0  0  0  0
   -1.3300   14.4470   39.8570 C   0  0  0  0  0  0  0  0  0  0  0  0
    2.6182   27.9849   30.5969 H   0  0  0  0  0  0  0  0  0  0  0  0
    3.4571   27.2452   29.1914 H   0  0  0  0  0  0  0  0  0  0  0  0
    1.6672   27.3962   29.1914 H   0  0  0  0  0  0  0  0  0  0  0  0
   -1.4487   16.4108   39.6120 H   0  0  0  0  0  0  0  0  0  0  0  0
    1.4265   17.3997   41.0340 H   0  0  0  0  0  0  0  0  0  0  0  0
    1.1728   24.0471   29.7737 H   0  0  0  0  0  0  0  0  0  0  0  0
    1.1607   25.5157   28.7393 H   0  0  0  0  0  0  0  0  0  0  0  0
    2.5910   24.4289   28.7393 H   0  0  0  0  0  0  0  0  0  0  0  0
   -0.1115   14.7780   37.7316 H   0  0  0  0  0  0  0  0  0  0  0  0
   -0.7530   16.5505   37.6588 H   0  0  0  0  0  0  0  0  0  0  0  0
    0.0556   16.4375   41.3363 H   0  0  0  0  0  0  0  0  0  0  0  0
    1.2407   15.3976   40.3301 H   0  0  0  0  0  0  0  0  0  0  0  0
    3.8183   25.0724   32.8840 H   0  0  0  0  0  0  0  0  0  0  0  0
    2.8101   24.0713   33.7712 H   0  0  0  0  0  0  0  0  0  0  0  0
    4.7853   22.0064   37.2080 H   0  0  0  0  0  0  0  0  0  0  0  0
    1.6621   15.3537   37.8642 H   0  0  0  0  0  0  0  0  0  0  0  0
    0.7497   16.8779   37.0323 H   0  0  0  0  0  0  0  0  0  0  0  0
    2.8235   16.8555   38.6733 H   0  0  0  0  0  0  0  0  0  0  0  0
    1.7045   18.1627   38.0670 H   0  0  0  0  0  0  0  0  0  0  0  0
    6.0058   22.2417   41.3694 H   0  0  0  0  0  0  0  0  0  0  0  0
   -0.7340   26.5057   31.5713 H   0  0  0  0  0  0  0  0  0  0  0  0
    0.1911   27.1967   30.1953 H   0  0  0  0  0  0  0  0  0  0  0  0
   -0.2529   25.4561   30.1953 H   0  0  0  0  0  0  0  0  0  0  0  0
    4.2194   20.7049   41.9820 H   0  0  0  0  0  0  0  0  0  0  0  0
    0.9516   19.6014   39.0328 H   0  0  0  0  0  0  0  0  0  0  0  0
    6.2001   23.0041   38.9584 H   0  0  0  0  0  0  0  0  0  0  0  0
    2.2215   26.9013   33.2398 H   0  0  0  0  0  0  0  0  0  0  0  0
    0.9033   25.8656   33.6231 H   0  0  0  0  0  0  0  0  0  0  0  0
    2.2591   23.2391   31.6001 H   0  0  0  0  0  0  0  0  0  0  0  0
    1.9586   22.3094   34.7573 H   0  0  0  0  0  0  0  0  0  0  0  0
    3.5411   21.2724   34.9824 H   0  0  0  0  0  0  0  0  0  0  0  0
    1.2277   21.7509   36.8476 H   0  0  0  0  0  0  0  0  0  0  0  0
   -1.3787   14.3622   40.9526 H   0  0  0  0  0  0  0  0  0  0  0  0
   -2.3498   14.4742   39.4457 H   0  0  0  0  0  0  0  0  0  0  0  0
   -0.7917   13.5804   39.4457 H   0  0  0  0  0  0  0  0  0  0  0  0
  1  3  1  0
  2 17  1  0
  2 24  1  0
  2 23  1  0
  3  2  1  0
  3 24  1  0
  4 27  1  0
  4 10  1  0
  6  5  2  0
  7 21  1  0
  7 10  1  0
  8  3  1  0
  9  4  1  0
 11 23  1  0
 12 20  1  0
 13 20  2  0
 13 22  1  0
 14  9  1  0
 14 15  1  0
 15  7  1  0
 16 19  1  0
 18  6  1  0
 18 19  2  0
 20 18  1  0
 21  6  1  0
 22 16  2  0
 24 11  1  0
 25 26  2  3
 26 12  1  0
  1 28  1  0
  1 29  1  0
  1 30  1  0
  4 31  1  0
  7 32  1  0
  8 33  1  0
  8 34  1  0
  8 35  1  0
  9 36  1  0
  9 37  1  0
 10 38  1  0
 10 39  1  0
 11 40  1  0
 11 41  1  0
 13 42  1  0
 14 43  1  0
 14 44  1  0
 15 45  1  0
 15 46  1  0
 16 47  1  0
 17 48  1  0
 17 49  1  0
 17 50  1  0
 19 51  1  0
 21 52  1  0
 22 53  1  0
 23 54  1  0
 23 55  1  0
 24 56  1  0
 25 57  1  0
 25 58  1  0
 26 59  1  0
 27 60  1  0
 27 61  1  0
 27 62  1  0
M  END
>  <mol_id>  (22) 
2026-09-18-6fnk-s0-n100-0022

>  <rmsd_to_ref>  (22) 


$$$$

     RDKit          3D

 63 63  0  0  0  0  0  0  0  0999 V2000
    2.5890   16.2280   37.6660 C   0  0  0  0  0  0  0  0  0  0  0  0
    1.7750   17.9080   39.6350 C   0  0  0  0  0  0  0  0  0  0  0  0
    2.1080   20.5360   38.7850 O   0  0  0  0  0  0  0  0  0  0  0  0
    1.1000   27.1130   32.9800 C   0  0  0  0  0  0  0  0  0  0  0  0
    2.6000   23.1120   35.9540 C   0  0  0  0  0  0  0  0  0  0  0  0
    1.9760   18.5860   42.2910 C   0  0  0  0  0  0  0  0  0  0  0  0
   -1.2310   15.5110   38.2910 C   0  0  0  0  0  0  0  0  0  0  0  0
    4.0060   20.0260   42.6540 C   0  0  0  0  0  0  0  0  0  0  0  0
    2.6290   21.7700   38.0710 C   0  0  0  0  0  0  0  0  0  0  0  0
    0.4380   16.9890   39.7050 C   0  0  0  0  0  0  0  0  0  0  0  0
    2.5540   19.7470   43.0650 C   0  0  0  0  0  0  0  0  0  0  0  0
    0.2440   15.8530   38.6290 C   0  0  0  0  0  0  0  0  0  0  0  0
    1.5160   26.0840   31.9730 C   0  0  0  0  0  0  0  0  0  0  0  0
    2.1440   24.3700   36.1010 O   0  0  0  0  0  0  0  0  0  0  0  0
    2.1560   20.3500   40.2080 C   0  0  0  0  0  0  0  0  0  0  0  0
    4.2200   21.8850   38.0270 C   0  0  0  0  0  0  0  0  0  0  0  0
    0.5520   28.2690   32.2640 C   0  0  0  0  0  0  0  0  0  0  0  0
    2.8130   17.4180   38.5600 C   0  0  0  0  0  0  0  0  0  0  0  0
    1.0720   26.4830   35.5460 C   0  0  0  0  0  0  0  0  0  0  0  0
    1.0590   16.0130   37.2980 C   0  0  0  0  0  0  0  0  0  0  0  0
    3.3640   22.8810   34.9890 O   0  0  0  0  0  0  0  0  0  0  0  0
    2.0060   22.1160   36.7910 C   0  0  0  0  0  0  0  0  0  0  0  0
    1.2280   27.5440   34.4830 C   0  0  0  0  0  0  0  0  0  0  0  0
    1.8330   18.9510   40.7520 C   0  0  0  0  0  0  0  0  0  0  0  0
    1.4350   25.0470   35.0960 C   0  0  0  0  0  0  0  0  0  0  0  0
    3.1567   16.3758   36.7355 H   0  0  0  0  0  0  0  0  0  0  0  0
    2.9264   15.3352   38.2129 H   0  0  0  0  0  0  0  0  0  0  0  0
    1.1376   26.1445   33.5002 H   0  0  0  0  0  0  0  0  0  0  0  0
    2.6410   17.7160   42.3952 H   0  0  0  0  0  0  0  0  0  0  0  0
    0.9785   18.3552   42.6932 H   0  0  0  0  0  0  0  0  0  0  0  0
   -1.7997   15.3791   39.2233 H   0  0  0  0  0  0  0  0  0  0  0  0
   -1.6724   16.3306   37.7050 H   0  0  0  0  0  0  0  0  0  0  0  0
   -1.2667   14.5808   37.7050 H   0  0  0  0  0  0  0  0  0  0  0  0
    4.6257   20.1451   43.5550 H   0  0  0  0  0  0  0  0  0  0  0  0
    4.3860   19.1844   42.0562 H   0  0  0  0  0  0  0  0  0  0  0  0
    4.0471   20.9485   42.0562 H   0  0  0  0  0  0  0  0  0  0  0  0
    2.2709   22.5610   38.7463 H   0  0  0  0  0  0  0  0  0  0  0  0
    0.4292   16.5047   40.6926 H   0  0  0  0  0  0  0  0  0  0  0  0
   -0.3818   17.6935   39.5010 H   0  0  0  0  0  0  0  0  0  0  0  0
    1.9481   20.6442   42.8702 H   0  0  0  0  0  0  0  0  0  0  0  0
    2.5398   19.4914   44.1348 H   0  0  0  0  0  0  0  0  0  0  0  0
    0.6800   15.0014   39.1719 H   0  0  0  0  0  0  0  0  0  0  0  0
    1.8790   25.1862   32.4947 H   0  0  0  0  0  0  0  0  0  0  0  0
    0.6545   25.8186   31.3426 H   0  0  0  0  0  0  0  0  0  0  0  0
    2.3199   26.4919   31.3426 H   0  0  0  0  0  0  0  0  0  0  0  0
    2.4146   21.1790   40.8833 H   0  0  0  0  0  0  0  0  0  0  0  0
    4.6141   21.9135   39.0536 H   0  0  0  0  0  0  0  0  0  0  0  0
    4.6361   21.0146   37.4985 H   0  0  0  0  0  0  0  0  0  0  0  0
    4.5066   22.8062   37.4985 H   0  0  0  0  0  0  0  0  0  0  0  0
    0.1980   29.0158   32.9899 H   0  0  0  0  0  0  0  0  0  0  0  0
    1.3350   28.7140   31.6324 H   0  0  0  0  0  0  0  0  0  0  0  0
   -0.2882   27.9446   31.6324 H   0  0  0  0  0  0  0  0  0  0  0  0
    3.7552   17.9760   38.4556 H   0  0  0  0  0  0  0  0  0  0  0  0
    1.7220   26.7499   36.3923 H   0  0  0  0  0  0  0  0  0  0  0  0
    0.0032   26.4627   35.8053 H   0  0  0  0  0  0  0  0  0  0  0  0
    0.6865   16.8830   36.7373 H   0  0  0  0  0  0  0  0  0  0  0  0
    0.9441   15.1134   36.6755 H   0  0  0  0  0  0  0  0  0  0  0  0
    0.9852   22.4580   37.0166 H   0  0  0  0  0  0  0  0  0  0  0  0
    2.1106   21.1937   36.2007 H   0  0  0  0  0  0  0  0  0  0  0  0
    2.2258   27.9892   34.6107 H   0  0  0  0  0  0  0  0  0  0  0  0
    0.3756   28.2200   34.6459 H   0  0  0  0  0  0  0  0  0  0  0  0
    0.5100   24.4948   34.8738 H   0  0  0  0  0  0  0  0  0  0  0  0
    2.0702   25.1100   34.2001 H   0  0  0  0  0  0  0  0  0  0  0  0
  1 18  1  0
  2 10  1  0
  2 24  1  0
  3 15  1  0
  4 23  1  0
  5 14  1  0
  5 22  1  0
  6 11  1  0
  8 11  1  0
  9 16  1  0
  9  3  1  0
 12  7  1  0
 12 10  1  0
 13  4  1  0
 15 24  2  3
 17  4  1  0
 18  2  2  0
 20  1  1  0
 20 12  1  0
 21  5  2  0
 22  9  1  0
 23 19  1  0
 24  6  1  0
 25 19  1  0
 25 14  1  0
  1 26  1  0
  1 27  1  0
  4 28  1  0
  6 29  1  0
  6 30  1  0
  7 31  1  0
  7 32  1  0
  7 33  1  0
  8 34  1  0
  8 35  1  0
  8 36  1  0
  9 37  1  0
 10 38  1  0
 10 39  1  0
 11 40  1  0
 11 41  1  0
 12 42  1  0
 13 43  1  0
 13 44  1  0
 13 45  1  0
 15 46  1  0
 16 47  1  0
 16 48  1  0
 16 49  1  0
 17 50  1  0
 17 51  1  0
 17 52  1  0
 18 53  1  0
 19 54  1  0
 19 55  1  0
 20 56  1  0
 20 57  1  0
 22 58  1  0
 22 59  1  0
 23 60  1  0
 23 61  1  0
 25 62  1  0
 25 63  1  0
M  END
>  <mol_id>  (23) 
2026-09-18-6fnk-s0-n100-0023

>  <rmsd_to_ref>  (23) 


$$$$

     RDKit          3D

 68 69  0  0  0  0  0  0  0  0999 V2000
    1.1500   26.2650   32.9180 C   0  0  0  0  0  0  0  0  0  0  0  0
   -0.2730   15.2090   41.5400 O   0  0  0  0  0  0  0  0  0  0  0  0
    2.0840   20.4250   40.7200 C   0  0  0  0  0  0  0  0  0  0  0  0
    0.6510   15.3240   38.1120 C   0  0  0  0  0  0  0  0  0  0  0  0
    1.5990   19.0910   40.7850 N   0  0  0  0  0  4  0  0  0  0  0  0
    4.0530   23.4470   37.0900 C   0  0  0  0  0  0  0  0  0  0  0  0
    1.4010   25.4680   29.6840 C   0  0  0  0  0  0  0  0  0  0  0  0
    0.9900   21.0890   40.7600 C   0  0  0  0  0  0  0  0  0  0  0  0
    0.6090   17.4230   41.0780 C   0  0  0  0  0  0  0  0  0  0  0  0
    0.3930   16.3220   40.6220 C   0  0  0  0  0  0  0  0  0  0  0  0
    0.5530   16.1930   36.9960 O   0  0  0  0  0  0  0  0  0  0  0  0
    2.7140   24.6940   34.1410 C   0  0  0  0  0  0  0  0  0  0  0  0
    3.8180   22.0470   37.8310 C   0  0  0  0  0  0  0  0  0  0  0  0
    4.0720   24.6230   34.5660 C   0  0  0  0  0  0  0  0  0  0  0  0
    5.2230   22.7020   37.9440 C   0  0  0  0  0  0  0  0  0  0  0  0
    4.8420   23.6000   35.6360 C   0  0  0  0  0  0  0  0  0  0  0  0
    6.3580   23.9610   35.8710 C   0  0  0  0  0  0  0  0  0  0  0  0
    3.7960   21.2280   39.1630 C   0  0  0  0  0  0  0  0  0  0  0  0
    0.7340   16.1540   39.2750 C   0  0  0  0  0  0  0  0  0  0  0  0
    0.2970   18.9030   43.5720 C   0  0  0  0  0  0  0  0  0  0  0  0
    1.2860   17.3960   38.9780 C   0  0  0  0  0  0  0  0  0  0  0  0
    2.5750   20.3400   39.2310 C   0  0  0  0  0  0  0  0  0  0  0  0
    0.9870   25.9890   31.1030 C   0  0  0  0  0  0  0  0  0  0  0  0
    1.5730   17.9410   40.0410 C   0  0  0  0  0  0  0  0  0  0  0  0
    0.6930   17.8420   42.7960 C   0  0  0  0  0  0  0  0  0  0  0  0
    2.6800   25.8390   33.1510 C   0  0  0  0  0  0  0  0  0  0  0  0
    0.4604   25.6253   33.4883 H   0  0  0  0  0  0  0  0  0  0  0  0
    0.9064   27.2860   33.2470 H   0  0  0  0  0  0  0  0  0  0  0  0
   -0.4522   14.3070   41.1733 H   0  0  0  0  0  0  0  0  0  0  0  0
    2.8154   20.8179   41.4416 H   0  0  0  0  0  0  0  0  0  0  0  0
    1.5522   14.6990   38.0275 H   0  0  0  0  0  0  0  0  0  0  0  0
   -0.2182   14.6522   38.1672 H   0  0  0  0  0  0  0  0  0  0  0  0
    2.0388   18.7586   41.6550 H   0  0  0  0  0  0  0  0  0  0  0  0
    0.6609   19.3707   40.4647 H   0  0  0  0  0  0  0  0  0  0  0  0
    3.3451   24.2855   37.0144 H   0  0  0  0  0  0  0  0  0  0  0  0
    2.0820   24.6110   29.7924 H   0  0  0  0  0  0  0  0  0  0  0  0
    0.5026   25.1549   29.1319 H   0  0  0  0  0  0  0  0  0  0  0  0
    1.9090   26.2724   29.1319 H   0  0  0  0  0  0  0  0  0  0  0  0
    0.7044   21.2623   41.8080 H   0  0  0  0  0  0  0  0  0  0  0  0
    1.1289   22.0554   40.2532 H   0  0  0  0  0  0  0  0  0  0  0  0
    0.1968   20.5198   40.2532 H   0  0  0  0  0  0  0  0  0  0  0  0
   -0.3038   18.0132   41.2466 H   0  0  0  0  0  0  0  0  0  0  0  0
    0.4479   17.1253   37.3120 H   0  0  0  0  0  0  0  0  0  0  0  0
    2.4093   23.7541   33.6575 H   0  0  0  0  0  0  0  0  0  0  0  0
    2.0225   24.8506   34.9820 H   0  0  0  0  0  0  0  0  0  0  0  0
    2.9872   21.4283   37.4609 H   0  0  0  0  0  0  0  0  0  0  0  0
    4.6324   24.4906   33.6288 H   0  0  0  0  0  0  0  0  0  0  0  0
    4.0491   25.5050   35.2229 H   0  0  0  0  0  0  0  0  0  0  0  0
    6.0816   22.2530   37.4232 H   0  0  0  0  0  0  0  0  0  0  0  0
    5.8789   22.9921   38.7781 H   0  0  0  0  0  0  0  0  0  0  0  0
    4.8086   22.6208   35.1359 H   0  0  0  0  0  0  0  0  0  0  0  0
    6.5603   24.0092   36.9512 H   0  0  0  0  0  0  0  0  0  0  0  0
    6.9940   23.1892   35.4129 H   0  0  0  0  0  0  0  0  0  0  0  0
    6.5779   24.9366   35.4129 H   0  0  0  0  0  0  0  0  0  0  0  0
    4.6994   20.6026   39.2160 H   0  0  0  0  0  0  0  0  0  0  0  0
    3.7655   21.9321   40.0076 H   0  0  0  0  0  0  0  0  0  0  0  0
    0.4865   18.8929   44.6555 H   0  0  0  0  0  0  0  0  0  0  0  0
   -0.2098   19.7632   43.1103 H   0  0  0  0  0  0  0  0  0  0  0  0
    2.1913   17.2671   38.3667 H   0  0  0  0  0  0  0  0  0  0  0  0
    0.5707   18.0099   38.4111 H   0  0  0  0  0  0  0  0  0  0  0  0
    1.7948   20.7044   38.5465 H   0  0  0  0  0  0  0  0  0  0  0  0
    2.8025   19.3060   38.9323 H   0  0  0  0  0  0  0  0  0  0  0  0
    0.8684   27.0460   30.8223 H   0  0  0  0  0  0  0  0  0  0  0  0
    0.6644   24.9632   31.3347 H   0  0  0  0  0  0  0  0  0  0  0  0
    2.5826   17.8792   39.6087 H   0  0  0  0  0  0  0  0  0  0  0  0
    1.1848   17.0570   43.3892 H   0  0  0  0  0  0  0  0  0  0  0  0
    3.1254   25.5186   32.1976 H   0  0  0  0  0  0  0  0  0  0  0  0
    3.2537   26.6924   33.5416 H   0  0  0  0  0  0  0  0  0  0  0  0
  1 26  1  0
  3  8  1  0
  3  5  1  0
  4 19  1  0
  6 16  1  0
  6 13  1  0
  6 15  1  0
  7 23  1  0
  9 25  1  0
 10  9  1  0
 10  2  1  0
 11  4  1  0
 12 14  1  0
 13 15  1  0
 13 18  1  0
 14 16  1  0
 16 17  1  0
 18 22  1  0
 19 10  2  0
 21 19  1  0
 21 24  1  0
 22  3  1  0
 23  1  1  0
 24  5  1  0
 24  9  1  0
 25 20  2  3
 26 12  1  0
  1 27  1  0
  1 28  1  0
  2 29  1  0
  3 30  1  0
  4 31  1  0
  4 32  1  0
  5 33  1  0
  5 34  1  0
  6 35  1  0
  7 36  1  0
  7 37  1  0
  7 38  1  0
  8 39  1  0
  8 40  1  0
  8 41  1  0
  9 42  1  0
 11 43  1  0
 12 44  1  0
 12 45  1  0
 13 46  1  0
 14 47  1  0
 14 48  1  0
 15 49  1  0
 15 50  1  0
 16 51  1  0
 17 52  1  0
 17 53  1  0
 17 54  1  0
 18 55  1  0
 18 56  1  0
 20 57  1  0
 20 58  1  0
 21 59  1  0
 21 60  1  0
 22 61  1  0
 22 62  1  0
 23 63  1  0
 23 64  1  0
 24 65  1  0
 25 66  1  0
 26 67  1  0
 26 68  1  0
M  CHG  1   5   1
M  END
>  <mol_id>  (24) 
2026-09-18-6fnk-s0-n100-0024

>  <rmsd_to_ref>  (24) 


$$$$

     RDKit          3D

 97 99  0  0  0  0  0  0  0  0999 V2000
   -0.2840   16.9060   38.1900 O   0  0  0  0  0  0  0  0  0  0  0  0
    2.8900   19.2770   41.8300 C   0  0  0  0  0  0  0  0  0  0  0  0
    0.3150   14.0270   39.3670 C   0  0  0  0  0  0  0  0  0  0  0  0
    2.1060   18.7720   43.2270 C   0  0  0  0  0  0  0  0  0  0  0  0
    3.1300   22.1670   37.0340 C   0  0  0  0  0  0  0  0  0  0  0  0
    0.2930   15.1890   41.2260 O   0  0  0  0  0  0  0  0  0  0  0  0
    4.0050   20.5430   41.7640 S   0  0  0  0  0  0  0  0  0  0  0  0
    4.3740   24.5090   34.5180 C   0  0  0  0  0  0  0  0  0  0  0  0
    0.6680   27.1760   33.7150 C   0  0  0  0  0  0  0  0  0  0  0  0
    4.4070   21.7220   39.5710 C   0  0  0  0  0  0  0  0  0  0  0  0
    3.1700   24.4640   34.6240 C   0  0  0  0  0  0  0  0  0  0  0  0
   -0.1210   26.3450   33.1610 C   0  0  0  0  0  0  0  0  0  0  0  0
    0.3240   11.7670   39.5090 C   0  0  0  0  0  0  0  0  0  0  0  0
   -1.3030   30.1080   34.6100 C   0  0  0  0  0  0  0  0  0  0  0  0
    0.9430   29.4810   34.9580 C   0  0  0  0  0  0  0  0  0  0  0  0
   -2.3400   15.8570   38.6320 C   0  0  0  0  0  0  0  0  0  0  0  0
    0.1530   17.2720   42.9930 O   0  0  0  0  0  0  0  0  0  0  0  0
    3.3220   22.3230   35.7410 C   0  0  0  0  0  0  0  0  0  0  0  0
    1.4750   17.1540   36.7170 O   0  0  0  0  0  0  0  0  0  0  0  0
   -0.0960   30.8950   35.4020 S   0  0  0  0  0  0  0  0  0  0  0  0
   -0.7890   15.9740   38.5680 C   0  0  0  0  0  0  0  0  0  0  0  0
    0.9430   18.3340   42.3040 C   0  0  0  0  0  0  0  0  0  0  0  0
    3.0300   15.7660   37.8260 N   0  0  0  0  0  0  0  0  0  0  0  0
    4.2650   22.3190   38.3910 C   0  0  0  0  0  0  0  0  0  0  0  0
    6.1370   23.6740   37.3130 C   0  0  0  0  0  0  0  0  0  0  0  0
   -0.0780   15.4580   39.8850 C   0  0  0  0  0  0  0  0  0  0  0  0
    1.1150   24.4610   35.4180 O   0  0  0  0  0  0  0  0  0  0  0  0
    3.4390   20.7530   40.2170 C   0  0  0  0  0  0  0  0  0  0  0  0
    0.1010   13.6390   37.7980 N   0  0  0  0  0  4  0  0  0  0  0  0
   -1.1730   12.5330   41.2740 O   0  0  0  0  0  0  0  0  0  0  0  0
   -1.1050   28.8980   34.1580 C   0  0  0  0  0  0  0  0  0  0  0  0
    1.4290   18.1130   40.9150 C   0  0  0  0  0  0  0  0  0  0  0  0
    1.9140   25.0170   34.8570 C   0  0  0  0  0  0  0  0  0  0  0  0
   -0.5260   13.0070   39.9080 C   0  0  0  0  0  0  0  0  0  0  0  0
    0.0310   28.2670   34.7500 C   0  0  0  0  0  0  0  0  0  0  0  0
    1.8170   26.5090   34.5640 C   0  0  0  0  0  0  0  0  0  0  0  0
    2.1030   16.5090   37.4640 C   0  0  0  0  0  0  0  0  0  0  0  0
    2.6390   18.4250   40.7330 O   0  0  0  0  0  0  0  0  0  0  0  0
    1.1380   17.1590   38.2160 C   0  0  0  0  0  0  0  0  0  0  0  0
    3.5840   23.2240   34.6250 C   0  0  0  0  0  0  0  0  0  0  0  0
    5.8130   21.7220   40.1870 O   0  0  0  0  0  0  0  0  0  0  0  0
    5.0400   23.2240   38.0520 C   0  0  0  0  0  0  0  0  0  0  0  0
    3.7066   18.5683   42.0321 H   0  0  0  0  0  0  0  0  0  0  0  0
    1.3782   14.0726   39.6454 H   0  0  0  0  0  0  0  0  0  0  0  0
    2.6031   17.9516   43.7654 H   0  0  0  0  0  0  0  0  0  0  0  0
    1.9525   19.4396   44.0876 H   0  0  0  0  0  0  0  0  0  0  0  0
    2.3306   22.8837   37.2733 H   0  0  0  0  0  0  0  0  0  0  0  0
    3.0552   21.0695   37.0345 H   0  0  0  0  0  0  0  0  0  0  0  0
   -0.3357   15.6448   41.8401 H   0  0  0  0  0  0  0  0  0  0  0  0
    4.8424   24.8014   33.5666 H   0  0  0  0  0  0  0  0  0  0  0  0
    5.2074   24.9830   35.0572 H   0  0  0  0  0  0  0  0  0  0  0  0
    1.0163   27.6813   32.8021 H   0  0  0  0  0  0  0  0  0  0  0  0
    3.6947   22.5225   39.8196 H   0  0  0  0  0  0  0  0  0  0  0  0
    3.0748   24.4313   33.5286 H   0  0  0  0  0  0  0  0  0  0  0  0
   -0.6591   25.7782   33.9351 H   0  0  0  0  0  0  0  0  0  0  0  0
   -0.8442   26.8877   32.5346 H   0  0  0  0  0  0  0  0  0  0  0  0
    0.4584   25.6509   32.5346 H   0  0  0  0  0  0  0  0  0  0  0  0
    0.6748   11.2553   40.4173 H   0  0  0  0  0  0  0  0  0  0  0  0
   -0.2916   11.0766   38.9137 H   0  0  0  0  0  0  0  0  0  0  0  0
    1.1900   12.0922   38.9137 H   0  0  0  0  0  0  0  0  0  0  0  0
   -2.1552   30.0530   35.3033 H   0  0  0  0  0  0  0  0  0  0  0  0
   -1.4355   30.7026   33.6941 H   0  0  0  0  0  0  0  0  0  0  0  0
    1.4919   29.6984   34.0298 H   0  0  0  0  0  0  0  0  0  0  0  0
    1.6718   29.2779   35.7565 H   0  0  0  0  0  0  0  0  0  0  0  0
   -2.6628   15.8326   39.6833 H   0  0  0  0  0  0  0  0  0  0  0  0
   -2.7941   16.7234   38.1290 H   0  0  0  0  0  0  0  0  0  0  0  0
   -2.6590   14.9322   38.1290 H   0  0  0  0  0  0  0  0  0  0  0  0
    0.2355   17.3829   43.9733 H   0  0  0  0  0  0  0  0  0  0  0  0
    4.1660   21.6305   35.6064 H   0  0  0  0  0  0  0  0  0  0  0  0
    2.2435   22.4981   35.6139 H   0  0  0  0  0  0  0  0  0  0  0  0
   -0.6327   15.2964   37.7157 H   0  0  0  0  0  0  0  0  0  0  0  0
    0.1944   19.1219   42.1340 H   0  0  0  0  0  0  0  0  0  0  0  0
    3.0854   15.4513   38.8052 H   0  0  0  0  0  0  0  0  0  0  0  0
    3.6125   23.0751   38.8521 H   0  0  0  0  0  0  0  0  0  0  0  0
    6.9324   24.0003   37.9992 H   0  0  0  0  0  0  0  0  0  0  0  0
    6.5120   22.8571   36.6790 H   0  0  0  0  0  0  0  0  0  0  0  0
    5.8303   24.5190   36.6790 H   0  0  0  0  0  0  0  0  0  0  0  0
   -0.1636   16.5146   40.1786 H   0  0  0  0  0  0  0  0  0  0  0  0
    2.4229   21.1741   40.2314 H   0  0  0  0  0  0  0  0  0  0  0  0
    3.3792   19.8021   39.6673 H   0  0  0  0  0  0  0  0  0  0  0  0
   -0.3954   12.7390   37.7315 H   0  0  0  0  0  0  0  0  0  0  0  0
   -0.4548   14.3726   37.3356 H   0  0  0  0  0  0  0  0  0  0  0  0
    1.0180   13.5603   37.3356 H   0  0  0  0  0  0  0  0  0  0  0  0
   -0.6585   12.9099   42.0312 H   0  0  0  0  0  0  0  0  0  0  0  0
   -1.9968   28.2914   34.3741 H   0  0  0  0  0  0  0  0  0  0  0  0
   -0.9167   28.9741   33.0769 H   0  0  0  0  0  0  0  0  0  0  0  0
    1.3078   17.0468   40.6729 H   0  0  0  0  0  0  0  0  0  0  0  0
    0.8326   18.7691   40.2639 H   0  0  0  0  0  0  0  0  0  0  0  0
   -1.4643   13.5006   39.6148 H   0  0  0  0  0  0  0  0  0  0  0  0
   -0.1602   27.6961   35.6706 H   0  0  0  0  0  0  0  0  0  0  0  0
    2.7546   26.7722   34.0525 H   0  0  0  0  0  0  0  0  0  0  0  0
    1.5858   26.9004   35.5657 H   0  0  0  0  0  0  0  0  0  0  0  0
    1.1831   17.5859   39.2288 H   0  0  0  0  0  0  0  0  0  0  0  0
    3.5631   22.2759   34.0676 H   0  0  0  0  0  0  0  0  0  0  0  0
    6.1153   20.7886   40.3194 H   0  0  0  0  0  0  0  0  0  0  0  0
    5.3861   23.5229   39.0524 H   0  0  0  0  0  0  0  0  0  0  0  0
    4.4035   23.4076   37.1739 H   0  0  0  0  0  0  0  0  0  0  0  0
  1 21  1  0
  2  7  1  0
  2  4  1  0
  3 29  1  0
  3 26  1  0
  3 34  1  0
  8 11  1  0
  8 40  1  0
  9 12  1  0
  9 36  1  0
 10 41  1  0
 10 28  1  0
 11 40  1  0
 11 33  1  0
 14 20  1  0
 15 20  1  0
 18  5  1  0
 19 37  1  0
 19 39  1  0
 21 16  1  0
 21 26  1  0
 22 17  1  0
 22  4  1  0
 24  5  1  0
 24 10  1  0
 25 42  1  0
 26  6  1  0
 28  7  1  0
 31 14  1  0
 31 35  1  0
 32 22  1  0
 33 27  2  0
 34 13  1  0
 34 30  1  0
 35  9  1  0
 35 15  1  0
 36 33  1  0
 37 23  2  3
 37 39  1  0
 38 32  1  0
 38  2  1  0
 39  1  1  0
 40 18  1  0
 42 24  1  0
  2 43  1  0
  3 44  1  0
  4 45  1  0
  4 46  1  0
  5 47  1  0
  5 48  1  0
  6 49  1  0
  8 50  1  0
  8 51  1  0
  9 52  1  0
 10 53  1  0
 11 54  1  0
 12 55  1  0
 12 56  1  0
 12 57  1  0
 13 58  1  0
 13 59  1  0
 13 60  1  0
 14 61  1  0
 14 62  1  0
 15 63  1  0
 15 64  1  0
 16 65  1  0
 16 66  1  0
 16 67  1  0
 17 68  1  0
 18 69  1  0
 18 70  1  0
 21 71  1  0
 22 72  1  0
 23 73  1  0
 24 74  1  0
 25 75  1  0
 25 76  1  0
 25 77  1  0
 26 78  1  0
 28 79  1  0
 28 80  1  0
 29 81  1  0
 29 82  1  0
 29 83  1  0
 30 84  1  0
 31 85  1  0
 31 86  1  0
 32 87  1  0
 32 88  1  0
 34 89  1  0
 35 90  1  0
 36 91  1  0
 36 92  1  0
 39 93  1  0
 40 94  1  0
 41 95  1  0
 42 96  1  0
 42 97  1  0
M  CHG  1  29   1
M  END
>  <mol_id>  (25) 
2026-09-18-6fnk-s0-n100-0025

>  <rmsd_to_ref>  (25) 


$$$$

     RDKit          3D

 42 41  0  0  0  0  0  0  0  0999 V2000
    2.2950   19.4190   41.9900 C   0  0  0  0  0  0  0  0  0  0  0  0
   -0.7760   18.9520   44.1590 C   0  0  0  0  0  0  0  0  0  0  0  0
    2.7550   20.1320   38.6840 C   0  0  0  0  0  0  0  0  0  0  0  0
    1.2350   24.0790   34.7740 O   0  0  0  0  0  0  0  0  0  0  0  0
    2.8110   21.4320   38.0680 C   0  0  0  0  0  0  0  0  0  0  0  0
    3.8320   22.6680   36.0880 C   0  0  0  0  0  0  0  0  0  0  0  0
    1.9660   20.4680   40.8850 C   0  0  0  0  0  0  0  0  0  0  0  0
    3.3240   23.5760   33.8830 N   0  0  0  0  0  0  0  0  0  0  0  0
    3.1790   20.5870   40.0370 C   0  0  0  0  0  0  0  0  0  0  0  0
    2.4860   21.6100   34.5240 O   0  0  0  0  0  0  0  0  0  0  0  0
    3.2070   22.4830   34.7790 C   0  0  0  0  0  0  0  0  0  0  0  0
    0.1470   19.8640   43.5540 C   0  0  0  0  0  0  0  0  0  0  0  0
    2.0160   24.1720   33.5730 C   0  0  0  0  0  0  0  0  0  0  0  0
    3.8760   21.6830   37.0340 C   0  0  0  0  0  0  0  0  0  0  0  0
    1.8350   22.1230   38.0960 O   0  0  0  0  0  0  0  0  0  0  0  0
    1.9440   25.5430   33.0250 C   0  0  0  0  0  0  0  0  0  0  0  0
    1.1420   19.0150   42.8170 C   0  0  0  0  0  0  0  0  0  0  0  0
    3.0596   19.8486   42.6540 H   0  0  0  0  0  0  0  0  0  0  0  0
    2.6363   18.5131   41.4677 H   0  0  0  0  0  0  0  0  0  0  0  0
   -0.7006   19.0265   45.2539 H   0  0  0  0  0  0  0  0  0  0  0  0
   -1.7995   19.2033   43.8440 H   0  0  0  0  0  0  0  0  0  0  0  0
   -0.5370   17.9255   43.8440 H   0  0  0  0  0  0  0  0  0  0  0  0
    3.4604   19.4174   38.2348 H   0  0  0  0  0  0  0  0  0  0  0  0
    1.8052   19.5818   38.6128 H   0  0  0  0  0  0  0  0  0  0  0  0
    1.8308   24.1500   35.5614 H   0  0  0  0  0  0  0  0  0  0  0  0
    3.3109   23.5160   36.5564 H   0  0  0  0  0  0  0  0  0  0  0  0
    4.8936   22.7614   35.8156 H   0  0  0  0  0  0  0  0  0  0  0  0
    1.1125   20.1273   40.2805 H   0  0  0  0  0  0  0  0  0  0  0  0
    1.6951   21.4380   41.3275 H   0  0  0  0  0  0  0  0  0  0  0  0
    4.2175   23.9119   33.4960 H   0  0  0  0  0  0  0  0  0  0  0  0
    3.9850   19.9465   40.4245 H   0  0  0  0  0  0  0  0  0  0  0  0
    3.5707   21.6148   40.0213 H   0  0  0  0  0  0  0  0  0  0  0  0
   -0.3778   20.5320   42.8552 H   0  0  0  0  0  0  0  0  0  0  0  0
    0.6374   20.4999   44.3057 H   0  0  0  0  0  0  0  0  0  0  0  0
    1.6403   23.5931   32.7165 H   0  0  0  0  0  0  0  0  0  0  0  0
    3.9682   20.7413   36.4731 H   0  0  0  0  0  0  0  0  0  0  0  0
    4.6892   22.0574   37.6731 H   0  0  0  0  0  0  0  0  0  0  0  0
    1.9060   26.2670   33.8523 H   0  0  0  0  0  0  0  0  0  0  0  0
    2.8331   25.7382   32.4075 H   0  0  0  0  0  0  0  0  0  0  0  0
    1.0393   25.6440   32.4075 H   0  0  0  0  0  0  0  0  0  0  0  0
    0.5266   18.4025   42.1416 H   0  0  0  0  0  0  0  0  0  0  0  0
    1.7050   18.6541   43.6904 H   0  0  0  0  0  0  0  0  0  0  0  0
  1 17  1  0
  3  9  1  0
  5 15  2  0
  5  3  1  0
  6 14  1  0
  7  1  1  0
  8 11  1  0
  9  7  1  0
 10 11  2  0
 11  6  1  0
 12  2  1  0
 13 16  1  0
 13  8  1  0
 13  4  1  0
 14  5  1  0
 17 12  1  0
  1 18  1  0
  1 19  1  0
  2 20  1  0
  2 21  1  0
  2 22  1  0
  3 23  1  0
  3 24  1  0
  4 25  1  0
  6 26  1  0
  6 27  1  0
  7 28  1  0
  7 29  1  0
  8 30  1  0
  9 31  1  0
  9 32  1  0
 12 33  1  0
 12 34  1  0
 13 35  1  0
 14 36  1  0
 14 37  1  0
 16 38  1  0
 16 39  1  0
 16 40  1  0
 17 41  1  0
 17 42  1  0
M  END
>  <mol_id>  (26) 
2026-09-18-6fnk-s0-n100-0026

>  <rmsd_to_ref>  (26) 


$$$$

     RDKit          3D

 43 41  0  0  0  0  0  0  0  0999 V2000
    4.7120   23.4460   34.8980 C   0  0  0  0  0  0  0  0  0  0  0  0
    4.8700   24.3630   32.6270 C   0  0  0  0  0  0  0  0  0  0  0  0
   -0.8110   15.7750   37.0080 O   0  0  0  0  0  0  0  0  0  0  0  0
   -0.7260   14.5960   40.2840 C   0  0  0  0  0  0  0  0  0  0  0  0
   -0.5900   15.8760   38.2240 C   0  0  0  0  0  0  0  0  0  0  0  0
    5.5310   23.5680   35.9200 C   0  0  0  0  0  0  0  0  0  0  0  0
    5.1610   22.6710   41.1110 C   0  0  0  0  0  0  0  0  0  0  0  0
    0.1310   16.7370   38.7220 O   0  0  0  0  0  1  0  0  0  0  0  0
    5.1180   22.5720   36.7280 C   0  0  0  0  0  0  0  0  0  0  0  0
   -1.3440   14.9710   39.0340 O   0  0  0  0  0  0  0  0  0  0  0  0
    3.8930   25.5690   32.2290 C   0  0  0  0  0  0  0  0  0  0  0  0
    4.5290   21.8170   37.5440 C   0  0  0  0  0  0  0  0  0  0  0  0
    2.6510   22.5140   39.2090 C   0  0  0  0  0  0  0  0  0  0  0  0
    5.2150   21.6430   39.9680 C   0  0  0  0  0  0  0  0  0  0  0  0
    4.2930   23.6160   33.7900 C   0  0  0  0  0  0  0  0  0  0  0  0
    4.0100   21.7120   38.9830 C   0  0  0  0  0  0  0  0  0  0  0  0
    4.7290   22.3469   34.8565 H   0  0  0  0  0  0  0  0  0  0  0  0
    4.3339   24.4495   35.1430 H   0  0  0  0  0  0  0  0  0  0  0  0
    5.8560   24.7655   32.9025 H   0  0  0  0  0  0  0  0  0  0  0  0
    4.9785   23.6812   31.7707 H   0  0  0  0  0  0  0  0  0  0  0  0
   -1.3366   14.9665   41.1206 H   0  0  0  0  0  0  0  0  0  0  0  0
   -0.6512   13.5001   40.3418 H   0  0  0  0  0  0  0  0  0  0  0  0
    0.2806   15.0358   40.3418 H   0  0  0  0  0  0  0  0  0  0  0  0
    6.5777   23.4261   35.6130 H   0  0  0  0  0  0  0  0  0  0  0  0
    5.5079   24.5614   36.3918 H   0  0  0  0  0  0  0  0  0  0  0  0
    5.1886   22.1465   42.0775 H   0  0  0  0  0  0  0  0  0  0  0  0
    6.0248   23.3479   41.0364 H   0  0  0  0  0  0  0  0  0  0  0  0
    4.2310   23.2537   41.0364 H   0  0  0  0  0  0  0  0  0  0  0  0
    5.0934   21.8299   35.9165 H   0  0  0  0  0  0  0  0  0  0  0  0
    5.3450   23.2327   37.5777 H   0  0  0  0  0  0  0  0  0  0  0  0
    3.5073   26.0451   33.1425 H   0  0  0  0  0  0  0  0  0  0  0  0
    4.4484   26.3103   31.6356 H   0  0  0  0  0  0  0  0  0  0  0  0
    3.0526   25.1795   31.6356 H   0  0  0  0  0  0  0  0  0  0  0  0
    3.6047   21.6071   36.9858 H   0  0  0  0  0  0  0  0  0  0  0  0
    5.4851   21.3585   37.8368 H   0  0  0  0  0  0  0  0  0  0  0  0
    2.4650   22.6237   40.2876 H   0  0  0  0  0  0  0  0  0  0  0  0
    2.7316   23.5093   38.7477 H   0  0  0  0  0  0  0  0  0  0  0  0
    1.8186   21.9623   38.7477 H   0  0  0  0  0  0  0  0  0  0  0  0
    6.1381   21.8140   39.3948 H   0  0  0  0  0  0  0  0  0  0  0  0
    5.1799   20.6490   40.4378 H   0  0  0  0  0  0  0  0  0  0  0  0
    3.3132   24.0903   33.9483 H   0  0  0  0  0  0  0  0  0  0  0  0
    4.4929   22.6023   33.4126 H   0  0  0  0  0  0  0  0  0  0  0  0
    3.5423   20.7615   39.2794 H   0  0  0  0  0  0  0  0  0  0  0  0
  1  6  1  0
  2 15  1  0
  3  5  2  0
  5  8  1  0
  5 10  1  0
  6  9  1  0
  9 12  1  0
 10  4  1  0
 11  2  1  0
 12 16  1  0
 14  7  1  0
 15  1  1  0
 16 13  1  0
 16 14  1  0
  1 17  1  0
  1 18  1  0
  2 19  1  0
  2 20  1  0
  4 21  1  0
  4 22  1  0
  4 23  1  0
  6 24  1  0
  6 25  1  0
  7 26  1  0
  7 27  1  0
  7 28  1  0
  9 29  1  0
  9 30  1  0
 11 31  1  0
 11 32  1  0
 11 33  1  0
 12 34  1  0
 12 35  1  0
 13 36  1  0
 13 37  1  0
 13 38  1  0
 14 39  1  0
 14 40  1  0
 15 41  1  0
 15 42  1  0
 16 43  1  0
M  CHG  1   8  -1
M  END
>  <mol_id>  (27) 
2026-09-18-6fnk-s0-n100-0027

>  <rmsd_to_ref>  (27) 


$$$$

     RDKit          3D

 80 81  0  0  0  0  0  0  0  0999 V2000
    4.6780   24.7790   31.0660 S   0  0  0  0  0  0  0  0  0  0  0  0
    2.2620   24.3680   32.7950 S   0  0  0  0  0  0  0  0  0  0  0  0
   -1.1250   20.6690   40.7230 C   0  0  0  0  0  0  0  0  0  0  0  0
    3.6080   22.5780   35.3940 C   0  0  0  0  0  0  0  0  0  0  0  0
    2.5940   21.7130   34.4950 O   0  0  0  0  0  0  0  0  0  0  0  0
    6.1030   24.6870   32.9600 C   0  0  0  0  0  0  0  0  0  0  0  0
    3.1410   21.4600   39.2440 C   0  0  0  0  0  0  0  0  0  0  0  0
    2.4900   20.4240   41.4580 C   0  0  0  0  0  0  0  0  0  0  0  0
    1.1670   20.1130   42.0370 C   0  0  0  0  0  0  0  0  0  0  0  0
   -0.7500   17.4980   45.8550 C   0  0  0  0  0  0  0  0  0  0  0  0
    0.7730   19.1090   42.9440 C   0  0  0  0  0  0  0  0  0  0  0  0
   -0.4470   19.3370   43.5620 N   0  0  0  0  0  0  0  0  0  0  0  0
   -4.9590   21.7120   38.5600 C   0  0  0  0  0  0  0  0  0  0  0  0
    2.6760   19.7840   37.7550 C   0  0  0  0  0  0  0  0  0  0  0  0
   -1.0630   18.3900   44.6420 C   0  0  0  0  0  0  0  0  0  0  0  0
    1.9130   20.1390   33.5330 C   0  0  0  0  0  0  0  0  0  0  0  0
    2.6700   20.3580   39.9480 C   0  0  0  0  0  0  0  0  0  0  0  0
    3.1770   21.0890   37.8470 C   0  0  0  0  0  0  0  0  0  0  0  0
    4.0300   21.9910   36.6900 C   0  0  0  0  0  0  0  0  0  0  0  0
    2.3950   18.7510   36.7750 C   0  0  0  0  0  0  0  0  0  0  0  0
    3.0650   22.8940   32.7420 C   0  0  0  0  0  0  0  0  0  0  0  0
   -0.4980   18.9630   45.9810 C   0  0  0  0  0  0  0  0  0  0  0  0
    2.3800   22.2090   34.1190 C   0  0  0  0  0  0  0  0  0  0  0  0
    5.2090   24.3410   32.6390 C   0  0  0  0  0  0  0  0  0  0  0  0
    4.4980   23.4770   33.4840 C   0  0  0  0  0  0  0  0  0  0  0  0
   -0.7550   20.7160   43.2580 N   0  0  0  0  0  0  0  0  0  0  0  0
    7.5390   24.6930   32.1200 C   0  0  0  0  0  0  0  0  0  0  0  0
   -3.8880   21.2330   37.7920 C   0  0  0  0  0  0  0  0  0  0  0  0
   -5.4270   23.1840   38.4170 C   0  0  0  0  0  0  0  0  0  0  0  0
   -0.1570   20.9310   41.7650 C   0  0  0  0  0  0  0  0  0  0  0  0
    3.4940   25.4770   31.8360 C   0  0  0  0  0  0  0  0  0  0  0  0
    1.4080   18.0700   43.2340 O   0  0  0  0  0  0  0  0  0  0  0  0
    2.4160   19.1960   39.0940 N   0  0  0  0  0  0  0  0  0  0  0  0
   -2.0917   20.4073   41.1780 H   0  0  0  0  0  0  0  0  0  0  0  0
   -1.2444   21.5671   40.0992 H   0  0  0  0  0  0  0  0  0  0  0  0
   -0.7751   19.8332   40.0992 H   0  0  0  0  0  0  0  0  0  0  0  0
    3.1217   23.5410   35.6089 H   0  0  0  0  0  0  0  0  0  0  0  0
    4.5301   22.6460   34.7982 H   0  0  0  0  0  0  0  0  0  0  0  0
    5.9220   25.7410   33.2177 H   0  0  0  0  0  0  0  0  0  0  0  0
    6.3366   23.9075   33.7001 H   0  0  0  0  0  0  0  0  0  0  0  0
    3.4317   22.4317   39.6697 H   0  0  0  0  0  0  0  0  0  0  0  0
    2.7447   21.4481   41.7683 H   0  0  0  0  0  0  0  0  0  0  0  0
    3.1383   19.6197   41.8358 H   0  0  0  0  0  0  0  0  0  0  0  0
    0.9583   19.4352   41.1961 H   0  0  0  0  0  0  0  0  0  0  0  0
    0.1001   16.8012   45.8132 H   0  0  0  0  0  0  0  0  0  0  0  0
   -1.3303   16.7681   46.4385 H   0  0  0  0  0  0  0  0  0  0  0  0
   -5.8269   21.0796   38.3215 H   0  0  0  0  0  0  0  0  0  0  0  0
   -4.5671   21.6731   39.5871 H   0  0  0  0  0  0  0  0  0  0  0  0
   -1.8118   18.0835   43.8967 H   0  0  0  0  0  0  0  0  0  0  0  0
    1.9130   20.1390   34.6330 H   0  0  0  0  0  0  0  0  0  0  0  0
    1.9130   21.1761   33.1663 H   0  0  0  0  0  0  0  0  0  0  0  0
    2.8111   19.6205   33.1663 H   0  0  0  0  0  0  0  0  0  0  0  0
    1.0149   19.6205   33.1663 H   0  0  0  0  0  0  0  0  0  0  0  0
    3.7026   20.0051   40.0865 H   0  0  0  0  0  0  0  0  0  0  0  0
    4.8718   21.3371   36.4184 H   0  0  0  0  0  0  0  0  0  0  0  0
    4.0580   22.9338   37.2560 H   0  0  0  0  0  0  0  0  0  0  0  0
    2.1402   17.8143   37.2924 H   0  0  0  0  0  0  0  0  0  0  0  0
    1.5493   19.0636   36.1449 H   0  0  0  0  0  0  0  0  0  0  0  0
    3.2826   18.5921   36.1449 H   0  0  0  0  0  0  0  0  0  0  0  0
    3.1011   22.3064   31.8128 H   0  0  0  0  0  0  0  0  0  0  0  0
   -1.1403   19.5766   46.6298 H   0  0  0  0  0  0  0  0  0  0  0  0
    0.3707   19.5795   46.2552 H   0  0  0  0  0  0  0  0  0  0  0  0
    2.2805   23.0526   34.8179 H   0  0  0  0  0  0  0  0  0  0  0  0
    1.5592   21.6714   33.6216 H   0  0  0  0  0  0  0  0  0  0  0  0
    5.7028   23.4499   32.2242 H   0  0  0  0  0  0  0  0  0  0  0  0
    4.2279   24.0196   34.4020 H   0  0  0  0  0  0  0  0  0  0  0  0
    5.1414   22.6136   33.7090 H   0  0  0  0  0  0  0  0  0  0  0  0
   -1.7725   20.8756   43.2715 H   0  0  0  0  0  0  0  0  0  0  0  0
    8.3791   24.6965   32.8301 H   0  0  0  0  0  0  0  0  0  0  0  0
    7.5974   23.7951   31.4873 H   0  0  0  0  0  0  0  0  0  0  0  0
    7.5899   25.5914   31.4873 H   0  0  0  0  0  0  0  0  0  0  0  0
   -3.0894   20.8758   38.4589 H   0  0  0  0  0  0  0  0  0  0  0  0
   -4.2339   20.4038   37.1573 H   0  0  0  0  0  0  0  0  0  0  0  0
   -3.5005   22.0436   37.1573 H   0  0  0  0  0  0  0  0  0  0  0  0
   -5.5666   23.6231   39.4159 H   0  0  0  0  0  0  0  0  0  0  0  0
   -4.6672   23.7585   37.8669 H   0  0  0  0  0  0  0  0  0  0  0  0
   -6.3791   23.2143   37.8669 H   0  0  0  0  0  0  0  0  0  0  0  0
    0.0788   21.9118   41.3264 H   0  0  0  0  0  0  0  0  0  0  0  0
    3.9414   26.1716   32.5622 H   0  0  0  0  0  0  0  0  0  0  0  0
    2.8866   25.9379   31.0431 H   0  0  0  0  0  0  0  0  0  0  0  0
  1 31  1  0
  1 24  1  0
  4 19  1  0
  5  4  1  0
  7 17  1  0
  9  8  1  0
  9 11  1  0
 10 22  1  0
 11 32  2  0
 11 12  1  0
 12 15  1  0
 14 18  1  0
 14 33  2  0
 15 10  1  0
 15 22  1  0
 17  8  1  0
 18  7  2  0
 19 18  1  0
 20 14  1  0
 21  2  1  0
 21 25  1  0
 21 23  1  0
 23  5  1  0
 24  6  1  0
 24 25  1  0
 26 12  1  0
 27  6  1  0
 28 13  1  0
 29 13  1  0
 30  3  1  0
 30  9  1  0
 30 26  1  0
 31  2  1  0
 33 17  1  0
  3 34  1  0
  3 35  1  0
  3 36  1  0
  4 37  1  0
  4 38  1  0
  6 39  1  0
  6 40  1  0
  7 41  1  0
  8 42  1  0
  8 43  1  0
  9 44  1  0
 10 45  1  0
 10 46  1  0
 13 47  1  0
 13 48  1  0
 15 49  1  0
 16 50  1  0
 16 51  1  0
 16 52  1  0
 16 53  1  0
 17 54  1  0
 19 55  1  0
 19 56  1  0
 20 57  1  0
 20 58  1  0
 20 59  1  0
 21 60  1  0
 22 61  1  0
 22 62  1  0
 23 63  1  0
 23 64  1  0
 24 65  1  0
 25 66  1  0
 25 67  1  0
 26 68  1  0
 27 69  1  0
 27 70  1  0
 27 71  1  0
 28 72  1  0
 28 73  1  0
 28 74  1  0
 29 75  1  0
 29 76  1  0
 29 77  1  0
 30 78  1  0
 31 79  1  0
 31 80  1  0
M  END
>  <mol_id>  (28) 
2026-09-18-6fnk-s0-n100-0028

>  <rmsd_to_ref>  (28) 


$$$$

     RDKit          3D

 64 66  0  0  0  0  0  0  0  0999 V2000
    1.2680   25.5420   32.7660 S   0  0  0  0  0  0  0  0  0  0  0  0
    2.6150   19.3160   41.3370 C   0  0  0  0  0  0  0  0  0  0  0  0
    2.5280   24.5810   32.3850 C   0  0  0  0  0  0  0  0  0  0  0  0
    1.7910   14.7980   38.7870 S   0  0  0  0  0  0  0  0  0  0  0  0
    1.2310   16.4510   38.5480 C   0  0  0  0  0  0  0  0  0  0  0  0
    2.7310   21.3640   35.8900 C   0  0  0  0  0  0  0  0  0  0  0  0
    5.1590   24.0170   31.6620 C   0  0  0  0  0  0  0  0  0  0  0  0
    1.1100   24.8290   34.6140 S   0  0  0  0  0  0  0  0  0  0  0  0
    3.2460   18.9980   36.6990 O   0  0  0  0  0  0  0  0  0  0  0  0
    2.2020   17.6440   39.0170 C   0  0  0  0  0  0  0  0  0  0  0  0
    2.0160   19.1960   38.8650 C   0  0  0  0  0  0  0  0  0  0  0  0
    2.5930   20.0100   39.9840 C   0  0  0  0  0  0  0  0  0  0  0  0
    0.1830   14.0700   38.8310 C   0  0  0  0  0  0  0  0  0  0  0  0
   -0.0630   16.4610   39.2470 C   0  0  0  0  0  0  0  0  0  0  0  0
    3.8830   19.4000   42.1060 C   0  0  0  0  0  0  0  0  0  0  0  0
    0.9460   22.9320   36.4860 C   0  0  0  0  0  0  0  0  0  0  0  0
    0.0210   12.9110   38.5280 O   0  0  0  0  0  0  0  0  0  0  0  0
    2.6830   24.4330   30.9390 C   0  0  0  0  0  0  0  0  0  0  0  0
    3.5090   20.5050   43.0490 C   0  0  0  0  0  0  0  0  0  0  0  0
   -0.7800   15.1380   38.9020 C   0  0  0  0  0  0  0  0  0  0  0  0
    1.9710   23.3410   34.3510 C   0  0  0  0  0  0  0  0  0  0  0  0
    2.0570   20.6290   43.0670 N   0  0  0  0  0  4  0  0  0  0  0  0
    2.7530   21.1920   37.3590 C   0  0  0  0  0  0  0  0  0  0  0  0
    1.3900   19.7970   42.0290 C   0  0  0  0  0  0  0  0  0  0  0  0
    1.6240   22.2120   35.3690 C   0  0  0  0  0  0  0  0  0  0  0  0
    2.6430   23.3550   33.2740 C   0  0  0  0  0  0  0  0  0  0  0  0
    4.1300   24.2970   30.6490 C   0  0  0  0  0  0  0  0  0  0  0  0
    2.7100   19.6740   37.5590 C   0  0  0  0  0  0  0  0  0  0  0  0
    2.5949   18.2230   41.2149 H   0  0  0  0  0  0  0  0  0  0  0  0
    3.4666   25.0871   32.6550 H   0  0  0  0  0  0  0  0  0  0  0  0
    1.1811   16.6770   37.4726 H   0  0  0  0  0  0  0  0  0  0  0  0
    3.6835   21.8231   35.5866 H   0  0  0  0  0  0  0  0  0  0  0  0
    2.5731   20.3610   35.4669 H   0  0  0  0  0  0  0  0  0  0  0  0
    4.7263   24.1347   32.6665 H   0  0  0  0  0  0  0  0  0  0  0  0
    5.5243   22.9868   31.5386 H   0  0  0  0  0  0  0  0  0  0  0  0
    5.9959   24.7201   31.5386 H   0  0  0  0  0  0  0  0  0  0  0  0
    2.3198   17.4890   40.0996 H   0  0  0  0  0  0  0  0  0  0  0  0
    2.9862   17.5095   38.2574 H   0  0  0  0  0  0  0  0  0  0  0  0
    0.9274   19.3539   38.8617 H   0  0  0  0  0  0  0  0  0  0  0  0
    1.9958   20.9287   40.0811 H   0  0  0  0  0  0  0  0  0  0  0  0
    3.6434   20.1988   39.7176 H   0  0  0  0  0  0  0  0  0  0  0  0
    0.0962   16.5310   40.3332 H   0  0  0  0  0  0  0  0  0  0  0  0
   -0.6680   17.3252   38.9352 H   0  0  0  0  0  0  0  0  0  0  0  0
    4.1073   18.4627   42.6363 H   0  0  0  0  0  0  0  0  0  0  0  0
    4.7898   19.5734   41.5079 H   0  0  0  0  0  0  0  0  0  0  0  0
    1.3117   22.5437   37.4480 H   0  0  0  0  0  0  0  0  0  0  0  0
    1.1671   24.0073   36.4168 H   0  0  0  0  0  0  0  0  0  0  0  0
   -0.1407   22.7759   36.4168 H   0  0  0  0  0  0  0  0  0  0  0  0
    2.1468   23.5362   30.5952 H   0  0  0  0  0  0  0  0  0  0  0  0
    2.2675   25.3076   30.4170 H   0  0  0  0  0  0  0  0  0  0  0  0
    3.8734   20.2689   44.0597 H   0  0  0  0  0  0  0  0  0  0  0  0
    3.9630   21.4509   42.7186 H   0  0  0  0  0  0  0  0  0  0  0  0
   -1.2868   15.2389   37.9309 H   0  0  0  0  0  0  0  0  0  0  0  0
   -1.5208   14.9101   39.6826 H   0  0  0  0  0  0  0  0  0  0  0  0
    1.7139   20.3361   43.9930 H   0  0  0  0  0  0  0  0  0  0  0  0
    1.8291   21.6133   42.8665 H   0  0  0  0  0  0  0  0  0  0  0  0
    3.6728   21.6163   37.7880 H   0  0  0  0  0  0  0  0  0  0  0  0
    1.9179   21.7068   37.8565 H   0  0  0  0  0  0  0  0  0  0  0  0
    0.7440   20.3933   41.3678 H   0  0  0  0  0  0  0  0  0  0  0  0
    0.7051   19.0193   42.3980 H   0  0  0  0  0  0  0  0  0  0  0  0
    1.0193   21.4592   34.8421 H   0  0  0  0  0  0  0  0  0  0  0  0
    3.2867   22.5080   32.9942 H   0  0  0  0  0  0  0  0  0  0  0  0
    4.2092   23.4826   29.9138 H   0  0  0  0  0  0  0  0  0  0  0  0
    4.3830   25.3337   30.3821 H   0  0  0  0  0  0  0  0  0  0  0  0
  1  8  1  0
  2 12  1  0
  2 24  1  0
  2 15  1  0
  3 18  1  0
  3  1  1  0
  3 26  1  0
  4 13  1  0
  5  4  1  0
  5 10  1  0
  5 14  1  0
  6 23  1  0
  9 28  2  0
 11 10  1  0
 11 12  1  0
 13 20  1  0
 15 19  1  0
 17 13  2  0
 19 22  1  0
 20 14  1  0
 21  8  1  0
 21 25  1  0
 23 28  1  0
 24 22  1  0
 25  6  1  0
 25 16  1  0
 26 21  2  0
 27 18  1  0
 27  7  1  0
 28 11  1  0
  2 29  1  0
  3 30  1  0
  5 31  1  0
  6 32  1  0
  6 33  1  0
  7 34  1  0
  7 35  1  0
  7 36  1  0
 10 37  1  0
 10 38  1  0
 11 39  1  0
 12 40  1  0
 12 41  1  0
 14 42  1  0
 14 43  1  0
 15 44  1  0
 15 45  1  0
 16 46  1  0
 16 47  1  0
 16 48  1  0
 18 49  1  0
 18 50  1  0
 19 51  1  0
 19 52  1  0
 20 53  1  0
 20 54  1  0
 22 55  1  0
 22 56  1  0
 23 57  1  0
 23 58  1  0
 24 59  1  0
 24 60  1  0
 25 61  1  0
 26 62  1  0
 27 63  1  0
 27 64  1  0
M  CHG  1  22   1
M  END
>  <mol_id>  (29) 
2026-09-18-6fnk-s0-n100-0029

>  <rmsd_to_ref>  (29) 


$$$$

     RDKit          3D

 66 66  0  0  0  0  0  0  0  0999 V2000
    3.1720   20.7860   40.5580 C   0  0  0  0  0  0  0  0  0  0  0  0
    1.0290   26.9190   32.9240 C   0  0  0  0  0  0  0  0  0  0  0  0
    2.3540   22.0370   38.5650 C   0  0  0  0  0  0  0  0  0  0  0  0
    3.0770   20.4220   37.1140 O   0  0  0  0  0  0  0  0  0  0  0  0
    0.9300   16.4150   38.6600 O   0  0  0  0  0  0  0  0  0  0  0  0
    4.4590   22.9900   32.3440 C   0  0  0  0  0  0  0  0  0  0  0  0
    0.9320   26.3420   34.2570 C   0  0  0  0  0  0  0  0  0  0  0  0
    0.9900   16.1950   40.0460 O   0  0  0  0  0  0  0  0  0  0  0  0
    2.9970   15.8770   37.9560 O   0  0  0  0  0  1  0  0  0  0  0  0
    4.8790   21.7470   38.9740 C   0  0  0  0  0  0  0  0  0  0  0  0
    2.1980   24.4030   32.7960 N   0  0  0  0  0  4  0  0  0  0  0  0
   -1.2490   15.3100   39.6310 C   0  0  0  0  0  0  0  0  0  0  0  0
    2.3660   19.4700   41.1650 C   0  0  0  0  0  0  0  0  0  0  0  0
    1.2420   14.4750   37.6230 O   0  0  0  0  0  0  0  0  0  0  0  0
    0.4300   27.9220   33.7700 C   0  0  0  0  0  0  0  0  0  0  0  0
    3.1670   23.8270   32.5330 C   0  0  0  0  0  0  0  0  0  0  0  0
   -0.8650   27.9290   34.4890 C   0  0  0  0  0  0  0  0  0  0  0  0
    1.2050   18.3690   43.0820 C   0  0  0  0  0  0  0  0  0  0  0  0
    2.8870   23.2100   35.2030 C   0  0  0  0  0  0  0  0  0  0  0  0
    1.9760   18.3770   40.2870 C   0  0  0  0  0  0  0  0  0  0  0  0
    1.9870   22.2590   35.8970 C   0  0  0  0  0  0  0  0  0  0  0  0
    1.2620   17.3420   40.8410 C   0  0  0  0  0  0  0  0  0  0  0  0
    2.0100   19.3580   42.5390 C   0  0  0  0  0  0  0  0  0  0  0  0
    0.3990   26.3240   31.6210 C   0  0  0  0  0  0  0  0  0  0  0  0
    2.5300   21.4710   37.1380 C   0  0  0  0  0  0  0  0  0  0  0  0
    1.2560   24.6910   33.7640 C   0  0  0  0  0  0  0  0  0  0  0  0
    0.8260   17.3330   42.1820 C   0  0  0  0  0  0  0  0  0  0  0  0
    1.8080   15.5830   37.9750 C   0  0  0  0  0  0  0  0  0  0  0  0
    2.5540   20.2650   43.4360 F   0  0  0  0  0  0  0  0  0  0  0  0
    0.7080   18.5190   44.2530 F   0  0  0  0  0  0  0  0  0  0  0  0
    3.9420   21.3000   41.6370 O   0  0  0  0  0  0  0  0  0  0  0  0
   -1.2760   14.6320   39.9800 C   0  0  0  0  0  0  0  0  0  0  0  0
    2.0530   24.3530   34.9710 C   0  0  0  0  0  0  0  0  0  0  0  0
    3.4990   21.5460   39.3220 N   0  0  0  0  0  0  0  0  0  0  0  0
    1.9037   26.9993   32.2619 H   0  0  0  0  0  0  0  0  0  0  0  0
    1.4152   21.6747   39.0093 H   0  0  0  0  0  0  0  0  0  0  0  0
    2.3051   23.1359   38.5653 H   0  0  0  0  0  0  0  0  0  0  0  0
    4.8705   22.7234   33.3287 H   0  0  0  0  0  0  0  0  0  0  0  0
    4.2231   22.0727   31.7846 H   0  0  0  0  0  0  0  0  0  0  0  0
    5.1997   23.5803   31.7846 H   0  0  0  0  0  0  0  0  0  0  0  0
    0.9602   26.0757   35.3239 H   0  0  0  0  0  0  0  0  0  0  0  0
    5.4795   21.8345   39.8915 H   0  0  0  0  0  0  0  0  0  0  0  0
    5.2363   20.8914   38.3821 H   0  0  0  0  0  0  0  0  0  0  0  0
    4.9774   22.6689   38.3821 H   0  0  0  0  0  0  0  0  0  0  0  0
    1.5786   24.0432   32.0559 H   0  0  0  0  0  0  0  0  0  0  0  0
    2.7610   25.2083   33.1049 H   0  0  0  0  0  0  0  0  0  0  0  0
   -1.2101   16.2874   39.1279 H   0  0  0  0  0  0  0  0  0  0  0  0
    0.5441   29.0092   33.6476 H   0  0  0  0  0  0  0  0  0  0  0  0
    3.6811   24.7539   32.2387 H   0  0  0  0  0  0  0  0  0  0  0  0
    2.5654   22.9800   32.1715 H   0  0  0  0  0  0  0  0  0  0  0  0
   -0.6822   27.9280   35.5737 H   0  0  0  0  0  0  0  0  0  0  0  0
   -1.4324   28.8302   34.2136 H   0  0  0  0  0  0  0  0  0  0  0  0
   -1.4421   27.0340   34.2136 H   0  0  0  0  0  0  0  0  0  0  0  0
    3.7461   23.4727   35.8378 H   0  0  0  0  0  0  0  0  0  0  0  0
    3.3144   22.7970   34.2774 H   0  0  0  0  0  0  0  0  0  0  0  0
    2.2428   18.3793   39.2198 H   0  0  0  0  0  0  0  0  0  0  0  0
    1.1115   22.8320   36.2362 H   0  0  0  0  0  0  0  0  0  0  0  0
    1.7997   21.4762   35.1473 H   0  0  0  0  0  0  0  0  0  0  0  0
   -0.3764   25.5916   31.8900 H   0  0  0  0  0  0  0  0  0  0  0  0
   -0.0514   27.1340   31.0285 H   0  0  0  0  0  0  0  0  0  0  0  0
    1.1820   25.8281   31.0285 H   0  0  0  0  0  0  0  0  0  0  0  0
    0.3208   24.2337   33.4086 H   0  0  0  0  0  0  0  0  0  0  0  0
    0.1839   16.5138   42.5378 H   0  0  0  0  0  0  0  0  0  0  0  0
   -1.3149   13.6546   40.4831 H   0  0  0  0  0  0  0  0  0  0  0  0
    2.7229   25.2146   35.1084 H   0  0  0  0  0  0  0  0  0  0  0  0
    1.2222   24.0816   35.6390 H   0  0  0  0  0  0  0  0  0  0  0  0
  1 13  1  0
  1 31  2  0
  2 24  1  0
  2 15  1  0
  2  7  1  0
  3 34  1  0
  4 25  2  0
  5  8  1  0
  6 16  1  0
  7 26  1  0
  8 22  1  0
  9 28  1  0
 10 34  1  0
 11 26  1  0
 12 32  3  0
 13 23  1  0
 14 28  2  0
 15  7  1  0
 15 17  1  0
 16 11  1  0
 18 30  1  0
 19 21  1  0
 20 22  1  0
 20 13  2  0
 21 25  1  0
 22 27  2  0
 23 18  2  0
 23 29  1  0
 25  3  1  0
 26 33  1  0
 27 18  1  0
 28  5  1  0
 33 19  1  0
 34  1  1  0
  2 35  1  0
  3 36  1  0
  3 37  1  0
  6 38  1  0
  6 39  1  0
  6 40  1  0
  7 41  1  0
 10 42  1  0
 10 43  1  0
 10 44  1  0
 11 45  1  0
 11 46  1  0
 12 47  1  0
 15 48  1  0
 16 49  1  0
 16 50  1  0
 17 51  1  0
 17 52  1  0
 17 53  1  0
 19 54  1  0
 19 55  1  0
 20 56  1  0
 21 57  1  0
 21 58  1  0
 24 59  1  0
 24 60  1  0
 24 61  1  0
 26 62  1  0
 27 63  1  0
 32 64  1  0
 33 65  1  0
 33 66  1  0
M  CHG  2   9  -1  11   1
M  END
>  <mol_id>  (30) 
2026-09-18-6fnk-s0-n100-0030

>  <rmsd_to_ref>  (30) 


$$$$

     RDKit          3D

 63 64  0  0  0  0  0  0  0  0999 V2000
    2.4820   19.9760   39.2820 N   0  0  0  0  0  0  0  0  0  0  0  0
    3.1250   22.6080   36.8700 C   0  0  0  0  0  0  0  0  0  0  0  0
    1.9210   18.1400   41.5100 S   0  0  0  0  0  0  0  0  0  0  0  0
    1.1020   17.0960   40.0560 C   0  0  0  0  0  0  0  0  0  0  0  0
    2.1730   24.3190   35.1220 C   0  0  0  0  0  0  0  0  0  0  0  0
    1.3860   17.9700   38.8310 C   0  0  0  0  0  0  0  0  0  0  0  0
    4.2260   23.5100   37.4460 C   0  0  0  0  0  0  0  0  0  0  0  0
    3.1730   23.3480   34.4330 C   0  0  0  0  0  0  0  0  0  0  0  0
    0.9510   16.0600   37.3180 C   0  0  0  0  0  0  0  0  0  0  0  0
   -0.1020   28.0560   33.9630 O   0  0  0  0  0  0  0  0  0  0  0  0
    2.3360   22.8090   35.5520 C   0  0  0  0  0  0  0  0  0  0  0  0
    5.4930   23.5830   36.6200 C   0  0  0  0  0  0  0  0  0  0  0  0
    2.5470   21.5990   37.6930 N   0  0  0  0  0  0  0  0  0  0  0  0
    2.0790   19.0170   38.7020 N   0  0  0  0  0  0  0  0  0  0  0  0
   -0.0810   26.8380   33.7490 C   0  0  0  0  0  0  0  0  0  0  0  0
    2.3800   27.0940   34.6040 S   0  0  0  0  0  0  0  0  0  0  0  0
   -0.2790   18.1110   44.2660 C   0  0  0  0  0  0  0  0  0  0  0  0
    4.4680   21.2780   39.0100 O   0  0  0  0  0  0  0  0  0  0  0  0
    3.2990   21.0020   38.6460 C   0  0  0  0  0  0  0  0  0  0  0  0
    1.2150   17.5770   43.9640 C   0  0  0  0  0  0  0  0  0  0  0  0
    0.0270   15.9880   39.7670 C   0  0  0  0  0  0  0  0  0  0  0  0
    0.0970   15.4150   38.3700 C   0  0  0  0  0  0  0  0  0  0  0  0
    0.9480   17.3110   42.4470 C   0  0  0  0  0  0  0  0  0  0  0  0
    0.7030   23.9530   32.9800 C   0  0  0  0  0  0  0  0  0  0  0  0
    0.9660   24.6720   34.2670 C   0  0  0  0  0  0  0  0  0  0  0  0
    0.6960   17.5800   37.5640 C   0  0  0  0  0  0  0  0  0  0  0  0
    1.1260   26.0800   33.9840 C   0  0  0  0  0  0  0  0  0  0  0  0
   -0.3570   18.7390   45.6180 C   0  0  0  0  0  0  0  0  0  0  0  0
    4.1019   22.5639   36.3662 H   0  0  0  0  0  0  0  0  0  0  0  0
    2.2069   25.2851   35.6469 H   0  0  0  0  0  0  0  0  0  0  0  0
    3.8195   24.5280   37.5375 H   0  0  0  0  0  0  0  0  0  0  0  0
    4.5136   23.0653   38.4101 H   0  0  0  0  0  0  0  0  0  0  0  0
    2.9834   23.0135   33.4024 H   0  0  0  0  0  0  0  0  0  0  0  0
    4.2543   23.3791   34.2337 H   0  0  0  0  0  0  0  0  0  0  0  0
    0.6321   15.7614   36.3085 H   0  0  0  0  0  0  0  0  0  0  0  0
    2.0122   15.7770   37.3794 H   0  0  0  0  0  0  0  0  0  0  0  0
    1.6463   21.9606   35.6727 H   0  0  0  0  0  0  0  0  0  0  0  0
    6.3646   23.6332   37.2892 H   0  0  0  0  0  0  0  0  0  0  0  0
    5.5691   22.6877   35.9854 H   0  0  0  0  0  0  0  0  0  0  0  0
    5.4657   24.4811   35.9854 H   0  0  0  0  0  0  0  0  0  0  0  0
    1.5624   21.3257   37.5632 H   0  0  0  0  0  0  0  0  0  0  0  0
   -0.9840   26.3305   33.3787 H   0  0  0  0  0  0  0  0  0  0  0  0
    2.3510   27.0706   35.9735 H   0  0  0  0  0  0  0  0  0  0  0  0
   -0.9800   17.2645   44.2211 H   0  0  0  0  0  0  0  0  0  0  0  0
   -0.5412   18.8673   43.5115 H   0  0  0  0  0  0  0  0  0  0  0  0
    1.9884   18.3396   44.1381 H   0  0  0  0  0  0  0  0  0  0  0  0
    1.5977   16.7450   44.5734 H   0  0  0  0  0  0  0  0  0  0  0  0
    0.1734   15.1679   40.4853 H   0  0  0  0  0  0  0  0  0  0  0  0
   -0.9586   16.4662   39.8665 H   0  0  0  0  0  0  0  0  0  0  0  0
   -0.9317   15.4111   37.9804 H   0  0  0  0  0  0  0  0  0  0  0  0
    0.5932   14.4460   38.5276 H   0  0  0  0  0  0  0  0  0  0  0  0
   -0.0901   17.5922   42.2160 H   0  0  0  0  0  0  0  0  0  0  0  0
    1.1270   16.2425   42.2564 H   0  0  0  0  0  0  0  0  0  0  0  0
    0.3324   22.9399   33.1951 H   0  0  0  0  0  0  0  0  0  0  0  0
   -0.0518   24.5040   32.3998 H   0  0  0  0  0  0  0  0  0  0  0  0
    1.6352   23.8869   32.3998 H   0  0  0  0  0  0  0  0  0  0  0  0
    0.0928   24.3580   34.8577 H   0  0  0  0  0  0  0  0  0  0  0  0
    1.0992   18.1658   36.7248 H   0  0  0  0  0  0  0  0  0  0  0  0
   -0.3834   17.7763   37.6432 H   0  0  0  0  0  0  0  0  0  0  0  0
    1.6418   25.7589   33.0670 H   0  0  0  0  0  0  0  0  0  0  0  0
   -0.2604   17.9611   46.3897 H   0  0  0  0  0  0  0  0  0  0  0  0
    0.4573   19.4700   45.7303 H   0  0  0  0  0  0  0  0  0  0  0  0
   -1.3253   19.2486   45.7303 H   0  0  0  0  0  0  0  0  0  0  0  0
  2  7  1  0
  2 13  1  0
  3 23  1  0
  4  3  1  0
  5 25  1  0
  5 11  1  0
  6  4  2  0
  8  5  1  0
  8 11  1  0
  9 26  1  0
  9 22  1  0
 11  2  1  0
 12  7  1  0
 13 19  1  0
 14  6  1  0
 14  1  2  3
 15 10  2  0
 15 27  1  0
 17 28  1  0
 19 18  2  0
 19  1  1  0
 20 17  1  0
 21  4  1  0
 22 21  1  0
 23 20  1  0
 25 24  1  0
 26  6  1  0
 27 25  1  0
 27 16  1  0
  2 29  1  0
  5 30  1  0
  7 31  1  0
  7 32  1  0
  8 33  1  0
  8 34  1  0
  9 35  1  0
  9 36  1  0
 11 37  1  0
 12 38  1  0
 12 39  1  0
 12 40  1  0
 13 41  1  0
 15 42  1  0
 16 43  1  0
 17 44  1  0
 17 45  1  0
 20 46  1  0
 20 47  1  0
 21 48  1  0
 21 49  1  0
 22 50  1  0
 22 51  1  0
 23 52  1  0
 23 53  1  0
 24 54  1  0
 24 55  1  0
 24 56  1  0
 25 57  1  0
 26 58  1  0
 26 59  1  0
 27 60  1  0
 28 61  1  0
 28 62  1  0
 28 63  1  0
M  END
>  <mol_id>  (31) 
2026-09-18-6fnk-s0-n100-0031

>  <rmsd_to_ref>  (31) 


$$$$

     RDKit          3D

 62 63  0  0  0  0  0  0  0  0999 V2000
    0.5270   24.0400   35.1020 C   0  0  0  0  0  0  0  0  0  0  0  0
    0.8640   16.5230   39.7220 C   0  0  0  0  0  0  0  0  0  0  0  0
    0.3930   15.5350   40.6290 C   0  0  0  0  0  0  0  0  0  0  0  0
    0.7760   27.2130   33.1190 C   0  0  0  0  0  0  0  0  0  0  0  0
    0.3080   16.5850   38.4580 C   0  0  0  0  0  0  0  0  0  0  0  0
    4.5800   21.4220   41.0100 C   0  0  0  0  0  0  0  0  0  0  0  0
    2.8190   21.0500   38.0890 C   0  0  0  0  0  0  0  0  0  0  0  0
    1.7410   23.0390   35.1580 C   0  0  0  0  0  0  0  0  0  0  0  0
    0.2590   26.4350   34.4070 C   0  0  0  0  0  0  0  0  0  0  0  0
   -1.0040   13.5570   40.9600 C   0  0  0  0  0  0  0  0  0  0  0  0
    3.5130   20.3980   41.1560 C   0  0  0  0  0  0  0  0  0  0  0  0
    2.0770   20.9420   39.3300 C   0  0  0  0  0  0  0  0  0  0  0  0
    3.3730   23.8160   35.5190 Cl  0  0  0  0  0  0  0  0  0  0  0  0
    2.4540   18.5940   39.6910 N   0  0  0  0  0  4  0  0  0  0  0  0
    1.8560   17.5160   40.2800 C   0  0  0  0  0  0  0  0  0  0  0  0
    1.4730   22.0970   36.3300 C   0  0  0  0  0  0  0  0  0  0  0  0
    0.8640   25.1400   34.2590 C   0  0  0  0  0  0  0  0  0  0  0  0
    2.7160   19.9020   40.0600 C   0  0  0  0  0  0  0  0  0  0  0  0
   -0.7140   15.7500   38.1100 C   0  0  0  0  0  0  0  0  0  0  0  0
   -0.6570   14.6990   40.2440 C   0  0  0  0  0  0  0  0  0  0  0  0
    2.1990   25.2680   33.6450 C   0  0  0  0  0  0  0  0  0  0  0  0
    2.4160   22.4830   37.4880 C   0  0  0  0  0  0  0  0  0  0  0  0
   -1.0560   12.6970   41.7160 N   0  0  0  0  0  0  0  0  0  0  0  0
   -1.2500   14.8390   38.9620 C   0  0  0  0  0  0  0  0  0  0  0  0
    5.3310   21.6840   42.3630 C   0  0  0  0  0  0  0  0  0  0  0  0
    1.9470   26.3560   32.5860 C   0  0  0  0  0  0  0  0  0  0  0  0
   -0.3566   23.5242   34.6981 H   0  0  0  0  0  0  0  0  0  0  0  0
    0.3030   24.4060   36.1149 H   0  0  0  0  0  0  0  0  0  0  0  0
    0.8509   15.4302   41.6237 H   0  0  0  0  0  0  0  0  0  0  0  0
   -0.0222   27.2901   32.3661 H   0  0  0  0  0  0  0  0  0  0  0  0
    1.0861   28.2425   33.3514 H   0  0  0  0  0  0  0  0  0  0  0  0
    0.6919   17.3124   37.7275 H   0  0  0  0  0  0  0  0  0  0  0  0
    5.3071   21.0734   40.2618 H   0  0  0  0  0  0  0  0  0  0  0  0
    4.1069   22.3639   40.6956 H   0  0  0  0  0  0  0  0  0  0  0  0
    3.9012   21.0012   38.2800 H   0  0  0  0  0  0  0  0  0  0  0  0
    2.5847   20.2297   37.3945 H   0  0  0  0  0  0  0  0  0  0  0  0
    1.8064   22.5679   34.1661 H   0  0  0  0  0  0  0  0  0  0  0  0
    0.5977   26.9277   35.3303 H   0  0  0  0  0  0  0  0  0  0  0  0
   -0.8377   26.3979   34.4831 H   0  0  0  0  0  0  0  0  0  0  0  0
    4.0043   19.5152   41.5910 H   0  0  0  0  0  0  0  0  0  0  0  0
    2.7588   20.9611   41.7253 H   0  0  0  0  0  0  0  0  0  0  0  0
    2.1212   21.8884   39.8889 H   0  0  0  0  0  0  0  0  0  0  0  0
    1.0129   20.7256   39.1541 H   0  0  0  0  0  0  0  0  0  0  0  0
    1.9076   18.7095   38.8256 H   0  0  0  0  0  0  0  0  0  0  0  0
    3.4137   18.2637   39.8666 H   0  0  0  0  0  0  0  0  0  0  0  0
    1.3444   17.9405   41.1564 H   0  0  0  0  0  0  0  0  0  0  0  0
    2.7333   16.8524   40.2848 H   0  0  0  0  0  0  0  0  0  0  0  0
    0.4265   22.1952   36.6542 H   0  0  0  0  0  0  0  0  0  0  0  0
    1.6523   21.0549   36.0269 H   0  0  0  0  0  0  0  0  0  0  0  0
    0.2312   24.5865   33.5496 H   0  0  0  0  0  0  0  0  0  0  0  0
    3.5630   19.9302   39.3587 H   0  0  0  0  0  0  0  0  0  0  0  0
   -1.1227   15.8184   37.0910 H   0  0  0  0  0  0  0  0  0  0  0  0
    2.9505   25.5900   34.3809 H   0  0  0  0  0  0  0  0  0  0  0  0
    2.5963   24.3274   33.2358 H   0  0  0  0  0  0  0  0  0  0  0  0
    3.3000   23.0237   37.1191 H   0  0  0  0  0  0  0  0  0  0  0  0
    1.9567   23.1578   38.2253 H   0  0  0  0  0  0  0  0  0  0  0  0
   -2.1166   14.2286   38.6681 H   0  0  0  0  0  0  0  0  0  0  0  0
    4.6623   21.4507   43.2047 H   0  0  0  0  0  0  0  0  0  0  0  0
    6.2244   21.0444   42.4163 H   0  0  0  0  0  0  0  0  0  0  0  0
    5.6327   22.7405   42.4163 H   0  0  0  0  0  0  0  0  0  0  0  0
    1.6763   25.8964   31.6240 H   0  0  0  0  0  0  0  0  0  0  0  0
    2.8461   26.9666   32.4165 H   0  0  0  0  0  0  0  0  0  0  0  0
  1  8  1  0
  2 15  1  0
  2  3  2  0
  4  9  1  0
  5  2  1  0
  6 11  1  0
  6 25  1  0
  7 12  1  0
  8 13  1  0
  8 16  1  0
 10 23  3  0
 14 18  1  0
 14 15  1  0
 16 22  1  0
 17  9  1  0
 17  1  1  0
 18 12  1  0
 18 11  1  0
 19  5  2  0
 19 24  1  0
 20  3  1  0
 20 10  1  0
 21 17  1  0
 22  7  1  0
 24 20  2  0
 26  4  1  0
 26 21  1  0
  1 27  1  0
  1 28  1  0
  3 29  1  0
  4 30  1  0
  4 31  1  0
  5 32  1  0
  6 33  1  0
  6 34  1  0
  7 35  1  0
  7 36  1  0
  8 37  1  0
  9 38  1  0
  9 39  1  0
 11 40  1  0
 11 41  1  0
 12 42  1  0
 12 43  1  0
 14 44  1  0
 14 45  1  0
 15 46  1  0
 15 47  1  0
 16 48  1  0
 16 49  1  0
 17 50  1  0
 18 51  1  0
 19 52  1  0
 21 53  1  0
 21 54  1  0
 22 55  1  0
 22 56  1  0
 24 57  1  0
 25 58  1  0
 25 59  1  0
 25 60  1  0
 26 61  1  0
 26 62  1  0
M  CHG  1  14   1
M  END
>  <mol_id>  (32) 
2026-09-18-6fnk-s0-n100-0032

>  <rmsd_to_ref>  (32) 


$$$$

     RDKit          3D

 74 75  0  0  0  0  0  0  0  0999 V2000
    0.9190   23.3680   30.4650 C   0  0  0  0  0  0  0  0  0  0  0  0
    5.4630   21.1470   42.0220 C   0  0  0  0  0  0  0  0  0  0  0  0
    2.4030   22.2330   35.0090 C   0  0  0  0  0  0  0  0  0  0  0  0
    3.7740   23.3930   32.9770 O   0  0  0  0  0  0  0  0  0  0  0  0
    0.5090   13.4140   38.8470 C   0  0  0  0  0  0  0  0  0  0  0  0
    4.3190   20.7260   43.0140 C   0  0  0  0  0  0  0  0  0  0  0  0
    2.3990   20.9390   39.7560 C   0  0  0  0  0  0  0  0  0  0  0  0
    1.3450   13.7100   36.5490 N   0  0  0  0  0  4  0  0  0  0  0  0
    2.3370   23.4920   32.7750 C   0  0  0  0  0  0  0  0  0  0  0  0
   -0.8560   13.6010   40.6580 N   0  0  0  0  0  0  0  0  0  0  0  0
    1.8230   24.8550   32.2040 C   0  0  0  0  0  0  0  0  0  0  0  0
    0.7930   17.4170   38.3500 S   0  0  0  0  0  0  0  0  0  0  0  0
   -0.8100   11.2180   39.8280 C   0  0  0  0  0  0  0  0  0  0  0  0
    1.3210   12.7650   37.6970 C   0  0  0  0  0  0  0  0  0  0  0  0
    4.8330   21.0810   40.5830 C   0  0  0  0  0  0  0  0  0  0  0  0
    1.9280   18.3820   39.2520 C   0  0  0  0  0  0  0  0  0  0  0  0
    1.3270   15.8720   38.7860 C   0  0  0  0  0  0  0  0  0  0  0  0
    1.9600   22.4050   36.5000 C   0  0  0  0  0  0  0  0  0  0  0  0
    0.3840   14.7120   39.1750 N   0  0  0  0  0  0  0  0  0  0  0  0
   -0.3760   12.6290   39.6580 C   0  0  0  0  0  0  0  0  0  0  0  0
    1.5340   24.6400   30.7410 C   0  0  0  0  0  0  0  0  0  0  0  0
    2.2470   21.1590   37.2450 C   0  0  0  0  0  0  0  0  0  0  0  0
    3.0170   20.7360   42.2460 C   0  0  0  0  0  0  0  0  0  0  0  0
    0.6250   25.5820   32.9160 C   0  0  0  0  0  0  0  0  0  0  0  0
    3.0290   21.4050   38.4920 C   0  0  0  0  0  0  0  0  0  0  0  0
   -0.2820   14.8950   40.4260 O   0  0  0  0  0  0  0  0  0  0  0  0
    1.4010   19.7350   39.7490 C   0  0  0  0  0  0  0  0  0  0  0  0
    1.6060   23.0700   34.0650 C   0  0  0  0  0  0  0  0  0  0  0  0
    3.4110   20.7490   40.8050 N   0  0  0  0  0  0  0  0  0  0  0  0
    0.6758   22.8650   31.4126 H   0  0  0  0  0  0  0  0  0  0  0  0
   -0.0030   23.5245   29.8858 H   0  0  0  0  0  0  0  0  0  0  0  0
    1.6142   22.7426   29.8858 H   0  0  0  0  0  0  0  0  0  0  0  0
    5.8044   22.1690   42.2435 H   0  0  0  0  0  0  0  0  0  0  0  0
    6.3373   20.4854   42.1103 H   0  0  0  0  0  0  0  0  0  0  0  0
    3.4618   22.5183   34.9225 H   0  0  0  0  0  0  0  0  0  0  0  0
    2.2384   21.1803   34.7356 H   0  0  0  0  0  0  0  0  0  0  0  0
    3.9707   23.3794   33.9472 H   0  0  0  0  0  0  0  0  0  0  0  0
    4.5152   19.7169   43.4054 H   0  0  0  0  0  0  0  0  0  0  0  0
    4.2702   21.4231   43.8635 H   0  0  0  0  0  0  0  0  0  0  0  0
    1.7189   21.7796   39.9580 H   0  0  0  0  0  0  0  0  0  0  0  0
    1.3696   14.6776   36.9013 H   0  0  0  0  0  0  0  0  0  0  0  0
    2.1817   13.5321   35.9753 H   0  0  0  0  0  0  0  0  0  0  0  0
    0.5003   13.5748   35.9753 H   0  0  0  0  0  0  0  0  0  0  0  0
    2.0912   22.7898   31.9648 H   0  0  0  0  0  0  0  0  0  0  0  0
   -1.5138   13.3807   41.4193 H   0  0  0  0  0  0  0  0  0  0  0  0
    2.6346   25.5704   32.4026 H   0  0  0  0  0  0  0  0  0  0  0  0
   -0.8822   10.9832   40.9002 H   0  0  0  0  0  0  0  0  0  0  0  0
   -1.7930   11.0772   39.3548 H   0  0  0  0  0  0  0  0  0  0  0  0
   -0.0761   10.5491   39.3548 H   0  0  0  0  0  0  0  0  0  0  0  0
    0.8445   11.8217   37.3919 H   0  0  0  0  0  0  0  0  0  0  0  0
    2.3466   12.5508   38.0321 H   0  0  0  0  0  0  0  0  0  0  0  0
    5.3230   20.3012   39.9815 H   0  0  0  0  0  0  0  0  0  0  0  0
    4.9565   22.0258   40.0334 H   0  0  0  0  0  0  0  0  0  0  0  0
    2.2451   17.7994   40.1295 H   0  0  0  0  0  0  0  0  0  0  0  0
    2.7454   18.6157   38.5539 H   0  0  0  0  0  0  0  0  0  0  0  0
    1.9131   15.5061   37.9301 H   0  0  0  0  0  0  0  0  0  0  0  0
    1.8112   16.0817   39.7512 H   0  0  0  0  0  0  0  0  0  0  0  0
    2.5144   23.2398   36.9536 H   0  0  0  0  0  0  0  0  0  0  0  0
    0.8814   22.6172   36.5407 H   0  0  0  0  0  0  0  0  0  0  0  0
    2.4816   24.6980   30.1853 H   0  0  0  0  0  0  0  0  0  0  0  0
    0.8240   25.4205   30.4301 H   0  0  0  0  0  0  0  0  0  0  0  0
    1.2933   20.6821   37.5152 H   0  0  0  0  0  0  0  0  0  0  0  0
    2.8527   20.5123   36.5932 H   0  0  0  0  0  0  0  0  0  0  0  0
    2.4267   19.8368   42.4762 H   0  0  0  0  0  0  0  0  0  0  0  0
    2.3919   21.6022   42.5087 H   0  0  0  0  0  0  0  0  0  0  0  0
    0.7472   25.5079   34.0067 H   0  0  0  0  0  0  0  0  0  0  0  0
    0.6107   26.6413   32.6198 H   0  0  0  0  0  0  0  0  0  0  0  0
   -0.3212   25.1056   32.6198 H   0  0  0  0  0  0  0  0  0  0  0  0
    3.1947   22.4891   38.5776 H   0  0  0  0  0  0  0  0  0  0  0  0
    3.9526   20.8171   38.3852 H   0  0  0  0  0  0  0  0  0  0  0  0
    0.5522   20.0141   39.1073 H   0  0  0  0  0  0  0  0  0  0  0  0
    1.1547   19.5684   40.8080 H   0  0  0  0  0  0  0  0  0  0  0  0
    1.3011   23.9836   34.5964 H   0  0  0  0  0  0  0  0  0  0  0  0
    0.7619   22.4425   33.7430 H   0  0  0  0  0  0  0  0  0  0  0  0
  1 21  1  0
  2  6  1  0
  3 18  1  0
  5 19  1  0
  5 20  2  0
  7 25  1  0
  7 29  1  0
  8 14  1  0
  9  4  1  0
  9 28  1  0
 11  9  1  0
 11 24  1  0
 12 17  1  0
 12 16  1  0
 14  5  1  0
 15 29  1  0
 15  2  1  0
 16 27  1  0
 17 19  1  0
 18 22  1  0
 19 26  1  0
 20 13  1  0
 20 10  1  0
 21 11  1  0
 22 25  1  0
 23  6  1  0
 26 10  1  0
 27  7  1  0
 28  3  1  0
 29 23  1  0
  1 30  1  0
  1 31  1  0
  1 32  1  0
  2 33  1  0
  2 34  1  0
  3 35  1  0
  3 36  1  0
  4 37  1  0
  6 38  1  0
  6 39  1  0
  7 40  1  0
  8 41  1  0
  8 42  1  0
  8 43  1  0
  9 44  1  0
 10 45  1  0
 11 46  1  0
 13 47  1  0
 13 48  1  0
 13 49  1  0
 14 50  1  0
 14 51  1  0
 15 52  1  0
 15 53  1  0
 16 54  1  0
 16 55  1  0
 17 56  1  0
 17 57  1  0
 18 58  1  0
 18 59  1  0
 21 60  1  0
 21 61  1  0
 22 62  1  0
 22 63  1  0
 23 64  1  0
 23 65  1  0
 24 66  1  0
 24 67  1  0
 24 68  1  0
 25 69  1  0
 25 70  1  0
 27 71  1  0
 27 72  1  0
 28 73  1  0
 28 74  1  0
M  CHG  1   8   1
M  END
>  <mol_id>  (33) 
2026-09-18-6fnk-s0-n100-0033

>  <rmsd_to_ref>  (33) 


$$$$

     RDKit          3D

 60 63  0  0  0  0  0  0  0  0999 V2000
    3.9460   23.9570   34.5820 C   0  0  0  0  0  0  0  0  0  0  0  0
   -1.7060   12.7700   40.4850 O   0  0  0  0  0  0  0  0  0  0  0  0
   -1.1780   14.8300   41.5020 C   0  0  0  0  0  0  0  0  0  0  0  0
    1.8900   18.2020   38.2620 C   0  0  0  0  0  0  0  0  0  0  0  0
    3.2610   23.1310   36.0060 S   0  0  0  0  0  4  0  0  0  0  0  0
    4.8460   25.1230   32.7060 C   0  0  0  0  0  0  0  0  0  0  0  0
   -1.7440   14.6470   43.7470 O   0  0  0  0  0  1  0  0  0  0  0  0
    0.3210   16.5940   40.2260 C   0  0  0  0  0  0  0  0  0  0  0  0
   -2.3030   12.9510   42.7610 O   0  0  0  0  0  0  0  0  0  0  0  0
    4.3010   21.9900   38.3670 C   0  0  0  0  0  0  0  0  0  0  0  0
    4.0830   21.1270   39.5460 C   0  0  0  0  0  0  0  0  0  0  0  0
    5.1530   21.4830   40.8720 Cl  0  0  0  0  0  0  0  0  0  0  0  0
    3.1450   19.9840   39.5600 C   0  0  0  0  0  0  0  0  0  0  0  0
    5.2330   25.7590   33.7690 C   0  0  0  0  0  0  0  0  0  0  0  0
   -1.8010   14.2080   42.7210 C   0  0  0  0  0  0  0  0  0  0  0  0
    4.8770   24.9530   35.0620 C   0  0  0  0  0  0  0  0  0  0  0  0
    3.3430   25.5460   32.3370 C   0  0  0  0  0  0  0  0  0  0  0  0
   -0.8790   14.7120   39.0420 C   0  0  0  0  0  0  0  0  0  0  0  0
   -1.1580   14.0960   40.4120 C   0  0  0  0  0  0  0  0  0  0  0  0
    1.4090   17.4600   39.2950 C   0  0  0  0  0  0  0  0  0  0  0  0
    1.6620   22.8200   35.1950 C   0  0  0  0  0  0  0  0  0  0  0  0
    3.1670   21.8600   37.3670 C   0  0  0  0  0  0  0  0  0  0  0  0
   -0.2810   16.0580   41.5340 C   0  0  0  0  0  0  0  0  0  0  0  0
   -0.2820   15.8030   39.0900 N   0  0  0  0  0  4  0  0  0  0  0  0
    2.7910   20.3650   37.0400 C   0  0  0  0  0  0  0  0  0  0  0  0
    3.2740   24.2980   33.0570 C   0  0  0  0  0  0  0  0  0  0  0  0
    3.1150   26.9220   31.4120 C   0  0  0  0  0  0  0  0  0  0  0  0
    2.5800   19.5070   38.3010 C   0  0  0  0  0  0  0  0  0  0  0  0
    4.2404   23.0281   34.0717 H   0  0  0  0  0  0  0  0  0  0  0  0
   -1.8138   12.5092   41.4339 H   0  0  0  0  0  0  0  0  0  0  0  0
   -2.0100   15.5494   41.4917 H   0  0  0  0  0  0  0  0  0  0  0  0
    1.7453   17.7712   37.2603 H   0  0  0  0  0  0  0  0  0  0  0  0
    4.1451   23.7626   36.8405 H   0  0  0  0  0  0  0  0  0  0  0  0
    5.8075   24.9330   32.2065 H   0  0  0  0  0  0  0  0  0  0  0  0
    4.3681   23.0370   38.6976 H   0  0  0  0  0  0  0  0  0  0  0  0
    5.2332   21.6748   37.8755 H   0  0  0  0  0  0  0  0  0  0  0  0
    3.2760   21.7934   39.8846 H   0  0  0  0  0  0  0  0  0  0  0  0
    2.8756   19.4980   40.5093 H   0  0  0  0  0  0  0  0  0  0  0  0
    6.3223   25.9057   33.7244 H   0  0  0  0  0  0  0  0  0  0  0  0
    4.7160   26.7293   33.8060 H   0  0  0  0  0  0  0  0  0  0  0  0
    4.4069   25.6024   35.8151 H   0  0  0  0  0  0  0  0  0  0  0  0
    5.7581   24.5183   35.5566 H   0  0  0  0  0  0  0  0  0  0  0  0
    3.3971   24.9392   31.4211 H   0  0  0  0  0  0  0  0  0  0  0  0
   -1.8401   14.8658   38.5296 H   0  0  0  0  0  0  0  0  0  0  0  0
   -0.2208   14.0122   38.5062 H   0  0  0  0  0  0  0  0  0  0  0  0
   -0.0787   13.9009   40.4953 H   0  0  0  0  0  0  0  0  0  0  0  0
    0.8861   22.6691   35.9600 H   0  0  0  0  0  0  0  0  0  0  0  0
    1.3952   23.6831   34.5674 H   0  0  0  0  0  0  0  0  0  0  0  0
    1.7381   21.9198   34.5674 H   0  0  0  0  0  0  0  0  0  0  0  0
    2.2214   22.1667   37.8380 H   0  0  0  0  0  0  0  0  0  0  0  0
   -0.8739   16.8751   41.9709 H   0  0  0  0  0  0  0  0  0  0  0  0
    0.5984   15.7187   42.1011 H   0  0  0  0  0  0  0  0  0  0  0  0
    0.5108   15.6689   38.4463 H   0  0  0  0  0  0  0  0  0  0  0  0
   -1.1210   16.3907   38.9819 H   0  0  0  0  0  0  0  0  0  0  0  0
    1.8614   20.3581   36.4520 H   0  0  0  0  0  0  0  0  0  0  0  0
    3.6332   19.9287   36.4828 H   0  0  0  0  0  0  0  0  0  0  0  0
    2.4434   23.5884   32.9282 H   0  0  0  0  0  0  0  0  0  0  0  0
    2.9713   27.7889   32.0736 H   0  0  0  0  0  0  0  0  0  0  0  0
    3.9980   27.0875   30.7772 H   0  0  0  0  0  0  0  0  0  0  0  0
    2.2258   26.7939   30.7772 H   0  0  0  0  0  0  0  0  0  0  0  0
  1 16  1  0
  1  5  1  0
  3 23  1  0
  3 15  1  0
  4 28  1  0
  4 20  2  0
  5 21  1  0
  6 26  1  0
  6 14  1  0
  8 23  1  0
 10 11  1  0
 11 13  1  0
 11 12  1  0
 14 16  1  0
 15  9  2  0
 15  7  1  0
 17 27  1  0
 17  6  1  0
 17 26  1  0
 18 24  1  0
 18 19  1  0
 19  2  1  0
 19  3  1  0
 20  8  2  0
 22  5  1  0
 22 10  1  0
 24  8  1  0
 25 22  1  0
 25 28  1  0
 26  1  1  0
 28 13  2  0
  1 29  1  0
  2 30  1  0
  3 31  1  0
  4 32  1  0
  5 33  1  0
  6 34  1  0
 10 35  1  0
 10 36  1  0
 11 37  1  0
 13 38  1  0
 14 39  1  0
 14 40  1  0
 16 41  1  0
 16 42  1  0
 17 43  1  0
 18 44  1  0
 18 45  1  0
 19 46  1  0
 21 47  1  0
 21 48  1  0
 21 49  1  0
 22 50  1  0
 23 51  1  0
 23 52  1  0
 24 53  1  0
 24 54  1  0
 25 55  1  0
 25 56  1  0
 26 57  1  0
 27 58  1  0
 27 59  1  0
 27 60  1  0
M  CHG  2   7  -1  24   1
M  END
>  <mol_id>  (34) 
2026-09-18-6fnk-s0-n100-0034

>  <rmsd_to_ref>  (34) 


$$$$

     RDKit          3D

 63 62  0  0  0  0  0  0  0  0999 V2000
    2.8760   20.2340   38.6920 N   0  0  0  0  0  0  0  0  0  0  0  0
    0.8690   26.9040   33.3690 C   0  0  0  0  0  0  0  0  0  0  0  0
    2.2960   23.3800   34.6020 C   0  0  0  0  0  0  0  0  0  0  0  0
   -1.2910   15.0830   40.5300 O   0  0  0  0  0  1  0  0  0  0  0  0
    2.3010   19.0230   38.3090 C   0  0  0  0  0  0  0  0  0  0  0  0
   -0.3390   15.9520   38.4680 C   0  0  0  0  0  0  0  0  0  0  0  0
    2.1680   16.7210   38.3790 O   0  0  0  0  0  0  0  0  0  0  0  0
    1.9210   25.0070   32.4190 S   0  0  0  0  0  0  0  0  0  0  0  0
    3.7710   21.9030   37.3090 C   0  0  0  0  0  0  0  0  0  0  0  0
    0.8820   25.6550   33.9600 C   0  0  0  0  0  0  0  0  0  0  0  0
    1.9560   23.1820   36.0080 C   0  0  0  0  0  0  0  0  0  0  0  0
    2.5970   21.7720   36.4050 C   0  0  0  0  0  0  0  0  0  0  0  0
   -2.6250   15.5910   38.8950 O   0  0  0  0  0  0  0  0  0  0  0  0
   -1.4130   15.4880   39.3640 C   0  0  0  0  0  0  0  0  0  0  0  0
    4.3180   20.2460   43.2890 C   0  0  0  0  0  0  0  0  0  0  0  0
   -0.9450   16.8410   37.5100 N   0  0  0  0  0  4  0  0  0  0  0  0
    0.1160   27.4560   34.1040 C   0  0  0  0  0  0  0  0  0  0  0  0
    4.2480   20.9190   42.1690 C   0  0  0  0  0  0  0  0  0  0  0  0
    0.8790   25.6490   35.2140 F   0  0  0  0  0  0  0  0  0  0  0  0
    3.5700   20.2380   41.1980 C   0  0  0  0  0  0  0  0  0  0  0  0
    1.5310   26.7870   31.9990 C   0  0  0  0  0  0  0  0  0  0  0  0
    0.6760   27.9330   35.2120 C   0  0  0  0  0  0  0  0  0  0  0  0
    3.4300   20.7480   39.7590 C   0  0  0  0  0  0  0  0  0  0  0  0
    3.1390   19.0600   41.8150 C   0  0  0  0  0  0  0  0  0  0  0  0
    2.1430   17.9050   39.2560 C   0  0  0  0  0  0  0  0  0  0  0  0
    3.6430   19.0580   43.0550 C   0  0  0  0  0  0  0  0  0  0  0  0
    2.4760   21.3420   37.6760 C   0  0  0  0  0  0  0  0  0  0  0  0
    1.8820   18.9030   37.1260 O   0  0  0  0  0  0  0  0  0  0  0  0
    1.2368   27.9002   33.0823 H   0  0  0  0  0  0  0  0  0  0  0  0
    3.2444   23.9323   34.5284 H   0  0  0  0  0  0  0  0  0  0  0  0
    2.4018   22.4023   34.1092 H   0  0  0  0  0  0  0  0  0  0  0  0
    1.4979   23.9546   34.1092 H   0  0  0  0  0  0  0  0  0  0  0  0
    0.4302   16.4860   39.0452 H   0  0  0  0  0  0  0  0  0  0  0  0
    0.1461   15.1031   37.9640 H   0  0  0  0  0  0  0  0  0  0  0  0
    2.1853   15.9005   38.9327 H   0  0  0  0  0  0  0  0  0  0  0  0
    1.9542   24.8557   33.7802 H   0  0  0  0  0  0  0  0  0  0  0  0
    4.0872   22.8872   37.6851 H   0  0  0  0  0  0  0  0  0  0  0  0
    4.8235   21.5835   37.3197 H   0  0  0  0  0  0  0  0  0  0  0  0
   -0.0091   25.1089   33.6168 H   0  0  0  0  0  0  0  0  0  0  0  0
    1.8321   25.1895   33.6591 H   0  0  0  0  0  0  0  0  0  0  0  0
    2.3837   23.9865   36.6244 H   0  0  0  0  0  0  0  0  0  0  0  0
    0.8684   23.1978   36.1722 H   0  0  0  0  0  0  0  0  0  0  0  0
    2.3761   21.2905   35.4410 H   0  0  0  0  0  0  0  0  0  0  0  0
    4.8101   20.5580   44.2220 H   0  0  0  0  0  0  0  0  0  0  0  0
   -1.4532   17.5865   38.0069 H   0  0  0  0  0  0  0  0  0  0  0  0
   -0.2127   17.2598   36.9191 H   0  0  0  0  0  0  0  0  0  0  0  0
   -1.6025   16.3124   36.9191 H   0  0  0  0  0  0  0  0  0  0  0  0
   -0.3403   28.2965   33.5605 H   0  0  0  0  0  0  0  0  0  0  0  0
   -0.6176   26.7015   34.4244 H   0  0  0  0  0  0  0  0  0  0  0  0
    4.6849   21.9183   42.0258 H   0  0  0  0  0  0  0  0  0  0  0  0
    0.8467   26.9169   31.1476 H   0  0  0  0  0  0  0  0  0  0  0  0
    2.3152   27.4878   31.6766 H   0  0  0  0  0  0  0  0  0  0  0  0
    0.1726   27.5043   36.0911 H   0  0  0  0  0  0  0  0  0  0  0  0
    1.7417   27.6609   35.2307 H   0  0  0  0  0  0  0  0  0  0  0  0
    0.5769   29.0284   35.2307 H   0  0  0  0  0  0  0  0  0  0  0  0
    4.4699   20.9259   39.4476 H   0  0  0  0  0  0  0  0  0  0  0  0
    2.6352   21.4794   39.9671 H   0  0  0  0  0  0  0  0  0  0  0  0
    2.5050   18.2813   41.3660 H   0  0  0  0  0  0  0  0  0  0  0  0
    2.9718   17.8791   39.9788 H   0  0  0  0  0  0  0  0  0  0  0  0
    1.2275   17.9763   39.8617 H   0  0  0  0  0  0  0  0  0  0  0  0
    2.8241   18.9539   43.7820 H   0  0  0  0  0  0  0  0  0  0  0  0
    4.3423   18.2156   43.1617 H   0  0  0  0  0  0  0  0  0  0  0  0
    1.4687   21.3488   38.1180 H   0  0  0  0  0  0  0  0  0  0  0  0
  1 23  1  0
  2 21  1  0
  2 10  1  0
  2 17  1  0
  3 11  1  0
  5  1  1  0
  5 25  1  0
  6 14  1  0
  7 25  1  0
  9 27  1  0
 10 19  1  0
 12 11  1  0
 12  9  1  0
 12 27  1  0
 13 14  2  0
 14  4  1  0
 16  6  1  0
 17 22  1  0
 18 15  2  0
 20 24  2  0
 20 18  1  0
 21  8  1  0
 23 20  1  0
 24 26  1  0
 26 15  1  0
 27  1  1  0
 28  5  2  0
  2 29  1  0
  3 30  1  0
  3 31  1  0
  3 32  1  0
  6 33  1  0
  6 34  1  0
  7 35  1  0
  8 36  1  0
  9 37  1  0
  9 38  1  0
 10 39  1  0
 10 40  1  0
 11 41  1  0
 11 42  1  0
 12 43  1  0
 15 44  1  0
 16 45  1  0
 16 46  1  0
 16 47  1  0
 17 48  1  0
 17 49  1  0
 18 50  1  0
 21 51  1  0
 21 52  1  0
 22 53  1  0
 22 54  1  0
 22 55  1  0
 23 56  1  0
 23 57  1  0
 24 58  1  0
 25 59  1  0
 25 60  1  0
 26 61  1  0
 26 62  1  0
 27 63  1  0
M  CHG  2   4  -1  16   1
M  END
>  <mol_id>  (35) 
2026-09-18-6fnk-s0-n100-0035

>  <rmsd_to_ref>  (35) 


$$$$

     RDKit          3D

 48 48  0  0  0  0  0  0  0  0999 V2000
    5.7190   21.9730   41.6780 O   0  0  0  0  0  1  0  0  0  0  0  0
    1.6880   19.9420   40.0790 C   0  0  0  0  0  0  0  0  0  0  0  0
    4.7430   20.3780   42.8520 O   0  0  0  0  0  0  0  0  0  0  0  0
    1.7780   23.6550   34.1690 C   0  0  0  0  0  0  0  0  0  0  0  0
    3.0040   21.9140   37.2610 N   0  0  0  0  0  0  0  0  0  0  0  0
    3.7390   20.9270   40.7850 C   0  0  0  0  0  0  0  0  0  0  0  0
   -1.7230   16.1400   38.1930 N   0  0  0  0  0  4  0  0  0  0  0  0
    2.6070   20.1480   41.0830 C   0  0  0  0  0  0  0  0  0  0  0  0
    0.2180   14.8150   40.1060 P   0  0  0  0  0  5  0  0  0  0  0  0
    2.2570   22.4050   36.1950 C   0  0  0  0  0  0  0  0  0  0  0  0
    0.5120   16.2260   39.1520 C   0  0  0  0  0  0  0  0  0  0  0  0
    0.9250   25.3760   32.7600 N   0  0  0  0  0  0  0  0  0  0  0  0
    1.2340   14.7700   41.2000 O   0  0  0  0  0  0  0  0  0  0  0  0
   -1.1720   14.8240   40.4940 O   0  0  0  0  0  0  0  0  0  0  0  0
    2.7500   24.0890   31.9830 N   0  0  0  0  0  0  0  0  0  0  0  0
    1.0750   22.9420   36.2380 C   0  0  0  0  0  0  0  0  0  0  0  0
    0.7360   23.6670   35.1120 C   0  0  0  0  0  0  0  0  0  0  0  0
    4.7500   21.0890   41.8320 N   0  0  0  0  0  4  0  0  0  0  0  0
    0.5830   13.6000   39.1970 O   0  0  0  0  0  0  0  0  0  0  0  0
    1.8910   24.3830   32.9610 C   0  0  0  0  0  0  0  0  0  0  0  0
    1.8060   20.5500   38.7900 C   0  0  0  0  0  0  0  0  0  0  0  0
    2.8940   21.3880   38.5450 C   0  0  0  0  0  0  0  0  0  0  0  0
   -0.2870   16.1810   37.9160 C   0  0  0  0  0  0  0  0  0  0  0  0
    3.8690   21.5850   39.5590 C   0  0  0  0  0  0  0  0  0  0  0  0
    2.8910   22.5100   34.6060 S   0  0  0  0  0  0  0  0  0  0  0  0
    0.8290   19.2837   40.2760 H   0  0  0  0  0  0  0  0  0  0  0  0
    1.1893   22.8845   33.6496 H   0  0  0  0  0  0  0  0  0  0  0  0
    4.0016   21.9544   37.0080 H   0  0  0  0  0  0  0  0  0  0  0  0
   -1.8762   16.1356   39.2115 H   0  0  0  0  0  0  0  0  0  0  0  0
   -2.1759   16.9684   37.7812 H   0  0  0  0  0  0  0  0  0  0  0  0
   -2.1279   15.2871   37.7812 H   0  0  0  0  0  0  0  0  0  0  0  0
    2.4607   19.7177   42.0847 H   0  0  0  0  0  0  0  0  0  0  0  0
    2.7126   23.3967   36.3326 H   0  0  0  0  0  0  0  0  0  0  0  0
    0.2357   17.1197   39.7307 H   0  0  0  0  0  0  0  0  0  0  0  0
    1.5791   16.2641   38.8878 H   0  0  0  0  0  0  0  0  0  0  0  0
    0.9438   25.9468   31.9029 H   0  0  0  0  0  0  0  0  0  0  0  0
    0.1954   25.5358   33.4692 H   0  0  0  0  0  0  0  0  0  0  0  0
    0.7755   14.7903   42.0772 H   0  0  0  0  0  0  0  0  0  0  0  0
   -1.2389   14.8244   41.4817 H   0  0  0  0  0  0  0  0  0  0  0  0
    2.7758   24.6653   31.1297 H   0  0  0  0  0  0  0  0  0  0  0  0
    0.3359   22.1371   36.3643 H   0  0  0  0  0  0  0  0  0  0  0  0
    1.0834   23.6523   37.0778 H   0  0  0  0  0  0  0  0  0  0  0  0
    0.5276   24.7069   35.4037 H   0  0  0  0  0  0  0  0  0  0  0  0
   -0.1531   23.2075   34.6556 H   0  0  0  0  0  0  0  0  0  0  0  0
    1.0551   20.3610   38.0087 H   0  0  0  0  0  0  0  0  0  0  0  0
   -0.0094   15.2820   37.3462 H   0  0  0  0  0  0  0  0  0  0  0  0
   -0.0775   17.0960   37.3425 H   0  0  0  0  0  0  0  0  0  0  0  0
    4.7239   22.2536   39.3797 H   0  0  0  0  0  0  0  0  0  0  0  0
  1 18  1  0
  2  8  2  0
  4 20  1  0
  4 25  1  0
  4 17  1  0
  5 22  1  0
  6  8  1  0
  6 18  1  0
  9 14  1  0
  9 13  1  0
 10 16  1  0
 10  5  1  0
 11  9  1  0
 12 20  1  0
 15 20  2  3
 17 16  1  0
 18  3  2  0
 19  9  2  0
 21  2  1  0
 22 21  2  0
 22 24  1  0
 23  7  1  0
 23 11  1  0
 24  6  2  0
 25 10  1  0
  2 26  1  0
  4 27  1  0
  5 28  1  0
  7 29  1  0
  7 30  1  0
  7 31  1  0
  8 32  1  0
 10 33  1  0
 11 34  1  0
 11 35  1  0
 12 36  1  0
 12 37  1  0
 13 38  1  0
 14 39  1  0
 15 40  1  0
 16 41  1  0
 16 42  1  0
 17 43  1  0
 17 44  1  0
 21 45  1  0
 23 46  1  0
 23 47  1  0
 24 48  1  0
M  CHG  3   1  -1   7   1  18   1
M  END
>  <mol_id>  (36) 
2026-09-18-6fnk-s0-n100-0036

>  <rmsd_to_ref>  (36) 


$$$$

     RDKit          3D

 75 78  0  0  0  0  0  0  0  0999 V2000
    1.7100   23.0410   36.5560 C   0  0  0  0  0  0  0  0  0  0  0  0
   -3.6840   16.0970   36.7880 C   0  0  0  0  0  0  0  0  0  0  0  0
   -1.0720   24.5330   35.0650 O   0  0  0  0  0  0  0  0  0  0  0  0
    0.3650   22.3070   36.5180 C   0  0  0  0  0  0  0  0  0  0  0  0
    0.8790   14.5250   34.1070 F   0  0  0  0  0  0  0  0  0  0  0  0
   -1.4790   16.2340   34.7200 F   0  0  0  0  0  0  0  0  0  0  0  0
    2.8620   24.9460   33.3340 C   0  0  0  0  0  0  0  0  0  0  0  0
    0.3480   22.2280   35.0670 C   0  0  0  0  0  0  0  0  0  0  0  0
    2.8430   22.0320   36.7620 C   0  0  0  0  0  0  0  0  0  0  0  0
    0.5020   17.0560   43.3690 C   0  0  0  0  0  0  0  0  0  0  0  0
    2.6790   21.2530   38.8530 O   0  0  0  0  0  1  0  0  0  0  0  0
    1.4480   17.9720   41.3150 N   0  0  0  0  0  0  0  0  0  0  0  0
    2.4300   16.8490   38.0430 C   0  0  0  0  0  0  0  0  0  0  0  0
    2.1650   17.5510   39.3200 C   0  0  0  0  0  0  0  0  0  0  0  0
    2.3840   18.8410   39.5040 N   0  0  0  0  0  0  0  0  0  0  0  0
    0.5840   15.0120   35.2420 C   0  0  0  0  0  0  0  0  0  0  0  0
    1.9770   25.8010   32.7700 C   0  0  0  0  0  0  0  0  0  0  0  0
    0.2260   24.4560   34.8560 C   0  0  0  0  0  0  0  0  0  0  0  0
    1.3580   23.3370   35.0960 C   0  0  0  0  0  0  0  0  0  0  0  0
    1.3430   16.4970   37.0920 C   0  0  0  0  0  0  0  0  0  0  0  0
    4.2230   24.0260   35.0680 O   0  0  0  0  0  0  0  0  0  0  0  0
    0.7960   26.6220   33.3300 C   0  0  0  0  0  0  0  0  0  0  0  0
    0.8330   19.6150   42.7780 C   0  0  0  0  0  0  0  0  0  0  0  0
    2.7900   20.8990   37.6950 C   0  0  0  0  0  0  0  0  0  0  0  0
    0.8890   18.1960   42.5490 C   0  0  0  0  0  0  0  0  0  0  0  0
    1.7570   16.8720   40.4370 N   0  0  0  0  0  0  0  0  0  0  0  0
    2.8480   19.6500   37.0830 O   0  0  0  0  0  0  0  0  0  0  0  0
    2.8720   24.3420   34.7790 S   0  0  0  0  0  4  0  0  0  0  0  0
    1.6810   15.4300   36.0320 C   0  0  0  0  0  0  0  0  0  0  0  0
   -1.0810   15.3820   36.9590 C   0  0  0  0  0  0  0  0  0  0  0  0
    1.3750   20.2690   41.6390 C   0  0  0  0  0  0  0  0  0  0  0  0
    1.1090   27.8460   34.0560 C   0  0  0  0  0  0  0  0  0  0  0  0
   -0.4840   26.4710   32.5370 C   0  0  0  0  0  0  0  0  0  0  0  0
   -0.0610   16.3400   37.6980 C   0  0  0  0  0  0  0  0  0  0  0  0
    0.5770   25.5070   34.3530 O   0  0  0  0  0  0  0  0  0  0  0  0
    1.8500   19.2140   40.7400 C   0  0  0  0  0  0  0  0  0  0  0  0
    0.2390   20.3420   43.9900 C   0  0  0  0  0  0  0  0  0  0  0  0
   -0.7270   15.3200   35.5370 C   0  0  0  0  0  0  0  0  0  0  0  0
   -2.6640   14.8300   36.8490 S   0  0  0  0  0  0  0  0  0  0  0  0
    2.0165   23.8287   37.2599 H   0  0  0  0  0  0  0  0  0  0  0  0
   -3.9381   16.4127   37.8106 H   0  0  0  0  0  0  0  0  0  0  0  0
   -3.2020   16.9305   36.2561 H   0  0  0  0  0  0  0  0  0  0  0  0
   -4.6012   15.8041   36.2561 H   0  0  0  0  0  0  0  0  0  0  0  0
    0.3928   21.3221   37.0071 H   0  0  0  0  0  0  0  0  0  0  0  0
   -0.4962   22.7620   37.0292 H   0  0  0  0  0  0  0  0  0  0  0  0
    3.6923   24.6305   32.6851 H   0  0  0  0  0  0  0  0  0  0  0  0
    0.7137   21.2782   34.6498 H   0  0  0  0  0  0  0  0  0  0  0  0
   -0.5822   22.2919   34.4833 H   0  0  0  0  0  0  0  0  0  0  0  0
    3.0294   21.5908   35.7717 H   0  0  0  0  0  0  0  0  0  0  0  0
    3.5931   22.6670   37.2560 H   0  0  0  0  0  0  0  0  0  0  0  0
    0.5923   17.3219   44.4326 H   0  0  0  0  0  0  0  0  0  0  0  0
   -0.5397   16.7813   43.1468 H   0  0  0  0  0  0  0  0  0  0  0  0
    1.1612   16.2039   43.1468 H   0  0  0  0  0  0  0  0  0  0  0  0
    3.1332   17.4838   37.4840 H   0  0  0  0  0  0  0  0  0  0  0  0
    2.7594   15.8587   38.3905 H   0  0  0  0  0  0  0  0  0  0  0  0
    0.2570   14.2307   35.9439 H   0  0  0  0  0  0  0  0  0  0  0  0
    2.1313   25.9392   31.6897 H   0  0  0  0  0  0  0  0  0  0  0  0
    1.2808   17.4299   36.5125 H   0  0  0  0  0  0  0  0  0  0  0  0
    1.6897   15.8577   40.6032 H   0  0  0  0  0  0  0  0  0  0  0  0
    2.0854   14.5482   36.5505 H   0  0  0  0  0  0  0  0  0  0  0  0
    2.4008   15.8949   35.3423 H   0  0  0  0  0  0  0  0  0  0  0  0
   -0.9806   14.9639   37.9715 H   0  0  0  0  0  0  0  0  0  0  0  0
    1.4277   21.3541   41.4661 H   0  0  0  0  0  0  0  0  0  0  0  0
    1.0597   27.6534   35.1379 H   0  0  0  0  0  0  0  0  0  0  0  0
    2.1219   28.1818   33.7891 H   0  0  0  0  0  0  0  0  0  0  0  0
    0.3816   28.6268   33.7891 H   0  0  0  0  0  0  0  0  0  0  0  0
   -1.3339   26.3707   33.2282 H   0  0  0  0  0  0  0  0  0  0  0  0
   -0.6295   27.3582   31.9032 H   0  0  0  0  0  0  0  0  0  0  0  0
   -0.4191   25.5743   31.9032 H   0  0  0  0  0  0  0  0  0  0  0  0
    0.0645   15.9583   38.7220 H   0  0  0  0  0  0  0  0  0  0  0  0
   -0.5114   17.3402   37.6160 H   0  0  0  0  0  0  0  0  0  0  0  0
    0.6157   19.8810   44.9150 H   0  0  0  0  0  0  0  0  0  0  0  0
    0.5331   21.4016   43.9623 H   0  0  0  0  0  0  0  0  0  0  0  0
   -0.8580   20.2651   43.9623 H   0  0  0  0  0  0  0  0  0  0  0  0
   -1.1176   14.3694   35.1448 H   0  0  0  0  0  0  0  0  0  0  0  0
  1  9  1  0
  2 39  1  0
  4  1  1  0
  7 28  1  0
  8  4  1  0
  9 24  1  0
 12 25  1  0
 13 14  1  0
 14 15  2  0
 14 26  1  0
 15 36  1  0
 16  5  1  0
 16 38  1  0
 16 29  1  0
 17 22  1  0
 17  7  2  0
 18  3  2  0
 18 19  1  0
 19  8  1  0
 19  1  1  0
 20 34  1  0
 20 13  1  0
 22 32  1  0
 22 35  1  0
 23 37  1  0
 24 11  1  0
 25 23  2  0
 25 10  1  0
 26 12  1  0
 27 24  2  0
 28 21  2  0
 28 19  1  0
 29 20  1  0
 30 39  1  0
 30 34  1  0
 31 23  1  0
 33 22  1  0
 35 18  1  0
 36 12  1  0
 36 31  2  0
 38  6  1  0
 38 30  1  0
  1 40  1  0
  2 41  1  0
  2 42  1  0
  2 43  1  0
  4 44  1  0
  4 45  1  0
  7 46  1  0
  8 47  1  0
  8 48  1  0
  9 49  1  0
  9 50  1  0
 10 51  1  0
 10 52  1  0
 10 53  1  0
 13 54  1  0
 13 55  1  0
 16 56  1  0
 17 57  1  0
 20 58  1  0
 26 59  1  0
 29 60  1  0
 29 61  1  0
 30 62  1  0
 31 63  1  0
 32 64  1  0
 32 65  1  0
 32 66  1  0
 33 67  1  0
 33 68  1  0
 33 69  1  0
 34 70  1  0
 34 71  1  0
 37 72  1  0
 37 73  1  0
 37 74  1  0
 38 75  1  0
M  CHG  1  11  -1
M  END
>  <mol_id>  (37) 
2026-09-18-6fnk-s0-n100-0037

>  <rmsd_to_ref>  (37) 


$$$$

     RDKit          3D

 66 66  0  0  0  0  0  0  0  0999 V2000
   -0.9690   12.1140   41.6320 C   0  0  0  0  0  0  0  0  0  0  0  0
   -0.5810   13.3030   39.4530 C   0  0  0  0  0  0  0  0  0  0  0  0
    0.9920   27.0780   33.9630 C   0  0  0  0  0  0  0  0  0  0  0  0
    3.1820   22.8480   37.7120 C   0  0  0  0  0  0  0  0  0  0  0  0
    5.9770   21.7810   39.0500 C   0  0  0  0  0  0  0  0  0  0  0  0
   -0.8600   13.4300   42.3280 C   0  0  0  0  0  0  0  0  0  0  0  0
    0.1310   27.1740   31.8500 C   0  0  0  0  0  0  0  0  0  0  0  0
    3.2960   21.1150   40.0100 C   0  0  0  0  0  0  0  0  0  0  0  0
    2.9360   21.2710   37.4820 C   0  0  0  0  0  0  0  0  0  0  0  0
    2.7340   20.4170   38.7510 C   0  0  0  0  0  0  0  0  0  0  0  0
    0.6760   25.8770   34.6340 C   0  0  0  0  0  0  0  0  0  0  0  0
    2.1740   19.0650   38.7960 C   0  0  0  0  0  0  0  0  0  0  0  0
    3.0800   25.0540   35.2980 C   0  0  0  0  0  0  0  0  0  0  0  0
   -0.7560   12.0310   40.2230 C   0  0  0  0  0  0  0  0  0  0  0  0
    5.1260   22.0170   41.2600 C   0  0  0  0  0  0  0  0  0  0  0  0
    4.8400   21.2550   39.9550 C   0  0  0  0  0  0  0  0  0  0  0  0
    3.2640   25.2430   33.6510 C   0  0  0  0  0  0  0  0  0  0  0  0
   -0.1540   15.8350   39.1650 C   0  0  0  0  0  0  0  0  0  0  0  0
   -1.0990   13.3810   43.8050 N   0  0  0  0  0  0  0  0  0  0  0  0
    0.1670   27.5610   30.4400 C   0  0  0  0  0  0  0  0  0  0  0  0
   -0.5460   14.6040   41.5570 C   0  0  0  0  0  0  0  0  0  0  0  0
    2.5520   25.9190   32.4310 C   0  0  0  0  0  0  0  0  0  0  0  0
    1.6090   25.2290   35.6310 C   0  0  0  0  0  0  0  0  0  0  0  0
    0.9060   17.0210   40.0550 C   0  0  0  0  0  0  0  0  0  0  0  0
    1.3410   26.8400   32.4100 N   0  0  0  0  0  0  0  0  0  0  0  0
    1.4920   18.0040   38.9640 C   0  0  0  0  0  0  0  0  0  0  0  0
   -0.6430   16.0290   38.0930 O   0  0  0  0  0  0  0  0  0  0  0  0
   -0.4350   14.5950   40.0720 C   0  0  0  0  0  0  0  0  0  0  0  0
   -1.2136   11.2076   42.2053 H   0  0  0  0  0  0  0  0  0  0  0  0
   -0.5630   13.2476   38.3545 H   0  0  0  0  0  0  0  0  0  0  0  0
    0.1300   27.7580   34.0311 H   0  0  0  0  0  0  0  0  0  0  0  0
    1.8830   27.5069   34.4449 H   0  0  0  0  0  0  0  0  0  0  0  0
    3.2151   23.0604   38.7908 H   0  0  0  0  0  0  0  0  0  0  0  0
    4.1367   23.1412   37.2511 H   0  0  0  0  0  0  0  0  0  0  0  0
    2.3619   23.4181   37.2511 H   0  0  0  0  0  0  0  0  0  0  0  0
    6.7979   22.1608   39.6760 H   0  0  0  0  0  0  0  0  0  0  0  0
    6.3483   20.9632   38.4149 H   0  0  0  0  0  0  0  0  0  0  0  0
    5.5941   22.5934   38.4149 H   0  0  0  0  0  0  0  0  0  0  0  0
   -0.5360   26.3044   31.9443 H   0  0  0  0  0  0  0  0  0  0  0  0
   -0.2148   28.0645   32.3953 H   0  0  0  0  0  0  0  0  0  0  0  0
    2.8508   22.1178   40.0889 H   0  0  0  0  0  0  0  0  0  0  0  0
    3.0412   20.4973   40.8838 H   0  0  0  0  0  0  0  0  0  0  0  0
    2.0376   21.1599   36.8571 H   0  0  0  0  0  0  0  0  0  0  0  0
    3.8608   20.8948   37.0202 H   0  0  0  0  0  0  0  0  0  0  0  0
   -0.2625   26.0682   35.1749 H   0  0  0  0  0  0  0  0  0  0  0  0
    0.6907   25.1497   33.8089 H   0  0  0  0  0  0  0  0  0  0  0  0
    3.6753   25.8114   35.8291 H   0  0  0  0  0  0  0  0  0  0  0  0
    3.4251   24.0567   35.6082 H   0  0  0  0  0  0  0  0  0  0  0  0
   -0.7213   11.0559   39.7151 H   0  0  0  0  0  0  0  0  0  0  0  0
    4.8850   21.3748   42.1199 H   0  0  0  0  0  0  0  0  0  0  0  0
    6.1897   22.2950   41.2967 H   0  0  0  0  0  0  0  0  0  0  0  0
    4.5079   22.9262   41.2967 H   0  0  0  0  0  0  0  0  0  0  0  0
    4.9404   20.2380   39.5480 H   0  0  0  0  0  0  0  0  0  0  0  0
    4.1764   24.7289   33.3145 H   0  0  0  0  0  0  0  0  0  0  0  0
   -1.0436   14.2440   44.3646 H   0  0  0  0  0  0  0  0  0  0  0  0
   -1.3188   12.4843   44.2617 H   0  0  0  0  0  0  0  0  0  0  0  0
    0.2686   28.6535   30.3621 H   0  0  0  0  0  0  0  0  0  0  0  0
    1.0240   27.0771   29.9487 H   0  0  0  0  0  0  0  0  0  0  0  0
   -0.7646   27.2435   29.9487 H   0  0  0  0  0  0  0  0  0  0  0  0
   -0.3803   15.5522   42.0895 H   0  0  0  0  0  0  0  0  0  0  0  0
    2.9906   25.6958   31.4472 H   0  0  0  0  0  0  0  0  0  0  0  0
    1.5618   25.8340   36.5484 H   0  0  0  0  0  0  0  0  0  0  0  0
    1.2392   24.1944   35.6848 H   0  0  0  0  0  0  0  0  0  0  0  0
    0.3131   17.5816   40.7927 H   0  0  0  0  0  0  0  0  0  0  0  0
    1.7106   16.5053   40.5997 H   0  0  0  0  0  0  0  0  0  0  0  0
    1.1983   17.6273   37.9731 H   0  0  0  0  0  0  0  0  0  0  0  0
  1  6  2  0
  2 28  1  0
  2 14  2  0
  3 11  1  0
  5 16  1  0
  6 19  1  0
  7 25  1  0
  9  4  1  0
  9 10  1  0
 10 12  2  0
 10  8  1  0
 11 23  1  0
 12 26  2  0
 13 23  1  0
 14  1  1  0
 16  8  1  0
 16 15  1  0
 17 13  1  0
 18 24  1  0
 18 28  1  0
 20  7  1  0
 21  6  1  0
 22 17  2  0
 25 22  1  0
 25  3  1  0
 26 24  1  0
 27 18  2  0
 28 21  2  0
  1 29  1  0
  2 30  1  0
  3 31  1  0
  3 32  1  0
  4 33  1  0
  4 34  1  0
  4 35  1  0
  5 36  1  0
  5 37  1  0
  5 38  1  0
  7 39  1  0
  7 40  1  0
  8 41  1  0
  8 42  1  0
  9 43  1  0
  9 44  1  0
 11 45  1  0
 11 46  1  0
 13 47  1  0
 13 48  1  0
 14 49  1  0
 15 50  1  0
 15 51  1  0
 15 52  1  0
 16 53  1  0
 17 54  1  0
 19 55  1  0
 19 56  1  0
 20 57  1  0
 20 58  1  0
 20 59  1  0
 21 60  1  0
 22 61  1  0
 23 62  1  0
 23 63  1  0
 24 64  1  0
 24 65  1  0
 26 66  1  0
M  END
>  <mol_id>  (38) 
2026-09-18-6fnk-s0-n100-0038

>  <rmsd_to_ref>  (38) 


$$$$

     RDKit          3D

 55 56  0  0  0  0  0  0  0  0999 V2000
    1.8780   17.4680   37.6810 C   0  0  0  0  0  0  0  0  0  0  0  0
    2.6790   21.2860   39.2940 C   0  0  0  0  0  0  0  0  0  0  0  0
    3.1340   16.9890   37.7200 O   0  0  0  0  0  1  0  0  0  0  0  0
    1.8990   17.9400   41.9940 C   0  0  0  0  0  0  0  0  0  0  0  0
    2.1550   24.4960   33.2490 C   0  0  0  0  0  0  0  0  0  0  0  0
   -0.8080   17.3690   44.3150 C   0  0  0  0  0  0  0  0  0  0  0  0
    2.7400   19.0150   41.7560 C   0  0  0  0  0  0  0  0  0  0  0  0
    1.7880   18.9330   38.3370 C   0  0  0  0  0  0  0  0  0  0  0  0
    2.5080   24.0520   33.6040 C   0  0  0  0  0  0  0  0  0  0  0  0
    2.8530   19.5990   37.5360 C   0  0  0  0  0  0  0  0  0  0  0  0
    2.0720   25.3930   33.0370 C   0  0  0  0  0  0  0  0  0  0  0  0
    2.6160   19.5150   36.0960 C   0  0  0  0  0  0  0  0  0  0  0  0
    2.6250   23.0780   34.5220 C   0  0  0  0  0  0  0  0  0  0  0  0
    2.8730   21.0950   37.8780 C   0  0  0  0  0  0  0  0  0  0  0  0
    0.8300   18.2070   42.8330 C   0  0  0  0  0  0  0  0  0  0  0  0
    0.1800   17.1420   43.3320 C   0  0  0  0  0  0  0  0  0  0  0  0
   -1.1660   18.6650   44.6370 C   0  0  0  0  0  0  0  0  0  0  0  0
    2.4360   21.6130   34.1940 C   0  0  0  0  0  0  0  0  0  0  0  0
    3.1300   20.7720   35.3980 N   0  0  0  0  0  0  0  0  0  0  0  0
   -0.5610   19.6670   43.9940 N   0  0  0  0  0  0  0  0  0  0  0  0
    4.1570   21.6090   35.3020 C   0  0  0  0  0  0  0  0  0  0  0  0
    2.4770   20.3340   42.2130 C   0  0  0  0  0  0  0  0  0  0  0  0
    1.2340   20.5450   42.8400 C   0  0  0  0  0  0  0  0  0  0  0  0
    0.5090   19.4820   43.2420 C   0  0  0  0  0  0  0  0  0  0  0  0
    3.6750   23.6100   34.1270 C   0  0  0  0  0  0  0  0  0  0  0  0
    0.7920   16.9560   36.7980 O   0  0  0  0  0  0  0  0  0  0  0  0
    3.3554   20.6201   39.8499 H   0  0  0  0  0  0  0  0  0  0  0  0
    2.8969   22.3318   39.5562 H   0  0  0  0  0  0  0  0  0  0  0  0
    1.6367   21.0518   39.5562 H   0  0  0  0  0  0  0  0  0  0  0  0
    2.0678   16.9481   41.5495 H   0  0  0  0  0  0  0  0  0  0  0  0
    1.3696   23.9476   32.7083 H   0  0  0  0  0  0  0  0  0  0  0  0
   -1.2899   16.5198   44.8215 H   0  0  0  0  0  0  0  0  0  0  0  0
    3.6614   18.8374   41.1820 H   0  0  0  0  0  0  0  0  0  0  0  0
    0.8024   19.3964   38.1828 H   0  0  0  0  0  0  0  0  0  0  0  0
    1.9139   18.9762   39.4289 H   0  0  0  0  0  0  0  0  0  0  0  0
    2.6983   23.4717   32.6891 H   0  0  0  0  0  0  0  0  0  0  0  0
    3.7949   19.0863   37.7808 H   0  0  0  0  0  0  0  0  0  0  0  0
    1.2806   25.7245   32.3487 H   0  0  0  0  0  0  0  0  0  0  0  0
    2.7648   26.1277   33.4733 H   0  0  0  0  0  0  0  0  0  0  0  0
    3.1407   18.6363   35.6929 H   0  0  0  0  0  0  0  0  0  0  0  0
    1.5345   19.4243   35.9170 H   0  0  0  0  0  0  0  0  0  0  0  0
    2.1219   22.9309   35.4891 H   0  0  0  0  0  0  0  0  0  0  0  0
    3.8431   21.5219   37.5836 H   0  0  0  0  0  0  0  0  0  0  0  0
    2.0600   21.5979   37.3338 H   0  0  0  0  0  0  0  0  0  0  0  0
    0.4106   16.1239   42.9851 H   0  0  0  0  0  0  0  0  0  0  0  0
   -1.9295   18.8656   45.4031 H   0  0  0  0  0  0  0  0  0  0  0  0
    1.3642   21.3734   34.1329 H   0  0  0  0  0  0  0  0  0  0  0  0
    2.8900   21.3629   33.2238 H   0  0  0  0  0  0  0  0  0  0  0  0
    4.4986   21.8874   36.3099 H   0  0  0  0  0  0  0  0  0  0  0  0
    4.9788   21.1202   34.7583 H   0  0  0  0  0  0  0  0  0  0  0  0
    3.8440   22.5126   34.7583 H   0  0  0  0  0  0  0  0  0  0  0  0
    3.2059   21.1476   42.0839 H   0  0  0  0  0  0  0  0  0  0  0  0
    0.8585   21.5665   43.0001 H   0  0  0  0  0  0  0  0  0  0  0  0
    4.3711   23.0372   33.4966 H   0  0  0  0  0  0  0  0  0  0  0  0
    4.5209   24.0997   34.6316 H   0  0  0  0  0  0  0  0  0  0  0  0
  1  3  1  0
  1  8  1  0
  4 15  2  0
  6 17  1  0
  7  4  1  0
  7 22  2  0
  9  5  1  0
  9 25  1  0
  9 13  1  0
 10 12  1  0
 10 14  1  0
 10  8  1  0
 11  5  2  3
 13 18  1  0
 14  2  1  0
 15 24  1  0
 15 16  1  0
 16  6  2  0
 18 19  1  0
 19 12  1  0
 20 17  2  0
 21 19  1  0
 22 23  1  0
 23 24  2  0
 24 20  1  0
 25 13  1  0
 26  1  2  0
  2 27  1  0
  2 28  1  0
  2 29  1  0
  4 30  1  0
  5 31  1  0
  6 32  1  0
  7 33  1  0
  8 34  1  0
  8 35  1  0
  9 36  1  0
 10 37  1  0
 11 38  1  0
 11 39  1  0
 12 40  1  0
 12 41  1  0
 13 42  1  0
 14 43  1  0
 14 44  1  0
 16 45  1  0
 17 46  1  0
 18 47  1  0
 18 48  1  0
 21 49  1  0
 21 50  1  0
 21 51  1  0
 22 52  1  0
 23 53  1  0
 25 54  1  0
 25 55  1  0
M  CHG  1   3  -1
M  END
>  <mol_id>  (39) 
2026-09-18-6fnk-s0-n100-0039

>  <rmsd_to_ref>  (39) 


$$$$

     RDKit          3D

 58 60  0  0  0  0  0  0  0  0999 V2000
    2.3320   20.9500   40.4070 N   0  0  0  0  0  4  0  0  0  0  0  0
    4.9680   21.8010   38.0950 C   0  0  0  0  0  0  0  0  0  0  0  0
    1.5960   26.5860   33.0780 C   0  0  0  0  0  0  0  0  0  0  0  0
    3.6130   25.3190   33.1360 C   0  0  0  0  0  0  0  0  0  0  0  0
    2.8300   16.6200   39.5370 O   0  0  0  0  0  0  0  0  0  0  0  0
    1.3500   19.3700   43.5880 C   0  0  0  0  0  0  0  0  0  0  0  0
    1.4190   18.1890   39.9830 N   0  0  0  0  0  0  0  0  0  0  0  0
    0.3900   15.5720   38.4560 C   0  0  0  0  0  0  0  0  0  0  0  0
    0.8700   18.2480   44.2600 C   0  0  0  0  0  0  0  0  0  0  0  0
    2.0120   20.4470   41.4140 C   0  0  0  0  0  0  0  0  0  0  0  0
    1.8400   24.7720   34.4770 C   0  0  0  0  0  0  0  0  0  0  0  0
    4.2620   21.1460   39.2300 O   0  0  0  0  0  0  0  0  0  0  0  0
   -0.4030   16.3500   37.4930 C   0  0  0  0  0  0  0  0  0  0  0  0
    1.2740   18.0500   41.4340 C   0  0  0  0  0  0  0  0  0  0  0  0
    2.1060   15.2440   36.5000 C   0  0  0  0  0  0  0  0  0  0  0  0
    1.1360   25.7580   34.0310 C   0  0  0  0  0  0  0  0  0  0  0  0
    2.9420   26.3190   32.6420 C   0  0  0  0  0  0  0  0  0  0  0  0
    3.0960   22.8740   34.7210 C   0  0  0  0  0  0  0  0  0  0  0  0
    1.6570   17.3860   37.8780 O   0  0  0  0  0  0  0  0  0  0  0  0
    1.5400   19.3200   42.1940 C   0  0  0  0  0  0  0  0  0  0  0  0
    0.7570   17.0240   42.1970 C   0  0  0  0  0  0  0  0  0  0  0  0
    3.0220   20.6870   39.0660 C   0  0  0  0  0  0  0  0  0  0  0  0
    0.5430   17.0470   43.5260 C   0  0  0  0  0  0  0  0  0  0  0  0
    1.9530   17.3310   39.1190 C   0  0  0  0  0  0  0  0  0  0  0  0
    4.1640   23.1910   33.9250 C   0  0  0  0  0  0  0  0  0  0  0  0
    3.2260   24.2750   34.1520 C   0  0  0  0  0  0  0  0  0  0  0  0
    1.1600   16.1620   37.3000 C   0  0  0  0  0  0  0  0  0  0  0  0
    1.4237   21.3109   40.0818 H   0  0  0  0  0  0  0  0  0  0  0  0
    3.2191   21.2664   40.8240 H   0  0  0  0  0  0  0  0  0  0  0  0
    5.7216   22.5002   38.4864 H   0  0  0  0  0  0  0  0  0  0  0  0
    5.4629   21.0350   37.4799 H   0  0  0  0  0  0  0  0  0  0  0  0
    4.2412   22.3518   37.4799 H   0  0  0  0  0  0  0  0  0  0  0  0
    0.9315   26.5052   32.2051 H   0  0  0  0  0  0  0  0  0  0  0  0
    1.6093   27.5919   33.5229 H   0  0  0  0  0  0  0  0  0  0  0  0
    4.6365   25.2188   32.7456 H   0  0  0  0  0  0  0  0  0  0  0  0
    1.5795   20.2909   44.1442 H   0  0  0  0  0  0  0  0  0  0  0  0
    1.0604   19.0661   39.5793 H   0  0  0  0  0  0  0  0  0  0  0  0
    0.5497   15.9717   39.4683 H   0  0  0  0  0  0  0  0  0  0  0  0
    0.2977   14.5509   38.8544 H   0  0  0  0  0  0  0  0  0  0  0  0
    0.7396   18.2764   45.3519 H   0  0  0  0  0  0  0  0  0  0  0  0
    2.9301   20.6519   41.9841 H   0  0  0  0  0  0  0  0  0  0  0  0
    0.9657   20.6628   41.1521 H   0  0  0  0  0  0  0  0  0  0  0  0
    1.3271   24.1765   35.2466 H   0  0  0  0  0  0  0  0  0  0  0  0
   -1.1082   15.8415   36.8191 H   0  0  0  0  0  0  0  0  0  0  0  0
   -1.0871   17.2092   37.5544 H   0  0  0  0  0  0  0  0  0  0  0  0
    2.7171   14.6510   37.1964 H   0  0  0  0  0  0  0  0  0  0  0  0
    1.5124   14.5685   35.8665 H   0  0  0  0  0  0  0  0  0  0  0  0
    2.7634   15.8576   35.8665 H   0  0  0  0  0  0  0  0  0  0  0  0
    0.1300   25.9252   34.4433 H   0  0  0  0  0  0  0  0  0  0  0  0
    3.4077   26.9662   31.8842 H   0  0  0  0  0  0  0  0  0  0  0  0
    2.3124   22.1990   34.3464 H   0  0  0  0  0  0  0  0  0  0  0  0
    2.9767   22.4530   35.7302 H   0  0  0  0  0  0  0  0  0  0  0  0
    0.4938   16.0962   41.6680 H   0  0  0  0  0  0  0  0  0  0  0  0
    2.5122   21.2271   38.2545 H   0  0  0  0  0  0  0  0  0  0  0  0
    3.0045   19.6224   38.7897 H   0  0  0  0  0  0  0  0  0  0  0  0
    0.1276   16.1692   44.0427 H   0  0  0  0  0  0  0  0  0  0  0  0
    4.2350   22.7455   32.9217 H   0  0  0  0  0  0  0  0  0  0  0  0
    5.2516   23.1028   34.0642 H   0  0  0  0  0  0  0  0  0  0  0  0
  1 10  1  0
  2 12  1  0
  3 16  1  0
  4 26  1  0
  6  9  2  0
  7 14  1  0
 10 20  1  0
 13  8  1  0
 14 20  2  0
 14 21  1  0
 15 27  1  0
 16 11  2  0
 17  3  1  0
 17  4  2  0
 19 24  1  0
 20  6  1  0
 21 23  2  0
 22 12  1  0
 22  1  1  0
 23  9  1  0
 24  5  2  0
 24  7  1  0
 25 26  1  0
 25 18  1  0
 26 11  1  0
 26 18  1  0
 27 13  1  0
 27 19  1  0
 27  8  1  0
  1 28  1  0
  1 29  1  0
  2 30  1  0
  2 31  1  0
  2 32  1  0
  3 33  1  0
  3 34  1  0
  4 35  1  0
  6 36  1  0
  7 37  1  0
  8 38  1  0
  8 39  1  0
  9 40  1  0
 10 41  1  0
 10 42  1  0
 11 43  1  0
 13 44  1  0
 13 45  1  0
 15 46  1  0
 15 47  1  0
 15 48  1  0
 16 49  1  0
 17 50  1  0
 18 51  1  0
 18 52  1  0
 21 53  1  0
 22 54  1  0
 22 55  1  0
 23 56  1  0
 25 57  1  0
 25 58  1  0
M  CHG  1   1   1
M  END
>  <mol_id>  (40) 
2026-09-18-6fnk-s0-n100-0040

>  <rmsd_to_ref>  (40) 


$$$$

     RDKit          3D

 54 55  0  0  0  0  0  0  0  0999 V2000
    4.9560   22.4310   37.8390 O   0  0  0  0  0  0  0  0  0  0  0  0
    4.1390   21.6740   38.4240 C   0  0  0  0  0  0  0  0  0  0  0  0
    3.7990   25.5460   34.6100 S   0  0  0  0  0  0  0  0  0  0  0  0
    2.8510   19.8930   39.0450 C   0  0  0  0  0  0  0  0  0  0  0  0
   -1.1290   14.6530   39.7330 C   0  0  0  0  0  0  0  0  0  0  0  0
    1.5760   26.8060   34.0290 C   0  0  0  0  0  0  0  0  0  0  0  0
    4.7780   21.3010   42.4770 C   0  0  0  0  0  0  0  0  0  0  0  0
    0.7470   16.8010   36.7240 C   0  0  0  0  0  0  0  0  0  0  0  0
    3.0720   20.7310   38.0160 C   0  0  0  0  0  0  0  0  0  0  0  0
    1.6880   22.0800   35.9640 O   0  0  0  0  0  0  0  0  0  0  0  0
    1.4580   25.0320   35.7850 C   0  0  0  0  0  0  0  0  0  0  0  0
    1.0460   26.3010   35.1470 C   0  0  0  0  0  0  0  0  0  0  0  0
    5.3990   21.8180   40.8530 C   0  0  0  0  0  0  0  0  0  0  0  0
   -1.3150   15.8230   38.4360 C   0  0  0  0  0  0  0  0  0  0  0  0
    2.7520   24.5190   35.3120 C   0  0  0  0  0  0  0  0  0  0  0  0
    4.4360   21.4240   39.7510 N   0  0  0  0  0  0  0  0  0  0  0  0
   -0.1860   16.5720   38.0890 C   0  0  0  0  0  0  0  0  0  0  0  0
    1.6380   18.4070   38.9540 S   0  0  0  0  0  4  0  0  0  0  0  0
    2.6910   26.1120   33.4440 C   0  0  0  0  0  0  0  0  0  0  0  0
    2.4550   22.9170   35.7540 C   0  0  0  0  0  0  0  0  0  0  0  0
    3.6990   20.7160   40.3950 C   0  0  0  0  0  0  0  0  0  0  0  0
    1.2530   27.9800   33.5130 F   0  0  0  0  0  0  0  0  0  0  0  0
    3.5200   23.4140   35.6470 N   0  0  0  0  0  0  0  0  0  0  0  0
    0.3180   16.8280   39.1000 C   0  0  0  0  0  0  0  0  0  0  0  0
    1.8540   17.6490   37.3310 C   0  0  0  0  0  0  0  0  0  0  0  0
    2.8325   18.8133   39.2548 H   0  0  0  0  0  0  0  0  0  0  0  0
   -1.2104   15.1650   40.7032 H   0  0  0  0  0  0  0  0  0  0  0  0
   -1.9171   13.8896   39.6540 H   0  0  0  0  0  0  0  0  0  0  0  0
   -0.1431   14.1717   39.6540 H   0  0  0  0  0  0  0  0  0  0  0  0
    5.3661   21.7906   43.2673 H   0  0  0  0  0  0  0  0  0  0  0  0
    3.7210   21.5897   42.5743 H   0  0  0  0  0  0  0  0  0  0  0  0
    4.8703   20.2092   42.5743 H   0  0  0  0  0  0  0  0  0  0  0  0
    0.1999   17.3396   35.9362 H   0  0  0  0  0  0  0  0  0  0  0  0
    1.0786   15.8821   36.2184 H   0  0  0  0  0  0  0  0  0  0  0  0
    3.3935   20.1615   37.1315 H   0  0  0  0  0  0  0  0  0  0  0  0
    2.1523   21.2774   37.7599 H   0  0  0  0  0  0  0  0  0  0  0  0
    1.5267   25.1966   36.8704 H   0  0  0  0  0  0  0  0  0  0  0  0
    0.7003   24.2804   35.5185 H   0  0  0  0  0  0  0  0  0  0  0  0
    0.2407   26.8737   35.6303 H   0  0  0  0  0  0  0  0  0  0  0  0
    5.5241   22.9108   40.8473 H   0  0  0  0  0  0  0  0  0  0  0  0
    6.3619   21.3182   40.6714 H   0  0  0  0  0  0  0  0  0  0  0  0
   -1.6381   15.2749   37.5387 H   0  0  0  0  0  0  0  0  0  0  0  0
   -2.0393   16.5582   38.8166 H   0  0  0  0  0  0  0  0  0  0  0  0
    1.8558   24.0004   34.9407 H   0  0  0  0  0  0  0  0  0  0  0  0
   -0.7026   17.0623   37.2507 H   0  0  0  0  0  0  0  0  0  0  0  0
    2.6066   17.5850   39.4668 H   0  0  0  0  0  0  0  0  0  0  0  0
    2.3102   25.2519   32.8737 H   0  0  0  0  0  0  0  0  0  0  0  0
    3.2240   26.8249   32.7977 H   0  0  0  0  0  0  0  0  0  0  0  0
    3.0084   21.3003   41.0209 H   0  0  0  0  0  0  0  0  0  0  0  0
    4.1939   20.0513   41.1183 H   0  0  0  0  0  0  0  0  0  0  0  0
   -0.4648   17.0897   39.8272 H   0  0  0  0  0  0  0  0  0  0  0  0
    0.8905   15.9446   39.4191 H   0  0  0  0  0  0  0  0  0  0  0  0
    2.7433   17.0052   37.3992 H   0  0  0  0  0  0  0  0  0  0  0  0
    1.9009   18.5163   36.6561 H   0  0  0  0  0  0  0  0  0  0  0  0
  1  2  2  0
  2 16  1  0
  3 15  1  0
  4  9  1  0
  4 21  1  0
  6 12  2  0
  8 25  1  0
  8 17  1  0
  9  2  1  0
 12 11  1  0
 13  7  1  0
 14  5  1  0
 15 23  1  0
 15 11  1  0
 16 21  1  0
 16 13  1  0
 17 14  1  0
 17 24  1  0
 18 25  1  0
 18  4  1  0
 18 24  1  0
 19  6  1  0
 19  3  1  0
 20 10  2  0
 22  6  1  0
 23 20  2  0
  4 26  1  0
  5 27  1  0
  5 28  1  0
  5 29  1  0
  7 30  1  0
  7 31  1  0
  7 32  1  0
  8 33  1  0
  8 34  1  0
  9 35  1  0
  9 36  1  0
 11 37  1  0
 11 38  1  0
 12 39  1  0
 13 40  1  0
 13 41  1  0
 14 42  1  0
 14 43  1  0
 15 44  1  0
 17 45  1  0
 18 46  1  0
 19 47  1  0
 19 48  1  0
 21 49  1  0
 21 50  1  0
 24 51  1  0
 24 52  1  0
 25 53  1  0
 25 54  1  0
M  END
>  <mol_id>  (41) 
2026-09-18-6fnk-s0-n100-0041

>  <rmsd_to_ref>  (41) 


$$$$

     RDKit          3D

 48 48  0  0  0  0  0  0  0  0999 V2000
    4.7540   22.1210   39.8760 C   0  0  0  0  0  0  0  0  0  0  0  0
    0.7550   26.8390   34.2110 C   0  0  0  0  0  0  0  0  0  0  0  0
    1.1090   25.4970   33.5500 C   0  0  0  0  0  0  0  0  0  0  0  0
    3.5690   21.7720   40.0900 N   0  0  0  0  0  0  0  0  0  0  0  0
    5.0610   22.5720   38.5650 N   0  0  0  0  0  0  0  0  0  0  0  0
   -0.6610   14.0070   41.0900 C   0  0  0  0  0  0  0  0  0  0  0  0
    2.9800   21.8920   38.8520 C   0  0  0  0  0  0  0  0  0  0  0  0
   -1.1420   14.5140   42.3460 C   0  0  0  0  0  0  0  0  0  0  0  0
    3.5930   23.2040   35.6220 O   0  0  0  0  0  0  0  0  0  0  0  0
    1.7080   22.6650   36.7540 O   0  0  0  0  0  1  0  0  0  0  0  0
    0.8740   16.2430   37.6570 C   0  0  0  0  0  0  0  0  0  0  0  0
   -0.5670   15.4150   39.1780 O   0  0  0  0  0  0  0  0  0  0  0  0
    0.4820   16.8850   36.6220 N   0  0  0  0  0  0  0  0  0  0  0  0
    1.4340   25.4200   32.3600 O   0  0  0  0  0  0  0  0  0  0  0  0
    2.9740   22.7550   36.6700 C   0  0  0  0  0  0  0  0  0  0  0  0
    0.5100   16.4610   39.0980 C   0  0  0  0  0  0  0  0  0  0  0  0
    3.7260   22.4950   37.9210 C   0  0  0  0  0  0  0  0  0  0  0  0
    1.4100   15.1260   37.1330 N   0  0  0  0  0  0  0  0  0  0  0  0
   -0.0120   14.4510   40.1740 C   0  0  0  0  0  0  0  0  0  0  0  0
    2.2520   15.4380   36.0780 C   0  0  0  0  0  0  0  0  0  0  0  0
    5.8440   22.1580   40.9210 C   0  0  0  0  0  0  0  0  0  0  0  0
    1.0670   16.2990   35.7800 N   0  0  0  0  0  0  0  0  0  0  0  0
    1.1840   24.2570   34.3510 C   0  0  0  0  0  0  0  0  0  0  0  0
   -2.0150   13.3840   42.9460 O   0  0  0  0  0  0  0  0  0  0  0  0
    0.7843   26.7279   35.3050 H   0  0  0  0  0  0  0  0  0  0  0  0
    1.4821   27.6038   33.9005 H   0  0  0  0  0  0  0  0  0  0  0  0
   -0.2547   27.1456   33.9005 H   0  0  0  0  0  0  0  0  0  0  0  0
    5.9637   22.8709   38.1691 H   0  0  0  0  0  0  0  0  0  0  0  0
   -0.0765   13.1262   41.3942 H   0  0  0  0  0  0  0  0  0  0  0  0
   -1.6271   14.1125   40.5748 H   0  0  0  0  0  0  0  0  0  0  0  0
    1.9668   21.5181   38.6433 H   0  0  0  0  0  0  0  0  0  0  0  0
   -0.2996   14.7443   43.0148 H   0  0  0  0  0  0  0  0  0  0  0  0
   -1.7142   15.4445   42.2164 H   0  0  0  0  0  0  0  0  0  0  0  0
    1.3647   16.8422   38.4381 H   0  0  0  0  0  0  0  0  0  0  0  0
   -0.5380   16.8183   36.4951 H   0  0  0  0  0  0  0  0  0  0  0  0
    1.3484   16.2541   39.7793 H   0  0  0  0  0  0  0  0  0  0  0  0
    0.2235   17.4841   39.3830 H   0  0  0  0  0  0  0  0  0  0  0  0
    0.3308   13.5806   39.5953 H   0  0  0  0  0  0  0  0  0  0  0  0
    0.7187   15.0787   40.7051 H   0  0  0  0  0  0  0  0  0  0  0  0
    3.1870   15.9587   36.3322 H   0  0  0  0  0  0  0  0  0  0  0  0
    2.7290   14.7238   35.3907 H   0  0  0  0  0  0  0  0  0  0  0  0
    5.3915   22.1426   41.9235 H   0  0  0  0  0  0  0  0  0  0  0  0
    6.4976   21.2815   40.8003 H   0  0  0  0  0  0  0  0  0  0  0  0
    6.4367   23.0768   40.8003 H   0  0  0  0  0  0  0  0  0  0  0  0
    1.1687   24.5104   35.4213 H   0  0  0  0  0  0  0  0  0  0  0  0
    0.3231   23.6147   34.1139 H   0  0  0  0  0  0  0  0  0  0  0  0
    2.1161   23.7231   34.1139 H   0  0  0  0  0  0  0  0  0  0  0  0
   -1.9799   13.4294   43.9343 H   0  0  0  0  0  0  0  0  0  0  0  0
  1  4  2  0
  1 21  1  0
  3  2  1  0
  3 23  1  0
  5  1  1  0
  6  8  1  0
  7  4  1  0
  8 24  1  0
  9 15  2  0
 11 16  1  0
 12 19  1  0
 13 11  1  0
 14  3  2  0
 15 10  1  0
 15 17  1  0
 16 12  1  0
 17  5  1  0
 17  7  2  0
 18 20  1  0
 18 11  1  0
 19  6  1  0
 22 20  1  0
 22 13  1  0
 22 18  1  0
  2 25  1  0
  2 26  1  0
  2 27  1  0
  5 28  1  0
  6 29  1  0
  6 30  1  0
  7 31  1  0
  8 32  1  0
  8 33  1  0
 11 34  1  0
 13 35  1  0
 16 36  1  0
 16 37  1  0
 19 38  1  0
 19 39  1  0
 20 40  1  0
 20 41  1  0
 21 42  1  0
 21 43  1  0
 21 44  1  0
 23 45  1  0
 23 46  1  0
 23 47  1  0
 24 48  1  0
M  CHG  1  10  -1
M  END
>  <mol_id>  (42) 
2026-09-18-6fnk-s0-n100-0042

>  <rmsd_to_ref>  (42) 


$$$$

     RDKit          3D

 80 84  0  0  0  0  0  0  0  0999 V2000
    3.2980   21.5190   39.0640 N   0  0  0  0  0  4  0  0  0  0  0  0
    3.4480   22.5640   37.6860 C   0  0  0  0  0  0  0  0  0  0  0  0
    1.1120   16.1410   37.9430 C   0  0  0  0  0  0  0  0  0  0  0  0
    0.2290   29.7990   32.1770 C   0  0  0  0  0  0  0  0  0  0  0  0
    2.0720   19.2320   39.8780 C   0  0  0  0  0  0  0  0  0  0  0  0
    0.5160   31.1680   32.9940 C   0  0  0  0  0  0  0  0  0  0  0  0
    2.8180   24.6660   34.8040 C   0  0  0  0  0  0  0  0  0  0  0  0
    4.9380   23.1980   37.7620 C   0  0  0  0  0  0  0  0  0  0  0  0
    0.8290   16.8200   42.6050 O   0  0  0  0  0  0  0  0  0  0  0  0
   -0.5370   28.5910   32.0530 C   0  0  0  0  0  0  0  0  0  0  0  0
    3.1350   23.9120   35.5660 C   0  0  0  0  0  0  0  0  0  0  0  0
    2.9060   20.1240   38.6820 C   0  0  0  0  0  0  0  0  0  0  0  0
    1.7510   17.6310   37.7360 C   0  0  0  0  0  0  0  0  0  0  0  0
    0.4430   28.5240   33.0680 C   0  0  0  0  0  0  0  0  0  0  0  0
    2.4380   18.2140   37.1190 N   0  0  0  0  0  4  0  0  0  0  0  0
    1.5030   25.4000   34.9900 C   0  0  0  0  0  0  0  0  0  0  0  0
    1.9860   25.5200   34.5410 C   0  0  0  0  0  0  0  0  0  0  0  0
    1.6720   17.8830   39.3760 C   0  0  0  0  0  0  0  0  0  0  0  0
   -1.8150   14.8330   38.7670 C   0  0  0  0  0  0  0  0  0  0  0  0
    0.4760   15.5950   41.7540 C   0  0  0  0  0  0  0  0  0  0  0  0
    1.0230   15.1760   37.3150 O   0  0  0  0  0  0  0  0  0  0  0  0
    0.2070   15.5230   40.5430 C   0  0  0  0  0  0  0  0  0  0  0  0
   -1.2860   14.6430   40.3380 C   0  0  0  0  0  0  0  0  0  0  0  0
    2.7170   19.6670   37.3230 C   0  0  0  0  0  0  0  0  0  0  0  0
    0.4360   31.0090   31.6920 N   0  0  0  0  0  4  0  0  0  0  0  0
    0.7780   16.2980   39.3790 C   0  0  0  0  0  0  0  0  0  0  0  0
    2.7100   22.9530   36.5730 C   0  0  0  0  0  0  0  0  0  0  0  0
    4.8330   23.9110   36.3450 C   0  0  0  0  0  0  0  0  0  0  0  0
    1.2400   26.4200   34.4390 C   0  0  0  0  0  0  0  0  0  0  0  0
   -1.6760   12.6130   42.3990 C   0  0  0  0  0  0  0  0  0  0  0  0
   -1.0560   13.8420   41.9760 C   0  0  0  0  0  0  0  0  0  0  0  0
    0.7880   27.4520   34.0170 C   0  0  0  0  0  0  0  0  0  0  0  0
   -0.0580   14.6360   42.5070 O   0  0  0  0  0  0  0  0  0  0  0  0
   -3.1770   12.1390   42.0180 C   0  0  0  0  0  0  0  0  0  0  0  0
    4.2032   21.4859   39.5543 H   0  0  0  0  0  0  0  0  0  0  0  0
    2.5558   21.8999   39.6681 H   0  0  0  0  0  0  0  0  0  0  0  0
    2.7270   19.1079   40.7530 H   0  0  0  0  0  0  0  0  0  0  0  0
    1.1596   19.7845   40.1468 H   0  0  0  0  0  0  0  0  0  0  0  0
   -0.2821   31.6742   33.5568 H   0  0  0  0  0  0  0  0  0  0  0  0
    1.2386   31.5474   33.7315 H   0  0  0  0  0  0  0  0  0  0  0  0
    3.7398   25.2607   34.7232 H   0  0  0  0  0  0  0  0  0  0  0  0
    2.2256   23.9047   34.2753 H   0  0  0  0  0  0  0  0  0  0  0  0
    5.0646   23.9062   38.5941 H   0  0  0  0  0  0  0  0  0  0  0  0
    5.7834   22.5167   37.9386 H   0  0  0  0  0  0  0  0  0  0  0  0
   -1.5984   28.6047   32.3413 H   0  0  0  0  0  0  0  0  0  0  0  0
   -0.7488   27.9402   31.1918 H   0  0  0  0  0  0  0  0  0  0  0  0
    2.4596   23.8827   34.6983 H   0  0  0  0  0  0  0  0  0  0  0  0
    3.9696   19.8468   38.6376 H   0  0  0  0  0  0  0  0  0  0  0  0
    1.4148   18.0299   36.7676 H   0  0  0  0  0  0  0  0  0  0  0  0
   -0.2849   28.9108   33.7964 H   0  0  0  0  0  0  0  0  0  0  0  0
    3.3501   17.7415   37.1943 H   0  0  0  0  0  0  0  0  0  0  0  0
    1.9266   18.2368   36.2252 H   0  0  0  0  0  0  0  0  0  0  0  0
    0.5969   26.0236   35.0030 H   0  0  0  0  0  0  0  0  0  0  0  0
    1.6164   24.5795   35.7138 H   0  0  0  0  0  0  0  0  0  0  0  0
    1.9552   18.0756   40.4213 H   0  0  0  0  0  0  0  0  0  0  0  0
   -2.8502   15.2048   38.7711 H   0  0  0  0  0  0  0  0  0  0  0  0
   -1.1682   15.5550   38.2471 H   0  0  0  0  0  0  0  0  0  0  0  0
   -1.7754   13.8644   38.2471 H   0  0  0  0  0  0  0  0  0  0  0  0
    1.2217   15.2635   40.2068 H   0  0  0  0  0  0  0  0  0  0  0  0
   -2.3417   14.3530   40.2311 H   0  0  0  0  0  0  0  0  0  0  0  0
    3.6325   19.9090   36.7632 H   0  0  0  0  0  0  0  0  0  0  0  0
    1.8068   20.1794   36.9780 H   0  0  0  0  0  0  0  0  0  0  0  0
    1.2983   31.1549   31.1479 H   0  0  0  0  0  0  0  0  0  0  0  0
   -0.1555   31.5309   31.0297 H   0  0  0  0  0  0  0  0  0  0  0  0
   -0.0196   15.7042   39.8492 H   0  0  0  0  0  0  0  0  0  0  0  0
    1.7183   22.4952   36.4433 H   0  0  0  0  0  0  0  0  0  0  0  0
    5.5210   23.3986   35.6564 H   0  0  0  0  0  0  0  0  0  0  0  0
    5.0844   24.9675   36.5203 H   0  0  0  0  0  0  0  0  0  0  0  0
    0.9494   26.7706   35.4403 H   0  0  0  0  0  0  0  0  0  0  0  0
    1.7271   27.2397   33.8905 H   0  0  0  0  0  0  0  0  0  0  0  0
    0.3442   26.0934   33.8905 H   0  0  0  0  0  0  0  0  0  0  0  0
   -1.0162   11.8128   42.0325 H   0  0  0  0  0  0  0  0  0  0  0  0
   -1.8048   12.8203   43.4716 H   0  0  0  0  0  0  0  0  0  0  0  0
   -1.6421   13.2896   42.7252 H   0  0  0  0  0  0  0  0  0  0  0  0
    0.6692   27.8213   35.0463 H   0  0  0  0  0  0  0  0  0  0  0  0
    0.1213   26.5919   33.8568 H   0  0  0  0  0  0  0  0  0  0  0  0
    1.8312   27.1422   33.8568 H   0  0  0  0  0  0  0  0  0  0  0  0
   -3.7495   11.9582   42.9397 H   0  0  0  0  0  0  0  0  0  0  0  0
   -3.6710   12.9249   41.4277 H   0  0  0  0  0  0  0  0  0  0  0  0
   -3.1300   11.2120   41.4277 H   0  0  0  0  0  0  0  0  0  0  0  0
  2  8  1  0
  2  1  1  0
  4 10  1  0
  4  6  1  0
  4 14  1  0
 10 14  1  0
 11  7  1  0
 11 28  1  0
 11 27  1  0
 12  1  1  0
 12  5  1  0
 13 15  1  0
 13  3  1  0
 13 18  1  0
 14 32  1  0
 15 24  1  0
 17  7  1  0
 17 16  2  3
 18 26  1  0
 18  5  1  0
 20 33  1  0
 20  9  2  0
 21  3  2  0
 22 20  1  0
 23 19  1  0
 23 22  1  0
 23 31  1  0
 24 12  1  0
 25  4  1  0
 25  6  1  0
 26  3  1  0
 26 22  1  0
 27  2  2  0
 28  8  1  0
 29 17  1  0
 31 30  1  0
 31 33  1  0
 34 30  1  0
  1 35  1  0
  1 36  1  0
  5 37  1  0
  5 38  1  0
  6 39  1  0
  6 40  1  0
  7 41  1  0
  7 42  1  0
  8 43  1  0
  8 44  1  0
 10 45  1  0
 10 46  1  0
 11 47  1  0
 12 48  1  0
 13 49  1  0
 14 50  1  0
 15 51  1  0
 15 52  1  0
 16 53  1  0
 16 54  1  0
 18 55  1  0
 19 56  1  0
 19 57  1  0
 19 58  1  0
 22 59  1  0
 23 60  1  0
 24 61  1  0
 24 62  1  0
 25 63  1  0
 25 64  1  0
 26 65  1  0
 27 66  1  0
 28 67  1  0
 28 68  1  0
 29 69  1  0
 29 70  1  0
 29 71  1  0
 30 72  1  0
 30 73  1  0
 31 74  1  0
 32 75  1  0
 32 76  1  0
 32 77  1  0
 34 78  1  0
 34 79  1  0
 34 80  1  0
M  CHG  3   1   1  15   1  25   1
M  END
>  <mol_id>  (43) 
2026-09-18-6fnk-s0-n100-0043

>  <rmsd_to_ref>  (43) 


$$$$

     RDKit          3D

 52 53  0  0  0  0  0  0  0  0999 V2000
    1.6870   24.6580   31.1540 F   0  0  0  0  0  0  0  0  0  0  0  0
   -1.1030   15.2090   38.2300 C   0  0  0  0  0  0  0  0  0  0  0  0
    2.9730   22.4110   34.0050 C   0  0  0  0  0  0  0  0  0  0  0  0
    1.4770   21.0530   41.7350 C   0  0  0  0  0  0  0  0  0  0  0  0
    2.5870   19.9170   40.0520 C   0  0  0  0  0  0  0  0  0  0  0  0
    2.2110   18.5110   39.4770 C   0  0  0  0  0  0  0  0  0  0  0  0
    1.5840   17.5710   40.4030 N   0  0  0  0  0  0  0  0  0  0  0  0
    1.7770   22.4150   38.0720 C   0  0  0  0  0  0  0  0  0  0  0  0
    2.1860   22.4090   35.2960 C   0  0  0  0  0  0  0  0  0  0  0  0
    0.6550   16.8820   39.6500 C   0  0  0  0  0  0  0  0  0  0  0  0
    0.1440   25.7410   32.2740 F   0  0  0  0  0  0  0  0  0  0  0  0
    3.1140   21.8790   37.3550 N   0  0  0  0  0  0  0  0  0  0  0  0
    1.2120   24.9970   32.2600 N   0  0  0  0  0  0  0  0  0  0  0  0
    0.1200   15.8840   40.2580 C   0  0  0  0  0  0  0  0  0  0  0  0
    1.5100   24.2210   33.3690 C   0  0  0  0  0  0  0  0  0  0  0  0
    2.9320   20.9630   39.3670 N   0  0  0  0  0  0  0  0  0  0  0  0
    0.3220   17.1220   38.2230 C   0  0  0  0  0  0  0  0  0  0  0  0
    1.0720   22.9960   36.8540 C   0  0  0  0  0  0  0  0  0  0  0  0
    3.7560   21.5480   38.5520 C   0  0  0  0  0  0  0  0  0  0  0  0
   -0.7710   14.9760   39.5530 C   0  0  0  0  0  0  0  0  0  0  0  0
    2.3410   18.4210   38.2820 O   0  0  0  0  0  0  0  0  0  0  0  0
   -0.4910   16.2420   37.5830 C   0  0  0  0  0  0  0  0  0  0  0  0
    0.6770   24.2590   34.5450 C   0  0  0  0  0  0  0  0  0  0  0  0
    3.9460   20.2360   42.1890 C   0  0  0  0  0  0  0  0  0  0  0  0
    4.9680   21.6820   38.8450 O   0  0  0  0  0  0  0  0  0  0  0  0
    1.0940   23.2900   35.5450 C   0  0  0  0  0  0  0  0  0  0  0  0
    2.6300   23.4010   33.1520 C   0  0  0  0  0  0  0  0  0  0  0  0
    2.5670   20.0010   41.6580 C   0  0  0  0  0  0  0  0  0  0  0  0
   -1.8411   14.5777   37.7137 H   0  0  0  0  0  0  0  0  0  0  0  0
    3.7558   21.6716   33.7801 H   0  0  0  0  0  0  0  0  0  0  0  0
    1.2514   21.2707   42.7894 H   0  0  0  0  0  0  0  0  0  0  0  0
    1.8183   21.9718   41.2357 H   0  0  0  0  0  0  0  0  0  0  0  0
    0.5708   20.6793   41.2357 H   0  0  0  0  0  0  0  0  0  0  0  0
    3.6370   19.5904   40.0822 H   0  0  0  0  0  0  0  0  0  0  0  0
    1.7911   17.4485   41.4045 H   0  0  0  0  0  0  0  0  0  0  0  0
    1.2003   21.5993   38.5326 H   0  0  0  0  0  0  0  0  0  0  0  0
    1.9348   23.1143   38.9063 H   0  0  0  0  0  0  0  0  0  0  0  0
    2.4701   21.6928   36.0810 H   0  0  0  0  0  0  0  0  0  0  0  0
    3.3961   21.8059   36.3671 H   0  0  0  0  0  0  0  0  0  0  0  0
    0.3383   15.7148   41.3228 H   0  0  0  0  0  0  0  0  0  0  0  0
    2.2045   21.6651   39.5636 H   0  0  0  0  0  0  0  0  0  0  0  0
    0.7266   17.9971   37.6934 H   0  0  0  0  0  0  0  0  0  0  0  0
    0.1610   22.3798   36.8747 H   0  0  0  0  0  0  0  0  0  0  0  0
    1.5412   23.9683   37.0649 H   0  0  0  0  0  0  0  0  0  0  0  0
   -1.1831   14.0994   40.0743 H   0  0  0  0  0  0  0  0  0  0  0  0
   -0.6620   16.3670   36.5036 H   0  0  0  0  0  0  0  0  0  0  0  0
   -0.1757   24.9424   34.6710 H   0  0  0  0  0  0  0  0  0  0  0  0
    3.9211   20.2318   43.2887 H   0  0  0  0  0  0  0  0  0  0  0  0
    4.6162   19.4391   41.8343 H   0  0  0  0  0  0  0  0  0  0  0  0
    4.3145   21.2099   41.8343 H   0  0  0  0  0  0  0  0  0  0  0  0
    3.2481   23.5706   32.2580 H   0  0  0  0  0  0  0  0  0  0  0  0
    2.3341   19.1379   42.2990 H   0  0  0  0  0  0  0  0  0  0  0  0
  1 13  1  0
  2 20  2  0
  3  9  2  0
  5 16  1  0
  5 28  1  0
  6  5  1  0
  6  7  1  0
  9 26  1  0
 10 14  2  0
 10  7  1  0
 12  8  1  0
 12 19  1  0
 13 11  1  0
 13 15  1  0
 15 23  1  0
 17 10  1  0
 18  8  1  0
 19 25  2  0
 19 16  1  0
 20 14  1  0
 21  6  2  0
 22 17  2  0
 22  2  1  0
 23 26  2  0
 26 18  1  0
 27 15  2  0
 27  3  1  0
 28  4  1  0
 28 24  1  0
  2 29  1  0
  3 30  1  0
  4 31  1  0
  4 32  1  0
  4 33  1  0
  5 34  1  0
  7 35  1  0
  8 36  1  0
  8 37  1  0
  9 38  1  0
 12 39  1  0
 14 40  1  0
 16 41  1  0
 17 42  1  0
 18 43  1  0
 18 44  1  0
 20 45  1  0
 22 46  1  0
 23 47  1  0
 24 48  1  0
 24 49  1  0
 24 50  1  0
 27 51  1  0
 28 52  1  0
M  END
>  <mol_id>  (44) 
2026-09-18-6fnk-s0-n100-0044

>  <rmsd_to_ref>  (44) 


$$$$

     RDKit          3D

 75 76  0  0  0  0  0  0  0  0999 V2000
   -0.5890   19.1380   45.8650 O   0  0  0  0  0  1  0  0  0  0  0  0
    5.7860   24.9920   36.6440 C   0  0  0  0  0  0  0  0  0  0  0  0
    4.6660   24.6730   36.1270 C   0  0  0  0  0  0  0  0  0  0  0  0
    2.1870   19.8710   39.4820 C   0  0  0  0  0  0  0  0  0  0  0  0
    1.1720   12.6680   37.2530 C   0  0  0  0  0  0  0  0  0  0  0  0
    1.2520   13.9330   37.1860 C   0  0  0  0  0  0  0  0  0  0  0  0
    1.3120   26.0830   32.6010 C   0  0  0  0  0  0  0  0  0  0  0  0
    2.6930   20.3120   38.3000 N   0  0  0  0  0  0  0  0  0  0  0  0
    0.8540   28.0040   34.1080 C   0  0  0  0  0  0  0  0  0  0  0  0
    1.7560   25.6270   34.1870 C   0  0  0  0  0  0  0  0  0  0  0  0
    2.0220   17.9420   41.4770 C   0  0  0  0  0  0  0  0  0  0  0  0
   -0.3500   18.2300   44.7950 C   0  0  0  0  0  0  0  0  0  0  0  0
    0.8030   17.8150   42.4660 C   0  0  0  0  0  0  0  0  0  0  0  0
    0.9360   15.2020   37.7390 C   0  0  0  0  0  0  0  0  0  0  0  0
    0.1070   12.1900   37.9690 N   0  0  0  0  0  4  0  0  0  0  0  0
    1.0730   16.6430   37.8810 C   0  0  0  0  0  0  0  0  0  0  0  0
   -0.9560   16.8630   44.8490 O   0  0  0  0  0  0  0  0  0  0  0  0
   -0.2980   14.8930   38.3630 C   0  0  0  0  0  0  0  0  0  0  0  0
    3.4350   15.0230   35.7460 C   0  0  0  0  0  0  0  0  0  0  0  0
    1.2090   17.3840   39.1540 C   0  0  0  0  0  0  0  0  0  0  0  0
    0.9930   27.4780   32.7680 C   0  0  0  0  0  0  0  0  0  0  0  0
    2.0840   20.6940   40.3200 O   0  0  0  0  0  0  0  0  0  0  0  0
    3.4610   24.4010   35.5320 C   0  0  0  0  0  0  0  0  0  0  0  0
   -0.1170   13.2740   39.0120 C   0  0  0  0  0  0  0  0  0  0  0  0
    0.8290   17.3540   36.7800 O   0  0  0  0  0  0  0  0  0  0  0  0
    3.1990   22.3800   36.9780 C   0  0  0  0  0  0  0  0  0  0  0  0
    1.7870   18.3600   39.9580 C   0  0  0  0  0  0  0  0  0  0  0  0
    0.8090   18.4080   43.7830 C   0  0  0  0  0  0  0  0  0  0  0  0
    1.9450   14.5840   35.8930 O   0  0  0  0  0  0  0  0  0  0  0  0
    2.9500   24.7530   34.4890 C   0  0  0  0  0  0  0  0  0  0  0  0
    3.3830   21.6540   38.2420 C   0  0  0  0  0  0  0  0  0  0  0  0
    2.5240   23.6060   36.4870 C   0  0  0  0  0  0  0  0  0  0  0  0
    1.4360   26.8930   34.9360 C   0  0  0  0  0  0  0  0  0  0  0  0
    6.7529   25.2674   37.0903 H   0  0  0  0  0  0  0  0  0  0  0  0
    2.0936   12.2927   37.7217 H   0  0  0  0  0  0  0  0  0  0  0  0
    1.0301   12.3151   36.2208 H   0  0  0  0  0  0  0  0  0  0  0  0
    0.2757   13.9680   36.6804 H   0  0  0  0  0  0  0  0  0  0  0  0
    0.4390   25.5126   32.2509 H   0  0  0  0  0  0  0  0  0  0  0  0
    2.0934   25.8938   31.8502 H   0  0  0  0  0  0  0  0  0  0  0  0
    2.6065   19.7355   37.4508 H   0  0  0  0  0  0  0  0  0  0  0  0
   -0.2017   28.1815   34.3611 H   0  0  0  0  0  0  0  0  0  0  0  0
    1.3459   28.9764   34.2582 H   0  0  0  0  0  0  0  0  0  0  0  0
    1.2248   24.7439   34.5718 H   0  0  0  0  0  0  0  0  0  0  0  0
    2.7022   18.6908   41.9089 H   0  0  0  0  0  0  0  0  0  0  0  0
    2.3858   16.9070   41.3966 H   0  0  0  0  0  0  0  0  0  0  0  0
   -0.0859   17.2539   42.1418 H   0  0  0  0  0  0  0  0  0  0  0  0
    1.9756   15.4291   37.4603 H   0  0  0  0  0  0  0  0  0  0  0  0
   -0.7221   12.0769   37.3685 H   0  0  0  0  0  0  0  0  0  0  0  0
    0.2774   11.2607   38.3791 H   0  0  0  0  0  0  0  0  0  0  0  0
    2.0898   16.4042   38.2263 H   0  0  0  0  0  0  0  0  0  0  0  0
   -0.5072   15.6083   39.1721 H   0  0  0  0  0  0  0  0  0  0  0  0
   -1.1355   14.9517   37.6523 H   0  0  0  0  0  0  0  0  0  0  0  0
    3.8789   15.1538   36.7439 H   0  0  0  0  0  0  0  0  0  0  0  0
    3.9921   14.2508   35.1952 H   0  0  0  0  0  0  0  0  0  0  0  0
    3.4845   15.9739   35.1952 H   0  0  0  0  0  0  0  0  0  0  0  0
    0.1625   17.7085   39.2519 H   0  0  0  0  0  0  0  0  0  0  0  0
    2.0478   16.7209   39.4124 H   0  0  0  0  0  0  0  0  0  0  0  0
    1.7907   28.0535   32.2756 H   0  0  0  0  0  0  0  0  0  0  0  0
   -0.0148   27.5744   32.3379 H   0  0  0  0  0  0  0  0  0  0  0  0
    3.9087   23.5360   35.0207 H   0  0  0  0  0  0  0  0  0  0  0  0
   -1.0304   13.0260   39.5726 H   0  0  0  0  0  0  0  0  0  0  0  0
    0.7863   13.2912   39.6396 H   0  0  0  0  0  0  0  0  0  0  0  0
    0.5184   18.2591   37.0338 H   0  0  0  0  0  0  0  0  0  0  0  0
    4.2393   22.5568   36.6673 H   0  0  0  0  0  0  0  0  0  0  0  0
    2.3796   21.7237   36.6496 H   0  0  0  0  0  0  0  0  0  0  0  0
    0.7866   18.7155   40.2457 H   0  0  0  0  0  0  0  0  0  0  0  0
    1.6771   19.0142   44.0812 H   0  0  0  0  0  0  0  0  0  0  0  0
    2.7068   23.8039   33.9889 H   0  0  0  0  0  0  0  0  0  0  0  0
    3.7155   25.4970   34.2236 H   0  0  0  0  0  0  0  0  0  0  0  0
    4.4608   21.4928   38.3918 H   0  0  0  0  0  0  0  0  0  0  0  0
    2.9272   22.2741   39.0280 H   0  0  0  0  0  0  0  0  0  0  0  0
    2.2589   24.2412   37.3450 H   0  0  0  0  0  0  0  0  0  0  0  0
    1.6180   23.3155   35.9348 H   0  0  0  0  0  0  0  0  0  0  0  0
    2.3667   27.2617   35.3920 H   0  0  0  0  0  0  0  0  0  0  0  0
    0.6606   26.6234   35.6682 H   0  0  0  0  0  0  0  0  0  0  0  0
  3  2  3  0
  4 27  1  0
  4 22  2  0
  5 15  1  0
  6 29  1  0
  6  5  1  0
  6 14  1  0
  7 21  1  0
  7 10  1  0
  8  4  1  0
  9 33  1  0
 10 30  1  0
 10 33  1  0
 11 13  1  0
 12 17  2  0
 12  1  1  0
 13 28  2  3
 14 16  1  0
 14 18  1  0
 15 24  1  0
 16 25  1  0
 16 20  1  0
 18 24  1  0
 19 29  1  0
 21  9  1  0
 23 30  1  0
 23  3  1  0
 23 32  1  0
 26 31  1  0
 27 20  1  0
 27 11  1  0
 28 12  1  0
 31  8  1  0
 32 26  1  0
  2 34  1  0
  5 35  1  0
  5 36  1  0
  6 37  1  0
  7 38  1  0
  7 39  1  0
  8 40  1  0
  9 41  1  0
  9 42  1  0
 10 43  1  0
 11 44  1  0
 11 45  1  0
 13 46  1  0
 14 47  1  0
 15 48  1  0
 15 49  1  0
 16 50  1  0
 18 51  1  0
 18 52  1  0
 19 53  1  0
 19 54  1  0
 19 55  1  0
 20 56  1  0
 20 57  1  0
 21 58  1  0
 21 59  1  0
 23 60  1  0
 24 61  1  0
 24 62  1  0
 25 63  1  0
 26 64  1  0
 26 65  1  0
 27 66  1  0
 28 67  1  0
 30 68  1  0
 30 69  1  0
 31 70  1  0
 31 71  1  0
 32 72  1  0
 32 73  1  0
 33 74  1  0
 33 75  1  0
M  CHG  2   1  -1  15   1
M  END
>  <mol_id>  (45) 
2026-09-18-6fnk-s0-n100-0045

>  <rmsd_to_ref>  (45) 


$$$$

     RDKit          3D

 88 90  0  0  0  0  0  0  0  0999 V2000
    2.8860   21.4070   35.7170 C   0  0  0  0  0  0  0  0  0  0  0  0
    2.8170   22.8710   35.4270 C   0  0  0  0  0  0  0  0  0  0  0  0
   -0.0780   16.2300   37.0580 C   0  0  0  0  0  0  0  0  0  0  0  0
    1.0950   16.9760   37.3690 C   0  0  0  0  0  0  0  0  0  0  0  0
    2.0150   18.2990   39.2880 C   0  0  0  0  0  0  0  0  0  0  0  0
    0.9680   28.5610   35.5840 C   0  0  0  0  0  0  0  0  0  0  0  0
    2.7190   21.6290   38.2240 C   0  0  0  0  0  0  0  0  0  0  0  0
    1.0340   17.8450   38.4720 N   0  0  0  0  0  0  0  0  0  0  0  0
    0.4890   28.1700   33.2220 C   0  0  0  0  0  0  0  0  0  0  0  0
    3.1060   23.4250   34.0850 C   0  0  0  0  0  0  0  0  0  0  0  0
   -0.2080   29.3780   33.7170 N   0  0  0  0  0  4  0  0  0  0  0  0
    4.8890   21.8880   40.5760 C   0  0  0  0  0  0  0  0  0  0  0  0
    2.1020   16.8470   36.5960 O   0  0  0  0  0  0  0  0  0  0  0  0
    1.9630   19.6210   39.7190 N   0  0  0  0  0  4  0  0  0  0  0  0
    2.2480   26.6200   34.7340 C   0  0  0  0  0  0  0  0  0  0  0  0
    1.7930   25.4030   34.9600 C   0  0  0  0  0  0  0  0  0  0  0  0
    0.4250   14.6400   38.8800 C   0  0  0  0  0  0  0  0  0  0  0  0
    0.4400   13.8870   40.0380 C   0  0  0  0  0  0  0  0  0  0  0  0
    3.0950   17.2900   39.6350 O   0  0  0  0  0  0  0  0  0  0  0  0
    0.6140   14.4860   42.6030 O   0  0  0  0  0  0  0  0  0  0  0  0
    3.2020   16.8810   41.0780 C   0  0  0  0  0  0  0  0  0  0  0  0
   -0.3060   12.8450   40.7350 C   0  0  0  0  0  0  0  0  0  0  0  0
    1.9500   24.3640   33.8590 C   0  0  0  0  0  0  0  0  0  0  0  0
    3.7520   21.3280   40.4050 C   0  0  0  0  0  0  0  0  0  0  0  0
    1.3850   27.7860   34.2920 C   0  0  0  0  0  0  0  0  0  0  0  0
   -1.8410   15.0790   39.4560 O   0  0  0  0  0  0  0  0  0  0  0  0
   -0.1400   26.8780   33.1500 C   0  0  0  0  0  0  0  0  0  0  0  0
    4.1120   23.6440   35.0250 C   0  0  0  0  0  0  0  0  0  0  0  0
   -0.7690   14.3990   42.3880 C   0  0  0  0  0  0  0  0  0  0  0  0
   -0.9640   12.8790   42.0910 C   0  0  0  0  0  0  0  0  0  0  0  0
    0.2930   14.7310   37.4920 C   0  0  0  0  0  0  0  0  0  0  0  0
   -0.4620   15.0220   39.8100 C   0  0  0  0  0  0  0  0  0  0  0  0
    0.3390   29.7480   35.0840 C   0  0  0  0  0  0  0  0  0  0  0  0
    2.5300   21.2670   37.1140 C   0  0  0  0  0  0  0  0  0  0  0  0
    2.8060   20.7730   39.4860 C   0  0  0  0  0  0  0  0  0  0  0  0
    3.9037   21.0287   35.5408 H   0  0  0  0  0  0  0  0  0  0  0  0
    2.2107   20.8320   35.0663 H   0  0  0  0  0  0  0  0  0  0  0  0
    2.0040   22.9548   36.1632 H   0  0  0  0  0  0  0  0  0  0  0  0
   -0.9411   16.6010   37.6302 H   0  0  0  0  0  0  0  0  0  0  0  0
   -0.3617   16.3072   35.9980 H   0  0  0  0  0  0  0  0  0  0  0  0
    1.4337   17.9785   40.1651 H   0  0  0  0  0  0  0  0  0  0  0  0
    0.2635   27.9683   36.1860 H   0  0  0  0  0  0  0  0  0  0  0  0
    1.8213   28.7778   36.2435 H   0  0  0  0  0  0  0  0  0  0  0  0
    3.6786   22.1652   38.1834 H   0  0  0  0  0  0  0  0  0  0  0  0
    1.7468   22.1079   38.4124 H   0  0  0  0  0  0  0  0  0  0  0  0
    0.0907   18.1928   38.6960 H   0  0  0  0  0  0  0  0  0  0  0  0
    0.7733   28.5111   32.2156 H   0  0  0  0  0  0  0  0  0  0  0  0
    3.2820   23.1284   33.0404 H   0  0  0  0  0  0  0  0  0  0  0  0
   -0.0529   30.1575   33.0618 H   0  0  0  0  0  0  0  0  0  0  0  0
   -1.2178   29.1885   33.7891 H   0  0  0  0  0  0  0  0  0  0  0  0
    5.2206   22.1617   41.5885 H   0  0  0  0  0  0  0  0  0  0  0  0
    5.5354   22.0960   39.7106 H   0  0  0  0  0  0  0  0  0  0  0  0
    1.0368   19.9376   39.3982 H   0  0  0  0  0  0  0  0  0  0  0  0
    2.3032   19.4336   40.6730 H   0  0  0  0  0  0  0  0  0  0  0  0
    2.7200   26.9399   35.6747 H   0  0  0  0  0  0  0  0  0  0  0  0
    2.8466   26.4511   33.8268 H   0  0  0  0  0  0  0  0  0  0  0  0
    2.3150   25.0188   35.8488 H   0  0  0  0  0  0  0  0  0  0  0  0
    0.7054   25.5317   35.0623 H   0  0  0  0  0  0  0  0  0  0  0  0
    1.2971   14.8683   38.2497 H   0  0  0  0  0  0  0  0  0  0  0  0
    1.3417   13.4078   40.4471 H   0  0  0  0  0  0  0  0  0  0  0  0
    0.7966   14.4975   43.5759 H   0  0  0  0  0  0  0  0  0  0  0  0
    2.9762   17.7441   41.7215 H   0  0  0  0  0  0  0  0  0  0  0  0
    2.4851   16.0725   41.2841 H   0  0  0  0  0  0  0  0  0  0  0  0
    4.2229   16.5272   41.2841 H   0  0  0  0  0  0  0  0  0  0  0  0
   -1.1228   12.5888   40.0442 H   0  0  0  0  0  0  0  0  0  0  0  0
    0.5464   12.2016   40.9985 H   0  0  0  0  0  0  0  0  0  0  0  0
    2.1074   24.8879   32.9047 H   0  0  0  0  0  0  0  0  0  0  0  0
    1.0334   23.7559   33.8523 H   0  0  0  0  0  0  0  0  0  0  0  0
    3.3039   21.2297   41.4048 H   0  0  0  0  0  0  0  0  0  0  0  0
    2.0905   27.8035   33.4482 H   0  0  0  0  0  0  0  0  0  0  0  0
   -2.3921   15.1018   40.2781 H   0  0  0  0  0  0  0  0  0  0  0  0
   -0.3230   26.5021   34.1674 H   0  0  0  0  0  0  0  0  0  0  0  0
   -1.0965   26.9652   32.6138 H   0  0  0  0  0  0  0  0  0  0  0  0
    0.5186   26.1789   32.6138 H   0  0  0  0  0  0  0  0  0  0  0  0
    5.0693   23.1086   34.9417 H   0  0  0  0  0  0  0  0  0  0  0  0
    4.6412   24.5292   35.4076 H   0  0  0  0  0  0  0  0  0  0  0  0
   -1.3313   14.7056   43.2823 H   0  0  0  0  0  0  0  0  0  0  0  0
   -1.1320   15.0553   41.5833 H   0  0  0  0  0  0  0  0  0  0  0  0
   -2.0260   12.5960   42.0461 H   0  0  0  0  0  0  0  0  0  0  0  0
   -0.5594   12.1843   42.8418 H   0  0  0  0  0  0  0  0  0  0  0  0
   -0.5044   14.0503   37.1592 H   0  0  0  0  0  0  0  0  0  0  0  0
    1.2496   14.4529   37.0255 H   0  0  0  0  0  0  0  0  0  0  0  0
   -0.7183   15.8685   40.4640 H   0  0  0  0  0  0  0  0  0  0  0  0
    1.0726   30.5629   34.9959 H   0  0  0  0  0  0  0  0  0  0  0  0
   -0.4558   30.1010   35.7575 H   0  0  0  0  0  0  0  0  0  0  0  0
    1.4476   21.4504   37.0449 H   0  0  0  0  0  0  0  0  0  0  0  0
    3.3093   20.4999   37.2336 H   0  0  0  0  0  0  0  0  0  0  0  0
    2.0603   21.4175   39.9745 H   0  0  0  0  0  0  0  0  0  0  0  0
  1 34  1  0
  2  1  1  0
  3  4  1  0
  3 31  1  0
  4  8  1  0
  5  8  1  0
  5 19  1  0
  5 14  1  0
  9 27  1  0
  9 11  1  0
  9 25  1  0
 10 23  1  0
 10 28  1  0
 10  2  1  0
 11 33  1  0
 13  4  2  0
 15 16  1  0
 17 31  1  0
 17 32  1  0
 17 18  1  0
 18 22  1  0
 19 21  1  0
 22 30  1  0
 23 16  1  0
 24 12  2  3
 25 15  1  0
 25  6  1  0
 28  2  1  0
 29 20  1  0
 30 29  1  0
 32 26  1  0
 32 18  1  0
 33  6  1  0
 34  7  1  0
 35  7  1  0
 35 14  1  0
 35 24  1  0
  1 36  1  0
  1 37  1  0
  2 38  1  0
  3 39  1  0
  3 40  1  0
  5 41  1  0
  6 42  1  0
  6 43  1  0
  7 44  1  0
  7 45  1  0
  8 46  1  0
  9 47  1  0
 10 48  1  0
 11 49  1  0
 11 50  1  0
 12 51  1  0
 12 52  1  0
 14 53  1  0
 14 54  1  0
 15 55  1  0
 15 56  1  0
 16 57  1  0
 16 58  1  0
 17 59  1  0
 18 60  1  0
 20 61  1  0
 21 62  1  0
 21 63  1  0
 21 64  1  0
 22 65  1  0
 22 66  1  0
 23 67  1  0
 23 68  1  0
 24 69  1  0
 25 70  1  0
 26 71  1  0
 27 72  1  0
 27 73  1  0
 27 74  1  0
 28 75  1  0
 28 76  1  0
 29 77  1  0
 29 78  1  0
 30 79  1  0
 30 80  1  0
 31 81  1  0
 31 82  1  0
 32 83  1  0
 33 84  1  0
 33 85  1  0
 34 86  1  0
 34 87  1  0
 35 88  1  0
M  CHG  2  11   1  14   1
M  END
>  <mol_id>  (46) 
2026-09-18-6fnk-s0-n100-0046

>  <rmsd_to_ref>  (46) 


$$$$

     RDKit          3D

 55 57  0  0  0  0  0  0  0  0999 V2000
    1.1120   25.2740   33.5780 C   0  0  0  0  0  0  0  0  0  0  0  0
    2.9080   22.7910   35.6790 C   0  0  0  0  0  0  0  0  0  0  0  0
    5.4230   21.1650   42.5590 C   0  0  0  0  0  0  0  0  0  0  0  0
    0.6070   17.1790   38.7000 C   0  0  0  0  0  0  0  0  0  0  0  0
    3.0970   20.8190   39.2910 S   0  0  0  0  0  0  0  0  0  0  0  0
    2.2420   25.5900   31.5700 C   0  0  0  0  0  0  0  0  0  0  0  0
   -1.1780   15.5580   38.3740 C   0  0  0  0  0  0  0  0  0  0  0  0
    2.5350   18.8240   37.6850 O   0  0  0  0  0  0  0  0  0  0  0  0
    0.9400   16.5060   39.6860 C   0  0  0  0  0  0  0  0  0  0  0  0
    2.2850   21.8360   36.6220 C   0  0  0  0  0  0  0  0  0  0  0  0
    2.4350   19.0990   38.9530 C   0  0  0  0  0  0  0  0  0  0  0  0
    2.8490   24.4640   32.2000 C   0  0  0  0  0  0  0  0  0  0  0  0
    2.3660   24.4470   33.6060 C   0  0  0  0  0  0  0  0  0  0  0  0
   -0.4470   16.6680   37.9670 C   0  0  0  0  0  0  0  0  0  0  0  0
   -0.8290   14.9400   39.5340 C   0  0  0  0  0  0  0  0  0  0  0  0
    2.4370   22.9450   34.1410 C   0  0  0  0  0  0  0  0  0  0  0  0
    3.6560   19.5180   42.8780 C   0  0  0  0  0  0  0  0  0  0  0  0
    0.2290   15.2770   40.2300 C   0  0  0  0  0  0  0  0  0  0  0  0
    5.3610   19.6640   44.5470 O   0  0  0  0  0  0  0  0  0  0  0  0
    4.8970   20.1000   43.2340 C   0  0  0  0  0  0  0  0  0  0  0  0
    2.9260   20.4810   36.2190 O   0  0  0  0  0  0  0  0  0  0  0  0
    3.1100   19.8920   41.6980 C   0  0  0  0  0  0  0  0  0  0  0  0
    1.1250   26.0810   32.3170 C   0  0  0  0  0  0  0  0  0  0  0  0
    3.7720   20.8430   40.8310 C   0  0  0  0  0  0  0  0  0  0  0  0
    1.3070   18.8430   38.7580 C   0  0  0  0  0  0  0  0  0  0  0  0
   -1.5090   13.7930   40.2450 O   0  0  0  0  0  0  0  0  0  0  0  0
    4.8880   21.5470   41.3260 C   0  0  0  0  0  0  0  0  0  0  0  0
    0.2299   24.6170   33.5929 H   0  0  0  0  0  0  0  0  0  0  0  0
    1.0671   25.9343   34.4567 H   0  0  0  0  0  0  0  0  0  0  0  0
    2.7894   23.7859   36.1331 H   0  0  0  0  0  0  0  0  0  0  0  0
    3.9118   22.3575   35.5588 H   0  0  0  0  0  0  0  0  0  0  0  0
    6.2691   21.7227   42.9869 H   0  0  0  0  0  0  0  0  0  0  0  0
    2.9892   26.3921   31.4788 H   0  0  0  0  0  0  0  0  0  0  0  0
    1.8783   25.2728   30.5815 H   0  0  0  0  0  0  0  0  0  0  0  0
   -2.0202   15.1876   37.7711 H   0  0  0  0  0  0  0  0  0  0  0  0
    1.8432   16.8314   40.2230 H   0  0  0  0  0  0  0  0  0  0  0  0
    2.5270   22.0938   37.6636 H   0  0  0  0  0  0  0  0  0  0  0  0
    1.1863   21.8289   36.5699 H   0  0  0  0  0  0  0  0  0  0  0  0
    2.9217   18.6518   39.8323 H   0  0  0  0  0  0  0  0  0  0  0  0
    2.5528   23.5374   31.6865 H   0  0  0  0  0  0  0  0  0  0  0  0
    3.9461   24.5330   32.1601 H   0  0  0  0  0  0  0  0  0  0  0  0
    2.9546   24.9267   34.4019 H   0  0  0  0  0  0  0  0  0  0  0  0
   -0.7190   17.1603   37.0217 H   0  0  0  0  0  0  0  0  0  0  0  0
    1.4355   22.5004   34.0444 H   0  0  0  0  0  0  0  0  0  0  0  0
    3.2000   22.4371   33.5328 H   0  0  0  0  0  0  0  0  0  0  0  0
    3.1559   18.7909   43.5347 H   0  0  0  0  0  0  0  0  0  0  0  0
    0.5688   14.7257   41.1191 H   0  0  0  0  0  0  0  0  0  0  0  0
    4.9397   18.8836   44.9869 H   0  0  0  0  0  0  0  0  0  0  0  0
    3.1659   19.9739   37.0347 H   0  0  0  0  0  0  0  0  0  0  0  0
    2.1438   19.4648   41.3915 H   0  0  0  0  0  0  0  0  0  0  0  0
    1.2524   27.1497   32.5441 H   0  0  0  0  0  0  0  0  0  0  0  0
    0.1824   25.9861   31.7580 H   0  0  0  0  0  0  0  0  0  0  0  0
    0.3922   19.3357   39.1191 H   0  0  0  0  0  0  0  0  0  0  0  0
   -1.1345   13.4442   41.0925 H   0  0  0  0  0  0  0  0  0  0  0  0
    5.3277   22.3780   40.7549 H   0  0  0  0  0  0  0  0  0  0  0  0
  1 13  1  0
  2 10  1  0
  3 20  2  0
  4  9  1  0
  5 24  1  0
  6 12  1  0
  6 23  1  0
  7 15  2  0
  8 25  1  0
  8 11  1  0
  9 18  2  0
 11  5  1  0
 12 13  1  0
 13 16  1  0
 14  7  1  0
 14  4  2  0
 15 18  1  0
 15 26  1  0
 16  2  1  0
 17 20  1  0
 20 19  1  0
 21 10  1  0
 22 17  2  0
 23  1  1  0
 24 27  2  0
 24 22  1  0
 25  4  1  0
 25 11  1  0
 27  3  1  0
  1 28  1  0
  1 29  1  0
  2 30  1  0
  2 31  1  0
  3 32  1  0
  6 33  1  0
  6 34  1  0
  7 35  1  0
  9 36  1  0
 10 37  1  0
 10 38  1  0
 11 39  1  0
 12 40  1  0
 12 41  1  0
 13 42  1  0
 14 43  1  0
 16 44  1  0
 16 45  1  0
 17 46  1  0
 18 47  1  0
 19 48  1  0
 21 49  1  0
 22 50  1  0
 23 51  1  0
 23 52  1  0
 25 53  1  0
 26 54  1  0
 27 55  1  0
M  END
>  <mol_id>  (47) 
2026-09-18-6fnk-s0-n100-0047

>  <rmsd_to_ref>  (47) 


$$$$

     RDKit          3D

 70 72  0  0  0  0  0  0  0  0999 V2000
    3.1320   20.1700   40.5310 N   0  0  0  0  0  0  0  0  0  0  0  0
    0.7530   15.5330   39.6100 S   0  0  0  0  0  0  0  0  0  0  0  0
    3.8870   20.6190   41.6940 C   0  0  0  0  0  0  0  0  0  0  0  0
    2.0780   19.0890   40.9070 C   0  0  0  0  0  0  0  0  0  0  0  0
    2.1360   17.8100   38.6610 O   0  0  0  0  0  0  0  0  0  0  0  0
   -1.0740   16.5710   37.4730 C   0  0  0  0  0  0  0  0  0  0  0  0
   -0.1120   21.0000   33.6580 C   0  0  0  0  0  0  0  0  0  0  0  0
    1.1400   18.0220   44.9110 C   0  0  0  0  0  0  0  0  0  0  0  0
    0.0120   14.4940   37.8540 O   0  0  0  0  0  0  0  0  0  0  0  0
   -0.4400   20.6670   32.3170 C   0  0  0  0  0  0  0  0  0  0  0  0
    0.0280   15.6610   38.0100 C   0  0  0  0  0  0  0  0  0  0  0  0
    0.1540   23.8570   33.4640 C   0  0  0  0  0  0  0  0  0  0  0  0
    0.3130   26.4740   33.4950 N   0  0  0  0  0  0  0  0  0  0  0  0
    6.5620   22.0400   37.8380 F   0  0  0  0  0  0  0  0  0  0  0  0
    1.5980   19.1340   42.1350 N   0  0  0  0  0  0  0  0  0  0  0  0
    0.2400   22.3320   34.1250 C   0  0  0  0  0  0  0  0  0  0  0  0
    2.5320   21.3320   38.4330 C   0  0  0  0  0  0  0  0  0  0  0  0
    4.8020   21.1300   39.2200 C   0  0  0  0  0  0  0  0  0  0  0  0
   -0.7200   19.4750   43.9790 C   0  0  0  0  0  0  0  0  0  0  0  0
    0.6240   17.1460   41.7890 N   0  0  0  0  0  0  0  0  0  0  0  0
    0.0120   18.1770   43.8760 C   0  0  0  0  0  0  0  0  0  0  0  0
   -0.7840   22.9280   32.4980 C   0  0  0  0  0  0  0  0  0  0  0  0
    4.3300   22.2450   37.1220 C   0  0  0  0  0  0  0  0  0  0  0  0
   -1.1070   21.9480   31.8380 C   0  0  0  0  0  0  0  0  0  0  0  0
    5.2410   21.8200   38.0460 C   0  0  0  0  0  0  0  0  0  0  0  0
   -0.0140   24.9020   33.5180 C   0  0  0  0  0  0  0  0  0  0  0  0
   -0.4160   25.7390   32.0280 S   0  0  0  0  0  0  0  0  0  0  0  0
    2.9840   22.0430   37.3320 C   0  0  0  0  0  0  0  0  0  0  0  0
    1.6720   22.1090   34.5100 C   0  0  0  0  0  0  0  0  0  0  0  0
    1.7980   18.0580   39.9530 C   0  0  0  0  0  0  0  0  0  0  0  0
    0.8340   18.1910   42.4970 C   0  0  0  0  0  0  0  0  0  0  0  0
   -0.3580   27.4490   34.2440 C   0  0  0  0  0  0  0  0  0  0  0  0
    3.5090   20.9100   39.3660 C   0  0  0  0  0  0  0  0  0  0  0  0
    1.0710   17.0230   40.6320 N   0  0  0  0  0  0  0  0  0  0  0  0
    3.3657   20.3090   42.6116 H   0  0  0  0  0  0  0  0  0  0  0  0
    4.8917   20.1715   41.6741 H   0  0  0  0  0  0  0  0  0  0  0  0
    3.9735   21.7154   41.6741 H   0  0  0  0  0  0  0  0  0  0  0  0
    2.8837   18.4215   41.2464 H   0  0  0  0  0  0  0  0  0  0  0  0
   -1.6199   17.0218   38.3149 H   0  0  0  0  0  0  0  0  0  0  0  0
   -0.6261   17.3660   36.8586 H   0  0  0  0  0  0  0  0  0  0  0  0
   -1.7699   15.9809   36.8586 H   0  0  0  0  0  0  0  0  0  0  0  0
    0.7460   20.3622   33.9170 H   0  0  0  0  0  0  0  0  0  0  0  0
   -1.0932   20.8743   34.1390 H   0  0  0  0  0  0  0  0  0  0  0  0
    0.7177   18.0800   45.9250 H   0  0  0  0  0  0  0  0  0  0  0  0
    1.6321   17.0478   44.7739 H   0  0  0  0  0  0  0  0  0  0  0  0
    1.8766   18.8274   44.7739 H   0  0  0  0  0  0  0  0  0  0  0  0
    0.4608   20.4391   31.7282 H   0  0  0  0  0  0  0  0  0  0  0  0
   -1.0705   19.7709   32.2199 H   0  0  0  0  0  0  0  0  0  0  0  0
    1.0291   24.4978   33.6472 H   0  0  0  0  0  0  0  0  0  0  0  0
   -0.6473   22.5306   34.7441 H   0  0  0  0  0  0  0  0  0  0  0  0
    1.4647   21.1066   38.5747 H   0  0  0  0  0  0  0  0  0  0  0  0
    5.5222   20.7923   39.9798 H   0  0  0  0  0  0  0  0  0  0  0  0
   -0.8646   19.7313   45.0389 H   0  0  0  0  0  0  0  0  0  0  0  0
   -0.1349   20.2660   43.4870 H   0  0  0  0  0  0  0  0  0  0  0  0
   -1.6996   19.3836   43.4870 H   0  0  0  0  0  0  0  0  0  0  0  0
    0.0655   16.3789   42.1896 H   0  0  0  0  0  0  0  0  0  0  0  0
   -0.7502   17.3927   43.9945 H   0  0  0  0  0  0  0  0  0  0  0  0
   -1.6780   22.9462   33.1386 H   0  0  0  0  0  0  0  0  0  0  0  0
   -0.1233   23.2112   31.6653 H   0  0  0  0  0  0  0  0  0  0  0  0
    4.6723   22.7504   36.2069 H   0  0  0  0  0  0  0  0  0  0  0  0
   -0.8225   22.1213   30.7896 H   0  0  0  0  0  0  0  0  0  0  0  0
   -2.1934   21.8171   31.9504 H   0  0  0  0  0  0  0  0  0  0  0  0
   -0.1554   24.4034   34.4883 H   0  0  0  0  0  0  0  0  0  0  0  0
    2.2566   22.4520   36.6153 H   0  0  0  0  0  0  0  0  0  0  0  0
    1.7591   22.0954   35.6065 H   0  0  0  0  0  0  0  0  0  0  0  0
    2.0155   21.1465   34.1030 H   0  0  0  0  0  0  0  0  0  0  0  0
    2.2919   22.9214   34.1030 H   0  0  0  0  0  0  0  0  0  0  0  0
   -0.2192   27.2474   35.3164 H   0  0  0  0  0  0  0  0  0  0  0  0
    0.0490   28.4418   34.0019 H   0  0  0  0  0  0  0  0  0  0  0  0
   -1.4307   27.4235   34.0019 H   0  0  0  0  0  0  0  0  0  0  0  0
  1  3  1  0
  2 34  1  0
  4  1  1  0
  4 15  1  0
  5 30  2  0
  6 11  1  0
  7 16  1  0
  9 11  2  0
 10  7  1  0
 11  2  1  0
 12 22  1  0
 12 26  1  0
 12 16  1  0
 13 26  1  0
 13 32  1  0
 14 25  1  0
 15 31  2  0
 16 29  1  0
 17 33  2  0
 18 33  1  0
 20 31  1  0
 21 19  1  0
 21  8  1  0
 23 28  2  0
 23 25  1  0
 24 10  1  0
 24 22  1  0
 25 18  2  0
 26 27  1  0
 27 13  1  0
 28 17  1  0
 30 34  1  0
 30  4  1  0
 31 21  1  0
 33  1  1  0
 34 20  1  0
  3 35  1  0
  3 36  1  0
  3 37  1  0
  4 38  1  0
  6 39  1  0
  6 40  1  0
  6 41  1  0
  7 42  1  0
  7 43  1  0
  8 44  1  0
  8 45  1  0
  8 46  1  0
 10 47  1  0
 10 48  1  0
 12 49  1  0
 16 50  1  0
 17 51  1  0
 18 52  1  0
 19 53  1  0
 19 54  1  0
 19 55  1  0
 20 56  1  0
 21 57  1  0
 22 58  1  0
 22 59  1  0
 23 60  1  0
 24 61  1  0
 24 62  1  0
 26 63  1  0
 28 64  1  0
 29 65  1  0
 29 66  1  0
 29 67  1  0
 32 68  1  0
 32 69  1  0
 32 70  1  0
M  END
>  <mol_id>  (48) 
2026-09-18-6fnk-s0-n100-0048

>  <rmsd_to_ref>  (48) 


$$$$

     RDKit          3D

 50 50  0  0  0  0  0  0  0  0999 V2000
    1.4220   17.8140   36.7400 N   0  0  0  0  0  0  0  0  0  0  0  0
    2.5410   22.4730   37.0910 C   0  0  0  0  0  0  0  0  0  0  0  0
   -1.0150   16.9100   39.2330 C   0  0  0  0  0  0  0  0  0  0  0  0
   -2.1260   17.1650   37.1210 C   0  0  0  0  0  0  0  0  0  0  0  0
    6.5490   22.5750   37.5530 C   0  0  0  0  0  0  0  0  0  0  0  0
    3.3360   22.8920   35.8000 C   0  0  0  0  0  0  0  0  0  0  0  0
   -2.1370   16.7670   38.4750 C   0  0  0  0  0  0  0  0  0  0  0  0
    7.0270   22.3710   38.8370 N   0  0  0  0  0  0  0  0  0  0  0  0
    0.5560   22.6990   40.0890 C   0  0  0  0  0  0  0  0  0  0  0  0
    5.0540   22.9200   37.5400 C   0  0  0  0  0  0  0  0  0  0  0  0
    3.7020   23.9300   34.7680 C   0  0  0  0  0  0  0  0  0  0  0  0
    1.4040   22.6660   37.1450 O   0  0  0  0  0  0  0  0  0  0  0  0
    0.2560   17.0580   38.5820 C   0  0  0  0  0  0  0  0  0  0  0  0
    5.0660   21.2740   39.5330 C   0  0  0  0  0  0  0  0  0  0  0  0
    2.8790   21.8950   38.4430 C   0  0  0  0  0  0  0  0  0  0  0  0
    1.3940   16.9050   39.3470 C   0  0  0  0  0  0  0  0  0  0  0  0
   -3.1880   16.0110   38.9360 F   0  0  0  0  0  0  0  0  0  0  0  0
    6.3840   21.8430   39.8220 C   0  0  0  0  0  0  0  0  0  0  0  0
    4.3880   21.8210   38.4480 C   0  0  0  0  0  0  0  0  0  0  0  0
   -0.2980   22.3350   41.3300 C   0  0  0  0  0  0  0  0  0  0  0  0
    1.7150   21.3950   39.6210 S   0  0  0  0  0  0  0  0  0  0  0  0
    0.2430   17.4550   37.2900 C   0  0  0  0  0  0  0  0  0  0  0  0
   -0.8900   17.6100   36.5380 C   0  0  0  0  0  0  0  0  0  0  0  0
    1.4594   18.1233   35.7582 H   0  0  0  0  0  0  0  0  0  0  0  0
    2.2844   17.7787   37.3020 H   0  0  0  0  0  0  0  0  0  0  0  0
   -1.0816   16.9121   40.3310 H   0  0  0  0  0  0  0  0  0  0  0  0
   -3.0480   17.1351   36.5219 H   0  0  0  0  0  0  0  0  0  0  0  0
    7.1080   23.4039   37.0943 H   0  0  0  0  0  0  0  0  0  0  0  0
    6.6852   21.6404   36.9891 H   0  0  0  0  0  0  0  0  0  0  0  0
    4.3498   22.6368   36.1421 H   0  0  0  0  0  0  0  0  0  0  0  0
    2.4510   22.6372   35.1985 H   0  0  0  0  0  0  0  0  0  0  0  0
   -0.1198   22.8877   39.2418 H   0  0  0  0  0  0  0  0  0  0  0  0
    1.1492   23.5884   40.3478 H   0  0  0  0  0  0  0  0  0  0  0  0
    4.8830   23.9239   37.9559 H   0  0  0  0  0  0  0  0  0  0  0  0
    4.6362   22.9313   36.5225 H   0  0  0  0  0  0  0  0  0  0  0  0
    4.0268   24.8512   35.2737 H   0  0  0  0  0  0  0  0  0  0  0  0
    4.5200   23.5491   34.1389 H   0  0  0  0  0  0  0  0  0  0  0  0
    2.8260   24.1464   34.1389 H   0  0  0  0  0  0  0  0  0  0  0  0
    5.1989   20.1994   39.3393 H   0  0  0  0  0  0  0  0  0  0  0  0
    4.4467   21.5006   40.4134 H   0  0  0  0  0  0  0  0  0  0  0  0
    2.8815   22.9067   38.8749 H   0  0  0  0  0  0  0  0  0  0  0  0
    1.1265   16.9410   40.4134 H   0  0  0  0  0  0  0  0  0  0  0  0
    1.8617   15.9359   39.1188 H   0  0  0  0  0  0  0  0  0  0  0  0
    2.1010   17.7162   39.1188 H   0  0  0  0  0  0  0  0  0  0  0  0
    6.8077   21.8209   40.8369 H   0  0  0  0  0  0  0  0  0  0  0  0
    4.6214   20.8842   37.9208 H   0  0  0  0  0  0  0  0  0  0  0  0
    0.2639   22.5745   42.2448 H   0  0  0  0  0  0  0  0  0  0  0  0
   -1.2342   22.9123   41.3130 H   0  0  0  0  0  0  0  0  0  0  0  0
   -0.5299   21.2598   41.3130 H   0  0  0  0  0  0  0  0  0  0  0  0
   -0.8561   18.0551   35.5327 H   0  0  0  0  0  0  0  0  0  0  0  0
  1 22  1  0
  2 12  2  0
  4  7  1  0
  5  8  1  0
  6  2  1  0
  7 17  1  0
  7  3  2  0
  8 18  2  0
  9 20  1  0
 10  5  1  0
 10 19  1  0
 11  6  1  0
 13  3  1  0
 13 16  1  0
 14 18  1  0
 15  2  1  0
 15 21  1  0
 19 15  1  0
 19 14  1  0
 21  9  1  0
 22 13  2  0
 23  4  2  0
 23 22  1  0
  1 24  1  0
  1 25  1  0
  3 26  1  0
  4 27  1  0
  5 28  1  0
  5 29  1  0
  6 30  1  0
  6 31  1  0
  9 32  1  0
  9 33  1  0
 10 34  1  0
 10 35  1  0
 11 36  1  0
 11 37  1  0
 11 38  1  0
 14 39  1  0
 14 40  1  0
 15 41  1  0
 16 42  1  0
 16 43  1  0
 16 44  1  0
 18 45  1  0
 19 46  1  0
 20 47  1  0
 20 48  1  0
 20 49  1  0
 23 50  1  0
M  END
>  <mol_id>  (49) 
2026-09-18-6fnk-s0-n100-0049

>  <rmsd_to_ref>  (49) 


$$$$

     RDKit          3D

 29 29  0  0  0  0  0  0  0  0999 V2000
    2.9990   20.9050   38.0900 C   0  0  0  0  0  0  0  0  0  0  0  0
    0.8710   20.8680   41.4130 C   0  0  0  0  0  0  0  0  0  0  0  0
    2.8460   21.1670   34.0010 C   0  0  0  0  0  0  0  0  0  0  0  0
    1.7280   22.2530   33.8150 C   0  0  0  0  0  0  0  0  0  0  0  0
    2.4760   21.4680   36.7340 C   0  0  0  0  0  0  0  0  0  0  0  0
    1.8270   23.6580   33.9330 C   0  0  0  0  0  0  0  0  0  0  0  0
    2.0770   19.7340   40.6830 S   0  0  0  0  0  0  0  0  0  0  0  0
    3.7310   21.7380   35.3570 S   0  0  0  0  0  0  0  0  0  0  0  0
    3.5170   20.3120   41.9560 C   0  0  0  0  0  0  0  0  0  0  0  0
    2.3340   20.1970   36.7070 C   0  0  0  0  0  0  0  0  0  0  0  0
    2.4850   23.0120   32.7970 C   0  0  0  0  0  0  0  0  0  0  0  0
    4.0726   20.8406   38.3207 H   0  0  0  0  0  0  0  0  0  0  0  0
    2.8183   20.9901   39.1717 H   0  0  0  0  0  0  0  0  0  0  0  0
    0.9314   20.8112   42.5099 H   0  0  0  0  0  0  0  0  0  0  0  0
    1.0894   21.8955   41.0865 H   0  0  0  0  0  0  0  0  0  0  0  0
   -0.1411   20.5868   41.0865 H   0  0  0  0  0  0  0  0  0  0  0  0
    3.4875   21.1054   33.1095 H   0  0  0  0  0  0  0  0  0  0  0  0
    2.4420   20.1543   34.1465 H   0  0  0  0  0  0  0  0  0  0  0  0
    0.8411   21.6942   34.1484 H   0  0  0  0  0  0  0  0  0  0  0  0
    1.8261   22.3514   36.6483 H   0  0  0  0  0  0  0  0  0  0  0  0
    0.9377   24.2830   33.7643 H   0  0  0  0  0  0  0  0  0  0  0  0
    2.1637   24.3390   34.7285 H   0  0  0  0  0  0  0  0  0  0  0  0
    3.1696   20.1726   42.9904 H   0  0  0  0  0  0  0  0  0  0  0  0
    4.4199   19.7066   41.7877 H   0  0  0  0  0  0  0  0  0  0  0  0
    3.7507   21.3736   41.7877 H   0  0  0  0  0  0  0  0  0  0  0  0
    1.3256   19.7594   36.7489 H   0  0  0  0  0  0  0  0  0  0  0  0
    2.6571   19.4017   36.0192 H   0  0  0  0  0  0  0  0  0  0  0  0
    3.5821   22.9444   32.7535 H   0  0  0  0  0  0  0  0  0  0  0  0
    2.4577   23.1144   31.7021 H   0  0  0  0  0  0  0  0  0  0  0  0
  3  8  1  0
  4  6  1  0
  4  3  1  0
  5  1  1  0
  7  2  1  0
  7  9  1  0
  8  5  1  0
 10  5  1  0
 10  1  1  0
 11  4  1  0
 11  6  1  0
  1 12  1  0
  1 13  1  0
  2 14  1  0
  2 15  1  0
  2 16  1  0
  3 17  1  0
  3 18  1  0
  4 19  1  0
  5 20  1  0
  6 21  1  0
  6 22  1  0
  9 23  1  0
  9 24  1  0
  9 25  1  0
 10 26  1  0
 10 27  1  0
 11 28  1  0
 11 29  1  0
M  END
>  <mol_id>  (50) 
2026-09-18-6fnk-s0-n100-0050

>  <rmsd_to_ref>  (50) 


$$$$

     RDKit          3D

 49 48  0  0  0  0  0  0  0  0999 V2000
    2.8800   22.1350   36.9190 C   0  0  0  0  0  0  0  0  0  0  0  0
    0.4270   17.5910   35.7530 O   0  0  0  0  0  0  0  0  0  0  0  0
    3.3350   20.7470   37.9050 N   0  0  0  0  0  0  0  0  0  0  0  0
    0.6290   28.0160   34.6850 O   0  0  0  0  0  0  0  0  0  0  0  0
    1.7670   23.4110   35.8640 C   0  0  0  0  0  0  0  0  0  0  0  0
    5.7490   22.7280   39.6830 C   0  0  0  0  0  0  0  0  0  0  0  0
    2.5140   25.3620   34.9530 C   0  0  0  0  0  0  0  0  0  0  0  0
    5.2280   22.3270   38.3690 C   0  0  0  0  0  0  0  0  0  0  0  0
    4.0510   23.4720   37.8260 S   0  0  0  0  0  0  0  0  0  0  0  0
    2.4390   19.7400   38.0480 C   0  0  0  0  0  0  0  0  0  0  0  0
    1.4500   25.9480   33.9970 C   0  0  0  0  0  0  0  0  0  0  0  0
   -0.7830   16.8440   39.8700 O   0  0  0  0  0  0  0  0  0  0  0  0
    2.2440   19.4370   39.2890 O   0  0  0  0  0  0  0  0  0  0  0  0
    0.5670   15.9610   37.8980 C   0  0  0  0  0  0  0  0  0  0  0  0
   -0.7520   16.0650   37.6170 O   0  0  0  0  0  0  0  0  0  0  0  0
   -1.0210   14.4970   39.5320 O   0  0  0  0  0  0  0  0  0  0  0  0
   -1.3430   15.8460   39.0600 S   0  0  0  0  0  4  0  0  0  0  0  0
    4.4950   21.0660   38.8420 N   0  0  0  0  0  0  0  0  0  0  0  0
   -2.8030   15.9790   38.9250 O   0  0  0  0  0  0  0  0  0  0  0  0
    1.5860   27.5270   33.8820 C   0  0  0  0  0  0  0  0  0  0  0  0
    2.1420   24.7910   36.2350 C   0  0  0  0  0  0  0  0  0  0  0  0
    1.3810   17.4680   36.9900 S   0  0  0  0  0  6  0  0  0  0  0  0
    2.6640   17.0390   36.9320 O   0  0  0  0  0  0  0  0  0  0  0  0
    1.8610   19.3130   36.9000 N   0  0  0  0  0  0  0  0  0  0  0  0
    1.8118   22.3823   37.0078 H   0  0  0  0  0  0  0  0  0  0  0  0
    3.0052   22.0285   35.8314 H   0  0  0  0  0  0  0  0  0  0  0  0
    0.8911   27.8821   35.6302 H   0  0  0  0  0  0  0  0  0  0  0  0
    1.6056   22.8172   36.7758 H   0  0  0  0  0  0  0  0  0  0  0  0
    0.8414   23.4297   35.2700 H   0  0  0  0  0  0  0  0  0  0  0  0
    2.5748   22.9586   35.2700 H   0  0  0  0  0  0  0  0  0  0  0  0
    5.1440   22.2624   40.4750 H   0  0  0  0  0  0  0  0  0  0  0  0
    6.7943   22.3992   39.7789 H   0  0  0  0  0  0  0  0  0  0  0  0
    5.6987   23.8227   39.7789 H   0  0  0  0  0  0  0  0  0  0  0  0
    3.2216   26.1762   35.1682 H   0  0  0  0  0  0  0  0  0  0  0  0
    2.8778   24.4852   34.3973 H   0  0  0  0  0  0  0  0  0  0  0  0
    5.9627   22.2241   37.5568 H   0  0  0  0  0  0  0  0  0  0  0  0
    1.5805   25.5033   32.9994 H   0  0  0  0  0  0  0  0  0  0  0  0
    0.4537   25.7132   34.3998 H   0  0  0  0  0  0  0  0  0  0  0  0
   -0.9151   16.6086   40.8225 H   0  0  0  0  0  0  0  0  0  0  0  0
    0.7389   16.0222   38.9828 H   0  0  0  0  0  0  0  0  0  0  0  0
    0.9887   14.9993   37.5704 H   0  0  0  0  0  0  0  0  0  0  0  0
   -1.0183   14.4856   40.5219 H   0  0  0  0  0  0  0  0  0  0  0  0
    4.1312   21.2208   39.7931 H   0  0  0  0  0  0  0  0  0  0  0  0
   -3.2155   16.0166   39.8242 H   0  0  0  0  0  0  0  0  0  0  0  0
    2.5799   27.8554   34.2202 H   0  0  0  0  0  0  0  0  0  0  0  0
    1.4752   27.8774   32.8452 H   0  0  0  0  0  0  0  0  0  0  0  0
    1.2923   25.3294   36.6801 H   0  0  0  0  0  0  0  0  0  0  0  0
    2.9396   24.8442   36.9906 H   0  0  0  0  0  0  0  0  0  0  0  0
    1.6999   19.9118   36.0776 H   0  0  0  0  0  0  0  0  0  0  0  0
  1  9  1  0
  1  3  1  0
  2 22  2  0
  3 10  1  0
  3 18  1  0
  5 21  1  0
  7 21  1  0
  8 18  1  0
  8  6  1  0
  9  8  1  0
 10 13  2  0
 11  7  1  0
 15 14  1  0
 15 17  1  0
 17 16  1  0
 17 12  1  0
 19 17  1  0
 20 11  1  0
 20  4  1  0
 22 14  1  0
 23 22  2  0
 24 22  1  0
 24 10  1  0
  1 25  1  0
  1 26  1  0
  4 27  1  0
  5 28  1  0
  5 29  1  0
  5 30  1  0
  6 31  1  0
  6 32  1  0
  6 33  1  0
  7 34  1  0
  7 35  1  0
  8 36  1  0
 11 37  1  0
 11 38  1  0
 12 39  1  0
 14 40  1  0
 14 41  1  0
 16 42  1  0
 18 43  1  0
 19 44  1  0
 20 45  1  0
 20 46  1  0
 21 47  1  0
 21 48  1  0
 24 49  1  0
M  END
>  <mol_id>  (51) 
2026-09-18-6fnk-s0-n100-0051

>  <rmsd_to_ref>  (51) 


$$$$

     RDKit          3D

 56 58  0  0  0  0  0  0  0  0999 V2000
    2.9830   20.5740   38.0650 C   0  0  0  0  0  0  0  0  0  0  0  0
    3.6200   20.6830   42.1550 C   0  0  0  0  0  0  0  0  0  0  0  0
   -0.7910   15.3840   38.9600 C   0  0  0  0  0  0  0  0  0  0  0  0
    2.1590   25.2180   31.9460 C   0  0  0  0  0  0  0  0  0  0  0  0
    2.3180   19.7300   38.9090 C   0  0  0  0  0  0  0  0  0  0  0  0
    2.8940   24.2690   32.5130 C   0  0  0  0  0  0  0  0  0  0  0  0
    5.4610   22.1400   40.2300 C   0  0  0  0  0  0  0  0  0  0  0  0
    1.5460   18.4960   38.4360 C   0  0  0  0  0  0  0  0  0  0  0  0
    1.6070   16.1730   39.1790 C   0  0  0  0  0  0  0  0  0  0  0  0
   -1.1430   16.3530   37.8740 C   0  0  0  0  0  0  0  0  0  0  0  0
    1.3240   15.5660   37.9490 C   0  0  0  0  0  0  0  0  0  0  0  0
    4.9890   21.0560   42.6110 C   0  0  0  0  0  0  0  0  0  0  0  0
    4.2840   21.3760   39.8100 C   0  0  0  0  0  0  0  0  0  0  0  0
    1.0940   25.8400   32.4080 C   0  0  0  0  0  0  0  0  0  0  0  0
    0.6130   25.6190   33.5950 C   0  0  0  0  0  0  0  0  0  0  0  0
    2.3850   17.3410   39.0320 N   0  0  0  0  0  4  0  0  0  0  0  0
    3.9890   21.2700   38.5000 C   0  0  0  0  0  0  0  0  0  0  0  0
    1.8040   23.7200   34.3730 C   0  0  0  0  0  0  0  0  0  0  0  0
    3.4470   20.7030   40.7050 C   0  0  0  0  0  0  0  0  0  0  0  0
    5.5800   22.1990   41.7780 C   0  0  0  0  0  0  0  0  0  0  0  0
    2.5790   19.7940   40.2200 C   0  0  0  0  0  0  0  0  0  0  0  0
    2.6750   23.6600   33.4720 C   0  0  0  0  0  0  0  0  0  0  0  0
    0.8290   24.7210   34.4740 C   0  0  0  0  0  0  0  0  0  0  0  0
   -0.0300   15.4650   37.4810 C   0  0  0  0  0  0  0  0  0  0  0  0
    2.6656   20.6639   37.0156 H   0  0  0  0  0  0  0  0  0  0  0  0
    3.4013   19.6668   42.5147 H   0  0  0  0  0  0  0  0  0  0  0  0
    2.9329   21.4371   42.5663 H   0  0  0  0  0  0  0  0  0  0  0  0
   -0.2818   15.7241   39.8738 H   0  0  0  0  0  0  0  0  0  0  0  0
   -1.3119   14.6196   39.5553 H   0  0  0  0  0  0  0  0  0  0  0  0
    2.4875   25.5305   30.9438 H   0  0  0  0  0  0  0  0  0  0  0  0
    3.0159   23.5093   31.7269 H   0  0  0  0  0  0  0  0  0  0  0  0
    3.6971   24.9070   32.9105 H   0  0  0  0  0  0  0  0  0  0  0  0
    5.3801   23.1648   39.8386 H   0  0  0  0  0  0  0  0  0  0  0  0
    6.3566   21.6388   39.8342 H   0  0  0  0  0  0  0  0  0  0  0  0
    0.5201   18.4904   38.8329 H   0  0  0  0  0  0  0  0  0  0  0  0
    1.4279   18.4395   37.3438 H   0  0  0  0  0  0  0  0  0  0  0  0
    0.6587   16.4387   39.6691 H   0  0  0  0  0  0  0  0  0  0  0  0
    2.1840   15.4574   39.7832 H   0  0  0  0  0  0  0  0  0  0  0  0
   -2.1106   16.2418   37.3628 H   0  0  0  0  0  0  0  0  0  0  0  0
   -1.2315   17.4494   37.8785 H   0  0  0  0  0  0  0  0  0  0  0  0
    1.8807   16.1280   37.1846 H   0  0  0  0  0  0  0  0  0  0  0  0
    1.6058   14.5166   38.1201 H   0  0  0  0  0  0  0  0  0  0  0  0
    4.9389   21.3725   43.6633 H   0  0  0  0  0  0  0  0  0  0  0  0
    5.6387   20.1766   42.4906 H   0  0  0  0  0  0  0  0  0  0  0  0
    0.5914   26.5761   31.7634 H   0  0  0  0  0  0  0  0  0  0  0  0
   -0.1367   26.3614   33.9061 H   0  0  0  0  0  0  0  0  0  0  0  0
    3.1767   17.1413   38.4042 H   0  0  0  0  0  0  0  0  0  0  0  0
    2.7241   17.6280   39.9613 H   0  0  0  0  0  0  0  0  0  0  0  0
    4.6249   21.7932   37.7707 H   0  0  0  0  0  0  0  0  0  0  0  0
    1.8060   22.9301   35.1385 H   0  0  0  0  0  0  0  0  0  0  0  0
    6.6523   22.2518   42.0174 H   0  0  0  0  0  0  0  0  0  0  0  0
    4.9716   23.0719   42.0571 H   0  0  0  0  0  0  0  0  0  0  0  0
    2.0795   19.0970   40.9089 H   0  0  0  0  0  0  0  0  0  0  0  0
    3.3939   22.8425   33.6297 H   0  0  0  0  0  0  0  0  0  0  0  0
    0.2034   24.7331   35.3787 H   0  0  0  0  0  0  0  0  0  0  0  0
    0.1509   15.0441   36.4809 H   0  0  0  0  0  0  0  0  0  0  0  0
  1 17  2  0
  1  5  1  0
  2 12  1  0
  4 14  2  0
  4  6  1  0
  5 21  2  0
  6 22  1  0
  7 20  1  0
  8  5  1  0
  8 16  1  0
 10  3  1  0
 11  9  1  0
 13  7  1  0
 13 19  2  0
 14 15  1  0
 15 23  2  0
 16  9  1  0
 17 13  1  0
 18 23  1  0
 19  2  1  0
 20 12  1  0
 21 19  1  0
 22 18  2  0
 24 10  1  0
 24 11  1  0
 24  3  1  0
  1 25  1  0
  2 26  1  0
  2 27  1  0
  3 28  1  0
  3 29  1  0
  4 30  1  0
  6 31  1  0
  6 32  1  0
  7 33  1  0
  7 34  1  0
  8 35  1  0
  8 36  1  0
  9 37  1  0
  9 38  1  0
 10 39  1  0
 10 40  1  0
 11 41  1  0
 11 42  1  0
 12 43  1  0
 12 44  1  0
 14 45  1  0
 15 46  1  0
 16 47  1  0
 16 48  1  0
 17 49  1  0
 18 50  1  0
 20 51  1  0
 20 52  1  0
 21 53  1  0
 22 54  1  0
 23 55  1  0
 24 56  1  0
M  CHG  1  16   1
M  END
>  <mol_id>  (52) 
2026-09-18-6fnk-s0-n100-0052

>  <rmsd_to_ref>  (52) 


$$$$

     RDKit          3D

 47 48  0  0  0  0  0  0  0  0999 V2000
   -1.4770   14.0280   39.8630 O   0  0  0  0  0  0  0  0  0  0  0  0
    6.0770   22.2890   40.2870 O   0  0  0  0  0  0  0  0  0  0  0  0
    3.3860   26.1270   34.8750 C   0  0  0  0  0  0  0  0  0  0  0  0
    2.8010   22.4850   38.6160 C   0  0  0  0  0  0  0  0  0  0  0  0
    1.3010   27.2360   34.5440 O   0  0  0  0  0  1  0  0  0  0  0  0
    3.8210   22.1350   39.5700 C   0  0  0  0  0  0  0  0  0  0  0  0
    1.0570   13.5820   36.2740 C   0  0  0  0  0  0  0  0  0  0  0  0
    1.6530   14.9760   36.2800 C   0  0  0  0  0  0  0  0  0  0  0  0
    5.2090   22.4920   39.2530 C   0  0  0  0  0  0  0  0  0  0  0  0
    4.6120   23.7250   37.2200 C   0  0  0  0  0  0  0  0  0  0  0  0
   -0.9420   15.5170   37.9160 C   0  0  0  0  0  0  0  0  0  0  0  0
    0.5130   16.4640   38.0720 C   0  0  0  0  0  0  0  0  0  0  0  0
    3.1660   23.3070   37.4670 C   0  0  0  0  0  0  0  0  0  0  0  0
    0.9910   17.2740   38.4020 C   0  0  0  0  0  0  0  0  0  0  0  0
    1.1790   16.1300   36.7580 N   0  0  0  0  0  0  0  0  0  0  0  0
   -0.6420   14.0470   38.5580 S   0  0  0  0  0  4  0  0  0  0  0  0
   -2.1220   15.7900   38.0730 F   0  0  0  0  0  0  0  0  0  0  0  0
    2.1480   26.1300   33.0270 O   0  0  0  0  0  0  0  0  0  0  0  0
    3.3320   25.4870   35.8780 C   0  0  0  0  0  0  0  0  0  0  0  0
    0.3330   13.1350   38.5700 O   0  0  0  0  0  0  0  0  0  0  0  0
    5.0120   21.7900   41.7300 S   0  0  0  0  0  0  0  0  0  0  0  0
    0.0010   13.4960   37.1880 C   0  0  0  0  0  0  0  0  0  0  0  0
    1.7350   17.0710   37.0840 C   0  0  0  0  0  0  0  0  0  0  0  0
    2.0930   26.5780   34.1990 C   0  0  0  0  0  0  0  0  0  0  0  0
    5.6170   23.1830   38.1360 C   0  0  0  0  0  0  0  0  0  0  0  0
    3.5730   21.4550   40.6630 O   0  0  0  0  0  0  0  0  0  0  0  0
   -0.8689   14.0418   40.6441 H   0  0  0  0  0  0  0  0  0  0  0  0
    4.3605   26.3914   34.4386 H   0  0  0  0  0  0  0  0  0  0  0  0
    1.7656   22.1391   38.7509 H   0  0  0  0  0  0  0  0  0  0  0  0
    0.6823   13.3530   35.2655 H   0  0  0  0  0  0  0  0  0  0  0  0
    1.8362   12.8610   36.5621 H   0  0  0  0  0  0  0  0  0  0  0  0
    2.6133   14.8496   36.8014 H   0  0  0  0  0  0  0  0  0  0  0  0
    1.4920   15.1957   35.2142 H   0  0  0  0  0  0  0  0  0  0  0  0
    4.8857   24.3995   36.3953 H   0  0  0  0  0  0  0  0  0  0  0  0
   -0.7070   15.5042   36.8415 H   0  0  0  0  0  0  0  0  0  0  0  0
   -0.3179   16.2729   38.4151 H   0  0  0  0  0  0  0  0  0  0  0  0
    0.6225   15.6327   38.7840 H   0  0  0  0  0  0  0  0  0  0  0  0
   -0.5671   16.6378   37.9571 H   0  0  0  0  0  0  0  0  0  0  0  0
    2.3833   23.6315   36.7655 H   0  0  0  0  0  0  0  0  0  0  0  0
    0.3897   18.1916   38.4816 H   0  0  0  0  0  0  0  0  0  0  0  0
    1.4655   17.3720   39.3895 H   0  0  0  0  0  0  0  0  0  0  0  0
    4.2586   25.1582   36.3712 H   0  0  0  0  0  0  0  0  0  0  0  0
    2.3555   25.2247   36.3112 H   0  0  0  0  0  0  0  0  0  0  0  0
   -0.4954   13.3617   36.2156 H   0  0  0  0  0  0  0  0  0  0  0  0
    2.8111   16.8955   37.2300 H   0  0  0  0  0  0  0  0  0  0  0  0
    1.7315   17.9158   36.3796 H   0  0  0  0  0  0  0  0  0  0  0  0
    6.6884   23.3270   37.9329 H   0  0  0  0  0  0  0  0  0  0  0  0
  2 21  1  0
  3 19  2  3
  4  6  2  0
  6 26  1  0
  7  8  1  0
  8 15  1  0
  9  6  1  0
  9  2  1  0
 10 13  2  0
 10 25  1  0
 11 17  1  0
 11 16  1  0
 12 14  1  0
 13  4  1  0
 15 23  1  0
 15 12  1  0
 16 20  1  0
 16  1  1  0
 18 24  2  0
 22  7  1  0
 22 16  1  0
 22 20  1  0
 23 14  1  0
 24  5  1  0
 24  3  1  0
 25  9  2  0
 26 21  1  0
  1 27  1  0
  3 28  1  0
  4 29  1  0
  7 30  1  0
  7 31  1  0
  8 32  1  0
  8 33  1  0
 10 34  1  0
 11 35  1  0
 11 36  1  0
 12 37  1  0
 12 38  1  0
 13 39  1  0
 14 40  1  0
 14 41  1  0
 19 42  1  0
 19 43  1  0
 22 44  1  0
 23 45  1  0
 23 46  1  0
 25 47  1  0
M  CHG  1   5  -1
M  END
>  <mol_id>  (53) 
2026-09-18-6fnk-s0-n100-0053

>  <rmsd_to_ref>  (53) 


$$$$

     RDKit          3D

 64 63  0  0  0  0  0  0  0  0999 V2000
    3.2780   20.3300   41.9640 C   0  0  0  0  0  0  0  0  0  0  0  0
    3.6040   21.1650   39.4810 C   0  0  0  0  0  0  0  0  0  0  0  0
    2.5670   24.1670   34.2410 C   0  0  0  0  0  0  0  0  0  0  0  0
    3.2300   17.4630   37.2890 O   0  0  0  0  0  0  0  0  0  0  0  0
    3.1360   15.6280   35.9430 O   0  0  0  0  0  0  0  0  0  0  0  0
    1.4860   13.8030   35.8090 C   0  0  0  0  0  0  0  0  0  0  0  0
    2.2120   15.5780   36.8610 C   0  0  0  0  0  0  0  0  0  0  0  0
    0.7610   25.8600   31.2720 C   0  0  0  0  0  0  0  0  0  0  0  0
    4.3750   22.7970   37.3640 C   0  0  0  0  0  0  0  0  0  0  0  0
   -0.5560   15.0550   39.6430 C   0  0  0  0  0  0  0  0  0  0  0  0
    3.1130   22.2030   37.2930 C   0  0  0  0  0  0  0  0  0  0  0  0
    2.7630   26.6100   32.4000 C   0  0  0  0  0  0  0  0  0  0  0  0
    1.0210   14.9240   36.3710 C   0  0  0  0  0  0  0  0  0  0  0  0
    2.0700   20.0750   38.2490 O   0  0  0  0  0  0  0  0  0  0  0  0
    1.7770   25.7580   32.4280 C   0  0  0  0  0  0  0  0  0  0  0  0
    1.6040   24.9240   33.5500 N   0  0  0  0  0  4  0  0  0  0  0  0
    4.9120   21.7860   39.5040 C   0  0  0  0  0  0  0  0  0  0  0  0
    5.2660   22.5860   38.3930 C   0  0  0  0  0  0  0  0  0  0  0  0
    4.0240   24.5290   34.1670 C   0  0  0  0  0  0  0  0  0  0  0  0
    1.0800   17.0660   39.6720 C   0  0  0  0  0  0  0  0  0  0  0  0
    2.2310   16.9930   37.4320 C   0  0  0  0  0  0  0  0  0  0  0  0
    1.0110   17.4440   38.2360 C   0  0  0  0  0  0  0  0  0  0  0  0
    0.3890   15.9230   40.0270 C   0  0  0  0  0  0  0  0  0  0  0  0
    2.3700   23.1590   35.1100 C   0  0  0  0  0  0  0  0  0  0  0  0
    2.8920   21.1780   38.2870 C   0  0  0  0  0  0  0  0  0  0  0  0
   -1.5120   14.1920   40.1390 C   0  0  0  0  0  0  0  0  0  0  0  0
    2.1930   22.4880   36.2120 C   0  0  0  0  0  0  0  0  0  0  0  0
    3.1430   20.5130   40.5920 O   0  0  0  0  0  0  0  0  0  0  0  0
    2.7062   21.1051   42.4953 H   0  0  0  0  0  0  0  0  0  0  0  0
    2.8945   19.3369   42.2409 H   0  0  0  0  0  0  0  0  0  0  0  0
    4.3400   20.4033   42.2409 H   0  0  0  0  0  0  0  0  0  0  0  0
    4.0263   15.6762   36.3732 H   0  0  0  0  0  0  0  0  0  0  0  0
    1.7805   13.0931   36.5960 H   0  0  0  0  0  0  0  0  0  0  0  0
    0.7004   13.3528   35.1844 H   0  0  0  0  0  0  0  0  0  0  0  0
    2.3596   14.0411   35.1844 H   0  0  0  0  0  0  0  0  0  0  0  0
    2.3457   14.9139   37.7277 H   0  0  0  0  0  0  0  0  0  0  0  0
   -0.2539   25.9619   31.6838 H   0  0  0  0  0  0  0  0  0  0  0  0
    0.9959   26.7391   30.6539 H   0  0  0  0  0  0  0  0  0  0  0  0
    0.8164   24.9518   30.6539 H   0  0  0  0  0  0  0  0  0  0  0  0
    4.6752   23.4733   36.5501 H   0  0  0  0  0  0  0  0  0  0  0  0
   -1.1736   15.6963   38.9971 H   0  0  0  0  0  0  0  0  0  0  0  0
    0.1805   14.2418   39.5639 H   0  0  0  0  0  0  0  0  0  0  0  0
    3.5254   26.5952   33.1928 H   0  0  0  0  0  0  0  0  0  0  0  0
    2.8327   27.3439   31.5836 H   0  0  0  0  0  0  0  0  0  0  0  0
    0.5059   15.5511   35.6284 H   0  0  0  0  0  0  0  0  0  0  0  0
    0.2831   14.7304   37.1635 H   0  0  0  0  0  0  0  0  0  0  0  0
    2.0312   19.4597   39.0236 H   0  0  0  0  0  0  0  0  0  0  0  0
    1.1974   25.5402   34.2682 H   0  0  0  0  0  0  0  0  0  0  0  0
    1.1128   24.1482   33.0834 H   0  0  0  0  0  0  0  0  0  0  0  0
    5.6007   21.6416   40.3495 H   0  0  0  0  0  0  0  0  0  0  0  0
    6.2646   23.0452   38.3500 H   0  0  0  0  0  0  0  0  0  0  0  0
    4.4290   24.6296   35.1848 H   0  0  0  0  0  0  0  0  0  0  0  0
    4.5712   23.7395   33.6310 H   0  0  0  0  0  0  0  0  0  0  0  0
    4.1381   25.4828   33.6310 H   0  0  0  0  0  0  0  0  0  0  0  0
    0.6747   17.9020   40.2609 H   0  0  0  0  0  0  0  0  0  0  0  0
    2.1395   16.8492   39.8732 H   0  0  0  0  0  0  0  0  0  0  0  0
    0.9326   18.5390   38.1667 H   0  0  0  0  0  0  0  0  0  0  0  0
    0.1335   16.9374   37.8078 H   0  0  0  0  0  0  0  0  0  0  0  0
   -0.0220   16.2393   40.9971 H   0  0  0  0  0  0  0  0  0  0  0  0
    1.1688   15.2949   39.5716 H   0  0  0  0  0  0  0  0  0  0  0  0
   -1.4893   14.2125   41.2386 H   0  0  0  0  0  0  0  0  0  0  0  0
   -2.5062   14.5045   39.7869 H   0  0  0  0  0  0  0  0  0  0  0  0
   -1.3025   13.1712   39.7869 H   0  0  0  0  0  0  0  0  0  0  0  0
    1.1834   22.0713   36.3423 H   0  0  0  0  0  0  0  0  0  0  0  0
  2 17  2  0
  2 28  1  0
  3 24  2  0
  4 21  2  0
  6 13  1  0
  7  5  1  0
  7 21  1  0
  8 15  1  0
  9 18  2  0
 10 23  1  0
 10 26  1  0
 11  9  1  0
 11 25  2  0
 12 15  2  3
 13  7  1  0
 14 25  1  0
 15 16  1  0
 16  3  1  0
 18 17  1  0
 19  3  1  0
 20 23  1  0
 21 22  1  0
 22 20  1  0
 24 27  2  0
 25  2  1  0
 27 11  1  0
 28  1  1  0
  1 29  1  0
  1 30  1  0
  1 31  1  0
  5 32  1  0
  6 33  1  0
  6 34  1  0
  6 35  1  0
  7 36  1  0
  8 37  1  0
  8 38  1  0
  8 39  1  0
  9 40  1  0
 10 41  1  0
 10 42  1  0
 12 43  1  0
 12 44  1  0
 13 45  1  0
 13 46  1  0
 14 47  1  0
 16 48  1  0
 16 49  1  0
 17 50  1  0
 18 51  1  0
 19 52  1  0
 19 53  1  0
 19 54  1  0
 20 55  1  0
 20 56  1  0
 22 57  1  0
 22 58  1  0
 23 59  1  0
 23 60  1  0
 26 61  1  0
 26 62  1  0
 26 63  1  0
 27 64  1  0
M  CHG  1  16   1
M  END
>  <mol_id>  (54) 
2026-09-18-6fnk-s0-n100-0054

>  <rmsd_to_ref>  (54) 


$$$$

     RDKit          3D

 57 60  0  0  0  0  0  0  0  0999 V2000
    0.5250   14.8720   37.7580 C   0  0  0  0  0  0  0  0  0  0  0  0
    1.5050   24.6000   34.4970 C   0  0  0  0  0  0  0  0  0  0  0  0
    2.7860   21.6260   37.8790 C   0  0  0  0  0  0  0  0  0  0  0  0
    0.4210   14.8620   40.3070 C   0  0  0  0  0  0  0  0  0  0  0  0
    1.6430   22.3030   37.5150 C   0  0  0  0  0  0  0  0  0  0  0  0
    2.0610   19.3300   38.6010 C   0  0  0  0  0  0  0  0  0  0  0  0
    0.2950   16.4170   40.0680 C   0  0  0  0  0  0  0  0  0  0  0  0
    2.3540   17.9950   39.4570 C   0  0  0  0  0  0  0  0  0  0  0  0
   -0.0290   12.7150   39.1050 C   0  0  0  0  0  0  0  0  0  0  0  0
   -0.0460   14.1800   39.0290 N   0  0  0  0  0  0  0  0  0  0  0  0
    1.4390   22.5630   36.0900 C   0  0  0  0  0  0  0  0  0  0  0  0
    2.9580   18.4010   40.7840 C   0  0  0  0  0  0  0  0  0  0  0  0
    3.0210   24.6350   33.2480 S   0  0  0  0  0  0  0  0  0  0  0  0
    1.4460   23.8070   35.5650 N   0  0  0  0  0  0  0  0  0  0  0  0
    3.9940   20.5440   39.8310 C   0  0  0  0  0  0  0  0  0  0  0  0
    2.9780   27.1800   31.0080 C   0  0  0  0  0  0  0  0  0  0  0  0
    2.8760   20.4820   38.8040 C   0  0  0  0  0  0  0  0  0  0  0  0
    3.8740   19.4010   40.8320 C   0  0  0  0  0  0  0  0  0  0  0  0
    2.8570   27.2900   32.4970 C   0  0  0  0  0  0  0  0  0  0  0  0
    0.6570   25.6720   34.0860 C   0  0  0  0  0  0  0  0  0  0  0  0
    1.6940   27.2700   33.3130 C   0  0  0  0  0  0  0  0  0  0  0  0
    1.5230   16.0200   37.9680 C   0  0  0  0  0  0  0  0  0  0  0  0
    1.4940   16.6830   39.3050 N   0  0  0  0  0  0  0  0  0  0  0  0
    0.6960   26.3930   32.8410 C   0  0  0  0  0  0  0  0  0  0  0  0
    5.1100   21.5330   39.7450 C   0  0  0  0  0  0  0  0  0  0  0  0
    3.1420   25.8880   31.9170 C   0  0  0  0  0  0  0  0  0  0  0  0
   -0.3268   15.2747   37.1904 H   0  0  0  0  0  0  0  0  0  0  0  0
    1.1012   14.0879   37.2449 H   0  0  0  0  0  0  0  0  0  0  0  0
    3.4463   22.3931   38.3098 H   0  0  0  0  0  0  0  0  0  0  0  0
    2.9974   21.1082   36.9318 H   0  0  0  0  0  0  0  0  0  0  0  0
    1.4671   14.5951   40.5179 H   0  0  0  0  0  0  0  0  0  0  0  0
   -0.1865   14.5450   41.1675 H   0  0  0  0  0  0  0  0  0  0  0  0
    0.7840   21.7142   37.8691 H   0  0  0  0  0  0  0  0  0  0  0  0
    1.7492   23.2988   37.9700 H   0  0  0  0  0  0  0  0  0  0  0  0
    1.2409   19.3515   37.8682 H   0  0  0  0  0  0  0  0  0  0  0  0
   -0.6106   16.6645   39.4947 H   0  0  0  0  0  0  0  0  0  0  0  0
    0.2068   17.0095   40.9906 H   0  0  0  0  0  0  0  0  0  0  0  0
   -0.0254   12.4026   40.1597 H   0  0  0  0  0  0  0  0  0  0  0  0
   -0.9225   12.3116   38.6061 H   0  0  0  0  0  0  0  0  0  0  0  0
    0.8736   12.3324   38.6061 H   0  0  0  0  0  0  0  0  0  0  0  0
    1.2728   21.7086   35.4174 H   0  0  0  0  0  0  0  0  0  0  0  0
    2.6550   17.8864   41.7078 H   0  0  0  0  0  0  0  0  0  0  0  0
    2.0871   27.2968   30.3735 H   0  0  0  0  0  0  0  0  0  0  0  0
    3.5903   27.6729   30.2385 H   0  0  0  0  0  0  0  0  0  0  0  0
    4.5919   19.3853   41.6653 H   0  0  0  0  0  0  0  0  0  0  0  0
    3.2950   28.0784   33.1268 H   0  0  0  0  0  0  0  0  0  0  0  0
   -0.1160   25.9832   34.8041 H   0  0  0  0  0  0  0  0  0  0  0  0
    1.9840   26.9557   34.3264 H   0  0  0  0  0  0  0  0  0  0  0  0
    1.2690   28.2845   33.2991 H   0  0  0  0  0  0  0  0  0  0  0  0
    2.5350   15.6169   37.8153 H   0  0  0  0  0  0  0  0  0  0  0  0
    1.2317   16.7984   37.2474 H   0  0  0  0  0  0  0  0  0  0  0  0
   -0.2506   26.8960   32.5943 H   0  0  0  0  0  0  0  0  0  0  0  0
    0.8683   25.8390   31.9065 H   0  0  0  0  0  0  0  0  0  0  0  0
    5.4286   21.8154   40.7593 H   0  0  0  0  0  0  0  0  0  0  0  0
    5.9573   21.0838   39.2062 H   0  0  0  0  0  0  0  0  0  0  0  0
    4.7659   22.4282   39.2062 H   0  0  0  0  0  0  0  0  0  0  0  0
    3.4617   24.9506   31.4383 H   0  0  0  0  0  0  0  0  0  0  0  0
  1 22  1  0
  1 10  1  0
  2 14  1  0
  3 17  1  0
  5  3  1  0
  6 17  2  0
  6  8  1  0
  7  4  1  0
  8 12  2  0
 10  9  1  0
 10  4  1  0
 11  5  1  0
 12 18  1  0
 13  2  1  0
 14 11  2  3
 15 18  2  0
 17 15  1  0
 19 16  1  0
 19 21  1  0
 20  2  2  0
 22 23  1  0
 23  8  1  0
 23  7  1  0
 24 21  1  0
 24 20  1  0
 25 15  1  0
 26 16  1  0
 26 19  1  0
 26 13  1  0
  1 27  1  0
  1 28  1  0
  3 29  1  0
  3 30  1  0
  4 31  1  0
  4 32  1  0
  5 33  1  0
  5 34  1  0
  6 35  1  0
  7 36  1  0
  7 37  1  0
  9 38  1  0
  9 39  1  0
  9 40  1  0
 11 41  1  0
 12 42  1  0
 16 43  1  0
 16 44  1  0
 18 45  1  0
 19 46  1  0
 20 47  1  0
 21 48  1  0
 21 49  1  0
 22 50  1  0
 22 51  1  0
 24 52  1  0
 24 53  1  0
 25 54  1  0
 25 55  1  0
 25 56  1  0
 26 57  1  0
M  END
>  <mol_id>  (55) 
2026-09-18-6fnk-s0-n100-0055

>  <rmsd_to_ref>  (55) 


$$$$

     RDKit          3D

 94 96  0  0  0  0  0  0  0  0999 V2000
    4.9040   19.9440   43.1330 C   0  0  0  0  0  0  0  0  0  0  0  0
   -2.6100   13.9220   39.2510 N   0  0  0  0  0  0  0  0  0  0  0  0
   -3.4260   12.7150   40.0670 S   0  0  0  0  0  4  0  0  0  0  0  0
    0.0470   25.9570   31.3820 F   0  0  0  0  0  0  0  0  0  0  0  0
    3.9710   21.6020   38.9570 C   0  0  0  0  0  0  0  0  0  0  0  0
    4.3010   25.1210   32.1380 C   0  0  0  0  0  0  0  0  0  0  0  0
   -4.8450   12.3740   40.5770 O   0  0  0  0  0  0  0  0  0  0  0  0
    2.6240   19.3390   37.1950 O   0  0  0  0  0  0  0  0  0  0  0  0
    0.4830   27.6790   29.7800 F   0  0  0  0  0  0  0  0  0  0  0  0
   -2.7680   12.8930   41.4300 O   0  0  0  0  0  0  0  0  0  0  0  0
    0.8280   28.3970   32.2300 C   0  0  0  0  0  0  0  0  0  0  0  0
    0.2900   17.1830   37.4590 C   0  0  0  0  0  0  0  0  0  0  0  0
   -2.4610   15.1280   39.3850 C   0  0  0  0  0  0  0  0  0  0  0  0
   -3.4100   11.4270   39.6050 O   0  0  0  0  0  0  0  0  0  0  0  0
    7.3930   21.5950   37.8750 C   0  0  0  0  0  0  0  0  0  0  0  0
   -1.1310   15.7920   39.0010 C   0  0  0  0  0  0  0  0  0  0  0  0
   -1.1040   30.4920   31.1500 C   0  0  0  0  0  0  0  0  0  0  0  0
    1.9760   27.1210   31.7980 O   0  0  0  0  0  0  0  0  0  0  0  0
    3.8390   19.6240   42.2270 C   0  0  0  0  0  0  0  0  0  0  0  0
    1.1100   17.4820   38.6450 N   0  0  0  0  0  0  0  0  0  0  0  0
    2.0520   19.8650   38.2640 C   0  0  0  0  0  0  0  0  0  0  0  0
   -1.4520   29.4260   31.2530 C   0  0  0  0  0  0  0  0  0  0  0  0
    2.8070   20.6710   39.2550 N   0  0  0  0  0  0  0  0  0  0  0  0
    3.7590   22.0940   37.4680 C   0  0  0  0  0  0  0  0  0  0  0  0
   -1.0620   16.6740   37.7610 C   0  0  0  0  0  0  0  0  0  0  0  0
   -0.3210   15.9560   39.9270 O   0  0  0  0  0  0  0  0  0  0  0  0
    3.4420   25.0880   31.9600 C   0  0  0  0  0  0  0  0  0  0  0  0
    1.1440   16.7250   36.6320 O   0  0  0  0  0  0  0  0  0  0  0  0
    5.3430   21.0710   39.1780 C   0  0  0  0  0  0  0  0  0  0  0  0
    5.7130   23.4500   38.3460 C   0  0  0  0  0  0  0  0  0  0  0  0
    3.4180   26.1030   33.0180 C   0  0  0  0  0  0  0  0  0  0  0  0
    2.1580   20.7780   40.6180 C   0  0  0  0  0  0  0  0  0  0  0  0
    2.5760   26.5250   32.0100 C   0  0  0  0  0  0  0  0  0  0  0  0
    6.3020   22.2220   38.8670 C   0  0  0  0  0  0  0  0  0  0  0  0
    2.7030   26.4810   31.0820 C   0  0  0  0  0  0  0  0  0  0  0  0
    4.7270   23.1760   37.2200 C   0  0  0  0  0  0  0  0  0  0  0  0
    0.9460   16.0900   39.6010 C   0  0  0  0  0  0  0  0  0  0  0  0
   -0.6050   28.1840   31.7880 C   0  0  0  0  0  0  0  0  0  0  0  0
    1.5640   18.6200   39.2230 C   0  0  0  0  0  0  0  0  0  0  0  0
    3.1830   20.8890   41.7310 C   0  0  0  0  0  0  0  0  0  0  0  0
   -2.6020   28.9400   30.6150 O   0  0  0  0  0  0  0  0  0  0  0  0
    1.0110   19.2060   40.8480 S   0  0  0  0  0  0  0  0  0  0  0  0
   -0.2570   26.9900   30.6450 C   0  0  0  0  0  0  0  0  0  0  0  0
    4.5489   19.8373   44.1686 H   0  0  0  0  0  0  0  0  0  0  0  0
    5.7484   19.2599   42.9626 H   0  0  0  0  0  0  0  0  0  0  0  0
    5.2315   20.9802   42.9626 H   0  0  0  0  0  0  0  0  0  0  0  0
   -2.9982   13.8497   38.2997 H   0  0  0  0  0  0  0  0  0  0  0  0
    3.9432   22.4171   39.6951 H   0  0  0  0  0  0  0  0  0  0  0  0
    4.4497   25.1267   33.2279 H   0  0  0  0  0  0  0  0  0  0  0  0
    4.7993   24.2413   31.7046 H   0  0  0  0  0  0  0  0  0  0  0  0
    4.7304   26.0363   31.7046 H   0  0  0  0  0  0  0  0  0  0  0  0
   -4.8485   12.3732   41.5670 H   0  0  0  0  0  0  0  0  0  0  0  0
    3.3226   18.6966   37.4769 H   0  0  0  0  0  0  0  0  0  0  0  0
   -3.4314   12.7136   42.1426 H   0  0  0  0  0  0  0  0  0  0  0  0
    0.8755   28.4041   33.3289 H   0  0  0  0  0  0  0  0  0  0  0  0
    1.4566   27.5824   31.8410 H   0  0  0  0  0  0  0  0  0  0  0  0
    1.1925   29.3592   31.8410 H   0  0  0  0  0  0  0  0  0  0  0  0
   -3.2421   15.6120   38.7803 H   0  0  0  0  0  0  0  0  0  0  0  0
   -2.5022   15.2647   40.4757 H   0  0  0  0  0  0  0  0  0  0  0  0
   -3.4022   10.8013   40.3722 H   0  0  0  0  0  0  0  0  0  0  0  0
    8.1993   21.1316   38.4624 H   0  0  0  0  0  0  0  0  0  0  0  0
    6.9168   20.8328   37.2408 H   0  0  0  0  0  0  0  0  0  0  0  0
    7.8118   22.3902   37.2408 H   0  0  0  0  0  0  0  0  0  0  0  0
   -0.6346   14.9703   38.4640 H   0  0  0  0  0  0  0  0  0  0  0  0
   -1.7910   31.2601   30.7651 H   0  0  0  0  0  0  0  0  0  0  0  0
   -0.0771   30.7652   31.4343 H   0  0  0  0  0  0  0  0  0  0  0  0
    4.2450   19.0649   41.3711 H   0  0  0  0  0  0  0  0  0  0  0  0
    3.0907   19.0124   42.7524 H   0  0  0  0  0  0  0  0  0  0  0  0
    1.3371   20.5426   37.7744 H   0  0  0  0  0  0  0  0  0  0  0  0
    3.9360   21.2635   36.7687 H   0  0  0  0  0  0  0  0  0  0  0  0
    2.7295   22.4522   37.3200 H   0  0  0  0  0  0  0  0  0  0  0  0
   -1.7297   17.5350   37.9118 H   0  0  0  0  0  0  0  0  0  0  0  0
   -1.3632   16.0475   36.9085 H   0  0  0  0  0  0  0  0  0  0  0  0
    3.1842   24.1717   31.4087 H   0  0  0  0  0  0  0  0  0  0  0  0
    5.4626   20.7467   40.2223 H   0  0  0  0  0  0  0  0  0  0  0  0
    5.5430   20.1989   38.5381 H   0  0  0  0  0  0  0  0  0  0  0  0
    5.1856   23.9652   39.1624 H   0  0  0  0  0  0  0  0  0  0  0  0
    6.5255   24.0720   37.9424 H   0  0  0  0  0  0  0  0  0  0  0  0
    2.9662   25.8282   33.9825 H   0  0  0  0  0  0  0  0  0  0  0  0
    4.2546   26.6327   33.4971 H   0  0  0  0  0  0  0  0  0  0  0  0
    1.5599   21.6994   40.6752 H   0  0  0  0  0  0  0  0  0  0  0  0
    6.7293   22.5902   39.8114 H   0  0  0  0  0  0  0  0  0  0  0  0
    3.5799   26.9271   30.5901 H   0  0  0  0  0  0  0  0  0  0  0  0
    2.6605   25.7617   30.2508 H   0  0  0  0  0  0  0  0  0  0  0  0
    5.3046   22.9134   36.3214 H   0  0  0  0  0  0  0  0  0  0  0  0
    4.1301   24.0939   37.1141 H   0  0  0  0  0  0  0  0  0  0  0  0
    1.2786   15.2084   39.0334 H   0  0  0  0  0  0  0  0  0  0  0  0
    1.5616   16.1804   40.5081 H   0  0  0  0  0  0  0  0  0  0  0  0
   -1.3063   27.9446   32.6009 H   0  0  0  0  0  0  0  0  0  0  0  0
    2.4347   18.0125   39.5108 H   0  0  0  0  0  0  0  0  0  0  0  0
    3.9838   21.5520   41.3715 H   0  0  0  0  0  0  0  0  0  0  0  0
    2.6078   21.2537   42.5948 H   0  0  0  0  0  0  0  0  0  0  0  0
   -2.8716   27.9948   30.7332 H   0  0  0  0  0  0  0  0  0  0  0  0
   -0.9418   26.4814   29.9504 H   0  0  0  0  0  0  0  0  0  0  0  0
  2 13  1  0
  2  3  1  0
  3  7  1  0
  3 10  1  0
  5 24  1  0
  5 29  1  0
  9 43  1  0
 12 25  1  0
 12 20  1  0
 14  3  1  0
 16 13  1  0
 16 26  1  0
 17 22  2  3
 18 33  1  0
 19  1  1  0
 20 37  1  0
 21  8  1  0
 21 39  1  0
 21 23  1  0
 22 38  1  0
 23  5  1  0
 23 32  1  0
 25 16  1  0
 27 33  1  0
 27  6  1  0
 27 31  1  0
 28 12  2  0
 30 34  1  0
 32 42  1  0
 32 40  1  0
 33 35  1  0
 33 31  1  0
 34 15  1  0
 34 29  1  0
 35 18  1  0
 36 24  1  0
 36 30  1  0
 37 26  1  0
 38 11  1  0
 39 20  1  0
 39 42  1  0
 40 19  1  0
 41 22  1  0
 43  4  1  0
 43 38  1  0
  1 44  1  0
  1 45  1  0
  1 46  1  0
  2 47  1  0
  5 48  1  0
  6 49  1  0
  6 50  1  0
  6 51  1  0
  7 52  1  0
  8 53  1  0
 10 54  1  0
 11 55  1  0
 11 56  1  0
 11 57  1  0
 13 58  1  0
 13 59  1  0
 14 60  1  0
 15 61  1  0
 15 62  1  0
 15 63  1  0
 16 64  1  0
 17 65  1  0
 17 66  1  0
 19 67  1  0
 19 68  1  0
 21 69  1  0
 24 70  1  0
 24 71  1  0
 25 72  1  0
 25 73  1  0
 27 74  1  0
 29 75  1  0
 29 76  1  0
 30 77  1  0
 30 78  1  0
 31 79  1  0
 31 80  1  0
 32 81  1  0
 34 82  1  0
 35 83  1  0
 35 84  1  0
 36 85  1  0
 36 86  1  0
 37 87  1  0
 37 88  1  0
 38 89  1  0
 39 90  1  0
 40 91  1  0
 40 92  1  0
 41 93  1  0
 43 94  1  0
M  END
>  <mol_id>  (56) 
2026-09-18-6fnk-s0-n100-0056

>  <rmsd_to_ref>  (56) 


$$$$

     RDKit          3D

 62 65  0  0  0  0  0  0  0  0999 V2000
   -2.9800   12.2440   42.1070 N   0  0  0  0  0  4  0  0  0  0  0  0
    1.0200   17.2940   39.0150 C   0  0  0  0  0  0  0  0  0  0  0  0
    3.0420   25.1490   33.4450 C   0  0  0  0  0  0  0  0  0  0  0  0
    2.9700   27.5800   34.0060 C   0  0  0  0  0  0  0  0  0  0  0  0
    2.4180   19.5380   39.2150 C   0  0  0  0  0  0  0  0  0  0  0  0
    1.6240   25.6660   33.7470 C   0  0  0  0  0  0  0  0  0  0  0  0
   -1.7770   12.7020   41.3950 C   0  0  0  0  0  0  0  0  0  0  0  0
   -1.2470   14.4890   40.0090 O   0  0  0  0  0  0  0  0  0  0  0  0
    2.0090   18.2730   39.5840 O   0  0  0  0  0  0  0  0  0  0  0  0
    0.9230   17.1830   37.6370 C   0  0  0  0  0  0  0  0  0  0  0  0
    3.7590   24.9740   34.7920 C   0  0  0  0  0  0  0  0  0  0  0  0
    0.4190   16.3930   39.9200 C   0  0  0  0  0  0  0  0  0  0  0  0
    2.8270   19.9110   37.8980 N   0  0  0  0  0  0  0  0  0  0  0  0
    1.6670   27.1390   33.3390 C   0  0  0  0  0  0  0  0  0  0  0  0
   -0.2090   16.4350   37.1910 C   0  0  0  0  0  0  0  0  0  0  0  0
    2.8870   25.1560   36.1180 C   0  0  0  0  0  0  0  0  0  0  0  0
    3.2120   21.5850   39.4290 N   0  0  0  0  0  4  0  0  0  0  0  0
   -0.5880   15.5700   39.3700 C   0  0  0  0  0  0  0  0  0  0  0  0
    2.6430   20.5700   40.0340 C   0  0  0  0  0  0  0  0  0  0  0  0
    3.3510   22.2000   37.0620 N   0  0  0  0  0  4  0  0  0  0  0  0
    1.5260   25.4770   35.3670 C   0  0  0  0  0  0  0  0  0  0  0  0
    2.4580   20.5970   41.4920 C   0  0  0  0  0  0  0  0  0  0  0  0
   -1.7830   14.1130   41.1680 C   0  0  0  0  0  0  0  0  0  0  0  0
    3.1650   21.2630   38.0950 C   0  0  0  0  0  0  0  0  0  0  0  0
   -1.0720   15.7260   37.9930 C   0  0  0  0  0  0  0  0  0  0  0  0
    3.6980   26.2860   34.1510 N   0  0  0  0  0  0  0  0  0  0  0  0
   -2.8215   12.3043   43.1229 H   0  0  0  0  0  0  0  0  0  0  0  0
   -3.7796   12.8394   41.8483 H   0  0  0  0  0  0  0  0  0  0  0  0
   -3.1812   11.2675   41.8483 H   0  0  0  0  0  0  0  0  0  0  0  0
    0.0146   17.7116   38.8577 H   0  0  0  0  0  0  0  0  0  0  0  0
    3.0506   24.5583   32.5171 H   0  0  0  0  0  0  0  0  0  0  0  0
    2.7806   28.0439   34.9853 H   0  0  0  0  0  0  0  0  0  0  0  0
    3.5250   28.3395   33.4358 H   0  0  0  0  0  0  0  0  0  0  0  0
    0.7764   25.1783   33.2434 H   0  0  0  0  0  0  0  0  0  0  0  0
   -0.8917   12.4444   41.9950 H   0  0  0  0  0  0  0  0  0  0  0  0
   -1.7576   12.2043   40.4142 H   0  0  0  0  0  0  0  0  0  0  0  0
    0.8571   18.1957   37.2126 H   0  0  0  0  0  0  0  0  0  0  0  0
    1.8168   16.6382   37.2987 H   0  0  0  0  0  0  0  0  0  0  0  0
    4.4763   24.2083   35.1223 H   0  0  0  0  0  0  0  0  0  0  0  0
    0.7140   16.3360   40.9782 H   0  0  0  0  0  0  0  0  0  0  0  0
    1.7114   27.2557   32.2461 H   0  0  0  0  0  0  0  0  0  0  0  0
    0.7822   27.7211   33.6362 H   0  0  0  0  0  0  0  0  0  0  0  0
   -0.8408   17.1586   36.6550 H   0  0  0  0  0  0  0  0  0  0  0  0
    0.3017   15.6044   36.6817 H   0  0  0  0  0  0  0  0  0  0  0  0
    2.8342   24.2388   36.7229 H   0  0  0  0  0  0  0  0  0  0  0  0
    3.2404   25.8887   36.8584 H   0  0  0  0  0  0  0  0  0  0  0  0
    2.6922   22.4552   39.6116 H   0  0  0  0  0  0  0  0  0  0  0  0
    4.1744   21.7468   39.7583 H   0  0  0  0  0  0  0  0  0  0  0  0
    3.6341   20.1600   40.2783 H   0  0  0  0  0  0  0  0  0  0  0  0
    3.5352   23.1280   37.4693 H   0  0  0  0  0  0  0  0  0  0  0  0
    4.1519   21.9152   36.4803 H   0  0  0  0  0  0  0  0  0  0  0  0
    2.5021   22.2427   36.4803 H   0  0  0  0  0  0  0  0  0  0  0  0
    1.1208   26.4082   35.7897 H   0  0  0  0  0  0  0  0  0  0  0  0
    0.8883   24.5943   35.5226 H   0  0  0  0  0  0  0  0  0  0  0  0
    3.4297   20.4552   41.9876 H   0  0  0  0  0  0  0  0  0  0  0  0
    2.0326   21.5667   41.7897 H   0  0  0  0  0  0  0  0  0  0  0  0
    1.7732   19.7893   41.7897 H   0  0  0  0  0  0  0  0  0  0  0  0
   -1.2175   14.5938   41.9798 H   0  0  0  0  0  0  0  0  0  0  0  0
   -2.8389   14.4200   41.1380 H   0  0  0  0  0  0  0  0  0  0  0  0
    4.2328   21.0025   38.0509 H   0  0  0  0  0  0  0  0  0  0  0  0
   -2.0370   16.2533   38.0196 H   0  0  0  0  0  0  0  0  0  0  0  0
   -1.1628   14.7176   37.5630 H   0  0  0  0  0  0  0  0  0  0  0  0
  2  9  1  0
  2 12  1  0
  3  6  1  0
  3 26  1  0
  3 11  1  0
  4 26  1  0
  5  9  1  0
  5 19  1  0
  6 21  1  0
  7  1  1  0
  8 23  1  0
 10  2  1  0
 11 16  1  0
 13 24  1  0
 13  5  2  0
 14  6  1  0
 14  4  1  0
 15 10  1  0
 15 25  1  0
 17 19  1  0
 18 12  2  0
 18  8  1  0
 19 22  1  0
 20 24  1  0
 21 16  1  0
 23  7  1  0
 24 17  1  0
 25 18  1  0
 26 11  1  0
  1 27  1  0
  1 28  1  0
  1 29  1  0
  2 30  1  0
  3 31  1  0
  4 32  1  0
  4 33  1  0
  6 34  1  0
  7 35  1  0
  7 36  1  0
 10 37  1  0
 10 38  1  0
 11 39  1  0
 12 40  1  0
 14 41  1  0
 14 42  1  0
 15 43  1  0
 15 44  1  0
 16 45  1  0
 16 46  1  0
 17 47  1  0
 17 48  1  0
 19 49  1  0
 20 50  1  0
 20 51  1  0
 20 52  1  0
 21 53  1  0
 21 54  1  0
 22 55  1  0
 22 56  1  0
 22 57  1  0
 23 58  1  0
 23 59  1  0
 24 60  1  0
 25 61  1  0
 25 62  1  0
M  CHG  3   1   1  17   1  20   1
M  END
>  <mol_id>  (57) 
2026-09-18-6fnk-s0-n100-0057

>  <rmsd_to_ref>  (57) 


$$$$

     RDKit          3D

 47 48  0  0  0  0  0  0  0  0999 V2000
    1.3470   18.4210   37.9830 C   0  0  0  0  0  0  0  0  0  0  0  0
    1.7930   20.7010   42.6750 N   0  0  0  0  0  0  0  0  0  0  0  0
    2.0800   24.6200   33.9460 C   0  0  0  0  0  0  0  0  0  0  0  0
    4.0040   23.3660   34.7000 C   0  0  0  0  0  0  0  0  0  0  0  0
    0.4030   16.6990   36.8200 C   0  0  0  0  0  0  0  0  0  0  0  0
    4.0600   21.8560   38.0550 C   0  0  0  0  0  0  0  0  0  0  0  0
    0.0500   17.9190   38.7950 S   0  0  0  0  0  0  0  0  0  0  0  0
    1.5670   25.8170   33.2400 C   0  0  0  0  0  0  0  0  0  0  0  0
    1.9300   23.2730   35.9830 C   0  0  0  0  0  0  0  0  0  0  0  0
    3.3290   24.1880   33.7050 C   0  0  0  0  0  0  0  0  0  0  0  0
    1.3340   24.0550   35.0260 C   0  0  0  0  0  0  0  0  0  0  0  0
    0.4560   15.6650   36.0330 O   0  0  0  0  0  0  0  0  0  0  0  0
    2.6880   20.4670   41.8060 C   0  0  0  0  0  0  0  0  0  0  0  0
    3.7300   21.0670   38.8830 C   0  0  0  0  0  0  0  0  0  0  0  0
   -0.5830   16.9520   37.7350 C   0  0  0  0  0  0  0  0  0  0  0  0
    2.9050   19.8930   39.3760 C   0  0  0  0  0  0  0  0  0  0  0  0
    1.2620   17.6580   36.8680 C   0  0  0  0  0  0  0  0  0  0  0  0
    3.9040   20.9810   41.8350 O   0  0  0  0  0  0  0  0  0  0  0  0
    3.3330   22.9660   35.8990 C   0  0  0  0  0  0  0  0  0  0  0  0
   -2.1490   16.5150   37.8140 C   0  0  0  0  0  0  0  0  0  0  0  0
    2.3050   19.2460   38.4280 N   0  0  0  0  0  4  0  0  0  0  0  0
    4.2300   22.7530   37.0350 C   0  0  0  0  0  0  0  0  0  0  0  0
    2.5980   19.5060   40.6690 C   0  0  0  0  0  0  0  0  0  0  0  0
    2.2940   17.8290   35.7510 C   0  0  0  0  0  0  0  0  0  0  0  0
    1.0010   26.5610   32.9650 N   0  0  0  0  0  0  0  0  0  0  0  0
    0.8643   20.2641   42.5884 H   0  0  0  0  0  0  0  0  0  0  0  0
    1.9954   21.3278   43.4669 H   0  0  0  0  0  0  0  0  0  0  0  0
    5.0430   23.0486   34.5276 H   0  0  0  0  0  0  0  0  0  0  0  0
    0.9749   16.1486   37.5816 H   0  0  0  0  0  0  0  0  0  0  0  0
    1.3324   22.8790   36.8182 H   0  0  0  0  0  0  0  0  0  0  0  0
    3.8368   24.4524   32.7657 H   0  0  0  0  0  0  0  0  0  0  0  0
    0.2538   24.2522   35.0918 H   0  0  0  0  0  0  0  0  0  0  0  0
    0.4984   14.8385   36.5764 H   0  0  0  0  0  0  0  0  0  0  0  0
    4.3540   21.3268   39.7508 H   0  0  0  0  0  0  0  0  0  0  0  0
   -0.8642   17.8597   37.1809 H   0  0  0  0  0  0  0  0  0  0  0  0
    3.8102   19.2687   39.4041 H   0  0  0  0  0  0  0  0  0  0  0  0
   -2.4533   16.4301   38.8677 H   0  0  0  0  0  0  0  0  0  0  0  0
   -2.7674   17.2749   37.3139 H   0  0  0  0  0  0  0  0  0  0  0  0
   -2.2846   15.5447   37.3139 H   0  0  0  0  0  0  0  0  0  0  0  0
    3.1198   18.7294   38.0672 H   0  0  0  0  0  0  0  0  0  0  0  0
    1.6285   20.0202   38.3657 H   0  0  0  0  0  0  0  0  0  0  0  0
    5.1343   23.3781   37.0734 H   0  0  0  0  0  0  0  0  0  0  0  0
    1.5592   19.1448   40.6478 H   0  0  0  0  0  0  0  0  0  0  0  0
    3.3977   18.7868   40.8997 H   0  0  0  0  0  0  0  0  0  0  0  0
    3.2881   17.9937   36.1923 H   0  0  0  0  0  0  0  0  0  0  0  0
    2.3147   16.9220   35.1289 H   0  0  0  0  0  0  0  0  0  0  0  0
    2.0211   18.6942   35.1289 H   0  0  0  0  0  0  0  0  0  0  0  0
  1 21  1  0
  1  7  1  0
  3 11  2  0
  4 19  1  0
  5 12  1  0
  5 17  1  0
  5 15  1  0
  6 14  2  0
  8  3  1  0
 10  3  1  0
 10  4  2  0
 11  9  1  0
 13 18  2  0
 13  2  1  0
 15 20  1  0
 15  7  1  0
 16 14  1  0
 16 23  1  0
 17  1  2  0
 19  9  2  0
 19 22  1  0
 21 16  1  0
 22  6  2  0
 23 13  1  0
 24 17  1  0
 25  8  3  0
  2 26  1  0
  2 27  1  0
  4 28  1  0
  5 29  1  0
  9 30  1  0
 10 31  1  0
 11 32  1  0
 12 33  1  0
 14 34  1  0
 15 35  1  0
 16 36  1  0
 20 37  1  0
 20 38  1  0
 20 39  1  0
 21 40  1  0
 21 41  1  0
 22 42  1  0
 23 43  1  0
 23 44  1  0
 24 45  1  0
 24 46  1  0
 24 47  1  0
M  CHG  1  21   1
M  END
>  <mol_id>  (58) 
2026-09-18-6fnk-s0-n100-0058

>  <rmsd_to_ref>  (58) 


$$$$

     RDKit          3D

 57 60  0  0  0  0  0  0  0  0999 V2000
    3.5620   19.0890   42.4970 C   0  0  0  0  0  0  0  0  0  0  0  0
    1.5600   18.7420   42.0440 N   0  0  0  0  0  0  0  0  0  0  0  0
   -0.3820   17.2450   44.9890 N   0  0  0  0  0  4  0  0  0  0  0  0
    4.2380   22.7180   32.9470 C   0  0  0  0  0  0  0  0  0  0  0  0
    3.1530   22.8860   33.7190 C   0  0  0  0  0  0  0  0  0  0  0  0
    1.3020   18.7880   43.2930 N   0  0  0  0  0  0  0  0  0  0  0  0
    1.1440   25.4080   31.8500 C   0  0  0  0  0  0  0  0  0  0  0  0
    1.5720   22.1890   34.3800 S   0  0  0  0  0  0  0  0  0  0  0  0
    1.3200   27.3170   33.4440 C   0  0  0  0  0  0  0  0  0  0  0  0
    2.3080   21.1030   35.2300 C   0  0  0  0  0  0  0  0  0  0  0  0
    2.5540   23.6940   34.5180 C   0  0  0  0  0  0  0  0  0  0  0  0
    2.7100   18.3040   41.6910 C   0  0  0  0  0  0  0  0  0  0  0  0
    2.0360   19.7660   39.0020 O   0  0  0  0  0  0  0  0  0  0  0  0
    1.4400   24.8190   34.3830 C   0  0  0  0  0  0  0  0  0  0  0  0
   -0.0900   19.1000   43.5330 C   0  0  0  0  0  0  0  0  0  0  0  0
   -0.9280   18.0490   43.9810 C   0  0  0  0  0  0  0  0  0  0  0  0
    2.9750   18.0130   36.9820 N   0  0  0  0  0  0  0  0  0  0  0  0
    1.9030   18.7190   38.2490 C   0  0  0  0  0  0  0  0  0  0  0  0
    2.0140   18.4790   36.7330 C   0  0  0  0  0  0  0  0  0  0  0  0
    2.5290   25.4650   32.1300 C   0  0  0  0  0  0  0  0  0  0  0  0
    2.5410   19.5900   42.2380 C   0  0  0  0  0  0  0  0  0  0  0  0
    1.6140   25.8490   33.1910 C   0  0  0  0  0  0  0  0  0  0  0  0
   -0.3420   20.2450   43.6880 C   0  0  0  0  0  0  0  0  0  0  0  0
    1.7010   18.6760   39.6590 N   0  0  0  0  0  0  0  0  0  0  0  0
   -0.5070   21.1550   44.3300 O   0  0  0  0  0  0  0  0  0  0  0  0
    2.8660   19.2690   37.3170 O   0  0  0  0  0  0  0  0  0  0  0  0
    2.3750   17.2880   36.1550 C   0  0  0  0  0  0  0  0  0  0  0  0
    3.7558   18.7754   43.5334 H   0  0  0  0  0  0  0  0  0  0  0  0
    4.6047   19.4186   42.3777 H   0  0  0  0  0  0  0  0  0  0  0  0
   -0.6409   17.6262   45.9102 H   0  0  0  0  0  0  0  0  0  0  0  0
   -0.7475   16.2862   44.8992 H   0  0  0  0  0  0  0  0  0  0  0  0
    0.6440   17.2312   44.8992 H   0  0  0  0  0  0  0  0  0  0  0  0
    4.3693   21.7857   32.3782 H   0  0  0  0  0  0  0  0  0  0  0  0
    4.9959   23.5126   32.8831 H   0  0  0  0  0  0  0  0  0  0  0  0
    2.5369   21.9786   33.6347 H   0  0  0  0  0  0  0  0  0  0  0  0
    1.5177   17.8729   43.7137 H   0  0  0  0  0  0  0  0  0  0  0  0
    0.6922   26.1350   31.1591 H   0  0  0  0  0  0  0  0  0  0  0  0
    0.4559   24.6320   31.4835 H   0  0  0  0  0  0  0  0  0  0  0  0
    1.2829   27.5021   34.5277 H   0  0  0  0  0  0  0  0  0  0  0  0
    2.1127   27.9326   32.9938 H   0  0  0  0  0  0  0  0  0  0  0  0
    0.3514   27.5799   32.9938 H   0  0  0  0  0  0  0  0  0  0  0  0
    2.1643   21.3151   36.2997 H   0  0  0  0  0  0  0  0  0  0  0  0
    1.8953   20.1110   34.9942 H   0  0  0  0  0  0  0  0  0  0  0  0
    3.3823   21.1187   34.9942 H   0  0  0  0  0  0  0  0  0  0  0  0
    3.1944   24.3150   35.1616 H   0  0  0  0  0  0  0  0  0  0  0  0
    2.9144   17.4110   41.0821 H   0  0  0  0  0  0  0  0  0  0  0  0
    0.4711   24.3153   34.2504 H   0  0  0  0  0  0  0  0  0  0  0  0
    1.5215   25.4201   35.3006 H   0  0  0  0  0  0  0  0  0  0  0  0
   -0.6276   19.0634   42.5740 H   0  0  0  0  0  0  0  0  0  0  0  0
   -1.8575   18.4941   44.3656 H   0  0  0  0  0  0  0  0  0  0  0  0
   -1.0850   17.3904   43.1140 H   0  0  0  0  0  0  0  0  0  0  0  0
    3.1036   24.5313   32.2201 H   0  0  0  0  0  0  0  0  0  0  0  0
    3.3854   25.9573   31.6460 H   0  0  0  0  0  0  0  0  0  0  0  0
    2.4070   20.6684   42.4084 H   0  0  0  0  0  0  0  0  0  0  0  0
   -0.4970   20.6176   42.6647 H   0  0  0  0  0  0  0  0  0  0  0  0
    2.6906   17.2288   35.1029 H   0  0  0  0  0  0  0  0  0  0  0  0
    2.0028   16.2570   36.0625 H   0  0  0  0  0  0  0  0  0  0  0  0
  2 21  1  0
  2  6  1  0
  4  5  2  3
  6 15  1  0
  7 20  1  0
  7 22  1  0
  8 11  1  0
  8 10  1  0
 11  5  1  0
 12  2  1  0
 12 21  1  0
 12  1  1  0
 13 24  1  0
 14 11  1  0
 15 23  1  0
 15 16  1  0
 16  3  1  0
 17 27  1  0
 17 26  1  0
 18 13  1  0
 18 24  2  0
 19 17  1  0
 19 26  1  0
 19 18  1  0
 20 22  1  0
 21  1  1  0
 22  9  1  0
 22 14  1  0
 23 25  2  0
 27 19  1  0
  1 28  1  0
  1 29  1  0
  3 30  1  0
  3 31  1  0
  3 32  1  0
  4 33  1  0
  4 34  1  0
  5 35  1  0
  6 36  1  0
  7 37  1  0
  7 38  1  0
  9 39  1  0
  9 40  1  0
  9 41  1  0
 10 42  1  0
 10 43  1  0
 10 44  1  0
 11 45  1  0
 12 46  1  0
 14 47  1  0
 14 48  1  0
 15 49  1  0
 16 50  1  0
 16 51  1  0
 20 52  1  0
 20 53  1  0
 21 54  1  0
 23 55  1  0
 27 56  1  0
 27 57  1  0
M  CHG  1   3   1
M  END
>  <mol_id>  (59) 
2026-09-18-6fnk-s0-n100-0059

>  <rmsd_to_ref>  (59) 


$$$$

     RDKit          3D

 46 47  0  0  0  0  0  0  0  0999 V2000
   -1.8460   15.2730   39.0650 C   0  0  0  0  0  0  0  0  0  0  0  0
    3.5020   21.1950   40.5120 C   0  0  0  0  0  0  0  0  0  0  0  0
    2.2390   21.0840   41.3000 O   0  0  0  0  0  0  0  0  0  0  0  0
    2.9320   23.8670   34.7580 C   0  0  0  0  0  0  0  0  0  0  0  0
    0.9400   17.8670   38.9010 C   0  0  0  0  0  0  0  0  0  0  0  0
    2.2820   25.9040   32.8930 C   0  0  0  0  0  0  0  0  0  0  0  0
    3.4550   25.1560   32.8060 C   0  0  0  0  0  0  0  0  0  0  0  0
    3.3650   21.2690   39.0940 C   0  0  0  0  0  0  0  0  0  0  0  0
    1.4440   25.6430   33.9390 C   0  0  0  0  0  0  0  0  0  0  0  0
    1.9540   22.1730   36.3420 C   0  0  0  0  0  0  0  0  0  0  0  0
   -3.1890   15.0540   39.1000 O   0  0  0  0  0  0  0  0  0  0  0  0
    3.7590   24.0810   33.6760 C   0  0  0  0  0  0  0  0  0  0  0  0
    0.6930   17.4700   40.1470 O   0  0  0  0  0  0  0  0  0  0  0  0
    0.0770   16.8630   38.0250 C   0  0  0  0  0  0  0  0  0  0  0  0
   -1.4030   16.6240   38.4630 C   0  0  0  0  0  0  0  0  0  0  0  0
    3.1310   22.8860   35.9540 C   0  0  0  0  0  0  0  0  0  0  0  0
   -0.8310   14.4860   39.6010 O   0  0  0  0  0  1  0  0  0  0  0  0
    0.5840   16.1640   36.7840 C   0  0  0  0  0  0  0  0  0  0  0  0
    5.4330   22.4600   38.7910 F   0  0  0  0  0  0  0  0  0  0  0  0
    1.7010   21.1840   37.1880 C   0  0  0  0  0  0  0  0  0  0  0  0
    0.7620   15.0240   36.8200 O   0  0  0  0  0  1  0  0  0  0  0  0
    4.2410   22.1320   38.1700 C   0  0  0  0  0  0  0  0  0  0  0  0
    1.7750   24.6700   34.8360 C   0  0  0  0  0  0  0  0  0  0  0  0
    4.2820   22.7280   36.8600 C   0  0  0  0  0  0  0  0  0  0  0  0
    0.7000   16.9160   35.9320 O   0  0  0  0  0  0  0  0  0  0  0  0
    2.2630   20.6180   38.3740 C   0  0  0  0  0  0  0  0  0  0  0  0
    1.6300   19.2820   38.7210 C   0  0  0  0  0  0  0  0  0  0  0  0
    4.0244   22.1040   40.8448 H   0  0  0  0  0  0  0  0  0  0  0  0
    4.0464   20.2583   40.7026 H   0  0  0  0  0  0  0  0  0  0  0  0
    2.4506   21.1026   42.2669 H   0  0  0  0  0  0  0  0  0  0  0  0
    2.0405   26.6755   32.1471 H   0  0  0  0  0  0  0  0  0  0  0  0
    4.1816   25.4140   32.0214 H   0  0  0  0  0  0  0  0  0  0  0  0
    2.6591   22.1052   39.2058 H   0  0  0  0  0  0  0  0  0  0  0  0
    0.5102   26.2123   34.0573 H   0  0  0  0  0  0  0  0  0  0  0  0
    1.5796   21.7792   35.3856 H   0  0  0  0  0  0  0  0  0  0  0  0
    1.5712   22.9663   37.0009 H   0  0  0  0  0  0  0  0  0  0  0  0
    4.6304   23.4349   33.4937 H   0  0  0  0  0  0  0  0  0  0  0  0
    1.1168   17.9387   40.9091 H   0  0  0  0  0  0  0  0  0  0  0  0
   -0.2468   17.6983   37.3867 H   0  0  0  0  0  0  0  0  0  0  0  0
   -1.6345   17.3925   39.2153 H   0  0  0  0  0  0  0  0  0  0  0  0
   -1.9458   16.6522   37.5066 H   0  0  0  0  0  0  0  0  0  0  0  0
    4.0247   22.7644   35.3244 H   0  0  0  0  0  0  0  0  0  0  0  0
    0.6794   21.4254   37.5166 H   0  0  0  0  0  0  0  0  0  0  0  0
    2.1597   20.4265   36.5355 H   0  0  0  0  0  0  0  0  0  0  0  0
    1.0909   24.4995   35.6803 H   0  0  0  0  0  0  0  0  0  0  0  0
    5.2557   23.0968   36.5054 H   0  0  0  0  0  0  0  0  0  0  0  0
  1 11  2  0
  1 17  1  0
  2  3  1  0
  4 23  2  0
  5 13  1  0
  6  9  2  0
  7  6  1  0
  7 12  2  0
  8  2  1  0
  9 23  1  0
 10 20  1  0
 12  4  1  0
 14 15  1  0
 14  5  1  0
 15  1  1  0
 16  4  1  0
 16 10  1  0
 16 24  1  0
 18 21  1  0
 18 14  1  0
 20 26  1  0
 22 19  1  0
 22  8  1  0
 24 22  2  0
 25 18  2  0
 26 27  2  0
 26  8  1  0
 27  5  2  0
  2 28  1  0
  2 29  1  0
  3 30  1  0
  6 31  1  0
  7 32  1  0
  8 33  1  0
  9 34  1  0
 10 35  1  0
 10 36  1  0
 12 37  1  0
 13 38  1  0
 14 39  1  0
 15 40  1  0
 15 41  1  0
 16 42  1  0
 20 43  1  0
 20 44  1  0
 23 45  1  0
 24 46  1  0
M  CHG  2  17  -1  21  -1
M  END
>  <mol_id>  (60) 
2026-09-18-6fnk-s0-n100-0060

>  <rmsd_to_ref>  (60) 


$$$$

     RDKit          3D

 41 39  0  0  0  0  0  0  0  0999 V2000
    1.9180   19.7490   40.1760 C   0  0  0  0  0  0  0  0  0  0  0  0
    2.8820   22.9890   35.5630 C   0  0  0  0  0  0  0  0  0  0  0  0
    1.6790   18.7810   39.0070 C   0  0  0  0  0  0  0  0  0  0  0  0
    4.9050   23.5020   37.2240 C   0  0  0  0  0  0  0  0  0  0  0  0
    0.8760   20.2600   41.0940 C   0  0  0  0  0  0  0  0  0  0  0  0
   -0.7340   16.8100   37.5790 C   0  0  0  0  0  0  0  0  0  0  0  0
    1.0180   17.4830   39.3120 C   0  0  0  0  0  0  0  0  0  0  0  0
    3.4480   24.3760   33.0270 S   0  0  0  0  0  0  0  0  0  0  0  0
    2.7630   21.2740   40.1860 F   0  0  0  0  0  0  0  0  0  0  0  0
   -0.3530   17.2250   38.8320 O   0  0  0  0  0  0  0  0  0  0  0  0
    1.9240   25.1260   34.3570 S   0  0  0  0  0  0  0  0  0  0  0  0
    0.5480   16.6020   36.6770 C   0  0  0  0  0  0  0  0  0  0  0  0
    3.6990   22.5270   36.8600 C   0  0  0  0  0  0  0  0  0  0  0  0
    1.8790   24.1430   35.8970 C   0  0  0  0  0  0  0  0  0  0  0  0
   -0.1260   21.1340   42.9410 O   0  0  0  0  0  0  0  0  0  0  0  0
    0.6510   21.4130   41.8550 C   0  0  0  0  0  0  0  0  0  0  0  0
    2.4975   18.8375   40.3841 H   0  0  0  0  0  0  0  0  0  0  0  0
    2.3195   22.1293   35.1700 H   0  0  0  0  0  0  0  0  0  0  0  0
    3.6002   23.3613   34.8176 H   0  0  0  0  0  0  0  0  0  0  0  0
    2.6589   18.5547   38.5614 H   0  0  0  0  0  0  0  0  0  0  0  0
    0.9719   19.3069   38.3487 H   0  0  0  0  0  0  0  0  0  0  0  0
    4.9983   23.5774   38.3174 H   0  0  0  0  0  0  0  0  0  0  0  0
    5.8394   23.1025   36.8030 H   0  0  0  0  0  0  0  0  0  0  0  0
    4.7101   24.4994   36.8030 H   0  0  0  0  0  0  0  0  0  0  0  0
   -0.0262   20.2177   40.4661 H   0  0  0  0  0  0  0  0  0  0  0  0
    1.2427   19.6771   41.9518 H   0  0  0  0  0  0  0  0  0  0  0  0
   -1.2834   15.8604   37.6591 H   0  0  0  0  0  0  0  0  0  0  0  0
   -1.3821   17.5727   37.1227 H   0  0  0  0  0  0  0  0  0  0  0  0
    1.6568   16.6937   38.8890 H   0  0  0  0  0  0  0  0  0  0  0  0
    0.9037   17.5072   40.4058 H   0  0  0  0  0  0  0  0  0  0  0  0
    4.4851   23.8656   33.7624 H   0  0  0  0  0  0  0  0  0  0  0  0
    1.4292   16.4590   37.3197 H   0  0  0  0  0  0  0  0  0  0  0  0
    0.4095   15.7146   36.0419 H   0  0  0  0  0  0  0  0  0  0  0  0
    0.6971   17.4877   36.0419 H   0  0  0  0  0  0  0  0  0  0  0  0
    3.0074   22.4927   37.7147 H   0  0  0  0  0  0  0  0  0  0  0  0
    4.1324   21.5406   36.6384 H   0  0  0  0  0  0  0  0  0  0  0  0
    0.8697   23.7529   36.0949 H   0  0  0  0  0  0  0  0  0  0  0  0
    2.1388   24.7143   36.8004 H   0  0  0  0  0  0  0  0  0  0  0  0
    0.3854   21.3176   43.7686 H   0  0  0  0  0  0  0  0  0  0  0  0
    1.6169   21.8137   42.1963 H   0  0  0  0  0  0  0  0  0  0  0  0
    0.1290   22.1517   41.2290 H   0  0  0  0  0  0  0  0  0  0  0  0
  1  9  1  0
  1  5  1  0
  2 14  1  0
  2 13  1  0
  3  7  1  0
  3  1  1  0
  5 16  1  0
  6 10  1  0
  8 11  1  0
 10  7  1  0
 11 14  1  0
 12  6  1  0
 13  4  1  0
 16 15  1  0
  1 17  1  0
  2 18  1  0
  2 19  1  0
  3 20  1  0
  3 21  1  0
  4 22  1  0
  4 23  1  0
  4 24  1  0
  5 25  1  0
  5 26  1  0
  6 27  1  0
  6 28  1  0
  7 29  1  0
  7 30  1  0
  8 31  1  0
 12 32  1  0
 12 33  1  0
 12 34  1  0
 13 35  1  0
 13 36  1  0
 14 37  1  0
 14 38  1  0
 15 39  1  0
 16 40  1  0
 16 41  1  0
M  END
>  <mol_id>  (61) 
2026-09-18-6fnk-s0-n100-0061

>  <rmsd_to_ref>  (61) 


$$$$

     RDKit          3D

 63 64  0  0  0  0  0  0  0  0999 V2000
    1.3870   18.3510   38.4710 C   0  0  0  0  0  0  0  0  0  0  0  0
    3.3860   23.5380   34.1730 C   0  0  0  0  0  0  0  0  0  0  0  0
    4.5020   21.5990   38.3600 C   0  0  0  0  0  0  0  0  0  0  0  0
    5.6320   22.4760   37.8000 O   0  0  0  0  0  0  0  0  0  0  0  0
    3.6200   22.6940   36.2210 O   0  0  0  0  0  0  0  0  0  0  0  0
    1.5330   20.4710   42.1370 C   0  0  0  0  0  0  0  0  0  0  0  0
    0.6740   16.6630   36.8640 C   0  0  0  0  0  0  0  0  0  0  0  0
    3.2610   21.6750   37.4900 C   0  0  0  0  0  0  0  0  0  0  0  0
    0.4070   17.3330   39.5560 S   0  0  0  0  0  0  0  0  0  0  0  0
    1.0970   19.8050   41.1100 C   0  0  0  0  0  0  0  0  0  0  0  0
    1.7600   24.9640   30.3740 S   0  0  0  0  0  0  0  0  0  0  0  0
    2.0760   21.8050   35.4960 O   0  0  0  0  0  0  0  0  0  0  0  0
    2.9740   23.3840   32.6010 C   0  0  0  0  0  0  0  0  0  0  0  0
    3.1430   19.8840   37.4280 C   0  0  0  0  0  0  0  0  0  0  0  0
   -1.0240   15.1230   37.9850 N   0  0  0  0  0  4  0  0  0  0  0  0
    1.5770   24.6210   32.1750 C   0  0  0  0  0  0  0  0  0  0  0  0
    2.3940   23.2050   29.4310 S   0  0  0  0  0  0  0  0  0  0  0  0
    1.5710   17.7940   37.1630 N   0  0  0  0  0  4  0  0  0  0  0  0
    3.9640   23.7700   31.7640 C   0  0  0  0  0  0  0  0  0  0  0  0
    2.7820   22.7410   35.3770 C   0  0  0  0  0  0  0  0  0  0  0  0
    1.1970   15.6790   35.9950 O   0  0  0  0  0  0  0  0  0  0  0  0
    4.1610   22.7750   30.2680 S   0  0  0  0  0  4  0  0  0  0  0  0
    0.3220   20.8690   42.8650 C   0  0  0  0  0  0  0  0  0  0  0  0
    5.4310   22.0570   30.9630 C   0  0  0  0  0  0  0  0  0  0  0  0
    0.0820   16.0000   38.1230 C   0  0  0  0  0  0  0  0  0  0  0  0
    2.0480   19.7060   38.6490 C   0  0  0  0  0  0  0  0  0  0  0  0
    1.6260   20.3050   39.7000 N   0  0  0  0  0  4  0  0  0  0  0  0
    2.3009   17.8576   38.8335 H   0  0  0  0  0  0  0  0  0  0  0  0
    3.2073   24.5966   34.4128 H   0  0  0  0  0  0  0  0  0  0  0  0
    4.3895   23.0884   34.1427 H   0  0  0  0  0  0  0  0  0  0  0  0
    4.8463   20.5551   38.4024 H   0  0  0  0  0  0  0  0  0  0  0  0
    4.2442   21.9654   39.3646 H   0  0  0  0  0  0  0  0  0  0  0  0
    6.1436   22.8730   38.5488 H   0  0  0  0  0  0  0  0  0  0  0  0
    2.0994   21.3566   41.8130 H   0  0  0  0  0  0  0  0  0  0  0  0
    2.2159   19.8748   42.7601 H   0  0  0  0  0  0  0  0  0  0  0  0
   -0.1393   17.1546   36.3101 H   0  0  0  0  0  0  0  0  0  0  0  0
    2.2795   22.1172   37.7159 H   0  0  0  0  0  0  0  0  0  0  0  0
    1.3999   18.7547   41.2331 H   0  0  0  0  0  0  0  0  0  0  0  0
    0.0069   19.9518   41.0941 H   0  0  0  0  0  0  0  0  0  0  0  0
    2.7110   22.3233   32.4752 H   0  0  0  0  0  0  0  0  0  0  0  0
    2.7586   19.5217   36.4631 H   0  0  0  0  0  0  0  0  0  0  0  0
    4.0859   19.3268   37.5300 H   0  0  0  0  0  0  0  0  0  0  0  0
   -1.3658   14.8520   38.9181 H   0  0  0  0  0  0  0  0  0  0  0  0
   -1.7773   15.5990   37.4683 H   0  0  0  0  0  0  0  0  0  0  0  0
   -0.7322   14.2811   37.4683 H   0  0  0  0  0  0  0  0  0  0  0  0
    1.6924   25.5473   32.7569 H   0  0  0  0  0  0  0  0  0  0  0  0
    0.5834   24.2147   32.4153 H   0  0  0  0  0  0  0  0  0  0  0  0
    2.5441   17.4658   37.0842 H   0  0  0  0  0  0  0  0  0  0  0  0
    1.3489   18.5386   36.4869 H   0  0  0  0  0  0  0  0  0  0  0  0
    3.7608   24.8062   31.4559 H   0  0  0  0  0  0  0  0  0  0  0  0
    4.8991   23.6471   32.3301 H   0  0  0  0  0  0  0  0  0  0  0  0
    1.5885   14.9424   36.5281 H   0  0  0  0  0  0  0  0  0  0  0  0
    4.4667   22.2981   29.0206 H   0  0  0  0  0  0  0  0  0  0  0  0
    0.5081   20.8078   43.9474 H   0  0  0  0  0  0  0  0  0  0  0  0
    0.0556   21.9019   42.5966 H   0  0  0  0  0  0  0  0  0  0  0  0
   -0.5052   20.1955   42.5966 H   0  0  0  0  0  0  0  0  0  0  0  0
    5.3309   22.1136   32.0570 H   0  0  0  0  0  0  0  0  0  0  0  0
    5.4713   21.0025   30.6526 H   0  0  0  0  0  0  0  0  0  0  0  0
    6.3553   22.5662   30.6526 H   0  0  0  0  0  0  0  0  0  0  0  0
    0.5297   15.0661   38.4936 H   0  0  0  0  0  0  0  0  0  0  0  0
    2.8240   19.2449   39.2777 H   0  0  0  0  0  0  0  0  0  0  0  0
    2.4135   20.9198   39.9506 H   0  0  0  0  0  0  0  0  0  0  0  0
    0.6963   20.5321   39.3192 H   0  0  0  0  0  0  0  0  0  0  0  0
  1 26  1  0
  1  9  1  0
  2 20  1  0
  4  3  1  0
  5  8  1  0
  6 23  1  0
  7 21  1  0
  7 18  1  0
  7 25  1  0
  8 14  1  0
  8  3  1  0
 10  6  1  0
 11 16  1  0
 13  2  1  0
 16 13  1  0
 17 22  1  0
 17 11  1  0
 18  1  1  0
 19 13  1  0
 20 12  2  0
 20  5  1  0
 22 24  1  0
 22 19  1  0
 25 15  1  0
 25  9  1  0
 26 14  1  0
 26 27  1  0
 27 10  1  0
  1 28  1  0
  2 29  1  0
  2 30  1  0
  3 31  1  0
  3 32  1  0
  4 33  1  0
  6 34  1  0
  6 35  1  0
  7 36  1  0
  8 37  1  0
 10 38  1  0
 10 39  1  0
 13 40  1  0
 14 41  1  0
 14 42  1  0
 15 43  1  0
 15 44  1  0
 15 45  1  0
 16 46  1  0
 16 47  1  0
 18 48  1  0
 18 49  1  0
 19 50  1  0
 19 51  1  0
 21 52  1  0
 22 53  1  0
 23 54  1  0
 23 55  1  0
 23 56  1  0
 24 57  1  0
 24 58  1  0
 24 59  1  0
 25 60  1  0
 26 61  1  0
 27 62  1  0
 27 63  1  0
M  CHG  3  15   1  18   1  27   1
M  END
>  <mol_id>  (62) 
2026-09-18-6fnk-s0-n100-0062

>  <rmsd_to_ref>  (62) 


$$$$

     RDKit          3D

 66 67  0  0  0  0  0  0  0  0999 V2000
    5.6240   23.6380   34.7730 S   0  0  0  0  0  0  0  0  0  0  0  0
    2.7690   22.8370   34.2460 C   0  0  0  0  0  0  0  0  0  0  0  0
   -1.9140   13.4830   43.5390 O   0  0  0  0  0  0  0  0  0  0  0  0
    2.9900   20.4120   38.3680 C   0  0  0  0  0  0  0  0  0  0  0  0
    0.8230   24.3740   33.5190 C   0  0  0  0  0  0  0  0  0  0  0  0
    3.1960   21.5140   36.2590 C   0  0  0  0  0  0  0  0  0  0  0  0
    2.4490   18.1030   39.0290 C   0  0  0  0  0  0  0  0  0  0  0  0
    4.1930   22.9660   34.2270 C   0  0  0  0  0  0  0  0  0  0  0  0
    1.3780   17.8000   39.8170 N   0  0  0  0  0  4  0  0  0  0  0  0
    0.7260   16.6230   39.8190 C   0  0  0  0  0  0  0  0  0  0  0  0
   -0.7600   13.5610   43.2820 C   0  0  0  0  0  0  0  0  0  0  0  0
    0.4520   15.3600   42.2120 C   0  0  0  0  0  0  0  0  0  0  0  0
    2.3170   24.2130   33.7060 C   0  0  0  0  0  0  0  0  0  0  0  0
    0.3270   25.8470   33.7020 C   0  0  0  0  0  0  0  0  0  0  0  0
    2.8150   20.9450   39.6560 C   0  0  0  0  0  0  0  0  0  0  0  0
    3.2030   22.8960   35.6330 C   0  0  0  0  0  0  0  0  0  0  0  0
   -0.4240   14.2620   42.0990 N   0  0  0  0  0  0  0  0  0  0  0  0
    1.3770   26.8220   33.3870 C   0  0  0  0  0  0  0  0  0  0  0  0
    0.8240   15.8860   40.9950 N   0  0  0  0  0  0  0  0  0  0  0  0
    2.5600   19.1070   38.1570 N   0  0  0  0  0  4  0  0  0  0  0  0
    0.3920   13.3470   44.0680 N   0  0  0  0  0  0  0  0  0  0  0  0
    3.6120   21.2610   37.5850 N   0  0  0  0  0  4  0  0  0  0  0  0
    0.4580   15.9940   43.2490 O   0  0  0  0  0  0  0  0  0  0  0  0
    3.1490   25.1450   32.7220 C   0  0  0  0  0  0  0  0  0  0  0  0
    2.1960   26.3090   32.2950 C   0  0  0  0  0  0  0  0  0  0  0  0
   -0.1150   16.1940   38.7040 C   0  0  0  0  0  0  0  0  0  0  0  0
    5.4510   24.0240   36.5140 C   0  0  0  0  0  0  0  0  0  0  0  0
    2.0570   22.1113   33.8260 H   0  0  0  0  0  0  0  0  0  0  0  0
    3.9830   20.0379   38.6577 H   0  0  0  0  0  0  0  0  0  0  0  0
    0.3093   23.7394   34.2561 H   0  0  0  0  0  0  0  0  0  0  0  0
    0.5926   24.0808   32.4841 H   0  0  0  0  0  0  0  0  0  0  0  0
    3.8355   20.8894   35.6180 H   0  0  0  0  0  0  0  0  0  0  0  0
    2.1167   21.3130   36.3284 H   0  0  0  0  0  0  0  0  0  0  0  0
    3.2822   18.2489   39.7322 H   0  0  0  0  0  0  0  0  0  0  0  0
    2.3793   17.2667   38.3179 H   0  0  0  0  0  0  0  0  0  0  0  0
    4.7605   22.7511   33.3095 H   0  0  0  0  0  0  0  0  0  0  0  0
    1.7034   17.9345   40.7850 H   0  0  0  0  0  0  0  0  0  0  0  0
    0.6610   18.4069   39.3945 H   0  0  0  0  0  0  0  0  0  0  0  0
   -0.1435   17.1055   40.2892 H   0  0  0  0  0  0  0  0  0  0  0  0
    2.7157   24.6741   34.6217 H   0  0  0  0  0  0  0  0  0  0  0  0
   -0.5298   26.0191   33.0340 H   0  0  0  0  0  0  0  0  0  0  0  0
    0.0422   25.9819   34.7559 H   0  0  0  0  0  0  0  0  0  0  0  0
    3.0659   20.1807   40.4063 H   0  0  0  0  0  0  0  0  0  0  0  0
    3.4744   21.8160   39.7851 H   0  0  0  0  0  0  0  0  0  0  0  0
    1.7677   21.2556   39.7851 H   0  0  0  0  0  0  0  0  0  0  0  0
    3.0223   23.5004   36.5341 H   0  0  0  0  0  0  0  0  0  0  0  0
   -0.8071   13.9789   41.1858 H   0  0  0  0  0  0  0  0  0  0  0  0
    0.9163   27.7742   33.0854 H   0  0  0  0  0  0  0  0  0  0  0  0
    2.0058   26.9874   34.2743 H   0  0  0  0  0  0  0  0  0  0  0  0
    1.7639   15.4783   40.8886 H   0  0  0  0  0  0  0  0  0  0  0  0
    1.6127   19.2109   37.7662 H   0  0  0  0  0  0  0  0  0  0  0  0
    3.3877   18.7641   37.6488 H   0  0  0  0  0  0  0  0  0  0  0  0
    1.3275   13.4677   43.6542 H   0  0  0  0  0  0  0  0  0  0  0  0
    0.2975   13.0700   45.0556 H   0  0  0  0  0  0  0  0  0  0  0  0
    4.5858   20.9314   37.5215 H   0  0  0  0  0  0  0  0  0  0  0  0
    3.4104   22.1601   38.0452 H   0  0  0  0  0  0  0  0  0  0  0  0
    4.0328   25.5482   33.2381 H   0  0  0  0  0  0  0  0  0  0  0  0
    3.5027   24.5810   31.8464 H   0  0  0  0  0  0  0  0  0  0  0  0
    2.8086   27.1339   31.9023 H   0  0  0  0  0  0  0  0  0  0  0  0
    1.5083   25.9025   31.5388 H   0  0  0  0  0  0  0  0  0  0  0  0
   -1.0311   15.7267   39.0943 H   0  0  0  0  0  0  0  0  0  0  0  0
   -0.3817   17.0662   38.0891 H   0  0  0  0  0  0  0  0  0  0  0  0
    0.4346   15.4661   38.0891 H   0  0  0  0  0  0  0  0  0  0  0  0
    5.8278   23.1834   37.1151 H   0  0  0  0  0  0  0  0  0  0  0  0
    6.0291   24.9301   36.7479 H   0  0  0  0  0  0  0  0  0  0  0  0
    4.3899   24.1955   36.7479 H   0  0  0  0  0  0  0  0  0  0  0  0
  1 27  1  0
  2 13  1  0
  2 16  1  0
  4 15  1  0
  5 14  1  0
  5 13  1  0
  6 22  1  0
  7  9  1  0
  8  2  1  0
  8  1  1  0
  8 16  1  0
  9 10  1  0
 10 26  1  0
 10 19  1  0
 11  3  2  0
 11 21  1  0
 12 23  2  0
 16  6  1  0
 17 12  1  0
 17 11  1  0
 18 14  1  0
 19 12  1  0
 20  4  1  0
 20  7  1  0
 22  4  1  0
 24 13  1  0
 25 24  1  0
 25 18  1  0
  2 28  1  0
  4 29  1  0
  5 30  1  0
  5 31  1  0
  6 32  1  0
  6 33  1  0
  7 34  1  0
  7 35  1  0
  8 36  1  0
  9 37  1  0
  9 38  1  0
 10 39  1  0
 13 40  1  0
 14 41  1  0
 14 42  1  0
 15 43  1  0
 15 44  1  0
 15 45  1  0
 16 46  1  0
 17 47  1  0
 18 48  1  0
 18 49  1  0
 19 50  1  0
 20 51  1  0
 20 52  1  0
 21 53  1  0
 21 54  1  0
 22 55  1  0
 22 56  1  0
 24 57  1  0
 24 58  1  0
 25 59  1  0
 25 60  1  0
 26 61  1  0
 26 62  1  0
 26 63  1  0
 27 64  1  0
 27 65  1  0
 27 66  1  0
M  CHG  3   9   1  20   1  22   1
M  END
>  <mol_id>  (63) 
2026-09-18-6fnk-s0-n100-0063

>  <rmsd_to_ref>  (63) 


$$$$

     RDKit          3D

 67 68  0  0  0  0  0  0  0  0999 V2000
    1.9710   17.0290   40.1890 C   0  0  0  0  0  0  0  0  0  0  0  0
    0.1720   15.3230   40.7870 C   0  0  0  0  0  0  0  0  0  0  0  0
   -0.1290   16.3350   37.2310 C   0  0  0  0  0  0  0  0  0  0  0  0
   -0.6680   14.7310   43.1100 C   0  0  0  0  0  0  0  0  0  0  0  0
    5.1910   23.3800   36.6010 C   0  0  0  0  0  0  0  0  0  0  0  0
    2.8580   16.1200   39.3090 O   0  0  0  0  0  0  0  0  0  0  0  0
    2.5730   19.5340   40.4750 C   0  0  0  0  0  0  0  0  0  0  0  0
   -1.1890   13.5330   42.6170 C   0  0  0  0  0  0  0  0  0  0  0  0
    1.7870   23.6350   36.4110 C   0  0  0  0  0  0  0  0  0  0  0  0
    2.9550   23.3600   35.8170 O   0  0  0  0  0  0  0  0  0  0  0  0
    4.5280   22.5710   37.6700 C   0  0  0  0  0  0  0  0  0  0  0  0
    4.1280   23.8470   35.6260 C   0  0  0  0  0  0  0  0  0  0  0  0
    4.1280   24.8290   34.5000 C   0  0  0  0  0  0  0  0  0  0  0  0
   -0.8120   13.0860   41.3480 C   0  0  0  0  0  0  0  0  0  0  0  0
    1.0300   26.9100   31.2740 C   0  0  0  0  0  0  0  0  0  0  0  0
    2.8010   25.5610   34.1070 C   0  0  0  0  0  0  0  0  0  0  0  0
   -0.3850   16.9990   36.2490 O   0  0  0  0  0  0  0  0  0  0  0  0
    1.8290   18.4260   39.3590 C   0  0  0  0  0  0  0  0  0  0  0  0
    5.6170   21.9570   38.5210 F   0  0  0  0  0  0  0  0  0  0  0  0
    0.5970   16.4200   39.6820 C   0  0  0  0  0  0  0  0  0  0  0  0
    1.6400   26.8000   32.5050 C   0  0  0  0  0  0  0  0  0  0  0  0
    1.2370   25.6040   34.5680 C   0  0  0  0  0  0  0  0  0  0  0  0
   -0.5660   15.0030   37.2910 N   0  0  0  0  0  0  0  0  0  0  0  0
    1.4690   17.8770   37.9560 C   0  0  0  0  0  0  0  0  0  0  0  0
    6.4030   23.5460   36.5880 O   0  0  0  0  0  0  0  0  0  0  0  0
   -0.2470   14.0300   40.3830 C   0  0  0  0  0  0  0  0  0  0  0  0
    0.7350   26.7700   33.7010 C   0  0  0  0  0  0  0  0  0  0  0  0
    1.6520   17.6120   41.5390 O   0  0  0  0  0  0  0  0  0  0  0  0
    3.4430   22.0760   37.7120 C   0  0  0  0  0  0  0  0  0  0  0  0
    2.8500   26.0110   32.6660 C   0  0  0  0  0  0  0  0  0  0  0  0
   -2.0540   12.7640   43.1250 N   0  0  0  0  0  0  0  0  0  0  0  0
    0.0550   15.5680   42.2010 C   0  0  0  0  0  0  0  0  0  0  0  0
    0.6440   16.7720   38.1940 N   0  0  0  0  0  0  0  0  0  0  0  0
   -0.8084   15.0219   44.1615 H   0  0  0  0  0  0  0  0  0  0  0  0
    3.4187   15.5454   39.8883 H   0  0  0  0  0  0  0  0  0  0  0  0
    2.3589   19.2152   41.5058 H   0  0  0  0  0  0  0  0  0  0  0  0
    3.6609   19.5430   40.3124 H   0  0  0  0  0  0  0  0  0  0  0  0
    2.1696   20.5444   40.3124 H   0  0  0  0  0  0  0  0  0  0  0  0
    1.9150   23.6049   37.5031 H   0  0  0  0  0  0  0  0  0  0  0  0
    1.4490   24.6373   36.1089 H   0  0  0  0  0  0  0  0  0  0  0  0
    1.0374   22.8888   36.1089 H   0  0  0  0  0  0  0  0  0  0  0  0
    3.9062   24.6590   36.3341 H   0  0  0  0  0  0  0  0  0  0  0  0
    4.8583   25.6100   34.7583 H   0  0  0  0  0  0  0  0  0  0  0  0
    4.3474   24.2076   33.6192 H   0  0  0  0  0  0  0  0  0  0  0  0
   -0.9395   12.0280   41.0752 H   0  0  0  0  0  0  0  0  0  0  0  0
    0.1146   27.5102   31.1655 H   0  0  0  0  0  0  0  0  0  0  0  0
    1.4585   26.3976   30.4001 H   0  0  0  0  0  0  0  0  0  0  0  0
    2.9933   25.9103   35.1322 H   0  0  0  0  0  0  0  0  0  0  0  0
    1.3755   19.3480   38.9661 H   0  0  0  0  0  0  0  0  0  0  0  0
   -0.4958   16.5332   39.6275 H   0  0  0  0  0  0  0  0  0  0  0  0
    0.7155   24.6649   34.3308 H   0  0  0  0  0  0  0  0  0  0  0  0
    1.0759   25.7277   35.6491 H   0  0  0  0  0  0  0  0  0  0  0  0
   -1.1749   14.6269   36.5502 H   0  0  0  0  0  0  0  0  0  0  0  0
   -0.2779   14.4013   38.0758 H   0  0  0  0  0  0  0  0  0  0  0  0
    2.3777   17.5708   37.4170 H   0  0  0  0  0  0  0  0  0  0  0  0
    0.9709   18.6350   37.3337 H   0  0  0  0  0  0  0  0  0  0  0  0
   -0.1459   13.7322   39.3289 H   0  0  0  0  0  0  0  0  0  0  0  0
    0.8002   27.7174   34.2561 H   0  0  0  0  0  0  0  0  0  0  0  0
   -0.3183   26.6392   33.4121 H   0  0  0  0  0  0  0  0  0  0  0  0
    1.9840   17.0052   42.2473 H   0  0  0  0  0  0  0  0  0  0  0  0
    3.1316   21.5081   38.6011 H   0  0  0  0  0  0  0  0  0  0  0  0
    2.7543   22.1876   36.8616 H   0  0  0  0  0  0  0  0  0  0  0  0
    2.8470   25.1466   31.9857 H   0  0  0  0  0  0  0  0  0  0  0  0
    3.7617   26.5794   32.4298 H   0  0  0  0  0  0  0  0  0  0  0  0
   -2.3351   11.9061   42.6291 H   0  0  0  0  0  0  0  0  0  0  0  0
   -2.4777   12.9952   44.0349 H   0  0  0  0  0  0  0  0  0  0  0  0
    0.5548   16.4583   42.6104 H   0  0  0  0  0  0  0  0  0  0  0  0
  1 28  1  0
  2 32  2  0
  3 23  1  0
  3 33  1  0
  5 11  1  0
  6  1  1  0
  8  4  2  0
  8 31  1  0
 10  9  1  0
 11 29  2  3
 11 19  1  0
 12 13  1  0
 12 10  1  0
 12  5  1  0
 14  8  1  0
 15 21  2  3
 16 13  1  0
 16 22  1  0
 17  3  2  0
 18  1  1  0
 18  7  1  0
 20  1  1  0
 20  2  1  0
 21 30  1  0
 21 27  1  0
 24 33  1  0
 24 18  1  0
 25  5  2  0
 26  2  1  0
 26 14  2  0
 27 22  1  0
 30 16  1  0
 32  4  1  0
 33 20  1  0
  4 34  1  0
  6 35  1  0
  7 36  1  0
  7 37  1  0
  7 38  1  0
  9 39  1  0
  9 40  1  0
  9 41  1  0
 12 42  1  0
 13 43  1  0
 13 44  1  0
 14 45  1  0
 15 46  1  0
 15 47  1  0
 16 48  1  0
 18 49  1  0
 20 50  1  0
 22 51  1  0
 22 52  1  0
 23 53  1  0
 23 54  1  0
 24 55  1  0
 24 56  1  0
 26 57  1  0
 27 58  1  0
 27 59  1  0
 28 60  1  0
 29 61  1  0
 29 62  1  0
 30 63  1  0
 30 64  1  0
 31 65  1  0
 31 66  1  0
 32 67  1  0
M  END
>  <mol_id>  (64) 
2026-09-18-6fnk-s0-n100-0064

>  <rmsd_to_ref>  (64) 


$$$$

     RDKit          3D

 44 48  0  0  0  0  0  0  0  0999 V2000
    2.0460   17.0440   36.7870 C   0  0  0  0  0  0  0  0  0  0  0  0
    5.9830   24.0000   35.6570 C   0  0  0  0  0  0  0  0  0  0  0  0
   -0.9300   17.9480   40.7280 C   0  0  0  0  0  0  0  0  0  0  0  0
    1.3130   21.3640   38.4770 C   0  0  0  0  0  0  0  0  0  0  0  0
    2.8640   22.1590   36.9940 C   0  0  0  0  0  0  0  0  0  0  0  0
    7.2730   23.2910   36.2930 C   0  0  0  0  0  0  0  0  0  0  0  0
    1.5440   21.9430   37.2990 N   0  0  0  0  0  0  0  0  0  0  0  0
    1.8130   17.7730   38.0310 C   0  0  0  0  0  0  0  0  0  0  0  0
    6.8020   22.4990   37.4600 C   0  0  0  0  0  0  0  0  0  0  0  0
   -0.3270   16.5710   38.3650 C   0  0  0  0  0  0  0  0  0  0  0  0
   -0.1340   15.8480   37.0950 C   0  0  0  0  0  0  0  0  0  0  0  0
    5.2590   22.4180   37.3480 C   0  0  0  0  0  0  0  0  0  0  0  0
    2.1950   20.8930   39.5030 C   0  0  0  0  0  0  0  0  0  0  0  0
    3.7090   21.1190   39.3030 C   0  0  0  0  0  0  0  0  0  0  0  0
   -1.6860   16.3860   39.0820 C   0  0  0  0  0  0  0  0  0  0  0  0
    0.9880   16.1420   36.3740 C   0  0  0  0  0  0  0  0  0  0  0  0
    0.6880   17.5500   38.8750 C   0  0  0  0  0  0  0  0  0  0  0  0
    4.0060   21.8450   37.9740 C   0  0  0  0  0  0  0  0  0  0  0  0
    1.4960   19.7090   40.4790 S   0  0  0  0  0  0  0  0  0  0  0  0
    2.6840   22.8950   34.6920 O   0  0  0  0  0  0  0  0  0  0  0  0
    0.3280   18.3630   40.0840 C   0  0  0  0  0  0  0  0  0  0  0  0
    3.4440   22.7080   35.7700 C   0  0  0  0  0  0  0  0  0  0  0  0
   -1.6560   16.6710   40.7120 C   0  0  0  0  0  0  0  0  0  0  0  0
    4.8450   23.0960   36.1440 N   0  0  0  0  0  0  0  0  0  0  0  0
    2.9672   17.1712   36.1995 H   0  0  0  0  0  0  0  0  0  0  0  0
    6.0375   24.0162   34.5585 H   0  0  0  0  0  0  0  0  0  0  0  0
    5.8674   25.0535   35.9515 H   0  0  0  0  0  0  0  0  0  0  0  0
   -0.7488   18.1318   41.7973 H   0  0  0  0  0  0  0  0  0  0  0  0
   -1.6070   18.4906   40.0518 H   0  0  0  0  0  0  0  0  0  0  0  0
    0.2462   21.2211   38.7038 H   0  0  0  0  0  0  0  0  0  0  0  0
    7.7439   22.6284   35.5519 H   0  0  0  0  0  0  0  0  0  0  0  0
    8.0199   24.0376   36.6007 H   0  0  0  0  0  0  0  0  0  0  0  0
    2.5463   18.5356   38.3322 H   0  0  0  0  0  0  0  0  0  0  0  0
    7.2377   21.4893   37.4339 H   0  0  0  0  0  0  0  0  0  0  0  0
    7.1063   22.9693   38.4067 H   0  0  0  0  0  0  0  0  0  0  0  0
   -0.8629   15.1032   36.7429 H   0  0  0  0  0  0  0  0  0  0  0  0
    5.3519   21.5232   36.7150 H   0  0  0  0  0  0  0  0  0  0  0  0
    4.4810   20.8016   40.0195 H   0  0  0  0  0  0  0  0  0  0  0  0
   -2.4098   17.0781   38.6270 H   0  0  0  0  0  0  0  0  0  0  0  0
   -1.9597   15.3278   38.9579 H   0  0  0  0  0  0  0  0  0  0  0  0
    1.0989   15.6523   35.3953 H   0  0  0  0  0  0  0  0  0  0  0  0
    0.9060   17.6752   40.7187 H   0  0  0  0  0  0  0  0  0  0  0  0
   -2.6691   16.7709   41.1287 H   0  0  0  0  0  0  0  0  0  0  0  0
   -1.2041   15.8707   41.3165 H   0  0  0  0  0  0  0  0  0  0  0  0
  1  8  2  0
  2 24  1  0
  2  6  1  0
  4 13  1  0
  5  7  1  0
  5 18  2  0
  6  9  1  0
  7  4  2  0
  8 17  1  0
 10 17  2  0
 10 15  1  0
 11 10  1  0
 12  9  1  0
 12 18  1  0
 13 19  1  0
 14 13  2  0
 15 23  1  0
 16  1  1  0
 16 11  2  0
 17 21  1  0
 18 14  1  0
 20 22  2  0
 21 19  1  0
 21  3  1  0
 22 24  1  0
 22  5  1  0
 23  3  1  0
 24 12  1  0
  1 25  1  0
  2 26  1  0
  2 27  1  0
  3 28  1  0
  3 29  1  0
  4 30  1  0
  6 31  1  0
  6 32  1  0
  8 33  1  0
  9 34  1  0
  9 35  1  0
 11 36  1  0
 12 37  1  0
 14 38  1  0
 15 39  1  0
 15 40  1  0
 16 41  1  0
 21 42  1  0
 23 43  1  0
 23 44  1  0
M  END
>  <mol_id>  (65) 
2026-09-18-6fnk-s0-n100-0065

>  <rmsd_to_ref>  (65) 


$$$$

     RDKit          3D

 69 69  0  0  0  0  0  0  0  0999 V2000
    2.5820   21.6560   38.7000 C   0  0  0  0  0  0  0  0  0  0  0  0
    0.8520   17.0110   40.1860 C   0  0  0  0  0  0  0  0  0  0  0  0
    0.2220   24.6600   33.3980 C   0  0  0  0  0  0  0  0  0  0  0  0
    1.8620   23.1070   35.6130 C   0  0  0  0  0  0  0  0  0  0  0  0
    0.6320   24.6210   32.1390 C   0  0  0  0  0  0  0  0  0  0  0  0
    4.5500   23.0010   36.8870 O   0  0  0  0  0  0  0  0  0  0  0  0
    1.8720   24.5040   35.9880 C   0  0  0  0  0  0  0  0  0  0  0  0
   -0.6420   14.9470   39.0940 N   0  0  0  0  0  4  0  0  0  0  0  0
    1.5750   24.8040   29.6690 C   0  0  0  0  0  0  0  0  0  0  0  0
    0.9670   25.4660   35.4740 C   0  0  0  0  0  0  0  0  0  0  0  0
    2.2520   21.3670   36.1310 O   0  0  0  0  0  0  0  0  0  0  0  0
   -0.6260   14.9570   40.2640 C   0  0  0  0  0  0  0  0  0  0  0  0
    3.1610   22.3350   37.0970 S   0  0  0  0  0  4  0  0  0  0  0  0
    2.1030   20.5020   40.8740 C   0  0  0  0  0  0  0  0  0  0  0  0
    0.9360   25.7570   34.1180 C   0  0  0  0  0  0  0  0  0  0  0  0
    4.8610   21.3090   42.5340 C   0  0  0  0  0  0  0  0  0  0  0  0
    4.1420   19.9330   42.3840 C   0  0  0  0  0  0  0  0  0  0  0  0
    1.8760   25.0360   31.2760 C   0  0  0  0  0  0  0  0  0  0  0  0
    0.3920   15.4900   37.2410 O   0  0  0  0  0  0  0  0  0  0  0  0
   -0.3890   16.1710   38.2320 C   0  0  0  0  0  0  0  0  0  0  0  0
    0.9700   15.4870   40.5590 C   0  0  0  0  0  0  0  0  0  0  0  0
    0.7370   17.1430   38.6620 C   0  0  0  0  0  0  0  0  0  0  0  0
    2.9130   19.6080   41.8960 C   0  0  0  0  0  0  0  0  0  0  0  0
    2.4050   19.7240   38.8260 C   0  0  0  0  0  0  0  0  0  0  0  0
    2.9190   20.7320   39.4860 C   0  0  0  0  0  0  0  0  0  0  0  0
    1.5342   21.4034   38.4803 H   0  0  0  0  0  0  0  0  0  0  0  0
    3.0709   22.4417   39.2947 H   0  0  0  0  0  0  0  0  0  0  0  0
   -0.0423   17.4393   40.6621 H   0  0  0  0  0  0  0  0  0  0  0  0
    1.7424   17.5511   40.5404 H   0  0  0  0  0  0  0  0  0  0  0  0
    0.4404   23.6982   33.8851 H   0  0  0  0  0  0  0  0  0  0  0  0
   -0.8618   24.8462   33.4261 H   0  0  0  0  0  0  0  0  0  0  0  0
    1.2646   23.3486   34.7215 H   0  0  0  0  0  0  0  0  0  0  0  0
    0.5589   23.5461   31.9170 H   0  0  0  0  0  0  0  0  0  0  0  0
    0.0765   25.5326   31.8737 H   0  0  0  0  0  0  0  0  0  0  0  0
    4.9585   23.1969   37.7673 H   0  0  0  0  0  0  0  0  0  0  0  0
    1.7384   24.5213   37.0797 H   0  0  0  0  0  0  0  0  0  0  0  0
    2.8157   24.8378   35.5320 H   0  0  0  0  0  0  0  0  0  0  0  0
    0.0660   14.2546   38.8108 H   0  0  0  0  0  0  0  0  0  0  0  0
   -1.6425   14.7827   38.9128 H   0  0  0  0  0  0  0  0  0  0  0  0
    0.7088   24.1364   29.5509 H   0  0  0  0  0  0  0  0  0  0  0  0
    1.3596   25.7719   29.1928 H   0  0  0  0  0  0  0  0  0  0  0  0
    2.4561   24.3492   29.1928 H   0  0  0  0  0  0  0  0  0  0  0  0
   -0.0426   25.1234   35.7448 H   0  0  0  0  0  0  0  0  0  0  0  0
    1.3299   26.4049   35.9175 H   0  0  0  0  0  0  0  0  0  0  0  0
   -1.3676   15.6591   40.6728 H   0  0  0  0  0  0  0  0  0  0  0  0
   -0.8790   13.9936   40.7307 H   0  0  0  0  0  0  0  0  0  0  0  0
    1.1483   20.0051   40.6466 H   0  0  0  0  0  0  0  0  0  0  0  0
    1.9389   21.4854   41.3387 H   0  0  0  0  0  0  0  0  0  0  0  0
    1.9641   25.8402   33.7357 H   0  0  0  0  0  0  0  0  0  0  0  0
    0.4106   26.7097   33.9557 H   0  0  0  0  0  0  0  0  0  0  0  0
    4.9838   21.5441   43.6015 H   0  0  0  0  0  0  0  0  0  0  0  0
    5.8491   21.2607   42.0531 H   0  0  0  0  0  0  0  0  0  0  0  0
    4.2571   22.0926   42.0531 H   0  0  0  0  0  0  0  0  0  0  0  0
    4.8336   19.3428   41.7649 H   0  0  0  0  0  0  0  0  0  0  0  0
    3.9006   19.7951   43.4483 H   0  0  0  0  0  0  0  0  0  0  0  0
    2.7415   24.4255   31.5731 H   0  0  0  0  0  0  0  0  0  0  0  0
    2.0848   26.1025   31.4464 H   0  0  0  0  0  0  0  0  0  0  0  0
    1.0580   14.9093   37.6875 H   0  0  0  0  0  0  0  0  0  0  0  0
   -1.3292   16.7268   38.1008 H   0  0  0  0  0  0  0  0  0  0  0  0
    1.6941   14.9678   39.9139 H   0  0  0  0  0  0  0  0  0  0  0  0
    1.3304   15.2961   41.5806 H   0  0  0  0  0  0  0  0  0  0  0  0
    1.6865   16.8641   38.1817 H   0  0  0  0  0  0  0  0  0  0  0  0
    0.5114   18.1774   38.3635 H   0  0  0  0  0  0  0  0  0  0  0  0
    2.2624   19.4973   42.7761 H   0  0  0  0  0  0  0  0  0  0  0  0
    3.1608   18.7415   41.2653 H   0  0  0  0  0  0  0  0  0  0  0  0
    2.0237   18.9763   39.5371 H   0  0  0  0  0  0  0  0  0  0  0  0
    1.5797   20.0826   38.1933 H   0  0  0  0  0  0  0  0  0  0  0  0
    3.1799   19.2666   38.1933 H   0  0  0  0  0  0  0  0  0  0  0  0
    3.9779   20.8934   39.7364 H   0  0  0  0  0  0  0  0  0  0  0  0
  1 25  1  0
  2 21  1  0
  3 15  1  0
  4  7  1  0
  4 11  1  0
  4 13  1  0
  5  3  1  0
  8 12  1  0
  9 18  1  0
 10  7  1  0
 11 13  1  0
 12 21  1  0
 13  6  1  0
 13  1  1  0
 14 23  1  0
 15 10  1  0
 17 16  1  0
 18  5  1  0
 20 19  1  0
 20 22  1  0
 20  8  1  0
 22  2  1  0
 23 17  1  0
 25 24  1  0
 25 14  1  0
  1 26  1  0
  1 27  1  0
  2 28  1  0
  2 29  1  0
  3 30  1  0
  3 31  1  0
  4 32  1  0
  5 33  1  0
  5 34  1  0
  6 35  1  0
  7 36  1  0
  7 37  1  0
  8 38  1  0
  8 39  1  0
  9 40  1  0
  9 41  1  0
  9 42  1  0
 10 43  1  0
 10 44  1  0
 12 45  1  0
 12 46  1  0
 14 47  1  0
 14 48  1  0
 15 49  1  0
 15 50  1  0
 16 51  1  0
 16 52  1  0
 16 53  1  0
 17 54  1  0
 17 55  1  0
 18 56  1  0
 18 57  1  0
 19 58  1  0
 20 59  1  0
 21 60  1  0
 21 61  1  0
 22 62  1  0
 22 63  1  0
 23 64  1  0
 23 65  1  0
 24 66  1  0
 24 67  1  0
 24 68  1  0
 25 69  1  0
M  CHG  1   8   1
M  END
>  <mol_id>  (66) 
2026-09-18-6fnk-s0-n100-0066

>  <rmsd_to_ref>  (66) 


$$$$

     RDKit          3D

 65 65  0  0  0  0  0  0  0  0999 V2000
    1.7810   21.4130   36.6800 C   0  0  0  0  0  0  0  0  0  0  0  0
    3.3960   18.7460   35.2560 O   0  0  0  0  0  0  0  0  0  0  0  0
    5.9470   23.3390   36.9420 C   0  0  0  0  0  0  0  0  0  0  0  0
    0.9670   26.2440   33.4530 C   0  0  0  0  0  0  0  0  0  0  0  0
    2.4810   19.7790   35.4390 S   0  0  0  0  0  4  0  0  0  0  0  0
    2.8730   19.0050   38.4280 C   0  0  0  0  0  0  0  0  0  0  0  0
    3.1790   21.1840   36.2380 O   0  0  0  0  0  0  0  0  0  0  0  0
    3.1190   21.9330   36.1100 C   0  0  0  0  0  0  0  0  0  0  0  0
    3.6000   25.4570   34.3260 S   0  0  0  0  0  0  0  0  0  0  0  0
    2.2570   19.6670   37.2220 C   0  0  0  0  0  0  0  0  0  0  0  0
   -0.0070   19.6830   44.5260 N   0  0  0  0  0  4  0  0  0  0  0  0
    2.2020   18.3240   42.2380 C   0  0  0  0  0  0  0  0  0  0  0  0
    1.7440   24.9560   33.9300 C   0  0  0  0  0  0  0  0  0  0  0  0
    5.4160   23.5570   35.5260 C   0  0  0  0  0  0  0  0  0  0  0  0
    1.9670   18.1060   40.7790 C   0  0  0  0  0  0  0  0  0  0  0  0
    2.7860   23.4460   35.6190 C   0  0  0  0  0  0  0  0  0  0  0  0
    0.2700   18.7500   45.3390 C   0  0  0  0  0  0  0  0  0  0  0  0
    0.5150   19.4960   43.2980 C   0  0  0  0  0  0  0  0  0  0  0  0
    1.0870   18.0360   43.2760 C   0  0  0  0  0  0  0  0  0  0  0  0
    4.0140   24.0770   35.2310 C   0  0  0  0  0  0  0  0  0  0  0  0
    0.4690   20.2940   42.4350 C   0  0  0  0  0  0  0  0  0  0  0  0
    2.4080   19.2800   39.9550 C   0  0  0  0  0  0  0  0  0  0  0  0
    1.1500   17.7060   44.7490 C   0  0  0  0  0  0  0  0  0  0  0  0
    1.2840   18.6300   35.1320 N   0  0  0  0  0  0  0  0  0  0  0  0
    1.8350   23.7490   35.0800 C   0  0  0  0  0  0  0  0  0  0  0  0
    0.2990   16.7270   42.7570 C   0  0  0  0  0  0  0  0  0  0  0  0
    1.7404   21.4196   37.7792 H   0  0  0  0  0  0  0  0  0  0  0  0
    1.4283   22.3809   36.2942 H   0  0  0  0  0  0  0  0  0  0  0  0
    1.1380   20.6082   36.2942 H   0  0  0  0  0  0  0  0  0  0  0  0
    5.1853   23.6517   37.6714 H   0  0  0  0  0  0  0  0  0  0  0  0
    6.1779   22.2733   37.0870 H   0  0  0  0  0  0  0  0  0  0  0  0
    6.8601   23.9350   37.0870 H   0  0  0  0  0  0  0  0  0  0  0  0
    0.6245   26.8117   34.3307 H   0  0  0  0  0  0  0  0  0  0  0  0
    1.6365   26.8730   32.8479 H   0  0  0  0  0  0  0  0  0  0  0  0
    0.0984   25.9451   32.8479 H   0  0  0  0  0  0  0  0  0  0  0  0
    3.6910   18.2890   38.2603 H   0  0  0  0  0  0  0  0  0  0  0  0
    2.8751   22.1546   37.1595 H   0  0  0  0  0  0  0  0  0  0  0  0
    3.5428   21.7505   35.1114 H   0  0  0  0  0  0  0  0  0  0  0  0
    1.3947   20.2768   37.5297 H   0  0  0  0  0  0  0  0  0  0  0  0
   -1.0313   19.7467   44.4390 H   0  0  0  0  0  0  0  0  0  0  0  0
    0.4065   20.5476   44.9034 H   0  0  0  0  0  0  0  0  0  0  0  0
    2.4742   19.3832   42.3565 H   0  0  0  0  0  0  0  0  0  0  0  0
    2.9597   17.5637   42.4782 H   0  0  0  0  0  0  0  0  0  0  0  0
    1.0882   24.5058   33.1702 H   0  0  0  0  0  0  0  0  0  0  0  0
    6.1080   24.2674   35.0500 H   0  0  0  0  0  0  0  0  0  0  0  0
    5.3465   22.5227   35.1579 H   0  0  0  0  0  0  0  0  0  0  0  0
    2.5288   17.2164   40.4582 H   0  0  0  0  0  0  0  0  0  0  0  0
    0.8860   17.9717   40.6262 H   0  0  0  0  0  0  0  0  0  0  0  0
    2.3359   23.8982   36.5151 H   0  0  0  0  0  0  0  0  0  0  0  0
    0.7792   19.1853   46.2115 H   0  0  0  0  0  0  0  0  0  0  0  0
   -0.6769   18.2635   45.6160 H   0  0  0  0  0  0  0  0  0  0  0  0
    3.9802   23.4670   34.3163 H   0  0  0  0  0  0  0  0  0  0  0  0
    0.9179   20.0715   41.4557 H   0  0  0  0  0  0  0  0  0  0  0  0
   -0.0229   21.2627   42.6073 H   0  0  0  0  0  0  0  0  0  0  0  0
    3.2572   19.7454   40.4768 H   0  0  0  0  0  0  0  0  0  0  0  0
    1.5066   19.9032   39.8599 H   0  0  0  0  0  0  0  0  0  0  0  0
    0.7617   16.6965   44.9492 H   0  0  0  0  0  0  0  0  0  0  0  0
    2.1707   17.7034   45.1591 H   0  0  0  0  0  0  0  0  0  0  0  0
    0.9130   18.2739   36.0244 H   0  0  0  0  0  0  0  0  0  0  0  0
    0.5218   19.0641   34.5921 H   0  0  0  0  0  0  0  0  0  0  0  0
    1.1268   24.0392   35.8701 H   0  0  0  0  0  0  0  0  0  0  0  0
    1.6619   22.8596   34.4563 H   0  0  0  0  0  0  0  0  0  0  0  0
   -0.0521   16.1438   43.6211 H   0  0  0  0  0  0  0  0  0  0  0  0
   -0.5635   17.0357   42.1481 H   0  0  0  0  0  0  0  0  0  0  0  0
    0.9754   16.1092   42.1481 H   0  0  0  0  0  0  0  0  0  0  0  0
  2  5  2  0
  5 24  1  0
  5 10  1  0
  6 22  1  0
  7  1  1  0
  8  7  1  0
  9 20  1  0
 10  6  2  3
 11 17  1  0
 12 19  1  0
 13  4  1  0
 13  9  1  0
 13 25  1  0
 14  3  1  0
 15 12  1  0
 16  8  1  0
 18 11  1  0
 19 26  1  0
 19 18  1  0
 19 23  1  0
 20 14  1  0
 20 16  1  0
 21 18  2  3
 22 15  1  0
 23 17  1  0
 25 16  1  0
  1 27  1  0
  1 28  1  0
  1 29  1  0
  3 30  1  0
  3 31  1  0
  3 32  1  0
  4 33  1  0
  4 34  1  0
  4 35  1  0
  6 36  1  0
  8 37  1  0
  8 38  1  0
 10 39  1  0
 11 40  1  0
 11 41  1  0
 12 42  1  0
 12 43  1  0
 13 44  1  0
 14 45  1  0
 14 46  1  0
 15 47  1  0
 15 48  1  0
 16 49  1  0
 17 50  1  0
 17 51  1  0
 20 52  1  0
 21 53  1  0
 21 54  1  0
 22 55  1  0
 22 56  1  0
 23 57  1  0
 23 58  1  0
 24 59  1  0
 24 60  1  0
 25 61  1  0
 25 62  1  0
 26 63  1  0
 26 64  1  0
 26 65  1  0
M  CHG  1  11   1
M  END
>  <mol_id>  (67) 
2026-09-18-6fnk-s0-n100-0067

>  <rmsd_to_ref>  (67) 


$$$$

     RDKit          3D

100102  0  0  0  0  0  0  0  0999 V2000
    0.6590   16.1760   36.6100 C   0  0  0  0  0  0  0  0  0  0  0  0
   -0.6820   15.5060   40.1990 C   0  0  0  0  0  0  0  0  0  0  0  0
    0.7670   27.9910   32.7410 C   0  0  0  0  0  0  0  0  0  0  0  0
    1.0140   17.2360   41.3370 C   0  0  0  0  0  0  0  0  0  0  0  0
    1.4310   19.6840   37.4510 O   0  0  0  0  0  0  0  0  0  0  0  0
   -0.0790   16.3170   37.8040 C   0  0  0  0  0  0  0  0  0  0  0  0
    1.8330   22.3130   36.2070 C   0  0  0  0  0  0  0  0  0  0  0  0
    4.0660   20.7370   41.6160 C   0  0  0  0  0  0  0  0  0  0  0  0
    0.7470   26.2660   33.1790 C   0  0  0  0  0  0  0  0  0  0  0  0
    0.4550   16.6390   35.5110 O   0  0  0  0  0  0  0  0  0  0  0  0
    3.4370   20.2620   38.2140 N   0  0  0  0  0  0  0  0  0  0  0  0
    3.9440   21.0650   40.2450 C   0  0  0  0  0  0  0  0  0  0  0  0
    2.0920   19.0740   41.4360 C   0  0  0  0  0  0  0  0  0  0  0  0
    0.0850   28.6440   33.7070 C   0  0  0  0  0  0  0  0  0  0  0  0
    2.6990   25.1840   31.8830 C   0  0  0  0  0  0  0  0  0  0  0  0
   -0.3130   29.9630   35.9130 C   0  0  0  0  0  0  0  0  0  0  0  0
    0.8970   23.7370   36.1400 C   0  0  0  0  0  0  0  0  0  0  0  0
    4.2740   15.8580   35.8420 C   0  0  0  0  0  0  0  0  0  0  0  0
    2.0530   15.7370   36.4340 C   0  0  0  0  0  0  0  0  0  0  0  0
   -2.8830   14.7970   39.5740 F   0  0  0  0  0  0  0  0  0  0  0  0
    0.3460   16.5030   40.1600 C   0  0  0  0  0  0  0  0  0  0  0  0
    0.5700   28.3690   31.7620 C   0  0  0  0  0  0  0  0  0  0  0  0
    5.0380   21.3800   42.5110 C   0  0  0  0  0  0  0  0  0  0  0  0
   -0.6860   14.5430   41.1920 O   0  0  0  0  0  0  0  0  0  0  0  0
   -1.4210   15.9170   37.9170 C   0  0  0  0  0  0  0  0  0  0  0  0
    1.8810   19.5170   40.1330 C   0  0  0  0  0  0  0  0  0  0  0  0
    0.5840   16.8770   38.8010 C   0  0  0  0  0  0  0  0  0  0  0  0
    3.7250   14.3680   35.7320 C   0  0  0  0  0  0  0  0  0  0  0  0
    1.2990   25.5410   32.0350 C   0  0  0  0  0  0  0  0  0  0  0  0
    2.3290   14.5450   35.6850 N   0  0  0  0  0  4  0  0  0  0  0  0
   -1.6660   15.3620   39.2350 C   0  0  0  0  0  0  0  0  0  0  0  0
   -0.1850   29.3510   33.6720 O   0  0  0  0  0  0  0  0  0  0  0  0
    3.1600   19.8980   42.3370 C   0  0  0  0  0  0  0  0  0  0  0  0
    0.7420   25.8890   34.4460 C   0  0  0  0  0  0  0  0  0  0  0  0
    2.0640   23.2940   35.4050 C   0  0  0  0  0  0  0  0  0  0  0  0
    3.0770   20.3460   39.5770 C   0  0  0  0  0  0  0  0  0  0  0  0
    0.7370   25.6840   30.6740 O   0  0  0  0  0  0  0  0  0  0  0  0
    5.2940   21.8100   39.4920 C   0  0  0  0  0  0  0  0  0  0  0  0
    2.4730   21.5610   36.5960 N   0  0  0  0  0  0  0  0  0  0  0  0
    3.1220   16.6490   35.9230 N   0  0  0  0  0  4  0  0  0  0  0  0
    0.1680   28.9880   34.9320 C   0  0  0  0  0  0  0  0  0  0  0  0
    1.0680   24.2950   34.6940 C   0  0  0  0  0  0  0  0  0  0  0  0
    2.4290   20.4780   37.3950 C   0  0  0  0  0  0  0  0  0  0  0  0
   -1.2950   16.1629   40.8336 H   0  0  0  0  0  0  0  0  0  0  0  0
    1.8460   28.1939   32.6727 H   0  0  0  0  0  0  0  0  0  0  0  0
    0.6389   16.8244   42.2856 H   0  0  0  0  0  0  0  0  0  0  0  0
    2.1041   17.0988   41.2833 H   0  0  0  0  0  0  0  0  0  0  0  0
    0.7764   18.3087   41.2833 H   0  0  0  0  0  0  0  0  0  0  0  0
   -0.4043   17.3181   37.4847 H   0  0  0  0  0  0  0  0  0  0  0  0
    1.5667   21.3003   36.5439 H   0  0  0  0  0  0  0  0  0  0  0  0
   -0.2282   25.7889   33.3559 H   0  0  0  0  0  0  0  0  0  0  0  0
    4.3929   20.0526   37.8926 H   0  0  0  0  0  0  0  0  0  0  0  0
    3.3731   22.0037   40.1908 H   0  0  0  0  0  0  0  0  0  0  0  0
    2.4417   18.0326   41.3786 H   0  0  0  0  0  0  0  0  0  0  0  0
    1.1259   19.2152   41.9427 H   0  0  0  0  0  0  0  0  0  0  0  0
    3.1575   25.0671   32.8760 H   0  0  0  0  0  0  0  0  0  0  0  0
    2.7779   24.2370   31.3289 H   0  0  0  0  0  0  0  0  0  0  0  0
    3.2217   25.9776   31.3289 H   0  0  0  0  0  0  0  0  0  0  0  0
   -0.3130   29.9630   37.0130 H   0  0  0  0  0  0  0  0  0  0  0  0
   -0.3130   31.0001   35.5463 H   0  0  0  0  0  0  0  0  0  0  0  0
    0.5851   29.4445   35.5463 H   0  0  0  0  0  0  0  0  0  0  0  0
   -1.2111   29.4445   35.5463 H   0  0  0  0  0  0  0  0  0  0  0  0
    0.1544   24.1341   36.8477 H   0  0  0  0  0  0  0  0  0  0  0  0
    4.8652   16.1215   34.9526 H   0  0  0  0  0  0  0  0  0  0  0  0
    4.9392   15.9967   36.7070 H   0  0  0  0  0  0  0  0  0  0  0  0
    2.1112   15.6236   37.5266 H   0  0  0  0  0  0  0  0  0  0  0  0
    0.0629   29.3420   31.8398 H   0  0  0  0  0  0  0  0  0  0  0  0
    1.5186   28.4923   31.2188 H   0  0  0  0  0  0  0  0  0  0  0  0
   -0.0744   27.6621   31.2188 H   0  0  0  0  0  0  0  0  0  0  0  0
    4.7537   21.1919   43.5569 H   0  0  0  0  0  0  0  0  0  0  0  0
    6.0395   20.9656   42.3231 H   0  0  0  0  0  0  0  0  0  0  0  0
    5.0484   22.4638   42.3231 H   0  0  0  0  0  0  0  0  0  0  0  0
   -0.6842   14.9833   42.0787 H   0  0  0  0  0  0  0  0  0  0  0  0
   -2.0747   16.7880   37.7616 H   0  0  0  0  0  0  0  0  0  0  0  0
   -1.6334   15.1498   37.1579 H   0  0  0  0  0  0  0  0  0  0  0  0
    1.7282   18.6418   39.4845 H   0  0  0  0  0  0  0  0  0  0  0  0
    0.9991   20.1744   40.1450 H   0  0  0  0  0  0  0  0  0  0  0  0
    1.3362   17.6486   38.5798 H   0  0  0  0  0  0  0  0  0  0  0  0
    4.0920   13.8784   34.8179 H   0  0  0  0  0  0  0  0  0  0  0  0
    4.0516   13.7243   36.5621 H   0  0  0  0  0  0  0  0  0  0  0  0
    0.8167   24.7308   32.6016 H   0  0  0  0  0  0  0  0  0  0  0  0
    2.0153   14.6549   34.7101 H   0  0  0  0  0  0  0  0  0  0  0  0
    1.8334   13.7315   36.0768 H   0  0  0  0  0  0  0  0  0  0  0  0
   -2.0248   16.3425   39.5812 H   0  0  0  0  0  0  0  0  0  0  0  0
    3.1856   19.8165   43.4337 H   0  0  0  0  0  0  0  0  0  0  0  0
    1.4991   26.4804   34.9818 H   0  0  0  0  0  0  0  0  0  0  0  0
   -0.2808   26.0565   34.8145 H   0  0  0  0  0  0  0  0  0  0  0  0
    3.0726   23.1833   34.9801 H   0  0  0  0  0  0  0  0  0  0  0  0
    2.3938   21.1764   39.3454 H   0  0  0  0  0  0  0  0  0  0  0  0
   -0.2205   25.9276   30.7363 H   0  0  0  0  0  0  0  0  0  0  0  0
    5.9809   22.1891   40.2630 H   0  0  0  0  0  0  0  0  0  0  0  0
    5.8172   21.0729   38.8651 H   0  0  0  0  0  0  0  0  0  0  0  0
    4.9493   22.6456   38.8651 H   0  0  0  0  0  0  0  0  0  0  0  0
    3.4335   21.7056   36.2533 H   0  0  0  0  0  0  0  0  0  0  0  0
    3.2682   17.4339   36.5738 H   0  0  0  0  0  0  0  0  0  0  0  0
    2.8733   17.0600   35.0119 H   0  0  0  0  0  0  0  0  0  0  0  0
   -0.0418   28.1184   35.5721 H   0  0  0  0  0  0  0  0  0  0  0  0
    1.1818   29.3605   35.1404 H   0  0  0  0  0  0  0  0  0  0  0  0
   -0.5644   29.7819   35.1404 H   0  0  0  0  0  0  0  0  0  0  0  0
    0.7885   24.3145   33.6303 H   0  0  0  0  0  0  0  0  0  0  0  0
  2 24  1  0
  3 22  1  0
  3  9  1  0
  3 14  1  0
  6  1  1  0
  6 25  1  0
  6 27  1  0
  7 39  1  0
  8 33  2  0
  8 23  1  0
  9 34  1  0
 10  1  2  0
 11 36  1  0
 12 38  1  0
 12  8  1  0
 13 33  1  0
 14 41  1  0
 15 29  1  0
 17  7  1  0
 18 40  1  0
 19  1  1  0
 21  2  1  0
 21  4  1  0
 25 31  1  0
 26 13  1  0
 27 21  2  0
 28 18  1  0
 29  9  1  0
 30 28  1  0
 30 19  1  0
 31 20  1  0
 31  2  1  0
 32 14  2  0
 34 42  1  0
 35 17  1  0
 35  7  1  0
 36 26  1  0
 36 12  1  0
 37 29  1  0
 39 43  1  0
 40 19  1  0
 42 35  1  0
 42 17  1  0
 43  5  2  0
 43 11  1  0
  2 44  1  0
  3 45  1  0
  4 46  1  0
  4 47  1  0
  4 48  1  0
  6 49  1  0
  7 50  1  0
  9 51  1  0
 11 52  1  0
 12 53  1  0
 13 54  1  0
 13 55  1  0
 15 56  1  0
 15 57  1  0
 15 58  1  0
 16 59  1  0
 16 60  1  0
 16 61  1  0
 16 62  1  0
 17 63  1  0
 18 64  1  0
 18 65  1  0
 19 66  1  0
 22 67  1  0
 22 68  1  0
 22 69  1  0
 23 70  1  0
 23 71  1  0
 23 72  1  0
 24 73  1  0
 25 74  1  0
 25 75  1  0
 26 76  1  0
 26 77  1  0
 27 78  1  0
 28 79  1  0
 28 80  1  0
 29 81  1  0
 30 82  1  0
 30 83  1  0
 31 84  1  0
 33 85  1  0
 34 86  1  0
 34 87  1  0
 35 88  1  0
 36 89  1  0
 37 90  1  0
 38 91  1  0
 38 92  1  0
 38 93  1  0
 39 94  1  0
 40 95  1  0
 40 96  1  0
 41 97  1  0
 41 98  1  0
 41 99  1  0
 42100  1  0
M  CHG  2  30   1  40   1
M  END
>  <mol_id>  (68) 
2026-09-18-6fnk-s0-n100-0068

>  <rmsd_to_ref>  (68) 


$$$$

     RDKit          3D

 70 71  0  0  0  0  0  0  0  0999 V2000
    1.8880   19.1540   41.3710 C   0  0  0  0  0  0  0  0  0  0  0  0
    0.5630   28.8660   35.3200 O   0  0  0  0  0  0  0  0  0  0  0  0
    2.6160   26.7590   31.5970 C   0  0  0  0  0  0  0  0  0  0  0  0
    2.1040   22.2610   36.9390 C   0  0  0  0  0  0  0  0  0  0  0  0
    3.5290   21.5090   38.8080 C   0  0  0  0  0  0  0  0  0  0  0  0
    1.2740   26.4070   32.1770 C   0  0  0  0  0  0  0  0  0  0  0  0
   -0.0450   15.8490   38.3900 C   0  0  0  0  0  0  0  0  0  0  0  0
    0.1370   15.5840   39.7270 C   0  0  0  0  0  0  0  0  0  0  0  0
   -0.0280   28.2580   33.6810 S   0  0  0  0  0  4  0  0  0  0  0  0
   -0.5360   13.2590   39.5450 O   0  0  0  0  0  0  0  0  0  0  0  0
    3.2860   20.8300   42.1600 O   0  0  0  0  0  0  0  0  0  0  0  0
    5.0890   23.8290   35.8350 C   0  0  0  0  0  0  0  0  0  0  0  0
    2.9230   24.3690   34.3060 C   0  0  0  0  0  0  0  0  0  0  0  0
    0.8570   16.1860   36.1810 O   0  0  0  0  0  0  0  0  0  0  0  0
   -1.4040   16.3100   38.0250 C   0  0  0  0  0  0  0  0  0  0  0  0
    2.2440   20.8660   39.5490 C   0  0  0  0  0  0  0  0  0  0  0  0
    1.8810   20.3700   42.2880 C   0  0  0  0  0  0  0  0  0  0  0  0
    4.7580   24.6690   34.3950 S   0  0  0  0  0  0  0  0  0  0  0  0
   -1.9280   14.5070   40.7050 O   0  0  0  0  0  1  0  0  0  0  0  0
    3.2840   26.2590   32.6730 O   0  0  0  0  0  0  0  0  0  0  0  0
   -0.9030   26.7980   34.1900 C   0  0  0  0  0  0  0  0  0  0  0  0
    2.0950   19.3580   40.0890 C   0  0  0  0  0  0  0  0  0  0  0  0
    3.3610   21.9040   37.4420 C   0  0  0  0  0  0  0  0  0  0  0  0
    0.1620   25.8460   34.4310 C   0  0  0  0  0  0  0  0  0  0  0  0
    0.9990   17.1670   39.9500 C   0  0  0  0  0  0  0  0  0  0  0  0
   -0.8250   14.3030   40.0480 C   0  0  0  0  0  0  0  0  0  0  0  0
    2.7330   25.2250   33.0820 C   0  0  0  0  0  0  0  0  0  0  0  0
    1.5060   16.8030   41.0220 C   0  0  0  0  0  0  0  0  0  0  0  0
    0.7480   15.8410   37.3440 C   0  0  0  0  0  0  0  0  0  0  0  0
    1.6810   17.9110   41.8190 C   0  0  0  0  0  0  0  0  0  0  0  0
    1.1100   26.8220   33.4890 C   0  0  0  0  0  0  0  0  0  0  0  0
    1.5770   18.3810   39.2820 C   0  0  0  0  0  0  0  0  0  0  0  0
    4.4270   22.7390   36.8860 C   0  0  0  0  0  0  0  0  0  0  0  0
    2.8398   26.2314   30.6581 H   0  0  0  0  0  0  0  0  0  0  0  0
    2.8065   27.7972   31.2873 H   0  0  0  0  0  0  0  0  0  0  0  0
    1.4164   22.4563   37.7751 H   0  0  0  0  0  0  0  0  0  0  0  0
    2.1994   23.1676   36.3233 H   0  0  0  0  0  0  0  0  0  0  0  0
    1.7086   21.4396   36.3233 H   0  0  0  0  0  0  0  0  0  0  0  0
    3.8282   22.4015   39.3772 H   0  0  0  0  0  0  0  0  0  0  0  0
    4.2772   20.7031   38.7826 H   0  0  0  0  0  0  0  0  0  0  0  0
    0.4945   26.8810   31.5624 H   0  0  0  0  0  0  0  0  0  0  0  0
    1.1995   25.3095   32.1744 H   0  0  0  0  0  0  0  0  0  0  0  0
    0.2645   16.8917   38.5545 H   0  0  0  0  0  0  0  0  0  0  0  0
    0.4975   15.1741   40.6820 H   0  0  0  0  0  0  0  0  0  0  0  0
    3.6750   20.9573   43.0614 H   0  0  0  0  0  0  0  0  0  0  0  0
    6.0919   24.1076   36.1909 H   0  0  0  0  0  0  0  0  0  0  0  0
    2.6648   23.3127   34.1396 H   0  0  0  0  0  0  0  0  0  0  0  0
    2.3162   24.5929   35.1958 H   0  0  0  0  0  0  0  0  0  0  0  0
   -1.9826   16.5063   38.9397 H   0  0  0  0  0  0  0  0  0  0  0  0
   -1.3310   17.2336   37.4321 H   0  0  0  0  0  0  0  0  0  0  0  0
   -1.9080   15.5326   37.4321 H   0  0  0  0  0  0  0  0  0  0  0  0
    2.0778   21.5013   40.4315 H   0  0  0  0  0  0  0  0  0  0  0  0
    1.5518   20.8185   38.6954 H   0  0  0  0  0  0  0  0  0  0  0  0
    1.1721   21.1352   41.9387 H   0  0  0  0  0  0  0  0  0  0  0  0
    1.5660   20.1574   43.3203 H   0  0  0  0  0  0  0  0  0  0  0  0
   -1.4820   26.9837   35.1067 H   0  0  0  0  0  0  0  0  0  0  0  0
   -1.6347   26.4501   33.4459 H   0  0  0  0  0  0  0  0  0  0  0  0
    3.1754   19.1909   39.9669 H   0  0  0  0  0  0  0  0  0  0  0  0
    0.4811   25.7647   35.4806 H   0  0  0  0  0  0  0  0  0  0  0  0
    0.0449   24.7708   34.2307 H   0  0  0  0  0  0  0  0  0  0  0  0
    0.3754   17.8636   39.3705 H   0  0  0  0  0  0  0  0  0  0  0  0
    1.6718   25.5096   33.1360 H   0  0  0  0  0  0  0  0  0  0  0  0
    3.2469   24.5432   32.3884 H   0  0  0  0  0  0  0  0  0  0  0  0
    0.8392   16.0863   41.5237 H   0  0  0  0  0  0  0  0  0  0  0  0
    2.4742   16.3154   40.8354 H   0  0  0  0  0  0  0  0  0  0  0  0
    1.6742   15.3202   37.6284 H   0  0  0  0  0  0  0  0  0  0  0  0
    1.6481   17.7630   42.9085 H   0  0  0  0  0  0  0  0  0  0  0  0
    2.1707   26.9306   33.7594 H   0  0  0  0  0  0  0  0  0  0  0  0
    2.3846   18.0391   38.6180 H   0  0  0  0  0  0  0  0  0  0  0  0
    0.7236   18.8569   38.7767 H   0  0  0  0  0  0  0  0  0  0  0  0
  1 30  2  0
  1 17  1  0
  3  6  1  0
  3 20  1  0
  4 23  1  0
  5 16  1  0
  7 15  1  0
  7  8  1  0
  8 26  1  0
  9 21  1  0
  9  2  2  0
 10 26  2  0
 11 17  1  0
 12 33  2  0
 13 18  1  0
 14 29  2  0
 18 12  1  0
 20 27  1  0
 21 24  1  0
 22 16  1  0
 22  1  1  0
 23  5  1  0
 25  8  1  0
 25 28  1  0
 26 19  1  0
 27 13  1  0
 28 30  1  0
 29  7  1  0
 31  6  1  0
 31  9  1  0
 31 24  1  0
 32 25  1  0
 32 22  1  0
 33 23  2  0
  3 34  1  0
  3 35  1  0
  4 36  1  0
  4 37  1  0
  4 38  1  0
  5 39  1  0
  5 40  1  0
  6 41  1  0
  6 42  1  0
  7 43  1  0
  8 44  1  0
 11 45  1  0
 12 46  1  0
 13 47  1  0
 13 48  1  0
 15 49  1  0
 15 50  1  0
 15 51  1  0
 16 52  1  0
 16 53  1  0
 17 54  1  0
 17 55  1  0
 21 56  1  0
 21 57  1  0
 22 58  1  0
 24 59  1  0
 24 60  1  0
 25 61  1  0
 27 62  1  0
 27 63  1  0
 28 64  1  0
 28 65  1  0
 29 66  1  0
 30 67  1  0
 31 68  1  0
 32 69  1  0
 32 70  1  0
M  CHG  1  19  -1
M  END
>  <mol_id>  (69) 
2026-09-18-6fnk-s0-n100-0069

>  <rmsd_to_ref>  (69) 


$$$$

     RDKit          3D

 67 69  0  0  0  0  0  0  0  0999 V2000
    0.2560   16.0190   42.6060 C   0  0  0  0  0  0  0  0  0  0  0  0
   -1.1240   15.0080   44.4270 O   0  0  0  0  0  1  0  0  0  0  0  0
    2.8600   20.4870   36.8880 C   0  0  0  0  0  0  0  0  0  0  0  0
    1.8100   19.8520   39.6600 C   0  0  0  0  0  0  0  0  0  0  0  0
    1.2010   19.5260   38.3240 C   0  0  0  0  0  0  0  0  0  0  0  0
    2.2790   21.4730   36.0080 C   0  0  0  0  0  0  0  0  0  0  0  0
    1.5000   24.2890   30.3500 C   0  0  0  0  0  0  0  0  0  0  0  0
    2.6880   18.8240   40.3170 C   0  0  0  0  0  0  0  0  0  0  0  0
    2.3380   25.0270   31.4420 C   0  0  0  0  0  0  0  0  0  0  0  0
    1.4510   18.6120   42.6920 S   0  0  0  0  0  4  0  0  0  0  0  0
    2.0670   18.0160   41.3580 O   0  0  0  0  0  0  0  0  0  0  0  0
    3.6070   20.9290   40.9540 C   0  0  0  0  0  0  0  0  0  0  0  0
   -1.7340   14.5390   42.4090 O   0  0  0  0  0  0  0  0  0  0  0  0
    3.2130   22.1120   35.2630 C   0  0  0  0  0  0  0  0  0  0  0  0
    2.0240   19.2290   37.2170 C   0  0  0  0  0  0  0  0  0  0  0  0
    1.3270   26.5170   31.4930 S   0  0  0  0  0  0  0  0  0  0  0  0
    0.8670   20.0470   42.5300 O   0  0  0  0  0  0  0  0  0  0  0  0
    2.6870   21.1300   39.7880 C   0  0  0  0  0  0  0  0  0  0  0  0
    3.4500   24.0830   33.5780 C   0  0  0  0  0  0  0  0  0  0  0  0
    2.8250   19.1850   36.1950 C   0  0  0  0  0  0  0  0  0  0  0  0
    4.4980   23.0780   32.7890 C   0  0  0  0  0  0  0  0  0  0  0  0
    2.4710   18.7430   43.7000 O   0  0  0  0  0  0  0  0  0  0  0  0
    3.1140   23.2530   34.6980 C   0  0  0  0  0  0  0  0  0  0  0  0
    0.4820   17.3350   43.2950 N   0  0  0  0  0  0  0  0  0  0  0  0
    2.1220   24.3460   32.7760 C   0  0  0  0  0  0  0  0  0  0  0  0
    3.7980   25.4900   31.3980 C   0  0  0  0  0  0  0  0  0  0  0  0
    2.3290   27.1770   32.7700 C   0  0  0  0  0  0  0  0  0  0  0  0
   -1.0030   15.2350   43.2550 C   0  0  0  0  0  0  0  0  0  0  0  0
    4.8560   24.9160   32.7640 S   0  0  0  0  0  4  0  0  0  0  0  0
    1.1585   15.3988   42.7095 H   0  0  0  0  0  0  0  0  0  0  0  0
    0.0409   16.2108   41.5444 H   0  0  0  0  0  0  0  0  0  0  0  0
    3.5058   21.1638   37.4667 H   0  0  0  0  0  0  0  0  0  0  0  0
    0.8292   19.9562   40.1469 H   0  0  0  0  0  0  0  0  0  0  0  0
    0.5518   18.6515   38.4781 H   0  0  0  0  0  0  0  0  0  0  0  0
    0.7233   20.4727   38.0313 H   0  0  0  0  0  0  0  0  0  0  0  0
    1.5709   20.9707   35.3325 H   0  0  0  0  0  0  0  0  0  0  0  0
    1.7745   22.2252   36.6322 H   0  0  0  0  0  0  0  0  0  0  0  0
    0.7591   23.6365   30.8351 H   0  0  0  0  0  0  0  0  0  0  0  0
    0.9818   25.0294   29.7229 H   0  0  0  0  0  0  0  0  0  0  0  0
    2.1689   23.6813   29.7229 H   0  0  0  0  0  0  0  0  0  0  0  0
    3.0491   18.1415   39.5335 H   0  0  0  0  0  0  0  0  0  0  0  0
    3.4809   19.3949   40.8223 H   0  0  0  0  0  0  0  0  0  0  0  0
    3.0438   21.0520   41.8909 H   0  0  0  0  0  0  0  0  0  0  0  0
    4.0345   19.9163   40.9134 H   0  0  0  0  0  0  0  0  0  0  0  0
    4.4179   21.6712   40.9134 H   0  0  0  0  0  0  0  0  0  0  0  0
    4.0860   22.2027   35.9260 H   0  0  0  0  0  0  0  0  0  0  0  0
    3.1792   21.4755   34.3665 H   0  0  0  0  0  0  0  0  0  0  0  0
    2.8148   18.8816   37.8981 H   0  0  0  0  0  0  0  0  0  0  0  0
    0.7067   20.4409   43.4240 H   0  0  0  0  0  0  0  0  0  0  0  0
    3.2725   21.2776   38.8685 H   0  0  0  0  0  0  0  0  0  0  0  0
    2.0571   22.0190   39.9397 H   0  0  0  0  0  0  0  0  0  0  0  0
    2.3912   19.1352   35.1854 H   0  0  0  0  0  0  0  0  0  0  0  0
    3.6238   18.4801   35.9211 H   0  0  0  0  0  0  0  0  0  0  0  0
    5.1470   22.4049   33.3684 H   0  0  0  0  0  0  0  0  0  0  0  0
    4.3825   22.3097   32.0103 H   0  0  0  0  0  0  0  0  0  0  0  0
    2.0567   18.6898   44.5976 H   0  0  0  0  0  0  0  0  0  0  0  0
    3.4998   23.8868   35.5101 H   0  0  0  0  0  0  0  0  0  0  0  0
    2.2217   22.9008   34.1598 H   0  0  0  0  0  0  0  0  0  0  0  0
   -0.4558   17.7408   43.4243 H   0  0  0  0  0  0  0  0  0  0  0  0
    1.4675   24.9834   33.3887 H   0  0  0  0  0  0  0  0  0  0  0  0
    1.6755   23.3631   32.5650 H   0  0  0  0  0  0  0  0  0  0  0  0
    4.2378   25.1290   30.4566 H   0  0  0  0  0  0  0  0  0  0  0  0
    3.7655   26.5859   31.4871 H   0  0  0  0  0  0  0  0  0  0  0  0
    1.9075   26.8994   33.7474 H   0  0  0  0  0  0  0  0  0  0  0  0
    3.3483   26.7729   32.6822 H   0  0  0  0  0  0  0  0  0  0  0  0
    2.3602   28.2730   32.6822 H   0  0  0  0  0  0  0  0  0  0  0  0
    5.9510   25.7129   32.9707 H   0  0  0  0  0  0  0  0  0  0  0  0
  1 28  1  0
  1 24  1  0
  3  6  1  0
  3 15  1  0
  4  5  1  0
  4 18  1  0
  4  8  1  0
  8 11  1  0
  9  7  1  0
  9 16  1  0
  9 25  1  0
 10 24  1  0
 10 22  1  0
 11 10  1  0
 13 28  2  0
 14  6  1  0
 15  5  1  0
 16 27  1  0
 17 10  1  0
 18 12  1  0
 19 23  1  0
 20  3  1  0
 20 15  1  0
 21 19  1  0
 23 14  1  0
 25 19  1  0
 26  9  1  0
 28  2  1  0
 29 26  1  0
 29 21  1  0
 29 19  1  0
  1 30  1  0
  1 31  1  0
  3 32  1  0
  4 33  1  0
  5 34  1  0
  5 35  1  0
  6 36  1  0
  6 37  1  0
  7 38  1  0
  7 39  1  0
  7 40  1  0
  8 41  1  0
  8 42  1  0
 12 43  1  0
 12 44  1  0
 12 45  1  0
 14 46  1  0
 14 47  1  0
 15 48  1  0
 17 49  1  0
 18 50  1  0
 18 51  1  0
 20 52  1  0
 20 53  1  0
 21 54  1  0
 21 55  1  0
 22 56  1  0
 23 57  1  0
 23 58  1  0
 24 59  1  0
 25 60  1  0
 25 61  1  0
 26 62  1  0
 26 63  1  0
 27 64  1  0
 27 65  1  0
 27 66  1  0
 29 67  1  0
M  CHG  1   2  -1
M  END
>  <mol_id>  (70) 
2026-09-18-6fnk-s0-n100-0070

>  <rmsd_to_ref>  (70) 


$$$$

     RDKit          3D

 54 56  0  0  0  0  0  0  0  0999 V2000
    1.1640   26.6710   31.9060 C   0  0  0  0  0  0  0  0  0  0  0  0
    0.9840   19.0890   42.4290 N   0  0  0  0  0  0  0  0  0  0  0  0
    2.7510   23.5330   34.6440 C   0  0  0  0  0  0  0  0  0  0  0  0
    2.4950   22.2140   36.7660 C   0  0  0  0  0  0  0  0  0  0  0  0
    2.4110   17.9880   40.4890 C   0  0  0  0  0  0  0  0  0  0  0  0
   -0.4520   20.4210   44.6860 O   0  0  0  0  0  0  0  0  0  0  0  0
   -0.5550   17.0880   45.6670 C   0  0  0  0  0  0  0  0  0  0  0  0
    3.8990   23.4960   33.4770 O   0  0  0  0  0  0  0  0  0  0  0  0
   -0.0810   16.3050   44.5630 C   0  0  0  0  0  0  0  0  0  0  0  0
    1.6400   18.3250   39.1850 C   0  0  0  0  0  0  0  0  0  0  0  0
    1.9630   25.6840   33.9030 N   0  0  0  0  0  0  0  0  0  0  0  0
    1.0970   16.8180   42.3390 N   0  0  0  0  0  0  0  0  0  0  0  0
    2.3990   19.4510   38.4310 C   0  0  0  0  0  0  0  0  0  0  0  0
    1.8160   19.8320   37.1910 C   0  0  0  0  0  0  0  0  0  0  0  0
    0.9490   27.5820   33.0570 C   0  0  0  0  0  0  0  0  0  0  0  0
    0.3600   18.5130   43.5530 C   0  0  0  0  0  0  0  0  0  0  0  0
    0.4130   17.1860   43.4780 C   0  0  0  0  0  0  0  0  0  0  0  0
    1.0500   26.9540   34.3640 C   0  0  0  0  0  0  0  0  0  0  0  0
    2.0990   22.7360   35.1860 C   0  0  0  0  0  0  0  0  0  0  0  0
    1.6680   21.1900   37.0660 C   0  0  0  0  0  0  0  0  0  0  0  0
   -0.2810   19.2020   44.6710 C   0  0  0  0  0  0  0  0  0  0  0  0
    2.8360   25.1150   34.9930 C   0  0  0  0  0  0  0  0  0  0  0  0
    1.9070   25.4900   32.4850 C   0  0  0  0  0  0  0  0  0  0  0  0
   -0.6430   18.3990   45.7340 N   0  0  0  0  0  0  0  0  0  0  0  0
    2.4610   24.7440   31.6910 O   0  0  0  0  0  0  0  0  0  0  0  0
    1.4850   17.9470   41.7370 C   0  0  0  0  0  0  0  0  0  0  0  0
    1.7654   27.1641   31.1281 H   0  0  0  0  0  0  0  0  0  0  0  0
    0.2188   26.3742   31.4280 H   0  0  0  0  0  0  0  0  0  0  0  0
    3.5176   23.3240   35.4047 H   0  0  0  0  0  0  0  0  0  0  0  0
    2.3516   23.0367   37.4820 H   0  0  0  0  0  0  0  0  0  0  0  0
    3.5466   21.8961   36.8206 H   0  0  0  0  0  0  0  0  0  0  0  0
    3.1843   18.7538   40.6490 H   0  0  0  0  0  0  0  0  0  0  0  0
    2.8505   16.9870   40.3671 H   0  0  0  0  0  0  0  0  0  0  0  0
   -0.8814   16.5302   46.5571 H   0  0  0  0  0  0  0  0  0  0  0  0
    4.7952   23.4671   33.8965 H   0  0  0  0  0  0  0  0  0  0  0  0
    0.7390   15.6562   44.9046 H   0  0  0  0  0  0  0  0  0  0  0  0
   -0.9106   15.6946   44.1767 H   0  0  0  0  0  0  0  0  0  0  0  0
    1.5803   17.4295   38.5490 H   0  0  0  0  0  0  0  0  0  0  0  0
    0.6212   18.6601   39.4294 H   0  0  0  0  0  0  0  0  0  0  0  0
    2.4314   20.3376   39.0814 H   0  0  0  0  0  0  0  0  0  0  0  0
    3.3962   19.0507   38.1960 H   0  0  0  0  0  0  0  0  0  0  0  0
    2.4602   19.4725   36.3750 H   0  0  0  0  0  0  0  0  0  0  0  0
    0.8119   19.3849   37.1469 H   0  0  0  0  0  0  0  0  0  0  0  0
    1.7015   28.3826   33.0039 H   0  0  0  0  0  0  0  0  0  0  0  0
   -0.0847   27.9482   32.9707 H   0  0  0  0  0  0  0  0  0  0  0  0
    1.3183   18.5284   44.0929 H   0  0  0  0  0  0  0  0  0  0  0  0
    0.0709   26.6468   34.7603 H   0  0  0  0  0  0  0  0  0  0  0  0
    1.4469   27.5757   35.1800 H   0  0  0  0  0  0  0  0  0  0  0  0
    1.0792   23.1453   35.2363 H   0  0  0  0  0  0  0  0  0  0  0  0
    2.2616   21.8322   34.5805 H   0  0  0  0  0  0  0  0  0  0  0  0
    1.2633   21.4825   38.0461 H   0  0  0  0  0  0  0  0  0  0  0  0
    1.2054   21.1448   36.0690 H   0  0  0  0  0  0  0  0  0  0  0  0
    2.4315   25.3327   35.9925 H   0  0  0  0  0  0  0  0  0  0  0  0
    3.8568   25.5237   35.0230 H   0  0  0  0  0  0  0  0  0  0  0  0
  1 23  1  0
  1 15  1  0
  3  8  1  0
  3 22  1  0
  3 19  1  0
  4 20  1  0
  5 26  1  0
  7 24  2  0
  9  7  1  0
 10  5  1  0
 11 18  1  0
 11 22  1  0
 12 17  2  0
 13 10  1  0
 14 13  1  0
 15 18  1  0
 16  2  1  0
 16 21  1  0
 17 16  1  0
 17  9  1  0
 19  4  1  0
 20 14  1  0
 21  6  2  0
 21 24  1  0
 23 11  1  0
 25 23  2  0
 26 12  1  0
 26  2  2  0
  1 27  1  0
  1 28  1  0
  3 29  1  0
  4 30  1  0
  4 31  1  0
  5 32  1  0
  5 33  1  0
  7 34  1  0
  8 35  1  0
  9 36  1  0
  9 37  1  0
 10 38  1  0
 10 39  1  0
 13 40  1  0
 13 41  1  0
 14 42  1  0
 14 43  1  0
 15 44  1  0
 15 45  1  0
 16 46  1  0
 18 47  1  0
 18 48  1  0
 19 49  1  0
 19 50  1  0
 20 51  1  0
 20 52  1  0
 22 53  1  0
 22 54  1  0
M  END
>  <mol_id>  (71) 
2026-09-18-6fnk-s0-n100-0071

>  <rmsd_to_ref>  (71) 


$$$$

     RDKit          3D

 61 62  0  0  0  0  0  0  0  0999 V2000
    1.3900   20.4090   39.4670 O   0  0  0  0  0  0  0  0  0  0  0  0
    0.5310   15.7990   41.5480 C   0  0  0  0  0  0  0  0  0  0  0  0
    2.0210   23.0100   33.5130 C   0  0  0  0  0  0  0  0  0  0  0  0
    0.5510   16.5790   42.7880 C   0  0  0  0  0  0  0  0  0  0  0  0
    3.7420   23.0140   37.9860 C   0  0  0  0  0  0  0  0  0  0  0  0
    2.9260   18.6740   39.0960 C   0  0  0  0  0  0  0  0  0  0  0  0
    2.4250   19.9420   39.1490 C   0  0  0  0  0  0  0  0  0  0  0  0
    2.5890   17.4430   40.2830 S   0  0  0  0  0  0  0  0  0  0  0  0
   -0.9130   15.6470   38.1910 N   0  0  0  0  0  0  0  0  0  0  0  0
    4.4120   23.3790   35.6900 O   0  0  0  0  0  0  0  0  0  0  0  0
    5.3980   25.3380   35.5370 O   0  0  0  0  0  0  0  0  0  0  0  0
    2.6840   25.3310   33.0030 C   0  0  0  0  0  0  0  0  0  0  0  0
    0.1630   16.0790   40.1150 C   0  0  0  0  0  0  0  0  0  0  0  0
    6.6640   23.8680   36.8700 C   0  0  0  0  0  0  0  0  0  0  0  0
    3.5190   20.9550   39.2030 O   0  0  0  0  0  0  0  0  0  0  0  0
    5.4590   24.2660   36.0120 C   0  0  0  0  0  0  0  0  0  0  0  0
    2.8820   22.1080   38.7220 C   0  0  0  0  0  0  0  0  0  0  0  0
   -0.7310   15.3720   39.4760 C   0  0  0  0  0  0  0  0  0  0  0  0
    1.1660   16.9040   39.4810 C   0  0  0  0  0  0  0  0  0  0  0  0
    0.9500   23.5210   34.2170 N   0  0  0  0  0  4  0  0  0  0  0  0
   -0.1410   16.4210   37.4700 C   0  0  0  0  0  0  0  0  0  0  0  0
    0.8420   17.0720   38.1260 C   0  0  0  0  0  0  0  0  0  0  0  0
    3.0570   24.9760   31.7980 C   0  0  0  0  0  0  0  0  0  0  0  0
   -0.6570   15.7000   42.6100 C   0  0  0  0  0  0  0  0  0  0  0  0
    2.1220   26.1090   30.9650 C   0  0  0  0  0  0  0  0  0  0  0  0
    1.6690   25.9950   32.3730 C   0  0  0  0  0  0  0  0  0  0  0  0
    3.4320   22.9500   36.4280 C   0  0  0  0  0  0  0  0  0  0  0  0
    2.8860   24.1920   33.3050 C   0  0  0  0  0  0  0  0  0  0  0  0
    1.3548   15.2444   41.0749 H   0  0  0  0  0  0  0  0  0  0  0  0
    2.5432   22.2371   34.0960 H   0  0  0  0  0  0  0  0  0  0  0  0
    1.7249   22.5222   32.5726 H   0  0  0  0  0  0  0  0  0  0  0  0
    1.2860   16.3278   43.5669 H   0  0  0  0  0  0  0  0  0  0  0  0
    0.6695   17.6532   42.9929 H   0  0  0  0  0  0  0  0  0  0  0  0
    3.5749   24.0404   38.3446 H   0  0  0  0  0  0  0  0  0  0  0  0
    4.7882   22.7158   38.1488 H   0  0  0  0  0  0  0  0  0  0  0  0
    2.5898   18.2605   38.1337 H   0  0  0  0  0  0  0  0  0  0  0  0
    3.9928   18.8623   39.2868 H   0  0  0  0  0  0  0  0  0  0  0  0
    2.9147   25.9198   33.9031 H   0  0  0  0  0  0  0  0  0  0  0  0
    6.4009   23.9549   37.9345 H   0  0  0  0  0  0  0  0  0  0  0  0
    6.9465   22.8288   36.6458 H   0  0  0  0  0  0  0  0  0  0  0  0
    7.5099   24.5345   36.6458 H   0  0  0  0  0  0  0  0  0  0  0  0
    2.4660   22.6534   39.5819 H   0  0  0  0  0  0  0  0  0  0  0  0
    2.1136   21.7652   38.0134 H   0  0  0  0  0  0  0  0  0  0  0  0
   -1.3075   14.5832   39.9815 H   0  0  0  0  0  0  0  0  0  0  0  0
    1.1307   23.4348   35.2274 H   0  0  0  0  0  0  0  0  0  0  0  0
    0.8221   24.5139   33.9746 H   0  0  0  0  0  0  0  0  0  0  0  0
    0.0978   22.9958   33.9746 H   0  0  0  0  0  0  0  0  0  0  0  0
   -0.2864   16.5345   36.3856 H   0  0  0  0  0  0  0  0  0  0  0  0
    1.4393   17.7947   37.5507 H   0  0  0  0  0  0  0  0  0  0  0  0
    4.1356   25.1138   31.6316 H   0  0  0  0  0  0  0  0  0  0  0  0
    2.9162   23.9196   31.5257 H   0  0  0  0  0  0  0  0  0  0  0  0
   -1.6416   16.1390   42.3913 H   0  0  0  0  0  0  0  0  0  0  0  0
   -1.1550   14.9015   43.1796 H   0  0  0  0  0  0  0  0  0  0  0  0
    2.6004   27.0464   30.6449 H   0  0  0  0  0  0  0  0  0  0  0  0
    1.5624   26.0235   30.0219 H   0  0  0  0  0  0  0  0  0  0  0  0
    1.5209   26.9908   32.8163 H   0  0  0  0  0  0  0  0  0  0  0  0
    0.7057   25.4716   32.4629 H   0  0  0  0  0  0  0  0  0  0  0  0
    2.5448   23.5671   36.2231 H   0  0  0  0  0  0  0  0  0  0  0  0
    3.2703   21.8926   36.1716 H   0  0  0  0  0  0  0  0  0  0  0  0
    3.5869   23.8514   32.5287 H   0  0  0  0  0  0  0  0  0  0  0  0
    3.0384   24.3960   34.3751 H   0  0  0  0  0  0  0  0  0  0  0  0
  2 24  1  0
  2  4  1  0
  3 20  1  0
  5 17  1  0
  6  7  1  0
  6  8  1  0
  7 15  1  0
  7  1  2  0
  9 18  2  0
 10 16  1  0
 10 27  1  0
 11 16  2  0
 12 28  1  0
 13  2  1  0
 16 14  1  0
 17 15  1  0
 18 13  1  0
 19 13  2  0
 19  8  1  0
 21 22  2  0
 21  9  1  0
 22 19  1  0
 23 12  1  0
 24  4  1  0
 25 23  1  0
 25 26  1  0
 26 12  1  0
 27  5  1  0
 28  3  1  0
  2 29  1  0
  3 30  1  0
  3 31  1  0
  4 32  1  0
  4 33  1  0
  5 34  1  0
  5 35  1  0
  6 36  1  0
  6 37  1  0
 12 38  1  0
 14 39  1  0
 14 40  1  0
 14 41  1  0
 17 42  1  0
 17 43  1  0
 18 44  1  0
 20 45  1  0
 20 46  1  0
 20 47  1  0
 21 48  1  0
 22 49  1  0
 23 50  1  0
 23 51  1  0
 24 52  1  0
 24 53  1  0
 25 54  1  0
 25 55  1  0
 26 56  1  0
 26 57  1  0
 27 58  1  0
 27 59  1  0
 28 60  1  0
 28 61  1  0
M  CHG  1  20   1
M  END
>  <mol_id>  (72) 
2026-09-18-6fnk-s0-n100-0072

>  <rmsd_to_ref>  (72) 


$$$$

     RDKit          3D

 49 50  0  0  0  0  0  0  0  0999 V2000
    3.5390   21.1750   37.5950 C   0  0  0  0  0  0  0  0  0  0  0  0
    4.6450   24.0350   33.2940 C   0  0  0  0  0  0  0  0  0  0  0  0
    3.2800   21.9490   35.0480 C   0  0  0  0  0  0  0  0  0  0  0  0
    1.1940   21.2570   41.3340 C   0  0  0  0  0  0  0  0  0  0  0  0
    1.0140   20.9090   31.7580 C   0  0  0  0  0  0  0  0  0  0  0  0
    2.2490   20.4300   40.6860 C   0  0  0  0  0  0  0  0  0  0  0  0
    2.8270   20.9240   33.5690 C   0  0  0  0  0  0  0  0  0  0  0  0
    2.4620   21.0740   32.0370 C   0  0  0  0  0  0  0  0  0  0  0  0
    2.3580   19.8320   43.0130 C   0  0  0  0  0  0  0  0  0  0  0  0
    3.6900   21.1550   36.2630 C   0  0  0  0  0  0  0  0  0  0  0  0
    1.0840   20.6260   42.7430 C   0  0  0  0  0  0  0  0  0  0  0  0
    2.4620   20.1720   39.4110 C   0  0  0  0  0  0  0  0  0  0  0  0
    3.0030   19.9410   38.1910 C   0  0  0  0  0  0  0  0  0  0  0  0
    3.3710   23.9510   33.6870 C   0  0  0  0  0  0  0  0  0  0  0  0
    3.8840   23.1940   32.6010 C   0  0  0  0  0  0  0  0  0  0  0  0
    3.0330   19.6210   41.6400 C   0  0  0  0  0  0  0  0  0  0  0  0
    2.0310   21.8070   34.4290 C   0  0  0  0  0  0  0  0  0  0  0  0
    2.8535   21.9979   37.8459 H   0  0  0  0  0  0  0  0  0  0  0  0
    4.5498   21.2968   38.0114 H   0  0  0  0  0  0  0  0  0  0  0  0
    4.9996   24.9591   32.8140 H   0  0  0  0  0  0  0  0  0  0  0  0
    5.6031   23.9200   33.8221 H   0  0  0  0  0  0  0  0  0  0  0  0
    3.9029   22.8001   35.3604 H   0  0  0  0  0  0  0  0  0  0  0  0
    0.2409   21.1813   40.7901 H   0  0  0  0  0  0  0  0  0  0  0  0
    1.4322   22.3307   41.3541 H   0  0  0  0  0  0  0  0  0  0  0  0
    0.4624   20.8462   32.7077 H   0  0  0  0  0  0  0  0  0  0  0  0
    0.6514   21.7716   31.1798 H   0  0  0  0  0  0  0  0  0  0  0  0
    0.8547   19.9869   31.1798 H   0  0  0  0  0  0  0  0  0  0  0  0
    2.3282   21.3681   40.1171 H   0  0  0  0  0  0  0  0  0  0  0  0
    3.2373   19.9554   33.2473 H   0  0  0  0  0  0  0  0  0  0  0  0
    3.0156   20.3109   31.4702 H   0  0  0  0  0  0  0  0  0  0  0  0
    2.7367   22.0957   31.7360 H   0  0  0  0  0  0  0  0  0  0  0  0
    3.0240   20.3958   43.6828 H   0  0  0  0  0  0  0  0  0  0  0  0
    2.1361   18.8722   43.5024 H   0  0  0  0  0  0  0  0  0  0  0  0
    3.3019   20.1565   36.0134 H   0  0  0  0  0  0  0  0  0  0  0  0
    4.6740   21.6440   36.3150 H   0  0  0  0  0  0  0  0  0  0  0  0
    0.9726   21.4184   43.4978 H   0  0  0  0  0  0  0  0  0  0  0  0
    0.2069   19.9641   42.7944 H   0  0  0  0  0  0  0  0  0  0  0  0
    1.8948   19.2296   39.4255 H   0  0  0  0  0  0  0  0  0  0  0  0
    2.8091   21.2111   39.3115 H   0  0  0  0  0  0  0  0  0  0  0  0
    2.2267   19.5319   37.5277 H   0  0  0  0  0  0  0  0  0  0  0  0
    3.8320   19.2280   38.3111 H   0  0  0  0  0  0  0  0  0  0  0  0
    3.1126   23.4583   34.6360 H   0  0  0  0  0  0  0  0  0  0  0  0
    2.5408   24.6567   33.8380 H   0  0  0  0  0  0  0  0  0  0  0  0
    3.5892   23.4337   31.5687 H   0  0  0  0  0  0  0  0  0  0  0  0
    3.9277   22.1280   32.3330 H   0  0  0  0  0  0  0  0  0  0  0  0
    3.0046   18.5584   41.3570 H   0  0  0  0  0  0  0  0  0  0  0  0
    4.0913   19.9206   41.6555 H   0  0  0  0  0  0  0  0  0  0  0  0
    1.6220   22.7092   33.9507 H   0  0  0  0  0  0  0  0  0  0  0  0
    1.0973   21.5259   34.9382 H   0  0  0  0  0  0  0  0  0  0  0  0
  1 13  1  0
  2 14  1  0
  3 10  1  0
  4 11  1  0
  5  8  1  0
  6  4  1  0
  6 16  1  0
  7  8  1  0
  7 17  1  0
  7  3  1  0
 10  1  1  0
 11  9  1  0
 12  6  1  0
 13 12  1  0
 15  2  1  0
 15 14  1  0
 16  9  1  0
 17  3  1  0
  1 18  1  0
  1 19  1  0
  2 20  1  0
  2 21  1  0
  3 22  1  0
  4 23  1  0
  4 24  1  0
  5 25  1  0
  5 26  1  0
  5 27  1  0
  6 28  1  0
  7 29  1  0
  8 30  1  0
  8 31  1  0
  9 32  1  0
  9 33  1  0
 10 34  1  0
 10 35  1  0
 11 36  1  0
 11 37  1  0
 12 38  1  0
 12 39  1  0
 13 40  1  0
 13 41  1  0
 14 42  1  0
 14 43  1  0
 15 44  1  0
 15 45  1  0
 16 46  1  0
 16 47  1  0
 17 48  1  0
 17 49  1  0
M  END
>  <mol_id>  (73) 
2026-09-18-6fnk-s0-n100-0073

>  <rmsd_to_ref>  (73) 


$$$$

     RDKit          3D

 59 58  0  0  0  0  0  0  0  0999 V2000
    0.3810   25.6570   33.7700 C   0  0  0  0  0  0  0  0  0  0  0  0
    3.6510   19.6540   41.9500 S   0  0  0  0  0  4  0  0  0  0  0  0
   -0.9460   15.6530   38.5460 C   0  0  0  0  0  0  0  0  0  0  0  0
    1.1330   17.2100   37.9800 C   0  0  0  0  0  0  0  0  0  0  0  0
    1.9180   17.8950   36.7270 C   0  0  0  0  0  0  0  0  0  0  0  0
    3.1370   22.5240   33.7270 F   0  0  0  0  0  0  0  0  0  0  0  0
    2.7210   20.1040   40.5620 C   0  0  0  0  0  0  0  0  0  0  0  0
    3.9840   17.4010   35.3920 O   0  0  0  0  0  0  0  0  0  0  0  0
    2.1440   23.4460   33.6830 C   0  0  0  0  0  0  0  0  0  0  0  0
    2.5700   19.3290   39.1360 C   0  0  0  0  0  0  0  0  0  0  0  0
    1.5850   21.2770   40.6060 C   0  0  0  0  0  0  0  0  0  0  0  0
    0.7200   26.0680   31.0540 S   0  0  0  0  0  0  0  0  0  0  0  0
    2.8760   20.6240   37.9930 S   0  0  0  0  0  0  0  0  0  0  0  0
    1.9300   19.0070   36.1610 O   0  0  0  0  0  0  0  0  0  0  0  0
   -0.4150   16.6880   38.5300 O   0  0  0  0  0  0  0  0  0  0  0  0
    1.2490   23.5480   34.7240 C   0  0  0  0  0  0  0  0  0  0  0  0
    2.5310   19.2460   43.1200 C   0  0  0  0  0  0  0  0  0  0  0  0
    2.0030   24.3050   32.4950 C   0  0  0  0  0  0  0  0  0  0  0  0
    4.0350   21.0270   42.1290 C   0  0  0  0  0  0  0  0  0  0  0  0
    3.0960   16.9360   36.4910 C   0  0  0  0  0  0  0  0  0  0  0  0
    0.3960   24.7130   34.7910 C   0  0  0  0  0  0  0  0  0  0  0  0
    0.7330   17.2250   41.4040 O   0  0  0  0  0  0  0  0  0  0  0  0
    1.1860   22.4160   35.6970 C   0  0  0  0  0  0  0  0  0  0  0  0
    1.5730   18.3090   39.1380 C   0  0  0  0  0  0  0  0  0  0  0  0
    1.0670   25.2940   32.5670 C   0  0  0  0  0  0  0  0  0  0  0  0
   -0.4100   27.0100   33.8740 C   0  0  0  0  0  0  0  0  0  0  0  0
    1.4720   17.4910   40.3370 N   0  0  0  0  0  0  0  0  0  0  0  0
    4.6040   18.6701   41.9268 H   0  0  0  0  0  0  0  0  0  0  0  0
   -1.1068   15.3395   39.5880 H   0  0  0  0  0  0  0  0  0  0  0  0
   -1.9157   15.7304   38.0325 H   0  0  0  0  0  0  0  0  0  0  0  0
   -0.3175   14.9105   38.0325 H   0  0  0  0  0  0  0  0  0  0  0  0
    1.3317   16.1794   37.6509 H   0  0  0  0  0  0  0  0  0  0  0  0
    3.8006   20.1792   40.7590 H   0  0  0  0  0  0  0  0  0  0  0  0
    4.7919   17.8241   35.7772 H   0  0  0  0  0  0  0  0  0  0  0  0
    3.2518   18.5420   38.7814 H   0  0  0  0  0  0  0  0  0  0  0  0
    1.3494   21.5202   41.6526 H   0  0  0  0  0  0  0  0  0  0  0  0
    1.9655   22.1752   40.0975 H   0  0  0  0  0  0  0  0  0  0  0  0
    0.6751   20.9255   40.0975 H   0  0  0  0  0  0  0  0  0  0  0  0
    0.1677   27.2999   31.2873 H   0  0  0  0  0  0  0  0  0  0  0  0
    3.1492   21.7802   38.6753 H   0  0  0  0  0  0  0  0  0  0  0  0
    2.9677   19.4051   44.1170 H   0  0  0  0  0  0  0  0  0  0  0  0
    1.6364   19.8760   43.0068 H   0  0  0  0  0  0  0  0  0  0  0  0
    2.2513   18.1882   43.0068 H   0  0  0  0  0  0  0  0  0  0  0  0
    2.6204   24.1565   31.5968 H   0  0  0  0  0  0  0  0  0  0  0  0
    4.0982   21.2529   43.2037 H   0  0  0  0  0  0  0  0  0  0  0  0
    5.0153   21.1977   41.6602 H   0  0  0  0  0  0  0  0  0  0  0  0
    3.2854   21.6815   41.6602 H   0  0  0  0  0  0  0  0  0  0  0  0
    2.6990   15.9437   36.2306 H   0  0  0  0  0  0  0  0  0  0  0  0
    3.6919   16.8973   37.4148 H   0  0  0  0  0  0  0  0  0  0  0  0
   -0.2541   24.8557   35.6668 H   0  0  0  0  0  0  0  0  0  0  0  0
    1.2562   17.4133   42.2231 H   0  0  0  0  0  0  0  0  0  0  0  0
    1.2081   22.8126   36.7228 H   0  0  0  0  0  0  0  0  0  0  0  0
    0.2550   21.8509   35.5423 H   0  0  0  0  0  0  0  0  0  0  0  0
    2.0485   21.7511   35.5423 H   0  0  0  0  0  0  0  0  0  0  0  0
    0.9467   19.1880   38.9256 H   0  0  0  0  0  0  0  0  0  0  0  0
   -0.5600   27.2666   34.9331 H   0  0  0  0  0  0  0  0  0  0  0  0
    0.1634   27.8088   33.3809 H   0  0  0  0  0  0  0  0  0  0  0  0
   -1.3873   26.9022   33.3809 H   0  0  0  0  0  0  0  0  0  0  0  0
    1.5325   16.5511   39.9202 H   0  0  0  0  0  0  0  0  0  0  0  0
  1 26  1  0
  1 21  2  0
  2 19  1  0
  2 17  1  0
  4  5  1  0
  4 15  1  0
  4 24  1  0
  7 11  1  0
  7  2  1  0
  8 20  1  0
  9  6  1  0
  9 16  2  0
 10 13  1  0
 10 24  1  0
 10  7  1  0
 12 25  1  0
 14  5  2  0
 15  3  1  0
 16 21  1  0
 16 23  1  0
 18 25  2  0
 18  9  1  0
 20  5  1  0
 24 27  1  0
 25  1  1  0
 27 22  1  0
  2 28  1  0
  3 29  1  0
  3 30  1  0
  3 31  1  0
  4 32  1  0
  7 33  1  0
  8 34  1  0
 10 35  1  0
 11 36  1  0
 11 37  1  0
 11 38  1  0
 12 39  1  0
 13 40  1  0
 17 41  1  0
 17 42  1  0
 17 43  1  0
 18 44  1  0
 19 45  1  0
 19 46  1  0
 19 47  1  0
 20 48  1  0
 20 49  1  0
 21 50  1  0
 22 51  1  0
 23 52  1  0
 23 53  1  0
 23 54  1  0
 24 55  1  0
 26 56  1  0
 26 57  1  0
 26 58  1  0
 27 59  1  0
M  END
>  <mol_id>  (74) 
2026-09-18-6fnk-s0-n100-0074

>  <rmsd_to_ref>  (74) 


$$$$

     RDKit          3D

 63 65  0  0  0  0  0  0  0  0999 V2000
   -3.2150   15.4510   38.8270 C   0  0  0  0  0  0  0  0  0  0  0  0
    3.5100   21.0850   40.4210 O   0  0  0  0  0  0  0  0  0  0  0  0
    7.1800   24.6490   36.7040 C   0  0  0  0  0  0  0  0  0  0  0  0
    2.8700   25.4190   35.2370 C   0  0  0  0  0  0  0  0  0  0  0  0
    1.8010   25.8640   33.6630 S   0  0  0  0  0  0  0  0  0  0  0  0
    3.5610   26.7630   35.4790 C   0  0  0  0  0  0  0  0  0  0  0  0
   -0.0280   16.8140   39.7940 C   0  0  0  0  0  0  0  0  0  0  0  0
    4.9430   26.2440   33.4730 N   0  0  0  0  0  4  0  0  0  0  0  0
    6.1230   23.9960   36.8180 C   0  0  0  0  0  0  0  0  0  0  0  0
    1.3540   18.4320   38.8590 C   0  0  0  0  0  0  0  0  0  0  0  0
    4.7430   23.9780   37.2890 C   0  0  0  0  0  0  0  0  0  0  0  0
    4.6180   25.0910   38.1580 O   0  0  0  0  0  0  0  0  0  0  0  0
    0.1190   16.8440   38.4210 C   0  0  0  0  0  0  0  0  0  0  0  0
   -1.0130   15.7400   39.9740 O   0  0  0  0  0  0  0  0  0  0  0  0
    3.3430   20.1650   37.7490 O   0  0  0  0  0  0  0  0  0  0  0  0
   -0.2360   16.2310   37.1960 C   0  0  0  0  0  0  0  0  0  0  0  0
    1.4570   17.5140   37.8560 C   0  0  0  0  0  0  0  0  0  0  0  0
    3.5910   21.0780   38.9490 S   0  0  0  0  0  6  0  0  0  0  0  0
   -1.9450   15.3910   39.0030 C   0  0  0  0  0  0  0  0  0  0  0  0
    1.6620   24.9500   35.1620 C   0  0  0  0  0  0  0  0  0  0  0  0
    4.0220   22.6370   38.1240 C   0  0  0  0  0  0  0  0  0  0  0  0
   -3.0560   14.3540   39.8380 C   0  0  0  0  0  0  0  0  0  0  0  0
    1.4110   21.4030   39.4580 S   0  0  0  0  0  0  0  0  0  0  0  0
    3.0800   26.0180   32.5140 C   0  0  0  0  0  0  0  0  0  0  0  0
   -2.4000   14.1170   41.0590 C   0  0  0  0  0  0  0  0  0  0  0  0
    0.7640   19.4620   39.6660 C   0  0  0  0  0  0  0  0  0  0  0  0
   -1.8160   14.0830   38.3820 S   0  0  0  0  0  0  0  0  0  0  0  0
    3.2000   23.1200   36.7870 S   0  0  0  0  0  0  0  0  0  0  0  0
    4.3000   25.6000   34.8690 C   0  0  0  0  0  0  0  0  0  0  0  0
   -3.7218   16.3680   39.1622 H   0  0  0  0  0  0  0  0  0  0  0  0
   -3.7584   15.4033   37.8718 H   0  0  0  0  0  0  0  0  0  0  0  0
    8.0587   24.1937   36.2239 H   0  0  0  0  0  0  0  0  0  0  0  0
    7.2332   25.6801   37.0836 H   0  0  0  0  0  0  0  0  0  0  0  0
    2.2181   24.5556   35.4358 H   0  0  0  0  0  0  0  0  0  0  0  0
    3.3013   27.6377   34.8646 H   0  0  0  0  0  0  0  0  0  0  0  0
    3.7133   27.4234   36.3454 H   0  0  0  0  0  0  0  0  0  0  0  0
   -0.4084   17.7729   40.1760 H   0  0  0  0  0  0  0  0  0  0  0  0
    0.9140   16.6463   40.3366 H   0  0  0  0  0  0  0  0  0  0  0  0
    5.6503   26.9524   33.7157 H   0  0  0  0  0  0  0  0  0  0  0  0
    5.3832   25.4946   32.9202 H   0  0  0  0  0  0  0  0  0  0  0  0
    4.1930   26.6831   32.9202 H   0  0  0  0  0  0  0  0  0  0  0  0
    6.3144   23.0094   36.3708 H   0  0  0  0  0  0  0  0  0  0  0  0
    2.2737   18.9832   38.6131 H   0  0  0  0  0  0  0  0  0  0  0  0
    0.6985   17.7177   39.3787 H   0  0  0  0  0  0  0  0  0  0  0  0
    4.6528   24.7815   39.0977 H   0  0  0  0  0  0  0  0  0  0  0  0
   -0.8745   16.9187   38.8871 H   0  0  0  0  0  0  0  0  0  0  0  0
   -0.7779   15.2952   37.3977 H   0  0  0  0  0  0  0  0  0  0  0  0
   -0.8802   16.9107   36.6190 H   0  0  0  0  0  0  0  0  0  0  0  0
    0.6742   16.0105   36.6190 H   0  0  0  0  0  0  0  0  0  0  0  0
    2.3492   16.8729   37.9114 H   0  0  0  0  0  0  0  0  0  0  0  0
    1.5504   17.8176   36.8029 H   0  0  0  0  0  0  0  0  0  0  0  0
    1.5603   23.8588   35.0680 H   0  0  0  0  0  0  0  0  0  0  0  0
    0.8708   25.0464   35.9201 H   0  0  0  0  0  0  0  0  0  0  0  0
    4.4061   22.3897   39.1246 H   0  0  0  0  0  0  0  0  0  0  0  0
    4.0370   26.1332   33.0439 H   0  0  0  0  0  0  0  0  0  0  0  0
    3.1164   25.1177   31.8830 H   0  0  0  0  0  0  0  0  0  0  0  0
    2.9016   26.9012   31.8830 H   0  0  0  0  0  0  0  0  0  0  0  0
   -3.0759   14.3612   41.8918 H   0  0  0  0  0  0  0  0  0  0  0  0
   -2.1107   13.0575   41.1202 H   0  0  0  0  0  0  0  0  0  0  0  0
   -1.5003   14.7469   41.1202 H   0  0  0  0  0  0  0  0  0  0  0  0
   -0.3147   19.4591   39.4508 H   0  0  0  0  0  0  0  0  0  0  0  0
    1.0678   19.1957   40.6891 H   0  0  0  0  0  0  0  0  0  0  0  0
    5.0825   24.8390   35.0052 H   0  0  0  0  0  0  0  0  0  0  0  0
  1 19  1  0
  1 22  1  0
  3  9  2  3
  4 20  1  0
  4  6  1  0
  5 20  1  0
  7 14  1  0
  9 11  1  0
 10 26  1  0
 11 21  1  0
 11 12  1  0
 13 16  1  0
 13  7  1  0
 15 18  2  0
 17 13  1  0
 17 10  1  0
 18 23  1  0
 18  2  2  0
 19 22  1  0
 19 14  1  0
 21 18  1  0
 22 25  1  0
 23 26  1  0
 24  5  1  0
 27 19  1  0
 27 22  1  0
 28 11  1  0
 28 21  1  0
 29  8  1  0
 29  4  1  0
 29  6  1  0
  1 30  1  0
  1 31  1  0
  3 32  1  0
  3 33  1  0
  4 34  1  0
  6 35  1  0
  6 36  1  0
  7 37  1  0
  7 38  1  0
  8 39  1  0
  8 40  1  0
  8 41  1  0
  9 42  1  0
 10 43  1  0
 10 44  1  0
 12 45  1  0
 13 46  1  0
 16 47  1  0
 16 48  1  0
 16 49  1  0
 17 50  1  0
 17 51  1  0
 20 52  1  0
 20 53  1  0
 21 54  1  0
 24 55  1  0
 24 56  1  0
 24 57  1  0
 25 58  1  0
 25 59  1  0
 25 60  1  0
 26 61  1  0
 26 62  1  0
 29 63  1  0
M  CHG  1   8   1
M  END
>  <mol_id>  (75) 
2026-09-18-6fnk-s0-n100-0075

>  <rmsd_to_ref>  (75) 


$$$$

     RDKit          3D

 69 69  0  0  0  0  0  0  0  0999 V2000
    3.1600   20.6630   39.3350 C   0  0  0  0  0  0  0  0  0  0  0  0
    2.7770   24.4400   33.5790 C   0  0  0  0  0  0  0  0  0  0  0  0
    1.1680   26.4160   33.4920 C   0  0  0  0  0  0  0  0  0  0  0  0
    2.4440   18.5680   40.7340 N   0  0  0  0  0  0  0  0  0  0  0  0
    5.9950   23.2960   36.8400 O   0  0  0  0  0  0  0  0  0  0  0  0
   -0.6350   15.1460   39.8050 C   0  0  0  0  0  0  0  0  0  0  0  0
   -0.1980   16.0630   37.6320 C   0  0  0  0  0  0  0  0  0  0  0  0
    1.0640   16.6770   40.6700 C   0  0  0  0  0  0  0  0  0  0  0  0
    4.0380   23.0340   35.3980 C   0  0  0  0  0  0  0  0  0  0  0  0
    0.8560   16.9500   37.9390 C   0  0  0  0  0  0  0  0  0  0  0  0
    5.3550   23.7870   35.6810 C   0  0  0  0  0  0  0  0  0  0  0  0
    2.6570   19.6960   39.9100 N   0  0  0  0  0  0  0  0  0  0  0  0
   -1.6460   14.3210   40.4570 C   0  0  0  0  0  0  0  0  0  0  0  0
    2.7390   23.6100   34.9660 C   0  0  0  0  0  0  0  0  0  0  0  0
    2.6210   22.0690   37.1990 C   0  0  0  0  0  0  0  0  0  0  0  0
    0.0050   26.4380   34.4130 C   0  0  0  0  0  0  0  0  0  0  0  0
    1.1660   27.0210   32.2560 C   0  0  0  0  0  0  0  0  0  0  0  0
    1.7070   17.8630   38.6110 N   0  0  0  0  0  4  0  0  0  0  0  0
    0.8210   15.4840   39.8660 C   0  0  0  0  0  0  0  0  0  0  0  0
    3.9280   22.3150   36.7050 N   0  0  0  0  0  4  0  0  0  0  0  0
   -1.0970   15.0320   38.3060 C   0  0  0  0  0  0  0  0  0  0  0  0
    1.8340   17.6540   39.7720 C   0  0  0  0  0  0  0  0  0  0  0  0
    2.7840   18.5660   42.2130 C   0  0  0  0  0  0  0  0  0  0  0  0
    2.2770   25.7290   33.7700 N   0  0  0  0  0  4  0  0  0  0  0  0
    2.7650   20.8390   38.0350 C   0  0  0  0  0  0  0  0  0  0  0  0
    2.8932   21.5699   39.8975 H   0  0  0  0  0  0  0  0  0  0  0  0
    4.2423   20.4691   39.3015 H   0  0  0  0  0  0  0  0  0  0  0  0
    2.1629   23.9204   32.8287 H   0  0  0  0  0  0  0  0  0  0  0  0
    3.8188   24.5089   33.2326 H   0  0  0  0  0  0  0  0  0  0  0  0
    5.5367   23.6476   37.6440 H   0  0  0  0  0  0  0  0  0  0  0  0
   -0.6110   15.8751   40.6283 H   0  0  0  0  0  0  0  0  0  0  0  0
   -0.9419   16.7515   37.2046 H   0  0  0  0  0  0  0  0  0  0  0  0
    0.4958   15.2900   37.2698 H   0  0  0  0  0  0  0  0  0  0  0  0
    0.1098   17.1230   40.9873 H   0  0  0  0  0  0  0  0  0  0  0  0
    1.6345   16.4362   41.5791 H   0  0  0  0  0  0  0  0  0  0  0  0
    4.1582   22.5330   34.4261 H   0  0  0  0  0  0  0  0  0  0  0  0
    1.6550   16.2305   37.7066 H   0  0  0  0  0  0  0  0  0  0  0  0
    0.1175   17.7632   37.8814 H   0  0  0  0  0  0  0  0  0  0  0  0
    6.0293   23.6627   34.8209 H   0  0  0  0  0  0  0  0  0  0  0  0
    5.1168   24.8486   35.8427 H   0  0  0  0  0  0  0  0  0  0  0  0
    1.8603   20.2281   40.2882 H   0  0  0  0  0  0  0  0  0  0  0  0
   -1.5410   14.4067   41.5486 H   0  0  0  0  0  0  0  0  0  0  0  0
   -2.6475   14.6630   40.1570 H   0  0  0  0  0  0  0  0  0  0  0  0
   -1.5119   13.2712   40.1570 H   0  0  0  0  0  0  0  0  0  0  0  0
    2.3879   24.2879   35.7579 H   0  0  0  0  0  0  0  0  0  0  0  0
    2.0710   22.7541   34.7895 H   0  0  0  0  0  0  0  0  0  0  0  0
    1.9179   21.8966   36.3708 H   0  0  0  0  0  0  0  0  0  0  0  0
    2.2217   22.9199   37.7704 H   0  0  0  0  0  0  0  0  0  0  0  0
    0.3613   26.4313   35.4537 H   0  0  0  0  0  0  0  0  0  0  0  0
   -0.5873   27.3475   34.2341 H   0  0  0  0  0  0  0  0  0  0  0  0
   -0.6212   25.5515   34.2341 H   0  0  0  0  0  0  0  0  0  0  0  0
    0.2953   27.6111   31.9339 H   0  0  0  0  0  0  0  0  0  0  0  0
    2.0351   26.9145   31.5901 H   0  0  0  0  0  0  0  0  0  0  0  0
    2.6378   17.8178   38.1723 H   0  0  0  0  0  0  0  0  0  0  0  0
    1.2666   18.7903   38.5267 H   0  0  0  0  0  0  0  0  0  0  0  0
    1.3653   14.6376   40.3102 H   0  0  0  0  0  0  0  0  0  0  0  0
    1.1704   15.6831   38.8421 H   0  0  0  0  0  0  0  0  0  0  0  0
    4.3960   21.4037   36.5982 H   0  0  0  0  0  0  0  0  0  0  0  0
    4.3588   22.9476   37.3943 H   0  0  0  0  0  0  0  0  0  0  0  0
   -2.1602   15.2903   38.1924 H   0  0  0  0  0  0  0  0  0  0  0  0
   -1.0113   14.0190   37.8859 H   0  0  0  0  0  0  0  0  0  0  0  0
    2.4080   17.1583   38.9752 H   0  0  0  0  0  0  0  0  0  0  0  0
    1.8554   18.5715   42.8027 H   0  0  0  0  0  0  0  0  0  0  0  0
    3.3662   17.6644   42.4542 H   0  0  0  0  0  0  0  0  0  0  0  0
    3.3768   19.4607   42.4542 H   0  0  0  0  0  0  0  0  0  0  0  0
    2.3395   25.8316   34.7930 H   0  0  0  0  0  0  0  0  0  0  0  0
    2.7902   26.1133   32.9639 H   0  0  0  0  0  0  0  0  0  0  0  0
    1.7638   20.3844   38.0035 H   0  0  0  0  0  0  0  0  0  0  0  0
    3.6927   20.4754   37.5690 H   0  0  0  0  0  0  0  0  0  0  0  0
  1 12  1  0
  2 24  1  0
  2 14  1  0
  3 24  1  0
  3 16  1  0
  4 23  1  0
  6 19  1  0
  6 13  1  0
  7 10  1  0
  7 21  1  0
  9 14  1  0
  9 11  1  0
  9 20  1  0
 10 18  1  0
 11  5  1  0
 12  4  1  0
 15 25  1  0
 17  3  2  3
 18 22  1  0
 19  8  1  0
 20 15  1  0
 21  6  1  0
 22  8  1  0
 22  4  1  0
 25  1  1  0
  1 26  1  0
  1 27  1  0
  2 28  1  0
  2 29  1  0
  5 30  1  0
  6 31  1  0
  7 32  1  0
  7 33  1  0
  8 34  1  0
  8 35  1  0
  9 36  1  0
 10 37  1  0
 10 38  1  0
 11 39  1  0
 11 40  1  0
 12 41  1  0
 13 42  1  0
 13 43  1  0
 13 44  1  0
 14 45  1  0
 14 46  1  0
 15 47  1  0
 15 48  1  0
 16 49  1  0
 16 50  1  0
 16 51  1  0
 17 52  1  0
 17 53  1  0
 18 54  1  0
 18 55  1  0
 19 56  1  0
 19 57  1  0
 20 58  1  0
 20 59  1  0
 21 60  1  0
 21 61  1  0
 22 62  1  0
 23 63  1  0
 23 64  1  0
 23 65  1  0
 24 66  1  0
 24 67  1  0
 25 68  1  0
 25 69  1  0
M  CHG  3  18   1  20   1  24   1
M  END
>  <mol_id>  (76) 
2026-09-18-6fnk-s0-n100-0076

>  <rmsd_to_ref>  (76) 


$$$$

     RDKit          3D

 57 57  0  0  0  0  0  0  0  0999 V2000
   -2.1650   14.0950   39.9170 O   0  0  0  0  0  0  0  0  0  0  0  0
    3.0310   20.0900   37.5260 C   0  0  0  0  0  0  0  0  0  0  0  0
    3.9610   25.0070   34.0300 C   0  0  0  0  0  0  0  0  0  0  0  0
    1.2930   24.4630   34.7210 C   0  0  0  0  0  0  0  0  0  0  0  0
    0.9040   15.8840   38.7460 C   0  0  0  0  0  0  0  0  0  0  0  0
    4.2270   24.4160   35.2810 C   0  0  0  0  0  0  0  0  0  0  0  0
    0.9100   16.8630   37.4940 C   0  0  0  0  0  0  0  0  0  0  0  0
   -0.0840   13.6740   40.3300 O   0  0  0  0  0  1  0  0  0  0  0  0
    3.5320   22.6110   36.7780 N   0  0  0  0  0  4  0  0  0  0  0  0
    5.1670   20.2570   43.0980 C   0  0  0  0  0  0  0  0  0  0  0  0
    5.4180   24.4470   36.0290 F   0  0  0  0  0  0  0  0  0  0  0  0
    2.9010   21.0500   38.5970 C   0  0  0  0  0  0  0  0  0  0  0  0
   -0.5820   15.4770   38.9190 C   0  0  0  0  0  0  0  0  0  0  0  0
    1.9630   17.5850   37.1370 N   0  0  0  0  0  0  0  0  0  0  0  0
    4.9950   21.5880   42.6310 O   0  0  0  0  0  0  0  0  0  0  0  0
    2.7410   18.5960   38.0350 N   0  0  0  0  0  0  0  0  0  0  0  0
    1.4010   25.0210   33.4180 C   0  0  0  0  0  0  0  0  0  0  0  0
   -0.9100   14.3560   39.8650 C   0  0  0  0  0  0  0  0  0  0  0  0
    4.1930   21.5000   41.1480 C   0  0  0  0  0  0  0  0  0  0  0  0
    1.9500   23.8320   35.7940 C   0  0  0  0  0  0  0  0  0  0  0  0
    4.8040   22.8110   38.9160 C   0  0  0  0  0  0  0  0  0  0  0  0
    3.5090   22.4620   38.3050 C   0  0  0  0  0  0  0  0  0  0  0  0
    3.2900   23.6710   36.0200 C   0  0  0  0  0  0  0  0  0  0  0  0
    2.8320   25.1520   33.1510 C   0  0  0  0  0  0  0  0  0  0  0  0
    5.1430   22.1750   40.1210 C   0  0  0  0  0  0  0  0  0  0  0  0
    4.0542   20.1385   37.1251 H   0  0  0  0  0  0  0  0  0  0  0  0
    2.2931   20.3386   36.7490 H   0  0  0  0  0  0  0  0  0  0  0  0
    4.8588   25.4868   33.6133 H   0  0  0  0  0  0  0  0  0  0  0  0
    0.2400   24.5712   35.0203 H   0  0  0  0  0  0  0  0  0  0  0  0
    1.2719   16.4009   39.6446 H   0  0  0  0  0  0  0  0  0  0  0  0
    1.5597   15.0134   38.5972 H   0  0  0  0  0  0  0  0  0  0  0  0
    0.6636   16.2387   36.6225 H   0  0  0  0  0  0  0  0  0  0  0  0
    0.2151   17.6468   37.8299 H   0  0  0  0  0  0  0  0  0  0  0  0
    4.4852   22.3250   36.5124 H   0  0  0  0  0  0  0  0  0  0  0  0
    2.6591   22.1014   36.5797 H   0  0  0  0  0  0  0  0  0  0  0  0
    5.1677   20.2516   44.1980 H   0  0  0  0  0  0  0  0  0  0  0  0
    4.3425   19.6294   42.7288 H   0  0  0  0  0  0  0  0  0  0  0  0
    6.1240   19.8596   42.7288 H   0  0  0  0  0  0  0  0  0  0  0  0
    1.8296   21.1786   38.8103 H   0  0  0  0  0  0  0  0  0  0  0  0
    3.4722   20.6414   39.4436 H   0  0  0  0  0  0  0  0  0  0  0  0
   -1.1246   16.3675   39.2692 H   0  0  0  0  0  0  0  0  0  0  0  0
   -0.8739   15.0915   37.9310 H   0  0  0  0  0  0  0  0  0  0  0  0
    2.6682   16.8984   36.8336 H   0  0  0  0  0  0  0  0  0  0  0  0
    3.6575   18.1694   38.2322 H   0  0  0  0  0  0  0  0  0  0  0  0
    0.9338   24.3551   32.6775 H   0  0  0  0  0  0  0  0  0  0  0  0
    0.8893   25.9926   33.3530 H   0  0  0  0  0  0  0  0  0  0  0  0
    4.0107   20.4511   40.8713 H   0  0  0  0  0  0  0  0  0  0  0  0
    3.2124   21.9971   41.1845 H   0  0  0  0  0  0  0  0  0  0  0  0
    1.2896   23.4059   36.5636 H   0  0  0  0  0  0  0  0  0  0  0  0
    4.7980   23.8946   39.1053 H   0  0  0  0  0  0  0  0  0  0  0  0
    5.5579   22.4646   38.1937 H   0  0  0  0  0  0  0  0  0  0  0  0
    2.8602   23.1921   38.8110 H   0  0  0  0  0  0  0  0  0  0  0  0
    3.9060   24.3905   36.5793 H   0  0  0  0  0  0  0  0  0  0  0  0
    3.0217   24.4214   32.3508 H   0  0  0  0  0  0  0  0  0  0  0  0
    2.8597   26.2483   33.0658 H   0  0  0  0  0  0  0  0  0  0  0  0
    5.8455   21.3808   39.8282 H   0  0  0  0  0  0  0  0  0  0  0  0
    5.4143   23.0654   40.7072 H   0  0  0  0  0  0  0  0  0  0  0  0
  2 16  1  0
  2 12  1  0
  3  6  2  0
  4 20  2  0
  5 13  1  0
  6 23  1  0
  6 11  1  0
  7  5  1  0
  9 22  1  0
 13 18  1  0
 14  7  1  0
 14 16  1  0
 15 10  1  0
 17  4  1  0
 18  1  2  0
 18  8  1  0
 19 15  1  0
 20 23  1  0
 21 25  1  0
 22 12  1  0
 22 21  1  0
 23  9  1  0
 24 17  1  0
 24  3  1  0
 25 19  1  0
  2 26  1  0
  2 27  1  0
  3 28  1  0
  4 29  1  0
  5 30  1  0
  5 31  1  0
  7 32  1  0
  7 33  1  0
  9 34  1  0
  9 35  1  0
 10 36  1  0
 10 37  1  0
 10 38  1  0
 12 39  1  0
 12 40  1  0
 13 41  1  0
 13 42  1  0
 14 43  1  0
 16 44  1  0
 17 45  1  0
 17 46  1  0
 19 47  1  0
 19 48  1  0
 20 49  1  0
 21 50  1  0
 21 51  1  0
 22 52  1  0
 23 53  1  0
 24 54  1  0
 24 55  1  0
 25 56  1  0
 25 57  1  0
M  CHG  2   8  -1   9   1
M  END
>  <mol_id>  (77) 
2026-09-18-6fnk-s0-n100-0077

>  <rmsd_to_ref>  (77) 


$$$$

     RDKit          3D

 59 59  0  0  0  0  0  0  0  0999 V2000
    0.6390   17.6900   40.8410 C   0  0  0  0  0  0  0  0  0  0  0  0
    1.4770   18.8120   40.1750 C   0  0  0  0  0  0  0  0  0  0  0  0
    3.5180   24.7660   33.2580 C   0  0  0  0  0  0  0  0  0  0  0  0
    0.7470   17.6370   44.8030 C   0  0  0  0  0  0  0  0  0  0  0  0
    3.1510   20.5330   37.4070 N   0  0  0  0  0  0  0  0  0  0  0  0
    2.4470   20.1990   38.4870 C   0  0  0  0  0  0  0  0  0  0  0  0
    0.9530   16.1950   36.4280 C   0  0  0  0  0  0  0  0  0  0  0  0
    0.3380   17.3070   36.2110 N   0  0  0  0  0  0  0  0  0  0  0  0
   -0.2880   18.7150   44.9930 C   0  0  0  0  0  0  0  0  0  0  0  0
   -0.4430   19.2750   43.6000 C   0  0  0  0  0  0  0  0  0  0  0  0
    0.6270   20.2080   43.3240 C   0  0  0  0  0  0  0  0  0  0  0  0
    1.4080   25.6210   34.0610 C   0  0  0  0  0  0  0  0  0  0  0  0
    0.8040   18.3290   36.8250 O   0  0  0  0  0  0  0  0  0  0  0  0
    4.8660   22.2490   37.2070 C   0  0  0  0  0  0  0  0  0  0  0  0
    1.7550   17.8470   37.8110 C   0  0  0  0  0  0  0  0  0  0  0  0
    2.2530   21.1710   39.8580 S   0  0  0  0  0  0  0  0  0  0  0  0
    3.5390   21.9790   34.7630 O   0  0  0  0  0  0  0  0  0  0  0  0
    1.8930   18.8730   38.7980 C   0  0  0  0  0  0  0  0  0  0  0  0
    2.5870   26.8000   32.0230 C   0  0  0  0  0  0  0  0  0  0  0  0
    4.3360   23.9970   34.0530 C   0  0  0  0  0  0  0  0  0  0  0  0
    2.7290   26.2120   33.3550 C   0  0  0  0  0  0  0  0  0  0  0  0
    1.1880   20.5490   42.1850 C   0  0  0  0  0  0  0  0  0  0  0  0
    1.2150   26.8020   31.3320 C   0  0  0  0  0  0  0  0  0  0  0  0
    1.8140   16.5660   37.5690 C   0  0  0  0  0  0  0  0  0  0  0  0
    1.5920   20.0390   40.9320 C   0  0  0  0  0  0  0  0  0  0  0  0
    4.2080   22.7470   34.6520 C   0  0  0  0  0  0  0  0  0  0  0  0
    4.1210   21.3730   37.2760 C   0  0  0  0  0  0  0  0  0  0  0  0
    0.7074   17.7816   41.9350 H   0  0  0  0  0  0  0  0  0  0  0  0
   -0.4120   17.7837   40.5302 H   0  0  0  0  0  0  0  0  0  0  0  0
    1.0272   16.7088   40.5302 H   0  0  0  0  0  0  0  0  0  0  0  0
    2.6951   24.0707   33.0360 H   0  0  0  0  0  0  0  0  0  0  0  0
    4.3561   25.1837   32.6809 H   0  0  0  0  0  0  0  0  0  0  0  0
    1.0895   17.2803   45.7856 H   0  0  0  0  0  0  0  0  0  0  0  0
    0.3057   16.7998   44.2423 H   0  0  0  0  0  0  0  0  0  0  0  0
    1.6015   18.0438   44.2423 H   0  0  0  0  0  0  0  0  0  0  0  0
    2.8786   20.0447   36.5420 H   0  0  0  0  0  0  0  0  0  0  0  0
    0.8613   15.2315   35.9053 H   0  0  0  0  0  0  0  0  0  0  0  0
   -1.2362   18.2945   45.3593 H   0  0  0  0  0  0  0  0  0  0  0  0
    0.0008   19.4711   45.7379 H   0  0  0  0  0  0  0  0  0  0  0  0
   -0.4076   18.4528   42.8701 H   0  0  0  0  0  0  0  0  0  0  0  0
   -1.4081   19.7973   43.5244 H   0  0  0  0  0  0  0  0  0  0  0  0
    0.2631   21.1603   43.7372 H   0  0  0  0  0  0  0  0  0  0  0  0
    1.4532   19.5921   43.7088 H   0  0  0  0  0  0  0  0  0  0  0  0
    1.5223   25.6721   35.1539 H   0  0  0  0  0  0  0  0  0  0  0  0
    0.5329   26.2134   33.7557 H   0  0  0  0  0  0  0  0  0  0  0  0
    1.2664   24.5737   33.7557 H   0  0  0  0  0  0  0  0  0  0  0  0
    5.5774   23.0854   37.1411 H   0  0  0  0  0  0  0  0  0  0  0  0
    2.9051   27.8500   32.1027 H   0  0  0  0  0  0  0  0  0  0  0  0
    3.1925   26.1384   31.3861 H   0  0  0  0  0  0  0  0  0  0  0  0
    5.2434   23.8866   33.4411 H   0  0  0  0  0  0  0  0  0  0  0  0
    4.1551   24.5715   34.9734 H   0  0  0  0  0  0  0  0  0  0  0  0
    3.1733   27.0630   33.8919 H   0  0  0  0  0  0  0  0  0  0  0  0
    0.5200   21.3627   41.8662 H   0  0  0  0  0  0  0  0  0  0  0  0
    2.1929   20.3890   42.6028 H   0  0  0  0  0  0  0  0  0  0  0  0
    0.4210   26.8032   32.0933 H   0  0  0  0  0  0  0  0  0  0  0  0
    1.1221   27.7003   30.7039 H   0  0  0  0  0  0  0  0  0  0  0  0
    1.1195   25.9040   30.7039 H   0  0  0  0  0  0  0  0  0  0  0  0
    2.4265   15.8539   38.1415 H   0  0  0  0  0  0  0  0  0  0  0  0
    5.1379   22.5010   35.1857 H   0  0  0  0  0  0  0  0  0  0  0  0
  2  1  1  0
  2 25  2  0
  3 21  1  0
  3 20  1  0
  4  9  1  0
  5  6  1  0
  6 18  2  0
  6 16  1  0
  7 24  1  0
  8  7  2  0
  8 13  1  0
 10  9  1  0
 11 10  1  0
 13 15  1  0
 14 27  3  0
 15 18  1  0
 16 25  1  0
 18  2  1  0
 19 21  1  0
 20 26  1  0
 21 12  1  0
 22 11  1  0
 23 19  1  0
 24 15  2  0
 25 22  1  0
 26 17  2  0
 27  5  1  0
  1 28  1  0
  1 29  1  0
  1 30  1  0
  3 31  1  0
  3 32  1  0
  4 33  1  0
  4 34  1  0
  4 35  1  0
  5 36  1  0
  7 37  1  0
  9 38  1  0
  9 39  1  0
 10 40  1  0
 10 41  1  0
 11 42  1  0
 11 43  1  0
 12 44  1  0
 12 45  1  0
 12 46  1  0
 14 47  1  0
 19 48  1  0
 19 49  1  0
 20 50  1  0
 20 51  1  0
 21 52  1  0
 22 53  1  0
 22 54  1  0
 23 55  1  0
 23 56  1  0
 23 57  1  0
 24 58  1  0
 26 59  1  0
M  END
>  <mol_id>  (78) 
2026-09-18-6fnk-s0-n100-0079

>  <rmsd_to_ref>  (78) 


$$$$

     RDKit          3D

 58 59  0  0  0  0  0  0  0  0999 V2000
   -0.3180   16.1180   37.0610 C   0  0  0  0  0  0  0  0  0  0  0  0
    0.4590   25.3530   34.7090 C   0  0  0  0  0  0  0  0  0  0  0  0
    3.1350   21.4760   34.5390 C   0  0  0  0  0  0  0  0  0  0  0  0
    1.9710   25.4630   32.8720 C   0  0  0  0  0  0  0  0  0  0  0  0
    1.4820   17.7100   39.5280 O   0  0  0  0  0  0  0  0  0  0  0  0
    0.0100   17.4760   36.7420 C   0  0  0  0  0  0  0  0  0  0  0  0
    2.6910   20.3510   41.1450 C   0  0  0  0  0  0  0  0  0  0  0  0
    0.9350   25.9490   33.5810 C   0  0  0  0  0  0  0  0  0  0  0  0
    1.4600   17.8580   36.9780 C   0  0  0  0  0  0  0  0  0  0  0  0
    0.5850   20.6960   42.4070 C   0  0  0  0  0  0  0  0  0  0  0  0
    2.6650   20.3530   39.8210 N   0  0  0  0  0  4  0  0  0  0  0  0
    1.1300   24.2890   35.2010 C   0  0  0  0  0  0  0  0  0  0  0  0
    2.4360   19.5930   38.8100 C   0  0  0  0  0  0  0  0  0  0  0  0
    2.0790   17.9140   44.9810 F   0  0  0  0  0  0  0  0  0  0  0  0
   -0.2350   27.7780   34.4170 C   0  0  0  0  0  0  0  0  0  0  0  0
    0.1590   19.2470   44.3030 C   0  0  0  0  0  0  0  0  0  0  0  0
    2.7150   24.3900   33.4310 C   0  0  0  0  0  0  0  0  0  0  0  0
    0.4070   27.2060   33.2360 O   0  0  0  0  0  0  0  0  0  0  0  0
    3.0880   22.8440   35.3000 C   0  0  0  0  0  0  0  0  0  0  0  0
    1.6720   19.9880   42.0800 C   0  0  0  0  0  0  0  0  0  0  0  0
   -0.2060   20.3190   43.4610 C   0  0  0  0  0  0  0  0  0  0  0  0
    1.9940   18.7770   42.7940 C   0  0  0  0  0  0  0  0  0  0  0  0
    1.3280   18.5310   43.9560 C   0  0  0  0  0  0  0  0  0  0  0  0
    2.3500   23.8150   34.6490 C   0  0  0  0  0  0  0  0  0  0  0  0
    2.6860   19.8530   37.7520 C   0  0  0  0  0  0  0  0  0  0  0  0
    1.8970   18.3920   38.4350 C   0  0  0  0  0  0  0  0  0  0  0  0
    4.4530   22.2510   35.0250 C   0  0  0  0  0  0  0  0  0  0  0  0
   -0.3477   15.9949   38.1537 H   0  0  0  0  0  0  0  0  0  0  0  0
   -1.3021   15.8692   36.6371 H   0  0  0  0  0  0  0  0  0  0  0  0
    0.4440   15.4475   36.6371 H   0  0  0  0  0  0  0  0  0  0  0  0
   -0.4477   25.7280   35.2062 H   0  0  0  0  0  0  0  0  0  0  0  0
    2.8810   21.4230   33.4700 H   0  0  0  0  0  0  0  0  0  0  0  0
    2.7053   20.4731   34.6792 H   0  0  0  0  0  0  0  0  0  0  0  0
    2.2332   25.8839   31.8901 H   0  0  0  0  0  0  0  0  0  0  0  0
    1.7726   18.1876   40.3450 H   0  0  0  0  0  0  0  0  0  0  0  0
   -0.6208   18.1333   37.3585 H   0  0  0  0  0  0  0  0  0  0  0  0
   -0.1660   17.5893   35.6621 H   0  0  0  0  0  0  0  0  0  0  0  0
    2.9436   21.3880   41.4110 H   0  0  0  0  0  0  0  0  0  0  0  0
    3.3337   19.4683   41.2780 H   0  0  0  0  0  0  0  0  0  0  0  0
    2.0677   16.9661   36.7653 H   0  0  0  0  0  0  0  0  0  0  0  0
    1.6163   18.7254   36.3198 H   0  0  0  0  0  0  0  0  0  0  0  0
    0.3231   21.5909   41.8234 H   0  0  0  0  0  0  0  0  0  0  0  0
    1.9993   21.1183   39.6420 H   0  0  0  0  0  0  0  0  0  0  0  0
    3.6763   20.1642   39.7714 H   0  0  0  0  0  0  0  0  0  0  0  0
    0.7111   23.7637   36.0720 H   0  0  0  0  0  0  0  0  0  0  0  0
    0.2299   27.3638   35.3238 H   0  0  0  0  0  0  0  0  0  0  0  0
   -0.1117   28.8710   34.4082 H   0  0  0  0  0  0  0  0  0  0  0  0
   -1.3066   27.5298   34.4082 H   0  0  0  0  0  0  0  0  0  0  0  0
   -0.4379   18.9808   45.1878 H   0  0  0  0  0  0  0  0  0  0  0  0
    3.5947   24.0053   32.8942 H   0  0  0  0  0  0  0  0  0  0  0  0
    2.7590   23.3092   36.2409 H   0  0  0  0  0  0  0  0  0  0  0  0
   -1.1428   20.8622   43.6541 H   0  0  0  0  0  0  0  0  0  0  0  0
    2.7515   18.0762   42.4130 H   0  0  0  0  0  0  0  0  0  0  0  0
    2.4563   19.1445   36.9425 H   0  0  0  0  0  0  0  0  0  0  0  0
    3.1618   20.8174   37.5203 H   0  0  0  0  0  0  0  0  0  0  0  0
    2.6774   18.2124   37.6808 H   0  0  0  0  0  0  0  0  0  0  0  0
    5.0536   21.8473   35.8534 H   0  0  0  0  0  0  0  0  0  0  0  0
    5.3698   22.6078   34.5330 H   0  0  0  0  0  0  0  0  0  0  0  0
  2 12  2  0
  3 27  1  0
  3 19  1  0
  4 17  1  0
  4  8  2  0
  6  9  1  0
  6  1  1  0
  7 20  1  0
  8  2  1  0
  9 26  1  0
 10 21  2  0
 11  7  1  0
 13 11  1  0
 17 24  2  0
 18  8  1  0
 18 15  1  0
 20 10  1  0
 20 22  2  0
 21 16  1  0
 22 23  1  0
 23 16  2  0
 23 14  1  0
 24 12  1  0
 24 19  1  0
 25 13  2  3
 26 13  1  0
 26  5  1  0
 27 19  1  0
  1 28  1  0
  1 29  1  0
  1 30  1  0
  2 31  1  0
  3 32  1  0
  3 33  1  0
  4 34  1  0
  5 35  1  0
  6 36  1  0
  6 37  1  0
  7 38  1  0
  7 39  1  0
  9 40  1  0
  9 41  1  0
 10 42  1  0
 11 43  1  0
 11 44  1  0
 12 45  1  0
 15 46  1  0
 15 47  1  0
 15 48  1  0
 16 49  1  0
 17 50  1  0
 19 51  1  0
 21 52  1  0
 22 53  1  0
 25 54  1  0
 25 55  1  0
 26 56  1  0
 27 57  1  0
 27 58  1  0
M  CHG  1  11   1
M  END
>  <mol_id>  (79) 
2026-09-18-6fnk-s0-n100-0080

>  <rmsd_to_ref>  (79) 


$$$$

     RDKit          3D

 67 69  0  0  0  0  0  0  0  0999 V2000
    0.8950   17.0920   37.4790 O   0  0  0  0  0  0  0  0  0  0  0  0
    1.8830   25.3920   33.6180 C   0  0  0  0  0  0  0  0  0  0  0  0
    2.6510   20.0810   40.0470 C   0  0  0  0  0  0  0  0  0  0  0  0
    1.5120   26.8940   33.9660 C   0  0  0  0  0  0  0  0  0  0  0  0
    4.7900   22.4720   38.3430 C   0  0  0  0  0  0  0  0  0  0  0  0
   -0.4500   16.6640   36.9450 C   0  0  0  0  0  0  0  0  0  0  0  0
    1.4150   25.0040   32.3420 C   0  0  0  0  0  0  0  0  0  0  0  0
    4.5480   22.8520   35.7540 C   0  0  0  0  0  0  0  0  0  0  0  0
   -0.4430   16.3460   39.4400 C   0  0  0  0  0  0  0  0  0  0  0  0
    1.0220   16.7750   38.9540 C   0  0  0  0  0  0  0  0  0  0  0  0
    1.1980   24.3510   33.6850 C   0  0  0  0  0  0  0  0  0  0  0  0
    1.3870   20.0420   40.5090 C   0  0  0  0  0  0  0  0  0  0  0  0
    1.5990   18.9340   41.5820 C   0  0  0  0  0  0  0  0  0  0  0  0
    2.1610   17.2340   39.6920 C   0  0  0  0  0  0  0  0  0  0  0  0
    2.7390   21.4410   39.3160 C   0  0  0  0  0  0  0  0  0  0  0  0
    3.5050   23.8200   35.5250 C   0  0  0  0  0  0  0  0  0  0  0  0
    3.4130   21.6840   38.0190 C   0  0  0  0  0  0  0  0  0  0  0  0
    2.1190   17.6870   41.0960 C   0  0  0  0  0  0  0  0  0  0  0  0
    5.1600   23.3510   37.1400 C   0  0  0  0  0  0  0  0  0  0  0  0
    1.1750   19.1990   43.0130 C   0  0  0  0  0  0  0  0  0  0  0  0
    1.0620   18.0980   43.8990 C   0  0  0  0  0  0  0  0  0  0  0  0
   -1.2790   16.8990   38.3090 C   0  0  0  0  0  0  0  0  0  0  0  0
    2.1820   23.0910   35.3540 C   0  0  0  0  0  0  0  0  0  0  0  0
    2.1740   22.4220   37.1020 C   0  0  0  0  0  0  0  0  0  0  0  0
    2.8850   26.3450   33.9120 C   0  0  0  0  0  0  0  0  0  0  0  0
    3.3722   20.0352   40.8763 H   0  0  0  0  0  0  0  0  0  0  0  0
    2.8888   19.2309   39.3907 H   0  0  0  0  0  0  0  0  0  0  0  0
    1.1480   27.5799   33.1869 H   0  0  0  0  0  0  0  0  0  0  0  0
    0.8817   27.4209   34.6975 H   0  0  0  0  0  0  0  0  0  0  0  0
    4.6522   23.1041   39.2327 H   0  0  0  0  0  0  0  0  0  0  0  0
    5.5954   21.7478   38.5348 H   0  0  0  0  0  0  0  0  0  0  0  0
   -0.8007   17.3047   36.1225 H   0  0  0  0  0  0  0  0  0  0  0  0
   -0.5081   15.6609   36.4973 H   0  0  0  0  0  0  0  0  0  0  0  0
    0.6094   25.5542   31.8337 H   0  0  0  0  0  0  0  0  0  0  0  0
    1.8206   24.7495   31.3517 H   0  0  0  0  0  0  0  0  0  0  0  0
    5.3005   22.8771   34.9520 H   0  0  0  0  0  0  0  0  0  0  0  0
    4.1925   21.8112   35.7737 H   0  0  0  0  0  0  0  0  0  0  0  0
   -0.5406   15.2533   39.5210 H   0  0  0  0  0  0  0  0  0  0  0  0
   -0.7213   16.7132   40.4388 H   0  0  0  0  0  0  0  0  0  0  0  0
    1.6325   15.9885   39.4216 H   0  0  0  0  0  0  0  0  0  0  0  0
    1.6828   23.3899   33.9115 H   0  0  0  0  0  0  0  0  0  0  0  0
    0.3128   24.0439   34.2612 H   0  0  0  0  0  0  0  0  0  0  0  0
    1.0728   20.9989   40.9512 H   0  0  0  0  0  0  0  0  0  0  0  0
    0.6002   19.8554   39.7633 H   0  0  0  0  0  0  0  0  0  0  0  0
    2.8819   16.4034   39.6705 H   0  0  0  0  0  0  0  0  0  0  0  0
    2.3687   18.1836   39.1772 H   0  0  0  0  0  0  0  0  0  0  0  0
    1.6961   21.7563   39.1641 H   0  0  0  0  0  0  0  0  0  0  0  0
    3.4246   21.9755   39.9900 H   0  0  0  0  0  0  0  0  0  0  0  0
    3.4410   24.5035   36.3845 H   0  0  0  0  0  0  0  0  0  0  0  0
    3.7294   24.4005   34.6180 H   0  0  0  0  0  0  0  0  0  0  0  0
    3.7813   20.8405   37.4166 H   0  0  0  0  0  0  0  0  0  0  0  0
    1.5455   16.9132   41.6275 H   0  0  0  0  0  0  0  0  0  0  0  0
    3.1922   17.8651   41.2588 H   0  0  0  0  0  0  0  0  0  0  0  0
    6.2560   23.3662   37.0478 H   0  0  0  0  0  0  0  0  0  0  0  0
    4.7352   24.3471   37.3332 H   0  0  0  0  0  0  0  0  0  0  0  0
    0.9600   20.2218   43.3560 H   0  0  0  0  0  0  0  0  0  0  0  0
    1.0989   18.4580   44.9378 H   0  0  0  0  0  0  0  0  0  0  0  0
    0.1062   17.5826   43.7233 H   0  0  0  0  0  0  0  0  0  0  0  0
    1.8931   17.3992   43.7233 H   0  0  0  0  0  0  0  0  0  0  0  0
   -1.4565   17.9738   38.4619 H   0  0  0  0  0  0  0  0  0  0  0  0
   -2.2565   16.3966   38.2637 H   0  0  0  0  0  0  0  0  0  0  0  0
    1.3393   23.7664   35.1449 H   0  0  0  0  0  0  0  0  0  0  0  0
    2.0851   22.3768   34.5231 H   0  0  0  0  0  0  0  0  0  0  0  0
    1.8692   23.2838   37.7139 H   0  0  0  0  0  0  0  0  0  0  0  0
    1.5928   21.5107   36.8977 H   0  0  0  0  0  0  0  0  0  0  0  0
    3.4547   26.2456   34.8477 H   0  0  0  0  0  0  0  0  0  0  0  0
    3.7855   26.6617   33.3653 H   0  0  0  0  0  0  0  0  0  0  0  0
  1 10  1  0
  2 11  1  0
  2 25  1  0
  2  4  1  0
  3 12  1  0
  6  1  1  0
  6 22  1  0
  7  2  1  0
  7 11  1  0
  8 19  1  0
 10  9  1  0
 10 14  1  0
 12 13  1  0
 13 20  2  3
 14 18  1  0
 15  3  1  0
 16  8  1  0
 17  5  1  0
 17 15  1  0
 18 13  1  0
 19  5  1  0
 20 21  1  0
 22  9  1  0
 23 16  1  0
 23 24  1  0
 24 17  1  0
 25  4  1  0
  3 26  1  0
  3 27  1  0
  4 28  1  0
  4 29  1  0
  5 30  1  0
  5 31  1  0
  6 32  1  0
  6 33  1  0
  7 34  1  0
  7 35  1  0
  8 36  1  0
  8 37  1  0
  9 38  1  0
  9 39  1  0
 10 40  1  0
 11 41  1  0
 11 42  1  0
 12 43  1  0
 12 44  1  0
 14 45  1  0
 14 46  1  0
 15 47  1  0
 15 48  1  0
 16 49  1  0
 16 50  1  0
 17 51  1  0
 18 52  1  0
 18 53  1  0
 19 54  1  0
 19 55  1  0
 20 56  1  0
 21 57  1  0
 21 58  1  0
 21 59  1  0
 22 60  1  0
 22 61  1  0
 23 62  1  0
 23 63  1  0
 24 64  1  0
 24 65  1  0
 25 66  1  0
 25 67  1  0
M  END
>  <mol_id>  (80) 
2026-09-18-6fnk-s0-n100-0081

>  <rmsd_to_ref>  (80) 


$$$$

     RDKit          3D

 61 60  0  0  0  0  0  0  0  0999 V2000
   -0.7820   13.3800   39.7330 O   0  0  0  0  0  0  0  0  0  0  0  0
    1.0920   25.8320   35.5970 C   0  0  0  0  0  0  0  0  0  0  0  0
   -0.2620   12.8500   38.9050 C   0  0  0  0  0  0  0  0  0  0  0  0
    1.5880   24.5550   35.2020 C   0  0  0  0  0  0  0  0  0  0  0  0
    3.7210   21.9370   35.0780 Cl  0  0  0  0  0  0  0  0  0  0  0  0
    0.0220   15.8100   37.9610 N   0  0  0  0  0  0  0  0  0  0  0  0
    0.6490   26.9760   34.7710 C   0  0  0  0  0  0  0  0  0  0  0  0
    3.3290   22.0290   37.6990 C   0  0  0  0  0  0  0  0  0  0  0  0
   -0.9110   28.9240   35.4710 C   0  0  0  0  0  0  0  0  0  0  0  0
    4.3720   22.7260   38.2870 C   0  0  0  0  0  0  0  0  0  0  0  0
    0.2530   16.9110   37.0400 C   0  0  0  0  0  0  0  0  0  0  0  0
    0.1900   12.5290   36.5260 N   0  0  0  0  0  4  0  0  0  0  0  0
    2.8430   22.4960   36.3850 C   0  0  0  0  0  0  0  0  0  0  0  0
    4.7690   20.3790   42.6090 C   0  0  0  0  0  0  0  0  0  0  0  0
   -0.2470   14.6620   37.3510 C   0  0  0  0  0  0  0  0  0  0  0  0
    4.8530   22.3930   39.5240 C   0  0  0  0  0  0  0  0  0  0  0  0
    3.3590   19.7920   42.5200 C   0  0  0  0  0  0  0  0  0  0  0  0
    2.7430   20.8400   38.3750 C   0  0  0  0  0  0  0  0  0  0  0  0
    4.3320   21.2400   40.3150 C   0  0  0  0  0  0  0  0  0  0  0  0
    3.2450   20.4910   39.6830 C   0  0  0  0  0  0  0  0  0  0  0  0
    1.3410   17.4200   36.9260 O   0  0  0  0  0  0  0  0  0  0  0  0
    1.9850   23.5170   36.0880 C   0  0  0  0  0  0  0  0  0  0  0  0
    0.3120   13.4560   37.6590 C   0  0  0  0  0  0  0  0  0  0  0  0
    5.0190   21.3240   41.5200 O   0  0  0  0  0  0  0  0  0  0  0  0
    0.4990   26.6930   33.2980 C   0  0  0  0  0  0  0  0  0  0  0  0
   -0.9420   17.3470   36.3390 C   0  0  0  0  0  0  0  0  0  0  0  0
    0.5200   28.3640   35.2280 C   0  0  0  0  0  0  0  0  0  0  0  0
    1.0291   25.9908   36.6837 H   0  0  0  0  0  0  0  0  0  0  0  0
   -0.1570   11.7602   39.0118 H   0  0  0  0  0  0  0  0  0  0  0  0
    1.6702   24.3569   34.1231 H   0  0  0  0  0  0  0  0  0  0  0  0
    0.0630   15.9107   38.9852 H   0  0  0  0  0  0  0  0  0  0  0  0
   -0.1425   27.0826   35.5274 H   0  0  0  0  0  0  0  0  0  0  0  0
   -1.0974   28.9969   36.5526 H   0  0  0  0  0  0  0  0  0  0  0  0
   -0.9964   29.9219   35.0161 H   0  0  0  0  0  0  0  0  0  0  0  0
   -1.6510   28.2491   35.0161 H   0  0  0  0  0  0  0  0  0  0  0  0
    4.8253   23.5692   37.7453 H   0  0  0  0  0  0  0  0  0  0  0  0
    0.0638   11.5698   36.8793 H   0  0  0  0  0  0  0  0  0  0  0  0
   -0.6234   12.7934   35.9521 H   0  0  0  0  0  0  0  0  0  0  0  0
    1.0442   12.5739   35.9521 H   0  0  0  0  0  0  0  0  0  0  0  0
    1.9187   22.1025   36.8331 H   0  0  0  0  0  0  0  0  0  0  0  0
    4.8798   20.9020   43.5703 H   0  0  0  0  0  0  0  0  0  0  0  0
    5.4944   19.5560   42.5291 H   0  0  0  0  0  0  0  0  0  0  0  0
   -0.0085   14.8320   36.2907 H   0  0  0  0  0  0  0  0  0  0  0  0
   -1.2774   14.4937   37.6973 H   0  0  0  0  0  0  0  0  0  0  0  0
    5.6605   23.0031   39.9549 H   0  0  0  0  0  0  0  0  0  0  0  0
    2.9654   19.6281   43.5340 H   0  0  0  0  0  0  0  0  0  0  0  0
    2.7037   20.4921   41.9810 H   0  0  0  0  0  0  0  0  0  0  0  0
    3.3941   18.8337   41.9810 H   0  0  0  0  0  0  0  0  0  0  0  0
    1.9524   20.2458   37.8935 H   0  0  0  0  0  0  0  0  0  0  0  0
    2.7988   19.6400   40.2185 H   0  0  0  0  0  0  0  0  0  0  0  0
    2.1061   24.1129   37.0046 H   0  0  0  0  0  0  0  0  0  0  0  0
    1.3678   22.8109   35.5131 H   0  0  0  0  0  0  0  0  0  0  0  0
    1.3775   13.6401   37.8613 H   0  0  0  0  0  0  0  0  0  0  0  0
   -0.0121   25.7288   33.1601 H   0  0  0  0  0  0  0  0  0  0  0  0
   -0.0938   27.4925   32.8295 H   0  0  0  0  0  0  0  0  0  0  0  0
    1.4934   26.6512   32.8295 H   0  0  0  0  0  0  0  0  0  0  0  0
   -1.7139   17.6286   37.0703 H   0  0  0  0  0  0  0  0  0  0  0  0
   -0.7007   18.2150   35.7079 H   0  0  0  0  0  0  0  0  0  0  0  0
   -1.3164   16.5275   35.7079 H   0  0  0  0  0  0  0  0  0  0  0  0
    1.0695   28.4480   36.1772 H   0  0  0  0  0  0  0  0  0  0  0  0
    0.9117   28.9649   34.3940 H   0  0  0  0  0  0  0  0  0  0  0  0
  3  1  2  0
  4  2  2  3
  4 22  1  0
  7 25  1  0
  7 27  1  0
  7  2  1  0
  8 10  2  0
  8 18  1  0
 10 16  1  0
 11  6  1  0
 13  5  1  0
 13  8  1  0
 15 23  1  0
 15  6  1  0
 16 19  2  0
 17 14  1  0
 18 20  2  0
 19 24  1  0
 20 19  1  0
 21 11  2  0
 22 13  1  0
 23 12  1  0
 23  3  1  0
 24 14  1  0
 26 11  1  0
 27  9  1  0
  2 28  1  0
  3 29  1  0
  4 30  1  0
  6 31  1  0
  7 32  1  0
  9 33  1  0
  9 34  1  0
  9 35  1  0
 10 36  1  0
 12 37  1  0
 12 38  1  0
 12 39  1  0
 13 40  1  0
 14 41  1  0
 14 42  1  0
 15 43  1  0
 15 44  1  0
 16 45  1  0
 17 46  1  0
 17 47  1  0
 17 48  1  0
 18 49  1  0
 20 50  1  0
 22 51  1  0
 22 52  1  0
 23 53  1  0
 25 54  1  0
 25 55  1  0
 25 56  1  0
 26 57  1  0
 26 58  1  0
 26 59  1  0
 27 60  1  0
 27 61  1  0
M  CHG  1  12   1
M  END
>  <mol_id>  (81) 
2026-09-18-6fnk-s0-n100-0082

>  <rmsd_to_ref>  (81) 


$$$$

     RDKit          3D

 87 89  0  0  0  0  0  0  0  0999 V2000
    3.6320   13.3330   34.5950 C   0  0  0  0  0  0  0  0  0  0  0  0
    1.7040   22.8900   37.6170 C   0  0  0  0  0  0  0  0  0  0  0  0
    1.8200   24.1640   38.1260 O   0  0  0  0  0  0  0  0  0  0  0  0
    0.6560   23.6640   35.3360 C   0  0  0  0  0  0  0  0  0  0  0  0
   -0.1240   15.5740   41.4550 C   0  0  0  0  0  0  0  0  0  0  0  0
   -1.3780   29.3700   34.4450 C   0  0  0  0  0  0  0  0  0  0  0  0
    3.4060   21.2060   38.6050 C   0  0  0  0  0  0  0  0  0  0  0  0
    3.4620   13.8140   35.9770 C   0  0  0  0  0  0  0  0  0  0  0  0
    0.1120   29.7780   35.8320 C   0  0  0  0  0  0  0  0  0  0  0  0
    0.0130   15.7620   37.6680 C   0  0  0  0  0  0  0  0  0  0  0  0
    0.2880   15.5410   40.0750 C   0  0  0  0  0  0  0  0  0  0  0  0
    4.7110   21.8650   38.5940 C   0  0  0  0  0  0  0  0  0  0  0  0
    0.5140   22.1750   40.7770 C   0  0  0  0  0  0  0  0  0  0  0  0
    1.4680   25.0250   35.1180 C   0  0  0  0  0  0  0  0  0  0  0  0
    2.2260   15.8100   38.6240 C   0  0  0  0  0  0  0  0  0  0  0  0
    2.0030   15.8170   36.1140 C   0  0  0  0  0  0  0  0  0  0  0  0
    3.1310   15.2540   35.8080 N   0  0  0  0  0  4  0  0  0  0  0  0
   -0.6450   14.7800   42.3470 C   0  0  0  0  0  0  0  0  0  0  0  0
   -0.0380   28.7540   34.7630 C   0  0  0  0  0  0  0  0  0  0  0  0
    0.0670   26.5360   33.2690 C   0  0  0  0  0  0  0  0  0  0  0  0
    0.9960   22.7410   36.3160 C   0  0  0  0  0  0  0  0  0  0  0  0
    4.9030   14.0530   33.8940 C   0  0  0  0  0  0  0  0  0  0  0  0
    0.4300   21.7490   42.2580 C   0  0  0  0  0  0  0  0  0  0  0  0
    1.6820   15.6430   39.9150 C   0  0  0  0  0  0  0  0  0  0  0  0
   -1.2870   29.9590   35.5750 C   0  0  0  0  0  0  0  0  0  0  0  0
    5.5620   15.0140   34.1930 N   0  0  0  0  0  0  0  0  0  0  0  0
    2.1530   21.9170   38.6180 C   0  0  0  0  0  0  0  0  0  0  0  0
    5.3300   14.3470   31.7430 C   0  0  0  0  0  0  0  0  0  0  0  0
    2.0540   20.2980   40.0190 C   0  0  0  0  0  0  0  0  0  0  0  0
    5.0770   13.2180   32.8300 O   0  0  0  0  0  0  0  0  0  0  0  0
    0.5040   25.8860   34.6340 C   0  0  0  0  0  0  0  0  0  0  0  0
   -0.5550   15.5720   38.9270 C   0  0  0  0  0  0  0  0  0  0  0  0
    1.3970   15.8970   37.4980 C   0  0  0  0  0  0  0  0  0  0  0  0
    1.5090   21.5440   39.8520 C   0  0  0  0  0  0  0  0  0  0  0  0
    0.1740   27.3430   34.9960 C   0  0  0  0  0  0  0  0  0  0  0  0
    3.1840   20.0950   39.3110 O   0  0  0  0  0  0  0  0  0  0  0  0
    3.7944   12.2451   34.6081 H   0  0  0  0  0  0  0  0  0  0  0  0
    2.7255   13.5751   34.0208 H   0  0  0  0  0  0  0  0  0  0  0  0
    2.0708   22.1935   36.8487 H   0  0  0  0  0  0  0  0  0  0  0  0
    1.8165   24.1257   39.1153 H   0  0  0  0  0  0  0  0  0  0  0  0
    0.7022   23.1241   34.3787 H   0  0  0  0  0  0  0  0  0  0  0  0
   -0.3123   24.0355   35.7025 H   0  0  0  0  0  0  0  0  0  0  0  0
    0.0554   16.5702   41.8856 H   0  0  0  0  0  0  0  0  0  0  0  0
   -1.3838   30.0404   33.5729 H   0  0  0  0  0  0  0  0  0  0  0  0
   -2.2525   28.7631   34.1677 H   0  0  0  0  0  0  0  0  0  0  0  0
    3.6873   20.9863   37.5645 H   0  0  0  0  0  0  0  0  0  0  0  0
    2.6434   13.2794   36.4810 H   0  0  0  0  0  0  0  0  0  0  0  0
    4.3544   13.6508   36.5991 H   0  0  0  0  0  0  0  0  0  0  0  0
    0.3706   29.3949   36.8302 H   0  0  0  0  0  0  0  0  0  0  0  0
    0.8586   30.5857   35.8234 H   0  0  0  0  0  0  0  0  0  0  0  0
   -0.6423   15.8071   36.7856 H   0  0  0  0  0  0  0  0  0  0  0  0
    5.0453   22.0338   39.6283 H   0  0  0  0  0  0  0  0  0  0  0  0
    5.4397   21.2268   38.0727 H   0  0  0  0  0  0  0  0  0  0  0  0
    4.6300   22.8302   38.0727 H   0  0  0  0  0  0  0  0  0  0  0  0
   -0.4793   21.9919   40.3412 H   0  0  0  0  0  0  0  0  0  0  0  0
    0.8669   23.2148   40.8421 H   0  0  0  0  0  0  0  0  0  0  0  0
    1.8862   25.3924   36.0667 H   0  0  0  0  0  0  0  0  0  0  0  0
    2.3289   24.9133   34.4424 H   0  0  0  0  0  0  0  0  0  0  0  0
    3.3171   15.8728   38.4997 H   0  0  0  0  0  0  0  0  0  0  0  0
    1.2487   15.3057   35.4978 H   0  0  0  0  0  0  0  0  0  0  0  0
    2.2735   16.8729   35.9658 H   0  0  0  0  0  0  0  0  0  0  0  0
    3.8427   15.7607   36.3535 H   0  0  0  0  0  0  0  0  0  0  0  0
    3.0795   15.3035   34.7805 H   0  0  0  0  0  0  0  0  0  0  0  0
   -0.8410   15.1492   43.3645 H   0  0  0  0  0  0  0  0  0  0  0  0
   -0.8888   13.7405   42.0826 H   0  0  0  0  0  0  0  0  0  0  0  0
    0.7166   28.6120   33.9753 H   0  0  0  0  0  0  0  0  0  0  0  0
    0.8016   26.7658   32.4831 H   0  0  0  0  0  0  0  0  0  0  0  0
   -0.6810   26.3728   32.4792 H   0  0  0  0  0  0  0  0  0  0  0  0
    0.0313   22.2926   36.5957 H   0  0  0  0  0  0  0  0  0  0  0  0
    1.8316   22.2791   35.7698 H   0  0  0  0  0  0  0  0  0  0  0  0
    0.6026   22.6242   42.9016 H   0  0  0  0  0  0  0  0  0  0  0  0
   -0.5674   21.3333   42.4640 H   0  0  0  0  0  0  0  0  0  0  0  0
    1.1950   20.9858   42.4640 H   0  0  0  0  0  0  0  0  0  0  0  0
    2.3443   15.5928   40.7918 H   0  0  0  0  0  0  0  0  0  0  0  0
   -1.5557   31.0233   35.5045 H   0  0  0  0  0  0  0  0  0  0  0  0
   -1.9577   29.5727   36.3566 H   0  0  0  0  0  0  0  0  0  0  0  0
    6.3454   15.3083   33.5925 H   0  0  0  0  0  0  0  0  0  0  0  0
    2.6191   22.7278   39.1971 H   0  0  0  0  0  0  0  0  0  0  0  0
    5.5437   15.3007   32.2478 H   0  0  0  0  0  0  0  0  0  0  0  0
    6.1872   14.0649   31.1140 H   0  0  0  0  0  0  0  0  0  0  0  0
    4.4344   14.4577   31.1140 H   0  0  0  0  0  0  0  0  0  0  0  0
    2.2848   20.1613   41.0858 H   0  0  0  0  0  0  0  0  0  0  0  0
    1.3126   19.5739   39.6504 H   0  0  0  0  0  0  0  0  0  0  0  0
    0.2259   24.8916   35.0133 H   0  0  0  0  0  0  0  0  0  0  0  0
   -1.6428   15.4473   39.0328 H   0  0  0  0  0  0  0  0  0  0  0  0
    0.6761   21.1036   39.2842 H   0  0  0  0  0  0  0  0  0  0  0  0
    0.1643   27.6622   36.0486 H   0  0  0  0  0  0  0  0  0  0  0  0
  1  8  1  0
  2  3  1  0
  4 21  1  0
  5 18  2  3
  6 19  1  0
  6 25  1  0
  7 12  1  0
  7 27  1  0
  7 36  1  0
 10 32  2  0
 11  5  1  0
 13 23  1  0
 14  4  1  0
 15 24  1  0
 16 33  1  0
 17  8  1  0
 17 16  1  0
 19  9  1  0
 20 31  1  0
 20 35  1  0
 21  2  1  0
 22 26  2  3
 22  1  1  0
 24 11  2  0
 25  9  1  0
 27  2  1  0
 27 34  1  0
 28 30  1  0
 30 22  1  0
 31 35  1  0
 31 14  1  0
 32 11  1  0
 33 10  1  0
 33 15  2  0
 34 29  1  0
 34 13  1  0
 35 19  1  0
 36 29  1  0
  1 37  1  0
  1 38  1  0
  2 39  1  0
  3 40  1  0
  4 41  1  0
  4 42  1  0
  5 43  1  0
  6 44  1  0
  6 45  1  0
  7 46  1  0
  8 47  1  0
  8 48  1  0
  9 49  1  0
  9 50  1  0
 10 51  1  0
 12 52  1  0
 12 53  1  0
 12 54  1  0
 13 55  1  0
 13 56  1  0
 14 57  1  0
 14 58  1  0
 15 59  1  0
 16 60  1  0
 16 61  1  0
 17 62  1  0
 17 63  1  0
 18 64  1  0
 18 65  1  0
 19 66  1  0
 20 67  1  0
 20 68  1  0
 21 69  1  0
 21 70  1  0
 23 71  1  0
 23 72  1  0
 23 73  1  0
 24 74  1  0
 25 75  1  0
 25 76  1  0
 26 77  1  0
 27 78  1  0
 28 79  1  0
 28 80  1  0
 28 81  1  0
 29 82  1  0
 29 83  1  0
 31 84  1  0
 32 85  1  0
 34 86  1  0
 35 87  1  0
M  CHG  1  17   1
M  END
>  <mol_id>  (82) 
2026-09-18-6fnk-s0-n100-0083

>  <rmsd_to_ref>  (82) 


$$$$

     RDKit          3D

 69 69  0  0  0  0  0  0  0  0999 V2000
    2.4300   21.2190   36.2040 C   0  0  0  0  0  0  0  0  0  0  0  0
    2.7270   21.3810   37.5770 C   0  0  0  0  0  0  0  0  0  0  0  0
    1.9830   21.5130   38.7690 C   0  0  0  0  0  0  0  0  0  0  0  0
    6.0710   25.2730   33.1150 C   0  0  0  0  0  0  0  0  0  0  0  0
    1.9740   20.3160   39.6910 N   0  0  0  0  0  0  0  0  0  0  0  0
    3.3510   19.5090   41.5430 C   0  0  0  0  0  0  0  0  0  0  0  0
   -1.3720   15.5920   37.9680 N   0  0  0  0  0  4  0  0  0  0  0  0
    2.4970   14.3990   36.1210 O   0  0  0  0  0  0  0  0  0  0  0  0
    1.4280   14.5500   37.5600 P   0  0  0  0  0  0  0  0  0  0  0  0
    3.1020   24.6320   32.0620 S   0  0  0  0  0  0  0  0  0  0  0  0
    1.9280   19.0260   39.1490 C   0  0  0  0  0  0  0  0  0  0  0  0
    0.9230   19.6050   43.1680 C   0  0  0  0  0  0  0  0  0  0  0  0
    0.0390   19.8570   44.1860 C   0  0  0  0  0  0  0  0  0  0  0  0
    4.8660   24.5790   32.6900 C   0  0  0  0  0  0  0  0  0  0  0  0
    3.9460   23.6940   32.9670 C   0  0  0  0  0  0  0  0  0  0  0  0
    0.5010   13.4100   37.2180 O   0  0  0  0  0  0  0  0  0  0  0  0
    2.0480   24.5000   35.1650 O   0  0  0  0  0  0  0  0  0  0  0  0
   -0.6990   21.8850   43.2400 C   0  0  0  0  0  0  0  0  0  0  0  0
    1.1260   16.7970   35.9360 C   0  0  0  0  0  0  0  0  0  0  0  0
    2.2460   17.0710   36.7970 C   0  0  0  0  0  0  0  0  0  0  0  0
   -0.8540   15.9570   36.7860 C   0  0  0  0  0  0  0  0  0  0  0  0
    2.4880   23.3340   34.9320 C   0  0  0  0  0  0  0  0  0  0  0  0
    3.5370   23.1010   34.0250 N   0  0  0  0  0  0  0  0  0  0  0  0
   -1.4150   23.0850   43.3630 N   0  0  0  0  0  0  0  0  0  0  0  0
    2.1740   20.3410   41.0560 C   0  0  0  0  0  0  0  0  0  0  0  0
    0.2670   21.6850   42.1210 C   0  0  0  0  0  0  0  0  0  0  0  0
    2.0980   22.2970   35.6020 N   0  0  0  0  0  0  0  0  0  0  0  0
    1.1200   20.5380   42.1150 C   0  0  0  0  0  0  0  0  0  0  0  0
   -0.8090   20.9790   44.2730 C   0  0  0  0  0  0  0  0  0  0  0  0
    0.7150   16.1800   37.1780 C   0  0  0  0  0  0  0  0  0  0  0  0
    3.3206   20.8079   35.7061 H   0  0  0  0  0  0  0  0  0  0  0  0
    1.5588   20.5496   36.1495 H   0  0  0  0  0  0  0  0  0  0  0  0
    3.3604   20.5067   37.7878 H   0  0  0  0  0  0  0  0  0  0  0  0
    2.9398   22.4568   37.4909 H   0  0  0  0  0  0  0  0  0  0  0  0
    2.3970   22.3641   39.3295 H   0  0  0  0  0  0  0  0  0  0  0  0
    0.9387   21.6433   38.4489 H   0  0  0  0  0  0  0  0  0  0  0  0
    6.1122   25.2967   34.2140 H   0  0  0  0  0  0  0  0  0  0  0  0
    6.9544   24.7454   32.7263 H   0  0  0  0  0  0  0  0  0  0  0  0
    6.0580   26.3019   32.7263 H   0  0  0  0  0  0  0  0  0  0  0  0
    3.3636   19.5001   42.6429 H   0  0  0  0  0  0  0  0  0  0  0  0
    3.2518   18.4793   41.1691 H   0  0  0  0  0  0  0  0  0  0  0  0
    4.2886   19.9461   41.1691 H   0  0  0  0  0  0  0  0  0  0  0  0
   -0.8050   15.9915   38.7294 H   0  0  0  0  0  0  0  0  0  0  0  0
   -2.3388   15.9395   38.0412 H   0  0  0  0  0  0  0  0  0  0  0  0
   -1.3700   14.5646   38.0412 H   0  0  0  0  0  0  0  0  0  0  0  0
    3.4324   14.2669   36.4172 H   0  0  0  0  0  0  0  0  0  0  0  0
    2.3503   25.4675   32.8455 H   0  0  0  0  0  0  0  0  0  0  0  0
    1.9016   18.2869   39.9633 H   0  0  0  0  0  0  0  0  0  0  0  0
    1.0255   18.9208   38.5289 H   0  0  0  0  0  0  0  0  0  0  0  0
    2.8207   18.8568   38.5289 H   0  0  0  0  0  0  0  0  0  0  0  0
    1.4902   18.6625   43.1669 H   0  0  0  0  0  0  0  0  0  0  0  0
   -0.0122   19.1219   45.0027 H   0  0  0  0  0  0  0  0  0  0  0  0
    5.2267   24.1665   31.7362 H   0  0  0  0  0  0  0  0  0  0  0  0
    4.2568   25.3538   33.1785 H   0  0  0  0  0  0  0  0  0  0  0  0
    4.1554   22.6149   32.9252 H   0  0  0  0  0  0  0  0  0  0  0  0
    0.1647   12.9965   38.0523 H   0  0  0  0  0  0  0  0  0  0  0  0
    0.5396   17.6637   35.5969 H   0  0  0  0  0  0  0  0  0  0  0  0
    1.1596   16.3210   34.9449 H   0  0  0  0  0  0  0  0  0  0  0  0
    3.2025   16.5409   36.6783 H   0  0  0  0  0  0  0  0  0  0  0  0
    2.8089   17.9404   37.1674 H   0  0  0  0  0  0  0  0  0  0  0  0
   -1.3122   16.8858   36.4154 H   0  0  0  0  0  0  0  0  0  0  0  0
   -1.0169   15.2277   35.9788 H   0  0  0  0  0  0  0  0  0  0  0  0
    4.0992   22.2718   34.2644 H   0  0  0  0  0  0  0  0  0  0  0  0
   -1.3647   23.7935   42.6171 H   0  0  0  0  0  0  0  0  0  0  0  0
   -1.9910   23.2576   44.1993 H   0  0  0  0  0  0  0  0  0  0  0  0
    2.3503   21.4236   40.9724 H   0  0  0  0  0  0  0  0  0  0  0  0
    0.3227   22.4181   41.3028 H   0  0  0  0  0  0  0  0  0  0  0  0
    1.0744   22.3740   35.6871 H   0  0  0  0  0  0  0  0  0  0  0  0
   -1.5106   21.1221   45.1080 H   0  0  0  0  0  0  0  0  0  0  0  0
  1  2  1  0
  2  3  1  0
  3  5  1  0
  5 25  1  0
  8  9  1  0
 11  5  1  0
 12 13  2  0
 13 29  1  0
 14 15  1  0
 14  4  1  0
 15 10  1  0
 15 23  1  0
 16  9  1  0
 18 24  1  0
 18 29  2  0
 19 20  1  0
 19 30  1  0
 20 30  1  0
 21 30  1  0
 21  7  1  0
 22 17  2  0
 22 27  1  0
 23 22  1  0
 25  6  1  0
 25 28  1  0
 26 18  1  0
 27  1  1  0
 28 26  2  0
 28 12  1  0
 30  9  1  0
  1 31  1  0
  1 32  1  0
  2 33  1  0
  2 34  1  0
  3 35  1  0
  3 36  1  0
  4 37  1  0
  4 38  1  0
  4 39  1  0
  6 40  1  0
  6 41  1  0
  6 42  1  0
  7 43  1  0
  7 44  1  0
  7 45  1  0
  8 46  1  0
 10 47  1  0
 11 48  1  0
 11 49  1  0
 11 50  1  0
 12 51  1  0
 13 52  1  0
 14 53  1  0
 14 54  1  0
 15 55  1  0
 16 56  1  0
 19 57  1  0
 19 58  1  0
 20 59  1  0
 20 60  1  0
 21 61  1  0
 21 62  1  0
 23 63  1  0
 24 64  1  0
 24 65  1  0
 25 66  1  0
 26 67  1  0
 27 68  1  0
 29 69  1  0
M  CHG  1   7   1
M  END
>  <mol_id>  (83) 
2026-09-18-6fnk-s0-n100-0084

>  <rmsd_to_ref>  (83) 


$$$$

     RDKit          3D

 59 62  0  0  0  0  0  0  0  0999 V2000
   -0.6980   16.0220   39.2000 C   0  0  0  0  0  0  0  0  0  0  0  0
    2.0170   18.6600   39.8730 N   0  0  0  0  0  0  0  0  0  0  0  0
    2.0670   26.4430   33.0930 C   0  0  0  0  0  0  0  0  0  0  0  0
    2.5240   19.1890   38.6390 C   0  0  0  0  0  0  0  0  0  0  0  0
    3.3280   18.2080   42.2590 O   0  0  0  0  0  0  0  0  0  0  0  0
    1.5090   17.3590   40.2850 C   0  0  0  0  0  0  0  0  0  0  0  0
    1.2390   24.0400   34.5390 C   0  0  0  0  0  0  0  0  0  0  0  0
    3.1010   25.2160   33.1510 C   0  0  0  0  0  0  0  0  0  0  0  0
    0.3150   14.2070   37.5930 C   0  0  0  0  0  0  0  0  0  0  0  0
    1.4290   18.1960   43.6890 O   0  0  0  0  0  0  0  0  0  0  0  0
    0.6490   26.2240   33.4210 C   0  0  0  0  0  0  0  0  0  0  0  0
    1.2410   14.6290   38.5440 N   0  0  0  0  0  4  0  0  0  0  0  0
    2.4480   24.1260   34.0810 C   0  0  0  0  0  0  0  0  0  0  0  0
    2.6220   21.1980   36.4140 C   0  0  0  0  0  0  0  0  0  0  0  0
    3.0960   21.5670   37.8090 C   0  0  0  0  0  0  0  0  0  0  0  0
    3.5790   22.9620   34.6600 S   0  0  0  0  0  0  0  0  0  0  0  0
    2.6420   19.4330   42.1260 C   0  0  0  0  0  0  0  0  0  0  0  0
    1.4170   19.3660   42.9400 C   0  0  0  0  0  0  0  0  0  0  0  0
    0.6690   16.7690   39.1350 C   0  0  0  0  0  0  0  0  0  0  0  0
   -0.8720   15.5080   37.7940 C   0  0  0  0  0  0  0  0  0  0  0  0
    1.1350   22.9190   35.3570 N   0  0  0  0  0  0  0  0  0  0  0  0
    2.1840   20.9610   40.1030 N   0  0  0  0  0  4  0  0  0  0  0  0
    2.1730   19.7810   40.7720 C   0  0  0  0  0  0  0  0  0  0  0  0
    2.2510   22.2570   35.5280 C   0  0  0  0  0  0  0  0  0  0  0  0
    1.5820   16.0120   38.2320 C   0  0  0  0  0  0  0  0  0  0  0  0
    0.1090   25.0360   34.2810 C   0  0  0  0  0  0  0  0  0  0  0  0
    2.6500   20.6190   38.8440 C   0  0  0  0  0  0  0  0  0  0  0  0
   -0.6613   15.1930   39.9221 H   0  0  0  0  0  0  0  0  0  0  0  0
   -1.5270   16.6642   39.5320 H   0  0  0  0  0  0  0  0  0  0  0  0
    2.4179   27.4460   32.8085 H   0  0  0  0  0  0  0  0  0  0  0  0
    1.8241   18.9802   37.8165 H   0  0  0  0  0  0  0  0  0  0  0  0
    3.4875   18.7325   38.3684 H   0  0  0  0  0  0  0  0  0  0  0  0
    3.4455   17.9982   43.2193 H   0  0  0  0  0  0  0  0  0  0  0  0
    2.3506   16.6877   40.5107 H   0  0  0  0  0  0  0  0  0  0  0  0
    0.8869   17.4679   41.1856 H   0  0  0  0  0  0  0  0  0  0  0  0
    4.0737   25.1499   32.6416 H   0  0  0  0  0  0  0  0  0  0  0  0
   -0.1064   13.2198   37.8334 H   0  0  0  0  0  0  0  0  0  0  0  0
    0.7046   14.0669   36.5739 H   0  0  0  0  0  0  0  0  0  0  0  0
    1.4267   18.4213   44.6530 H   0  0  0  0  0  0  0  0  0  0  0  0
   -0.0828   26.9480   33.0333 H   0  0  0  0  0  0  0  0  0  0  0  0
    0.8297   14.5712   39.4866 H   0  0  0  0  0  0  0  0  0  0  0  0
    2.0808   14.0329   38.5254 H   0  0  0  0  0  0  0  0  0  0  0  0
    3.4351   20.6368   35.9303 H   0  0  0  0  0  0  0  0  0  0  0  0
    1.6888   20.6399   36.5802 H   0  0  0  0  0  0  0  0  0  0  0  0
    4.1957   21.5925   37.8090 H   0  0  0  0  0  0  0  0  0  0  0  0
    2.6595   22.5466   38.0536 H   0  0  0  0  0  0  0  0  0  0  0  0
    3.3818   20.1889   42.4281 H   0  0  0  0  0  0  0  0  0  0  0  0
    1.3756   20.2340   43.6144 H   0  0  0  0  0  0  0  0  0  0  0  0
    0.5355   19.3743   42.2821 H   0  0  0  0  0  0  0  0  0  0  0  0
    0.2220   17.7314   38.8452 H   0  0  0  0  0  0  0  0  0  0  0  0
   -0.6829   16.3123   37.0678 H   0  0  0  0  0  0  0  0  0  0  0  0
   -1.8966   15.1458   37.6234 H   0  0  0  0  0  0  0  0  0  0  0  0
    1.2365   21.3611   40.0480 H   0  0  0  0  0  0  0  0  0  0  0  0
    2.7649   21.6761   40.5635 H   0  0  0  0  0  0  0  0  0  0  0  0
    1.4373   20.2586   41.4358 H   0  0  0  0  0  0  0  0  0  0  0  0
    2.6367   16.2247   38.4607 H   0  0  0  0  0  0  0  0  0  0  0  0
    1.4656   16.2679   37.1685 H   0  0  0  0  0  0  0  0  0  0  0  0
   -0.9242   24.9328   34.6442 H   0  0  0  0  0  0  0  0  0  0  0  0
    3.6925   20.4809   39.1667 H   0  0  0  0  0  0  0  0  0  0  0  0
  2  6  1  0
  2 23  1  0
  3  8  2  0
  3 11  1  0
  4 27  1  0
  4  2  1  0
  7 21  1  0
  8 13  1  0
  9 20  1  0
  9 12  1  0
 11 26  2  0
 13  7  2  0
 13 16  1  0
 14 15  1  0
 16 24  1  0
 17  5  1  0
 17 18  1  0
 18 10  1  0
 19  1  1  0
 19  6  1  0
 20  1  1  0
 21 24  2  0
 22 23  1  0
 23 17  1  0
 24 14  1  0
 25 12  1  0
 25 19  1  0
 26  7  1  0
 27 15  1  0
 27 22  1  0
  1 28  1  0
  1 29  1  0
  3 30  1  0
  4 31  1  0
  4 32  1  0
  5 33  1  0
  6 34  1  0
  6 35  1  0
  8 36  1  0
  9 37  1  0
  9 38  1  0
 10 39  1  0
 11 40  1  0
 12 41  1  0
 12 42  1  0
 14 43  1  0
 14 44  1  0
 15 45  1  0
 15 46  1  0
 17 47  1  0
 18 48  1  0
 18 49  1  0
 19 50  1  0
 20 51  1  0
 20 52  1  0
 22 53  1  0
 22 54  1  0
 23 55  1  0
 25 56  1  0
 25 57  1  0
 26 58  1  0
 27 59  1  0
M  CHG  2  12   1  22   1
M  END
>  <mol_id>  (84) 
2026-09-18-6fnk-s0-n100-0085

>  <rmsd_to_ref>  (84) 


$$$$

     RDKit          3D

 55 58  0  0  0  0  0  0  0  0999 V2000
    1.8070   22.5570   36.1390 C   0  0  0  0  0  0  0  0  0  0  0  0
   -0.4390   15.5750   37.6890 C   0  0  0  0  0  0  0  0  0  0  0  0
    1.7950   18.9780   40.0010 C   0  0  0  0  0  0  0  0  0  0  0  0
    1.6090   16.2330   36.8100 C   0  0  0  0  0  0  0  0  0  0  0  0
    2.2270   17.5920   40.2760 C   0  0  0  0  0  0  0  0  0  0  0  0
    2.2830   15.4840   36.0740 O   0  0  0  0  0  0  0  0  0  0  0  0
    2.3570   17.0970   41.6140 C   0  0  0  0  0  0  0  0  0  0  0  0
    2.9180   22.2740   34.9220 N   0  0  0  0  0  0  0  0  0  0  0  0
    3.0220   23.5670   34.2870 O   0  0  0  0  0  0  0  0  0  0  0  0
    0.9730   17.6580   42.2140 O   0  0  0  0  0  0  0  0  0  0  0  0
    0.1670   16.1400   36.5890 O   0  0  0  0  0  0  0  0  0  0  0  0
    0.4120   26.7280   33.9680 S   0  0  0  0  0  4  0  0  0  0  0  0
    1.8420   24.2790   35.2580 C   0  0  0  0  0  0  0  0  0  0  0  0
    2.8350   21.7440   36.4870 C   0  0  0  0  0  0  0  0  0  0  0  0
    0.1780   16.0330   39.0880 C   0  0  0  0  0  0  0  0  0  0  0  0
   -0.5780   15.7190   40.2430 F   0  0  0  0  0  0  0  0  0  0  0  0
    2.0560   24.5750   33.9250 C   0  0  0  0  0  0  0  0  0  0  0  0
    1.0760   25.3160   35.9240 C   0  0  0  0  0  0  0  0  0  0  0  0
    2.0210   16.9080   37.9800 N   0  0  0  0  0  0  0  0  0  0  0  0
    1.4210   16.7470   39.1730 C   0  0  0  0  0  0  0  0  0  0  0  0
    0.2210   28.2510   34.1980 C   0  0  0  0  0  0  0  0  0  0  0  0
    2.9200   20.1530   39.9630 C   0  0  0  0  0  0  0  0  0  0  0  0
    0.6140   26.3400   35.4960 C   0  0  0  0  0  0  0  0  0  0  0  0
    3.5010   21.8640   37.9340 C   0  0  0  0  0  0  0  0  0  0  0  0
    2.4740   21.3140   39.0980 C   0  0  0  0  0  0  0  0  0  0  0  0
    1.8080   25.9470   33.5500 C   0  0  0  0  0  0  0  0  0  0  0  0
    0.8842   22.4793   36.7326 H   0  0  0  0  0  0  0  0  0  0  0  0
   -0.3427   14.4820   37.6116 H   0  0  0  0  0  0  0  0  0  0  0  0
   -1.4853   15.9143   37.6806 H   0  0  0  0  0  0  0  0  0  0  0  0
    1.2978   18.9737   39.0198 H   0  0  0  0  0  0  0  0  0  0  0  0
    1.1653   19.2383   40.8646 H   0  0  0  0  0  0  0  0  0  0  0  0
    3.3180   17.4890   40.1810 H   0  0  0  0  0  0  0  0  0  0  0  0
    2.4072   15.9986   41.6461 H   0  0  0  0  0  0  0  0  0  0  0  0
    3.2678   17.4033   42.1494 H   0  0  0  0  0  0  0  0  0  0  0  0
    1.0117   17.6423   43.2031 H   0  0  0  0  0  0  0  0  0  0  0  0
   -0.5295   26.4342   33.0172 H   0  0  0  0  0  0  0  0  0  0  0  0
    2.9279   24.1716   35.3971 H   0  0  0  0  0  0  0  0  0  0  0  0
    3.1318   20.7290   36.7897 H   0  0  0  0  0  0  0  0  0  0  0  0
    0.7209   15.0791   39.1608 H   0  0  0  0  0  0  0  0  0  0  0  0
    1.6845   24.5347   32.8904 H   0  0  0  0  0  0  0  0  0  0  0  0
    0.2061   24.7824   36.3346 H   0  0  0  0  0  0  0  0  0  0  0  0
    1.9064   25.7623   36.4907 H   0  0  0  0  0  0  0  0  0  0  0  0
    0.1950   28.4583   35.2780 H   0  0  0  0  0  0  0  0  0  0  0  0
    1.0575   28.7988   33.7395 H   0  0  0  0  0  0  0  0  0  0  0  0
   -0.7248   28.5753   33.7395 H   0  0  0  0  0  0  0  0  0  0  0  0
    3.0945   20.5153   40.9869 H   0  0  0  0  0  0  0  0  0  0  0  0
    3.8435   19.7359   39.5352 H   0  0  0  0  0  0  0  0  0  0  0  0
    1.2526   27.1346   35.9091 H   0  0  0  0  0  0  0  0  0  0  0  0
   -0.4377   26.1960   35.7844 H   0  0  0  0  0  0  0  0  0  0  0  0
    4.4246   21.2669   37.9565 H   0  0  0  0  0  0  0  0  0  0  0  0
    3.7244   22.9226   38.1326 H   0  0  0  0  0  0  0  0  0  0  0  0
    2.2630   22.1583   39.7707 H   0  0  0  0  0  0  0  0  0  0  0  0
    1.6156   20.9178   38.5357 H   0  0  0  0  0  0  0  0  0  0  0  0
    2.6317   26.5374   33.9778 H   0  0  0  0  0  0  0  0  0  0  0  0
    1.7155   25.8756   32.4562 H   0  0  0  0  0  0  0  0  0  0  0  0
  1 14  1  0
  2 15  1  0
  3  5  1  0
  4 19  1  0
  5  7  1  0
  6  4  2  0
  7 10  1  0
  8  1  1  0
  8 14  1  0
  9  8  1  0
 11  4  1  0
 11  2  1  0
 12 21  1  0
 12 23  1  0
 13 18  1  0
 13  1  1  0
 14 24  1  0
 15 20  1  0
 15 16  1  0
 17  9  1  0
 17 13  1  0
 19 20  2  0
 20  5  1  0
 22  3  1  0
 23 18  1  0
 24 25  1  0
 25 22  1  0
 26 17  1  0
 26 12  1  0
  1 27  1  0
  2 28  1  0
  2 29  1  0
  3 30  1  0
  3 31  1  0
  5 32  1  0
  7 33  1  0
  7 34  1  0
 10 35  1  0
 12 36  1  0
 13 37  1  0
 14 38  1  0
 15 39  1  0
 17 40  1  0
 18 41  1  0
 18 42  1  0
 21 43  1  0
 21 44  1  0
 21 45  1  0
 22 46  1  0
 22 47  1  0
 23 48  1  0
 23 49  1  0
 24 50  1  0
 24 51  1  0
 25 52  1  0
 25 53  1  0
 26 54  1  0
 26 55  1  0
M  END
>  <mol_id>  (85) 
2026-09-18-6fnk-s0-n100-0086

>  <rmsd_to_ref>  (85) 


$$$$

     RDKit          3D

 64 68  0  0  0  0  0  0  0  0999 V2000
    0.3320   15.5120   38.6830 C   0  0  0  0  0  0  0  0  0  0  0  0
    1.6580   17.3270   39.8100 C   0  0  0  0  0  0  0  0  0  0  0  0
    3.2180   22.0550   36.3960 C   0  0  0  0  0  0  0  0  0  0  0  0
    0.6990   26.3960   33.8160 C   0  0  0  0  0  0  0  0  0  0  0  0
   -0.3240   13.8900   41.8610 C   0  0  0  0  0  0  0  0  0  0  0  0
    1.8940   26.5180   31.7110 C   0  0  0  0  0  0  0  0  0  0  0  0
    2.1450   14.6810   41.9610 C   0  0  0  0  0  0  0  0  0  0  0  0
   -0.6100   12.4350   41.3310 C   0  0  0  0  0  0  0  0  0  0  0  0
    3.1280   20.3840   37.9330 C   0  0  0  0  0  0  0  0  0  0  0  0
    0.9910   27.9470   34.0480 C   0  0  0  0  0  0  0  0  0  0  0  0
    1.8850   21.3740   35.9050 C   0  0  0  0  0  0  0  0  0  0  0  0
    0.7640   27.3270   32.5170 C   0  0  0  0  0  0  0  0  0  0  0  0
    2.5210   19.5220   38.8020 C   0  0  0  0  0  0  0  0  0  0  0  0
    2.1670   15.4600   42.9880 O   0  0  0  0  0  1  0  0  0  0  0  0
    0.9000   14.6060   40.9800 C   0  0  0  0  0  0  0  0  0  0  0  0
    2.8800   13.6320   41.8860 O   0  0  0  0  0  0  0  0  0  0  0  0
    3.5590   20.4840   41.0240 C   0  0  0  0  0  0  0  0  0  0  0  0
    3.3810   21.8640   37.9300 C   0  0  0  0  0  0  0  0  0  0  0  0
    1.0900   24.4540   34.8840 C   0  0  0  0  0  0  0  0  0  0  0  0
    1.1610   25.1270   33.8620 C   0  0  0  0  0  0  0  0  0  0  0  0
    2.1530   18.2260   40.7550 C   0  0  0  0  0  0  0  0  0  0  0  0
    1.3320   23.8150   35.5920 C   0  0  0  0  0  0  0  0  0  0  0  0
    2.0710   24.7780   32.3520 S   0  0  0  0  0  0  0  0  0  0  0  0
    2.6260   23.6740   34.5210 C   0  0  0  0  0  0  0  0  0  0  0  0
    2.3930   22.8190   35.2880 C   0  0  0  0  0  0  0  0  0  0  0  0
    1.8760   18.0940   38.2430 S   0  0  0  0  0  0  0  0  0  0  0  0
    1.0700   15.8240   40.0070 C   0  0  0  0  0  0  0  0  0  0  0  0
    2.7390   19.4850   40.2910 C   0  0  0  0  0  0  0  0  0  0  0  0
   -0.0040   28.6920   34.8430 C   0  0  0  0  0  0  0  0  0  0  0  0
   -0.6601   15.0926   38.9063 H   0  0  0  0  0  0  0  0  0  0  0  0
    0.2160   16.4381   38.1008 H   0  0  0  0  0  0  0  0  0  0  0  0
    0.9155   14.7836   38.1008 H   0  0  0  0  0  0  0  0  0  0  0  0
    4.3160   22.1168   36.4192 H   0  0  0  0  0  0  0  0  0  0  0  0
    0.1054   25.7503   34.4799 H   0  0  0  0  0  0  0  0  0  0  0  0
   -1.2380   14.4949   41.7678 H   0  0  0  0  0  0  0  0  0  0  0  0
   -0.0138   13.8291   42.9146 H   0  0  0  0  0  0  0  0  0  0  0  0
    2.8559   27.0400   31.8221 H   0  0  0  0  0  0  0  0  0  0  0  0
    1.5967   26.4688   30.6531 H   0  0  0  0  0  0  0  0  0  0  0  0
   -0.7439   11.7537   42.1842 H   0  0  0  0  0  0  0  0  0  0  0  0
   -1.5242   12.4407   40.7193 H   0  0  0  0  0  0  0  0  0  0  0  0
    0.2383   12.0942   40.7193 H   0  0  0  0  0  0  0  0  0  0  0  0
    4.1382   19.9608   37.8308 H   0  0  0  0  0  0  0  0  0  0  0  0
    2.2872   20.4232   37.2249 H   0  0  0  0  0  0  0  0  0  0  0  0
    1.7703   28.6052   34.4597 H   0  0  0  0  0  0  0  0  0  0  0  0
    1.9223   20.4642   35.2878 H   0  0  0  0  0  0  0  0  0  0  0  0
    0.9679   21.0032   36.3861 H   0  0  0  0  0  0  0  0  0  0  0  0
    0.2249   27.8086   31.6879 H   0  0  0  0  0  0  0  0  0  0  0  0
    0.6402   13.9637   40.1257 H   0  0  0  0  0  0  0  0  0  0  0  0
    3.4367   20.3351   42.1070 H   0  0  0  0  0  0  0  0  0  0  0  0
    4.6179   20.3584   40.7538 H   0  0  0  0  0  0  0  0  0  0  0  0
    3.2294   21.4981   40.7538 H   0  0  0  0  0  0  0  0  0  0  0  0
    4.3891   22.1233   38.2856 H   0  0  0  0  0  0  0  0  0  0  0  0
    2.7469   22.4823   38.5824 H   0  0  0  0  0  0  0  0  0  0  0  0
    1.5709   25.2646   35.4512 H   0  0  0  0  0  0  0  0  0  0  0  0
    0.6440   24.1762   34.0584 H   0  0  0  0  0  0  0  0  0  0  0  0
    2.1039   17.9933   41.8290 H   0  0  0  0  0  0  0  0  0  0  0  0
    1.6685   24.3991   36.4613 H   0  0  0  0  0  0  0  0  0  0  0  0
    0.4233   23.2154   35.7491 H   0  0  0  0  0  0  0  0  0  0  0  0
    2.7151   23.3276   33.4808 H   0  0  0  0  0  0  0  0  0  0  0  0
    3.5637   24.2435   34.6015 H   0  0  0  0  0  0  0  0  0  0  0  0
    1.9975   15.4063   39.5884 H   0  0  0  0  0  0  0  0  0  0  0  0
    0.1960   28.5422   35.9142 H   0  0  0  0  0  0  0  0  0  0  0  0
    0.0634   29.7635   34.6037 H   0  0  0  0  0  0  0  0  0  0  0  0
   -1.0132   28.3256   34.6037 H   0  0  0  0  0  0  0  0  0  0  0  0
  1 27  1  0
  2 27  1  0
  2 21  2  0
  3 18  1  0
  4 20  1  0
  4 10  1  0
  6 23  1  0
  6 12  1  0
  7 14  1  0
  8  5  1  0
  9 13  1  0
 10 29  1  0
 11  3  1  0
 12  4  1  0
 12 10  1  0
 13 28  2  0
 15  5  1  0
 15  7  1  0
 16  7  2  0
 18  9  1  0
 19 22  1  0
 20 19  1  0
 23 20  1  0
 24 19  1  0
 24 25  1  0
 25 22  1  0
 25 11  1  0
 25  3  1  0
 26 13  1  0
 26  2  1  0
 27 15  1  0
 28 21  1  0
 28 17  1  0
  1 30  1  0
  1 31  1  0
  1 32  1  0
  3 33  1  0
  4 34  1  0
  5 35  1  0
  5 36  1  0
  6 37  1  0
  6 38  1  0
  8 39  1  0
  8 40  1  0
  8 41  1  0
  9 42  1  0
  9 43  1  0
 10 44  1  0
 11 45  1  0
 11 46  1  0
 12 47  1  0
 15 48  1  0
 17 49  1  0
 17 50  1  0
 17 51  1  0
 18 52  1  0
 18 53  1  0
 19 54  1  0
 20 55  1  0
 21 56  1  0
 22 57  1  0
 22 58  1  0
 24 59  1  0
 24 60  1  0
 27 61  1  0
 29 62  1  0
 29 63  1  0
 29 64  1  0
M  CHG  1  14  -1
M  END
>  <mol_id>  (86) 
2026-09-18-6fnk-s0-n100-0087

>  <rmsd_to_ref>  (86) 


$$$$

     RDKit          3D

 57 58  0  0  0  0  0  0  0  0999 V2000
    3.1630   19.3020   42.5780 O   0  0  0  0  0  0  0  0  0  0  0  0
    1.8490   19.0990   39.6570 N   0  0  0  0  0  0  0  0  0  0  0  0
    5.4770   21.0980   43.0370 C   0  0  0  0  0  0  0  0  0  0  0  0
    3.1040   20.8130   40.7640 O   0  0  0  0  0  0  0  0  0  0  0  0
    2.5020   18.0490   37.0900 O   0  0  0  0  0  0  0  0  0  0  0  0
    1.3560   17.9170   38.9540 C   0  0  0  0  0  0  0  0  0  0  0  0
    0.3300   15.9960   39.5150 C   0  0  0  0  0  0  0  0  0  0  0  0
    1.9600   28.2050   35.9710 O   0  0  0  0  0  0  0  0  0  0  0  0
    0.5900   16.2310   38.0960 N   0  0  0  0  0  0  0  0  0  0  0  0
   -0.4120   29.3020   35.7070 C   0  0  0  0  0  0  0  0  0  0  0  0
    0.8530   26.1210   32.2910 C   0  0  0  0  0  0  0  0  0  0  0  0
    2.8370   20.1210   39.6040 C   0  0  0  0  0  0  0  0  0  0  0  0
   -0.7860   14.9820   39.6380 C   0  0  0  0  0  0  0  0  0  0  0  0
    2.7790   20.8040   37.4340 O   0  0  0  0  0  0  0  0  0  0  0  0
    1.3050   29.1580   33.9460 C   0  0  0  0  0  0  0  0  0  0  0  0
    0.5900   27.8170   33.9760 C   0  0  0  0  0  0  0  0  0  0  0  0
   -0.7820   16.5060   37.4490 C   0  0  0  0  0  0  0  0  0  0  0  0
    1.2090   24.0220   33.9880 C   0  0  0  0  0  0  0  0  0  0  0  0
    4.7380   21.2830   38.5630 O   0  0  0  0  0  1  0  0  0  0  0  0
    1.5590   17.4430   37.9560 C   0  0  0  0  0  0  0  0  0  0  0  0
    4.0320   21.2630   42.7520 O   0  0  0  0  0  0  0  0  0  0  0  0
    3.4830   20.7860   38.5300 C   0  0  0  0  0  0  0  0  0  0  0  0
    3.3820   20.3200   42.0070 C   0  0  0  0  0  0  0  0  0  0  0  0
   -2.1350   15.5050   39.2220 C   0  0  0  0  0  0  0  0  0  0  0  0
    0.9230   28.6320   35.2120 C   0  0  0  0  0  0  0  0  0  0  0  0
    1.4580   25.1340   33.0710 C   0  0  0  0  0  0  0  0  0  0  0  0
   -2.1400   16.4210   37.9960 C   0  0  0  0  0  0  0  0  0  0  0  0
    1.2000   26.5580   33.7420 C   0  0  0  0  0  0  0  0  0  0  0  0
    5.6363   21.0798   44.1252 H   0  0  0  0  0  0  0  0  0  0  0  0
    5.8317   20.1535   42.5986 H   0  0  0  0  0  0  0  0  0  0  0  0
    6.0355   21.9382   42.5986 H   0  0  0  0  0  0  0  0  0  0  0  0
    0.6103   17.3599   39.5401 H   0  0  0  0  0  0  0  0  0  0  0  0
    0.0304   16.9377   39.9981 H   0  0  0  0  0  0  0  0  0  0  0  0
    1.2384   15.6176   40.0066 H   0  0  0  0  0  0  0  0  0  0  0  0
    1.7290   28.3001   36.9290 H   0  0  0  0  0  0  0  0  0  0  0  0
   -0.4315   29.3118   36.8068 H   0  0  0  0  0  0  0  0  0  0  0  0
   -0.4660   30.3340   35.3301 H   0  0  0  0  0  0  0  0  0  0  0  0
   -1.2717   28.7286   35.3301 H   0  0  0  0  0  0  0  0  0  0  0  0
    1.4139   26.5584   31.4519 H   0  0  0  0  0  0  0  0  0  0  0  0
   -0.0795   26.1436   31.7080 H   0  0  0  0  0  0  0  0  0  0  0  0
    3.0122   19.1441   39.1296 H   0  0  0  0  0  0  0  0  0  0  0  0
   -0.5395   14.1173   39.0043 H   0  0  0  0  0  0  0  0  0  0  0  0
   -0.8610   14.7178   40.7032 H   0  0  0  0  0  0  0  0  0  0  0  0
    0.7876   30.0421   33.5451 H   0  0  0  0  0  0  0  0  0  0  0  0
    2.2551   29.5101   33.5179 H   0  0  0  0  0  0  0  0  0  0  0  0
   -0.2959   27.3964   33.4778 H   0  0  0  0  0  0  0  0  0  0  0  0
   -0.8046   15.8286   36.5826 H   0  0  0  0  0  0  0  0  0  0  0  0
   -0.7091   17.6036   37.4424 H   0  0  0  0  0  0  0  0  0  0  0  0
    1.2887   24.3777   35.0258 H   0  0  0  0  0  0  0  0  0  0  0  0
    0.1991   23.6223   33.8139 H   0  0  0  0  0  0  0  0  0  0  0  0
    1.9520   23.2298   33.8139 H   0  0  0  0  0  0  0  0  0  0  0  0
   -2.7796   14.6413   39.0017 H   0  0  0  0  0  0  0  0  0  0  0  0
   -2.4898   16.1225   40.0603 H   0  0  0  0  0  0  0  0  0  0  0  0
    2.1388   24.3873   32.6362 H   0  0  0  0  0  0  0  0  0  0  0  0
   -2.4818   17.4248   38.2887 H   0  0  0  0  0  0  0  0  0  0  0  0
   -2.8195   16.0124   37.2335 H   0  0  0  0  0  0  0  0  0  0  0  0
    1.6102   26.7968   34.7343 H   0  0  0  0  0  0  0  0  0  0  0  0
  4 23  1  0
  5 20  2  0
  6  2  2  3
  7 13  1  0
  9  7  1  0
 11 26  1  0
 12 22  1  0
 12  2  1  0
 12  4  1  0
 14 22  2  0
 15 25  1  0
 16 15  1  0
 16 25  1  0
 17 27  1  0
 17  9  1  0
 20  9  1  0
 20  6  1  0
 21  3  1  0
 22 19  1  0
 23  1  2  0
 23 21  1  0
 24 13  1  0
 25 10  1  0
 25  8  1  0
 26 28  1  0
 26 18  1  0
 27 24  1  0
 28 11  1  0
 28 16  1  0
  3 29  1  0
  3 30  1  0
  3 31  1  0
  6 32  1  0
  7 33  1  0
  7 34  1  0
  8 35  1  0
 10 36  1  0
 10 37  1  0
 10 38  1  0
 11 39  1  0
 11 40  1  0
 12 41  1  0
 13 42  1  0
 13 43  1  0
 15 44  1  0
 15 45  1  0
 16 46  1  0
 17 47  1  0
 17 48  1  0
 18 49  1  0
 18 50  1  0
 18 51  1  0
 24 52  1  0
 24 53  1  0
 26 54  1  0
 27 55  1  0
 27 56  1  0
 28 57  1  0
M  CHG  1  19  -1
M  END
>  <mol_id>  (87) 
2026-09-18-6fnk-s0-n100-0088

>  <rmsd_to_ref>  (87) 


$$$$

     RDKit          3D

 68 67  0  0  0  0  0  0  0  0999 V2000
    2.2310   25.8340   31.9890 S   0  0  0  0  0  0  0  0  0  0  0  0
    1.4270   26.8990   34.5700 O   0  0  0  0  0  0  0  0  0  0  0  0
    2.1480   18.8030   39.4310 C   0  0  0  0  0  0  0  0  0  0  0  0
    0.9320   26.7410   32.3320 C   0  0  0  0  0  0  0  0  0  0  0  0
    2.8440   23.5350   36.5040 C   0  0  0  0  0  0  0  0  0  0  0  0
    3.6020   22.5540   37.5580 C   0  0  0  0  0  0  0  0  0  0  0  0
    2.6370   21.5270   38.1020 C   0  0  0  0  0  0  0  0  0  0  0  0
    2.5020   19.9360   40.1230 C   0  0  0  0  0  0  0  0  0  0  0  0
   -1.0380   14.6540   38.8960 N   0  0  0  0  0  0  0  0  0  0  0  0
   -3.1260   14.7460   39.9300 N   0  0  0  0  0  0  0  0  0  0  0  0
    3.2600   19.2450   42.3260 C   0  0  0  0  0  0  0  0  0  0  0  0
    1.9160   18.4960   37.9360 C   0  0  0  0  0  0  0  0  0  0  0  0
    6.9380   23.4250   37.3640 C   0  0  0  0  0  0  0  0  0  0  0  0
    2.7740   21.2290   39.6400 C   0  0  0  0  0  0  0  0  0  0  0  0
    0.0130   15.2500   38.0400 C   0  0  0  0  0  0  0  0  0  0  0  0
    0.8420   16.2640   38.6920 C   0  0  0  0  0  0  0  0  0  0  0  0
   -2.6490   16.4750   38.5760 C   0  0  0  0  0  0  0  0  0  0  0  0
    3.3290   24.6840   34.4330 C   0  0  0  0  0  0  0  0  0  0  0  0
    2.7110   19.9070   41.6210 C   0  0  0  0  0  0  0  0  0  0  0  0
    4.3370   23.5710   38.3680 C   0  0  0  0  0  0  0  0  0  0  0  0
    1.6600   17.0220   37.7060 C   0  0  0  0  0  0  0  0  0  0  0  0
    0.9830   26.3500   33.8490 C   0  0  0  0  0  0  0  0  0  0  0  0
    2.2450   25.7630   34.6280 C   0  0  0  0  0  0  0  0  0  0  0  0
    5.6190   24.1910   38.0670 C   0  0  0  0  0  0  0  0  0  0  0  0
    3.7360   23.7430   35.2360 C   0  0  0  0  0  0  0  0  0  0  0  0
   -2.2190   15.2670   39.1920 C   0  0  0  0  0  0  0  0  0  0  0  0
    2.8210   25.4220   33.1548 H   0  0  0  0  0  0  0  0  0  0  0  0
    1.9979   17.9282   40.0808 H   0  0  0  0  0  0  0  0  0  0  0  0
    1.0842   27.8149   32.1489 H   0  0  0  0  0  0  0  0  0  0  0  0
    0.0015   26.5809   31.7676 H   0  0  0  0  0  0  0  0  0  0  0  0
    1.8870   23.0814   36.2066 H   0  0  0  0  0  0  0  0  0  0  0  0
    2.6607   24.5086   36.9821 H   0  0  0  0  0  0  0  0  0  0  0  0
    4.3530   21.8135   37.2457 H   0  0  0  0  0  0  0  0  0  0  0  0
    1.6148   21.8877   37.9149 H   0  0  0  0  0  0  0  0  0  0  0  0
    2.8713   20.5842   37.5861 H   0  0  0  0  0  0  0  0  0  0  0  0
   -0.8662   13.7189   39.2921 H   0  0  0  0  0  0  0  0  0  0  0  0
   -3.9979   15.2619   40.1159 H   0  0  0  0  0  0  0  0  0  0  0  0
    3.2471   19.4593   43.4048 H   0  0  0  0  0  0  0  0  0  0  0  0
    3.8160   18.3759   41.9445 H   0  0  0  0  0  0  0  0  0  0  0  0
    1.0455   19.0692   37.5842 H   0  0  0  0  0  0  0  0  0  0  0  0
    2.8220   18.7799   37.3806 H   0  0  0  0  0  0  0  0  0  0  0  0
    7.6014   23.0398   38.1524 H   0  0  0  0  0  0  0  0  0  0  0  0
    6.5872   22.5901   36.7396 H   0  0  0  0  0  0  0  0  0  0  0  0
    7.4893   24.1434   36.7396 H   0  0  0  0  0  0  0  0  0  0  0  0
    3.8117   21.4631   39.9198 H   0  0  0  0  0  0  0  0  0  0  0  0
    1.9836   21.8452   40.0934 H   0  0  0  0  0  0  0  0  0  0  0  0
   -0.4774   15.7165   37.1729 H   0  0  0  0  0  0  0  0  0  0  0  0
    0.6910   14.4273   37.7690 H   0  0  0  0  0  0  0  0  0  0  0  0
    0.1887   16.9673   39.2292 H   0  0  0  0  0  0  0  0  0  0  0  0
    1.5263   15.7539   39.3859 H   0  0  0  0  0  0  0  0  0  0  0  0
   -2.9104   17.2094   39.3520 H   0  0  0  0  0  0  0  0  0  0  0  0
   -1.8384   16.8760   37.9498 H   0  0  0  0  0  0  0  0  0  0  0  0
   -3.5307   16.2736   37.9498 H   0  0  0  0  0  0  0  0  0  0  0  0
    3.0081   24.1438   33.5301 H   0  0  0  0  0  0  0  0  0  0  0  0
    4.2040   25.3431   34.5327 H   0  0  0  0  0  0  0  0  0  0  0  0
    2.1998   20.7354   42.1333 H   0  0  0  0  0  0  0  0  0  0  0  0
    3.6350   24.4123   38.4649 H   0  0  0  0  0  0  0  0  0  0  0  0
    4.6520   22.9273   39.2026 H   0  0  0  0  0  0  0  0  0  0  0  0
    1.1553   16.9316   36.7328 H   0  0  0  0  0  0  0  0  0  0  0  0
    2.6581   16.5672   37.7898 H   0  0  0  0  0  0  0  0  0  0  0  0
   -0.0665   26.2466   34.1619 H   0  0  0  0  0  0  0  0  0  0  0  0
    1.6599   25.4838   33.8105 H   0  0  0  0  0  0  0  0  0  0  0  0
    2.4298   25.8596   35.7081 H   0  0  0  0  0  0  0  0  0  0  0  0
    1.8883   25.5161   33.6172 H   0  0  0  0  0  0  0  0  0  0  0  0
    5.9871   24.5769   39.0291 H   0  0  0  0  0  0  0  0  0  0  0  0
    5.3209   24.8532   37.2408 H   0  0  0  0  0  0  0  0  0  0  0  0
    3.7576   22.7980   34.6734 H   0  0  0  0  0  0  0  0  0  0  0  0
    4.7268   24.0523   35.6003 H   0  0  0  0  0  0  0  0  0  0  0  0
  1  4  1  0
  2 23  1  0
  3  8  2  3
  4 22  1  0
  6  5  1  0
  6  7  1  0
  6 20  1  0
  7 14  1  0
  8 19  1  0
  9 26  1  0
 12  3  1  0
 13 24  1  0
 14  8  1  0
 15 16  1  0
 15  9  1  0
 17 26  1  0
 18 23  1  0
 18 25  1  0
 19 11  2  3
 21 12  1  0
 21 16  1  0
 22  2  1  0
 24 20  1  0
 25  5  1  0
 26 10  2  3
  1 27  1  0
  3 28  1  0
  4 29  1  0
  4 30  1  0
  5 31  1  0
  5 32  1  0
  6 33  1  0
  7 34  1  0
  7 35  1  0
  9 36  1  0
 10 37  1  0
 11 38  1  0
 11 39  1  0
 12 40  1  0
 12 41  1  0
 13 42  1  0
 13 43  1  0
 13 44  1  0
 14 45  1  0
 14 46  1  0
 15 47  1  0
 15 48  1  0
 16 49  1  0
 16 50  1  0
 17 51  1  0
 17 52  1  0
 17 53  1  0
 18 54  1  0
 18 55  1  0
 19 56  1  0
 20 57  1  0
 20 58  1  0
 21 59  1  0
 21 60  1  0
 22 61  1  0
 22 62  1  0
 23 63  1  0
 23 64  1  0
 24 65  1  0
 24 66  1  0
 25 67  1  0
 25 68  1  0
M  END
>  <mol_id>  (88) 
2026-09-18-6fnk-s0-n100-0089

>  <rmsd_to_ref>  (88) 


$$$$

     RDKit          3D

 91 93  0  0  0  0  0  0  0  0999 V2000
    3.4330   20.4860   40.3780 N   0  0  0  0  0  0  0  0  0  0  0  0
    1.2710   18.3160   43.8080 C   0  0  0  0  0  0  0  0  0  0  0  0
    1.2380   17.3700   39.2970 C   0  0  0  0  0  0  0  0  0  0  0  0
    1.6260   20.2070   42.1700 C   0  0  0  0  0  0  0  0  0  0  0  0
    0.5920   15.6220   41.5290 C   0  0  0  0  0  0  0  0  0  0  0  0
    2.8080   22.3360   37.4620 C   0  0  0  0  0  0  0  0  0  0  0  0
   -0.5860   14.8650   41.9410 C   0  0  0  0  0  0  0  0  0  0  0  0
    0.1680   14.8640   37.9120 C   0  0  0  0  0  0  0  0  0  0  0  0
    2.7240   19.5950   38.2500 O   0  0  0  0  0  0  0  0  0  0  0  0
    0.5960   19.4360   43.1070 C   0  0  0  0  0  0  0  0  0  0  0  0
    1.6650   26.5140   32.0050 C   0  0  0  0  0  0  0  0  0  0  0  0
    3.7640   20.3950   41.4770 C   0  0  0  0  0  0  0  0  0  0  0  0
    0.8620   16.8210   41.5990 C   0  0  0  0  0  0  0  0  0  0  0  0
    1.8970   26.8920   34.3980 C   0  0  0  0  0  0  0  0  0  0  0  0
    0.7530   16.2280   40.1820 C   0  0  0  0  0  0  0  0  0  0  0  0
    4.4900   23.7670   31.3940 C   0  0  0  0  0  0  0  0  0  0  0  0
    5.2210   21.9250   38.0180 C   0  0  0  0  0  0  0  0  0  0  0  0
    2.0320   24.9090   32.2110 C   0  0  0  0  0  0  0  0  0  0  0  0
    4.8140   21.0370   42.4160 C   0  0  0  0  0  0  0  0  0  0  0  0
   -0.3150   16.2610   37.7110 C   0  0  0  0  0  0  0  0  0  0  0  0
    2.1130   22.7870   33.6390 C   0  0  0  0  0  0  0  0  0  0  0  0
   -0.5230   14.3550   39.2410 N   0  0  0  0  0  4  0  0  0  0  0  0
    3.6340   24.6610   32.0620 C   0  0  0  0  0  0  0  0  0  0  0  0
    1.7720   25.3250   30.5450 C   0  0  0  0  0  0  0  0  0  0  0  0
    1.4980   23.5130   32.5820 C   0  0  0  0  0  0  0  0  0  0  0  0
    0.9600   17.0840   37.7730 C   0  0  0  0  0  0  0  0  0  0  0  0
    2.8970   22.3120   32.6160 C   0  0  0  0  0  0  0  0  0  0  0  0
    0.8260   27.4790   35.0440 C   0  0  0  0  0  0  0  0  0  0  0  0
    1.1170   28.2010   33.9200 C   0  0  0  0  0  0  0  0  0  0  0  0
    3.2580   20.6480   39.1370 C   0  0  0  0  0  0  0  0  0  0  0  0
    3.7840   21.9190   38.7080 C   0  0  0  0  0  0  0  0  0  0  0  0
    1.7380   25.8770   33.4000 C   0  0  0  0  0  0  0  0  0  0  0  0
   -0.0480   20.1390   43.8140 O   0  0  0  0  0  0  0  0  0  0  0  0
   -1.0120   14.0880   40.6500 C   0  0  0  0  0  0  0  0  0  0  0  0
    0.9520   17.1300   43.9510 O   0  0  0  0  0  0  0  0  0  0  0  0
    2.8810   19.7370   42.4340 O   0  0  0  0  0  0  0  0  0  0  0  0
    2.4696   20.1681   40.5559 H   0  0  0  0  0  0  0  0  0  0  0  0
    2.2239   18.5891   44.2849 H   0  0  0  0  0  0  0  0  0  0  0  0
    0.7152   18.2931   39.5877 H   0  0  0  0  0  0  0  0  0  0  0  0
    2.3246   17.4727   39.4342 H   0  0  0  0  0  0  0  0  0  0  0  0
    1.5817   21.2863   42.3777 H   0  0  0  0  0  0  0  0  0  0  0  0
    1.3738   20.0407   41.1123 H   0  0  0  0  0  0  0  0  0  0  0  0
    1.0550   14.7882   42.0771 H   0  0  0  0  0  0  0  0  0  0  0  0
    1.8634   22.7396   37.8554 H   0  0  0  0  0  0  0  0  0  0  0  0
    3.3052   23.1002   36.8466 H   0  0  0  0  0  0  0  0  0  0  0  0
    2.5995   21.4484   36.8466 H   0  0  0  0  0  0  0  0  0  0  0  0
   -0.3366   14.1660   42.7529 H   0  0  0  0  0  0  0  0  0  0  0  0
   -1.3879   15.5103   42.3290 H   0  0  0  0  0  0  0  0  0  0  0  0
    1.2626   14.8491   38.0197 H   0  0  0  0  0  0  0  0  0  0  0  0
   -0.0824   14.2221   37.0545 H   0  0  0  0  0  0  0  0  0  0  0  0
   -0.1695   18.9957   42.4511 H   0  0  0  0  0  0  0  0  0  0  0  0
    1.4908   27.5913   31.8666 H   0  0  0  0  0  0  0  0  0  0  0  0
    4.3885   20.2705   40.5800 H   0  0  0  0  0  0  0  0  0  0  0  0
    0.0946   17.5272   41.9487 H   0  0  0  0  0  0  0  0  0  0  0  0
    1.6453   17.3896   42.1217 H   0  0  0  0  0  0  0  0  0  0  0  0
    2.8618   26.5159   34.7690 H   0  0  0  0  0  0  0  0  0  0  0  0
    0.5429   15.6841   39.2492 H   0  0  0  0  0  0  0  0  0  0  0  0
    5.0538   23.1782   32.1325 H   0  0  0  0  0  0  0  0  0  0  0  0
    3.8941   23.0907   30.7635 H   0  0  0  0  0  0  0  0  0  0  0  0
    5.1916   24.3330   30.7635 H   0  0  0  0  0  0  0  0  0  0  0  0
    6.0004   21.9283   38.7942 H   0  0  0  0  0  0  0  0  0  0  0  0
    5.3308   21.0273   37.3918 H   0  0  0  0  0  0  0  0  0  0  0  0
    5.3233   22.8236   37.3918 H   0  0  0  0  0  0  0  0  0  0  0  0
    4.5260   20.8609   43.4629 H   0  0  0  0  0  0  0  0  0  0  0  0
    5.7996   20.5869   42.2262 H   0  0  0  0  0  0  0  0  0  0  0  0
    4.8625   22.1194   42.2262 H   0  0  0  0  0  0  0  0  0  0  0  0
   -1.0130   16.5552   38.5086 H   0  0  0  0  0  0  0  0  0  0  0  0
   -0.8677   16.3940   36.7693 H   0  0  0  0  0  0  0  0  0  0  0  0
    2.6318   23.3934   34.3960 H   0  0  0  0  0  0  0  0  0  0  0  0
    1.5696   22.1491   34.3516 H   0  0  0  0  0  0  0  0  0  0  0  0
   -1.4746   14.4895   38.8705 H   0  0  0  0  0  0  0  0  0  0  0  0
    0.4068   14.0380   39.5508 H   0  0  0  0  0  0  0  0  0  0  0  0
    3.9453   24.5370   33.1097 H   0  0  0  0  0  0  0  0  0  0  0  0
    3.7567   25.4517   31.3071 H   0  0  0  0  0  0  0  0  0  0  0  0
    1.8648   24.2942   30.9176 H   0  0  0  0  0  0  0  0  0  0  0  0
    0.8623   25.4131   29.9329 H   0  0  0  0  0  0  0  0  0  0  0  0
    2.6514   25.5741   29.9329 H   0  0  0  0  0  0  0  0  0  0  0  0
    0.4688   23.6838   32.2335 H   0  0  0  0  0  0  0  0  0  0  0  0
    1.7968   16.5211   37.3338 H   0  0  0  0  0  0  0  0  0  0  0  0
    0.8550   18.0210   37.2064 H   0  0  0  0  0  0  0  0  0  0  0  0
    2.7853   21.2868   32.2332 H   0  0  0  0  0  0  0  0  0  0  0  0
    3.9594   22.2637   32.3351 H   0  0  0  0  0  0  0  0  0  0  0  0
   -0.1256   26.9280   35.0725 H   0  0  0  0  0  0  0  0  0  0  0  0
    0.7244   27.8078   36.0888 H   0  0  0  0  0  0  0  0  0  0  0  0
    1.5846   29.1940   33.9934 H   0  0  0  0  0  0  0  0  0  0  0  0
    0.5852   28.5388   33.0183 H   0  0  0  0  0  0  0  0  0  0  0  0
    3.8442   22.5462   39.6096 H   0  0  0  0  0  0  0  0  0  0  0  0
    1.4917   25.3845   34.3522 H   0  0  0  0  0  0  0  0  0  0  0  0
    0.1485   19.9245   44.7603 H   0  0  0  0  0  0  0  0  0  0  0  0
   -2.1057   14.1937   40.5991 H   0  0  0  0  0  0  0  0  0  0  0  0
   -0.5123   13.1266   40.8398 H   0  0  0  0  0  0  0  0  0  0  0  0
  1 12  1  0
  2 35  2  0
  4 36  1  0
  4 10  1  0
  5 13  1  0
  5  7  1  0
  6 31  1  0
  8 22  1  0
  9 30  2  0
 10  2  1  0
 10 33  1  0
 11 24  1  0
 11 18  1  0
 11 32  1  0
 12 19  1  0
 12 36  1  0
 14 28  1  0
 15  3  1  0
 15  5  1  0
 15 13  1  0
 16 23  1  0
 17 31  1  0
 18 23  1  0
 18 25  1  0
 18 32  1  0
 20 26  1  0
 20  8  1  0
 22 34  1  0
 25 27  1  0
 25 21  1  0
 26  3  1  0
 27 21  1  0
 29 14  1  0
 29 28  1  0
 30  1  1  0
 31 30  1  0
 32 14  1  0
 34  7  1  0
  1 37  1  0
  2 38  1  0
  3 39  1  0
  3 40  1  0
  4 41  1  0
  4 42  1  0
  5 43  1  0
  6 44  1  0
  6 45  1  0
  6 46  1  0
  7 47  1  0
  7 48  1  0
  8 49  1  0
  8 50  1  0
 10 51  1  0
 11 52  1  0
 12 53  1  0
 13 54  1  0
 13 55  1  0
 14 56  1  0
 15 57  1  0
 16 58  1  0
 16 59  1  0
 16 60  1  0
 17 61  1  0
 17 62  1  0
 17 63  1  0
 19 64  1  0
 19 65  1  0
 19 66  1  0
 20 67  1  0
 20 68  1  0
 21 69  1  0
 21 70  1  0
 22 71  1  0
 22 72  1  0
 23 73  1  0
 23 74  1  0
 24 75  1  0
 24 76  1  0
 24 77  1  0
 25 78  1  0
 26 79  1  0
 26 80  1  0
 27 81  1  0
 27 82  1  0
 28 83  1  0
 28 84  1  0
 29 85  1  0
 29 86  1  0
 31 87  1  0
 32 88  1  0
 33 89  1  0
 34 90  1  0
 34 91  1  0
M  CHG  1  22   1
M  END
>  <mol_id>  (89) 
2026-09-18-6fnk-s0-n100-0090

>  <rmsd_to_ref>  (89) 


$$$$

     RDKit          3D

 90 91  0  0  0  0  0  0  0  0999 V2000
    2.3810   26.3540   29.6650 C   0  0  0  0  0  0  0  0  0  0  0  0
    2.1870   14.3460   35.5200 C   0  0  0  0  0  0  0  0  0  0  0  0
    4.1790   21.5700   39.7190 O   0  0  0  0  0  0  0  0  0  0  0  0
    1.0360   14.1160   37.8960 C   0  0  0  0  0  0  0  0  0  0  0  0
    1.0150   24.8030   34.8920 C   0  0  0  0  0  0  0  0  0  0  0  0
    2.3070   16.2730   37.6280 C   0  0  0  0  0  0  0  0  0  0  0  0
    1.8860   27.4620   29.9870 C   0  0  0  0  0  0  0  0  0  0  0  0
    3.1260   13.4580   34.5980 C   0  0  0  0  0  0  0  0  0  0  0  0
    0.8400   16.3830   45.0250 C   0  0  0  0  0  0  0  0  0  0  0  0
    1.0310   15.6300   39.7040 O   0  0  0  0  0  0  0  0  0  0  0  0
    2.7480   20.4200   37.8910 C   0  0  0  0  0  0  0  0  0  0  0  0
    2.4310   21.7920   37.5260 C   0  0  0  0  0  0  0  0  0  0  0  0
    4.4790   20.9340   42.3300 C   0  0  0  0  0  0  0  0  0  0  0  0
    1.2030   25.8850   30.4610 C   0  0  0  0  0  0  0  0  0  0  0  0
    1.4660   17.9450   40.0860 C   0  0  0  0  0  0  0  0  0  0  0  0
    1.3930   18.7230   42.1700 C   0  0  0  0  0  0  0  0  0  0  0  0
    0.7480   17.6920   44.3010 C   0  0  0  0  0  0  0  0  0  0  0  0
    1.6810   18.9100   40.9200 C   0  0  0  0  0  0  0  0  0  0  0  0
    1.6960   13.5820   36.7950 C   0  0  0  0  0  0  0  0  0  0  0  0
    0.6990   26.2170   34.7400 C   0  0  0  0  0  0  0  0  0  0  0  0
    0.8800   17.6960   42.8190 C   0  0  0  0  0  0  0  0  0  0  0  0
    1.3740   15.6910   38.4510 C   0  0  0  0  0  0  0  0  0  0  0  0
    1.5640   18.1680   38.6360 O   0  0  0  0  0  0  0  0  0  0  0  0
    2.1430   22.1850   36.0550 C   0  0  0  0  0  0  0  0  0  0  0  0
   -0.3460   28.1640   34.4040 F   0  0  0  0  0  0  0  0  0  0  0  0
    0.3890   16.3540   42.0680 S   0  0  0  0  0  0  0  0  0  0  0  0
    2.6430   19.9490   39.3360 C   0  0  0  0  0  0  0  0  0  0  0  0
    3.2390   20.9260   41.5810 O   0  0  0  0  0  0  0  0  0  0  0  0
    3.4400   20.8240   40.1730 C   0  0  0  0  0  0  0  0  0  0  0  0
    0.3650   27.1360   33.8850 C   0  0  0  0  0  0  0  0  0  0  0  0
    2.5520   15.3760   36.1620 C   0  0  0  0  0  0  0  0  0  0  0  0
    2.0010   24.6620   29.9900 C   0  0  0  0  0  0  0  0  0  0  0  0
    1.0400   16.6550   40.6220 C   0  0  0  0  0  0  0  0  0  0  0  0
    2.1200   11.4170   33.4050 C   0  0  0  0  0  0  0  0  0  0  0  0
    0.5630   27.1030   32.5390 C   0  0  0  0  0  0  0  0  0  0  0  0
   -0.3730   18.5780   44.8550 C   0  0  0  0  0  0  0  0  0  0  0  0
    2.0530   23.9800   36.0880 S   0  0  0  0  0  4  0  0  0  0  0  0
    2.1260   12.9230   33.6150 N   0  0  0  0  0  4  0  0  0  0  0  0
    1.3650   26.0040   32.0090 C   0  0  0  0  0  0  0  0  0  0  0  0
    3.0230   26.3813   30.5578 H   0  0  0  0  0  0  0  0  0  0  0  0
    1.5393   14.6147   34.6725 H   0  0  0  0  0  0  0  0  0  0  0  0
    1.2379   13.4387   38.7389 H   0  0  0  0  0  0  0  0  0  0  0  0
    0.0014   14.2071   37.5336 H   0  0  0  0  0  0  0  0  0  0  0  0
    0.5398   24.1392   34.1548 H   0  0  0  0  0  0  0  0  0  0  0  0
    1.9657   17.2861   37.3688 H   0  0  0  0  0  0  0  0  0  0  0  0
    3.2638   16.2949   38.1703 H   0  0  0  0  0  0  0  0  0  0  0  0
    1.8499   27.5427   31.0834 H   0  0  0  0  0  0  0  0  0  0  0  0
    2.5072   28.2734   29.5798 H   0  0  0  0  0  0  0  0  0  0  0  0
    0.8672   27.5407   29.5798 H   0  0  0  0  0  0  0  0  0  0  0  0
    3.8976   14.0648   34.1016 H   0  0  0  0  0  0  0  0  0  0  0  0
    3.6954   12.6857   35.1359 H   0  0  0  0  0  0  0  0  0  0  0  0
    0.8274   16.5625   46.1102 H   0  0  0  0  0  0  0  0  0  0  0  0
   -0.0159   15.7499   44.7481 H   0  0  0  0  0  0  0  0  0  0  0  0
    1.7760   15.8758   44.7481 H   0  0  0  0  0  0  0  0  0  0  0  0
    3.0682   19.7122   37.1122 H   0  0  0  0  0  0  0  0  0  0  0  0
    2.3951   22.5644   38.3083 H   0  0  0  0  0  0  0  0  0  0  0  0
    4.2567   20.9326   43.4073 H   0  0  0  0  0  0  0  0  0  0  0  0
    5.0667   20.0396   42.0757 H   0  0  0  0  0  0  0  0  0  0  0  0
    5.0552   21.8359   42.0757 H   0  0  0  0  0  0  0  0  0  0  0  0
    0.1519   26.1887   30.3470 H   0  0  0  0  0  0  0  0  0  0  0  0
    1.6200   19.5865   42.8125 H   0  0  0  0  0  0  0  0  0  0  0  0
    1.7050   18.1736   44.5503 H   0  0  0  0  0  0  0  0  0  0  0  0
    2.0988   19.8678   40.5763 H   0  0  0  0  0  0  0  0  0  0  0  0
    1.0213   12.8015   36.4134 H   0  0  0  0  0  0  0  0  0  0  0  0
    2.6714   13.3772   37.2604 H   0  0  0  0  0  0  0  0  0  0  0  0
   -0.1273   26.3108   35.4601 H   0  0  0  0  0  0  0  0  0  0  0  0
    1.7641   26.4563   34.6045 H   0  0  0  0  0  0  0  0  0  0  0  0
    1.8821   17.2511   42.9071 H   0  0  0  0  0  0  0  0  0  0  0  0
    0.9694   16.7113   38.3792 H   0  0  0  0  0  0  0  0  0  0  0  0
    1.8545   19.0486   38.2891 H   0  0  0  0  0  0  0  0  0  0  0  0
    1.1903   21.7528   35.7150 H   0  0  0  0  0  0  0  0  0  0  0  0
    2.9121   21.8143   35.3614 H   0  0  0  0  0  0  0  0  0  0  0  0
    1.5925   19.9835   39.6604 H   0  0  0  0  0  0  0  0  0  0  0  0
    3.0110   18.9158   39.4194 H   0  0  0  0  0  0  0  0  0  0  0  0
    3.6364   15.2000   36.2173 H   0  0  0  0  0  0  0  0  0  0  0  0
    1.8031   15.9895   35.6398 H   0  0  0  0  0  0  0  0  0  0  0  0
    1.6159   24.0045   29.1966 H   0  0  0  0  0  0  0  0  0  0  0  0
    2.4947   23.7887   30.4412 H   0  0  0  0  0  0  0  0  0  0  0  0
    2.1180   10.9106   34.3815 H   0  0  0  0  0  0  0  0  0  0  0  0
    1.2207   11.1290   32.8408 H   0  0  0  0  0  0  0  0  0  0  0  0
    3.0170   11.1219   32.8408 H   0  0  0  0  0  0  0  0  0  0  0  0
    0.1367   27.8720   31.8780 H   0  0  0  0  0  0  0  0  0  0  0  0
   -0.3471   18.5575   45.9545 H   0  0  0  0  0  0  0  0  0  0  0  0
   -0.2314   19.6109   44.5041 H   0  0  0  0  0  0  0  0  0  0  0  0
   -1.3452   18.2016   44.5041 H   0  0  0  0  0  0  0  0  0  0  0  0
    3.3268   24.4521   35.9107 H   0  0  0  0  0  0  0  0  0  0  0  0
    2.3151   13.3652   32.7042 H   0  0  0  0  0  0  0  0  0  0  0  0
    1.2037   13.1461   34.0156 H   0  0  0  0  0  0  0  0  0  0  0  0
    1.0397   25.0635   32.4775 H   0  0  0  0  0  0  0  0  0  0  0  0
    2.4229   26.2031   32.2351 H   0  0  0  0  0  0  0  0  0  0  0  0
  1  7  1  0
  1 32  1  0
  1 14  1  0
  2  8  1  0
  2 31  1  0
  2 19  1  0
  3 29  2  0
  4 22  1  0
  5 37  2  3
  6 22  1  0
 10 33  1  0
 11 27  1  0
 12 11  2  3
 14 39  1  0
 15 33  2  0
 15 18  1  0
 16 21  1  0
 17 36  1  0
 17  9  1  0
 18 16  2  0
 19  4  1  0
 20  5  1  0
 21 17  1  0
 22 10  1  0
 23 15  1  0
 24 37  1  0
 24 12  1  0
 26 21  1  0
 27 29  1  0
 28 13  1  0
 29 28  1  0
 30 25  1  0
 30 20  1  0
 31  6  1  0
 32 14  1  0
 33 26  1  0
 34 38  1  0
 35 30  2  3
 38  8  1  0
 39 35  1  0
  1 40  1  0
  2 41  1  0
  4 42  1  0
  4 43  1  0
  5 44  1  0
  6 45  1  0
  6 46  1  0
  7 47  1  0
  7 48  1  0
  7 49  1  0
  8 50  1  0
  8 51  1  0
  9 52  1  0
  9 53  1  0
  9 54  1  0
 11 55  1  0
 12 56  1  0
 13 57  1  0
 13 58  1  0
 13 59  1  0
 14 60  1  0
 16 61  1  0
 17 62  1  0
 18 63  1  0
 19 64  1  0
 19 65  1  0
 20 66  1  0
 20 67  1  0
 21 68  1  0
 22 69  1  0
 23 70  1  0
 24 71  1  0
 24 72  1  0
 27 73  1  0
 27 74  1  0
 31 75  1  0
 31 76  1  0
 32 77  1  0
 32 78  1  0
 34 79  1  0
 34 80  1  0
 34 81  1  0
 35 82  1  0
 36 83  1  0
 36 84  1  0
 36 85  1  0
 37 86  1  0
 38 87  1  0
 38 88  1  0
 39 89  1  0
 39 90  1  0
M  CHG  1  38   1
M  END
>  <mol_id>  (90) 
2026-09-18-6fnk-s0-n100-0091

>  <rmsd_to_ref>  (90) 


$$$$

     RDKit          3D

 54 55  0  0  0  0  0  0  0  0999 V2000
    2.7830   20.8380   38.7140 C   0  0  0  0  0  0  0  0  0  0  0  0
    1.1760   26.8930   33.1320 C   0  0  0  0  0  0  0  0  0  0  0  0
   -0.3930   16.7310   37.9200 C   0  0  0  0  0  0  0  0  0  0  0  0
    2.6150   26.9600   33.0910 C   0  0  0  0  0  0  0  0  0  0  0  0
    1.2000   16.2680   39.4950 C   0  0  0  0  0  0  0  0  0  0  0  0
    0.6720   15.2080   40.2470 C   0  0  0  0  0  0  0  0  0  0  0  0
    3.9910   21.0170   40.7610 C   0  0  0  0  0  0  0  0  0  0  0  0
    3.6230   24.5110   35.6060 C   0  0  0  0  0  0  0  0  0  0  0  0
    1.1330   17.2650   38.6690 C   0  0  0  0  0  0  0  0  0  0  0  0
    1.8560   18.5620   38.8500 C   0  0  0  0  0  0  0  0  0  0  0  0
    2.1940   26.8190   35.5620 O   0  0  0  0  0  0  0  0  0  0  0  0
    3.2690   26.3420   32.2790 O   0  0  0  0  0  0  0  0  0  0  0  0
   -0.5460   14.5070   40.3070 C   0  0  0  0  0  0  0  0  0  0  0  0
   -1.6140   14.9410   39.3950 C   0  0  0  0  0  0  0  0  0  0  0  0
    3.6910   25.4390   34.6680 N   0  0  0  0  0  0  0  0  0  0  0  0
    2.3510   19.5400   38.0290 N   0  0  0  0  0  0  0  0  0  0  0  0
    2.6860   23.7910   36.0730 C   0  0  0  0  0  0  0  0  0  0  0  0
    2.9330   20.4480   40.0350 C   0  0  0  0  0  0  0  0  0  0  0  0
    4.1060   20.8320   42.3030 C   0  0  0  0  0  0  0  0  0  0  0  0
    3.0940   26.5220   34.6300 C   0  0  0  0  0  0  0  0  0  0  0  0
   -1.1240   16.0300   38.4790 C   0  0  0  0  0  0  0  0  0  0  0  0
    2.9530   22.2540   36.5350 C   0  0  0  0  0  0  0  0  0  0  0  0
   -0.8340   13.0350   41.2740 Cl  0  0  0  0  0  0  0  0  0  0  0  0
    2.7200   22.0420   37.9410 N   0  0  0  0  0  0  0  0  0  0  0  0
    1.6890   19.3840   40.3940 S   0  0  0  0  0  0  0  0  0  0  0  0
    4.6350   24.6990   36.2620 C   0  0  0  0  0  0  0  0  0  0  0  0
    3.3780   28.1220   33.0270 F   0  0  0  0  0  0  0  0  0  0  0  0
    0.8394   26.8773   34.1791 H   0  0  0  0  0  0  0  0  0  0  0  0
    0.7534   27.7724   32.6241 H   0  0  0  0  0  0  0  0  0  0  0  0
    0.8369   25.9781   32.6241 H   0  0  0  0  0  0  0  0  0  0  0  0
   -0.1185   16.2152   36.9880 H   0  0  0  0  0  0  0  0  0  0  0  0
   -0.9658   17.6676   37.8519 H   0  0  0  0  0  0  0  0  0  0  0  0
    2.2701   16.2345   39.7476 H   0  0  0  0  0  0  0  0  0  0  0  0
    1.3986   14.8262   40.9793 H   0  0  0  0  0  0  0  0  0  0  0  0
    4.7540   21.6053   40.2302 H   0  0  0  0  0  0  0  0  0  0  0  0
    1.8290   17.7017   37.9376 H   0  0  0  0  0  0  0  0  0  0  0  0
    2.4326   17.7250   38.4294 H   0  0  0  0  0  0  0  0  0  0  0  0
    3.9016   25.7443   32.7509 H   0  0  0  0  0  0  0  0  0  0  0  0
   -0.2305   13.8860   39.4556 H   0  0  0  0  0  0  0  0  0  0  0  0
   -1.9436   14.0827   38.7910 H   0  0  0  0  0  0  0  0  0  0  0  0
   -2.4507   15.3323   39.9923 H   0  0  0  0  0  0  0  0  0  0  0  0
    4.3152   25.2368   33.8740 H   0  0  0  0  0  0  0  0  0  0  0  0
    2.2982   24.3190   36.9566 H   0  0  0  0  0  0  0  0  0  0  0  0
    2.0231   23.6678   35.2039 H   0  0  0  0  0  0  0  0  0  0  0  0
    3.5909   21.6606   42.8111 H   0  0  0  0  0  0  0  0  0  0  0  0
    3.6414   19.8782   42.5935 H   0  0  0  0  0  0  0  0  0  0  0  0
    5.1669   20.8265   42.5935 H   0  0  0  0  0  0  0  0  0  0  0  0
   -1.7276   16.8329   38.9274 H   0  0  0  0  0  0  0  0  0  0  0  0
   -0.8093   15.2350   37.7869 H   0  0  0  0  0  0  0  0  0  0  0  0
    2.2821   21.5947   35.9648 H   0  0  0  0  0  0  0  0  0  0  0  0
    4.0119   22.0298   36.3387 H   0  0  0  0  0  0  0  0  0  0  0  0
    2.4692   22.8877   38.4727 H   0  0  0  0  0  0  0  0  0  0  0  0
    5.4454   25.3225   35.8565 H   0  0  0  0  0  0  0  0  0  0  0  0
    4.7366   24.2449   37.2587 H   0  0  0  0  0  0  0  0  0  0  0  0
  1 18  1  0
  3 21  1  0
  4  2  1  0
  4 20  1  0
  5  6  2  0
  6 13  1  0
  7 19  1  0
  8 17  1  0
  8 26  2  3
  9  3  1  0
  9 10  1  0
  9  5  1  0
 10 16  1  0
 10 25  1  0
 12  4  1  0
 13 23  1  0
 14 13  1  0
 15  8  1  0
 16  1  2  0
 17 22  1  0
 18 25  1  0
 18  7  2  3
 20 15  1  0
 20 11  2  0
 21 14  1  0
 22 24  1  0
 24  1  1  0
 27  4  1  0
  2 28  1  0
  2 29  1  0
  2 30  1  0
  3 31  1  0
  3 32  1  0
  5 33  1  0
  6 34  1  0
  7 35  1  0
  9 36  1  0
 10 37  1  0
 12 38  1  0
 13 39  1  0
 14 40  1  0
 14 41  1  0
 15 42  1  0
 17 43  1  0
 17 44  1  0
 19 45  1  0
 19 46  1  0
 19 47  1  0
 21 48  1  0
 21 49  1  0
 22 50  1  0
 22 51  1  0
 24 52  1  0
 26 53  1  0
 26 54  1  0
M  END
>  <mol_id>  (91) 
2026-09-18-6fnk-s0-n100-0092

>  <rmsd_to_ref>  (91) 


$$$$

     RDKit          3D

 52 52  0  0  0  0  0  0  0  0999 V2000
    2.1480   20.4160   41.3720 C   0  0  0  0  0  0  0  0  0  0  0  0
    2.0900   19.1780   42.4720 C   0  0  0  0  0  0  0  0  0  0  0  0
    6.0640   25.0160   33.9980 C   0  0  0  0  0  0  0  0  0  0  0  0
   -0.9060   14.9860   39.5120 O   0  0  0  0  0  0  0  0  0  0  0  0
    5.2750   24.1680   34.9710 C   0  0  0  0  0  0  0  0  0  0  0  0
    5.6260   24.4420   32.6790 C   0  0  0  0  0  0  0  0  0  0  0  0
    1.8230   18.2820   39.4660 O   0  0  0  0  0  0  0  0  0  0  0  0
    1.3790   17.6520   40.3860 C   0  0  0  0  0  0  0  0  0  0  0  0
    0.6560   16.6000   39.9700 N   0  0  0  0  0  0  0  0  0  0  0  0
    4.1970   23.1340   37.0340 C   0  0  0  0  0  0  0  0  0  0  0  0
   -0.1500   15.8370   38.9890 C   0  0  0  0  0  0  0  0  0  0  0  0
    0.4510   16.4970   36.9830 O   0  0  0  0  0  0  0  0  0  0  0  0
   -1.6140   15.9170   37.0480 O   0  0  0  0  0  1  0  0  0  0  0  0
    6.8380   24.3030   36.8240 C   0  0  0  0  0  0  0  0  0  0  0  0
    2.9190   23.3270   35.8610 C   0  0  0  0  0  0  0  0  0  0  0  0
   -0.5450   16.1910   37.5690 C   0  0  0  0  0  0  0  0  0  0  0  0
    3.7900   24.0440   34.4730 C   0  0  0  0  0  0  0  0  0  0  0  0
    2.1770   20.7810   39.8230 C   0  0  0  0  0  0  0  0  0  0  0  0
    6.5390   24.7450   35.5250 C   0  0  0  0  0  0  0  0  0  0  0  0
    1.6670   17.8670   41.9060 C   0  0  0  0  0  0  0  0  0  0  0  0
    2.0300   22.5110   36.6200 C   0  0  0  0  0  0  0  0  0  0  0  0
    5.4370   23.3800   37.3170 C   0  0  0  0  0  0  0  0  0  0  0  0
    2.0210   23.7780   35.6190 C   0  0  0  0  0  0  0  0  0  0  0  0
    3.1630   21.7840   37.8840 S   0  0  0  0  0  0  0  0  0  0  0  0
    1.2682   20.9953   41.6889 H   0  0  0  0  0  0  0  0  0  0  0  0
    3.2476   20.4041   41.4007 H   0  0  0  0  0  0  0  0  0  0  0  0
    3.0935   19.0569   42.9060 H   0  0  0  0  0  0  0  0  0  0  0  0
    1.3297   19.4569   43.2164 H   0  0  0  0  0  0  0  0  0  0  0  0
    6.4683   25.8785   33.4479 H   0  0  0  0  0  0  0  0  0  0  0  0
    4.8649   23.3239   35.5449 H   0  0  0  0  0  0  0  0  0  0  0  0
    4.9673   23.5788   32.8554 H   0  0  0  0  0  0  0  0  0  0  0  0
    5.0811   25.2085   32.1084 H   0  0  0  0  0  0  0  0  0  0  0  0
    6.5091   24.1188   32.1084 H   0  0  0  0  0  0  0  0  0  0  0  0
    0.6690   15.9759   40.7893 H   0  0  0  0  0  0  0  0  0  0  0  0
    6.9949   25.1584   37.4976 H   0  0  0  0  0  0  0  0  0  0  0  0
    7.7608   23.7052   36.8565 H   0  0  0  0  0  0  0  0  0  0  0  0
    3.3786   25.0331   34.2232 H   0  0  0  0  0  0  0  0  0  0  0  0
    3.7013   23.4358   33.5607 H   0  0  0  0  0  0  0  0  0  0  0  0
    2.2636   21.8712   39.7047 H   0  0  0  0  0  0  0  0  0  0  0  0
    3.0390   20.2909   39.3469 H   0  0  0  0  0  0  0  0  0  0  0  0
    1.2484   20.4332   39.3469 H   0  0  0  0  0  0  0  0  0  0  0  0
    5.9870   25.6374   35.8551 H   0  0  0  0  0  0  0  0  0  0  0  0
    0.7402   17.5942   42.4320 H   0  0  0  0  0  0  0  0  0  0  0  0
    2.5751   17.2623   42.0465 H   0  0  0  0  0  0  0  0  0  0  0  0
    2.2081   22.6745   37.6931 H   0  0  0  0  0  0  0  0  0  0  0  0
    0.9906   22.7761   36.3763 H   0  0  0  0  0  0  0  0  0  0  0  0
    2.2053   21.4528   36.3763 H   0  0  0  0  0  0  0  0  0  0  0  0
    5.7122   22.7839   38.1996 H   0  0  0  0  0  0  0  0  0  0  0  0
    1.4855   24.0470   36.5414 H   0  0  0  0  0  0  0  0  0  0  0  0
    2.2140   24.6861   35.0290 H   0  0  0  0  0  0  0  0  0  0  0  0
    1.4078   23.0809   35.0290 H   0  0  0  0  0  0  0  0  0  0  0  0
    3.2658   21.9182   39.2435 H   0  0  0  0  0  0  0  0  0  0  0  0
  1  2  1  0
  3  6  1  0
  3  5  1  0
  3 19  1  0
  5 17  1  0
  5 19  1  0
  7  8  2  0
  8 20  1  0
  9  8  1  0
 10 22  2  0
 10 24  1  0
 11  4  2  0
 11  9  1  0
 12 16  2  0
 13 16  1  0
 14 22  1  0
 15 21  1  0
 15 10  1  0
 16 11  1  0
 17 15  1  0
 18  1  1  0
 19 14  1  0
 20  2  1  0
 23 15  1  0
  1 25  1  0
  1 26  1  0
  2 27  1  0
  2 28  1  0
  3 29  1  0
  5 30  1  0
  6 31  1  0
  6 32  1  0
  6 33  1  0
  9 34  1  0
 14 35  1  0
 14 36  1  0
 17 37  1  0
 17 38  1  0
 18 39  1  0
 18 40  1  0
 18 41  1  0
 19 42  1  0
 20 43  1  0
 20 44  1  0
 21 45  1  0
 21 46  1  0
 21 47  1  0
 22 48  1  0
 23 49  1  0
 23 50  1  0
 23 51  1  0
 24 52  1  0
M  CHG  1  13  -1
M  END
>  <mol_id>  (92) 
2026-09-18-6fnk-s0-n100-0093

>  <rmsd_to_ref>  (92) 


$$$$

     RDKit          3D

 70 70  0  0  0  0  0  0  0  0999 V2000
    0.2660   16.6850   38.3400 C   0  0  0  0  0  0  0  0  0  0  0  0
    2.5430   21.2250   40.2410 C   0  0  0  0  0  0  0  0  0  0  0  0
    0.3850   15.4620   37.0350 N   0  0  0  0  0  0  0  0  0  0  0  0
    1.9060   24.2900   35.5150 C   0  0  0  0  0  0  0  0  0  0  0  0
    2.7580   16.6830   38.8160 O   0  0  0  0  0  0  0  0  0  0  0  0
    0.4190   15.9000   39.6790 C   0  0  0  0  0  0  0  0  0  0  0  0
    2.1210   20.2000   39.4070 C   0  0  0  0  0  0  0  0  0  0  0  0
    5.3680   25.0040   35.3020 C   0  0  0  0  0  0  0  0  0  0  0  0
    3.2820   23.6810   35.6050 C   0  0  0  0  0  0  0  0  0  0  0  0
   -1.4500   14.4830   39.5090 O   0  0  0  0  0  0  0  0  0  0  0  0
    6.5560   24.2970   35.9080 C   0  0  0  0  0  0  0  0  0  0  0  0
    1.1830   23.0970   37.6990 C   0  0  0  0  0  0  0  0  0  0  0  0
    2.9580   22.2790   39.4180 N   0  0  0  0  0  4  0  0  0  0  0  0
    1.4350   24.6700   33.9500 C   0  0  0  0  0  0  0  0  0  0  0  0
    3.6760   23.3160   37.0410 C   0  0  0  0  0  0  0  0  0  0  0  0
    1.3380   14.3820   37.0930 C   0  0  0  0  0  0  0  0  0  0  0  0
    2.6310   22.6490   38.0680 C   0  0  0  0  0  0  0  0  0  0  0  0
   -0.2140   14.4310   39.8130 C   0  0  0  0  0  0  0  0  0  0  0  0
    1.6430   18.9210   40.0880 C   0  0  0  0  0  0  0  0  0  0  0  0
   -0.6050   15.7320   37.6540 N   0  0  0  0  0  0  0  0  0  0  0  0
    0.9450   16.8100   36.9140 C   0  0  0  0  0  0  0  0  0  0  0  0
    4.1700   24.1220   33.2600 C   0  0  0  0  0  0  0  0  0  0  0  0
    4.2810   24.2330   34.6670 C   0  0  0  0  0  0  0  0  0  0  0  0
    1.0310   23.1890   36.2350 C   0  0  0  0  0  0  0  0  0  0  0  0
    3.0310   15.8890   36.7670 F   0  0  0  0  0  0  0  0  0  0  0  0
    2.5080   15.2530   37.9700 C   0  0  0  0  0  0  0  0  0  0  0  0
    2.8620   21.1230   41.7690 C   0  0  0  0  0  0  0  0  0  0  0  0
    0.3297   17.6771   38.8108 H   0  0  0  0  0  0  0  0  0  0  0  0
    1.8174   25.2795   35.9872 H   0  0  0  0  0  0  0  0  0  0  0  0
    2.7262   16.5009   39.7886 H   0  0  0  0  0  0  0  0  0  0  0  0
    1.4978   15.8018   39.8704 H   0  0  0  0  0  0  0  0  0  0  0  0
   -0.1633   16.4976   40.3958 H   0  0  0  0  0  0  0  0  0  0  0  0
    2.1305   20.3038   38.3120 H   0  0  0  0  0  0  0  0  0  0  0  0
    4.9070   25.5932   36.1084 H   0  0  0  0  0  0  0  0  0  0  0  0
    5.8105   25.5504   34.4561 H   0  0  0  0  0  0  0  0  0  0  0  0
    3.2441   22.6779   35.1551 H   0  0  0  0  0  0  0  0  0  0  0  0
   -1.9927   14.5058   40.3367 H   0  0  0  0  0  0  0  0  0  0  0  0
    6.4868   24.3382   37.0050 H   0  0  0  0  0  0  0  0  0  0  0  0
    6.5642   23.2470   35.5803 H   0  0  0  0  0  0  0  0  0  0  0  0
    7.4828   24.7906   35.5803 H   0  0  0  0  0  0  0  0  0  0  0  0
    0.4649   22.3625   38.0926 H   0  0  0  0  0  0  0  0  0  0  0  0
    0.9920   24.0862   38.1406 H   0  0  0  0  0  0  0  0  0  0  0  0
    2.7104   23.1179   39.9618 H   0  0  0  0  0  0  0  0  0  0  0  0
    3.8876   21.8908   39.2032 H   0  0  0  0  0  0  0  0  0  0  0  0
    0.5793   25.3604   33.9821 H   0  0  0  0  0  0  0  0  0  0  0  0
    2.2724   25.1484   33.4210 H   0  0  0  0  0  0  0  0  0  0  0  0
    1.1445   23.7503   33.4210 H   0  0  0  0  0  0  0  0  0  0  0  0
    4.5192   22.6142   36.9602 H   0  0  0  0  0  0  0  0  0  0  0  0
    3.8455   24.3045   37.4928 H   0  0  0  0  0  0  0  0  0  0  0  0
    0.9588   13.5055   37.6388 H   0  0  0  0  0  0  0  0  0  0  0  0
    1.6500   13.9272   36.1413 H   0  0  0  0  0  0  0  0  0  0  0  0
    2.7567   21.5676   37.9105 H   0  0  0  0  0  0  0  0  0  0  0  0
    0.3051   13.7420   39.1304 H   0  0  0  0  0  0  0  0  0  0  0  0
   -0.1000   14.0698   40.8458 H   0  0  0  0  0  0  0  0  0  0  0  0
    1.6902   19.0472   41.1797 H   0  0  0  0  0  0  0  0  0  0  0  0
    0.6058   18.7113   39.7876 H   0  0  0  0  0  0  0  0  0  0  0  0
    2.2884   18.0824   39.7876 H   0  0  0  0  0  0  0  0  0  0  0  0
   -1.3696   16.1491   37.1042 H   0  0  0  0  0  0  0  0  0  0  0  0
    2.0396   16.9102   36.8728 H   0  0  0  0  0  0  0  0  0  0  0  0
    0.7919   17.5647   36.1285 H   0  0  0  0  0  0  0  0  0  0  0  0
    3.4124   23.3644   33.0106 H   0  0  0  0  0  0  0  0  0  0  0  0
    3.8706   25.0927   32.8381 H   0  0  0  0  0  0  0  0  0  0  0  0
    5.1407   23.8226   32.8381 H   0  0  0  0  0  0  0  0  0  0  0  0
    4.8351   23.2833   34.6982 H   0  0  0  0  0  0  0  0  0  0  0  0
   -0.0258   23.4051   36.0194 H   0  0  0  0  0  0  0  0  0  0  0  0
    1.3835   22.2250   35.8394 H   0  0  0  0  0  0  0  0  0  0  0  0
    2.6793   14.5145   38.7670 H   0  0  0  0  0  0  0  0  0  0  0  0
    1.9719   21.4076   42.3492 H   0  0  0  0  0  0  0  0  0  0  0  0
    3.1457   20.0893   42.0161 H   0  0  0  0  0  0  0  0  0  0  0  0
    3.6928   21.8003   42.0161 H   0  0  0  0  0  0  0  0  0  0  0  0
  1  6  1  0
  2 27  1  0
  3 16  1  0
  3 20  1  0
  4 14  1  0
  4  9  1  0
  4 24  1  0
  6 18  1  0
  7 19  1  0
  7  2  2  3
  8 11  1  0
  9 23  1  0
  9 15  1  0
 10 18  1  0
 12 17  1  0
 13  2  1  0
 15 17  1  0
 16 26  1  0
 17 13  1  0
 20  1  1  0
 21  3  1  0
 21  1  1  0
 23 22  1  0
 23  8  1  0
 24 12  1  0
 26 25  1  0
 26  5  1  0
  1 28  1  0
  4 29  1  0
  5 30  1  0
  6 31  1  0
  6 32  1  0
  7 33  1  0
  8 34  1  0
  8 35  1  0
  9 36  1  0
 10 37  1  0
 11 38  1  0
 11 39  1  0
 11 40  1  0
 12 41  1  0
 12 42  1  0
 13 43  1  0
 13 44  1  0
 14 45  1  0
 14 46  1  0
 14 47  1  0
 15 48  1  0
 15 49  1  0
 16 50  1  0
 16 51  1  0
 17 52  1  0
 18 53  1  0
 18 54  1  0
 19 55  1  0
 19 56  1  0
 19 57  1  0
 20 58  1  0
 21 59  1  0
 21 60  1  0
 22 61  1  0
 22 62  1  0
 22 63  1  0
 23 64  1  0
 24 65  1  0
 24 66  1  0
 26 67  1  0
 27 68  1  0
 27 69  1  0
 27 70  1  0
M  CHG  1  13   1
M  END
>  <mol_id>  (93) 
2026-09-18-6fnk-s0-n100-0094

>  <rmsd_to_ref>  (93) 


$$$$

     RDKit          3D

 57 58  0  0  0  0  0  0  0  0999 V2000
    3.0640   21.8110   43.2080 F   0  0  0  0  0  0  0  0  0  0  0  0
    1.4930   16.7760   39.9670 C   0  0  0  0  0  0  0  0  0  0  0  0
    0.9200   24.4100   35.1400 C   0  0  0  0  0  0  0  0  0  0  0  0
   -0.9770   16.8440   37.6590 C   0  0  0  0  0  0  0  0  0  0  0  0
    0.1840   26.7630   34.7830 C   0  0  0  0  0  0  0  0  0  0  0  0
    1.8070   23.3950   34.8010 C   0  0  0  0  0  0  0  0  0  0  0  0
    2.3860   16.5980   36.4120 C   0  0  0  0  0  0  0  0  0  0  0  0
    2.7080   23.6060   33.7080 C   0  0  0  0  0  0  0  0  0  0  0  0
    3.7890   19.8640   42.5590 C   0  0  0  0  0  0  0  0  0  0  0  0
    1.2990   22.2400   36.7060 O   0  0  0  0  0  1  0  0  0  0  0  0
    4.5330   21.9480   41.5630 F   0  0  0  0  0  0  0  0  0  0  0  0
    1.5930   18.9330   41.3440 C   0  0  0  0  0  0  0  0  0  0  0  0
    3.0550   18.8720   42.0300 C   0  0  0  0  0  0  0  0  0  0  0  0
    0.8560   25.6430   34.3890 C   0  0  0  0  0  0  0  0  0  0  0  0
    1.5840   25.6700   33.1440 C   0  0  0  0  0  0  0  0  0  0  0  0
    2.5360   24.6690   32.8460 C   0  0  0  0  0  0  0  0  0  0  0  0
    1.7730   22.2140   35.4850 N   0  0  0  0  0  4  0  0  0  0  0  0
    2.5450   21.2800   35.2170 O   0  0  0  0  0  0  0  0  0  0  0  0
    4.8810   19.7950   43.4890 C   0  0  0  0  0  0  0  0  0  0  0  0
    2.2620   21.4720   41.2700 C   0  0  0  0  0  0  0  0  0  0  0  0
    0.7190   18.0920   42.2810 C   0  0  0  0  0  0  0  0  0  0  0  0
    1.0700   16.5970   36.2430 N   0  0  0  0  0  0  0  0  0  0  0  0
    1.5490   16.7250   38.3940 C   0  0  0  0  0  0  0  0  0  0  0  0
    3.3540   21.2340   42.1160 C   0  0  0  0  0  0  0  0  0  0  0  0
    2.6450   16.7070   37.6480 N   0  0  0  0  0  0  0  0  0  0  0  0
    1.7130   18.1810   40.0790 N   0  0  0  0  0  4  0  0  0  0  0  0
    1.2990   20.3710   41.1640 C   0  0  0  0  0  0  0  0  0  0  0  0
    0.5820   16.6610   37.4460 C   0  0  0  0  0  0  0  0  0  0  0  0
    2.2891   16.1822   40.4400 H   0  0  0  0  0  0  0  0  0  0  0  0
    0.5925   16.3691   40.4504 H   0  0  0  0  0  0  0  0  0  0  0  0
    0.2501   24.2713   36.0014 H   0  0  0  0  0  0  0  0  0  0  0  0
   -1.1994   16.8701   38.7360 H   0  0  0  0  0  0  0  0  0  0  0  0
   -1.3024   17.7865   37.1945 H   0  0  0  0  0  0  0  0  0  0  0  0
   -1.5118   16.0025   37.1945 H   0  0  0  0  0  0  0  0  0  0  0  0
    0.1575   26.8072   35.8818 H   0  0  0  0  0  0  0  0  0  0  0  0
    0.6965   27.6545   34.3924 H   0  0  0  0  0  0  0  0  0  0  0  0
   -0.8438   26.7303   34.3924 H   0  0  0  0  0  0  0  0  0  0  0  0
    3.1326   16.5172   35.6083 H   0  0  0  0  0  0  0  0  0  0  0  0
    3.5474   22.9119   33.5540 H   0  0  0  0  0  0  0  0  0  0  0  0
    4.4976   19.7865   41.7212 H   0  0  0  0  0  0  0  0  0  0  0  0
    2.9392   18.1512   42.8528 H   0  0  0  0  0  0  0  0  0  0  0  0
    3.6457   18.7173   41.1150 H   0  0  0  0  0  0  0  0  0  0  0  0
    1.3965   26.4768   32.4202 H   0  0  0  0  0  0  0  0  0  0  0  0
    3.1387   24.7374   31.9284 H   0  0  0  0  0  0  0  0  0  0  0  0
    4.4895   19.8197   44.5167 H   0  0  0  0  0  0  0  0  0  0  0  0
    5.4383   18.8598   43.3314 H   0  0  0  0  0  0  0  0  0  0  0  0
    5.5516   20.6526   43.3314 H   0  0  0  0  0  0  0  0  0  0  0  0
    1.7269   22.3563   41.6465 H   0  0  0  0  0  0  0  0  0  0  0  0
    2.6819   21.6066   40.2623 H   0  0  0  0  0  0  0  0  0  0  0  0
    0.9668   18.3304   43.3259 H   0  0  0  0  0  0  0  0  0  0  0  0
   -0.3413   18.3182   42.0948 H   0  0  0  0  0  0  0  0  0  0  0  0
    0.9042   17.0238   42.0948 H   0  0  0  0  0  0  0  0  0  0  0  0
    3.5993   16.7740   38.0298 H   0  0  0  0  0  0  0  0  0  0  0  0
    2.6752   18.3411   39.7482 H   0  0  0  0  0  0  0  0  0  0  0  0
    0.9082   18.5498   39.5525 H   0  0  0  0  0  0  0  0  0  0  0  0
    0.5186   20.5996   41.9047 H   0  0  0  0  0  0  0  0  0  0  0  0
    1.1165   20.3884   40.0794 H   0  0  0  0  0  0  0  0  0  0  0  0
  2 26  1  0
  6  3  2  0
  6 17  1  0
  7 25  1  0
  8  6  1  0
  9 19  1  0
 11 24  1  0
 12 13  1  0
 12 21  1  0
 13  9  1  0
 14  5  1  0
 14  3  1  0
 15 14  2  0
 16 15  1  0
 16  8  2  0
 17 10  1  0
 18 17  2  0
 20 24  1  0
 22  7  2  0
 22 28  1  0
 23  2  1  0
 24  9  1  0
 24  1  1  0
 25 23  1  0
 26 12  1  0
 27 20  1  0
 27 12  1  0
 28  4  1  0
 28 23  2  0
  2 29  1  0
  2 30  1  0
  3 31  1  0
  4 32  1  0
  4 33  1  0
  4 34  1  0
  5 35  1  0
  5 36  1  0
  5 37  1  0
  7 38  1  0
  8 39  1  0
  9 40  1  0
 13 41  1  0
 13 42  1  0
 15 43  1  0
 16 44  1  0
 19 45  1  0
 19 46  1  0
 19 47  1  0
 20 48  1  0
 20 49  1  0
 21 50  1  0
 21 51  1  0
 21 52  1  0
 25 53  1  0
 26 54  1  0
 26 55  1  0
 27 56  1  0
 27 57  1  0
M  CHG  3  10  -1  17   1  26   1
M  END
>  <mol_id>  (94) 
2026-09-18-6fnk-s0-n100-0095

>  <rmsd_to_ref>  (94) 


$$$$

     RDKit          3D

 48 49  0  0  0  0  0  0  0  0999 V2000
    6.6570   23.0520   36.7400 Cl  0  0  0  0  0  0  0  0  0  0  0  0
   -1.4010   15.4880   39.3190 C   0  0  0  0  0  0  0  0  0  0  0  0
   -2.5240   15.4870   38.6550 N   0  0  0  0  0  0  0  0  0  0  0  0
    4.7140   23.6930   34.8630 C   0  0  0  0  0  0  0  0  0  0  0  0
    1.4000   17.7250   39.9230 C   0  0  0  0  0  0  0  0  0  0  0  0
    1.8190   17.1760   41.3280 C   0  0  0  0  0  0  0  0  0  0  0  0
    2.0280   20.0230   40.7040 C   0  0  0  0  0  0  0  0  0  0  0  0
    2.6840   22.3400   36.3090 C   0  0  0  0  0  0  0  0  0  0  0  0
    1.6080   21.2840   37.1530 Cl  0  0  0  0  0  0  0  0  0  0  0  0
   -0.3510   16.4630   39.2280 O   0  0  0  0  0  0  0  0  0  0  0  0
    2.7340   24.8160   33.3970 C   0  0  0  0  0  0  0  0  0  0  0  0
    4.9780   22.9830   36.0720 C   0  0  0  0  0  0  0  0  0  0  0  0
    1.6730   19.1140   39.4160 C   0  0  0  0  0  0  0  0  0  0  0  0
    0.8760   16.8130   38.7870 C   0  0  0  0  0  0  0  0  0  0  0  0
    2.5160   19.4620   41.9930 C   0  0  0  0  0  0  0  0  0  0  0  0
    0.7040   26.5430   33.9760 C   0  0  0  0  0  0  0  0  0  0  0  0
    2.3480   18.0510   42.2120 C   0  0  0  0  0  0  0  0  0  0  0  0
    0.7560   24.3230   35.3450 S   0  0  0  0  0  0  0  0  0  0  0  0
    2.3350   23.3320   35.4150 C   0  0  0  0  0  0  0  0  0  0  0  0
   -1.0060   14.4290   40.2040 N   0  0  0  0  0  0  0  0  0  0  0  0
   -0.3260   27.1950   34.9190 C   0  0  0  0  0  0  0  0  0  0  0  0
    1.9970   21.5580   40.4710 Cl  0  0  0  0  0  0  0  0  0  0  0  0
    3.3420   23.9320   34.6060 C   0  0  0  0  0  0  0  0  0  0  0  0
    1.3470   25.3490   34.0840 C   0  0  0  0  0  0  0  0  0  0  0  0
    4.0360   22.1780   36.6990 C   0  0  0  0  0  0  0  0  0  0  0  0
   -2.7555   16.2750   38.0334 H   0  0  0  0  0  0  0  0  0  0  0  0
    5.2271   24.6645   34.9169 H   0  0  0  0  0  0  0  0  0  0  0  0
    5.0781   23.0570   34.0427 H   0  0  0  0  0  0  0  0  0  0  0  0
    1.6875   16.1150   41.5868 H   0  0  0  0  0  0  0  0  0  0  0  0
    2.5359   24.2028   32.5055 H   0  0  0  0  0  0  0  0  0  0  0  0
    3.3996   25.6120   33.0319 H   0  0  0  0  0  0  0  0  0  0  0  0
    4.6282   23.8471   36.6559 H   0  0  0  0  0  0  0  0  0  0  0  0
    1.6378   19.4476   38.3684 H   0  0  0  0  0  0  0  0  0  0  0  0
    1.5185   15.9293   38.6598 H   0  0  0  0  0  0  0  0  0  0  0  0
    0.8617   17.3059   37.8037 H   0  0  0  0  0  0  0  0  0  0  0  0
    2.9884   20.1039   42.7512 H   0  0  0  0  0  0  0  0  0  0  0  0
    0.1842   26.4832   33.0084 H   0  0  0  0  0  0  0  0  0  0  0  0
    1.5578   27.1934   34.2167 H   0  0  0  0  0  0  0  0  0  0  0  0
    2.6781   17.6494   43.1814 H   0  0  0  0  0  0  0  0  0  0  0  0
    1.8609   22.3552   35.2388 H   0  0  0  0  0  0  0  0  0  0  0  0
   -0.1065   14.4833   40.7029 H   0  0  0  0  0  0  0  0  0  0  0  0
   -1.6220   13.6148   40.3401 H   0  0  0  0  0  0  0  0  0  0  0  0
   -0.0349   27.0107   35.9636 H   0  0  0  0  0  0  0  0  0  0  0  0
   -0.3588   28.2787   34.7332 H   0  0  0  0  0  0  0  0  0  0  0  0
   -1.3195   26.7609   34.7332 H   0  0  0  0  0  0  0  0  0  0  0  0
    3.3052   23.0358   33.9692 H   0  0  0  0  0  0  0  0  0  0  0  0
    1.1933   25.5405   33.0118 H   0  0  0  0  0  0  0  0  0  0  0  0
    4.3275   21.4455   37.4661 H   0  0  0  0  0  0  0  0  0  0  0  0
  2 20  1  0
  3  2  2  3
  4 12  1  0
  5  6  2  0
  6 17  1  0
  7 15  1  0
  8 25  2  0
  8  9  1  0
 10  2  1  0
 11 24  1  0
 12 25  1  0
 12  1  1  0
 13  5  1  0
 13  7  2  0
 14 10  1  0
 14  5  1  0
 15 17  2  0
 16 21  1  0
 19 18  1  0
 19  8  1  0
 22  7  1  0
 23 11  1  0
 23  4  1  0
 23 19  1  0
 24 16  1  0
 24 18  1  0
  3 26  1  0
  4 27  1  0
  4 28  1  0
  6 29  1  0
 11 30  1  0
 11 31  1  0
 12 32  1  0
 13 33  1  0
 14 34  1  0
 14 35  1  0
 15 36  1  0
 16 37  1  0
 16 38  1  0
 17 39  1  0
 19 40  1  0
 20 41  1  0
 20 42  1  0
 21 43  1  0
 21 44  1  0
 21 45  1  0
 23 46  1  0
 24 47  1  0
 25 48  1  0
M  END
>  <mol_id>  (95) 
2026-09-18-6fnk-s0-n100-0096

>  <rmsd_to_ref>  (95) 


$$$$

     RDKit          3D

 84 85  0  0  0  0  0  0  0  0999 V2000
    1.6210   16.7610   41.8070 C   0  0  0  0  0  0  0  0  0  0  0  0
   -2.7280   20.5450   37.6850 C   0  0  0  0  0  0  0  0  0  0  0  0
    2.7140   21.4220   38.3840 C   0  0  0  0  0  0  0  0  0  0  0  0
   -4.1220   20.2660   37.1380 C   0  0  0  0  0  0  0  0  0  0  0  0
    1.1890   25.0360   34.9350 C   0  0  0  0  0  0  0  0  0  0  0  0
    2.7190   22.9820   35.9170 C   0  0  0  0  0  0  0  0  0  0  0  0
   -0.2110   15.6140   39.6590 C   0  0  0  0  0  0  0  0  0  0  0  0
   -0.0330   24.1650   35.9480 C   0  0  0  0  0  0  0  0  0  0  0  0
    0.0680   15.2200   41.0230 O   0  0  0  0  0  0  0  0  0  0  0  0
    0.3600   16.9520   39.1690 C   0  0  0  0  0  0  0  0  0  0  0  0
    1.1530   14.6150   38.3090 O   0  0  0  0  0  0  0  0  0  0  0  0
    1.8990   17.9340   37.7650 O   0  0  0  0  0  0  0  0  0  0  0  0
    2.9720   23.8870   33.5880 C   0  0  0  0  0  0  0  0  0  0  0  0
    0.4860   28.0120   35.8430 C   0  0  0  0  0  0  0  0  0  0  0  0
    2.2760   19.0310   41.7390 C   0  0  0  0  0  0  0  0  0  0  0  0
    0.7240   27.7130   34.4700 C   0  0  0  0  0  0  0  0  0  0  0  0
    1.1920   26.1560   33.8200 C   0  0  0  0  0  0  0  0  0  0  0  0
    3.0750   19.8460   41.6260 C   0  0  0  0  0  0  0  0  0  0  0  0
    2.3600   22.3950   37.0960 C   0  0  0  0  0  0  0  0  0  0  0  0
    2.0850   24.7690   33.8350 C   0  0  0  0  0  0  0  0  0  0  0  0
   -0.1040   14.5810   38.7420 C   0  0  0  0  0  0  0  0  0  0  0  0
    2.2860   20.9850   39.5560 C   0  0  0  0  0  0  0  0  0  0  0  0
    4.1520   20.2490   42.5810 C   0  0  0  0  0  0  0  0  0  0  0  0
    2.9870   22.8620   34.7830 C   0  0  0  0  0  0  0  0  0  0  0  0
    1.0220   16.6760   37.8660 C   0  0  0  0  0  0  0  0  0  0  0  0
    2.1070   17.9130   43.1050 S   0  0  0  0  0  0  0  0  0  0  0  0
    1.6150   28.8690   36.0690 C   0  0  0  0  0  0  0  0  0  0  0  0
    1.3840   17.8670   41.0430 C   0  0  0  0  0  0  0  0  0  0  0  0
    0.4140   16.5150   36.6070 O   0  0  0  0  0  0  0  0  0  0  0  0
    3.1210   20.5760   40.4730 O   0  0  0  0  0  0  0  0  0  0  0  0
    5.3020   23.0910   31.1370 C   0  0  0  0  0  0  0  0  0  0  0  0
    2.9090   24.2850   32.3010 O   0  0  0  0  0  0  0  0  0  0  0  0
    4.3260   23.7940   32.3830 C   0  0  0  0  0  0  0  0  0  0  0  0
    1.2290   17.8330   39.8860 N   0  0  0  0  0  4  0  0  0  0  0  0
    2.4267   16.1078   41.4406 H   0  0  0  0  0  0  0  0  0  0  0  0
    0.8638   15.9789   41.9647 H   0  0  0  0  0  0  0  0  0  0  0  0
   -2.7576   20.5391   38.7846 H   0  0  0  0  0  0  0  0  0  0  0  0
   -2.0336   19.7680   37.3327 H   0  0  0  0  0  0  0  0  0  0  0  0
   -2.3861   21.5294   37.3327 H   0  0  0  0  0  0  0  0  0  0  0  0
    3.6901   20.9535   38.1896 H   0  0  0  0  0  0  0  0  0  0  0  0
   -4.8227   20.1258   37.9742 H   0  0  0  0  0  0  0  0  0  0  0  0
   -4.4512   21.1161   36.5224 H   0  0  0  0  0  0  0  0  0  0  0  0
   -4.0987   19.3547   36.5224 H   0  0  0  0  0  0  0  0  0  0  0  0
    1.2523   24.9845   36.0320 H   0  0  0  0  0  0  0  0  0  0  0  0
    1.8925   23.7018   35.8238 H   0  0  0  0  0  0  0  0  0  0  0  0
    3.7765   22.8179   36.1716 H   0  0  0  0  0  0  0  0  0  0  0  0
   -1.2817   15.8580   39.7230 H   0  0  0  0  0  0  0  0  0  0  0  0
    0.1920   24.3254   37.0127 H   0  0  0  0  0  0  0  0  0  0  0  0
   -1.0380   24.5516   35.7234 H   0  0  0  0  0  0  0  0  0  0  0  0
    0.0046   23.0888   35.7234 H   0  0  0  0  0  0  0  0  0  0  0  0
   -0.3769   15.8482   41.6455 H   0  0  0  0  0  0  0  0  0  0  0  0
   -0.5609   17.5489   39.2441 H   0  0  0  0  0  0  0  0  0  0  0  0
    1.7687   14.6317   39.0841 H   0  0  0  0  0  0  0  0  0  0  0  0
    2.1224   18.2544   38.6747 H   0  0  0  0  0  0  0  0  0  0  0  0
    0.5149   27.1121   36.4749 H   0  0  0  0  0  0  0  0  0  0  0  0
   -0.4982   28.4448   36.0755 H   0  0  0  0  0  0  0  0  0  0  0  0
    2.1926   20.0558   41.3480 H   0  0  0  0  0  0  0  0  0  0  0  0
   -0.2116   27.9716   33.9526 H   0  0  0  0  0  0  0  0  0  0  0  0
    1.6614   28.2682   34.3179 H   0  0  0  0  0  0  0  0  0  0  0  0
    0.9617   26.7148   32.9009 H   0  0  0  0  0  0  0  0  0  0  0  0
    2.3939   20.5774   42.0855 H   0  0  0  0  0  0  0  0  0  0  0  0
    1.3306   22.7375   37.2778 H   0  0  0  0  0  0  0  0  0  0  0  0
    1.4477   24.3501   33.0422 H   0  0  0  0  0  0  0  0  0  0  0  0
   -0.8022   14.7358   37.9062 H   0  0  0  0  0  0  0  0  0  0  0  0
   -0.3525   13.6091   39.1933 H   0  0  0  0  0  0  0  0  0  0  0  0
    1.7102   21.8082   40.0040 H   0  0  0  0  0  0  0  0  0  0  0  0
    1.7549   20.0601   39.2867 H   0  0  0  0  0  0  0  0  0  0  0  0
    3.7956   20.1156   43.6131 H   0  0  0  0  0  0  0  0  0  0  0  0
    5.0412   19.6228   42.4163 H   0  0  0  0  0  0  0  0  0  0  0  0
    4.4117   21.3051   42.4163 H   0  0  0  0  0  0  0  0  0  0  0  0
    2.3198   22.0565   34.4424 H   0  0  0  0  0  0  0  0  0  0  0  0
    4.0790   22.8346   34.9129 H   0  0  0  0  0  0  0  0  0  0  0  0
    1.3788   15.6401   37.9641 H   0  0  0  0  0  0  0  0  0  0  0  0
    1.7733   28.9892   37.1509 H   0  0  0  0  0  0  0  0  0  0  0  0
    2.5115   28.4219   35.6147 H   0  0  0  0  0  0  0  0  0  0  0  0
    1.4254   29.8527   35.6147 H   0  0  0  0  0  0  0  0  0  0  0  0
    0.3069   18.0902   41.0471 H   0  0  0  0  0  0  0  0  0  0  0  0
   -0.5357   16.2635   36.7289 H   0  0  0  0  0  0  0  0  0  0  0  0
    6.1141   22.5061   31.5935 H   0  0  0  0  0  0  0  0  0  0  0  0
    4.6810   22.4314   30.5130 H   0  0  0  0  0  0  0  0  0  0  0  0
    5.7308   23.8890   30.5130 H   0  0  0  0  0  0  0  0  0  0  0  0
    5.4204   23.8210   32.4900 H   0  0  0  0  0  0  0  0  0  0  0  0
    2.1664   17.6605   39.4955 H   0  0  0  0  0  0  0  0  0  0  0  0
    0.7184   18.7181   39.7567 H   0  0  0  0  0  0  0  0  0  0  0  0
  1 26  1  0
  3 22  1  0
  4  2  1  0
  5  8  1  0
  6 19  1  0
  7  9  1  0
 10 25  1  0
 10  7  1  0
 10 34  1  0
 11 21  1  0
 12 25  1  0
 13 24  1  0
 14 27  1  0
 15 18  1  0
 15 26  1  0
 16 14  1  0
 17 20  1  0
 17 16  1  0
 17  5  1  0
 18 23  1  0
 19  3  2  3
 20 13  1  0
 20  5  1  0
 21  7  1  0
 22 30  1  0
 24  6  1  0
 28 34  1  0
 28 15  1  0
 28  1  1  0
 29 25  1  0
 30 18  1  0
 32 33  1  0
 32 13  1  0
 33 31  1  0
 33 13  1  0
  1 35  1  0
  1 36  1  0
  2 37  1  0
  2 38  1  0
  2 39  1  0
  3 40  1  0
  4 41  1  0
  4 42  1  0
  4 43  1  0
  5 44  1  0
  6 45  1  0
  6 46  1  0
  7 47  1  0
  8 48  1  0
  8 49  1  0
  8 50  1  0
  9 51  1  0
 10 52  1  0
 11 53  1  0
 12 54  1  0
 14 55  1  0
 14 56  1  0
 15 57  1  0
 16 58  1  0
 16 59  1  0
 17 60  1  0
 18 61  1  0
 19 62  1  0
 20 63  1  0
 21 64  1  0
 21 65  1  0
 22 66  1  0
 22 67  1  0
 23 68  1  0
 23 69  1  0
 23 70  1  0
 24 71  1  0
 24 72  1  0
 25 73  1  0
 27 74  1  0
 27 75  1  0
 27 76  1  0
 28 77  1  0
 29 78  1  0
 31 79  1  0
 31 80  1  0
 31 81  1  0
 33 82  1  0
 34 83  1  0
 34 84  1  0
M  CHG  1  34   1
M  END
>  <mol_id>  (96) 
2026-09-18-6fnk-s0-n100-0097

>  <rmsd_to_ref>  (96) 


$$$$

     RDKit          3D

 59 58  0  0  0  0  0  0  0  0999 V2000
    3.1690   23.1470   36.6020 C   0  0  0  0  0  0  0  0  0  0  0  0
    0.2330   16.0330   36.1070 C   0  0  0  0  0  0  0  0  0  0  0  0
    2.0370   20.4590   40.1350 C   0  0  0  0  0  0  0  0  0  0  0  0
    0.6400   15.3710   37.3760 C   0  0  0  0  0  0  0  0  0  0  0  0
    6.3720   24.0770   36.7170 C   0  0  0  0  0  0  0  0  0  0  0  0
    1.5400   20.2360   41.5280 C   0  0  0  0  0  0  0  0  0  0  0  0
    3.8830   23.6980   35.3670 C   0  0  0  0  0  0  0  0  0  0  0  0
    3.8910   22.7720   37.8380 C   0  0  0  0  0  0  0  0  0  0  0  0
    2.6460   21.4490   39.5500 C   0  0  0  0  0  0  0  0  0  0  0  0
   -0.4430   15.6480   38.4150 C   0  0  0  0  0  0  0  0  0  0  0  0
    0.5810   21.3160   41.9400 C   0  0  0  0  0  0  0  0  0  0  0  0
   -1.9270   14.4320   39.9380 O   0  0  0  0  0  0  0  0  0  0  0  0
    2.1290   18.3050   39.1860 C   0  0  0  0  0  0  0  0  0  0  0  0
    0.1800   22.0900   41.1310 O   0  0  0  0  0  0  0  0  0  0  0  0
    2.5130   24.9590   33.5780 C   0  0  0  0  0  0  0  0  0  0  0  0
    0.8220   26.6020   32.7930 C   0  0  0  0  0  0  0  0  0  0  0  0
    3.3350   21.6640   38.2510 C   0  0  0  0  0  0  0  0  0  0  0  0
    1.5460   25.8630   34.0250 C   0  0  0  0  0  0  0  0  0  0  0  0
    5.4970   23.9900   35.4620 C   0  0  0  0  0  0  0  0  0  0  0  0
    1.7290   19.5490   39.2030 O   0  0  0  0  0  0  0  0  0  0  0  0
    0.2170   21.2960   43.1860 O   0  0  0  0  0  1  0  0  0  0  0  0
   -2.2010   13.1360   40.6830 N   0  0  0  0  0  0  0  0  0  0  0  0
    1.5150   27.0800   31.4050 S   0  0  0  0  0  0  0  0  0  0  0  0
   -1.0130   16.8310   36.4160 C   0  0  0  0  0  0  0  0  0  0  0  0
   -0.6710   14.2960   39.1740 C   0  0  0  0  0  0  0  0  0  0  0  0
    3.2080   24.1730   34.3020 C   0  0  0  0  0  0  0  0  0  0  0  0
   -1.5260   16.1440   37.6220 O   0  0  0  0  0  0  0  0  0  0  0  0
    2.6407   22.2410   36.2703 H   0  0  0  0  0  0  0  0  0  0  0  0
    2.5904   24.0209   36.9359 H   0  0  0  0  0  0  0  0  0  0  0  0
    0.0185   15.2776   35.3367 H   0  0  0  0  0  0  0  0  0  0  0  0
    1.0343   16.6817   35.7234 H   0  0  0  0  0  0  0  0  0  0  0  0
    3.0090   20.0250   40.4123 H   0  0  0  0  0  0  0  0  0  0  0  0
    0.7382   14.2869   37.2177 H   0  0  0  0  0  0  0  0  0  0  0  0
    1.6099   15.7607   37.7187 H   0  0  0  0  0  0  0  0  0  0  0  0
    5.7362   24.0138   37.6124 H   0  0  0  0  0  0  0  0  0  0  0  0
    7.0928   23.2461   36.7197 H   0  0  0  0  0  0  0  0  0  0  0  0
    6.9151   25.0336   36.7197 H   0  0  0  0  0  0  0  0  0  0  0  0
    1.0278   19.2637   41.5752 H   0  0  0  0  0  0  0  0  0  0  0  0
    2.4007   20.2536   42.2127 H   0  0  0  0  0  0  0  0  0  0  0  0
    4.9577   22.6092   37.6244 H   0  0  0  0  0  0  0  0  0  0  0  0
    3.8309   23.5641   38.5989 H   0  0  0  0  0  0  0  0  0  0  0  0
    2.6524   22.3548   40.1741 H   0  0  0  0  0  0  0  0  0  0  0  0
   -0.2397   16.3839   39.2069 H   0  0  0  0  0  0  0  0  0  0  0  0
    2.2454   17.9431   40.2182 H   0  0  0  0  0  0  0  0  0  0  0  0
    1.3841   17.6875   38.6627 H   0  0  0  0  0  0  0  0  0  0  0  0
    3.0942   18.2373   38.6627 H   0  0  0  0  0  0  0  0  0  0  0  0
    2.6925   24.9218   32.4934 H   0  0  0  0  0  0  0  0  0  0  0  0
   -0.2537   26.8043   32.9024 H   0  0  0  0  0  0  0  0  0  0  0  0
    3.3817   20.8031   37.5679 H   0  0  0  0  0  0  0  0  0  0  0  0
    0.7903   25.3188   34.6104 H   0  0  0  0  0  0  0  0  0  0  0  0
    2.0429   26.6251   34.6432 H   0  0  0  0  0  0  0  0  0  0  0  0
    5.9587   23.1962   34.8564 H   0  0  0  0  0  0  0  0  0  0  0  0
    5.4865   25.0571   35.1952 H   0  0  0  0  0  0  0  0  0  0  0  0
   -2.1644   13.3090   41.6977 H   0  0  0  0  0  0  0  0  0  0  0  0
   -3.1349   12.7843   40.4281 H   0  0  0  0  0  0  0  0  0  0  0  0
   -0.7717   17.8832   36.6274 H   0  0  0  0  0  0  0  0  0  0  0  0
   -1.7337   16.8679   35.5858 H   0  0  0  0  0  0  0  0  0  0  0  0
   -0.7554   13.4688   38.4538 H   0  0  0  0  0  0  0  0  0  0  0  0
    0.1729   14.0771   39.8448 H   0  0  0  0  0  0  0  0  0  0  0  0
  1  8  1  0
  2 24  1  0
  2  4  1  0
  3  9  1  0
  3  6  1  0
  4 10  1  0
  6 11  1  0
  7 19  1  0
  7  1  1  0
  8 17  1  0
 10 25  1  0
 11 21  1  0
 12 22  1  0
 13 20  1  0
 14 11  2  0
 15 18  1  0
 15 26  2  0
 16 18  1  0
 17  9  2  3
 19  5  1  0
 20  3  1  0
 23 16  2  0
 24 27  1  0
 25 12  1  0
 26  7  2  0
 27 10  1  0
  1 28  1  0
  1 29  1  0
  2 30  1  0
  2 31  1  0
  3 32  1  0
  4 33  1  0
  4 34  1  0
  5 35  1  0
  5 36  1  0
  5 37  1  0
  6 38  1  0
  6 39  1  0
  8 40  1  0
  8 41  1  0
  9 42  1  0
 10 43  1  0
 13 44  1  0
 13 45  1  0
 13 46  1  0
 15 47  1  0
 16 48  1  0
 17 49  1  0
 18 50  1  0
 18 51  1  0
 19 52  1  0
 19 53  1  0
 22 54  1  0
 22 55  1  0
 24 56  1  0
 24 57  1  0
 25 58  1  0
 25 59  1  0
M  CHG  1  21  -1
M  END
>  <mol_id>  (97) 
2026-09-18-6fnk-s0-n100-0098

>  <rmsd_to_ref>  (97) 


$$$$

     RDKit          3D

 43 43  0  0  0  0  0  0  0  0999 V2000
    4.7500   23.1480   36.7080 C   0  0  0  0  0  0  0  0  0  0  0  0
    2.5620   19.7300   39.0420 C   0  0  0  0  0  0  0  0  0  0  0  0
    2.7630   21.7110   37.3380 C   0  0  0  0  0  0  0  0  0  0  0  0
    0.0060   17.2520   37.0350 C   0  0  0  0  0  0  0  0  0  0  0  0
    4.2810   23.1980   35.1000 C   0  0  0  0  0  0  0  0  0  0  0  0
    1.4620   18.0640   41.0470 C   0  0  0  0  0  0  0  0  0  0  0  0
    1.5380   18.6070   38.6150 C   0  0  0  0  0  0  0  0  0  0  0  0
    2.2800   19.0870   41.4120 C   0  0  0  0  0  0  0  0  0  0  0  0
   -0.5300   17.4310   35.7590 O   0  0  0  0  0  0  0  0  0  0  0  0
    1.9430   18.0430   36.3280 O   0  0  0  0  0  0  0  0  0  0  0  0
    1.0480   18.1630   39.7580 C   0  0  0  0  0  0  0  0  0  0  0  0
    1.0480   18.3450   37.3260 C   0  0  0  0  0  0  0  0  0  0  0  0
    3.2570   20.4160   37.9740 C   0  0  0  0  0  0  0  0  0  0  0  0
    2.8490   19.9030   40.3940 C   0  0  0  0  0  0  0  0  0  0  0  0
    3.6360   23.8520   32.6580 C   0  0  0  0  0  0  0  0  0  0  0  0
    3.5060   23.6070   34.1530 C   0  0  0  0  0  0  0  0  0  0  0  0
    3.5100   22.8420   37.6300 C   0  0  0  0  0  0  0  0  0  0  0  0
    5.1813   24.1197   36.9906 H   0  0  0  0  0  0  0  0  0  0  0  0
    5.4977   22.3517   36.8380 H   0  0  0  0  0  0  0  0  0  0  0  0
    1.7333   21.8866   37.6827 H   0  0  0  0  0  0  0  0  0  0  0  0
    2.8478   21.5653   36.2510 H   0  0  0  0  0  0  0  0  0  0  0  0
    0.4878   16.2648   37.0925 H   0  0  0  0  0  0  0  0  0  0  0  0
   -0.8022   17.3166   37.7784 H   0  0  0  0  0  0  0  0  0  0  0  0
    5.2379   23.5294   34.6704 H   0  0  0  0  0  0  0  0  0  0  0  0
    3.5459   22.4101   35.3209 H   0  0  0  0  0  0  0  0  0  0  0  0
    2.0062   17.1161   41.1708 H   0  0  0  0  0  0  0  0  0  0  0  0
    0.5693   18.1051   41.6885 H   0  0  0  0  0  0  0  0  0  0  0  0
    2.4977   19.2801   42.4728 H   0  0  0  0  0  0  0  0  0  0  0  0
   -1.4662   17.7437   35.8352 H   0  0  0  0  0  0  0  0  0  0  0  0
    2.8002   17.7537   36.7299 H   0  0  0  0  0  0  0  0  0  0  0  0
    0.1218   18.7482   39.8562 H   0  0  0  0  0  0  0  0  0  0  0  0
    1.2678   17.1099   39.5286 H   0  0  0  0  0  0  0  0  0  0  0  0
    0.6100   19.3540   37.3222 H   0  0  0  0  0  0  0  0  0  0  0  0
    3.3351   19.6892   37.1520 H   0  0  0  0  0  0  0  0  0  0  0  0
    4.1582   20.7670   38.4980 H   0  0  0  0  0  0  0  0  0  0  0  0
    3.5442   20.7035   40.6871 H   0  0  0  0  0  0  0  0  0  0  0  0
    4.1453   24.8118   32.4867 H   0  0  0  0  0  0  0  0  0  0  0  0
    4.2218   23.0397   32.2029 H   0  0  0  0  0  0  0  0  0  0  0  0
    2.6350   23.8817   32.2029 H   0  0  0  0  0  0  0  0  0  0  0  0
    3.1731   24.5869   34.5257 H   0  0  0  0  0  0  0  0  0  0  0  0
    3.0001   22.6374   34.0348 H   0  0  0  0  0  0  0  0  0  0  0  0
    3.8824   22.7351   38.6595 H   0  0  0  0  0  0  0  0  0  0  0  0
    2.8220   23.6844   37.4659 H   0  0  0  0  0  0  0  0  0  0  0  0
  1 17  1  0
  2 14  1  0
  3 17  1  0
  3 13  1  0
  4 12  1  0
  5  1  1  0
  6  8  1  0
  7  2  2  0
  7 11  1  0
  9  4  1  0
 11  6  1  0
 12 10  1  0
 12  7  1  0
 13  2  1  0
 14  8  2  0
 15 16  1  0
 16  5  1  0
  1 18  1  0
  1 19  1  0
  3 20  1  0
  3 21  1  0
  4 22  1  0
  4 23  1  0
  5 24  1  0
  5 25  1  0
  6 26  1  0
  6 27  1  0
  8 28  1  0
  9 29  1  0
 10 30  1  0
 11 31  1  0
 11 32  1  0
 12 33  1  0
 13 34  1  0
 13 35  1  0
 14 36  1  0
 15 37  1  0
 15 38  1  0
 15 39  1  0
 16 40  1  0
 16 41  1  0
 17 42  1  0
 17 43  1  0
M  END
>  <mol_id>  (98) 
2026-09-18-6fnk-s0-n100-0099

>  <rmsd_to_ref>  (98) 


$$$$

     RDKit          3D

 64 65  0  0  0  0  0  0  0  0999 V2000
    1.8710   24.6520   33.5390 C   0  0  0  0  0  0  0  0  0  0  0  0
    6.6050   23.4700   36.2220 C   0  0  0  0  0  0  0  0  0  0  0  0
    1.1340   18.7770   42.5600 N   0  0  0  0  0  0  0  0  0  0  0  0
    0.8910   17.8770   39.0720 C   0  0  0  0  0  0  0  0  0  0  0  0
    0.0300   21.4040   43.0800 O   0  0  0  0  0  0  0  0  0  0  0  0
    1.3530   21.1350   42.8210 C   0  0  0  0  0  0  0  0  0  0  0  0
    0.0120   16.2190   37.7580 O   0  0  0  0  0  0  0  0  0  0  0  0
    5.0970   24.0730   35.0700 C   0  0  0  0  0  0  0  0  0  0  0  0
    0.2690   16.1290   40.5320 C   0  0  0  0  0  0  0  0  0  0  0  0
    0.6370   18.3000   41.4290 C   0  0  0  0  0  0  0  0  0  0  0  0
    2.7840   25.4230   31.5160 C   0  0  0  0  0  0  0  0  0  0  0  0
    0.0740   17.0670   41.5440 C   0  0  0  0  0  0  0  0  0  0  0  0
    1.3440   26.0940   33.3080 C   0  0  0  0  0  0  0  0  0  0  0  0
   -0.4250   16.9120   36.7390 C   0  0  0  0  0  0  0  0  0  0  0  0
    0.2490   16.6660   39.1320 C   0  0  0  0  0  0  0  0  0  0  0  0
   -0.5030   17.1830   43.3100 S   0  0  0  0  0  0  0  0  0  0  0  0
    3.7160   22.8670   36.7330 C   0  0  0  0  0  0  0  0  0  0  0  0
    2.9090   24.5410   32.7410 C   0  0  0  0  0  0  0  0  0  0  0  0
    3.8880   23.3930   32.6940 C   0  0  0  0  0  0  0  0  0  0  0  0
    4.1340   23.0270   35.2290 C   0  0  0  0  0  0  0  0  0  0  0  0
    5.7080   23.4120   37.2870 C   0  0  0  0  0  0  0  0  0  0  0  0
    1.7120   26.4330   31.9490 C   0  0  0  0  0  0  0  0  0  0  0  0
    1.0570   18.6810   40.2250 C   0  0  0  0  0  0  0  0  0  0  0  0
    0.6480   18.3290   43.8510 C   0  0  0  0  0  0  0  0  0  0  0  0
    6.3520   24.2250   34.9910 C   0  0  0  0  0  0  0  0  0  0  0  0
    2.0780   19.8540   42.5610 C   0  0  0  0  0  0  0  0  0  0  0  0
    3.6500   22.2470   34.0830 S   0  0  0  0  0  0  0  0  0  0  0  0
    2.1722   24.5131   34.5878 H   0  0  0  0  0  0  0  0  0  0  0  0
    1.1040   23.8917   33.3300 H   0  0  0  0  0  0  0  0  0  0  0  0
    7.5389   23.8766   36.6374 H   0  0  0  0  0  0  0  0  0  0  0  0
    6.5648   22.4352   35.8511 H   0  0  0  0  0  0  0  0  0  0  0  0
    1.2849   18.2305   38.1077 H   0  0  0  0  0  0  0  0  0  0  0  0
   -0.1153   21.4335   44.0588 H   0  0  0  0  0  0  0  0  0  0  0  0
    1.5710   21.7415   41.9296 H   0  0  0  0  0  0  0  0  0  0  0  0
    1.7141   21.2772   43.8503 H   0  0  0  0  0  0  0  0  0  0  0  0
    4.7601   24.5407   34.1331 H   0  0  0  0  0  0  0  0  0  0  0  0
    5.0818   24.3212   36.1415 H   0  0  0  0  0  0  0  0  0  0  0  0
    0.4276   15.0619   40.7466 H   0  0  0  0  0  0  0  0  0  0  0  0
    2.4556   24.8442   30.6401 H   0  0  0  0  0  0  0  0  0  0  0  0
    3.7319   25.8901   31.2106 H   0  0  0  0  0  0  0  0  0  0  0  0
    0.2512   26.1269   33.4289 H   0  0  0  0  0  0  0  0  0  0  0  0
    1.7705   26.8030   34.0329 H   0  0  0  0  0  0  0  0  0  0  0  0
   -0.9787   17.7900   37.1031 H   0  0  0  0  0  0  0  0  0  0  0  0
    0.4277   17.2436   36.1283 H   0  0  0  0  0  0  0  0  0  0  0  0
   -1.0917   16.2854   36.1283 H   0  0  0  0  0  0  0  0  0  0  0  0
    4.5467   23.1850   37.3802 H   0  0  0  0  0  0  0  0  0  0  0  0
    2.8331   23.4907   36.9365 H   0  0  0  0  0  0  0  0  0  0  0  0
    3.4752   21.8131   36.9365 H   0  0  0  0  0  0  0  0  0  0  0  0
    3.6417   24.8477   33.5020 H   0  0  0  0  0  0  0  0  0  0  0  0
    3.7480   22.8439   31.7512 H   0  0  0  0  0  0  0  0  0  0  0  0
    4.9047   23.8073   32.7627 H   0  0  0  0  0  0  0  0  0  0  0  0
    4.9470   22.3011   35.3777 H   0  0  0  0  0  0  0  0  0  0  0  0
    6.2629   23.4479   38.2361 H   0  0  0  0  0  0  0  0  0  0  0  0
    5.0186   24.2674   37.2327 H   0  0  0  0  0  0  0  0  0  0  0  0
    5.1345   22.4749   37.2327 H   0  0  0  0  0  0  0  0  0  0  0  0
    2.1166   27.4551   31.9098 H   0  0  0  0  0  0  0  0  0  0  0  0
    0.8387   26.3930   31.2814 H   0  0  0  0  0  0  0  0  0  0  0  0
    1.5520   19.6579   40.1220 H   0  0  0  0  0  0  0  0  0  0  0  0
    1.4424   17.8648   44.4539 H   0  0  0  0  0  0  0  0  0  0  0  0
    0.2604   19.1169   44.5136 H   0  0  0  0  0  0  0  0  0  0  0  0
    6.7921   23.7605   34.0963 H   0  0  0  0  0  0  0  0  0  0  0  0
    6.7553   25.2448   34.9055 H   0  0  0  0  0  0  0  0  0  0  0  0
    2.8270   19.6874   43.3492 H   0  0  0  0  0  0  0  0  0  0  0  0
    2.5854   19.9049   41.5864 H   0  0  0  0  0  0  0  0  0  0  0  0
  2 21  1  0
  3 26  1  0
  3 24  1  0
  4 15  2  0
  4 23  1  0
  6  5  1  0
  7 15  1  0
  8 20  1  0
  9 12  2  0
 10 12  1  0
 10  3  1  0
 11 22  1  0
 11 18  1  0
 12 16  1  0
 13  1  1  0
 14  7  1  0
 15  9  1  0
 16 24  1  0
 18  1  1  0
 19 18  1  0
 19 27  1  0
 20 17  1  0
 22 13  1  0
 23 10  2  0
 25  8  1  0
 25  2  1  0
 26  6  1  0
 27 20  1  0
  1 28  1  0
  1 29  1  0
  2 30  1  0
  2 31  1  0
  4 32  1  0
  5 33  1  0
  6 34  1  0
  6 35  1  0
  8 36  1  0
  8 37  1  0
  9 38  1  0
 11 39  1  0
 11 40  1  0
 13 41  1  0
 13 42  1  0
 14 43  1  0
 14 44  1  0
 14 45  1  0
 17 46  1  0
 17 47  1  0
 17 48  1  0
 18 49  1  0
 19 50  1  0
 19 51  1  0
 20 52  1  0
 21 53  1  0
 21 54  1  0
 21 55  1  0
 22 56  1  0
 22 57  1  0
 23 58  1  0
 24 59  1  0
 24 60  1  0
 25 61  1  0
 25 62  1  0
 26 63  1  0
 26 64  1  0
M  END
>  <mol_id>  (99) 
2026-09-18-6fnk-s0-n100-0100

>  <rmsd_to_ref>  (99) 


$$$$
