6fnk.A
     RDKit          3D

 27 29  0  0  0  0  0  0  0  0999 V2000
    2.9034   16.1161   40.7342 C   0  0  0  0  0  0  0  0  0  0  0  0
    3.3991   14.8730   40.3406 C   0  0  0  0  0  0  0  0  0  0  0  0
    3.2111   13.7637   41.1521 C   0  0  0  0  0  0  0  0  0  0  0  0
    2.5220   13.8922   42.3612 N   0  0  0  0  0  0  0  0  0  0  0  0
    2.0259   15.1442   42.7552 C   0  0  0  0  0  0  0  0  0  0  0  0
    2.2158   16.2597   41.9417 C   0  0  0  0  0  0  0  0  0  0  0  0
    1.7222   17.5068   42.3382 C   0  0  0  0  0  0  0  0  0  0  0  0
    2.0408   18.6212   41.6654 N   0  0  0  0  0  0  0  0  0  0  0  0
    0.9145   17.5957   43.3997 N   0  0  0  0  0  0  0  0  0  0  0  0
    0.4272   18.7780   43.8163 C   0  0  0  0  0  0  0  0  0  0  0  0
   -0.3708   19.1111   44.8422 N   0  0  0  0  0  0  0  0  0  0  0  0
   -0.9468   18.1844   45.8212 C   0  0  0  0  0  0  0  0  0  0  0  0
   -0.5738   20.3259   44.8557 N   0  0  0  0  0  0  0  0  0  0  0  0
    0.0681   20.8526   43.7999 C   0  0  0  0  0  0  0  0  0  0  0  0
    0.7283   19.8866   43.1473 C   0  0  0  0  0  0  0  0  0  0  0  0
    1.5428   19.8079   42.0593 C   0  0  0  0  0  0  0  0  0  0  0  0
    1.8732   20.9182   41.3561 N   0  0  0  0  0  0  0  0  0  0  0  0
    3.0555   16.9924   40.0870 H   0  0  0  0  0  0  0  0  0  0  0  0
    3.9387   14.7724   39.3873 H   0  0  0  0  0  0  0  0  0  0  0  0
    3.6041   12.7836   40.8441 H   0  0  0  0  0  0  0  0  0  0  0  0
    1.4860   15.2454   43.7082 H   0  0  0  0  0  0  0  0  0  0  0  0
   -0.7252   18.5408   46.8380 H   0  0  0  0  0  0  0  0  0  0  0  0
   -2.0365   18.1326   45.6801 H   0  0  0  0  0  0  0  0  0  0  0  0
   -0.5109   17.1844   45.6801 H   0  0  0  0  0  0  0  0  0  0  0  0
    0.0539   21.9149   43.5146 H   0  0  0  0  0  0  0  0  0  0  0  0
    1.5034   21.8366   41.6400 H   0  0  0  0  0  0  0  0  0  0  0  0
    2.4942   20.8437   40.5377 H   0  0  0  0  0  0  0  0  0  0  0  0
  1  2  2  0
  1  6  1  0
  2  3  1  0
  3  4  2  0
  4  5  1  0
  5  6  2  0
  6  7  1  0
  7  8  2  0
  7  9  1  0
  8 16  1  0
  9 10  2  0
 10 11  1  0
 10 15  1  0
 11 12  1  0
 11 13  1  0
 13 14  2  0
 14 15  1  0
 15 16  2  0
 16 17  1  0
  1 18  1  0
  2 19  1  0
  3 20  1  0
  5 21  1  0
 12 22  1  0
 12 23  1  0
 12 24  1  0
 14 25  1  0
 17 26  1  0
 17 27  1  0
M  END
>  <mol_id>  (1) 
2026-09-18-6fnk-s0-n100-r1-0001

>  <rmsd_to_ref>  (1) 
0.0

>  <pose_kind>  (1) 
native

$$$$
6fnk.A
     RDKit          3D

 27 29  0  0  0  0  0  0  0  0999 V2000
    2.8504   16.1659   40.4985 C   0  0  0  0  0  0  0  0  0  0  0  0
    3.1384   14.9185   39.9837 C   0  0  0  0  0  0  0  0  0  0  0  0
    2.6817   13.7873   40.6221 C   0  0  0  0  0  0  0  0  0  0  0  0
    1.9414   13.8682   41.7665 N   0  0  0  0  0  0  0  0  0  0  0  0
    1.6453   15.0850   42.2921 C   0  0  0  0  0  0  0  0  0  0  0  0
    2.1005   16.2204   41.6563 C   0  0  0  0  0  0  0  0  0  0  0  0
    1.7863   17.5462   42.2160 C   0  0  0  0  0  0  0  0  0  0  0  0
    2.2258   18.6842   41.6047 N   0  0  0  0  0  0  0  0  0  0  0  0
    1.0533   17.6329   43.3496 N   0  0  0  0  0  0  0  0  0  0  0  0
    0.7443   18.8066   43.8926 C   0  0  0  0  0  0  0  0  0  0  0  0
    0.0528   19.1865   44.9790 N   0  0  0  0  0  0  0  0  0  0  0  0
   -0.6043   18.3007   45.9398 C   0  0  0  0  0  0  0  0  0  0  0  0
    0.0561   20.5223   45.0504 N   0  0  0  0  0  0  0  0  0  0  0  0
    0.7486   21.0277   44.0133 C   0  0  0  0  0  0  0  0  0  0  0  0
    1.1925   19.9705   43.2693 C   0  0  0  0  0  0  0  0  0  0  0  0
    1.9415   19.8983   42.1120 C   0  0  0  0  0  0  0  0  0  0  0  0
    2.3920   21.0971   41.4872 N   0  0  0  0  0  0  0  0  0  0  0  0
    3.2199   17.0317   39.9793 H   0  0  0  0  0  0  0  0  0  0  0  0
    3.7220   14.7808   39.0772 H   0  0  0  0  0  0  0  0  0  0  0  0
    2.8967   12.7952   40.2343 H   0  0  0  0  0  0  0  0  0  0  0  0
    1.0505   15.1187   43.2098 H   0  0  0  0  0  0  0  0  0  0  0  0
   -0.6178   18.7280   46.9667 H   0  0  0  0  0  0  0  0  0  0  0  0
   -0.1032   17.3179   46.0156 H   0  0  0  0  0  0  0  0  0  0  0  0
   -1.6623   18.0916   45.6250 H   0  0  0  0  0  0  0  0  0  0  0  0
    0.8895   22.0873   43.8571 H   0  0  0  0  0  0  0  0  0  0  0  0
    3.3309   21.4977   41.7195 H   0  0  0  0  0  0  0  0  0  0  0  0
    1.7890   21.5675   40.8057 H   0  0  0  0  0  0  0  0  0  0  0  0
  1  2  2  0
  1  6  1  0
  2  3  1  0
  3  4  2  0
  4  5  1  0
  5  6  2  0
  6  7  1  0
  7  8  2  0
  7  9  1  0
  8 16  1  0
  9 10  2  0
 10 11  1  0
 10 15  1  0
 11 12  1  0
 11 13  1  0
 13 14  2  0
 14 15  1  0
 15 16  2  0
 16 17  1  0
  1 18  1  0
  2 19  1  0
  3 20  1  0
  5 21  1  0
 12 22  1  0
 12 23  1  0
 12 24  1  0
 14 25  1  0
 17 26  1  0
 17 27  1  0
M  END
>  <mol_id>  (2) 
2026-09-18-6fnk-s0-n100-r1-0002

>  <rmsd_to_ref>  (2) 
0.5000000000028231

>  <pose_kind>  (2) 
conformer

$$$$
6fnk.A
     RDKit          3D

 27 29  0  0  0  0  0  0  0  0999 V2000
    2.8218   16.6159   40.2755 C   0  0  0  0  0  0  0  0  0  0  0  0
    3.3575   15.4774   39.6732 C   0  0  0  0  0  0  0  0  0  0  0  0
    3.3143   14.2586   40.3342 C   0  0  0  0  0  0  0  0  0  0  0  0
    2.7308   14.1721   41.6013 N   0  0  0  0  0  0  0  0  0  0  0  0
    2.1942   15.3193   42.2052 C   0  0  0  0  0  0  0  0  0  0  0  0
    2.2387   16.5447   41.5429 C   0  0  0  0  0  0  0  0  0  0  0  0
    1.7050   17.6869   42.1484 C   0  0  0  0  0  0  0  0  0  0  0  0
    1.8902   18.9020   41.6143 N   0  0  0  0  0  0  0  0  0  0  0  0
    0.9928   17.5721   43.2738 N   0  0  0  0  0  0  0  0  0  0  0  0
    0.4713   18.6481   43.8896 C   0  0  0  0  0  0  0  0  0  0  0  0
   -0.2500   18.7801   45.0133 N   0  0  0  0  0  0  0  0  0  0  0  0
   -0.6751   17.6901   45.8966 C   0  0  0  0  0  0  0  0  0  0  0  0
   -0.5274   19.9634   45.2128 N   0  0  0  0  0  0  0  0  0  0  0  0
   -0.0184   20.6733   44.1924 C   0  0  0  0  0  0  0  0  0  0  0  0
    0.6399   19.8556   43.3599 C   0  0  0  0  0  0  0  0  0  0  0  0
    1.3558   19.9846   42.2092 C   0  0  0  0  0  0  0  0  0  0  0  0
    1.5502   21.2006   41.6436 N   0  0  0  0  0  0  0  0  0  0  0  0
    2.8589   17.5799   39.7469 H   0  0  0  0  0  0  0  0  0  0  0  0
    3.8139   15.5460   38.6747 H   0  0  0  0  0  0  0  0  0  0  0  0
    3.7391   13.3607   39.8615 H   0  0  0  0  0  0  0  0  0  0  0  0
    1.7374   15.2513   43.2036 H   0  0  0  0  0  0  0  0  0  0  0  0
   -0.3854   17.9230   46.9319 H   0  0  0  0  0  0  0  0  0  0  0  0
   -1.7676   17.5760   45.8384 H   0  0  0  0  0  0  0  0  0  0  0  0
   -0.1913   16.7536   45.5823 H   0  0  0  0  0  0  0  0  0  0  0  0
   -0.1256   21.7601   44.0605 H   0  0  0  0  0  0  0  0  0  0  0  0
    1.1502   22.0424   42.0821 H   0  0  0  0  0  0  0  0  0  0  0  0
    2.0980   21.2831   40.7753 H   0  0  0  0  0  0  0  0  0  0  0  0
  1  2  2  0
  1  6  1  0
  2  3  1  0
  3  4  2  0
  4  5  1  0
  5  6  2  0
  6  7  1  0
  7  8  2  0
  7  9  1  0
  8 16  1  0
  9 10  2  0
 10 11  1  0
 10 15  1  0
 11 12  1  0
 11 13  1  0
 13 14  2  0
 14 15  1  0
 15 16  2  0
 16 17  1  0
  1 18  1  0
  2 19  1  0
  3 20  1  0
  5 21  1  0
 12 22  1  0
 12 23  1  0
 12 24  1  0
 14 25  1  0
 17 26  1  0
 17 27  1  0
M  END
>  <mol_id>  (3) 
2026-09-18-6fnk-s0-n100-r1-0003

>  <rmsd_to_ref>  (3) 
0.5459183673475644

>  <pose_kind>  (3) 
rigid

$$$$
6fnk.A
     RDKit          3D

 27 29  0  0  0  0  0  0  0  0999 V2000
    3.4832   16.2543   40.8983 C   0  0  0  0  0  0  0  0  0  0  0  0
    4.1976   15.0942   40.6411 C   0  0  0  0  0  0  0  0  0  0  0  0
    3.9474   13.9592   41.4092 C   0  0  0  0  0  0  0  0  0  0  0  0
    3.0155   13.9929   42.3960 N   0  0  0  0  0  0  0  0  0  0  0  0
    2.3117   15.1224   42.6555 C   0  0  0  0  0  0  0  0  0  0  0  0
    2.5403   16.2705   41.9046 C   0  0  0  0  0  0  0  0  0  0  0  0
    1.7977   17.4951   42.1639 C   0  0  0  0  0  0  0  0  0  0  0  0
    2.0004   18.6243   41.4492 N   0  0  0  0  0  0  0  0  0  0  0  0
    0.8786   17.5008   43.1491 N   0  0  0  0  0  0  0  0  0  0  0  0
    0.1331   18.5695   43.4801 C   0  0  0  0  0  0  0  0  0  0  0  0
   -0.8212   18.7971   44.4056 N   0  0  0  0  0  0  0  0  0  0  0  0
   -1.2709   17.7889   45.3324 C   0  0  0  0  0  0  0  0  0  0  0  0
   -1.2294   20.0697   44.2843 N   0  0  0  0  0  0  0  0  0  0  0  0
   -0.5358   20.6491   43.2839 C   0  0  0  0  0  0  0  0  0  0  0  0
    0.3424   19.7273   42.7456 C   0  0  0  0  0  0  0  0  0  0  0  0
    1.2832   19.7390   41.7294 C   0  0  0  0  0  0  0  0  0  0  0  0
    1.4872   20.9441   40.9799 N   0  0  0  0  0  0  0  0  0  0  0  0
    3.7119   17.1083   40.2768 H   0  0  0  0  0  0  0  0  0  0  0  0
    4.9437   15.0363   39.8646 H   0  0  0  0  0  0  0  0  0  0  0  0
    4.5034   13.0524   41.2107 H   0  0  0  0  0  0  0  0  0  0  0  0
    1.5650   15.1124   43.4623 H   0  0  0  0  0  0  0  0  0  0  0  0
   -2.2435   18.0706   45.7776 H   0  0  0  0  0  0  0  0  0  0  0  0
   -1.3515   16.7846   44.8500 H   0  0  0  0  0  0  0  0  0  0  0  0
   -0.5495   17.6861   46.1879 H   0  0  0  0  0  0  0  0  0  0  0  0
   -0.6116   21.6607   42.9202 H   0  0  0  0  0  0  0  0  0  0  0  0
    2.0079   20.8732   40.0814 H   0  0  0  0  0  0  0  0  0  0  0  0
    1.1174   21.8390   41.3456 H   0  0  0  0  0  0  0  0  0  0  0  0
  1  2  2  0
  1  6  1  0
  2  3  1  0
  3  4  2  0
  4  5  1  0
  5  6  2  0
  6  7  1  0
  7  8  2  0
  7  9  1  0
  8 16  1  0
  9 10  2  0
 10 11  1  0
 10 15  1  0
 11 12  1  0
 11 13  1  0
 13 14  2  0
 14 15  1  0
 15 16  2  0
 16 17  1  0
  1 18  1  0
  2 19  1  0
  3 20  1  0
  5 21  1  0
 12 22  1  0
 12 23  1  0
 12 24  1  0
 14 25  1  0
 17 26  1  0
 17 27  1  0
M  END
>  <mol_id>  (4) 
2026-09-18-6fnk-s0-n100-r1-0004

>  <rmsd_to_ref>  (4) 
0.5918367346947114

>  <pose_kind>  (4) 
conformer

$$$$
6fnk.A
     RDKit          3D

 27 29  0  0  0  0  0  0  0  0999 V2000
    2.6984   15.7159   40.8202 C   0  0  0  0  0  0  0  0  0  0  0  0
    3.0008   14.3713   40.6040 C   0  0  0  0  0  0  0  0  0  0  0  0
    2.6640   13.4233   41.5591 C   0  0  0  0  0  0  0  0  0  0  0  0
    2.0188   13.8159   42.7350 N   0  0  0  0  0  0  0  0  0  0  0  0
    1.7173   15.1693   42.9504 C   0  0  0  0  0  0  0  0  0  0  0  0
    2.0569   16.1228   41.9925 C   0  0  0  0  0  0  0  0  0  0  0  0
    1.7572   17.4714   42.2110 C   0  0  0  0  0  0  0  0  0  0  0  0
    2.2259   18.4242   41.3934 N   0  0  0  0  0  0  0  0  0  0  0  0
    0.9867   17.8225   43.2455 N   0  0  0  0  0  0  0  0  0  0  0  0
    0.6841   19.1093   43.4929 C   0  0  0  0  0  0  0  0  0  0  0  0
   -0.0415   19.6934   44.4586 N   0  0  0  0  0  0  0  0  0  0  0  0
   -0.7329   19.0042   45.5523 C   0  0  0  0  0  0  0  0  0  0  0  0
   -0.0641   20.9151   44.3039 N   0  0  0  0  0  0  0  0  0  0  0  0
    0.6327   21.1923   43.1895 C   0  0  0  0  0  0  0  0  0  0  0  0
    1.1347   20.0596   42.6797 C   0  0  0  0  0  0  0  0  0  0  0  0
    1.9130   19.7138   41.6176 C   0  0  0  0  0  0  0  0  0  0  0  0
    2.3923   20.6567   40.7705 N   0  0  0  0  0  0  0  0  0  0  0  0
    2.9679   16.4634   40.0596 H   0  0  0  0  0  0  0  0  0  0  0  0
    3.5060   14.0630   39.6767 H   0  0  0  0  0  0  0  0  0  0  0  0
    2.9047   12.3632   41.3910 H   0  0  0  0  0  0  0  0  0  0  0  0
    1.2120   15.4782   43.8773 H   0  0  0  0  0  0  0  0  0  0  0  0
   -0.4467   19.4598   46.5117 H   0  0  0  0  0  0  0  0  0  0  0  0
   -1.8203   19.0946   45.4133 H   0  0  0  0  0  0  0  0  0  0  0  0
   -0.4503   17.9411   45.5525 H   0  0  0  0  0  0  0  0  0  0  0  0
    0.7702   22.1960   42.7610 H   0  0  0  0  0  0  0  0  0  0  0  0
    2.1652   21.6497   40.9233 H   0  0  0  0  0  0  0  0  0  0  0  0
    2.9837   20.3804   39.9737 H   0  0  0  0  0  0  0  0  0  0  0  0
  1  2  2  0
  1  6  1  0
  2  3  1  0
  3  4  2  0
  4  5  1  0
  5  6  2  0
  6  7  1  0
  7  8  2  0
  7  9  1  0
  8 16  1  0
  9 10  2  0
 10 11  1  0
 10 15  1  0
 11 12  1  0
 11 13  1  0
 13 14  2  0
 14 15  1  0
 15 16  2  0
 16 17  1  0
  1 18  1  0
  2 19  1  0
  3 20  1  0
  5 21  1  0
 12 22  1  0
 12 23  1  0
 12 24  1  0
 14 25  1  0
 17 26  1  0
 17 27  1  0
M  END
>  <mol_id>  (5) 
2026-09-18-6fnk-s0-n100-r1-0005

>  <rmsd_to_ref>  (5) 
0.6377551020482018

>  <pose_kind>  (5) 
rigid

$$$$
6fnk.A
     RDKit          3D

 27 29  0  0  0  0  0  0  0  0999 V2000
    3.5500   16.3947   41.2211 C   0  0  0  0  0  0  0  0  0  0  0  0
    4.2341   15.1836   41.0615 C   0  0  0  0  0  0  0  0  0  0  0  0
    3.8536   14.1221   41.8443 C   0  0  0  0  0  0  0  0  0  0  0  0
    2.8613   14.1849   42.7535 N   0  0  0  0  0  0  0  0  0  0  0  0
    2.1856   15.3450   42.9256 C   0  0  0  0  0  0  0  0  0  0  0  0
    2.5399   16.4338   42.1564 C   0  0  0  0  0  0  0  0  0  0  0  0
    1.8095   17.7070   42.3349 C   0  0  0  0  0  0  0  0  0  0  0  0
    2.1209   18.7954   41.6062 N   0  0  0  0  0  0  0  0  0  0  0  0
    0.8135   17.7888   43.2400 N   0  0  0  0  0  0  0  0  0  0  0  0
    0.1161   18.9220   43.4434 C   0  0  0  0  0  0  0  0  0  0  0  0
   -0.8968   19.2732   44.2568 N   0  0  0  0  0  0  0  0  0  0  0  0
   -1.4975   18.3293   45.2000 C   0  0  0  0  0  0  0  0  0  0  0  0
   -1.2294   20.5469   44.0604 N   0  0  0  0  0  0  0  0  0  0  0  0
   -0.4223   21.0552   43.0971 C   0  0  0  0  0  0  0  0  0  0  0  0
    0.4221   20.0439   42.7064 C   0  0  0  0  0  0  0  0  0  0  0  0
    1.4347   19.9577   41.7874 C   0  0  0  0  0  0  0  0  0  0  0  0
    1.8126   21.0771   40.9837 N   0  0  0  0  0  0  0  0  0  0  0  0
    3.8539   17.2116   40.6082 H   0  0  0  0  0  0  0  0  0  0  0  0
    5.0348   15.1198   40.3331 H   0  0  0  0  0  0  0  0  0  0  0  0
    4.3557   13.1559   41.7580 H   0  0  0  0  0  0  0  0  0  0  0  0
    1.3953   15.3599   43.6637 H   0  0  0  0  0  0  0  0  0  0  0  0
   -0.8063   18.1680   46.0361 H   0  0  0  0  0  0  0  0  0  0  0  0
   -2.5182   18.6308   45.4839 H   0  0  0  0  0  0  0  0  0  0  0  0
   -1.5788   17.3418   44.6802 H   0  0  0  0  0  0  0  0  0  0  0  0
   -0.4019   22.0447   42.6820 H   0  0  0  0  0  0  0  0  0  0  0  0
    2.4094   21.8063   41.4375 H   0  0  0  0  0  0  0  0  0  0  0  0
    1.5156   21.1798   39.9861 H   0  0  0  0  0  0  0  0  0  0  0  0
  1  2  2  0
  1  6  1  0
  2  3  1  0
  3  4  2  0
  4  5  1  0
  5  6  2  0
  6  7  1  0
  7  8  2  0
  7  9  1  0
  8 16  1  0
  9 10  2  0
 10 11  1  0
 10 15  1  0
 11 12  1  0
 11 13  1  0
 13 14  2  0
 14 15  1  0
 15 16  2  0
 16 17  1  0
  1 18  1  0
  2 19  1  0
  3 20  1  0
  5 21  1  0
 12 22  1  0
 12 23  1  0
 12 24  1  0
 14 25  1  0
 17 26  1  0
 17 27  1  0
M  END
>  <mol_id>  (6) 
2026-09-18-6fnk-s0-n100-r1-0006

>  <rmsd_to_ref>  (6) 
0.6836734693923247

>  <pose_kind>  (6) 
conformer

$$$$
6fnk.A
     RDKit          3D

 27 29  0  0  0  0  0  0  0  0999 V2000
    2.4196   16.0037   40.0603 C   0  0  0  0  0  0  0  0  0  0  0  0
    2.8954   14.7876   39.5696 C   0  0  0  0  0  0  0  0  0  0  0  0
    3.1524   13.7410   40.4430 C   0  0  0  0  0  0  0  0  0  0  0  0
    2.9307   13.9049   41.8131 N   0  0  0  0  0  0  0  0  0  0  0  0
    2.4535   15.1297   42.3040 C   0  0  0  0  0  0  0  0  0  0  0  0
    2.1968   16.1826   41.4277 C   0  0  0  0  0  0  0  0  0  0  0  0
    1.7235   17.4030   41.9202 C   0  0  0  0  0  0  0  0  0  0  0  0
    1.6363   18.4803   41.1278 N   0  0  0  0  0  0  0  0  0  0  0  0
    1.3443   17.5026   43.1983 N   0  0  0  0  0  0  0  0  0  0  0  0
    0.8922   18.6612   43.7101 C   0  0  0  0  0  0  0  0  0  0  0  0
    0.4783   19.0006   44.9404 N   0  0  0  0  0  0  0  0  0  0  0  0
    0.4129   18.1101   46.1031 C   0  0  0  0  0  0  0  0  0  0  0  0
    0.1410   20.1848   44.9721 N   0  0  0  0  0  0  0  0  0  0  0  0
    0.2906   20.6789   43.7321 C   0  0  0  0  0  0  0  0  0  0  0  0
    0.7909   19.7313   42.9279 C   0  0  0  0  0  0  0  0  0  0  0  0
    1.1656   19.6402   41.6222 C   0  0  0  0  0  0  0  0  0  0  0  0
    1.0790   20.7119   40.7974 N   0  0  0  0  0  0  0  0  0  0  0  0
    2.2178   16.8303   39.3633 H   0  0  0  0  0  0  0  0  0  0  0  0
    3.0667   14.6588   38.4907 H   0  0  0  0  0  0  0  0  0  0  0  0
    3.5305   12.7826   40.0575 H   0  0  0  0  0  0  0  0  0  0  0  0
    2.2817   15.2592   43.3828 H   0  0  0  0  0  0  0  0  0  0  0  0
    0.9361   18.5757   46.9514 H   0  0  0  0  0  0  0  0  0  0  0  0
   -0.6392   17.9354   46.3725 H   0  0  0  0  0  0  0  0  0  0  0  0
    0.8928   17.1512   45.8580 H   0  0  0  0  0  0  0  0  0  0  0  0
    0.0406   21.7048   43.4239 H   0  0  0  0  0  0  0  0  0  0  0  0
    0.7216   21.6093   41.1549 H   0  0  0  0  0  0  0  0  0  0  0  0
    1.3705   20.6290   39.8130 H   0  0  0  0  0  0  0  0  0  0  0  0
  1  2  2  0
  1  6  1  0
  2  3  1  0
  3  4  2  0
  4  5  1  0
  5  6  2  0
  6  7  1  0
  7  8  2  0
  7  9  1  0
  8 16  1  0
  9 10  2  0
 10 11  1  0
 10 15  1  0
 11 12  1  0
 11 13  1  0
 13 14  2  0
 14 15  1  0
 15 16  2  0
 16 17  1  0
  1 18  1  0
  2 19  1  0
  3 20  1  0
  5 21  1  0
 12 22  1  0
 12 23  1  0
 12 24  1  0
 14 25  1  0
 17 26  1  0
 17 27  1  0
M  END
>  <mol_id>  (7) 
2026-09-18-6fnk-s0-n100-r1-0007

>  <rmsd_to_ref>  (7) 
0.7295918367397356

>  <pose_kind>  (7) 
rigid

$$$$
6fnk.A
     RDKit          3D

 27 29  0  0  0  0  0  0  0  0999 V2000
    2.3177   15.7933   40.4889 C   0  0  0  0  0  0  0  0  0  0  0  0
    2.4359   14.4621   40.0735 C   0  0  0  0  0  0  0  0  0  0  0  0
    1.8362   13.4475   40.8287 C   0  0  0  0  0  0  0  0  0  0  0  0
    1.1541   13.7645   41.9440 N   0  0  0  0  0  0  0  0  0  0  0  0
    1.0170   15.0345   42.3782 C   0  0  0  0  0  0  0  0  0  0  0  0
    1.6044   16.0658   41.6451 C   0  0  0  0  0  0  0  0  0  0  0  0
    1.4848   17.4417   42.0704 C   0  0  0  0  0  0  0  0  0  0  0  0
    2.0176   18.4787   41.4230 N   0  0  0  0  0  0  0  0  0  0  0  0
    0.7869   17.7215   43.2038 N   0  0  0  0  0  0  0  0  0  0  0  0
    0.6168   18.9637   43.6845 C   0  0  0  0  0  0  0  0  0  0  0  0
   -0.0406   19.4076   44.7834 N   0  0  0  0  0  0  0  0  0  0  0  0
   -0.7366   18.5255   45.7114 C   0  0  0  0  0  0  0  0  0  0  0  0
    0.0914   20.7066   44.8045 N   0  0  0  0  0  0  0  0  0  0  0  0
    0.8221   21.1450   43.7452 C   0  0  0  0  0  0  0  0  0  0  0  0
    1.1620   20.0188   43.0209 C   0  0  0  0  0  0  0  0  0  0  0  0
    1.8763   19.7624   41.8661 C   0  0  0  0  0  0  0  0  0  0  0  0
    2.4415   20.8552   41.1780 N   0  0  0  0  0  0  0  0  0  0  0  0
    2.7903   16.5494   39.8861 H   0  0  0  0  0  0  0  0  0  0  0  0
    2.9945   14.2301   39.1649 H   0  0  0  0  0  0  0  0  0  0  0  0
    1.9583   12.4369   40.4630 H   0  0  0  0  0  0  0  0  0  0  0  0
    0.4524   15.2350   43.2907 H   0  0  0  0  0  0  0  0  0  0  0  0
   -1.2569   19.0939   46.4800 H   0  0  0  0  0  0  0  0  0  0  0  0
   -0.0522   17.7803   46.1682 H   0  0  0  0  0  0  0  0  0  0  0  0
   -1.4955   17.9027   45.1540 H   0  0  0  0  0  0  0  0  0  0  0  0
    1.0998   22.1626   43.4908 H   0  0  0  0  0  0  0  0  0  0  0  0
    2.3533   21.0247   40.1502 H   0  0  0  0  0  0  0  0  0  0  0  0
    2.9967   21.5642   41.7180 H   0  0  0  0  0  0  0  0  0  0  0  0
  1  2  2  0
  1  6  1  0
  2  3  1  0
  3  4  2  0
  4  5  1  0
  5  6  2  0
  6  7  1  0
  7  8  2  0
  7  9  1  0
  8 16  1  0
  9 10  2  0
 10 11  1  0
 10 15  1  0
 11 12  1  0
 11 13  1  0
 13 14  2  0
 14 15  1  0
 15 16  2  0
 16 17  1  0
  1 18  1  0
  2 19  1  0
  3 20  1  0
  5 21  1  0
 12 22  1  0
 12 23  1  0
 12 24  1  0
 14 25  1  0
 17 26  1  0
 17 27  1  0
M  END
>  <mol_id>  (8) 
2026-09-18-6fnk-s0-n100-r1-0008

>  <rmsd_to_ref>  (8) 
0.775510204084676

>  <pose_kind>  (8) 
conformer

$$$$
6fnk.A
     RDKit          3D

 27 29  0  0  0  0  0  0  0  0999 V2000
    2.3626   15.8864   41.2167 C   0  0  0  0  0  0  0  0  0  0  0  0
    2.9147   14.6159   41.0521 C   0  0  0  0  0  0  0  0  0  0  0  0
    3.1185   13.8009   42.1560 C   0  0  0  0  0  0  0  0  0  0  0  0
    2.7669   14.2522   43.4312 N   0  0  0  0  0  0  0  0  0  0  0  0
    2.2133   15.5312   43.5938 C   0  0  0  0  0  0  0  0  0  0  0  0
    2.0098   16.3516   42.4858 C   0  0  0  0  0  0  0  0  0  0  0  0
    1.4600   17.6269   42.6512 C   0  0  0  0  0  0  0  0  0  0  0  0
    1.4169   18.4976   41.6333 N   0  0  0  0  0  0  0  0  0  0  0  0
    0.9619   17.9878   43.8381 N   0  0  0  0  0  0  0  0  0  0  0  0
    0.4331   19.2081   44.0380 C   0  0  0  0  0  0  0  0  0  0  0  0
   -0.1017   19.7905   45.1220 N   0  0  0  0  0  0  0  0  0  0  0  0
   -0.2496   19.1762   46.4448 C   0  0  0  0  0  0  0  0  0  0  0  0
   -0.4726   20.9353   44.8595 N   0  0  0  0  0  0  0  0  0  0  0  0
   -0.2227   21.1503   43.5574 C   0  0  0  0  0  0  0  0  0  0  0  0
    0.3752   20.0734   43.0304 C   0  0  0  0  0  0  0  0  0  0  0  0
    0.8711   19.7145   41.8144 C   0  0  0  0  0  0  0  0  0  0  0  0
    0.8317   20.5727   40.7664 N   0  0  0  0  0  0  0  0  0  0  0  0
    2.2035   16.5286   40.3379 H   0  0  0  0  0  0  0  0  0  0  0  0
    3.1883   14.2606   40.0477 H   0  0  0  0  0  0  0  0  0  0  0  0
    3.5565   12.8000   42.0278 H   0  0  0  0  0  0  0  0  0  0  0  0
    1.9393   15.8870   44.5979 H   0  0  0  0  0  0  0  0  0  0  0  0
    0.1802   19.8414   47.2081 H   0  0  0  0  0  0  0  0  0  0  0  0
   -1.3169   19.0157   46.6572 H   0  0  0  0  0  0  0  0  0  0  0  0
    0.2768   18.2105   46.4615 H   0  0  0  0  0  0  0  0  0  0  0  0
   -0.4712   22.0701   43.0076 H   0  0  0  0  0  0  0  0  0  0  0  0
    0.4185   21.5090   40.8828 H   0  0  0  0  0  0  0  0  0  0  0  0
    1.2149   20.2887   39.8535 H   0  0  0  0  0  0  0  0  0  0  0  0
  1  2  2  0
  1  6  1  0
  2  3  1  0
  3  4  2  0
  4  5  1  0
  5  6  2  0
  6  7  1  0
  7  8  2  0
  7  9  1  0
  8 16  1  0
  9 10  2  0
 10 11  1  0
 10 15  1  0
 11 12  1  0
 11 13  1  0
 13 14  2  0
 14 15  1  0
 15 16  2  0
 16 17  1  0
  1 18  1  0
  2 19  1  0
  3 20  1  0
  5 21  1  0
 12 22  1  0
 12 23  1  0
 12 24  1  0
 14 25  1  0
 17 26  1  0
 17 27  1  0
M  END
>  <mol_id>  (9) 
2026-09-18-6fnk-s0-n100-r1-0009

>  <rmsd_to_ref>  (9) 
0.8214285714306528

>  <pose_kind>  (9) 
rigid

$$$$
6fnk.A
     RDKit          3D

 27 29  0  0  0  0  0  0  0  0999 V2000
    2.5204   15.3161   41.1200 C   0  0  0  0  0  0  0  0  0  0  0  0
    2.7917   13.9866   40.8678 C   0  0  0  0  0  0  0  0  0  0  0  0
    2.5128   13.0892   41.8803 C   0  0  0  0  0  0  0  0  0  0  0  0
    1.9938   13.4931   43.0750 N   0  0  0  0  0  0  0  0  0  0  0  0
    1.7378   14.7982   43.2963 C   0  0  0  0  0  0  0  0  0  0  0  0
    1.9954   15.7420   42.3227 C   0  0  0  0  0  0  0  0  0  0  0  0
    1.7345   17.1655   42.5171 C   0  0  0  0  0  0  0  0  0  0  0  0
    1.9906   18.0877   41.5547 N   0  0  0  0  0  0  0  0  0  0  0  0
    1.2163   17.5824   43.7053 N   0  0  0  0  0  0  0  0  0  0  0  0
    0.9498   18.8859   43.9540 C   0  0  0  0  0  0  0  0  0  0  0  0
    0.4531   19.5804   44.9948 N   0  0  0  0  0  0  0  0  0  0  0  0
    0.0405   18.9821   46.2502 C   0  0  0  0  0  0  0  0  0  0  0  0
    0.3935   20.8577   44.7224 N   0  0  0  0  0  0  0  0  0  0  0  0
    0.8592   21.0581   43.4634 C   0  0  0  0  0  0  0  0  0  0  0  0
    1.2178   19.8274   42.9546 C   0  0  0  0  0  0  0  0  0  0  0  0
    1.7431   19.3994   41.7520 C   0  0  0  0  0  0  0  0  0  0  0  0
    2.0284   20.3239   40.7140 N   0  0  0  0  0  0  0  0  0  0  0  0
    2.7497   16.0101   40.3021 H   0  0  0  0  0  0  0  0  0  0  0  0
    3.2019   13.6839   39.9181 H   0  0  0  0  0  0  0  0  0  0  0  0
    2.7222   12.0570   41.6875 H   0  0  0  0  0  0  0  0  0  0  0  0
    1.3237   15.1588   44.2367 H   0  0  0  0  0  0  0  0  0  0  0  0
   -0.1540   19.7638   47.0166 H   0  0  0  0  0  0  0  0  0  0  0  0
   -0.9482   18.4534   46.1111 H   0  0  0  0  0  0  0  0  0  0  0  0
    0.7794   18.2492   46.6097 H   0  0  0  0  0  0  0  0  0  0  0  0
    0.9436   22.0104   42.9306 H   0  0  0  0  0  0  0  0  0  0  0  0
    1.3577   21.0598   40.4493 H   0  0  0  0  0  0  0  0  0  0  0  0
    2.9424   20.2837   40.1796 H   0  0  0  0  0  0  0  0  0  0  0  0
  1  2  2  0
  1  6  1  0
  2  3  1  0
  3  4  2  0
  4  5  1  0
  5  6  2  0
  6  7  1  0
  7  8  2  0
  7  9  1  0
  8 16  1  0
  9 10  2  0
 10 11  1  0
 10 15  1  0
 11 12  1  0
 11 13  1  0
 13 14  2  0
 14 15  1  0
 15 16  2  0
 16 17  1  0
  1 18  1  0
  2 19  1  0
  3 20  1  0
  5 21  1  0
 12 22  1  0
 12 23  1  0
 12 24  1  0
 14 25  1  0
 17 26  1  0
 17 27  1  0
M  END
>  <mol_id>  (10) 
2026-09-18-6fnk-s0-n100-r1-0010

>  <rmsd_to_ref>  (10) 
0.8673469387764451

>  <pose_kind>  (10) 
conformer

$$$$
6fnk.A
     RDKit          3D

 27 29  0  0  0  0  0  0  0  0999 V2000
    3.4351   16.0245   41.1085 C   0  0  0  0  0  0  0  0  0  0  0  0
    3.9149   14.7261   40.9362 C   0  0  0  0  0  0  0  0  0  0  0  0
    3.2916   13.6662   41.5786 C   0  0  0  0  0  0  0  0  0  0  0  0
    2.1814   13.9003   42.3947 N   0  0  0  0  0  0  0  0  0  0  0  0
    1.7020   15.2077   42.5673 C   0  0  0  0  0  0  0  0  0  0  0  0
    2.3285   16.2734   41.9240 C   0  0  0  0  0  0  0  0  0  0  0  0
    1.8498   17.5757   42.0998 C   0  0  0  0  0  0  0  0  0  0  0  0
    2.5343   18.6313   41.6378 N   0  0  0  0  0  0  0  0  0  0  0  0
    0.6893   17.7783   42.7317 N   0  0  0  0  0  0  0  0  0  0  0  0
    0.2012   19.0161   42.9275 C   0  0  0  0  0  0  0  0  0  0  0  0
   -0.9100   19.4594   43.5349 N   0  0  0  0  0  0  0  0  0  0  0  0
   -1.9342   18.6260   44.1717 C   0  0  0  0  0  0  0  0  0  0  0  0
   -0.9708   20.6885   43.4825 N   0  0  0  0  0  0  0  0  0  0  0  0
    0.1025   21.1153   42.7968 C   0  0  0  0  0  0  0  0  0  0  0  0
    0.8676   20.0678   42.4616 C   0  0  0  0  0  0  0  0  0  0  0  0
    2.0463   19.8739   41.8086 C   0  0  0  0  0  0  0  0  0  0  0  0
    2.7536   20.9232   41.3238 N   0  0  0  0  0  0  0  0  0  0  0  0
    3.9333   16.8612   40.5969 H   0  0  0  0  0  0  0  0  0  0  0  0
    4.7870   14.5426   40.2913 H   0  0  0  0  0  0  0  0  0  0  0  0
    3.6709   12.6423   41.4459 H   0  0  0  0  0  0  0  0  0  0  0  0
    0.8298   15.3918   43.2118 H   0  0  0  0  0  0  0  0  0  0  0  0
   -2.1174   18.9875   45.1943 H   0  0  0  0  0  0  0  0  0  0  0  0
   -2.8663   18.6823   43.5903 H   0  0  0  0  0  0  0  0  0  0  0  0
   -1.5873   17.5827   44.2082 H   0  0  0  0  0  0  0  0  0  0  0  0
    0.3201   22.1645   42.5484 H   0  0  0  0  0  0  0  0  0  0  0  0
    2.3987   21.8828   41.4433 H   0  0  0  0  0  0  0  0  0  0  0  0
    3.6461   20.7613   40.8358 H   0  0  0  0  0  0  0  0  0  0  0  0
  1  2  2  0
  1  6  1  0
  2  3  1  0
  3  4  2  0
  4  5  1  0
  5  6  2  0
  6  7  1  0
  7  8  2  0
  7  9  1  0
  8 16  1  0
  9 10  2  0
 10 11  1  0
 10 15  1  0
 11 12  1  0
 11 13  1  0
 13 14  2  0
 14 15  1  0
 15 16  2  0
 16 17  1  0
  1 18  1  0
  2 19  1  0
  3 20  1  0
  5 21  1  0
 12 22  1  0
 12 23  1  0
 12 24  1  0
 14 25  1  0
 17 26  1  0
 17 27  1  0
M  END
>  <mol_id>  (11) 
2026-09-18-6fnk-s0-n100-r1-0011

>  <rmsd_to_ref>  (11) 
0.9132653061254359

>  <pose_kind>  (11) 
rigid

$$$$
6fnk.A
     RDKit          3D

 27 29  0  0  0  0  0  0  0  0999 V2000
    2.6781   15.5814   40.9593 C   0  0  0  0  0  0  0  0  0  0  0  0
    2.9665   14.2328   40.9281 C   0  0  0  0  0  0  0  0  0  0  0  0
    2.5883   13.3868   41.9505 C   0  0  0  0  0  0  0  0  0  0  0  0
    1.9113   13.8806   43.0269 N   0  0  0  0  0  0  0  0  0  0  0  0
    1.6052   15.2026   43.1011 C   0  0  0  0  0  0  0  0  0  0  0  0
    1.9850   16.0664   42.0691 C   0  0  0  0  0  0  0  0  0  0  0  0
    1.6658   17.5009   42.1256 C   0  0  0  0  0  0  0  0  0  0  0  0
    2.0373   18.3230   41.1246 N   0  0  0  0  0  0  0  0  0  0  0  0
    0.9939   17.9537   43.2076 N   0  0  0  0  0  0  0  0  0  0  0  0
    0.6704   19.2535   43.3226 C   0  0  0  0  0  0  0  0  0  0  0  0
    0.0203   20.0015   44.2535 N   0  0  0  0  0  0  0  0  0  0  0  0
   -0.5455   19.5013   45.4956 C   0  0  0  0  0  0  0  0  0  0  0  0
   -0.0108   21.2603   43.8391 N   0  0  0  0  0  0  0  0  0  0  0  0
    0.6153   21.3642   42.6332 C   0  0  0  0  0  0  0  0  0  0  0  0
    1.0437   20.0957   42.3109 C   0  0  0  0  0  0  0  0  0  0  0  0
    1.7278   19.6220   41.2139 C   0  0  0  0  0  0  0  0  0  0  0  0
    2.1287   20.4750   40.1466 N   0  0  0  0  0  0  0  0  0  0  0  0
    2.9908   16.2004   40.1442 H   0  0  0  0  0  0  0  0  0  0  0  0
    3.5106   13.8576   40.0548 H   0  0  0  0  0  0  0  0  0  0  0  0
    2.8343   12.3165   41.8937 H   0  0  0  0  0  0  0  0  0  0  0  0
    1.0600   15.5867   43.9731 H   0  0  0  0  0  0  0  0  0  0  0  0
   -1.5457   19.9039   45.6997 H   0  0  0  0  0  0  0  0  0  0  0  0
   -0.6608   18.3877   45.4068 H   0  0  0  0  0  0  0  0  0  0  0  0
    0.1860   19.6733   46.3116 H   0  0  0  0  0  0  0  0  0  0  0  0
    0.7264   22.2797   42.0826 H   0  0  0  0  0  0  0  0  0  0  0  0
    1.5156   20.6333   39.3146 H   0  0  0  0  0  0  0  0  0  0  0  0
    3.0588   20.9454   40.2118 H   0  0  0  0  0  0  0  0  0  0  0  0
  1  2  2  0
  1  6  1  0
  2  3  1  0
  3  4  2  0
  4  5  1  0
  5  6  2  0
  6  7  1  0
  7  8  2  0
  7  9  1  0
  8 16  1  0
  9 10  2  0
 10 11  1  0
 10 15  1  0
 11 12  1  0
 11 13  1  0
 13 14  2  0
 14 15  1  0
 15 16  2  0
 16 17  1  0
  1 18  1  0
  2 19  1  0
  3 20  1  0
  5 21  1  0
 12 22  1  0
 12 23  1  0
 12 24  1  0
 14 25  1  0
 17 26  1  0
 17 27  1  0
M  END
>  <mol_id>  (12) 
2026-09-18-6fnk-s0-n100-r1-0012

>  <rmsd_to_ref>  (12) 
0.9591836734701961

>  <pose_kind>  (12) 
conformer

$$$$
6fnk.A
     RDKit          3D

 27 29  0  0  0  0  0  0  0  0999 V2000
    1.6200   16.4539   40.3074 C   0  0  0  0  0  0  0  0  0  0  0  0
    1.8049   15.2196   39.6844 C   0  0  0  0  0  0  0  0  0  0  0  0
    1.8118   14.0562   40.4400 C   0  0  0  0  0  0  0  0  0  0  0  0
    1.6297   14.1219   41.8241 N   0  0  0  0  0  0  0  0  0  0  0  0
    1.4455   15.3650   42.4483 C   0  0  0  0  0  0  0  0  0  0  0  0
    1.4403   16.5346   41.6904 C   0  0  0  0  0  0  0  0  0  0  0  0
    1.2588   17.7724   42.3157 C   0  0  0  0  0  0  0  0  0  0  0  0
    1.4239   18.9181   41.6401 N   0  0  0  0  0  0  0  0  0  0  0  0
    0.9089   17.8216   43.6049 N   0  0  0  0  0  0  0  0  0  0  0  0
    0.7338   18.9927   44.2426 C   0  0  0  0  0  0  0  0  0  0  0  0
    0.4054   19.2869   45.5098 N   0  0  0  0  0  0  0  0  0  0  0  0
    0.1336   18.3182   46.5760 C   0  0  0  0  0  0  0  0  0  0  0  0
    0.3493   20.5069   45.6702 N   0  0  0  0  0  0  0  0  0  0  0  0
    0.6122   21.0808   44.4845 C   0  0  0  0  0  0  0  0  0  0  0  0
    0.8835   20.1335   43.5768 C   0  0  0  0  0  0  0  0  0  0  0  0
    1.2311   20.0965   42.2610 C   0  0  0  0  0  0  0  0  0  0  0  0
    1.3956   21.2400   41.5527 N   0  0  0  0  0  0  0  0  0  0  0  0
    1.6157   17.3732   39.7035 H   0  0  0  0  0  0  0  0  0  0  0  0
    1.9452   15.1688   38.5945 H   0  0  0  0  0  0  0  0  0  0  0  0
    1.9605   13.0826   39.9501 H   0  0  0  0  0  0  0  0  0  0  0  0
    1.3049   15.4166   43.5380 H   0  0  0  0  0  0  0  0  0  0  0  0
    0.7473   18.5600   47.4563 H   0  0  0  0  0  0  0  0  0  0  0  0
   -0.9313   18.3617   46.8483 H   0  0  0  0  0  0  0  0  0  0  0  0
    0.3809   17.3060   46.2235 H   0  0  0  0  0  0  0  0  0  0  0  0
    0.6057   22.1632   44.2888 H   0  0  0  0  0  0  0  0  0  0  0  0
    1.2531   22.1529   42.0080 H   0  0  0  0  0  0  0  0  0  0  0  0
    1.6631   21.1963   40.5590 H   0  0  0  0  0  0  0  0  0  0  0  0
  1  2  2  0
  1  6  1  0
  2  3  1  0
  3  4  2  0
  4  5  1  0
  5  6  2  0
  6  7  1  0
  7  8  2  0
  7  9  1  0
  8 16  1  0
  9 10  2  0
 10 11  1  0
 10 15  1  0
 11 12  1  0
 11 13  1  0
 13 14  2  0
 14 15  1  0
 15 16  2  0
 16 17  1  0
  1 18  1  0
  2 19  1  0
  3 20  1  0
  5 21  1  0
 12 22  1  0
 12 23  1  0
 12 24  1  0
 14 25  1  0
 17 26  1  0
 17 27  1  0
M  END
>  <mol_id>  (13) 
2026-09-18-6fnk-s0-n100-r1-0013

>  <rmsd_to_ref>  (13) 
1.0051020408230062

>  <pose_kind>  (13) 
rigid

$$$$
6fnk.A
     RDKit          3D

 27 29  0  0  0  0  0  0  0  0999 V2000
    3.3895   16.2778   41.8779 C   0  0  0  0  0  0  0  0  0  0  0  0
    3.9312   15.0092   41.8430 C   0  0  0  0  0  0  0  0  0  0  0  0
    3.2905   13.9686   42.4774 C   0  0  0  0  0  0  0  0  0  0  0  0
    2.1175   14.1613   43.1491 N   0  0  0  0  0  0  0  0  0  0  0  0
    1.5652   15.4012   43.1972 C   0  0  0  0  0  0  0  0  0  0  0  0
    2.2032   16.4461   42.5635 C   0  0  0  0  0  0  0  0  0  0  0  0
    1.6146   17.7956   42.6082 C   0  0  0  0  0  0  0  0  0  0  0  0
    2.2276   18.8456   41.9886 N   0  0  0  0  0  0  0  0  0  0  0  0
    0.4527   17.9929   43.2720 N   0  0  0  0  0  0  0  0  0  0  0  0
   -0.1170   19.1924   43.3402 C   0  0  0  0  0  0  0  0  0  0  0  0
   -1.2341   19.6711   43.9110 N   0  0  0  0  0  0  0  0  0  0  0  0
   -2.2079   18.9020   44.6854 C   0  0  0  0  0  0  0  0  0  0  0  0
   -1.3226   20.9819   43.6592 N   0  0  0  0  0  0  0  0  0  0  0  0
   -0.2663   21.3721   42.9227 C   0  0  0  0  0  0  0  0  0  0  0  0
    0.5080   20.2664   42.7077 C   0  0  0  0  0  0  0  0  0  0  0  0
    1.6941   20.0809   42.0263 C   0  0  0  0  0  0  0  0  0  0  0  0
    2.3201   21.1888   41.3853 N   0  0  0  0  0  0  0  0  0  0  0  0
    3.9113   17.0713   41.3739 H   0  0  0  0  0  0  0  0  0  0  0  0
    4.8612   14.7848   41.3271 H   0  0  0  0  0  0  0  0  0  0  0  0
    3.6992   12.9618   42.4626 H   0  0  0  0  0  0  0  0  0  0  0  0
    0.6249   15.5253   43.7428 H   0  0  0  0  0  0  0  0  0  0  0  0
   -2.6935   19.5129   45.4781 H   0  0  0  0  0  0  0  0  0  0  0  0
   -1.7485   18.0349   45.1949 H   0  0  0  0  0  0  0  0  0  0  0  0
   -3.0069   18.4861   44.0140 H   0  0  0  0  0  0  0  0  0  0  0  0
   -0.1185   22.3907   42.5947 H   0  0  0  0  0  0  0  0  0  0  0  0
    3.0404   21.7576   41.8891 H   0  0  0  0  0  0  0  0  0  0  0  0
    2.0604   21.4273   40.4235 H   0  0  0  0  0  0  0  0  0  0  0  0
  1  2  2  0
  1  6  1  0
  2  3  1  0
  3  4  2  0
  4  5  1  0
  5  6  2  0
  6  7  1  0
  7  8  2  0
  7  9  1  0
  8 16  1  0
  9 10  2  0
 10 11  1  0
 10 15  1  0
 11 12  1  0
 11 13  1  0
 13 14  2  0
 14 15  1  0
 15 16  2  0
 16 17  1  0
  1 18  1  0
  2 19  1  0
  3 20  1  0
  5 21  1  0
 12 22  1  0
 12 23  1  0
 12 24  1  0
 14 25  1  0
 17 26  1  0
 17 27  1  0
M  END
>  <mol_id>  (14) 
2026-09-18-6fnk-s0-n100-r1-0014

>  <rmsd_to_ref>  (14) 
1.0510204081669374

>  <pose_kind>  (14) 
conformer

$$$$
6fnk.A
     RDKit          3D

 27 29  0  0  0  0  0  0  0  0999 V2000
    3.7510   15.7026   41.5889 C   0  0  0  0  0  0  0  0  0  0  0  0
    4.4660   14.5072   41.6644 C   0  0  0  0  0  0  0  0  0  0  0  0
    4.2377   13.6285   42.7133 C   0  0  0  0  0  0  0  0  0  0  0  0
    3.2889   13.9402   43.6909 N   0  0  0  0  0  0  0  0  0  0  0  0
    2.5723   15.1441   43.6132 C   0  0  0  0  0  0  0  0  0  0  0  0
    2.8022   16.0286   42.5610 C   0  0  0  0  0  0  0  0  0  0  0  0
    2.0882   17.2289   42.4874 C   0  0  0  0  0  0  0  0  0  0  0  0
    2.4118   18.1710   41.5909 N   0  0  0  0  0  0  0  0  0  0  0  0
    1.0618   17.4443   43.3164 N   0  0  0  0  0  0  0  0  0  0  0  0
    0.3571   18.5893   43.2815 C   0  0  0  0  0  0  0  0  0  0  0  0
   -0.6812   19.0293   44.0086 N   0  0  0  0  0  0  0  0  0  0  0  0
   -1.3438   18.2990   45.0932 C   0  0  0  0  0  0  0  0  0  0  0  0
   -1.0257   20.1515   43.6358 N   0  0  0  0  0  0  0  0  0  0  0  0
   -0.2345   20.4935   42.6056 C   0  0  0  0  0  0  0  0  0  0  0  0
    0.6637   19.5238   42.3871 C   0  0  0  0  0  0  0  0  0  0  0  0
    1.7012   19.3125   41.5315 C   0  0  0  0  0  0  0  0  0  0  0  0
    2.0435   20.2450   40.6097 N   0  0  0  0  0  0  0  0  0  0  0  0
    3.9363   16.3958   40.7551 H   0  0  0  0  0  0  0  0  0  0  0  0
    5.2104   14.2614   40.8927 H   0  0  0  0  0  0  0  0  0  0  0  0
    4.8030   12.6869   42.7754 H   0  0  0  0  0  0  0  0  0  0  0  0
    1.8276   15.3904   44.3844 H   0  0  0  0  0  0  0  0  0  0  0  0
   -1.3959   18.9379   45.9871 H   0  0  0  0  0  0  0  0  0  0  0  0
   -2.3615   18.0221   44.7807 H   0  0  0  0  0  0  0  0  0  0  0  0
   -0.7714   17.3889   45.3258 H   0  0  0  0  0  0  0  0  0  0  0  0
   -0.3123   21.4273   42.0293 H   0  0  0  0  0  0  0  0  0  0  0  0
    1.5132   21.1258   40.5467 H   0  0  0  0  0  0  0  0  0  0  0  0
    2.8338   20.0730   39.9720 H   0  0  0  0  0  0  0  0  0  0  0  0
  1  2  2  0
  1  6  1  0
  2  3  1  0
  3  4  2  0
  4  5  1  0
  5  6  2  0
  6  7  1  0
  7  8  2  0
  7  9  1  0
  8 16  1  0
  9 10  2  0
 10 11  1  0
 10 15  1  0
 11 12  1  0
 11 13  1  0
 13 14  2  0
 14 15  1  0
 15 16  2  0
 16 17  1  0
  1 18  1  0
  2 19  1  0
  3 20  1  0
  5 21  1  0
 12 22  1  0
 12 23  1  0
 12 24  1  0
 14 25  1  0
 17 26  1  0
 17 27  1  0
M  END
>  <mol_id>  (15) 
2026-09-18-6fnk-s0-n100-r1-0015

>  <rmsd_to_ref>  (15) 
1.0969387755164801

>  <pose_kind>  (15) 
rigid

$$$$
6fnk.A
     RDKit          3D

 27 29  0  0  0  0  0  0  0  0999 V2000
    3.2998   16.9057   40.0471 C   0  0  0  0  0  0  0  0  0  0  0  0
    4.0523   15.9544   39.3784 C   0  0  0  0  0  0  0  0  0  0  0  0
    4.2262   14.7030   39.9316 C   0  0  0  0  0  0  0  0  0  0  0  0
    3.6759   14.3629   41.1314 N   0  0  0  0  0  0  0  0  0  0  0  0
    2.9313   15.2850   41.8065 C   0  0  0  0  0  0  0  0  0  0  0  0
    2.7376   16.5585   41.2728 C   0  0  0  0  0  0  0  0  0  0  0  0
    1.9434   17.5512   41.9864 C   0  0  0  0  0  0  0  0  0  0  0  0
    1.7383   18.7953   41.4929 N   0  0  0  0  0  0  0  0  0  0  0  0
    1.3919   17.2330   43.1732 N   0  0  0  0  0  0  0  0  0  0  0  0
    0.6487   18.1206   43.8694 C   0  0  0  0  0  0  0  0  0  0  0  0
    0.0026   18.0479   45.0539 N   0  0  0  0  0  0  0  0  0  0  0  0
   -0.0473   16.8984   45.9304 C   0  0  0  0  0  0  0  0  0  0  0  0
   -0.5744   19.1936   45.2811 N   0  0  0  0  0  0  0  0  0  0  0  0
   -0.3545   20.0771   44.2886 C   0  0  0  0  0  0  0  0  0  0  0  0
    0.4275   19.4077   43.3747 C   0  0  0  0  0  0  0  0  0  0  0  0
    1.0025   19.7087   42.1583 C   0  0  0  0  0  0  0  0  0  0  0  0
    0.7977   21.0116   41.6237 N   0  0  0  0  0  0  0  0  0  0  0  0
    3.1569   17.9022   39.6142 H   0  0  0  0  0  0  0  0  0  0  0  0
    4.4791   16.2451   38.4292 H   0  0  0  0  0  0  0  0  0  0  0  0
    4.8296   13.9835   39.3657 H   0  0  0  0  0  0  0  0  0  0  0  0
    2.4757   15.0399   42.7748 H   0  0  0  0  0  0  0  0  0  0  0  0
    0.4903   17.1995   46.8593 H   0  0  0  0  0  0  0  0  0  0  0  0
    0.4339   16.0050   45.4657 H   0  0  0  0  0  0  0  0  0  0  0  0
   -1.0860   16.6651   46.2074 H   0  0  0  0  0  0  0  0  0  0  0  0
   -0.6939   21.1015   44.1817 H   0  0  0  0  0  0  0  0  0  0  0  0
    0.8120   21.8352   42.2425 H   0  0  0  0  0  0  0  0  0  0  0  0
    0.6378   21.0777   40.6010 H   0  0  0  0  0  0  0  0  0  0  0  0
  1  2  2  0
  1  6  1  0
  2  3  1  0
  3  4  2  0
  4  5  1  0
  5  6  2  0
  6  7  1  0
  7  8  2  0
  7  9  1  0
  8 16  1  0
  9 10  2  0
 10 11  1  0
 10 15  1  0
 11 12  1  0
 11 13  1  0
 13 14  2  0
 14 15  1  0
 15 16  2  0
 16 17  1  0
  1 18  1  0
  2 19  1  0
  3 20  1  0
  5 21  1  0
 12 22  1  0
 12 23  1  0
 12 24  1  0
 14 25  1  0
 17 26  1  0
 17 27  1  0
M  END
>  <mol_id>  (16) 
2026-09-18-6fnk-s0-n100-r1-0016

>  <rmsd_to_ref>  (16) 
1.1428571428615837

>  <pose_kind>  (16) 
conformer

$$$$
6fnk.A
     RDKit          3D

 27 29  0  0  0  0  0  0  0  0999 V2000
    3.8174   15.9056   41.6283 C   0  0  0  0  0  0  0  0  0  0  0  0
    4.4973   14.7480   41.2493 C   0  0  0  0  0  0  0  0  0  0  0  0
    3.9481   13.5027   41.5178 C   0  0  0  0  0  0  0  0  0  0  0  0
    2.7126   13.4096   42.1644 N   0  0  0  0  0  0  0  0  0  0  0  0
    2.0318   14.5757   42.5458 C   0  0  0  0  0  0  0  0  0  0  0  0
    2.5834   15.8273   42.2783 C   0  0  0  0  0  0  0  0  0  0  0  0
    1.9036   16.9878   42.6617 C   0  0  0  0  0  0  0  0  0  0  0  0
    2.4880   18.1908   42.5756 N   0  0  0  0  0  0  0  0  0  0  0  0
    0.6491   16.9046   43.1161 N   0  0  0  0  0  0  0  0  0  0  0  0
   -0.0336   17.9971   43.5023 C   0  0  0  0  0  0  0  0  0  0  0  0
   -1.2708   18.1570   43.9964 N   0  0  0  0  0  0  0  0  0  0  0  0
   -2.2442   17.0890   44.2427 C   0  0  0  0  0  0  0  0  0  0  0  0
   -1.4986   19.3474   44.2154 N   0  0  0  0  0  0  0  0  0  0  0  0
   -0.4120   20.0409   43.8380 C   0  0  0  0  0  0  0  0  0  0  0  0
    0.5343   19.1954   43.4085 C   0  0  0  0  0  0  0  0  0  0  0  0
    1.8083   19.2941   42.9390 C   0  0  0  0  0  0  0  0  0  0  0  0
    2.4192   20.4992   42.8335 N   0  0  0  0  0  0  0  0  0  0  0  0
    4.2576   16.8905   41.4130 H   0  0  0  0  0  0  0  0  0  0  0  0
    5.4683   14.8225   40.7378 H   0  0  0  0  0  0  0  0  0  0  0  0
    4.4847   12.5892   41.2221 H   0  0  0  0  0  0  0  0  0  0  0  0
    1.0606   14.5019   43.0571 H   0  0  0  0  0  0  0  0  0  0  0  0
   -2.6187   17.1649   45.2742 H   0  0  0  0  0  0  0  0  0  0  0  0
   -3.0841   17.1890   43.5395 H   0  0  0  0  0  0  0  0  0  0  0  0
   -1.7604   16.1116   44.0994 H   0  0  0  0  0  0  0  0  0  0  0  0
   -0.3141   21.1359   43.8757 H   0  0  0  0  0  0  0  0  0  0  0  0
    1.9176   21.3565   43.1060 H   0  0  0  0  0  0  0  0  0  0  0  0
    3.3851   20.5578   42.4807 H   0  0  0  0  0  0  0  0  0  0  0  0
  1  2  2  0
  1  6  1  0
  2  3  1  0
  3  4  2  0
  4  5  1  0
  5  6  2  0
  6  7  1  0
  7  8  2  0
  7  9  1  0
  8 16  1  0
  9 10  2  0
 10 11  1  0
 10 15  1  0
 11 12  1  0
 11 13  1  0
 13 14  2  0
 14 15  1  0
 15 16  2  0
 16 17  1  0
  1 18  1  0
  2 19  1  0
  3 20  1  0
  5 21  1  0
 12 22  1  0
 12 23  1  0
 12 24  1  0
 14 25  1  0
 17 26  1  0
 17 27  1  0
M  END
>  <mol_id>  (17) 
2026-09-18-6fnk-s0-n100-r1-0017

>  <rmsd_to_ref>  (17) 
1.1887755102089088

>  <pose_kind>  (17) 
rigid

$$$$
6fnk.A
     RDKit          3D

 27 29  0  0  0  0  0  0  0  0999 V2000
    2.1825   15.2071   42.1926 C   0  0  0  0  0  0  0  0  0  0  0  0
    2.7760   14.0800   41.6500 C   0  0  0  0  0  0  0  0  0  0  0  0
    3.6359   14.1813   40.5682 C   0  0  0  0  0  0  0  0  0  0  0  0
    3.8950   15.4070   40.0384 N   0  0  0  0  0  0  0  0  0  0  0  0
    3.3220   16.5307   40.5561 C   0  0  0  0  0  0  0  0  0  0  0  0
    2.4624   16.4451   41.6350 C   0  0  0  0  0  0  0  0  0  0  0  0
    1.8474   17.6483   42.1913 C   0  0  0  0  0  0  0  0  0  0  0  0
    2.1235   18.8428   41.6458 N   0  0  0  0  0  0  0  0  0  0  0  0
    1.0229   17.5605   43.2270 N   0  0  0  0  0  0  0  0  0  0  0  0
    0.4456   18.6549   43.7551 C   0  0  0  0  0  0  0  0  0  0  0  0
   -0.4062   18.8140   44.7825 N   0  0  0  0  0  0  0  0  0  0  0  0
   -0.9314   17.7678   45.6110 C   0  0  0  0  0  0  0  0  0  0  0  0
   -0.6898   20.0985   44.9146 N   0  0  0  0  0  0  0  0  0  0  0  0
   -0.0343   20.8094   43.9819 C   0  0  0  0  0  0  0  0  0  0  0  0
    0.6941   19.9080   43.2338 C   0  0  0  0  0  0  0  0  0  0  0  0
    1.5546   19.9723   42.1575 C   0  0  0  0  0  0  0  0  0  0  0  0
    1.8375   21.2508   41.5893 N   0  0  0  0  0  0  0  0  0  0  0  0
    1.5008   15.1185   43.0516 H   0  0  0  0  0  0  0  0  0  0  0  0
    2.5314   13.1328   42.1143 H   0  0  0  0  0  0  0  0  0  0  0  0
    4.0940   13.2923   40.1526 H   0  0  0  0  0  0  0  0  0  0  0  0
    3.5590   17.4865   40.0998 H   0  0  0  0  0  0  0  0  0  0  0  0
   -0.9255   18.0428   46.7031 H   0  0  0  0  0  0  0  0  0  0  0  0
   -0.4231   16.8083   45.4871 H   0  0  0  0  0  0  0  0  0  0  0  0
   -2.0147   17.6485   45.3580 H   0  0  0  0  0  0  0  0  0  0  0  0
   -0.0447   21.8719   43.8137 H   0  0  0  0  0  0  0  0  0  0  0  0
    2.7906   21.4408   41.2095 H   0  0  0  0  0  0  0  0  0  0  0  0
    1.0596   21.9562   41.5786 H   0  0  0  0  0  0  0  0  0  0  0  0
  1  2  2  0
  1  6  1  0
  2  3  1  0
  3  4  2  0
  4  5  1  0
  5  6  2  0
  6  7  1  0
  7  8  2  0
  7  9  1  0
  8 16  1  0
  9 10  2  0
 10 11  1  0
 10 15  1  0
 11 12  1  0
 11 13  1  0
 13 14  2  0
 14 15  1  0
 15 16  2  0
 16 17  1  0
  1 18  1  0
  2 19  1  0
  3 20  1  0
  5 21  1  0
 12 22  1  0
 12 23  1  0
 12 24  1  0
 14 25  1  0
 17 26  1  0
 17 27  1  0
M  END
>  <mol_id>  (18) 
2026-09-18-6fnk-s0-n100-r1-0018

>  <rmsd_to_ref>  (18) 
1.2346938775512581

>  <pose_kind>  (18) 
conformer

$$$$
6fnk.A
     RDKit          3D

 27 29  0  0  0  0  0  0  0  0999 V2000
    1.4277   15.4506   40.9123 C   0  0  0  0  0  0  0  0  0  0  0  0
    1.7761   14.1014   40.8493 C   0  0  0  0  0  0  0  0  0  0  0  0
    2.0298   13.3961   42.0166 C   0  0  0  0  0  0  0  0  0  0  0  0
    1.9323   14.0373   43.2546 N   0  0  0  0  0  0  0  0  0  0  0  0
    1.5831   15.3950   43.3148 C   0  0  0  0  0  0  0  0  0  0  0  0
    1.3298   16.1050   42.1426 C   0  0  0  0  0  0  0  0  0  0  0  0
    0.9843   17.4588   42.2056 C   0  0  0  0  0  0  0  0  0  0  0  0
    0.9081   18.2045   41.0946 N   0  0  0  0  0  0  0  0  0  0  0  0
    0.7182   18.0231   43.3879 N   0  0  0  0  0  0  0  0  0  0  0  0
    0.3910   19.3237   43.4893 C   0  0  0  0  0  0  0  0  0  0  0  0
    0.1032   20.0994   44.5456 N   0  0  0  0  0  0  0  0  0  0  0  0
    0.0708   19.6690   45.9466 C   0  0  0  0  0  0  0  0  0  0  0  0
   -0.1471   21.2494   44.1825 N   0  0  0  0  0  0  0  0  0  0  0  0
   -0.0648   21.2747   42.8421 C   0  0  0  0  0  0  0  0  0  0  0  0
    0.3011   20.0674   42.3911 C   0  0  0  0  0  0  0  0  0  0  0  0
    0.5611   19.5020   41.1803 C   0  0  0  0  0  0  0  0  0  0  0  0
    0.4825   20.2314   40.0409 N   0  0  0  0  0  0  0  0  0  0  0  0
    1.2278   16.0051   39.9835 H   0  0  0  0  0  0  0  0  0  0  0  0
    1.8497   13.5969   39.8745 H   0  0  0  0  0  0  0  0  0  0  0  0
    2.3076   12.3329   41.9679 H   0  0  0  0  0  0  0  0  0  0  0  0
    1.5091   15.9000   44.2892 H   0  0  0  0  0  0  0  0  0  0  0  0
    0.6924   20.3448   46.5522 H   0  0  0  0  0  0  0  0  0  0  0  0
   -0.9655   19.6956   46.3145 H   0  0  0  0  0  0  0  0  0  0  0  0
    0.4612   18.6435   46.0242 H   0  0  0  0  0  0  0  0  0  0  0  0
   -0.2670   22.1527   42.2109 H   0  0  0  0  0  0  0  0  0  0  0  0
    0.2188   21.2261   40.0833 H   0  0  0  0  0  0  0  0  0  0  0  0
    0.6864   19.7910   39.1324 H   0  0  0  0  0  0  0  0  0  0  0  0
  1  2  2  0
  1  6  1  0
  2  3  1  0
  3  4  2  0
  4  5  1  0
  5  6  2  0
  6  7  1  0
  7  8  2  0
  7  9  1  0
  8 16  1  0
  9 10  2  0
 10 11  1  0
 10 15  1  0
 11 12  1  0
 11 13  1  0
 13 14  2  0
 14 15  1  0
 15 16  2  0
 16 17  1  0
  1 18  1  0
  2 19  1  0
  3 20  1  0
  5 21  1  0
 12 22  1  0
 12 23  1  0
 12 24  1  0
 14 25  1  0
 17 26  1  0
 17 27  1  0
M  END
>  <mol_id>  (19) 
2026-09-18-6fnk-s0-n100-r1-0019

>  <rmsd_to_ref>  (19) 
1.2806122449002582

>  <pose_kind>  (19) 
rigid

$$$$
6fnk.A
     RDKit          3D

 27 29  0  0  0  0  0  0  0  0999 V2000
    2.7268   17.2771   39.9252 C   0  0  0  0  0  0  0  0  0  0  0  0
    3.2166   16.3484   39.0137 C   0  0  0  0  0  0  0  0  0  0  0  0
    2.9244   15.0035   39.1920 C   0  0  0  0  0  0  0  0  0  0  0  0
    2.1761   14.6070   40.2351 N   0  0  0  0  0  0  0  0  0  0  0  0
    1.6769   15.4812   41.1501 C   0  0  0  0  0  0  0  0  0  0  0  0
    1.9587   16.8344   40.9889 C   0  0  0  0  0  0  0  0  0  0  0  0
    1.4548   17.8309   41.9345 C   0  0  0  0  0  0  0  0  0  0  0  0
    1.7254   19.1586   41.7853 N   0  0  0  0  0  0  0  0  0  0  0  0
    0.6980   17.3906   42.9819 N   0  0  0  0  0  0  0  0  0  0  0  0
    0.2051   18.2628   43.8871 C   0  0  0  0  0  0  0  0  0  0  0  0
   -0.5500   18.1669   44.9982 N   0  0  0  0  0  0  0  0  0  0  0  0
   -1.0729   16.9033   45.5373 C   0  0  0  0  0  0  0  0  0  0  0  0
   -0.7322   19.3792   45.5041 N   0  0  0  0  0  0  0  0  0  0  0  0
   -0.1094   20.2983   44.7493 C   0  0  0  0  0  0  0  0  0  0  0  0
    0.4840   19.6073   43.7287 C   0  0  0  0  0  0  0  0  0  0  0  0
    1.2458   20.0572   42.6756 C   0  0  0  0  0  0  0  0  0  0  0  0
    1.5631   21.4270   42.4646 N   0  0  0  0  0  0  0  0  0  0  0  0
    2.9623   18.3240   39.7743 H   0  0  0  0  0  0  0  0  0  0  0  0
    3.8185   16.6991   38.1808 H   0  0  0  0  0  0  0  0  0  0  0  0
    3.3334   14.3303   38.4505 H   0  0  0  0  0  0  0  0  0  0  0  0
    1.0735   15.1501   41.9890 H   0  0  0  0  0  0  0  0  0  0  0  0
   -1.4877   16.2942   44.7151 H   0  0  0  0  0  0  0  0  0  0  0  0
   -1.8772   17.0864   46.2644 H   0  0  0  0  0  0  0  0  0  0  0  0
   -0.2341   16.3225   45.9763 H   0  0  0  0  0  0  0  0  0  0  0  0
   -0.1047   21.3609   44.9468 H   0  0  0  0  0  0  0  0  0  0  0  0
    0.8957   22.0572   41.9720 H   0  0  0  0  0  0  0  0  0  0  0  0
    2.4570   21.8590   42.7841 H   0  0  0  0  0  0  0  0  0  0  0  0
  1  2  2  0
  1  6  1  0
  2  3  1  0
  3  4  2  0
  4  5  1  0
  5  6  2  0
  6  7  1  0
  7  8  2  0
  7  9  1  0
  8 16  1  0
  9 10  2  0
 10 11  1  0
 10 15  1  0
 11 12  1  0
 11 13  1  0
 13 14  2  0
 14 15  1  0
 15 16  2  0
 16 17  1  0
  1 18  1  0
  2 19  1  0
  3 20  1  0
  5 21  1  0
 12 22  1  0
 12 23  1  0
 12 24  1  0
 14 25  1  0
 17 26  1  0
 17 27  1  0
M  END
>  <mol_id>  (20) 
2026-09-18-6fnk-s0-n100-r1-0020

>  <rmsd_to_ref>  (20) 
1.3265306122451288

>  <pose_kind>  (20) 
conformer

$$$$
6fnk.A
     RDKit          3D

 27 29  0  0  0  0  0  0  0  0999 V2000
    1.2887   16.2376   40.5390 C   0  0  0  0  0  0  0  0  0  0  0  0
    1.1948   15.0030   39.8964 C   0  0  0  0  0  0  0  0  0  0  0  0
    0.8880   13.8638   40.6261 C   0  0  0  0  0  0  0  0  0  0  0  0
    0.6696   13.9550   42.0035 N   0  0  0  0  0  0  0  0  0  0  0  0
    0.7663   15.1979   42.6474 C   0  0  0  0  0  0  0  0  0  0  0  0
    1.0763   16.3428   41.9157 C   0  0  0  0  0  0  0  0  0  0  0  0
    1.1743   17.5800   42.5606 C   0  0  0  0  0  0  0  0  0  0  0  0
    1.6402   18.6592   41.9170 N   0  0  0  0  0  0  0  0  0  0  0  0
    0.7932   17.6970   43.8366 N   0  0  0  0  0  0  0  0  0  0  0  0
    0.8808   18.8678   44.4927 C   0  0  0  0  0  0  0  0  0  0  0  0
    0.5808   19.2176   45.7528 N   0  0  0  0  0  0  0  0  0  0  0  0
    0.0381   18.3311   46.7866 C   0  0  0  0  0  0  0  0  0  0  0  0
    0.8155   20.4126   45.9376 N   0  0  0  0  0  0  0  0  0  0  0  0
    1.2588   20.9197   44.7756 C   0  0  0  0  0  0  0  0  0  0  0  0
    1.3302   19.9460   43.8581 C   0  0  0  0  0  0  0  0  0  0  0  0
    1.7130   19.8415   42.5558 C   0  0  0  0  0  0  0  0  0  0  0  0
    2.1792   20.9193   41.8794 N   0  0  0  0  0  0  0  0  0  0  0  0
    1.5326   17.1376   39.9555 H   0  0  0  0  0  0  0  0  0  0  0  0
    1.3640   14.9328   38.8117 H   0  0  0  0  0  0  0  0  0  0  0  0
    0.8166   12.8892   40.1209 H   0  0  0  0  0  0  0  0  0  0  0  0
    0.5970   15.2689   43.7319 H   0  0  0  0  0  0  0  0  0  0  0  0
    0.6548   18.4058   47.6944 H   0  0  0  0  0  0  0  0  0  0  0  0
   -0.9949   18.6288   47.0195 H   0  0  0  0  0  0  0  0  0  0  0  0
    0.0472   17.2935   46.4215 H   0  0  0  0  0  0  0  0  0  0  0  0
    1.5230   21.9735   44.6035 H   0  0  0  0  0  0  0  0  0  0  0  0
    2.2433   21.8338   42.3489 H   0  0  0  0  0  0  0  0  0  0  0  0
    2.4694   20.8239   40.8957 H   0  0  0  0  0  0  0  0  0  0  0  0
  1  2  2  0
  1  6  1  0
  2  3  1  0
  3  4  2  0
  4  5  1  0
  5  6  2  0
  6  7  1  0
  7  8  2  0
  7  9  1  0
  8 16  1  0
  9 10  2  0
 10 11  1  0
 10 15  1  0
 11 12  1  0
 11 13  1  0
 13 14  2  0
 14 15  1  0
 15 16  2  0
 16 17  1  0
  1 18  1  0
  2 19  1  0
  3 20  1  0
  5 21  1  0
 12 22  1  0
 12 23  1  0
 12 24  1  0
 14 25  1  0
 17 26  1  0
 17 27  1  0
M  END
>  <mol_id>  (21) 
2026-09-18-6fnk-s0-n100-r1-0021

>  <rmsd_to_ref>  (21) 
1.3724489795970702

>  <pose_kind>  (21) 
rigid

$$$$
6fnk.A
     RDKit          3D

 27 29  0  0  0  0  0  0  0  0999 V2000
    1.3144   14.9499   43.2817 C   0  0  0  0  0  0  0  0  0  0  0  0
    1.6015   13.6082   43.0244 C   0  0  0  0  0  0  0  0  0  0  0  0
    2.2611   13.2292   41.8528 C   0  0  0  0  0  0  0  0  0  0  0  0
    2.6403   14.1447   40.9356 N   0  0  0  0  0  0  0  0  0  0  0  0
    2.3680   15.4577   41.1708 C   0  0  0  0  0  0  0  0  0  0  0  0
    1.7176   15.8567   42.3207 C   0  0  0  0  0  0  0  0  0  0  0  0
    1.4526   17.2791   42.5184 C   0  0  0  0  0  0  0  0  0  0  0  0
    1.8426   18.1689   41.5861 N   0  0  0  0  0  0  0  0  0  0  0  0
    0.8264   17.7371   43.6097 N   0  0  0  0  0  0  0  0  0  0  0  0
    0.5642   19.0553   43.8246 C   0  0  0  0  0  0  0  0  0  0  0  0
   -0.0394   19.7276   44.8268 N   0  0  0  0  0  0  0  0  0  0  0  0
   -0.6079   19.1707   46.0266 C   0  0  0  0  0  0  0  0  0  0  0  0
   -0.0165   21.0079   44.5080 N   0  0  0  0  0  0  0  0  0  0  0  0
    0.5832   21.1994   43.3276 C   0  0  0  0  0  0  0  0  0  0  0  0
    0.9698   19.9592   42.8595 C   0  0  0  0  0  0  0  0  0  0  0  0
    1.6144   19.4922   41.7353 C   0  0  0  0  0  0  0  0  0  0  0  0
    2.0382   20.4210   40.7303 N   0  0  0  0  0  0  0  0  0  0  0  0
    0.8072   15.2261   44.1858 H   0  0  0  0  0  0  0  0  0  0  0  0
    1.3062   12.8410   43.7504 H   0  0  0  0  0  0  0  0  0  0  0  0
    2.4754   12.1672   41.6739 H   0  0  0  0  0  0  0  0  0  0  0  0
    2.6948   16.1446   40.4021 H   0  0  0  0  0  0  0  0  0  0  0  0
   -1.2130   19.9289   46.5499 H   0  0  0  0  0  0  0  0  0  0  0  0
    0.1845   18.8325   46.7190 H   0  0  0  0  0  0  0  0  0  0  0  0
   -1.2803   18.3242   45.7475 H   0  0  0  0  0  0  0  0  0  0  0  0
    0.7667   22.1231   42.7803 H   0  0  0  0  0  0  0  0  0  0  0  0
    1.3956   20.8518   40.0426 H   0  0  0  0  0  0  0  0  0  0  0  0
    3.0594   20.6448   40.7309 H   0  0  0  0  0  0  0  0  0  0  0  0
  1  2  2  0
  1  6  1  0
  2  3  1  0
  3  4  2  0
  4  5  1  0
  5  6  2  0
  6  7  1  0
  7  8  2  0
  7  9  1  0
  8 16  1  0
  9 10  2  0
 10 11  1  0
 10 15  1  0
 11 12  1  0
 11 13  1  0
 13 14  2  0
 14 15  1  0
 15 16  2  0
 16 17  1  0
  1 18  1  0
  2 19  1  0
  3 20  1  0
  5 21  1  0
 12 22  1  0
 12 23  1  0
 12 24  1  0
 14 25  1  0
 17 26  1  0
 17 27  1  0
M  END
>  <mol_id>  (22) 
2026-09-18-6fnk-s0-n100-r1-0022

>  <rmsd_to_ref>  (22) 
1.4183673469410885

>  <pose_kind>  (22) 
conformer

$$$$
6fnk.A
     RDKit          3D

 27 29  0  0  0  0  0  0  0  0999 V2000
    1.6505   15.0413   40.9585 C   0  0  0  0  0  0  0  0  0  0  0  0
    1.8474   13.6625   41.0374 C   0  0  0  0  0  0  0  0  0  0  0  0
    1.8002   13.0254   42.2688 C   0  0  0  0  0  0  0  0  0  0  0  0
    1.5517   13.7650   43.4283 N   0  0  0  0  0  0  0  0  0  0  0  0
    1.3556   15.1520   43.3460 C   0  0  0  0  0  0  0  0  0  0  0  0
    1.4047   15.7935   42.1097 C   0  0  0  0  0  0  0  0  0  0  0  0
    1.2111   17.1764   42.0311 C   0  0  0  0  0  0  0  0  0  0  0  0
    1.4259   17.8397   40.8866 N   0  0  0  0  0  0  0  0  0  0  0  0
    0.7995   17.8528   43.1082 N   0  0  0  0  0  0  0  0  0  0  0  0
    0.6108   19.1840   43.0736 C   0  0  0  0  0  0  0  0  0  0  0  0
    0.2252   20.0627   44.0114 N   0  0  0  0  0  0  0  0  0  0  0  0
   -0.1125   19.7451   45.4021 C   0  0  0  0  0  0  0  0  0  0  0  0
    0.1794   21.2016   43.5445 N   0  0  0  0  0  0  0  0  0  0  0  0
    0.5083   21.1168   42.2449 C   0  0  0  0  0  0  0  0  0  0  0  0
    0.8096   19.8478   41.9391 C   0  0  0  0  0  0  0  0  0  0  0  0
    1.2204   19.1687   40.8330 C   0  0  0  0  0  0  0  0  0  0  0  0
    1.4362   19.8140   39.6610 N   0  0  0  0  0  0  0  0  0  0  0  0
    1.6892   15.5414   39.9796 H   0  0  0  0  0  0  0  0  0  0  0  0
    2.0399   13.0809   40.1238 H   0  0  0  0  0  0  0  0  0  0  0  0
    1.9583   11.9386   42.3325 H   0  0  0  0  0  0  0  0  0  0  0  0
    1.1628   15.7341   44.2591 H   0  0  0  0  0  0  0  0  0  0  0  0
    0.4610   20.3976   46.0769 H   0  0  0  0  0  0  0  0  0  0  0  0
   -1.1886   19.9055   45.5639 H   0  0  0  0  0  0  0  0  0  0  0  0
    0.1367   18.6939   45.6091 H   0  0  0  0  0  0  0  0  0  0  0  0
    0.5273   21.9606   41.5394 H   0  0  0  0  0  0  0  0  0  0  0  0
    1.2851   20.8309   39.5976 H   0  0  0  0  0  0  0  0  0  0  0  0
    1.7512   19.2876   38.8337 H   0  0  0  0  0  0  0  0  0  0  0  0
  1  2  2  0
  1  6  1  0
  2  3  1  0
  3  4  2  0
  4  5  1  0
  5  6  2  0
  6  7  1  0
  7  8  2  0
  7  9  1  0
  8 16  1  0
  9 10  2  0
 10 11  1  0
 10 15  1  0
 11 12  1  0
 11 13  1  0
 13 14  2  0
 14 15  1  0
 15 16  2  0
 16 17  1  0
  1 18  1  0
  2 19  1  0
  3 20  1  0
  5 21  1  0
 12 22  1  0
 12 23  1  0
 12 24  1  0
 14 25  1  0
 17 26  1  0
 17 27  1  0
M  END
>  <mol_id>  (23) 
2026-09-18-6fnk-s0-n100-r1-0023

>  <rmsd_to_ref>  (23) 
1.464285714291385

>  <pose_kind>  (23) 
rigid

$$$$
6fnk.A
     RDKit          3D

 27 29  0  0  0  0  0  0  0  0999 V2000
    1.5996   15.0854   42.3805 C   0  0  0  0  0  0  0  0  0  0  0  0
    1.8889   13.7890   42.0122 C   0  0  0  0  0  0  0  0  0  0  0  0
    3.0274   13.4659   41.3001 C   0  0  0  0  0  0  0  0  0  0  0  0
    3.8697   14.4605   40.9636 N   0  0  0  0  0  0  0  0  0  0  0  0
    3.6482   15.7488   41.2913 C   0  0  0  0  0  0  0  0  0  0  0  0
    2.4923   16.0661   42.0126 C   0  0  0  0  0  0  0  0  0  0  0  0
    2.2737   17.4620   42.3551 C   0  0  0  0  0  0  0  0  0  0  0  0
    3.1747   18.3831   41.9731 N   0  0  0  0  0  0  0  0  0  0  0  0
    1.1626   17.8064   43.0545 N   0  0  0  0  0  0  0  0  0  0  0  0
    0.9514   19.0938   43.3759 C   0  0  0  0  0  0  0  0  0  0  0  0
   -0.0619   19.6739   44.0547 N   0  0  0  0  0  0  0  0  0  0  0  0
   -1.2289   19.0045   44.6303 C   0  0  0  0  0  0  0  0  0  0  0  0
    0.2042   20.9837   44.1019 N   0  0  0  0  0  0  0  0  0  0  0  0
    1.3721   21.2444   43.4628 C   0  0  0  0  0  0  0  0  0  0  0  0
    1.8744   20.0430   42.9854 C   0  0  0  0  0  0  0  0  0  0  0  0
    3.0164   19.6892   42.2666 C   0  0  0  0  0  0  0  0  0  0  0  0
    3.9524   20.6895   41.8765 N   0  0  0  0  0  0  0  0  0  0  0  0
    0.6968   15.3189   42.9417 H   0  0  0  0  0  0  0  0  0  0  0  0
    1.1939   13.0208   42.2979 H   0  0  0  0  0  0  0  0  0  0  0  0
    3.2306   12.4253   41.0213 H   0  0  0  0  0  0  0  0  0  0  0  0
    4.3576   16.5215   40.9979 H   0  0  0  0  0  0  0  0  0  0  0  0
   -2.1834   19.4734   44.3171 H   0  0  0  0  0  0  0  0  0  0  0  0
   -1.1611   18.9958   45.7366 H   0  0  0  0  0  0  0  0  0  0  0  0
   -1.2540   17.9711   44.2203 H   0  0  0  0  0  0  0  0  0  0  0  0
    1.8370   22.2213   43.3431 H   0  0  0  0  0  0  0  0  0  0  0  0
    4.9187   20.3829   41.6290 H   0  0  0  0  0  0  0  0  0  0  0  0
    3.6343   21.6838   41.8545 H   0  0  0  0  0  0  0  0  0  0  0  0
  1  2  2  0
  1  6  1  0
  2  3  1  0
  3  4  2  0
  4  5  1  0
  5  6  2  0
  6  7  1  0
  7  8  2  0
  7  9  1  0
  8 16  1  0
  9 10  2  0
 10 11  1  0
 10 15  1  0
 11 12  1  0
 11 13  1  0
 13 14  2  0
 14 15  1  0
 15 16  2  0
 16 17  1  0
  1 18  1  0
  2 19  1  0
  3 20  1  0
  5 21  1  0
 12 22  1  0
 12 23  1  0
 12 24  1  0
 14 25  1  0
 17 26  1  0
 17 27  1  0
M  END
>  <mol_id>  (24) 
2026-09-18-6fnk-s0-n100-r1-0024

>  <rmsd_to_ref>  (24) 
1.5102040816341769

>  <pose_kind>  (24) 
conformer

$$$$
6fnk.A
     RDKit          3D

 27 29  0  0  0  0  0  0  0  0999 V2000
    3.8101   16.9934   40.1620 C   0  0  0  0  0  0  0  0  0  0  0  0
    4.3120   16.0021   39.3186 C   0  0  0  0  0  0  0  0  0  0  0  0
    3.6235   14.8073   39.1673 C   0  0  0  0  0  0  0  0  0  0  0  0
    2.4260   14.5997   39.8573 N   0  0  0  0  0  0  0  0  0  0  0  0
    1.9244   15.5980   40.7062 C   0  0  0  0  0  0  0  0  0  0  0  0
    2.6161   16.7980   40.8604 C   0  0  0  0  0  0  0  0  0  0  0  0
    2.1149   17.7903   41.7091 C   0  0  0  0  0  0  0  0  0  0  0  0
    2.8434   18.8741   42.0100 N   0  0  0  0  0  0  0  0  0  0  0  0
    0.8887   17.6658   42.2267 N   0  0  0  0  0  0  0  0  0  0  0  0
    0.3760   18.5946   43.0533 C   0  0  0  0  0  0  0  0  0  0  0  0
   -0.7994   18.6776   43.6950 N   0  0  0  0  0  0  0  0  0  0  0  0
   -1.8864   17.6961   43.6313 C   0  0  0  0  0  0  0  0  0  0  0  0
   -0.8590   19.7149   44.3565 N   0  0  0  0  0  0  0  0  0  0  0  0
    0.2841   20.3895   44.1503 C   0  0  0  0  0  0  0  0  0  0  0  0
    1.0871   19.6787   43.3472 C   0  0  0  0  0  0  0  0  0  0  0  0
    2.3338   19.8212   42.8192 C   0  0  0  0  0  0  0  0  0  0  0  0
    3.0876   20.9117   43.1002 N   0  0  0  0  0  0  0  0  0  0  0  0
    4.3602   17.9388   40.2784 H   0  0  0  0  0  0  0  0  0  0  0  0
    5.2531   16.1678   38.7737 H   0  0  0  0  0  0  0  0  0  0  0  0
    4.0199   14.0238   38.5048 H   0  0  0  0  0  0  0  0  0  0  0  0
    0.9832   15.4331   41.2511 H   0  0  0  0  0  0  0  0  0  0  0  0
   -2.1874   17.4156   44.6514 H   0  0  0  0  0  0  0  0  0  0  0  0
   -2.7458   18.1345   43.1029 H   0  0  0  0  0  0  0  0  0  0  0  0
   -1.5416   16.8017   43.0917 H   0  0  0  0  0  0  0  0  0  0  0  0
    0.5243   21.3750   44.5759 H   0  0  0  0  0  0  0  0  0  0  0  0
    2.7173   21.6487   43.7171 H   0  0  0  0  0  0  0  0  0  0  0  0
    4.0309   21.0036   42.6969 H   0  0  0  0  0  0  0  0  0  0  0  0
  1  2  2  0
  1  6  1  0
  2  3  1  0
  3  4  2  0
  4  5  1  0
  5  6  2  0
  6  7  1  0
  7  8  2  0
  7  9  1  0
  8 16  1  0
  9 10  2  0
 10 11  1  0
 10 15  1  0
 11 12  1  0
 11 13  1  0
 13 14  2  0
 14 15  1  0
 15 16  2  0
 16 17  1  0
  1 18  1  0
  2 19  1  0
  3 20  1  0
  5 21  1  0
 12 22  1  0
 12 23  1  0
 12 24  1  0
 14 25  1  0
 17 26  1  0
 17 27  1  0
M  END
>  <mol_id>  (25) 
2026-09-18-6fnk-s0-n100-r1-0025

>  <rmsd_to_ref>  (25) 
1.556122448983589

>  <pose_kind>  (25) 
rigid

$$$$
6fnk.A
     RDKit          3D

 27 29  0  0  0  0  0  0  0  0999 V2000
    2.6727   15.6664   41.6118 C   0  0  0  0  0  0  0  0  0  0  0  0
    2.7272   14.2817   41.6547 C   0  0  0  0  0  0  0  0  0  0  0  0
    1.7364   13.5849   42.3430 C   0  0  0  0  0  0  0  0  0  0  0  0
    0.7322   14.2569   42.9623 N   0  0  0  0  0  0  0  0  0  0  0  0
    0.6701   15.6110   42.9262 C   0  0  0  0  0  0  0  0  0  0  0  0
    1.6455   16.3326   42.2466 C   0  0  0  0  0  0  0  0  0  0  0  0
    1.6006   17.7865   42.1936 C   0  0  0  0  0  0  0  0  0  0  0  0
    2.5356   18.5116   41.5402 N   0  0  0  0  0  0  0  0  0  0  0  0
    0.5931   18.4280   42.8168 N   0  0  0  0  0  0  0  0  0  0  0  0
    0.4467   19.7643   42.8369 C   0  0  0  0  0  0  0  0  0  0  0  0
   -0.4598   20.6005   43.3829 N   0  0  0  0  0  0  0  0  0  0  0  0
   -1.5901   20.1394   44.1492 C   0  0  0  0  0  0  0  0  0  0  0  0
   -0.1064   21.8593   43.0801 N   0  0  0  0  0  0  0  0  0  0  0  0
    1.0220   21.8225   42.3434 C   0  0  0  0  0  0  0  0  0  0  0  0
    1.4070   20.5069   42.1659 C   0  0  0  0  0  0  0  0  0  0  0  0
    2.4495   19.8635   41.5199 C   0  0  0  0  0  0  0  0  0  0  0  0
    3.4337   20.6460   40.8310 N   0  0  0  0  0  0  0  0  0  0  0  0
    3.4628   16.1626   41.0664 H   0  0  0  0  0  0  0  0  0  0  0  0
    3.5116   13.7199   41.1730 H   0  0  0  0  0  0  0  0  0  0  0  0
    1.7763   12.5042   42.3781 H   0  0  0  0  0  0  0  0  0  0  0  0
   -0.1577   16.1210   43.4393 H   0  0  0  0  0  0  0  0  0  0  0  0
   -2.3566   20.9323   44.2343 H   0  0  0  0  0  0  0  0  0  0  0  0
   -2.0447   19.2184   43.7097 H   0  0  0  0  0  0  0  0  0  0  0  0
   -1.2807   19.8847   45.1991 H   0  0  0  0  0  0  0  0  0  0  0  0
    1.5765   22.6507   41.9333 H   0  0  0  0  0  0  0  0  0  0  0  0
    4.0598   20.1549   40.1600 H   0  0  0  0  0  0  0  0  0  0  0  0
    3.4954   21.6625   41.0157 H   0  0  0  0  0  0  0  0  0  0  0  0
  1  2  2  0
  1  6  1  0
  2  3  1  0
  3  4  2  0
  4  5  1  0
  5  6  2  0
  6  7  1  0
  7  8  2  0
  7  9  1  0
  8 16  1  0
  9 10  2  0
 10 11  1  0
 10 15  1  0
 11 12  1  0
 11 13  1  0
 13 14  2  0
 14 15  1  0
 15 16  2  0
 16 17  1  0
  1 18  1  0
  2 19  1  0
  3 20  1  0
  5 21  1  0
 12 22  1  0
 12 23  1  0
 12 24  1  0
 14 25  1  0
 17 26  1  0
 17 27  1  0
M  END
>  <mol_id>  (26) 
2026-09-18-6fnk-s0-n100-r1-0026

>  <rmsd_to_ref>  (26) 
1.6020408163286686

>  <pose_kind>  (26) 
conformer

$$$$
6fnk.A
     RDKit          3D

 27 29  0  0  0  0  0  0  0  0999 V2000
    4.5109   16.0311   41.8841 C   0  0  0  0  0  0  0  0  0  0  0  0
    5.1662   14.7997   41.8919 C   0  0  0  0  0  0  0  0  0  0  0  0
    4.4826   13.6536   42.2710 C   0  0  0  0  0  0  0  0  0  0  0  0
    3.1373   13.7336   42.6409 N   0  0  0  0  0  0  0  0  0  0  0  0
    2.4812   14.9739   42.6336 C   0  0  0  0  0  0  0  0  0  0  0  0
    3.1674   16.1262   42.2548 C   0  0  0  0  0  0  0  0  0  0  0  0
    2.5114   17.3615   42.2508 C   0  0  0  0  0  0  0  0  0  0  0  0
    3.1888   18.5024   42.0621 N   0  0  0  0  0  0  0  0  0  0  0  0
    1.1877   17.4124   42.4307 N   0  0  0  0  0  0  0  0  0  0  0  0
    0.5234   18.5817   42.4418 C   0  0  0  0  0  0  0  0  0  0  0  0
   -0.7735   18.8781   42.6165 N   0  0  0  0  0  0  0  0  0  0  0  0
   -1.8534   17.9142   42.8484 C   0  0  0  0  0  0  0  0  0  0  0  0
   -0.9524   20.0948   42.5469 N   0  0  0  0  0  0  0  0  0  0  0  0
    0.2370   20.6619   42.2864 C   0  0  0  0  0  0  0  0  0  0  0  0
    1.1858   19.7170   42.2431 C   0  0  0  0  0  0  0  0  0  0  0  0
    2.5328   19.6776   42.0499 C   0  0  0  0  0  0  0  0  0  0  0  0
    3.2401   20.8157   41.8480 N   0  0  0  0  0  0  0  0  0  0  0  0
    5.0578   16.9368   41.5829 H   0  0  0  0  0  0  0  0  0  0  0  0
    6.2243   14.7375   41.5977 H   0  0  0  0  0  0  0  0  0  0  0  0
    4.9992   12.6825   42.2804 H   0  0  0  0  0  0  0  0  0  0  0  0
    1.4230   15.0368   42.9274 H   0  0  0  0  0  0  0  0  0  0  0  0
   -2.4249   18.2114   43.7401 H   0  0  0  0  0  0  0  0  0  0  0  0
   -2.5212   17.8946   41.9745 H   0  0  0  0  0  0  0  0  0  0  0  0
   -1.4243   16.9134   43.0046 H   0  0  0  0  0  0  0  0  0  0  0  0
    0.4061   21.7378   42.1321 H   0  0  0  0  0  0  0  0  0  0  0  0
    2.7583   21.7260   41.8348 H   0  0  0  0  0  0  0  0  0  0  0  0
    4.2595   20.7705   41.7077 H   0  0  0  0  0  0  0  0  0  0  0  0
  1  2  2  0
  1  6  1  0
  2  3  1  0
  3  4  2  0
  4  5  1  0
  5  6  2  0
  6  7  1  0
  7  8  2  0
  7  9  1  0
  8 16  1  0
  9 10  2  0
 10 11  1  0
 10 15  1  0
 11 12  1  0
 11 13  1  0
 13 14  2  0
 14 15  1  0
 15 16  2  0
 16 17  1  0
  1 18  1  0
  2 19  1  0
  3 20  1  0
  5 21  1  0
 12 22  1  0
 12 23  1  0
 12 24  1  0
 14 25  1  0
 17 26  1  0
 17 27  1  0
M  END
>  <mol_id>  (27) 
2026-09-18-6fnk-s0-n100-r1-0027

>  <rmsd_to_ref>  (27) 
1.6479591836748524

>  <pose_kind>  (27) 
rigid

$$$$
6fnk.A
     RDKit          3D

 27 29  0  0  0  0  0  0  0  0999 V2000
    3.0155   17.2039   39.7541 C   0  0  0  0  0  0  0  0  0  0  0  0
    3.6977   16.3653   38.8811 C   0  0  0  0  0  0  0  0  0  0  0  0
    4.2542   15.1759   39.3584 C   0  0  0  0  0  0  0  0  0  0  0  0
    4.1251   14.8509   40.6623 N   0  0  0  0  0  0  0  0  0  0  0  0
    3.4634   15.6579   41.5245 C   0  0  0  0  0  0  0  0  0  0  0  0
    2.8996   16.8388   41.0974 C   0  0  0  0  0  0  0  0  0  0  0  0
    2.1756   17.7436   41.9897 C   0  0  0  0  0  0  0  0  0  0  0  0
    1.6289   18.8973   41.5555 N   0  0  0  0  0  0  0  0  0  0  0  0
    2.0536   17.4078   43.2892 N   0  0  0  0  0  0  0  0  0  0  0  0
    1.4026   18.1852   44.1764 C   0  0  0  0  0  0  0  0  0  0  0  0
    1.1482   18.0828   45.4794 N   0  0  0  0  0  0  0  0  0  0  0  0
    1.5454   17.0003   46.3699 C   0  0  0  0  0  0  0  0  0  0  0  0
    0.4533   19.1446   45.8804 N   0  0  0  0  0  0  0  0  0  0  0  0
    0.2375   19.9696   44.8390 C   0  0  0  0  0  0  0  0  0  0  0  0
    0.8297   19.3771   43.7620 C   0  0  0  0  0  0  0  0  0  0  0  0
    0.9623   19.7151   42.4127 C   0  0  0  0  0  0  0  0  0  0  0  0
    0.3927   20.9277   41.9359 N   0  0  0  0  0  0  0  0  0  0  0  0
    2.5689   18.1326   39.4322 H   0  0  0  0  0  0  0  0  0  0  0  0
    3.7786   16.6622   37.8443 H   0  0  0  0  0  0  0  0  0  0  0  0
    4.7775   14.5530   38.6404 H   0  0  0  0  0  0  0  0  0  0  0  0
    3.3669   15.3854   42.5685 H   0  0  0  0  0  0  0  0  0  0  0  0
    1.4586   16.0345   45.8680 H   0  0  0  0  0  0  0  0  0  0  0  0
    2.6114   17.1905   46.6841 H   0  0  0  0  0  0  0  0  0  0  0  0
    0.9447   17.0057   47.3021 H   0  0  0  0  0  0  0  0  0  0  0  0
   -0.2940   20.9069   44.8514 H   0  0  0  0  0  0  0  0  0  0  0  0
    0.9417   21.6554   41.4174 H   0  0  0  0  0  0  0  0  0  0  0  0
   -0.6413   21.0590   42.1378 H   0  0  0  0  0  0  0  0  0  0  0  0
  1  2  2  0
  1  6  1  0
  2  3  1  0
  3  4  2  0
  4  5  1  0
  5  6  2  0
  6  7  1  0
  7  8  2  0
  7  9  1  0
  8 16  1  0
  9 10  2  0
 10 11  1  0
 10 15  1  0
 11 12  1  0
 11 13  1  0
 13 14  2  0
 14 15  1  0
 15 16  2  0
 16 17  1  0
  1 18  1  0
  2 19  1  0
  3 20  1  0
  5 21  1  0
 12 22  1  0
 12 23  1  0
 12 24  1  0
 14 25  1  0
 17 26  1  0
 17 27  1  0
M  END
>  <mol_id>  (28) 
2026-09-18-6fnk-s0-n100-r1-0028

>  <rmsd_to_ref>  (28) 
1.6938775510222035

>  <pose_kind>  (28) 
conformer

$$$$
6fnk.A
     RDKit          3D

 27 29  0  0  0  0  0  0  0  0999 V2000
    3.8499   16.3223   41.3483 C   0  0  0  0  0  0  0  0  0  0  0  0
    4.7893   15.3326   41.6377 C   0  0  0  0  0  0  0  0  0  0  0  0
    4.6971   14.6148   42.8212 C   0  0  0  0  0  0  0  0  0  0  0  0
    3.6609   14.8815   43.7203 N   0  0  0  0  0  0  0  0  0  0  0  0
    2.7183   15.8787   43.4272 C   0  0  0  0  0  0  0  0  0  0  0  0
    2.8110   16.6018   42.2394 C   0  0  0  0  0  0  0  0  0  0  0  0
    1.8714   17.5968   41.9511 C   0  0  0  0  0  0  0  0  0  0  0  0
    2.0369   18.4212   40.9075 N   0  0  0  0  0  0  0  0  0  0  0  0
    0.7858   17.7295   42.7198 N   0  0  0  0  0  0  0  0  0  0  0  0
   -0.1352   18.6796   42.4792 C   0  0  0  0  0  0  0  0  0  0  0  0
   -1.2735   19.0091   43.1083 N   0  0  0  0  0  0  0  0  0  0  0  0
   -1.8224   18.3496   44.2970 C   0  0  0  0  0  0  0  0  0  0  0  0
   -1.8222   19.9557   42.5426 N   0  0  0  0  0  0  0  0  0  0  0  0
   -1.0710   20.2770   41.4764 C   0  0  0  0  0  0  0  0  0  0  0  0
    0.0151   19.4935   41.4389 C   0  0  0  0  0  0  0  0  0  0  0  0
    1.1120   19.3626   40.6434 C   0  0  0  0  0  0  0  0  0  0  0  0
    1.2988   20.1774   39.5767 N   0  0  0  0  0  0  0  0  0  0  0  0
    3.9279   16.8886   40.4085 H   0  0  0  0  0  0  0  0  0  0  0  0
    5.6028   15.1214   40.9279 H   0  0  0  0  0  0  0  0  0  0  0  0
    5.4391   13.8361   43.0519 H   0  0  0  0  0  0  0  0  0  0  0  0
    1.9045   16.0902   44.1364 H   0  0  0  0  0  0  0  0  0  0  0  0
   -2.0445   19.1046   45.0655 H   0  0  0  0  0  0  0  0  0  0  0  0
   -2.7468   17.8179   44.0273 H   0  0  0  0  0  0  0  0  0  0  0  0
   -1.0877   17.6315   44.6900 H   0  0  0  0  0  0  0  0  0  0  0  0
   -1.3110   21.0634   40.7457 H   0  0  0  0  0  0  0  0  0  0  0  0
    0.6036   20.9047   39.3563 H   0  0  0  0  0  0  0  0  0  0  0  0
    2.1360   20.0694   38.9865 H   0  0  0  0  0  0  0  0  0  0  0  0
  1  2  2  0
  1  6  1  0
  2  3  1  0
  3  4  2  0
  4  5  1  0
  5  6  2  0
  6  7  1  0
  7  8  2  0
  7  9  1  0
  8 16  1  0
  9 10  2  0
 10 11  1  0
 10 15  1  0
 11 12  1  0
 11 13  1  0
 13 14  2  0
 14 15  1  0
 15 16  2  0
 16 17  1  0
  1 18  1  0
  2 19  1  0
  3 20  1  0
  5 21  1  0
 12 22  1  0
 12 23  1  0
 12 24  1  0
 14 25  1  0
 17 26  1  0
 17 27  1  0
M  END
>  <mol_id>  (29) 
2026-09-18-6fnk-s0-n100-r1-0029

>  <rmsd_to_ref>  (29) 
1.739795918372662

>  <pose_kind>  (29) 
rigid

$$$$
6fnk.A
     RDKit          3D

 27 29  0  0  0  0  0  0  0  0999 V2000
    2.9477   15.5308   43.2414 C   0  0  0  0  0  0  0  0  0  0  0  0
    3.8426   14.4893   43.2399 C   0  0  0  0  0  0  0  0  0  0  0  0
    5.0462   14.5100   42.5675 C   0  0  0  0  0  0  0  0  0  0  0  0
    5.3531   15.6309   41.8700 N   0  0  0  0  0  0  0  0  0  0  0  0
    4.4866   16.6800   41.8522 C   0  0  0  0  0  0  0  0  0  0  0  0
    3.2957   16.6574   42.5185 C   0  0  0  0  0  0  0  0  0  0  0  0
    2.3833   17.7958   42.4838 C   0  0  0  0  0  0  0  0  0  0  0  0
    2.7029   18.8994   41.7873 N   0  0  0  0  0  0  0  0  0  0  0  0
    1.2163   17.7550   43.1455 N   0  0  0  0  0  0  0  0  0  0  0  0
    0.3488   18.7832   43.1381 C   0  0  0  0  0  0  0  0  0  0  0  0
   -0.8583   18.9645   43.7171 N   0  0  0  0  0  0  0  0  0  0  0  0
   -1.5688   18.0263   44.5508 C   0  0  0  0  0  0  0  0  0  0  0  0
   -1.2620   20.1721   43.3698 N   0  0  0  0  0  0  0  0  0  0  0  0
   -0.3590   20.7835   42.5843 C   0  0  0  0  0  0  0  0  0  0  0  0
    0.6919   19.9032   42.4210 C   0  0  0  0  0  0  0  0  0  0  0  0
    1.8921   19.9734   41.7271 C   0  0  0  0  0  0  0  0  0  0  0  0
    2.2185   21.1511   40.9919 N   0  0  0  0  0  0  0  0  0  0  0  0
    1.9941   15.4903   43.7855 H   0  0  0  0  0  0  0  0  0  0  0  0
    3.5683   13.6040   43.8084 H   0  0  0  0  0  0  0  0  0  0  0  0
    5.7376   13.6715   42.5824 H   0  0  0  0  0  0  0  0  0  0  0  0
    4.7805   17.5373   41.2861 H   0  0  0  0  0  0  0  0  0  0  0  0
   -2.2411   17.4174   43.9111 H   0  0  0  0  0  0  0  0  0  0  0  0
   -0.8433   17.3407   45.0686 H   0  0  0  0  0  0  0  0  0  0  0  0
   -2.1162   18.5481   45.3687 H   0  0  0  0  0  0  0  0  0  0  0  0
   -0.4590   21.7803   42.1692 H   0  0  0  0  0  0  0  0  0  0  0  0
    2.5352   21.1274   39.9977 H   0  0  0  0  0  0  0  0  0  0  0  0
    2.1499   22.1091   41.4370 H   0  0  0  0  0  0  0  0  0  0  0  0
  1  2  2  0
  1  6  1  0
  2  3  1  0
  3  4  2  0
  4  5  1  0
  5  6  2  0
  6  7  1  0
  7  8  2  0
  7  9  1  0
  8 16  1  0
  9 10  2  0
 10 11  1  0
 10 15  1  0
 11 12  1  0
 11 13  1  0
 13 14  2  0
 14 15  1  0
 15 16  2  0
 16 17  1  0
  1 18  1  0
  2 19  1  0
  3 20  1  0
  5 21  1  0
 12 22  1  0
 12 23  1  0
 12 24  1  0
 14 25  1  0
 17 26  1  0
 17 27  1  0
M  END
>  <mol_id>  (30) 
2026-09-18-6fnk-s0-n100-r1-0030

>  <rmsd_to_ref>  (30) 
1.7857142857192132

>  <pose_kind>  (30) 
conformer

$$$$
6fnk.A
     RDKit          3D

 27 29  0  0  0  0  0  0  0  0999 V2000
    0.4619   15.0546   40.6876 C   0  0  0  0  0  0  0  0  0  0  0  0
    0.9043   13.8162   40.2222 C   0  0  0  0  0  0  0  0  0  0  0  0
    1.8495   13.1022   40.9442 C   0  0  0  0  0  0  0  0  0  0  0  0
    2.3545   13.6228   42.1389 N   0  0  0  0  0  0  0  0  0  0  0  0
    1.9087   14.8694   42.6037 C   0  0  0  0  0  0  0  0  0  0  0  0
    0.9606   15.5885   41.8783 C   0  0  0  0  0  0  0  0  0  0  0  0
    0.5199   16.8319   42.3429 C   0  0  0  0  0  0  0  0  0  0  0  0
   -0.2535   17.6187   41.5822 N   0  0  0  0  0  0  0  0  0  0  0  0
    0.8660   17.2458   43.5660 N   0  0  0  0  0  0  0  0  0  0  0  0
    0.4689   18.4386   44.0440 C   0  0  0  0  0  0  0  0  0  0  0  0
    0.6987   19.0626   45.2093 N   0  0  0  0  0  0  0  0  0  0  0  0
    1.4965   18.5406   46.3229 C   0  0  0  0  0  0  0  0  0  0  0  0
    0.1328   20.1563   45.2334 N   0  0  0  0  0  0  0  0  0  0  0  0
   -0.5340   20.2896   44.0750 C   0  0  0  0  0  0  0  0  0  0  0  0
   -0.3086   19.2198   43.3008 C   0  0  0  0  0  0  0  0  0  0  0  0
   -0.6752   18.8054   42.0568 C   0  0  0  0  0  0  0  0  0  0  0  0
   -1.4638   19.5778   41.2708 N   0  0  0  0  0  0  0  0  0  0  0  0
   -0.2876   15.6166   40.1110 H   0  0  0  0  0  0  0  0  0  0  0  0
    0.5040   13.4061   39.2833 H   0  0  0  0  0  0  0  0  0  0  0  0
    2.2013   12.1270   40.5766 H   0  0  0  0  0  0  0  0  0  0  0  0
    2.3084   15.2800   43.5427 H   0  0  0  0  0  0  0  0  0  0  0  0
    2.2460   19.2892   46.6196 H   0  0  0  0  0  0  0  0  0  0  0  0
    0.8372   18.3237   47.1763 H   0  0  0  0  0  0  0  0  0  0  0  0
    2.0051   17.6173   46.0085 H   0  0  0  0  0  0  0  0  0  0  0  0
   -1.1683   21.1463   43.8036 H   0  0  0  0  0  0  0  0  0  0  0  0
   -1.7979   20.4897   41.6141 H   0  0  0  0  0  0  0  0  0  0  0  0
   -1.7293   19.2530   40.3301 H   0  0  0  0  0  0  0  0  0  0  0  0
  1  2  2  0
  1  6  1  0
  2  3  1  0
  3  4  2  0
  4  5  1  0
  5  6  2  0
  6  7  1  0
  7  8  2  0
  7  9  1  0
  8 16  1  0
  9 10  2  0
 10 11  1  0
 10 15  1  0
 11 12  1  0
 11 13  1  0
 13 14  2  0
 14 15  1  0
 15 16  2  0
 16 17  1  0
  1 18  1  0
  2 19  1  0
  3 20  1  0
  5 21  1  0
 12 22  1  0
 12 23  1  0
 12 24  1  0
 14 25  1  0
 17 26  1  0
 17 27  1  0
M  END
>  <mol_id>  (31) 
2026-09-18-6fnk-s0-n100-r1-0031

>  <rmsd_to_ref>  (31) 
1.8316326530653428

>  <pose_kind>  (31) 
rigid

$$$$
6fnk.A
     RDKit          3D

 27 29  0  0  0  0  0  0  0  0999 V2000
    2.7466   15.2231   41.5047 C   0  0  0  0  0  0  0  0  0  0  0  0
    3.0006   13.8997   41.8756 C   0  0  0  0  0  0  0  0  0  0  0  0
    2.6075   13.4537   43.1414 C   0  0  0  0  0  0  0  0  0  0  0  0
    1.9953   14.3110   43.9682 N   0  0  0  0  0  0  0  0  0  0  0  0
    1.7351   15.5913   43.6438 C   0  0  0  0  0  0  0  0  0  0  0  0
    2.1131   16.0617   42.3959 C   0  0  0  0  0  0  0  0  0  0  0  0
    1.8449   17.4498   42.0113 C   0  0  0  0  0  0  0  0  0  0  0  0
    2.2149   17.9092   40.7905 N   0  0  0  0  0  0  0  0  0  0  0  0
    1.2214   18.2622   42.8979 N   0  0  0  0  0  0  0  0  0  0  0  0
    0.9497   19.5447   42.5995 C   0  0  0  0  0  0  0  0  0  0  0  0
    0.3624   20.5692   43.2435 N   0  0  0  0  0  0  0  0  0  0  0  0
   -0.1850   20.5032   44.5969 C   0  0  0  0  0  0  0  0  0  0  0  0
    0.3507   21.6546   42.4707 N   0  0  0  0  0  0  0  0  0  0  0  0
    0.9357   21.3776   41.2809 C   0  0  0  0  0  0  0  0  0  0  0  0
    1.3217   20.0412   41.3466 C   0  0  0  0  0  0  0  0  0  0  0  0
    1.9646   19.2003   40.4348 C   0  0  0  0  0  0  0  0  0  0  0  0
    2.3463   19.6990   39.1572 N   0  0  0  0  0  0  0  0  0  0  0  0
    3.0650   15.5361   40.5149 H   0  0  0  0  0  0  0  0  0  0  0  0
    3.4979   13.2121   41.1974 H   0  0  0  0  0  0  0  0  0  0  0  0
    2.7857   12.4382   43.4659 H   0  0  0  0  0  0  0  0  0  0  0  0
    1.2347   16.2233   44.3705 H   0  0  0  0  0  0  0  0  0  0  0  0
   -0.8433   19.6118   44.7442 H   0  0  0  0  0  0  0  0  0  0  0  0
   -0.8002   21.3841   44.7895 H   0  0  0  0  0  0  0  0  0  0  0  0
    0.6405   20.3895   45.3391 H   0  0  0  0  0  0  0  0  0  0  0  0
    1.0686   22.0607   40.4604 H   0  0  0  0  0  0  0  0  0  0  0  0
    1.6309   19.9478   38.4134 H   0  0  0  0  0  0  0  0  0  0  0  0
    3.3534   19.8135   38.9721 H   0  0  0  0  0  0  0  0  0  0  0  0
  1  2  2  0
  1  6  1  0
  2  3  1  0
  3  4  2  0
  4  5  1  0
  5  6  2  0
  6  7  1  0
  7  8  2  0
  7  9  1  0
  8 16  1  0
  9 10  2  0
 10 11  1  0
 10 15  1  0
 11 12  1  0
 11 13  1  0
 13 14  2  0
 14 15  1  0
 15 16  2  0
 16 17  1  0
  1 18  1  0
  2 19  1  0
  3 20  1  0
  5 21  1  0
 12 22  1  0
 12 23  1  0
 12 24  1  0
 14 25  1  0
 17 26  1  0
 17 27  1  0
M  END
>  <mol_id>  (32) 
2026-09-18-6fnk-s0-n100-r1-0032

>  <rmsd_to_ref>  (32) 
1.8775510204098973

>  <pose_kind>  (32) 
conformer

$$$$
6fnk.A
     RDKit          3D

 27 29  0  0  0  0  0  0  0  0999 V2000
    4.3242   17.3866   41.4663 C   0  0  0  0  0  0  0  0  0  0  0  0
    5.3819   16.4803   41.5425 C   0  0  0  0  0  0  0  0  0  0  0  0
    5.2211   15.2839   42.2260 C   0  0  0  0  0  0  0  0  0  0  0  0
    3.9985   14.9863   42.8341 N   0  0  0  0  0  0  0  0  0  0  0  0
    2.9369   15.9006   42.7571 C   0  0  0  0  0  0  0  0  0  0  0  0
    3.0978   17.1037   42.0724 C   0  0  0  0  0  0  0  0  0  0  0  0
    2.0385   18.0141   41.9993 C   0  0  0  0  0  0  0  0  0  0  0  0
    2.2194   19.2454   41.5021 N   0  0  0  0  0  0  0  0  0  0  0  0
    0.8227   17.6555   42.4240 N   0  0  0  0  0  0  0  0  0  0  0  0
   -0.2181   18.5061   42.3777 C   0  0  0  0  0  0  0  0  0  0  0  0
   -1.5002   18.3803   42.7529 N   0  0  0  0  0  0  0  0  0  0  0  0
   -2.1116   17.1854   43.3423 C   0  0  0  0  0  0  0  0  0  0  0  0
   -2.1213   19.4195   42.5262 N   0  0  0  0  0  0  0  0  0  0  0  0
   -1.2666   20.2814   41.9510 C   0  0  0  0  0  0  0  0  0  0  0  0
   -0.0502   19.7250   41.8746 C   0  0  0  0  0  0  0  0  0  0  0  0
    1.1812   20.0989   41.4307 C   0  0  0  0  0  0  0  0  0  0  0  0
    1.3890   21.3349   40.9153 N   0  0  0  0  0  0  0  0  0  0  0  0
    4.4573   18.3339   40.9233 H   0  0  0  0  0  0  0  0  0  0  0  0
    6.3429   16.7142   41.0610 H   0  0  0  0  0  0  0  0  0  0  0  0
    6.0555   14.5698   42.2893 H   0  0  0  0  0  0  0  0  0  0  0  0
    1.9756   15.6672   43.2382 H   0  0  0  0  0  0  0  0  0  0  0  0
   -2.6357   17.4610   44.2694 H   0  0  0  0  0  0  0  0  0  0  0  0
   -2.8293   16.7516   42.6305 H   0  0  0  0  0  0  0  0  0  0  0  0
   -1.3286   16.4469   43.5695 H   0  0  0  0  0  0  0  0  0  0  0  0
   -1.5258   21.2900   41.5967 H   0  0  0  0  0  0  0  0  0  0  0  0
    0.6086   22.0041   40.8512 H   0  0  0  0  0  0  0  0  0  0  0  0
    2.3273   21.6051   40.5875 H   0  0  0  0  0  0  0  0  0  0  0  0
  1  2  2  0
  1  6  1  0
  2  3  1  0
  3  4  2  0
  4  5  1  0
  5  6  2  0
  6  7  1  0
  7  8  2  0
  7  9  1  0
  8 16  1  0
  9 10  2  0
 10 11  1  0
 10 15  1  0
 11 12  1  0
 11 13  1  0
 13 14  2  0
 14 15  1  0
 15 16  2  0
 16 17  1  0
  1 18  1  0
  2 19  1  0
  3 20  1  0
  5 21  1  0
 12 22  1  0
 12 23  1  0
 12 24  1  0
 14 25  1  0
 17 26  1  0
 17 27  1  0
M  END
>  <mol_id>  (33) 
2026-09-18-6fnk-s0-n100-r1-0033

>  <rmsd_to_ref>  (33) 
1.9234693877553672

>  <pose_kind>  (33) 
rigid

$$$$
6fnk.A
     RDKit          3D

 27 29  0  0  0  0  0  0  0  0999 V2000
    3.4509   17.6785   40.2973 C   0  0  0  0  0  0  0  0  0  0  0  0
    4.2730   16.9413   39.4677 C   0  0  0  0  0  0  0  0  0  0  0  0
    4.0058   15.5914   39.2382 C   0  0  0  0  0  0  0  0  0  0  0  0
    2.9501   14.9769   39.8135 N   0  0  0  0  0  0  0  0  0  0  0  0
    2.1490   15.6984   40.6230 C   0  0  0  0  0  0  0  0  0  0  0  0
    2.3765   17.0364   40.8775 C   0  0  0  0  0  0  0  0  0  0  0  0
    1.5052   17.8138   41.7555 C   0  0  0  0  0  0  0  0  0  0  0  0
    1.7004   19.1082   42.0200 N   0  0  0  0  0  0  0  0  0  0  0  0
    0.4553   17.1887   42.3232 N   0  0  0  0  0  0  0  0  0  0  0  0
   -0.3891   17.8284   43.1385 C   0  0  0  0  0  0  0  0  0  0  0  0
   -1.4786   17.4020   43.7974 N   0  0  0  0  0  0  0  0  0  0  0  0
   -2.0191   16.0531   43.7670 C   0  0  0  0  0  0  0  0  0  0  0  0
   -1.9589   18.4336   44.4708 N   0  0  0  0  0  0  0  0  0  0  0  0
   -1.2136   19.5407   44.2761 C   0  0  0  0  0  0  0  0  0  0  0  0
   -0.1940   19.1723   43.4186 C   0  0  0  0  0  0  0  0  0  0  0  0
    0.8841   19.8048   42.8328 C   0  0  0  0  0  0  0  0  0  0  0  0
    1.1102   21.1871   43.1023 N   0  0  0  0  0  0  0  0  0  0  0  0
    3.6855   18.7227   40.4544 H   0  0  0  0  0  0  0  0  0  0  0  0
    5.1439   17.4040   38.9792 H   0  0  0  0  0  0  0  0  0  0  0  0
    4.6534   15.0114   38.5849 H   0  0  0  0  0  0  0  0  0  0  0  0
    1.2848   15.2223   41.1023 H   0  0  0  0  0  0  0  0  0  0  0  0
   -1.2343   15.3315   44.0774 H   0  0  0  0  0  0  0  0  0  0  0  0
   -2.3773   15.7494   42.7636 H   0  0  0  0  0  0  0  0  0  0  0  0
   -2.9015   16.0128   44.4663 H   0  0  0  0  0  0  0  0  0  0  0  0
   -1.3452   20.5328   44.6835 H   0  0  0  0  0  0  0  0  0  0  0  0
    0.2759   21.8455   43.1362 H   0  0  0  0  0  0  0  0  0  0  0  0
    2.0865   21.5726   43.2691 H   0  0  0  0  0  0  0  0  0  0  0  0
  1  2  2  0
  1  6  1  0
  2  3  1  0
  3  4  2  0
  4  5  1  0
  5  6  2  0
  6  7  1  0
  7  8  2  0
  7  9  1  0
  8 16  1  0
  9 10  2  0
 10 11  1  0
 10 15  1  0
 11 12  1  0
 11 13  1  0
 13 14  2  0
 14 15  1  0
 15 16  2  0
 16 17  1  0
  1 18  1  0
  2 19  1  0
  3 20  1  0
  5 21  1  0
 12 22  1  0
 12 23  1  0
 12 24  1  0
 14 25  1  0
 17 26  1  0
 17 27  1  0
M  END
>  <mol_id>  (34) 
2026-09-18-6fnk-s0-n100-r1-0034

>  <rmsd_to_ref>  (34) 
1.9693877551054824

>  <pose_kind>  (34) 
conformer

$$$$
6fnk.A
     RDKit          3D

 27 29  0  0  0  0  0  0  0  0999 V2000
    4.1476   16.8803   40.5409 C   0  0  0  0  0  0  0  0  0  0  0  0
    4.8112   16.1390   39.5631 C   0  0  0  0  0  0  0  0  0  0  0  0
    4.3590   14.8706   39.2296 C   0  0  0  0  0  0  0  0  0  0  0  0
    3.2370   14.3386   39.8709 N   0  0  0  0  0  0  0  0  0  0  0  0
    2.5726   15.0860   40.8552 C   0  0  0  0  0  0  0  0  0  0  0  0
    3.0270   16.3596   41.1925 C   0  0  0  0  0  0  0  0  0  0  0  0
    2.3641   17.1012   42.1756 C   0  0  0  0  0  0  0  0  0  0  0  0
    2.8797   18.2474   42.6409 N   0  0  0  0  0  0  0  0  0  0  0  0
    1.1947   16.6699   42.6588 N   0  0  0  0  0  0  0  0  0  0  0  0
    0.5321   17.3511   43.6106 C   0  0  0  0  0  0  0  0  0  0  0  0
   -0.6243   17.1124   44.2478 N   0  0  0  0  0  0  0  0  0  0  0  0
   -1.5063   15.9621   44.0294 C   0  0  0  0  0  0  0  0  0  0  0  0
   -0.8660   18.0098   45.0562 N   0  0  0  0  0  0  0  0  0  0  0  0
    0.1238   18.9129   44.9624 C   0  0  0  0  0  0  0  0  0  0  0  0
    1.0304   18.4952   44.0688 C   0  0  0  0  0  0  0  0  0  0  0  0
    2.2163   18.9495   43.5782 C   0  0  0  0  0  0  0  0  0  0  0  0
    2.7550   20.1099   44.0250 N   0  0  0  0  0  0  0  0  0  0  0  0
    4.5106   17.8854   40.8016 H   0  0  0  0  0  0  0  0  0  0  0  0
    5.6924   16.5599   39.0568 H   0  0  0  0  0  0  0  0  0  0  0  0
    4.8832   14.2840   38.4608 H   0  0  0  0  0  0  0  0  0  0  0  0
    1.6912   14.6658   41.3617 H   0  0  0  0  0  0  0  0  0  0  0  0
   -1.7276   15.4814   44.9937 H   0  0  0  0  0  0  0  0  0  0  0  0
   -2.4440   16.3018   43.5653 H   0  0  0  0  0  0  0  0  0  0  0  0
   -1.0092   15.2398   43.3652 H   0  0  0  0  0  0  0  0  0  0  0  0
    0.1813   19.8520   45.5322 H   0  0  0  0  0  0  0  0  0  0  0  0
    2.2643   20.6631   44.7420 H   0  0  0  0  0  0  0  0  0  0  0  0
    3.6553   20.4386   43.6477 H   0  0  0  0  0  0  0  0  0  0  0  0
  1  2  2  0
  1  6  1  0
  2  3  1  0
  3  4  2  0
  4  5  1  0
  5  6  2  0
  6  7  1  0
  7  8  2  0
  7  9  1  0
  8 16  1  0
  9 10  2  0
 10 11  1  0
 10 15  1  0
 11 12  1  0
 11 13  1  0
 13 14  2  0
 14 15  1  0
 15 16  2  0
 16 17  1  0
  1 18  1  0
  2 19  1  0
  3 20  1  0
  5 21  1  0
 12 22  1  0
 12 23  1  0
 12 24  1  0
 14 25  1  0
 17 26  1  0
 17 27  1  0
M  END
>  <mol_id>  (35) 
2026-09-18-6fnk-s0-n100-r1-0035

>  <rmsd_to_ref>  (35) 
2.0153061224530773

>  <pose_kind>  (35) 
rigid

$$$$
6fnk.A
     RDKit          3D

 27 29  0  0  0  0  0  0  0  0999 V2000
    1.2658   14.7858   41.1889 C   0  0  0  0  0  0  0  0  0  0  0  0
    0.9934   13.4254   41.1524 C   0  0  0  0  0  0  0  0  0  0  0  0
    0.1009   12.9107   42.0844 C   0  0  0  0  0  0  0  0  0  0  0  0
   -0.4959   13.6976   43.0094 N   0  0  0  0  0  0  0  0  0  0  0  0
   -0.2187   15.0160   43.0289 C   0  0  0  0  0  0  0  0  0  0  0  0
    0.6584   15.5779   42.1280 C   0  0  0  0  0  0  0  0  0  0  0  0
    0.9735   17.0200   42.1352 C   0  0  0  0  0  0  0  0  0  0  0  0
    1.8367   17.5473   41.2415 N   0  0  0  0  0  0  0  0  0  0  0  0
    0.3868   17.8302   43.0542 N   0  0  0  0  0  0  0  0  0  0  0  0
    0.6824   19.1549   43.0534 C   0  0  0  0  0  0  0  0  0  0  0  0
    0.2885   20.1989   43.8039 N   0  0  0  0  0  0  0  0  0  0  0  0
   -0.6507   20.1287   44.9104 C   0  0  0  0  0  0  0  0  0  0  0  0
    0.8926   21.3180   43.3787 N   0  0  0  0  0  0  0  0  0  0  0  0
    1.6949   21.0226   42.3385 C   0  0  0  0  0  0  0  0  0  0  0  0
    1.5703   19.6847   42.1309 C   0  0  0  0  0  0  0  0  0  0  0  0
    2.1569   18.8464   41.2045 C   0  0  0  0  0  0  0  0  0  0  0  0
    3.0811   19.3072   40.2200 N   0  0  0  0  0  0  0  0  0  0  0  0
    1.9597   15.1985   40.4676 H   0  0  0  0  0  0  0  0  0  0  0  0
    1.4595   12.7621   40.4170 H   0  0  0  0  0  0  0  0  0  0  0  0
   -0.0910   11.8337   42.0271 H   0  0  0  0  0  0  0  0  0  0  0  0
   -0.7028   15.6340   43.7738 H   0  0  0  0  0  0  0  0  0  0  0  0
   -0.3089   19.3891   45.6423 H   0  0  0  0  0  0  0  0  0  0  0  0
   -1.6939   19.9353   44.5478 H   0  0  0  0  0  0  0  0  0  0  0  0
   -0.6943   21.1155   45.4265 H   0  0  0  0  0  0  0  0  0  0  0  0
    2.3189   21.7204   41.7770 H   0  0  0  0  0  0  0  0  0  0  0  0
    4.0564   19.5619   40.5068 H   0  0  0  0  0  0  0  0  0  0  0  0
    2.7786   19.3898   39.2059 H   0  0  0  0  0  0  0  0  0  0  0  0
  1  2  2  0
  1  6  1  0
  2  3  1  0
  3  4  2  0
  4  5  1  0
  5  6  2  0
  6  7  1  0
  7  8  2  0
  7  9  1  0
  8 16  1  0
  9 10  2  0
 10 11  1  0
 10 15  1  0
 11 12  1  0
 11 13  1  0
 13 14  2  0
 14 15  1  0
 15 16  2  0
 16 17  1  0
  1 18  1  0
  2 19  1  0
  3 20  1  0
  5 21  1  0
 12 22  1  0
 12 23  1  0
 12 24  1  0
 14 25  1  0
 17 26  1  0
 17 27  1  0
M  END
>  <mol_id>  (36) 
2026-09-18-6fnk-s0-n100-r1-0036

>  <rmsd_to_ref>  (36) 
2.0612244898023664

>  <pose_kind>  (36) 
conformer

$$$$
6fnk.A
     RDKit          3D

 27 29  0  0  0  0  0  0  0  0999 V2000
    3.6882   17.5373   40.6392 C   0  0  0  0  0  0  0  0  0  0  0  0
    4.9247   16.9245   40.4352 C   0  0  0  0  0  0  0  0  0  0  0  0
    5.2962   15.8379   41.2134 C   0  0  0  0  0  0  0  0  0  0  0  0
    4.4296   15.3560   42.1983 N   0  0  0  0  0  0  0  0  0  0  0  0
    3.1872   15.9754   42.4023 C   0  0  0  0  0  0  0  0  0  0  0  0
    2.8137   17.0683   41.6224 C   0  0  0  0  0  0  0  0  0  0  0  0
    1.5756   17.6850   41.8297 C   0  0  0  0  0  0  0  0  0  0  0  0
    1.2674   18.8374   41.2188 N   0  0  0  0  0  0  0  0  0  0  0  0
    0.6783   17.1191   42.6431 N   0  0  0  0  0  0  0  0  0  0  0  0
   -0.5190   17.6866   42.8739 C   0  0  0  0  0  0  0  0  0  0  0  0
   -1.5538   17.3216   43.6459 N   0  0  0  0  0  0  0  0  0  0  0  0
   -1.6241   16.1173   44.4788 C   0  0  0  0  0  0  0  0  0  0  0  0
   -2.4686   18.1418   43.5595 N   0  0  0  0  0  0  0  0  0  0  0  0
   -2.0817   19.0850   42.6849 C   0  0  0  0  0  0  0  0  0  0  0  0
   -0.8375   18.8232   42.2624 C   0  0  0  0  0  0  0  0  0  0  0  0
    0.0644   19.4047   41.4247 C   0  0  0  0  0  0  0  0  0  0  0  0
   -0.2256   20.5651   40.7877 N   0  0  0  0  0  0  0  0  0  0  0  0
    3.3988   18.3987   40.0195 H   0  0  0  0  0  0  0  0  0  0  0  0
    5.6047   17.3028   39.6577 H   0  0  0  0  0  0  0  0  0  0  0  0
    6.2722   15.3558   41.0553 H   0  0  0  0  0  0  0  0  0  0  0  0
    2.5065   15.5975   43.1794 H   0  0  0  0  0  0  0  0  0  0  0  0
   -1.9098   16.3964   45.5037 H   0  0  0  0  0  0  0  0  0  0  0  0
   -2.3741   15.4278   44.0640 H   0  0  0  0  0  0  0  0  0  0  0  0
   -0.6410   15.6239   44.4937 H   0  0  0  0  0  0  0  0  0  0  0  0
   -2.6929   19.9416   42.3646 H   0  0  0  0  0  0  0  0  0  0  0  0
   -1.1403   21.0165   40.9309 H   0  0  0  0  0  0  0  0  0  0  0  0
    0.4686   20.9957   40.1604 H   0  0  0  0  0  0  0  0  0  0  0  0
  1  2  2  0
  1  6  1  0
  2  3  1  0
  3  4  2  0
  4  5  1  0
  5  6  2  0
  6  7  1  0
  7  8  2  0
  7  9  1  0
  8 16  1  0
  9 10  2  0
 10 11  1  0
 10 15  1  0
 11 12  1  0
 11 13  1  0
 13 14  2  0
 14 15  1  0
 15 16  2  0
 16 17  1  0
  1 18  1  0
  2 19  1  0
  3 20  1  0
  5 21  1  0
 12 22  1  0
 12 23  1  0
 12 24  1  0
 14 25  1  0
 17 26  1  0
 17 27  1  0
M  END
>  <mol_id>  (37) 
2026-09-18-6fnk-s0-n100-r1-0037

>  <rmsd_to_ref>  (37) 
2.1071428571473723

>  <pose_kind>  (37) 
rigid

$$$$
6fnk.A
     RDKit          3D

 27 29  0  0  0  0  0  0  0  0999 V2000
    0.4042   15.6051   43.9357 C   0  0  0  0  0  0  0  0  0  0  0  0
    0.3388   14.2301   44.0261 C   0  0  0  0  0  0  0  0  0  0  0  0
    0.8106   13.4089   43.0031 C   0  0  0  0  0  0  0  0  0  0  0  0
    1.3413   13.9736   41.9036 N   0  0  0  0  0  0  0  0  0  0  0  0
    1.4176   15.3318   41.7896 C   0  0  0  0  0  0  0  0  0  0  0  0
    0.9543   16.1556   42.7948 C   0  0  0  0  0  0  0  0  0  0  0  0
    1.0461   17.6041   42.6511 C   0  0  0  0  0  0  0  0  0  0  0  0
    1.5758   18.1487   41.5529 N   0  0  0  0  0  0  0  0  0  0  0  0
    0.5926   18.4031   43.6349 N   0  0  0  0  0  0  0  0  0  0  0  0
    0.6732   19.7403   43.5107 C   0  0  0  0  0  0  0  0  0  0  0  0
    0.2864   20.7096   44.3595 N   0  0  0  0  0  0  0  0  0  0  0  0
   -0.3377   20.5675   45.6707 C   0  0  0  0  0  0  0  0  0  0  0  0
    0.5696   21.8756   43.8026 N   0  0  0  0  0  0  0  0  0  0  0  0
    1.1439   21.6700   42.5844 C   0  0  0  0  0  0  0  0  0  0  0  0
    1.2188   20.3090   42.3798 C   0  0  0  0  0  0  0  0  0  0  0  0
    1.6808   19.4792   41.3771 C   0  0  0  0  0  0  0  0  0  0  0  0
    2.2440   20.0684   40.2098 N   0  0  0  0  0  0  0  0  0  0  0  0
    0.0285   16.2313   44.7494 H   0  0  0  0  0  0  0  0  0  0  0  0
   -0.0979   13.8311   44.9332 H   0  0  0  0  0  0  0  0  0  0  0  0
    0.7386   12.3185   43.1174 H   0  0  0  0  0  0  0  0  0  0  0  0
    1.8586   15.7011   40.8725 H   0  0  0  0  0  0  0  0  0  0  0  0
    0.2262   21.1557   46.4257 H   0  0  0  0  0  0  0  0  0  0  0  0
   -0.2874   19.5126   45.9921 H   0  0  0  0  0  0  0  0  0  0  0  0
   -1.4065   20.8651   45.6734 H   0  0  0  0  0  0  0  0  0  0  0  0
    1.4936   22.3966   41.8722 H   0  0  0  0  0  0  0  0  0  0  0  0
    3.1975   19.9246   39.8717 H   0  0  0  0  0  0  0  0  0  0  0  0
    1.5959   20.7078   39.6622 H   0  0  0  0  0  0  0  0  0  0  0  0
  1  2  2  0
  1  6  1  0
  2  3  1  0
  3  4  2  0
  4  5  1  0
  5  6  2  0
  6  7  1  0
  7  8  2  0
  7  9  1  0
  8 16  1  0
  9 10  2  0
 10 11  1  0
 10 15  1  0
 11 12  1  0
 11 13  1  0
 13 14  2  0
 14 15  1  0
 15 16  2  0
 16 17  1  0
  1 18  1  0
  2 19  1  0
  3 20  1  0
  5 21  1  0
 12 22  1  0
 12 23  1  0
 12 24  1  0
 14 25  1  0
 17 26  1  0
 17 27  1  0
M  END
>  <mol_id>  (38) 
2026-09-18-6fnk-s0-n100-r1-0038

>  <rmsd_to_ref>  (38) 
2.1530612244910476

>  <pose_kind>  (38) 
conformer

$$$$
6fnk.A
     RDKit          3D

 27 29  0  0  0  0  0  0  0  0999 V2000
    4.1627   15.6069   43.3418 C   0  0  0  0  0  0  0  0  0  0  0  0
    4.8884   14.4817   43.7335 C   0  0  0  0  0  0  0  0  0  0  0  0
    4.2432   13.4240   44.3574 C   0  0  0  0  0  0  0  0  0  0  0  0
    2.8664   13.4853   44.5894 N   0  0  0  0  0  0  0  0  0  0  0  0
    2.1394   14.6190   44.1957 C   0  0  0  0  0  0  0  0  0  0  0  0
    2.7867   15.6830   43.5705 C   0  0  0  0  0  0  0  0  0  0  0  0
    2.0598   16.8128   43.1813 C   0  0  0  0  0  0  0  0  0  0  0  0
    2.6810   17.9156   42.7410 N   0  0  0  0  0  0  0  0  0  0  0  0
    0.7244   16.7975   43.2406 N   0  0  0  0  0  0  0  0  0  0  0  0
   -0.0083   17.8672   42.8832 C   0  0  0  0  0  0  0  0  0  0  0  0
   -1.3316   18.0886   42.8727 N   0  0  0  0  0  0  0  0  0  0  0  0
   -2.3676   17.1332   43.2762 C   0  0  0  0  0  0  0  0  0  0  0  0
   -1.5771   19.2234   42.4616 N   0  0  0  0  0  0  0  0  0  0  0  0
   -0.4053   19.7994   42.1468 C   0  0  0  0  0  0  0  0  0  0  0  0
    0.5994   18.9608   42.4336 C   0  0  0  0  0  0  0  0  0  0  0  0
    1.9586   18.9855   42.3603 C   0  0  0  0  0  0  0  0  0  0  0  0
    2.6109   20.0847   41.9102 N   0  0  0  0  0  0  0  0  0  0  0  0
    4.6794   16.4428   42.8476 H   0  0  0  0  0  0  0  0  0  0  0  0
    5.9715   14.4333   43.5477 H   0  0  0  0  0  0  0  0  0  0  0  0
    4.8150   12.5375   44.6694 H   0  0  0  0  0  0  0  0  0  0  0  0
    1.0562   14.6680   44.3809 H   0  0  0  0  0  0  0  0  0  0  0  0
   -3.0385   17.6071   44.0078 H   0  0  0  0  0  0  0  0  0  0  0  0
   -2.9468   16.8257   42.3930 H   0  0  0  0  0  0  0  0  0  0  0  0
   -1.8950   16.2499   43.7304 H   0  0  0  0  0  0  0  0  0  0  0  0
   -0.2883   20.8060   41.7189 H   0  0  0  0  0  0  0  0  0  0  0  0
    2.0778   20.9146   41.6138 H   0  0  0  0  0  0  0  0  0  0  0  0
    3.6399   20.0902   41.8646 H   0  0  0  0  0  0  0  0  0  0  0  0
  1  2  2  0
  1  6  1  0
  2  3  1  0
  3  4  2  0
  4  5  1  0
  5  6  2  0
  6  7  1  0
  7  8  2  0
  7  9  1  0
  8 16  1  0
  9 10  2  0
 10 11  1  0
 10 15  1  0
 11 12  1  0
 11 13  1  0
 13 14  2  0
 14 15  1  0
 15 16  2  0
 16 17  1  0
  1 18  1  0
  2 19  1  0
  3 20  1  0
  5 21  1  0
 12 22  1  0
 12 23  1  0
 12 24  1  0
 14 25  1  0
 17 26  1  0
 17 27  1  0
M  END
>  <mol_id>  (39) 
2026-09-18-6fnk-s0-n100-r1-0039

>  <rmsd_to_ref>  (39) 
2.1989795918432797

>  <pose_kind>  (39) 
rigid

$$$$
6fnk.A
     RDKit          3D

 27 29  0  0  0  0  0  0  0  0999 V2000
    3.6098   15.9735   42.2881 C   0  0  0  0  0  0  0  0  0  0  0  0
    4.1257   14.8015   42.8221 C   0  0  0  0  0  0  0  0  0  0  0  0
    3.3125   13.9863   43.5917 C   0  0  0  0  0  0  0  0  0  0  0  0
    2.0198   14.3271   43.8245 N   0  0  0  0  0  0  0  0  0  0  0  0
    1.5068   15.4772   43.3029 C   0  0  0  0  0  0  0  0  0  0  0  0
    2.2943   16.3010   42.5368 C   0  0  0  0  0  0  0  0  0  0  0  0
    1.7740   17.5451   41.9606 C   0  0  0  0  0  0  0  0  0  0  0  0
    2.5268   18.3673   41.2073 N   0  0  0  0  0  0  0  0  0  0  0  0
    0.4721   17.8671   42.2080 N   0  0  0  0  0  0  0  0  0  0  0  0
   -0.0949   18.9921   41.7199 C   0  0  0  0  0  0  0  0  0  0  0  0
   -1.3225   19.5506   41.7990 N   0  0  0  0  0  0  0  0  0  0  0  0
   -2.4051   18.9352   42.5391 C   0  0  0  0  0  0  0  0  0  0  0  0
   -1.3063   20.6786   41.1108 N   0  0  0  0  0  0  0  0  0  0  0  0
   -0.0867   20.8767   40.5766 C   0  0  0  0  0  0  0  0  0  0  0  0
    0.7213   19.8016   40.9527 C   0  0  0  0  0  0  0  0  0  0  0  0
    2.0346   19.5027   40.6875 C   0  0  0  0  0  0  0  0  0  0  0  0
    2.8423   20.3624   39.8928 N   0  0  0  0  0  0  0  0  0  0  0  0
    4.2694   16.6097   41.6790 H   0  0  0  0  0  0  0  0  0  0  0  0
    5.1505   14.4875   42.6640 H   0  0  0  0  0  0  0  0  0  0  0  0
    3.6603   13.0673   44.0296 H   0  0  0  0  0  0  0  0  0  0  0  0
    0.4853   15.7620   43.4775 H   0  0  0  0  0  0  0  0  0  0  0  0
   -2.3851   19.1965   43.6186 H   0  0  0  0  0  0  0  0  0  0  0  0
   -2.3880   17.8299   42.4744 H   0  0  0  0  0  0  0  0  0  0  0  0
   -3.3851   19.2660   42.1364 H   0  0  0  0  0  0  0  0  0  0  0  0
    0.2046   21.7364   39.9574 H   0  0  0  0  0  0  0  0  0  0  0  0
    2.4164   21.1492   39.3861 H   0  0  0  0  0  0  0  0  0  0  0  0
    3.8721   20.1864   39.8292 H   0  0  0  0  0  0  0  0  0  0  0  0
  1  2  2  0
  1  6  1  0
  2  3  1  0
  3  4  2  0
  4  5  1  0
  5  6  2  0
  6  7  1  0
  7  8  2  0
  7  9  1  0
  8 16  1  0
  9 10  2  0
 10 11  1  0
 10 15  1  0
 11 12  1  0
 11 13  1  0
 13 14  2  0
 14 15  1  0
 15 16  2  0
 16 17  1  0
  1 18  1  0
  2 19  1  0
  3 20  1  0
  5 21  1  0
 12 22  1  0
 12 23  1  0
 12 24  1  0
 14 25  1  0
 17 26  1  0
 17 27  1  0
M  END
>  <mol_id>  (40) 
2026-09-18-6fnk-s0-n100-r1-0040

>  <rmsd_to_ref>  (40) 
2.2448979591887976

>  <pose_kind>  (40) 
conformer

$$$$
6fnk.A
     RDKit          3D

 27 29  0  0  0  0  0  0  0  0999 V2000
    3.5142   16.6027   40.5609 C   0  0  0  0  0  0  0  0  0  0  0  0
    3.5068   15.8637   39.3777 C   0  0  0  0  0  0  0  0  0  0  0  0
    2.4907   14.9502   39.1379 C   0  0  0  0  0  0  0  0  0  0  0  0
    1.4737   14.7741   40.0802 N   0  0  0  0  0  0  0  0  0  0  0  0
    1.4847   15.5178   41.2701 C   0  0  0  0  0  0  0  0  0  0  0  0
    2.5059   16.4344   41.5130 C   0  0  0  0  0  0  0  0  0  0  0  0
    2.5155   17.1725   42.7009 C   0  0  0  0  0  0  0  0  0  0  0  0
    3.5713   17.9263   43.0370 N   0  0  0  0  0  0  0  0  0  0  0  0
    1.4562   17.1355   43.5156 N   0  0  0  0  0  0  0  0  0  0  0  0
    1.4320   17.8246   44.6703 C   0  0  0  0  0  0  0  0  0  0  0  0
    0.5075   17.9281   45.6371 N   0  0  0  0  0  0  0  0  0  0  0  0
   -0.7989   17.2632   45.6540 C   0  0  0  0  0  0  0  0  0  0  0  0
    0.8985   18.6800   46.5310 N   0  0  0  0  0  0  0  0  0  0  0  0
    2.1081   19.1389   46.1700 C   0  0  0  0  0  0  0  0  0  0  0  0
    2.4701   18.5846   45.0052 C   0  0  0  0  0  0  0  0  0  0  0  0
    3.5512   18.6374   44.1795 C   0  0  0  0  0  0  0  0  0  0  0  0
    4.6280   19.3988   44.4914 N   0  0  0  0  0  0  0  0  0  0  0  0
    4.3225   17.3255   40.7460 H   0  0  0  0  0  0  0  0  0  0  0  0
    4.3061   16.0052   38.6354 H   0  0  0  0  0  0  0  0  0  0  0  0
    2.4855   14.3647   38.2066 H   0  0  0  0  0  0  0  0  0  0  0  0
    0.6855   15.3770   42.0127 H   0  0  0  0  0  0  0  0  0  0  0  0
   -0.9268   16.7302   46.6077 H   0  0  0  0  0  0  0  0  0  0  0  0
   -1.5944   18.0150   45.5446 H   0  0  0  0  0  0  0  0  0  0  0  0
   -0.8558   16.5455   44.8223 H   0  0  0  0  0  0  0  0  0  0  0  0
    2.7096   19.8598   46.7431 H   0  0  0  0  0  0  0  0  0  0  0  0
    4.6338   19.9510   45.3609 H   0  0  0  0  0  0  0  0  0  0  0  0
    5.4405   19.4253   43.8590 H   0  0  0  0  0  0  0  0  0  0  0  0
  1  2  2  0
  1  6  1  0
  2  3  1  0
  3  4  2  0
  4  5  1  0
  5  6  2  0
  6  7  1  0
  7  8  2  0
  7  9  1  0
  8 16  1  0
  9 10  2  0
 10 11  1  0
 10 15  1  0
 11 12  1  0
 11 13  1  0
 13 14  2  0
 14 15  1  0
 15 16  2  0
 16 17  1  0
  1 18  1  0
  2 19  1  0
  3 20  1  0
  5 21  1  0
 12 22  1  0
 12 23  1  0
 12 24  1  0
 14 25  1  0
 17 26  1  0
 17 27  1  0
M  END
>  <mol_id>  (41) 
2026-09-18-6fnk-s0-n100-r1-0041

>  <rmsd_to_ref>  (41) 
2.2908163265306793

>  <pose_kind>  (41) 
rigid

$$$$
6fnk.A
     RDKit          3D

 27 29  0  0  0  0  0  0  0  0999 V2000
    1.3694   15.2176   40.2106 C   0  0  0  0  0  0  0  0  0  0  0  0
    0.7800   13.9988   39.9071 C   0  0  0  0  0  0  0  0  0  0  0  0
   -0.0180   13.3730   40.8505 C   0  0  0  0  0  0  0  0  0  0  0  0
   -0.2248   13.9438   42.0641 N   0  0  0  0  0  0  0  0  0  0  0  0
    0.3513   15.1411   42.3685 C   0  0  0  0  0  0  0  0  0  0  0  0
    1.1464   15.7800   41.4489 C   0  0  0  0  0  0  0  0  0  0  0  0
    1.7810   17.0685   41.7441 C   0  0  0  0  0  0  0  0  0  0  0  0
    2.5636   17.7125   40.8592 N   0  0  0  0  0  0  0  0  0  0  0  0
    1.5589   17.6231   42.9701 N   0  0  0  0  0  0  0  0  0  0  0  0
    2.1009   18.8066   43.3320 C   0  0  0  0  0  0  0  0  0  0  0  0
    2.0568   19.5733   44.4436 N   0  0  0  0  0  0  0  0  0  0  0  0
    1.2992   19.1896   45.6172 C   0  0  0  0  0  0  0  0  0  0  0  0
    2.7938   20.6492   44.2306 N   0  0  0  0  0  0  0  0  0  0  0  0
    3.3260   20.6078   42.9948 C   0  0  0  0  0  0  0  0  0  0  0  0
    2.8962   19.4264   42.3868 C   0  0  0  0  0  0  0  0  0  0  0  0
    3.1370   18.8918   41.1456 C   0  0  0  0  0  0  0  0  0  0  0  0
    3.9620   19.5611   40.2000 N   0  0  0  0  0  0  0  0  0  0  0  0
    2.0004   15.7012   39.4499 H   0  0  0  0  0  0  0  0  0  0  0  0
    0.9156   13.5043   38.9528 H   0  0  0  0  0  0  0  0  0  0  0  0
   -0.4989   12.4281   40.6684 H   0  0  0  0  0  0  0  0  0  0  0  0
    0.1979   15.6069   43.3247 H   0  0  0  0  0  0  0  0  0  0  0  0
    1.8702   18.5156   46.2908 H   0  0  0  0  0  0  0  0  0  0  0  0
    0.3571   18.6672   45.3612 H   0  0  0  0  0  0  0  0  0  0  0  0
    1.0195   20.0876   46.2066 H   0  0  0  0  0  0  0  0  0  0  0  0
    3.9801   21.3750   42.5578 H   0  0  0  0  0  0  0  0  0  0  0  0
    4.2758   20.5241   40.3780 H   0  0  0  0  0  0  0  0  0  0  0  0
    4.2459   19.0649   39.3233 H   0  0  0  0  0  0  0  0  0  0  0  0
  1  2  2  0
  1  6  1  0
  2  3  1  0
  3  4  2  0
  4  5  1  0
  5  6  2  0
  6  7  1  0
  7  8  2  0
  7  9  1  0
  8 16  1  0
  9 10  2  0
 10 11  1  0
 10 15  1  0
 11 12  1  0
 11 13  1  0
 13 14  2  0
 14 15  1  0
 15 16  2  0
 16 17  1  0
  1 18  1  0
  2 19  1  0
  3 20  1  0
  5 21  1  0
 12 22  1  0
 12 23  1  0
 12 24  1  0
 14 25  1  0
 17 26  1  0
 17 27  1  0
M  END
>  <mol_id>  (42) 
2026-09-18-6fnk-s0-n100-r1-0042

>  <rmsd_to_ref>  (42) 
2.336734693881371

>  <pose_kind>  (42) 
conformer

$$$$
6fnk.A
     RDKit          3D

 27 29  0  0  0  0  0  0  0  0999 V2000
   -0.0623   16.6189   39.5692 C   0  0  0  0  0  0  0  0  0  0  0  0
   -0.5364   15.4449   38.9837 C   0  0  0  0  0  0  0  0  0  0  0  0
   -0.5641   14.2674   39.7166 C   0  0  0  0  0  0  0  0  0  0  0  0
   -0.1207   14.2597   41.0420 N   0  0  0  0  0  0  0  0  0  0  0  0
    0.3570   15.4419   41.6278 C   0  0  0  0  0  0  0  0  0  0  0  0
    0.3872   16.6249   40.8918 C   0  0  0  0  0  0  0  0  0  0  0  0
    0.8661   17.8012   41.4777 C   0  0  0  0  0  0  0  0  0  0  0  0
    1.0694   18.9045   40.7447 N   0  0  0  0  0  0  0  0  0  0  0  0
    1.1211   17.8350   42.7895 N   0  0  0  0  0  0  0  0  0  0  0  0
    1.5906   18.9447   43.3869 C   0  0  0  0  0  0  0  0  0  0  0  0
    1.9285   19.2077   44.6585 N   0  0  0  0  0  0  0  0  0  0  0  0
    1.8507   18.2691   45.7818 C   0  0  0  0  0  0  0  0  0  0  0  0
    2.3148   20.3718   44.7716 N   0  0  0  0  0  0  0  0  0  0  0  0
    2.2162   20.9475   43.5621 C   0  0  0  0  0  0  0  0  0  0  0  0
    1.7834   20.0471   42.6694 C   0  0  0  0  0  0  0  0  0  0  0  0
    1.5189   20.0279   41.3341 C   0  0  0  0  0  0  0  0  0  0  0  0
    1.7074   21.1323   40.5718 N   0  0  0  0  0  0  0  0  0  0  0  0
   -0.0423   17.5497   38.9833 H   0  0  0  0  0  0  0  0  0  0  0  0
   -0.8879   15.4527   37.9414 H   0  0  0  0  0  0  0  0  0  0  0  0
   -0.9349   13.3404   39.2550 H   0  0  0  0  0  0  0  0  0  0  0  0
    0.7085   15.4348   42.6701 H   0  0  0  0  0  0  0  0  0  0  0  0
    2.8179   18.2424   46.3050 H   0  0  0  0  0  0  0  0  0  0  0  0
    1.0655   18.5962   46.4793 H   0  0  0  0  0  0  0  0  0  0  0  0
    1.6102   17.2643   45.4041 H   0  0  0  0  0  0  0  0  0  0  0  0
    2.4544   21.9979   43.3386 H   0  0  0  0  0  0  0  0  0  0  0  0
    2.0507   22.0028   41.0023 H   0  0  0  0  0  0  0  0  0  0  0  0
    1.5073   21.1013   39.5619 H   0  0  0  0  0  0  0  0  0  0  0  0
  1  2  2  0
  1  6  1  0
  2  3  1  0
  3  4  2  0
  4  5  1  0
  5  6  2  0
  6  7  1  0
  7  8  2  0
  7  9  1  0
  8 16  1  0
  9 10  2  0
 10 11  1  0
 10 15  1  0
 11 12  1  0
 11 13  1  0
 13 14  2  0
 14 15  1  0
 15 16  2  0
 16 17  1  0
  1 18  1  0
  2 19  1  0
  3 20  1  0
  5 21  1  0
 12 22  1  0
 12 23  1  0
 12 24  1  0
 14 25  1  0
 17 26  1  0
 17 27  1  0
M  END
>  <mol_id>  (43) 
2026-09-18-6fnk-s0-n100-r1-0043

>  <rmsd_to_ref>  (43) 
2.382653061225072

>  <pose_kind>  (43) 
rigid

$$$$
6fnk.A
     RDKit          3D

 27 29  0  0  0  0  0  0  0  0999 V2000
    0.4355   15.4471   44.3281 C   0  0  0  0  0  0  0  0  0  0  0  0
    0.1558   14.0974   44.4583 C   0  0  0  0  0  0  0  0  0  0  0  0
    0.6950   13.1724   43.5788 C   0  0  0  0  0  0  0  0  0  0  0  0
    1.5085   13.6039   42.5776 N   0  0  0  0  0  0  0  0  0  0  0  0
    1.7979   14.9281   42.4300 C   0  0  0  0  0  0  0  0  0  0  0  0
    1.2673   15.8621   43.2997 C   0  0  0  0  0  0  0  0  0  0  0  0
    1.5764   17.2817   43.1431 C   0  0  0  0  0  0  0  0  0  0  0  0
    2.3824   17.6752   42.1450 N   0  0  0  0  0  0  0  0  0  0  0  0
    1.0644   18.1743   43.9807 N   0  0  0  0  0  0  0  0  0  0  0  0
    1.3354   19.4860   43.8552 C   0  0  0  0  0  0  0  0  0  0  0  0
    0.9425   20.5564   44.5667 N   0  0  0  0  0  0  0  0  0  0  0  0
    0.0770   20.5364   45.7101 C   0  0  0  0  0  0  0  0  0  0  0  0
    1.4824   21.6446   44.0451 N   0  0  0  0  0  0  0  0  0  0  0  0
    2.2386   21.3160   42.9844 C   0  0  0  0  0  0  0  0  0  0  0  0
    2.1578   19.9458   42.8473 C   0  0  0  0  0  0  0  0  0  0  0  0
    2.6773   18.9982   41.9900 C   0  0  0  0  0  0  0  0  0  0  0  0
    3.5329   19.4337   40.9337 N   0  0  0  0  0  0  0  0  0  0  0  0
    0.0035   16.1755   45.0305 H   0  0  0  0  0  0  0  0  0  0  0  0
   -0.4978   13.8148   45.2741 H   0  0  0  0  0  0  0  0  0  0  0  0
    0.4687   12.1193   43.6910 H   0  0  0  0  0  0  0  0  0  0  0  0
    2.4519   15.2245   41.6161 H   0  0  0  0  0  0  0  0  0  0  0  0
    0.4451   21.2060   46.5374 H   0  0  0  0  0  0  0  0  0  0  0  0
   -0.0953   19.5368   46.1169 H   0  0  0  0  0  0  0  0  0  0  0  0
   -0.9006   20.9842   45.4013 H   0  0  0  0  0  0  0  0  0  0  0  0
    2.8114   21.9594   42.3399 H   0  0  0  0  0  0  0  0  0  0  0  0
    4.3290   18.8272   40.6389 H   0  0  0  0  0  0  0  0  0  0  0  0
    3.3190   20.3622   40.4922 H   0  0  0  0  0  0  0  0  0  0  0  0
  1  2  2  0
  1  6  1  0
  2  3  1  0
  3  4  2  0
  4  5  1  0
  5  6  2  0
  6  7  1  0
  7  8  2  0
  7  9  1  0
  8 16  1  0
  9 10  2  0
 10 11  1  0
 10 15  1  0
 11 12  1  0
 11 13  1  0
 13 14  2  0
 14 15  1  0
 15 16  2  0
 16 17  1  0
  1 18  1  0
  2 19  1  0
  3 20  1  0
  5 21  1  0
 12 22  1  0
 12 23  1  0
 12 24  1  0
 14 25  1  0
 17 26  1  0
 17 27  1  0
M  END
>  <mol_id>  (44) 
2026-09-18-6fnk-s0-n100-r1-0044

>  <rmsd_to_ref>  (44) 
2.4285714285731146

>  <pose_kind>  (44) 
conformer

$$$$
6fnk.A
     RDKit          3D

 27 29  0  0  0  0  0  0  0  0999 V2000
    3.2926   16.6155   42.7871 C   0  0  0  0  0  0  0  0  0  0  0  0
    4.0027   15.6449   43.4939 C   0  0  0  0  0  0  0  0  0  0  0  0
    3.5201   15.1810   44.7089 C   0  0  0  0  0  0  0  0  0  0  0  0
    2.3211   15.6839   45.2215 N   0  0  0  0  0  0  0  0  0  0  0  0
    1.6099   16.6614   44.5091 C   0  0  0  0  0  0  0  0  0  0  0  0
    2.0947   17.1296   43.2893 C   0  0  0  0  0  0  0  0  0  0  0  0
    1.3847   18.1056   42.5825 C   0  0  0  0  0  0  0  0  0  0  0  0
    1.9128   18.6967   41.5019 N   0  0  0  0  0  0  0  0  0  0  0  0
    0.1575   18.4548   42.9812 N   0  0  0  0  0  0  0  0  0  0  0  0
   -0.5523   19.3952   42.3325 C   0  0  0  0  0  0  0  0  0  0  0  0
   -1.7707   19.9129   42.5507 N   0  0  0  0  0  0  0  0  0  0  0  0
   -2.6854   19.5358   43.6325 C   0  0  0  0  0  0  0  0  0  0  0  0
   -2.0386   20.7624   41.7000 N   0  0  0  0  0  0  0  0  0  0  0  0
   -1.0012   20.8200   40.8487 C   0  0  0  0  0  0  0  0  0  0  0  0
   -0.0409   19.9776   41.2525 C   0  0  0  0  0  0  0  0  0  0  0  0
    1.2046   19.6241   40.8314 C   0  0  0  0  0  0  0  0  0  0  0  0
    1.7580   20.1999   39.7366 N   0  0  0  0  0  0  0  0  0  0  0  0
    3.6800   16.9800   41.8242 H   0  0  0  0  0  0  0  0  0  0  0  0
    4.9447   15.2476   43.0880 H   0  0  0  0  0  0  0  0  0  0  0  0
    4.0807   14.4177   45.2685 H   0  0  0  0  0  0  0  0  0  0  0  0
    0.6676   17.0589   44.9142 H   0  0  0  0  0  0  0  0  0  0  0  0
   -3.0142   20.4397   44.1664 H   0  0  0  0  0  0  0  0  0  0  0  0
   -3.5606   19.0208   43.2099 H   0  0  0  0  0  0  0  0  0  0  0  0
   -2.1676   18.8642   44.3331 H   0  0  0  0  0  0  0  0  0  0  0  0
   -0.9483   21.4609   39.9563 H   0  0  0  0  0  0  0  0  0  0  0  0
    1.2337   20.9120   39.2085 H   0  0  0  0  0  0  0  0  0  0  0  0
    2.7031   19.9255   39.4326 H   0  0  0  0  0  0  0  0  0  0  0  0
  1  2  2  0
  1  6  1  0
  2  3  1  0
  3  4  2  0
  4  5  1  0
  5  6  2  0
  6  7  1  0
  7  8  2  0
  7  9  1  0
  8 16  1  0
  9 10  2  0
 10 11  1  0
 10 15  1  0
 11 12  1  0
 11 13  1  0
 13 14  2  0
 14 15  1  0
 15 16  2  0
 16 17  1  0
  1 18  1  0
  2 19  1  0
  3 20  1  0
  5 21  1  0
 12 22  1  0
 12 23  1  0
 12 24  1  0
 14 25  1  0
 17 26  1  0
 17 27  1  0
M  END
>  <mol_id>  (45) 
2026-09-18-6fnk-s0-n100-r1-0045

>  <rmsd_to_ref>  (45) 
2.4744897959218743

>  <pose_kind>  (45) 
rigid

$$$$
6fnk.A
     RDKit          3D

 27 29  0  0  0  0  0  0  0  0999 V2000
    0.4660   16.4876   40.9964 C   0  0  0  0  0  0  0  0  0  0  0  0
    0.1112   15.5438   40.0265 C   0  0  0  0  0  0  0  0  0  0  0  0
    0.9318   15.3721   38.9314 C   0  0  0  0  0  0  0  0  0  0  0  0
    2.0728   16.0919   38.7680 N   0  0  0  0  0  0  0  0  0  0  0  0
    2.4307   17.0110   39.6999 C   0  0  0  0  0  0  0  0  0  0  0  0
    1.6299   17.2019   40.8016 C   0  0  0  0  0  0  0  0  0  0  0  0
    2.0346   18.1972   41.7929 C   0  0  0  0  0  0  0  0  0  0  0  0
    3.1775   18.8963   41.5982 N   0  0  0  0  0  0  0  0  0  0  0  0
    1.2971   18.4346   42.8949 N   0  0  0  0  0  0  0  0  0  0  0  0
    1.6672   19.3526   43.8126 C   0  0  0  0  0  0  0  0  0  0  0  0
    1.1120   19.7661   44.9751 N   0  0  0  0  0  0  0  0  0  0  0  0
   -0.1178   19.2981   45.5877 C   0  0  0  0  0  0  0  0  0  0  0  0
    1.8961   20.7144   45.5061 N   0  0  0  0  0  0  0  0  0  0  0  0
    2.9549   20.9370   44.7230 C   0  0  0  0  0  0  0  0  0  0  0  0
    2.8416   20.0906   43.6402 C   0  0  0  0  0  0  0  0  0  0  0  0
    3.5814   19.8314   42.5050 C   0  0  0  0  0  0  0  0  0  0  0  0
    4.7810   20.5731   42.3119 N   0  0  0  0  0  0  0  0  0  0  0  0
   -0.1710   16.6426   41.8774 H   0  0  0  0  0  0  0  0  0  0  0  0
   -0.8085   14.9660   40.1616 H   0  0  0  0  0  0  0  0  0  0  0  0
    0.6633   14.6466   38.1814 H   0  0  0  0  0  0  0  0  0  0  0  0
    3.3488   17.5591   39.5242 H   0  0  0  0  0  0  0  0  0  0  0  0
   -0.7587   18.8468   44.8053 H   0  0  0  0  0  0  0  0  0  0  0  0
   -0.6534   20.1528   46.0626 H   0  0  0  0  0  0  0  0  0  0  0  0
    0.0616   18.4869   46.3278 H   0  0  0  0  0  0  0  0  0  0  0  0
    3.7720   21.6406   44.8726 H   0  0  0  0  0  0  0  0  0  0  0  0
    4.8578   21.5460   42.7240 H   0  0  0  0  0  0  0  0  0  0  0  0
    5.5930   20.1647   41.7636 H   0  0  0  0  0  0  0  0  0  0  0  0
  1  2  2  0
  1  6  1  0
  2  3  1  0
  3  4  2  0
  4  5  1  0
  5  6  2  0
  6  7  1  0
  7  8  2  0
  7  9  1  0
  8 16  1  0
  9 10  2  0
 10 11  1  0
 10 15  1  0
 11 12  1  0
 11 13  1  0
 13 14  2  0
 14 15  1  0
 15 16  2  0
 16 17  1  0
  1 18  1  0
  2 19  1  0
  3 20  1  0
  5 21  1  0
 12 22  1  0
 12 23  1  0
 12 24  1  0
 14 25  1  0
 17 26  1  0
 17 27  1  0
M  END
>  <mol_id>  (46) 
2026-09-18-6fnk-s0-n100-r1-0046

>  <rmsd_to_ref>  (46) 
2.5204081632660684

>  <pose_kind>  (46) 
conformer

$$$$
6fnk.A
     RDKit          3D

 27 29  0  0  0  0  0  0  0  0999 V2000
    0.9624   15.6106   40.4048 C   0  0  0  0  0  0  0  0  0  0  0  0
    0.3508   14.3580   40.3493 C   0  0  0  0  0  0  0  0  0  0  0  0
   -0.1021   13.7560   41.5141 C   0  0  0  0  0  0  0  0  0  0  0  0
    0.0515   14.4067   42.7414 N   0  0  0  0  0  0  0  0  0  0  0  0
    0.6685   15.6659   42.7943 C   0  0  0  0  0  0  0  0  0  0  0  0
    1.1255   16.2709   41.6250 C   0  0  0  0  0  0  0  0  0  0  0  0
    1.7422   17.5249   41.6812 C   0  0  0  0  0  0  0  0  0  0  0  0
    2.3444   18.0472   40.6038 N   0  0  0  0  0  0  0  0  0  0  0  0
    1.7293   18.2221   42.8217 N   0  0  0  0  0  0  0  0  0  0  0  0
    2.3189   19.4272   42.9168 C   0  0  0  0  0  0  0  0  0  0  0  0
    2.4472   20.2880   43.9379 N   0  0  0  0  0  0  0  0  0  0  0  0
    1.9250   20.0987   45.2945 C   0  0  0  0  0  0  0  0  0  0  0  0
    3.0679   21.2910   43.5829 N   0  0  0  0  0  0  0  0  0  0  0  0
    3.3535   21.1462   42.2784 C   0  0  0  0  0  0  0  0  0  0  0  0
    2.9077   19.9578   41.8496 C   0  0  0  0  0  0  0  0  0  0  0  0
    2.9199   19.2614   40.6799 C   0  0  0  0  0  0  0  0  0  0  0  0
    3.5141   19.7706   39.5735 N   0  0  0  0  0  0  0  0  0  0  0  0
    1.3198   16.0832   39.4781 H   0  0  0  0  0  0  0  0  0  0  0  0
    0.2277   13.8481   39.3824 H   0  0  0  0  0  0  0  0  0  0  0  0
   -0.5818   12.7670   41.4719 H   0  0  0  0  0  0  0  0  0  0  0  0
    0.7916   16.1765   43.7608 H   0  0  0  0  0  0  0  0  0  0  0  0
    2.7330   20.2575   46.0239 H   0  0  0  0  0  0  0  0  0  0  0  0
    1.1163   20.8209   45.4802 H   0  0  0  0  0  0  0  0  0  0  0  0
    1.5339   19.0757   45.3974 H   0  0  0  0  0  0  0  0  0  0  0  0
    3.8740   21.8899   41.6571 H   0  0  0  0  0  0  0  0  0  0  0  0
    3.9605   20.6981   39.6093 H   0  0  0  0  0  0  0  0  0  0  0  0
    3.5192   19.2301   38.6967 H   0  0  0  0  0  0  0  0  0  0  0  0
  1  2  2  0
  1  6  1  0
  2  3  1  0
  3  4  2  0
  4  5  1  0
  5  6  2  0
  6  7  1  0
  7  8  2  0
  7  9  1  0
  8 16  1  0
  9 10  2  0
 10 11  1  0
 10 15  1  0
 11 12  1  0
 11 13  1  0
 13 14  2  0
 14 15  1  0
 15 16  2  0
 16 17  1  0
  1 18  1  0
  2 19  1  0
  3 20  1  0
  5 21  1  0
 12 22  1  0
 12 23  1  0
 12 24  1  0
 14 25  1  0
 17 26  1  0
 17 27  1  0
M  END
>  <mol_id>  (47) 
2026-09-18-6fnk-s0-n100-r1-0047

>  <rmsd_to_ref>  (47) 
2.566326530616579

>  <pose_kind>  (47) 
rigid

$$$$
6fnk.A
     RDKit          3D

 27 29  0  0  0  0  0  0  0  0999 V2000
    2.7189   14.9146   43.1231 C   0  0  0  0  0  0  0  0  0  0  0  0
    2.6136   13.6637   43.6959 C   0  0  0  0  0  0  0  0  0  0  0  0
    1.8807   13.4931   44.8489 C   0  0  0  0  0  0  0  0  0  0  0  0
    1.2468   14.5431   45.4488 N   0  0  0  0  0  0  0  0  0  0  0  0
    1.3360   15.7838   44.9035 C   0  0  0  0  0  0  0  0  0  0  0  0
    2.0688   15.9593   43.7490 C   0  0  0  0  0  0  0  0  0  0  0  0
    2.1734   17.2999   43.1475 C   0  0  0  0  0  0  0  0  0  0  0  0
    2.8929   17.4984   42.0053 N   0  0  0  0  0  0  0  0  0  0  0  0
    1.5476   18.3441   43.7371 N   0  0  0  0  0  0  0  0  0  0  0  0
    1.6129   19.5722   43.2318 C   0  0  0  0  0  0  0  0  0  0  0  0
    1.1087   20.7640   43.5905 N   0  0  0  0  0  0  0  0  0  0  0  0
    0.2690   21.0323   44.7576 C   0  0  0  0  0  0  0  0  0  0  0  0
    1.4982   21.6850   42.7020 N   0  0  0  0  0  0  0  0  0  0  0  0
    2.2594   21.1056   41.7557 C   0  0  0  0  0  0  0  0  0  0  0  0
    2.3476   19.7770   42.0647 C   0  0  0  0  0  0  0  0  0  0  0  0
    2.9918   18.7214   41.4514 C   0  0  0  0  0  0  0  0  0  0  0  0
    3.7387   18.9472   40.2592 N   0  0  0  0  0  0  0  0  0  0  0  0
    3.2975   15.0185   42.2230 H   0  0  0  0  0  0  0  0  0  0  0  0
    3.0920   12.7846   43.2719 H   0  0  0  0  0  0  0  0  0  0  0  0
    1.7845   12.5170   45.3168 H   0  0  0  0  0  0  0  0  0  0  0  0
    0.8176   16.6058   45.4062 H   0  0  0  0  0  0  0  0  0  0  0  0
    0.4245   22.0566   45.1627 H   0  0  0  0  0  0  0  0  0  0  0  0
    0.4700   20.3321   45.5894 H   0  0  0  0  0  0  0  0  0  0  0  0
   -0.8176   20.9108   44.4990 H   0  0  0  0  0  0  0  0  0  0  0  0
    2.6911   21.6506   40.9290 H   0  0  0  0  0  0  0  0  0  0  0  0
    4.7625   19.1611   40.3052 H   0  0  0  0  0  0  0  0  0  0  0  0
    3.2661   18.8990   39.3516 H   0  0  0  0  0  0  0  0  0  0  0  0
  1  2  2  0
  1  6  1  0
  2  3  1  0
  3  4  2  0
  4  5  1  0
  5  6  2  0
  6  7  1  0
  7  8  2  0
  7  9  1  0
  8 16  1  0
  9 10  2  0
 10 11  1  0
 10 15  1  0
 11 12  1  0
 11 13  1  0
 13 14  2  0
 14 15  1  0
 15 16  2  0
 16 17  1  0
  1 18  1  0
  2 19  1  0
  3 20  1  0
  5 21  1  0
 12 22  1  0
 12 23  1  0
 12 24  1  0
 14 25  1  0
 17 26  1  0
 17 27  1  0
M  END
>  <mol_id>  (48) 
2026-09-18-6fnk-s0-n100-r1-0048

>  <rmsd_to_ref>  (48) 
2.612244897962167

>  <pose_kind>  (48) 
conformer

$$$$
6fnk.A
     RDKit          3D

 27 29  0  0  0  0  0  0  0  0999 V2000
    0.9228   16.9812   40.1971 C   0  0  0  0  0  0  0  0  0  0  0  0
    0.1550   15.9492   39.6572 C   0  0  0  0  0  0  0  0  0  0  0  0
   -0.6731   15.1988   40.4791 C   0  0  0  0  0  0  0  0  0  0  0  0
   -0.7399   15.4801   41.8465 N   0  0  0  0  0  0  0  0  0  0  0  0
    0.0348   16.5177   42.3870 C   0  0  0  0  0  0  0  0  0  0  0  0
    0.8685   17.2710   41.5626 C   0  0  0  0  0  0  0  0  0  0  0  0
    1.6412   18.3031   42.1046 C   0  0  0  0  0  0  0  0  0  0  0  0
    2.5763   18.9235   41.3720 N   0  0  0  0  0  0  0  0  0  0  0  0
    1.4454   18.6865   43.3702 N   0  0  0  0  0  0  0  0  0  0  0  0
    2.1746   19.6689   43.9289 C   0  0  0  0  0  0  0  0  0  0  0  0
    2.1703   20.2042   45.1591 N   0  0  0  0  0  0  0  0  0  0  0  0
    1.2924   19.8122   46.2657 C   0  0  0  0  0  0  0  0  0  0  0  0
    3.0130   21.0984   45.2448 N   0  0  0  0  0  0  0  0  0  0  0  0
    3.5989   21.2154   44.0418 C   0  0  0  0  0  0  0  0  0  0  0  0
    3.0956   20.2978   43.2054 C   0  0  0  0  0  0  0  0  0  0  0  0
    3.2983   19.9224   41.9126 C   0  0  0  0  0  0  0  0  0  0  0  0
    4.2311   20.5393   41.1473 N   0  0  0  0  0  0  0  0  0  0  0  0
    1.5779   17.5729   39.5408 H   0  0  0  0  0  0  0  0  0  0  0  0
    0.2061   15.7307   38.5803 H   0  0  0  0  0  0  0  0  0  0  0  0
   -1.2767   14.3829   40.0550 H   0  0  0  0  0  0  0  0  0  0  0  0
   -0.0161   16.7369   43.4637 H   0  0  0  0  0  0  0  0  0  0  0  0
    1.8994   19.6039   47.1592 H   0  0  0  0  0  0  0  0  0  0  0  0
    0.5888   20.6294   46.4828 H   0  0  0  0  0  0  0  0  0  0  0  0
    0.7303   18.9091   45.9856 H   0  0  0  0  0  0  0  0  0  0  0  0
    4.3737   21.9521   43.7828 H   0  0  0  0  0  0  0  0  0  0  0  0
    4.7949   21.3062   41.5408 H   0  0  0  0  0  0  0  0  0  0  0  0
    4.3763   20.2413   40.1721 H   0  0  0  0  0  0  0  0  0  0  0  0
  1  2  2  0
  1  6  1  0
  2  3  1  0
  3  4  2  0
  4  5  1  0
  5  6  2  0
  6  7  1  0
  7  8  2  0
  7  9  1  0
  8 16  1  0
  9 10  2  0
 10 11  1  0
 10 15  1  0
 11 12  1  0
 11 13  1  0
 13 14  2  0
 14 15  1  0
 15 16  2  0
 16 17  1  0
  1 18  1  0
  2 19  1  0
  3 20  1  0
  5 21  1  0
 12 22  1  0
 12 23  1  0
 12 24  1  0
 14 25  1  0
 17 26  1  0
 17 27  1  0
M  END
>  <mol_id>  (49) 
2026-09-18-6fnk-s0-n100-r1-0049

>  <rmsd_to_ref>  (49) 
2.65816326531148

>  <pose_kind>  (49) 
rigid

$$$$
6fnk.A
     RDKit          3D

 27 29  0  0  0  0  0  0  0  0999 V2000
    1.7712   14.6552   42.9341 C   0  0  0  0  0  0  0  0  0  0  0  0
    1.1674   13.4245   42.7800 C   0  0  0  0  0  0  0  0  0  0  0  0
   -0.1625   13.2258   43.0891 C   0  0  0  0  0  0  0  0  0  0  0  0
   -0.9138   14.2625   43.5602 N   0  0  0  0  0  0  0  0  0  0  0  0
   -0.3618   15.4929   43.7281 C   0  0  0  0  0  0  0  0  0  0  0  0
    0.9853   15.7024   43.4172 C   0  0  0  0  0  0  0  0  0  0  0  0
    1.6063   17.0242   43.5901 C   0  0  0  0  0  0  0  0  0  0  0  0
    2.9056   17.2132   43.2869 N   0  0  0  0  0  0  0  0  0  0  0  0
    0.8306   18.0271   44.0590 N   0  0  0  0  0  0  0  0  0  0  0  0
    1.3350   19.2600   44.2405 C   0  0  0  0  0  0  0  0  0  0  0  0
    0.8357   20.4453   44.6816 N   0  0  0  0  0  0  0  0  0  0  0  0
   -0.5328   20.6787   45.1126 C   0  0  0  0  0  0  0  0  0  0  0  0
    1.8043   21.3500   44.6527 N   0  0  0  0  0  0  0  0  0  0  0  0
    2.9539   20.7799   44.1941 C   0  0  0  0  0  0  0  0  0  0  0  0
    2.6535   19.4612   43.9352 C   0  0  0  0  0  0  0  0  0  0  0  0
    3.4330   18.4313   43.4583 C   0  0  0  0  0  0  0  0  0  0  0  0
    4.8074   18.6115   43.1325 N   0  0  0  0  0  0  0  0  0  0  0  0
    2.8056   14.7638   42.6818 H   0  0  0  0  0  0  0  0  0  0  0  0
    1.7889   12.6065   42.4006 H   0  0  0  0  0  0  0  0  0  0  0  0
   -0.6125   12.2315   42.9544 H   0  0  0  0  0  0  0  0  0  0  0  0
   -0.9779   16.3183   44.1081 H   0  0  0  0  0  0  0  0  0  0  0  0
   -0.9496   21.6134   44.7167 H   0  0  0  0  0  0  0  0  0  0  0  0
   -1.1743   19.8478   44.7132 H   0  0  0  0  0  0  0  0  0  0  0  0
   -0.5737   20.5981   46.2182 H   0  0  0  0  0  0  0  0  0  0  0  0
    3.8859   21.3008   44.0760 H   0  0  0  0  0  0  0  0  0  0  0  0
    5.1091   18.8802   42.1681 H   0  0  0  0  0  0  0  0  0  0  0  0
    5.5172   18.4684   43.8850 H   0  0  0  0  0  0  0  0  0  0  0  0
  1  2  2  0
  1  6  1  0
  2  3  1  0
  3  4  2  0
  4  5  1  0
  5  6  2  0
  6  7  1  0
  7  8  2  0
  7  9  1  0
  8 16  1  0
  9 10  2  0
 10 11  1  0
 10 15  1  0
 11 12  1  0
 11 13  1  0
 13 14  2  0
 14 15  1  0
 15 16  2  0
 16 17  1  0
  1 18  1  0
  2 19  1  0
  3 20  1  0
  5 21  1  0
 12 22  1  0
 12 23  1  0
 12 24  1  0
 14 25  1  0
 17 26  1  0
 17 27  1  0
M  END
>  <mol_id>  (50) 
2026-09-18-6fnk-s0-n100-r1-0050

>  <rmsd_to_ref>  (50) 
2.704081632656918

>  <pose_kind>  (50) 
conformer

$$$$
6fnk.A
     RDKit          3D

 27 29  0  0  0  0  0  0  0  0999 V2000
    2.6565   18.8480   39.7083 C   0  0  0  0  0  0  0  0  0  0  0  0
    3.8175   18.5905   38.9792 C   0  0  0  0  0  0  0  0  0  0  0  0
    4.9176   18.0236   39.6059 C   0  0  0  0  0  0  0  0  0  0  0  0
    4.8600   17.7076   40.9661 N   0  0  0  0  0  0  0  0  0  0  0  0
    3.6913   17.9692   41.6972 C   0  0  0  0  0  0  0  0  0  0  0  0
    2.5862   18.5404   41.0692 C   0  0  0  0  0  0  0  0  0  0  0  0
    1.4234   18.8022   41.8011 C   0  0  0  0  0  0  0  0  0  0  0  0
    0.4159   19.5070   41.2679 N   0  0  0  0  0  0  0  0  0  0  0  0
    1.3053   18.3401   43.0499 N   0  0  0  0  0  0  0  0  0  0  0  0
    0.2064   18.5788   43.7877 C   0  0  0  0  0  0  0  0  0  0  0  0
   -0.1262   18.2391   45.0424 N   0  0  0  0  0  0  0  0  0  0  0  0
    0.6985   17.4600   45.9708 C   0  0  0  0  0  0  0  0  0  0  0  0
   -1.2464   18.6668   45.3239 N   0  0  0  0  0  0  0  0  0  0  0  0
   -1.7236   19.2917   44.2349 C   0  0  0  0  0  0  0  0  0  0  0  0
   -0.8027   19.2664   43.2622 C   0  0  0  0  0  0  0  0  0  0  0  0
   -0.6980   19.7347   41.9882 C   0  0  0  0  0  0  0  0  0  0  0  0
   -1.7057   20.4423   41.4223 N   0  0  0  0  0  0  0  0  0  0  0  0
    1.7872   19.2979   39.2064 H   0  0  0  0  0  0  0  0  0  0  0  0
    3.8607   18.8369   37.9080 H   0  0  0  0  0  0  0  0  0  0  0  0
    5.8347   17.8228   39.0326 H   0  0  0  0  0  0  0  0  0  0  0  0
    3.6473   17.7228   42.7684 H   0  0  0  0  0  0  0  0  0  0  0  0
    0.7858   18.0000   46.9252 H   0  0  0  0  0  0  0  0  0  0  0  0
    0.2288   16.4807   46.1452 H   0  0  0  0  0  0  0  0  0  0  0  0
    1.6996   17.3149   45.5388 H   0  0  0  0  0  0  0  0  0  0  0  0
   -2.7186   19.7537   44.1540 H   0  0  0  0  0  0  0  0  0  0  0  0
   -2.5671   20.6283   41.9555 H   0  0  0  0  0  0  0  0  0  0  0  0
   -1.6103   20.7942   40.4590 H   0  0  0  0  0  0  0  0  0  0  0  0
  1  2  2  0
  1  6  1  0
  2  3  1  0
  3  4  2  0
  4  5  1  0
  5  6  2  0
  6  7  1  0
  7  8  2  0
  7  9  1  0
  8 16  1  0
  9 10  2  0
 10 11  1  0
 10 15  1  0
 11 12  1  0
 11 13  1  0
 13 14  2  0
 14 15  1  0
 15 16  2  0
 16 17  1  0
  1 18  1  0
  2 19  1  0
  3 20  1  0
  5 21  1  0
 12 22  1  0
 12 23  1  0
 12 24  1  0
 14 25  1  0
 17 26  1  0
 17 27  1  0
M  END
>  <mol_id>  (51) 
2026-09-18-6fnk-s0-n100-r1-0051

>  <rmsd_to_ref>  (51) 
2.7500000000001843

>  <pose_kind>  (51) 
rigid

$$$$
6fnk.A
     RDKit          3D

 27 29  0  0  0  0  0  0  0  0999 V2000
    0.8280   15.8222   43.8550 C   0  0  0  0  0  0  0  0  0  0  0  0
    1.2147   14.6710   44.5392 C   0  0  0  0  0  0  0  0  0  0  0  0
    2.3084   13.9327   44.1447 C   0  0  0  0  0  0  0  0  0  0  0  0
    3.0294   14.3198   43.0761 N   0  0  0  0  0  0  0  0  0  0  0  0
    2.6839   15.4353   42.3843 C   0  0  0  0  0  0  0  0  0  0  0  0
    1.5924   16.1914   42.7602 C   0  0  0  0  0  0  0  0  0  0  0  0
    1.2516   17.3861   41.9906 C   0  0  0  0  0  0  0  0  0  0  0  0
    1.9930   17.7340   40.9382 N   0  0  0  0  0  0  0  0  0  0  0  0
    0.1820   18.1290   42.3570 N   0  0  0  0  0  0  0  0  0  0  0  0
   -0.1563   19.2458   41.6569 C   0  0  0  0  0  0  0  0  0  0  0  0
   -1.1432   20.1420   41.8000 N   0  0  0  0  0  0  0  0  0  0  0  0
   -2.1699   20.1086   42.8425 C   0  0  0  0  0  0  0  0  0  0  0  0
   -1.0520   21.0660   40.8552 N   0  0  0  0  0  0  0  0  0  0  0  0
    0.0126   20.7662   40.0838 C   0  0  0  0  0  0  0  0  0  0  0  0
    0.6049   19.6166   40.5639 C   0  0  0  0  0  0  0  0  0  0  0  0
    1.6934   18.8394   40.2106 C   0  0  0  0  0  0  0  0  0  0  0  0
    2.4595   19.2393   39.0857 N   0  0  0  0  0  0  0  0  0  0  0  0
   -0.0309   16.4127   44.1549 H   0  0  0  0  0  0  0  0  0  0  0  0
    0.6303   14.3508   45.4114 H   0  0  0  0  0  0  0  0  0  0  0  0
    2.6394   13.0359   44.6485 H   0  0  0  0  0  0  0  0  0  0  0  0
    3.3126   15.6910   41.5282 H   0  0  0  0  0  0  0  0  0  0  0  0
   -2.4266   19.0432   43.0801 H   0  0  0  0  0  0  0  0  0  0  0  0
   -1.8090   20.5944   43.7767 H   0  0  0  0  0  0  0  0  0  0  0  0
   -3.0903   20.6202   42.4930 H   0  0  0  0  0  0  0  0  0  0  0  0
    0.3684   21.3300   39.2114 H   0  0  0  0  0  0  0  0  0  0  0  0
    2.0184   19.2275   38.1219 H   0  0  0  0  0  0  0  0  0  0  0  0
    3.4326   19.5452   39.1465 H   0  0  0  0  0  0  0  0  0  0  0  0
  1  2  2  0
  1  6  1  0
  2  3  1  0
  3  4  2  0
  4  5  1  0
  5  6  2  0
  6  7  1  0
  7  8  2  0
  7  9  1  0
  8 16  1  0
  9 10  2  0
 10 11  1  0
 10 15  1  0
 11 12  1  0
 11 13  1  0
 13 14  2  0
 14 15  1  0
 15 16  2  0
 16 17  1  0
  1 18  1  0
  2 19  1  0
  3 20  1  0
  5 21  1  0
 12 22  1  0
 12 23  1  0
 12 24  1  0
 14 25  1  0
 17 26  1  0
 17 27  1  0
M  END
>  <mol_id>  (52) 
2026-09-18-6fnk-s0-n100-r1-0052

>  <rmsd_to_ref>  (52) 
2.79591836735238

>  <pose_kind>  (52) 
conformer

$$$$
6fnk.A
     RDKit          3D

 27 29  0  0  0  0  0  0  0  0999 V2000
    1.7229   17.6746   39.8325 C   0  0  0  0  0  0  0  0  0  0  0  0
    1.8338   17.2900   38.4962 C   0  0  0  0  0  0  0  0  0  0  0  0
    1.0497   16.2562   38.0055 C   0  0  0  0  0  0  0  0  0  0  0  0
    0.1469   15.6038   38.8496 N   0  0  0  0  0  0  0  0  0  0  0  0
    0.0386   15.9918   40.1937 C   0  0  0  0  0  0  0  0  0  0  0  0
    0.8272   17.0290   40.6883 C   0  0  0  0  0  0  0  0  0  0  0  0
    0.7187   17.4119   42.0291 C   0  0  0  0  0  0  0  0  0  0  0  0
    1.5833   18.2808   42.5711 N   0  0  0  0  0  0  0  0  0  0  0  0
   -0.2636   16.9129   42.7861 N   0  0  0  0  0  0  0  0  0  0  0  0
   -0.3949   17.2507   44.0813 C   0  0  0  0  0  0  0  0  0  0  0  0
   -1.2722   16.8754   45.0245 N   0  0  0  0  0  0  0  0  0  0  0  0
   -2.3845   15.9381   44.8419 C   0  0  0  0  0  0  0  0  0  0  0  0
   -1.0270   17.4386   46.0921 N   0  0  0  0  0  0  0  0  0  0  0  0
    0.0236   18.2499   45.8867 C   0  0  0  0  0  0  0  0  0  0  0  0
    0.4509   18.1212   44.6235 C   0  0  0  0  0  0  0  0  0  0  0  0
    1.4502   18.6432   43.8604 C   0  0  0  0  0  0  0  0  0  0  0  0
    2.3322   19.5304   44.3815 N   0  0  0  0  0  0  0  0  0  0  0  0
    2.3473   18.4948   40.2164 H   0  0  0  0  0  0  0  0  0  0  0  0
    2.5426   17.8062   37.8320 H   0  0  0  0  0  0  0  0  0  0  0  0
    1.1385   15.9502   36.9526 H   0  0  0  0  0  0  0  0  0  0  0  0
   -0.6702   15.4762   40.8584 H   0  0  0  0  0  0  0  0  0  0  0  0
   -2.3398   15.1602   45.6183 H   0  0  0  0  0  0  0  0  0  0  0  0
   -3.3380   16.4808   44.9210 H   0  0  0  0  0  0  0  0  0  0  0  0
   -2.3103   15.4700   43.8492 H   0  0  0  0  0  0  0  0  0  0  0  0
    0.4656   18.9180   46.6406 H   0  0  0  0  0  0  0  0  0  0  0  0
    2.2489   19.8217   45.3659 H   0  0  0  0  0  0  0  0  0  0  0  0
    3.0858   19.9134   43.7931 H   0  0  0  0  0  0  0  0  0  0  0  0
  1  2  2  0
  1  6  1  0
  2  3  1  0
  3  4  2  0
  4  5  1  0
  5  6  2  0
  6  7  1  0
  7  8  2  0
  7  9  1  0
  8 16  1  0
  9 10  2  0
 10 11  1  0
 10 15  1  0
 11 12  1  0
 11 13  1  0
 13 14  2  0
 14 15  1  0
 15 16  2  0
 16 17  1  0
  1 18  1  0
  2 19  1  0
  3 20  1  0
  5 21  1  0
 12 22  1  0
 12 23  1  0
 12 24  1  0
 14 25  1  0
 17 26  1  0
 17 27  1  0
M  END
>  <mol_id>  (53) 
2026-09-18-6fnk-s0-n100-r1-0053

>  <rmsd_to_ref>  (53) 
2.84183673469894

>  <pose_kind>  (53) 
rigid

$$$$
6fnk.A
     RDKit          3D

 27 29  0  0  0  0  0  0  0  0999 V2000
    1.2901   16.3874   44.3866 C   0  0  0  0  0  0  0  0  0  0  0  0
    1.3121   15.0808   44.8730 C   0  0  0  0  0  0  0  0  0  0  0  0
    2.0907   14.1070   44.2633 C   0  0  0  0  0  0  0  0  0  0  0  0
    2.8428   14.4057   43.1861 N   0  0  0  0  0  0  0  0  0  0  0  0
    2.8235   15.6713   42.7123 C   0  0  0  0  0  0  0  0  0  0  0  0
    2.0650   16.6700   43.2867 C   0  0  0  0  0  0  0  0  0  0  0  0
    2.1226   18.0002   42.6894 C   0  0  0  0  0  0  0  0  0  0  0  0
    2.9101   18.1794   41.6141 N   0  0  0  0  0  0  0  0  0  0  0  0
    1.4189   19.0374   43.1787 N   0  0  0  0  0  0  0  0  0  0  0  0
    1.5103   20.2554   42.5825 C   0  0  0  0  0  0  0  0  0  0  0  0
    0.9679   21.4643   42.7984 N   0  0  0  0  0  0  0  0  0  0  0  0
    0.0343   21.7968   43.8584 C   0  0  0  0  0  0  0  0  0  0  0  0
    1.4036   22.3406   41.8974 N   0  0  0  0  0  0  0  0  0  0  0  0
    2.2458   21.7590   41.0520 C   0  0  0  0  0  0  0  0  0  0  0  0
    2.3283   20.4313   41.4695 C   0  0  0  0  0  0  0  0  0  0  0  0
    3.0471   19.3614   40.9738 C   0  0  0  0  0  0  0  0  0  0  0  0
    3.9033   19.4633   39.8414 N   0  0  0  0  0  0  0  0  0  0  0  0
    0.6894   17.1558   44.8503 H   0  0  0  0  0  0  0  0  0  0  0  0
    0.7157   14.8221   45.7359 H   0  0  0  0  0  0  0  0  0  0  0  0
    2.1347   13.0832   44.6103 H   0  0  0  0  0  0  0  0  0  0  0  0
    3.4514   15.8539   41.8394 H   0  0  0  0  0  0  0  0  0  0  0  0
    0.1323   22.8860   44.1266 H   0  0  0  0  0  0  0  0  0  0  0  0
   -1.0210   21.6297   43.5848 H   0  0  0  0  0  0  0  0  0  0  0  0
    0.2545   21.2520   44.7905 H   0  0  0  0  0  0  0  0  0  0  0  0
    2.7831   22.1754   40.2025 H   0  0  0  0  0  0  0  0  0  0  0  0
    3.4514   19.7040   38.9113 H   0  0  0  0  0  0  0  0  0  0  0  0
    4.9318   19.3074   39.9256 H   0  0  0  0  0  0  0  0  0  0  0  0
  1  2  2  0
  1  6  1  0
  2  3  1  0
  3  4  2  0
  4  5  1  0
  5  6  2  0
  6  7  1  0
  7  8  2  0
  7  9  1  0
  8 16  1  0
  9 10  2  0
 10 11  1  0
 10 15  1  0
 11 12  1  0
 11 13  1  0
 13 14  2  0
 14 15  1  0
 15 16  2  0
 16 17  1  0
  1 18  1  0
  2 19  1  0
  3 20  1  0
  5 21  1  0
 12 22  1  0
 12 23  1  0
 12 24  1  0
 14 25  1  0
 17 26  1  0
 17 27  1  0
M  END
>  <mol_id>  (54) 
2026-09-18-6fnk-s0-n100-r1-0054

>  <rmsd_to_ref>  (54) 
2.887755102044369

>  <pose_kind>  (54) 
conformer

$$$$
6fnk.A
     RDKit          3D

 27 29  0  0  0  0  0  0  0  0999 V2000
    4.3270   18.1244   44.2836 C   0  0  0  0  0  0  0  0  0  0  0  0
    5.5089   17.4154   44.4989 C   0  0  0  0  0  0  0  0  0  0  0  0
    5.4748   16.0345   44.6272 C   0  0  0  0  0  0  0  0  0  0  0  0
    4.2569   15.3550   44.5368 N   0  0  0  0  0  0  0  0  0  0  0  0
    3.0695   16.0711   44.3217 C   0  0  0  0  0  0  0  0  0  0  0  0
    3.1022   17.4585   44.1946 C   0  0  0  0  0  0  0  0  0  0  0  0
    1.9167   18.1697   43.9826 C   0  0  0  0  0  0  0  0  0  0  0  0
    1.8966   19.5088   44.0322 N   0  0  0  0  0  0  0  0  0  0  0  0
    0.7837   17.5109   43.7196 N   0  0  0  0  0  0  0  0  0  0  0  0
   -0.3773   18.1595   43.5188 C   0  0  0  0  0  0  0  0  0  0  0  0
   -1.6193   17.7222   43.2610 N   0  0  0  0  0  0  0  0  0  0  0  0
   -2.0273   16.3211   43.1215 C   0  0  0  0  0  0  0  0  0  0  0  0
   -2.3961   18.6708   43.1432 N   0  0  0  0  0  0  0  0  0  0  0  0
   -1.6799   19.7977   43.2893 C   0  0  0  0  0  0  0  0  0  0  0  0
   -0.4036   19.4881   43.5540 C   0  0  0  0  0  0  0  0  0  0  0  0
    0.7456   20.1708   43.8122 C   0  0  0  0  0  0  0  0  0  0  0  0
    0.7545   21.5251   43.8590 N   0  0  0  0  0  0  0  0  0  0  0  0
    4.3598   19.2193   44.1829 H   0  0  0  0  0  0  0  0  0  0  0  0
    6.4673   17.9509   44.5669 H   0  0  0  0  0  0  0  0  0  0  0  0
    6.4058   15.4747   44.8000 H   0  0  0  0  0  0  0  0  0  0  0  0
    2.1107   15.5361   44.2533 H   0  0  0  0  0  0  0  0  0  0  0  0
   -2.8868   16.1224   43.7785 H   0  0  0  0  0  0  0  0  0  0  0  0
   -2.3108   16.1241   42.0771 H   0  0  0  0  0  0  0  0  0  0  0  0
   -1.1904   15.6656   43.4042 H   0  0  0  0  0  0  0  0  0  0  0  0
   -2.0802   20.8187   43.2046 H   0  0  0  0  0  0  0  0  0  0  0  0
   -0.1151   22.0518   43.6937 H   0  0  0  0  0  0  0  0  0  0  0  0
    1.6308   22.0277   44.0599 H   0  0  0  0  0  0  0  0  0  0  0  0
  1  2  2  0
  1  6  1  0
  2  3  1  0
  3  4  2  0
  4  5  1  0
  5  6  2  0
  6  7  1  0
  7  8  2  0
  7  9  1  0
  8 16  1  0
  9 10  2  0
 10 11  1  0
 10 15  1  0
 11 12  1  0
 11 13  1  0
 13 14  2  0
 14 15  1  0
 15 16  2  0
 16 17  1  0
  1 18  1  0
  2 19  1  0
  3 20  1  0
  5 21  1  0
 12 22  1  0
 12 23  1  0
 12 24  1  0
 14 25  1  0
 17 26  1  0
 17 27  1  0
M  END
>  <mol_id>  (55) 
2026-09-18-6fnk-s0-n100-r1-0055

>  <rmsd_to_ref>  (55) 
2.9336734693924122

>  <pose_kind>  (55) 
rigid

$$$$
6fnk.A
     RDKit          3D

 27 29  0  0  0  0  0  0  0  0999 V2000
    1.4034   15.1326   44.2830 C   0  0  0  0  0  0  0  0  0  0  0  0
    1.4014   13.8878   44.9102 C   0  0  0  0  0  0  0  0  0  0  0  0
    1.8876   12.7638   44.2800 C   0  0  0  0  0  0  0  0  0  0  0  0
    2.3788   12.8547   43.0302 N   0  0  0  0  0  0  0  0  0  0  0  0
    2.3977   14.0497   42.3867 C   0  0  0  0  0  0  0  0  0  0  0  0
    1.9162   15.1898   42.9974 C   0  0  0  0  0  0  0  0  0  0  0  0
    1.9531   16.4584   42.2727 C   0  0  0  0  0  0  0  0  0  0  0  0
    2.4485   16.5041   41.0355 N   0  0  0  0  0  0  0  0  0  0  0  0
    1.4817   17.5774   42.8690 N   0  0  0  0  0  0  0  0  0  0  0  0
    1.5049   18.7709   42.2156 C   0  0  0  0  0  0  0  0  0  0  0  0
    1.1112   20.0040   42.5646 N   0  0  0  0  0  0  0  0  0  0  0  0
    0.5127   20.3676   43.8499 C   0  0  0  0  0  0  0  0  0  0  0  0
    1.3443   20.8486   41.5711 N   0  0  0  0  0  0  0  0  0  0  0  0
    1.8994   20.1532   40.5578 C   0  0  0  0  0  0  0  0  0  0  0  0
    2.0162   18.8308   40.9324 C   0  0  0  0  0  0  0  0  0  0  0  0
    2.4918   17.6718   40.3457 C   0  0  0  0  0  0  0  0  0  0  0  0
    3.0116   17.7574   39.0287 N   0  0  0  0  0  0  0  0  0  0  0  0
    1.0236   16.0255   44.7677 H   0  0  0  0  0  0  0  0  0  0  0  0
    1.0019   13.8080   45.9294 H   0  0  0  0  0  0  0  0  0  0  0  0
    1.9031   11.7826   44.7323 H   0  0  0  0  0  0  0  0  0  0  0  0
    2.8100   14.0511   41.3751 H   0  0  0  0  0  0  0  0  0  0  0  0
   -0.1200   19.5193   44.2206 H   0  0  0  0  0  0  0  0  0  0  0  0
    1.2962   20.5745   44.6130 H   0  0  0  0  0  0  0  0  0  0  0  0
   -0.1342   21.2616   43.7342 H   0  0  0  0  0  0  0  0  0  0  0  0
    2.2147   20.5530   39.5850 H   0  0  0  0  0  0  0  0  0  0  0  0
    2.3657   18.0106   38.2272 H   0  0  0  0  0  0  0  0  0  0  0  0
    3.9922   17.5867   38.7975 H   0  0  0  0  0  0  0  0  0  0  0  0
  1  2  2  0
  1  6  1  0
  2  3  1  0
  3  4  2  0
  4  5  1  0
  5  6  2  0
  6  7  1  0
  7  8  2  0
  7  9  1  0
  8 16  1  0
  9 10  2  0
 10 11  1  0
 10 15  1  0
 11 12  1  0
 11 13  1  0
 13 14  2  0
 14 15  1  0
 15 16  2  0
 16 17  1  0
  1 18  1  0
  2 19  1  0
  3 20  1  0
  5 21  1  0
 12 22  1  0
 12 23  1  0
 12 24  1  0
 14 25  1  0
 17 26  1  0
 17 27  1  0
M  END
>  <mol_id>  (56) 
2026-09-18-6fnk-s0-n100-r1-0056

>  <rmsd_to_ref>  (56) 
2.9795918367416623

>  <pose_kind>  (56) 
conformer

$$$$
6fnk.A
     RDKit          3D

 27 29  0  0  0  0  0  0  0  0999 V2000
   -0.8411   16.6532   41.0378 C   0  0  0  0  0  0  0  0  0  0  0  0
   -1.1594   15.7553   40.0187 C   0  0  0  0  0  0  0  0  0  0  0  0
   -0.5819   14.4941   40.0012 C   0  0  0  0  0  0  0  0  0  0  0  0
    0.3152   14.1233   41.0067 N   0  0  0  0  0  0  0  0  0  0  0  0
    0.6347   15.0291   42.0296 C   0  0  0  0  0  0  0  0  0  0  0  0
    0.0566   16.2971   42.0471 C   0  0  0  0  0  0  0  0  0  0  0  0
    0.3788   17.1986   43.0667 C   0  0  0  0  0  0  0  0  0  0  0  0
   -0.0233   18.4759   43.0115 N   0  0  0  0  0  0  0  0  0  0  0  0
    1.0929   16.7858   44.1187 N   0  0  0  0  0  0  0  0  0  0  0  0
    1.4294   17.6253   45.1141 C   0  0  0  0  0  0  0  0  0  0  0  0
    2.1385   17.4483   46.2393 N   0  0  0  0  0  0  0  0  0  0  0  0
    2.7543   16.1933   46.6806 C   0  0  0  0  0  0  0  0  0  0  0  0
    2.2027   18.4983   46.8799 N   0  0  0  0  0  0  0  0  0  0  0  0
    1.4979   19.4233   46.2076 C   0  0  0  0  0  0  0  0  0  0  0  0
    1.0242   18.8907   45.0732 C   0  0  0  0  0  0  0  0  0  0  0  0
    0.2888   19.3210   44.0114 C   0  0  0  0  0  0  0  0  0  0  0  0
   -0.1378   20.6050   43.9355 N   0  0  0  0  0  0  0  0  0  0  0  0
   -1.3018   17.6520   41.0466 H   0  0  0  0  0  0  0  0  0  0  0  0
   -1.8679   16.0472   39.2295 H   0  0  0  0  0  0  0  0  0  0  0  0
   -0.8299   13.7864   39.1965 H   0  0  0  0  0  0  0  0  0  0  0  0
    1.3429   14.7378   42.8192 H   0  0  0  0  0  0  0  0  0  0  0  0
    3.8147   16.3679   46.9152 H   0  0  0  0  0  0  0  0  0  0  0  0
    2.2357   15.8262   47.5784 H   0  0  0  0  0  0  0  0  0  0  0  0
    2.6747   15.4441   45.8790 H   0  0  0  0  0  0  0  0  0  0  0  0
    1.3348   20.4597   46.5380 H   0  0  0  0  0  0  0  0  0  0  0  0
    0.0896   21.2687   44.6895 H   0  0  0  0  0  0  0  0  0  0  0  0
   -0.6896   20.9172   43.1237 H   0  0  0  0  0  0  0  0  0  0  0  0
  1  2  2  0
  1  6  1  0
  2  3  1  0
  3  4  2  0
  4  5  1  0
  5  6  2  0
  6  7  1  0
  7  8  2  0
  7  9  1  0
  8 16  1  0
  9 10  2  0
 10 11  1  0
 10 15  1  0
 11 12  1  0
 11 13  1  0
 13 14  2  0
 14 15  1  0
 15 16  2  0
 16 17  1  0
  1 18  1  0
  2 19  1  0
  3 20  1  0
  5 21  1  0
 12 22  1  0
 12 23  1  0
 12 24  1  0
 14 25  1  0
 17 26  1  0
 17 27  1  0
M  END
>  <mol_id>  (57) 
2026-09-18-6fnk-s0-n100-r1-0057

>  <rmsd_to_ref>  (57) 
3.02551020408742

>  <pose_kind>  (57) 
rigid

$$$$
6fnk.A
     RDKit          3D

 27 29  0  0  0  0  0  0  0  0999 V2000
    3.9686   14.8331   43.6278 C   0  0  0  0  0  0  0  0  0  0  0  0
    4.9148   14.0067   44.2212 C   0  0  0  0  0  0  0  0  0  0  0  0
    5.4904   14.4030   45.4113 C   0  0  0  0  0  0  0  0  0  0  0  0
    5.1739   15.5629   46.0275 N   0  0  0  0  0  0  0  0  0  0  0  0
    4.2510   16.3706   45.4503 C   0  0  0  0  0  0  0  0  0  0  0  0
    3.6354   16.0367   44.2603 C   0  0  0  0  0  0  0  0  0  0  0  0
    2.6457   16.8740   43.6147 C   0  0  0  0  0  0  0  0  0  0  0  0
    2.0514   16.5338   42.4494 N   0  0  0  0  0  0  0  0  0  0  0  0
    2.2957   18.0542   44.2016 N   0  0  0  0  0  0  0  0  0  0  0  0
    1.3654   18.8485   43.6013 C   0  0  0  0  0  0  0  0  0  0  0  0
    0.8345   20.0475   43.9464 N   0  0  0  0  0  0  0  0  0  0  0  0
    1.1308   20.8500   45.1110 C   0  0  0  0  0  0  0  0  0  0  0  0
   -0.0426   20.4112   43.0251 N   0  0  0  0  0  0  0  0  0  0  0  0
   -0.1207   19.4834   42.0577 C   0  0  0  0  0  0  0  0  0  0  0  0
    0.7613   18.4968   42.4114 C   0  0  0  0  0  0  0  0  0  0  0  0
    1.1326   17.3040   41.8434 C   0  0  0  0  0  0  0  0  0  0  0  0
    0.5691   16.8504   40.6177 N   0  0  0  0  0  0  0  0  0  0  0  0
    3.4786   14.5762   42.6888 H   0  0  0  0  0  0  0  0  0  0  0  0
    5.1654   13.0735   43.7196 H   0  0  0  0  0  0  0  0  0  0  0  0
    6.2199   13.7331   45.8386 H   0  0  0  0  0  0  0  0  0  0  0  0
    3.9878   17.3181   45.9470 H   0  0  0  0  0  0  0  0  0  0  0  0
    0.1592   20.9463   45.6755 H   0  0  0  0  0  0  0  0  0  0  0  0
    1.8480   20.3498   45.7903 H   0  0  0  0  0  0  0  0  0  0  0  0
    1.4278   21.8830   44.8580 H   0  0  0  0  0  0  0  0  0  0  0  0
   -0.7300   19.4612   41.1643 H   0  0  0  0  0  0  0  0  0  0  0  0
   -0.3021   17.3188   40.2837 H   0  0  0  0  0  0  0  0  0  0  0  0
    1.0068   16.0840   40.0768 H   0  0  0  0  0  0  0  0  0  0  0  0
  1  2  2  0
  1  6  1  0
  2  3  1  0
  3  4  2  0
  4  5  1  0
  5  6  2  0
  6  7  1  0
  7  8  2  0
  7  9  1  0
  8 16  1  0
  9 10  2  0
 10 11  1  0
 10 15  1  0
 11 12  1  0
 11 13  1  0
 13 14  2  0
 14 15  1  0
 15 16  2  0
 16 17  1  0
  1 18  1  0
  2 19  1  0
  3 20  1  0
  5 21  1  0
 12 22  1  0
 12 23  1  0
 12 24  1  0
 14 25  1  0
 17 26  1  0
 17 27  1  0
M  END
>  <mol_id>  (58) 
2026-09-18-6fnk-s0-n100-r1-0058

>  <rmsd_to_ref>  (58) 
3.0714285714336644

>  <pose_kind>  (58) 
conformer

$$$$
6fnk.A
     RDKit          3D

 27 29  0  0  0  0  0  0  0  0999 V2000
    1.7377   15.5613   42.2598 C   0  0  0  0  0  0  0  0  0  0  0  0
    1.7391   14.3950   43.0251 C   0  0  0  0  0  0  0  0  0  0  0  0
    1.9265   14.4673   44.3977 C   0  0  0  0  0  0  0  0  0  0  0  0
    2.1100   15.7090   45.0126 N   0  0  0  0  0  0  0  0  0  0  0  0
    2.1097   16.8802   44.2399 C   0  0  0  0  0  0  0  0  0  0  0  0
    1.9234   16.8086   42.8607 C   0  0  0  0  0  0  0  0  0  0  0  0
    1.9259   17.9776   42.0928 C   0  0  0  0  0  0  0  0  0  0  0  0
    1.9251   17.9242   40.7537 N   0  0  0  0  0  0  0  0  0  0  0  0
    1.9226   19.1702   42.6968 N   0  0  0  0  0  0  0  0  0  0  0  0
    1.9337   20.3159   41.9924 C   0  0  0  0  0  0  0  0  0  0  0  0
    1.9485   21.6036   42.3691 N   0  0  0  0  0  0  0  0  0  0  0  0
    1.9499   22.0969   43.7495 C   0  0  0  0  0  0  0  0  0  0  0  0
    1.9516   22.3426   41.3837 N   0  0  0  0  0  0  0  0  0  0  0  0
    1.9057   21.5594   40.2935 C   0  0  0  0  0  0  0  0  0  0  0  0
    1.9205   20.2719   40.6638 C   0  0  0  0  0  0  0  0  0  0  0  0
    1.9148   19.0634   40.0371 C   0  0  0  0  0  0  0  0  0  0  0  0
    1.9049   18.9814   38.6845 N   0  0  0  0  0  0  0  0  0  0  0  0
    1.5889   15.4980   41.1717 H   0  0  0  0  0  0  0  0  0  0  0  0
    1.5916   13.4185   42.5405 H   0  0  0  0  0  0  0  0  0  0  0  0
    1.9308   13.5481   45.0018 H   0  0  0  0  0  0  0  0  0  0  0  0
    2.2569   17.8570   44.7239 H   0  0  0  0  0  0  0  0  0  0  0  0
    2.7737   22.8137   43.8819 H   0  0  0  0  0  0  0  0  0  0  0  0
    0.9925   22.5954   43.9617 H   0  0  0  0  0  0  0  0  0  0  0  0
    2.0844   21.2519   44.4408 H   0  0  0  0  0  0  0  0  0  0  0  0
    1.8626   21.9200   39.2552 H   0  0  0  0  0  0  0  0  0  0  0  0
    1.8969   19.8406   38.1165 H   0  0  0  0  0  0  0  0  0  0  0  0
    1.9053   18.0599   38.2243 H   0  0  0  0  0  0  0  0  0  0  0  0
  1  2  2  0
  1  6  1  0
  2  3  1  0
  3  4  2  0
  4  5  1  0
  5  6  2  0
  6  7  1  0
  7  8  2  0
  7  9  1  0
  8 16  1  0
  9 10  2  0
 10 11  1  0
 10 15  1  0
 11 12  1  0
 11 13  1  0
 13 14  2  0
 14 15  1  0
 15 16  2  0
 16 17  1  0
  1 18  1  0
  2 19  1  0
  3 20  1  0
  5 21  1  0
 12 22  1  0
 12 23  1  0
 12 24  1  0
 14 25  1  0
 17 26  1  0
 17 27  1  0
M  END
>  <mol_id>  (59) 
2026-09-18-6fnk-s0-n100-r1-0059

>  <rmsd_to_ref>  (59) 
3.1173469387781183

>  <pose_kind>  (59) 
rigid

$$$$
6fnk.A
     RDKit          3D

 27 29  0  0  0  0  0  0  0  0999 V2000
    4.6055   16.2612   42.6905 C   0  0  0  0  0  0  0  0  0  0  0  0
    5.9016   16.1776   42.2238 C   0  0  0  0  0  0  0  0  0  0  0  0
    6.2265   16.9124   41.0984 C   0  0  0  0  0  0  0  0  0  0  0  0
    5.3137   17.6904   40.4674 N   0  0  0  0  0  0  0  0  0  0  0  0
    4.0522   17.7642   40.9320 C   0  0  0  0  0  0  0  0  0  0  0  0
    3.6732   17.0546   42.0479 C   0  0  0  0  0  0  0  0  0  0  0  0
    2.3057   17.1372   42.5480 C   0  0  0  0  0  0  0  0  0  0  0  0
    1.4183   17.9173   41.9029 N   0  0  0  0  0  0  0  0  0  0  0  0
    1.9485   16.4380   43.6404 N   0  0  0  0  0  0  0  0  0  0  0  0
    0.6917   16.4824   44.1421 C   0  0  0  0  0  0  0  0  0  0  0  0
    0.0559   15.9146   45.1835 N   0  0  0  0  0  0  0  0  0  0  0  0
    0.6884   14.9950   46.1284 C   0  0  0  0  0  0  0  0  0  0  0  0
   -1.2030   16.3348   45.1846 N   0  0  0  0  0  0  0  0  0  0  0  0
   -1.4180   17.1777   44.1558 C   0  0  0  0  0  0  0  0  0  0  0  0
   -0.2187   17.2842   43.4784 C   0  0  0  0  0  0  0  0  0  0  0  0
    0.1334   18.0081   42.3552 C   0  0  0  0  0  0  0  0  0  0  0  0
   -0.8292   18.8294   41.6889 N   0  0  0  0  0  0  0  0  0  0  0  0
    4.3497   15.6767   43.5847 H   0  0  0  0  0  0  0  0  0  0  0  0
    6.6356   15.5573   42.7240 H   0  0  0  0  0  0  0  0  0  0  0  0
    7.2541   16.8276   40.7530 H   0  0  0  0  0  0  0  0  0  0  0  0
    3.3316   18.3822   40.4288 H   0  0  0  0  0  0  0  0  0  0  0  0
    1.6692   15.4342   46.3860 H   0  0  0  0  0  0  0  0  0  0  0  0
    0.0706   14.8692   47.0378 H   0  0  0  0  0  0  0  0  0  0  0  0
    0.7882   14.0070   45.6005 H   0  0  0  0  0  0  0  0  0  0  0  0
   -2.3323   17.6887   43.8819 H   0  0  0  0  0  0  0  0  0  0  0  0
   -0.4741   19.6152   41.0838 H   0  0  0  0  0  0  0  0  0  0  0  0
   -1.8388   18.6278   41.8208 H   0  0  0  0  0  0  0  0  0  0  0  0
  1  2  2  0
  1  6  1  0
  2  3  1  0
  3  4  2  0
  4  5  1  0
  5  6  2  0
  6  7  1  0
  7  8  2  0
  7  9  1  0
  8 16  1  0
  9 10  2  0
 10 11  1  0
 10 15  1  0
 11 12  1  0
 11 13  1  0
 13 14  2  0
 14 15  1  0
 15 16  2  0
 16 17  1  0
  1 18  1  0
  2 19  1  0
  3 20  1  0
  5 21  1  0
 12 22  1  0
 12 23  1  0
 12 24  1  0
 14 25  1  0
 17 26  1  0
 17 27  1  0
M  END
>  <mol_id>  (60) 
2026-09-18-6fnk-s0-n100-r1-0060

>  <rmsd_to_ref>  (60) 
3.1632653061248153

>  <pose_kind>  (60) 
conformer

$$$$
6fnk.A
     RDKit          3D

 27 29  0  0  0  0  0  0  0  0999 V2000
   -0.6397   17.7709   39.6187 C   0  0  0  0  0  0  0  0  0  0  0  0
   -1.5346   16.8701   39.0410 C   0  0  0  0  0  0  0  0  0  0  0  0
   -1.8827   15.7097   39.7168 C   0  0  0  0  0  0  0  0  0  0  0  0
   -1.3394   15.4465   40.9773 N   0  0  0  0  0  0  0  0  0  0  0  0
   -0.4384   16.3537   41.5552 C   0  0  0  0  0  0  0  0  0  0  0  0
   -0.0864   17.5188   40.8764 C   0  0  0  0  0  0  0  0  0  0  0  0
    0.8138   18.4201   41.4539 C   0  0  0  0  0  0  0  0  0  0  0  0
    1.3017   19.4532   40.7534 N   0  0  0  0  0  0  0  0  0  0  0  0
    1.1930   18.2588   42.7256 N   0  0  0  0  0  0  0  0  0  0  0  0
    2.0633   19.0995   43.3126 C   0  0  0  0  0  0  0  0  0  0  0  0
    2.5930   19.1301   44.5450 N   0  0  0  0  0  0  0  0  0  0  0  0
    2.3163   18.1783   45.6250 C   0  0  0  0  0  0  0  0  0  0  0  0
    3.3559   20.0897   44.6643 N   0  0  0  0  0  0  0  0  0  0  0  0
    3.3373   20.7650   43.5034 C   0  0  0  0  0  0  0  0  0  0  0  0
    2.5425   20.1339   42.6287 C   0  0  0  0  0  0  0  0  0  0  0  0
    2.1570   20.3140   41.3356 C   0  0  0  0  0  0  0  0  0  0  0  0
    2.6284   21.3555   40.6079 N   0  0  0  0  0  0  0  0  0  0  0  0
   -0.3669   18.6893   39.0782 H   0  0  0  0  0  0  0  0  0  0  0  0
   -1.9638   17.0797   38.0501 H   0  0  0  0  0  0  0  0  0  0  0  0
   -2.5860   14.9973   39.2609 H   0  0  0  0  0  0  0  0  0  0  0  0
   -0.0089   16.1449   42.5461 H   0  0  0  0  0  0  0  0  0  0  0  0
    3.2652   17.7927   46.0260 H   0  0  0  0  0  0  0  0  0  0  0  0
    1.7585   18.6850   46.4263 H   0  0  0  0  0  0  0  0  0  0  0  0
    1.7174   17.3429   45.2331 H   0  0  0  0  0  0  0  0  0  0  0  0
    3.8902   21.6942   43.3015 H   0  0  0  0  0  0  0  0  0  0  0  0
    3.2839   22.0263   41.0336 H   0  0  0  0  0  0  0  0  0  0  0  0
    2.3312   21.4762   39.6291 H   0  0  0  0  0  0  0  0  0  0  0  0
  1  2  2  0
  1  6  1  0
  2  3  1  0
  3  4  2  0
  4  5  1  0
  5  6  2  0
  6  7  1  0
  7  8  2  0
  7  9  1  0
  8 16  1  0
  9 10  2  0
 10 11  1  0
 10 15  1  0
 11 12  1  0
 11 13  1  0
 13 14  2  0
 14 15  1  0
 15 16  2  0
 16 17  1  0
  1 18  1  0
  2 19  1  0
  3 20  1  0
  5 21  1  0
 12 22  1  0
 12 23  1  0
 12 24  1  0
 14 25  1  0
 17 26  1  0
 17 27  1  0
M  END
>  <mol_id>  (61) 
2026-09-18-6fnk-s0-n100-r1-0061

>  <rmsd_to_ref>  (61) 
3.2091836734747656

>  <pose_kind>  (61) 
rigid

$$$$
6fnk.A
     RDKit          3D

 27 29  0  0  0  0  0  0  0  0999 V2000
    0.2543   17.3444   41.2813 C   0  0  0  0  0  0  0  0  0  0  0  0
   -0.5773   16.5725   40.4918 C   0  0  0  0  0  0  0  0  0  0  0  0
   -1.0266   15.3643   41.0254 C   0  0  0  0  0  0  0  0  0  0  0  0
   -0.6595   14.9808   42.2532 N   0  0  0  0  0  0  0  0  0  0  0  0
    0.1613   15.7459   43.0288 C   0  0  0  0  0  0  0  0  0  0  0  0
    0.6396   16.9522   42.5575 C   0  0  0  0  0  0  0  0  0  0  0  0
    1.5264   17.8090   43.3588 C   0  0  0  0  0  0  0  0  0  0  0  0
    1.9681   18.9753   42.8601 N   0  0  0  0  0  0  0  0  0  0  0  0
    1.8613   17.3725   44.5841 N   0  0  0  0  0  0  0  0  0  0  0  0
    2.6710   18.1271   45.3493 C   0  0  0  0  0  0  0  0  0  0  0  0
    3.1826   17.9825   46.5872 N   0  0  0  0  0  0  0  0  0  0  0  0
    2.9096   16.8210   47.4302 C   0  0  0  0  0  0  0  0  0  0  0  0
    3.9348   19.0204   46.8889 N   0  0  0  0  0  0  0  0  0  0  0  0
    3.9452   19.8909   45.8538 C   0  0  0  0  0  0  0  0  0  0  0  0
    3.1521   19.3378   44.8786 C   0  0  0  0  0  0  0  0  0  0  0  0
    2.7805   19.7509   43.6055 C   0  0  0  0  0  0  0  0  0  0  0  0
    3.2496   20.9852   43.0809 N   0  0  0  0  0  0  0  0  0  0  0  0
    0.5931   18.2864   40.8413 H   0  0  0  0  0  0  0  0  0  0  0  0
   -0.8736   16.8811   39.5018 H   0  0  0  0  0  0  0  0  0  0  0  0
   -1.6753   14.7898   40.3757 H   0  0  0  0  0  0  0  0  0  0  0  0
    0.4525   15.4318   44.0147 H   0  0  0  0  0  0  0  0  0  0  0  0
    3.0515   15.9068   46.8116 H   0  0  0  0  0  0  0  0  0  0  0  0
    3.5504   16.8199   48.3297 H   0  0  0  0  0  0  0  0  0  0  0  0
    1.8239   16.8574   47.6942 H   0  0  0  0  0  0  0  0  0  0  0  0
    4.4538   20.8354   45.7633 H   0  0  0  0  0  0  0  0  0  0  0  0
    2.5961   21.7629   42.7886 H   0  0  0  0  0  0  0  0  0  0  0  0
    4.2641   21.2013   42.9517 H   0  0  0  0  0  0  0  0  0  0  0  0
  1  2  2  0
  1  6  1  0
  2  3  1  0
  3  4  2  0
  4  5  1  0
  5  6  2  0
  6  7  1  0
  7  8  2  0
  7  9  1  0
  8 16  1  0
  9 10  2  0
 10 11  1  0
 10 15  1  0
 11 12  1  0
 11 13  1  0
 13 14  2  0
 14 15  1  0
 15 16  2  0
 16 17  1  0
  1 18  1  0
  2 19  1  0
  3 20  1  0
  5 21  1  0
 12 22  1  0
 12 23  1  0
 12 24  1  0
 14 25  1  0
 17 26  1  0
 17 27  1  0
M  END
>  <mol_id>  (62) 
2026-09-18-6fnk-s0-n100-r1-0062

>  <rmsd_to_ref>  (62) 
3.255102040820847

>  <pose_kind>  (62) 
conformer

$$$$
6fnk.A
     RDKit          3D

 27 29  0  0  0  0  0  0  0  0999 V2000
   -0.7635   16.2362   42.1569 C   0  0  0  0  0  0  0  0  0  0  0  0
   -1.6790   15.1971   41.9893 C   0  0  0  0  0  0  0  0  0  0  0  0
   -1.8773   14.2775   43.0088 C   0  0  0  0  0  0  0  0  0  0  0  0
   -1.1625   14.3954   44.2040 N   0  0  0  0  0  0  0  0  0  0  0  0
   -0.2412   15.4408   44.3690 C   0  0  0  0  0  0  0  0  0  0  0  0
   -0.0397   16.3641   43.3448 C   0  0  0  0  0  0  0  0  0  0  0  0
    0.8810   17.4037   43.5114 C   0  0  0  0  0  0  0  0  0  0  0  0
    1.2210   18.1960   42.4853 N   0  0  0  0  0  0  0  0  0  0  0  0
    1.4297   17.6206   44.7109 N   0  0  0  0  0  0  0  0  0  0  0  0
    2.3251   18.6046   44.9078 C   0  0  0  0  0  0  0  0  0  0  0  0
    3.0079   18.9956   45.9946 N   0  0  0  0  0  0  0  0  0  0  0  0
    2.9221   18.3931   47.3283 C   0  0  0  0  0  0  0  0  0  0  0  0
    3.7303   19.9572   45.7290 N   0  0  0  0  0  0  0  0  0  0  0  0
    3.5271   20.2683   44.4383 C   0  0  0  0  0  0  0  0  0  0  0  0
    2.6585   19.4028   43.8984 C   0  0  0  0  0  0  0  0  0  0  0  0
    2.0999   19.1976   42.6740 C   0  0  0  0  0  0  0  0  0  0  0  0
    2.4196   19.9899   41.6221 N   0  0  0  0  0  0  0  0  0  0  0  0
   -0.6100   16.9625   41.3451 H   0  0  0  0  0  0  0  0  0  0  0  0
   -2.2432   15.1070   41.0494 H   0  0  0  0  0  0  0  0  0  0  0  0
   -2.5968   13.4559   42.8766 H   0  0  0  0  0  0  0  0  0  0  0  0
    0.3232   15.5317   45.3088 H   0  0  0  0  0  0  0  0  0  0  0  0
    3.9334   18.1502   47.6867 H   0  0  0  0  0  0  0  0  0  0  0  0
    2.4481   19.1033   48.0217 H   0  0  0  0  0  0  0  0  0  0  0  0
    2.3206   17.4735   47.2772 H   0  0  0  0  0  0  0  0  0  0  0  0
    4.0014   21.1058   43.9057 H   0  0  0  0  0  0  0  0  0  0  0  0
    3.0900   20.7622   41.7441 H   0  0  0  0  0  0  0  0  0  0  0  0
    1.9923   19.8196   40.7005 H   0  0  0  0  0  0  0  0  0  0  0  0
  1  2  2  0
  1  6  1  0
  2  3  1  0
  3  4  2  0
  4  5  1  0
  5  6  2  0
  6  7  1  0
  7  8  2  0
  7  9  1  0
  8 16  1  0
  9 10  2  0
 10 11  1  0
 10 15  1  0
 11 12  1  0
 11 13  1  0
 13 14  2  0
 14 15  1  0
 15 16  2  0
 16 17  1  0
  1 18  1  0
  2 19  1  0
  3 20  1  0
  5 21  1  0
 12 22  1  0
 12 23  1  0
 12 24  1  0
 14 25  1  0
 17 26  1  0
 17 27  1  0
M  END
>  <mol_id>  (63) 
2026-09-18-6fnk-s0-n100-r1-0063

>  <rmsd_to_ref>  (63) 
3.3010204081675134

>  <pose_kind>  (63) 
rigid

$$$$
6fnk.A
     RDKit          3D

 27 29  0  0  0  0  0  0  0  0999 V2000
    4.8419   16.2873   41.9175 C   0  0  0  0  0  0  0  0  0  0  0  0
    6.2102   16.0630   41.7589 C   0  0  0  0  0  0  0  0  0  0  0  0
    7.0726   17.1451   41.7542 C   0  0  0  0  0  0  0  0  0  0  0  0
    6.6290   18.4082   41.8983 N   0  0  0  0  0  0  0  0  0  0  0  0
    5.3141   18.6331   42.0514 C   0  0  0  0  0  0  0  0  0  0  0  0
    4.4140   17.5882   42.0630 C   0  0  0  0  0  0  0  0  0  0  0  0
    2.9922   17.8666   42.2313 C   0  0  0  0  0  0  0  0  0  0  0  0
    2.5820   19.1519   42.3736 N   0  0  0  0  0  0  0  0  0  0  0  0
    2.0990   16.8598   42.2451 N   0  0  0  0  0  0  0  0  0  0  0  0
    0.7713   17.0999   42.4007 C   0  0  0  0  0  0  0  0  0  0  0  0
   -0.3141   16.3023   42.4507 N   0  0  0  0  0  0  0  0  0  0  0  0
   -0.2783   14.8552   42.3344 C   0  0  0  0  0  0  0  0  0  0  0  0
   -1.4137   17.0405   42.6215 N   0  0  0  0  0  0  0  0  0  0  0  0
   -1.0458   18.3456   42.6850 C   0  0  0  0  0  0  0  0  0  0  0  0
    0.3425   18.4035   42.5464 C   0  0  0  0  0  0  0  0  0  0  0  0
    1.2570   19.4356   42.5323 C   0  0  0  0  0  0  0  0  0  0  0  0
    0.8214   20.7941   42.6829 N   0  0  0  0  0  0  0  0  0  0  0  0
    4.1381   15.4425   41.9244 H   0  0  0  0  0  0  0  0  0  0  0  0
    6.5619   15.0370   41.6428 H   0  0  0  0  0  0  0  0  0  0  0  0
    8.1236   16.9694   41.6321 H   0  0  0  0  0  0  0  0  0  0  0  0
    4.9835   19.6728   42.1665 H   0  0  0  0  0  0  0  0  0  0  0  0
    0.5324   14.5507   41.6569 H   0  0  0  0  0  0  0  0  0  0  0  0
   -0.1301   14.4659   43.3600 H   0  0  0  0  0  0  0  0  0  0  0  0
   -1.2765   14.5164   41.9958 H   0  0  0  0  0  0  0  0  0  0  0  0
   -1.6504   19.2187   42.8153 H   0  0  0  0  0  0  0  0  0  0  0  0
   -0.0873   21.0826   42.2112 H   0  0  0  0  0  0  0  0  0  0  0  0
    1.3698   21.4983   43.2387 H   0  0  0  0  0  0  0  0  0  0  0  0
  1  2  2  0
  1  6  1  0
  2  3  1  0
  3  4  2  0
  4  5  1  0
  5  6  2  0
  6  7  1  0
  7  8  2  0
  7  9  1  0
  8 16  1  0
  9 10  2  0
 10 11  1  0
 10 15  1  0
 11 12  1  0
 11 13  1  0
 13 14  2  0
 14 15  1  0
 15 16  2  0
 16 17  1  0
  1 18  1  0
  2 19  1  0
  3 20  1  0
  5 21  1  0
 12 22  1  0
 12 23  1  0
 12 24  1  0
 14 25  1  0
 17 26  1  0
 17 27  1  0
M  END
>  <mol_id>  (64) 
2026-09-18-6fnk-s0-n100-r1-0064

>  <rmsd_to_ref>  (64) 
3.3469387755157034

>  <pose_kind>  (64) 
conformer

$$$$
6fnk.A
     RDKit          3D

 27 29  0  0  0  0  0  0  0  0999 V2000
    3.7390   15.3732   45.4323 C   0  0  0  0  0  0  0  0  0  0  0  0
    4.1506   14.2662   46.1747 C   0  0  0  0  0  0  0  0  0  0  0  0
    3.3341   13.1481   46.2619 C   0  0  0  0  0  0  0  0  0  0  0  0
    2.1018   13.1307   45.6027 N   0  0  0  0  0  0  0  0  0  0  0  0
    1.6898   14.2463   44.8580 C   0  0  0  0  0  0  0  0  0  0  0  0
    2.5084   15.3708   44.7713 C   0  0  0  0  0  0  0  0  0  0  0  0
    2.0940   16.4822   44.0301 C   0  0  0  0  0  0  0  0  0  0  0  0
    2.7764   17.6348   44.0739 N   0  0  0  0  0  0  0  0  0  0  0  0
    1.0052   16.3992   43.2590 N   0  0  0  0  0  0  0  0  0  0  0  0
    0.5710   17.4488   42.5389 C   0  0  0  0  0  0  0  0  0  0  0  0
   -0.4821   17.6060   41.7225 N   0  0  0  0  0  0  0  0  0  0  0  0
   -1.4796   16.5822   41.3970 C   0  0  0  0  0  0  0  0  0  0  0  0
   -0.5037   18.7469   41.2589 N   0  0  0  0  0  0  0  0  0  0  0  0
    0.5731   19.3943   41.7337 C   0  0  0  0  0  0  0  0  0  0  0  0
    1.2490   18.5920   42.5670 C   0  0  0  0  0  0  0  0  0  0  0  0
    2.3645   18.6863   43.3416 C   0  0  0  0  0  0  0  0  0  0  0  0
    3.0777   19.8372   43.3968 N   0  0  0  0  0  0  0  0  0  0  0  0
    4.3903   16.2573   45.3668 H   0  0  0  0  0  0  0  0  0  0  0  0
    5.1220   14.2799   46.6907 H   0  0  0  0  0  0  0  0  0  0  0  0
    3.6563   12.2758   46.8495 H   0  0  0  0  0  0  0  0  0  0  0  0
    0.7187   14.2332   44.3416 H   0  0  0  0  0  0  0  0  0  0  0  0
   -2.4884   16.9853   41.5693 H   0  0  0  0  0  0  0  0  0  0  0  0
   -1.3761   16.2921   40.3410 H   0  0  0  0  0  0  0  0  0  0  0  0
   -1.3227   15.7010   42.0364 H   0  0  0  0  0  0  0  0  0  0  0  0
    0.8568   20.4257   41.4774 H   0  0  0  0  0  0  0  0  0  0  0  0
    2.7804   20.6543   42.8445 H   0  0  0  0  0  0  0  0  0  0  0  0
    3.9170   19.8950   43.9909 H   0  0  0  0  0  0  0  0  0  0  0  0
  1  2  2  0
  1  6  1  0
  2  3  1  0
  3  4  2  0
  4  5  1  0
  5  6  2  0
  6  7  1  0
  7  8  2  0
  7  9  1  0
  8 16  1  0
  9 10  2  0
 10 11  1  0
 10 15  1  0
 11 12  1  0
 11 13  1  0
 13 14  2  0
 14 15  1  0
 15 16  2  0
 16 17  1  0
  1 18  1  0
  2 19  1  0
  3 20  1  0
  5 21  1  0
 12 22  1  0
 12 23  1  0
 12 24  1  0
 14 25  1  0
 17 26  1  0
 17 27  1  0
M  END
>  <mol_id>  (65) 
2026-09-18-6fnk-s0-n100-r1-0065

>  <rmsd_to_ref>  (65) 
3.392857142861563

>  <pose_kind>  (65) 
rigid

$$$$
6fnk.A
     RDKit          3D

 27 29  0  0  0  0  0  0  0  0999 V2000
    3.0011   18.9983   42.2876 C   0  0  0  0  0  0  0  0  0  0  0  0
    4.3716   19.0462   42.4821 C   0  0  0  0  0  0  0  0  0  0  0  0
    4.9448   18.4764   43.6213 C   0  0  0  0  0  0  0  0  0  0  0  0
    4.1859   17.8749   44.5447 N   0  0  0  0  0  0  0  0  0  0  0  0
    2.8537   17.8228   44.3654 C   0  0  0  0  0  0  0  0  0  0  0  0
    2.2466   18.3700   43.2599 C   0  0  0  0  0  0  0  0  0  0  0  0
    0.7810   18.3034   43.0794 C   0  0  0  0  0  0  0  0  0  0  0  0
    0.1993   18.8429   41.9925 N   0  0  0  0  0  0  0  0  0  0  0  0
    0.0520   17.6817   44.0456 N   0  0  0  0  0  0  0  0  0  0  0  0
   -1.2850   17.5904   43.9356 C   0  0  0  0  0  0  0  0  0  0  0  0
   -2.2554   17.0482   44.7098 N   0  0  0  0  0  0  0  0  0  0  0  0
   -1.9473   16.3830   45.9661 C   0  0  0  0  0  0  0  0  0  0  0  0
   -3.3993   17.2463   44.1203 N   0  0  0  0  0  0  0  0  0  0  0  0
   -3.2448   17.9150   42.9523 C   0  0  0  0  0  0  0  0  0  0  0  0
   -1.8833   18.1425   42.8229 C   0  0  0  0  0  0  0  0  0  0  0  0
   -1.1343   18.7816   41.8296 C   0  0  0  0  0  0  0  0  0  0  0  0
   -1.7698   19.3489   40.6817 N   0  0  0  0  0  0  0  0  0  0  0  0
    2.5544   19.4330   41.4166 H   0  0  0  0  0  0  0  0  0  0  0  0
    5.0018   19.5332   41.7377 H   0  0  0  0  0  0  0  0  0  0  0  0
    6.0323   18.5601   43.6938 H   0  0  0  0  0  0  0  0  0  0  0  0
    2.2747   17.3267   45.1365 H   0  0  0  0  0  0  0  0  0  0  0  0
   -1.3031   15.4979   45.8482 H   0  0  0  0  0  0  0  0  0  0  0  0
   -1.4007   17.0883   46.6553 H   0  0  0  0  0  0  0  0  0  0  0  0
   -2.9198   16.1550   46.4490 H   0  0  0  0  0  0  0  0  0  0  0  0
   -4.0420   18.2133   42.2540 H   0  0  0  0  0  0  0  0  0  0  0  0
   -1.3010   19.1696   39.7654 H   0  0  0  0  0  0  0  0  0  0  0  0
   -2.6594   19.9152   40.7539 H   0  0  0  0  0  0  0  0  0  0  0  0
  1  2  2  0
  1  6  1  0
  2  3  1  0
  3  4  2  0
  4  5  1  0
  5  6  2  0
  6  7  1  0
  7  8  2  0
  7  9  1  0
  8 16  1  0
  9 10  2  0
 10 11  1  0
 10 15  1  0
 11 12  1  0
 11 13  1  0
 13 14  2  0
 14 15  1  0
 15 16  2  0
 16 17  1  0
  1 18  1  0
  2 19  1  0
  3 20  1  0
  5 21  1  0
 12 22  1  0
 12 23  1  0
 12 24  1  0
 14 25  1  0
 17 26  1  0
 17 27  1  0
M  END
>  <mol_id>  (66) 
2026-09-18-6fnk-s0-n100-r1-0066

>  <rmsd_to_ref>  (66) 
3.43877551020699

>  <pose_kind>  (66) 
conformer

$$$$
6fnk.A
     RDKit          3D

 27 29  0  0  0  0  0  0  0  0999 V2000
   -1.6572   17.4681   40.0267 C   0  0  0  0  0  0  0  0  0  0  0  0
   -2.6745   16.6400   39.5522 C   0  0  0  0  0  0  0  0  0  0  0  0
   -3.0597   15.5266   40.2845 C   0  0  0  0  0  0  0  0  0  0  0  0
   -2.4305   15.2380   41.4987 N   0  0  0  0  0  0  0  0  0  0  0  0
   -1.4065   16.0720   41.9727 C   0  0  0  0  0  0  0  0  0  0  0  0
   -1.0174   17.1898   41.2369 C   0  0  0  0  0  0  0  0  0  0  0  0
    0.0052   18.0179   41.7108 C   0  0  0  0  0  0  0  0  0  0  0  0
    0.5158   18.9919   40.9448 N   0  0  0  0  0  0  0  0  0  0  0  0
    0.4814   17.8455   42.9479 N   0  0  0  0  0  0  0  0  0  0  0  0
    1.4700   18.6162   43.4354 C   0  0  0  0  0  0  0  0  0  0  0  0
    2.1084   18.6210   44.6154 N   0  0  0  0  0  0  0  0  0  0  0  0
    1.8483   17.7159   45.7389 C   0  0  0  0  0  0  0  0  0  0  0  0
    2.9589   19.5116   44.6436 N   0  0  0  0  0  0  0  0  0  0  0  0
    2.8948   20.1659   43.4723 C   0  0  0  0  0  0  0  0  0  0  0  0
    1.9735   19.5925   42.6867 C   0  0  0  0  0  0  0  0  0  0  0  0
    1.4908   19.7838   41.4282 C   0  0  0  0  0  0  0  0  0  0  0  0
    1.9834   20.7670   40.6364 N   0  0  0  0  0  0  0  0  0  0  0  0
   -1.3557   18.3496   39.4418 H   0  0  0  0  0  0  0  0  0  0  0  0
   -3.1711   16.8697   38.5979 H   0  0  0  0  0  0  0  0  0  0  0  0
   -3.8597   14.8712   39.9099 H   0  0  0  0  0  0  0  0  0  0  0  0
   -0.9097   15.8431   42.9271 H   0  0  0  0  0  0  0  0  0  0  0  0
    2.7925   17.2551   46.0646 H   0  0  0  0  0  0  0  0  0  0  0  0
    1.4103   18.2834   46.5732 H   0  0  0  0  0  0  0  0  0  0  0  0
    1.1470   16.9300   45.4218 H   0  0  0  0  0  0  0  0  0  0  0  0
    3.5056   21.0392   43.1998 H   0  0  0  0  0  0  0  0  0  0  0  0
    2.7297   21.3846   40.9862 H   0  0  0  0  0  0  0  0  0  0  0  0
    1.6113   20.8968   39.6847 H   0  0  0  0  0  0  0  0  0  0  0  0
  1  2  2  0
  1  6  1  0
  2  3  1  0
  3  4  2  0
  4  5  1  0
  5  6  2  0
  6  7  1  0
  7  8  2  0
  7  9  1  0
  8 16  1  0
  9 10  2  0
 10 11  1  0
 10 15  1  0
 11 12  1  0
 11 13  1  0
 13 14  2  0
 14 15  1  0
 15 16  2  0
 16 17  1  0
  1 18  1  0
  2 19  1  0
  3 20  1  0
  5 21  1  0
 12 22  1  0
 12 23  1  0
 12 24  1  0
 14 25  1  0
 17 26  1  0
 17 27  1  0
M  END
>  <mol_id>  (67) 
2026-09-18-6fnk-s0-n100-r1-0067

>  <rmsd_to_ref>  (67) 
3.4846938775557703

>  <pose_kind>  (67) 
rigid

$$$$
6fnk.A
     RDKit          3D

 27 29  0  0  0  0  0  0  0  0999 V2000
    3.9017   15.8299   44.9399 C   0  0  0  0  0  0  0  0  0  0  0  0
    5.1060   15.5120   45.5774 C   0  0  0  0  0  0  0  0  0  0  0  0
    6.2362   16.2975   45.4188 C   0  0  0  0  0  0  0  0  0  0  0  0
    6.2189   17.3941   44.6470 N   0  0  0  0  0  0  0  0  0  0  0  0
    5.0732   17.7246   44.0209 C   0  0  0  0  0  0  0  0  0  0  0  0
    3.9263   16.9694   44.1525 C   0  0  0  0  0  0  0  0  0  0  0  0
    2.7106   17.3809   43.4456 C   0  0  0  0  0  0  0  0  0  0  0  0
    2.6839   18.4630   42.6807 N   0  0  0  0  0  0  0  0  0  0  0  0
    1.5845   16.6580   43.5619 N   0  0  0  0  0  0  0  0  0  0  0  0
    0.4431   16.9611   42.9563 C   0  0  0  0  0  0  0  0  0  0  0  0
   -0.7740   16.3680   42.9505 N   0  0  0  0  0  0  0  0  0  0  0  0
   -1.0697   15.1580   43.6936 C   0  0  0  0  0  0  0  0  0  0  0  0
   -1.5583   17.0946   42.1725 N   0  0  0  0  0  0  0  0  0  0  0  0
   -0.8820   18.1577   41.6633 C   0  0  0  0  0  0  0  0  0  0  0  0
    0.4133   18.0885   42.1587 C   0  0  0  0  0  0  0  0  0  0  0  0
    1.5551   18.8539   42.0181 C   0  0  0  0  0  0  0  0  0  0  0  0
    1.5136   20.0046   41.2002 N   0  0  0  0  0  0  0  0  0  0  0  0
    3.0175   15.2193   45.0612 H   0  0  0  0  0  0  0  0  0  0  0  0
    5.1217   14.6165   46.2082 H   0  0  0  0  0  0  0  0  0  0  0  0
    7.1202   15.9577   45.9612 H   0  0  0  0  0  0  0  0  0  0  0  0
    5.1182   18.6284   43.4052 H   0  0  0  0  0  0  0  0  0  0  0  0
   -1.9641   14.6452   43.2934 H   0  0  0  0  0  0  0  0  0  0  0  0
   -0.2420   14.4155   43.6214 H   0  0  0  0  0  0  0  0  0  0  0  0
   -1.1530   15.3705   44.7988 H   0  0  0  0  0  0  0  0  0  0  0  0
   -1.2618   18.9288   40.9938 H   0  0  0  0  0  0  0  0  0  0  0  0
    1.5976   20.9866   41.5568 H   0  0  0  0  0  0  0  0  0  0  0  0
    1.3924   19.9087   40.1687 H   0  0  0  0  0  0  0  0  0  0  0  0
  1  2  2  0
  1  6  1  0
  2  3  1  0
  3  4  2  0
  4  5  1  0
  5  6  2  0
  6  7  1  0
  7  8  2  0
  7  9  1  0
  8 16  1  0
  9 10  2  0
 10 11  1  0
 10 15  1  0
 11 12  1  0
 11 13  1  0
 13 14  2  0
 14 15  1  0
 15 16  2  0
 16 17  1  0
  1 18  1  0
  2 19  1  0
  3 20  1  0
  5 21  1  0
 12 22  1  0
 12 23  1  0
 12 24  1  0
 14 25  1  0
 17 26  1  0
 17 27  1  0
M  END
>  <mol_id>  (68) 
2026-09-18-6fnk-s0-n100-r1-0068

>  <rmsd_to_ref>  (68) 
3.5306122448986414

>  <pose_kind>  (68) 
conformer

$$$$
6fnk.A
     RDKit          3D

 27 29  0  0  0  0  0  0  0  0999 V2000
    3.8252   19.6609   43.9718 C   0  0  0  0  0  0  0  0  0  0  0  0
    5.1652   19.2817   43.8919 C   0  0  0  0  0  0  0  0  0  0  0  0
    5.5079   18.0647   43.3210 C   0  0  0  0  0  0  0  0  0  0  0  0
    4.5105   17.2218   42.8232 N   0  0  0  0  0  0  0  0  0  0  0  0
    3.1633   17.6053   42.9064 C   0  0  0  0  0  0  0  0  0  0  0  0
    2.8176   18.8268   43.4814 C   0  0  0  0  0  0  0  0  0  0  0  0
    1.4738   19.2052   43.5650 C   0  0  0  0  0  0  0  0  0  0  0  0
    1.1030   20.2857   44.2659 N   0  0  0  0  0  0  0  0  0  0  0  0
    0.5398   18.4869   42.9335 N   0  0  0  0  0  0  0  0  0  0  0  0
   -0.7630   18.8145   42.9978 C   0  0  0  0  0  0  0  0  0  0  0  0
   -1.8601   18.2483   42.4723 N   0  0  0  0  0  0  0  0  0  0  0  0
   -1.8911   17.0468   41.6330 C   0  0  0  0  0  0  0  0  0  0  0  0
   -2.8671   18.8860   42.7829 N   0  0  0  0  0  0  0  0  0  0  0  0
   -2.4665   19.9389   43.5144 C   0  0  0  0  0  0  0  0  0  0  0  0
   -1.1380   19.8917   43.6806 C   0  0  0  0  0  0  0  0  0  0  0  0
   -0.1952   20.6365   44.3207 C   0  0  0  0  0  0  0  0  0  0  0  0
   -0.5423   21.7386   45.0287 N   0  0  0  0  0  0  0  0  0  0  0  0
    3.5591   20.6269   44.4257 H   0  0  0  0  0  0  0  0  0  0  0  0
    5.9497   19.9472   44.2814 H   0  0  0  0  0  0  0  0  0  0  0  0
    6.5641   17.7633   43.2602 H   0  0  0  0  0  0  0  0  0  0  0  0
    2.3783   16.9403   42.5169 H   0  0  0  0  0  0  0  0  0  0  0  0
   -2.6167   16.3302   42.0453 H   0  0  0  0  0  0  0  0  0  0  0  0
   -2.1879   17.3216   40.6101 H   0  0  0  0  0  0  0  0  0  0  0  0
   -0.8920   16.5870   41.6138 H   0  0  0  0  0  0  0  0  0  0  0  0
   -3.1283   20.7206   43.9157 H   0  0  0  0  0  0  0  0  0  0  0  0
   -1.5300   22.0252   45.0840 H   0  0  0  0  0  0  0  0  0  0  0  0
    0.1817   22.2897   45.5116 H   0  0  0  0  0  0  0  0  0  0  0  0
  1  2  2  0
  1  6  1  0
  2  3  1  0
  3  4  2  0
  4  5  1  0
  5  6  2  0
  6  7  1  0
  7  8  2  0
  7  9  1  0
  8 16  1  0
  9 10  2  0
 10 11  1  0
 10 15  1  0
 11 12  1  0
 11 13  1  0
 13 14  2  0
 14 15  1  0
 15 16  2  0
 16 17  1  0
  1 18  1  0
  2 19  1  0
  3 20  1  0
  5 21  1  0
 12 22  1  0
 12 23  1  0
 12 24  1  0
 14 25  1  0
 17 26  1  0
 17 27  1  0
M  END
>  <mol_id>  (69) 
2026-09-18-6fnk-s0-n100-r1-0069

>  <rmsd_to_ref>  (69) 
3.5765306122451115

>  <pose_kind>  (69) 
rigid

$$$$
6fnk.A
     RDKit          3D

 27 29  0  0  0  0  0  0  0  0999 V2000
    4.5499   20.1098   41.9448 C   0  0  0  0  0  0  0  0  0  0  0  0
    5.8029   20.0196   41.3324 C   0  0  0  0  0  0  0  0  0  0  0  0
    6.0403   19.0044   40.4004 C   0  0  0  0  0  0  0  0  0  0  0  0
    5.0557   18.1417   40.1185 N   0  0  0  0  0  0  0  0  0  0  0  0
    3.8378   18.1991   40.6891 C   0  0  0  0  0  0  0  0  0  0  0  0
    3.5733   19.1947   41.6167 C   0  0  0  0  0  0  0  0  0  0  0  0
    2.2583   19.2854   42.2562 C   0  0  0  0  0  0  0  0  0  0  0  0
    2.0002   20.2594   43.1635 N   0  0  0  0  0  0  0  0  0  0  0  0
    1.3084   18.3788   41.9235 N   0  0  0  0  0  0  0  0  0  0  0  0
    0.0842   18.4135   42.4782 C   0  0  0  0  0  0  0  0  0  0  0  0
   -1.0368   17.6795   42.3601 N   0  0  0  0  0  0  0  0  0  0  0  0
   -1.1906   16.5226   41.4805 C   0  0  0  0  0  0  0  0  0  0  0  0
   -1.9885   18.1580   43.1606 N   0  0  0  0  0  0  0  0  0  0  0  0
   -1.5208   19.2333   43.8385 C   0  0  0  0  0  0  0  0  0  0  0  0
   -0.2054   19.4088   43.4164 C   0  0  0  0  0  0  0  0  0  0  0  0
    0.7768   20.3421   43.7571 C   0  0  0  0  0  0  0  0  0  0  0  0
    0.4889   21.3584   44.7117 N   0  0  0  0  0  0  0  0  0  0  0  0
    4.3996   20.9098   42.6634 H   0  0  0  0  0  0  0  0  0  0  0  0
    6.5951   20.7246   41.5680 H   0  0  0  0  0  0  0  0  0  0  0  0
    6.9954   18.9008   39.9050 H   0  0  0  0  0  0  0  0  0  0  0  0
    3.0930   17.4620   40.4067 H   0  0  0  0  0  0  0  0  0  0  0  0
   -0.8316   16.7296   40.4423 H   0  0  0  0  0  0  0  0  0  0  0  0
   -2.2463   16.2570   41.4014 H   0  0  0  0  0  0  0  0  0  0  0  0
   -0.5646   15.6754   41.8487 H   0  0  0  0  0  0  0  0  0  0  0  0
   -2.0656   19.8229   44.5548 H   0  0  0  0  0  0  0  0  0  0  0  0
   -0.1839   22.1524   44.5028 H   0  0  0  0  0  0  0  0  0  0  0  0
    0.9601   21.3000   45.6260 H   0  0  0  0  0  0  0  0  0  0  0  0
  1  2  2  0
  1  6  1  0
  2  3  1  0
  3  4  2  0
  4  5  1  0
  5  6  2  0
  6  7  1  0
  7  8  2  0
  7  9  1  0
  8 16  1  0
  9 10  2  0
 10 11  1  0
 10 15  1  0
 11 12  1  0
 11 13  1  0
 13 14  2  0
 14 15  1  0
 15 16  2  0
 16 17  1  0
  1 18  1  0
  2 19  1  0
  3 20  1  0
  5 21  1  0
 12 22  1  0
 12 23  1  0
 12 24  1  0
 14 25  1  0
 17 26  1  0
 17 27  1  0
M  END
>  <mol_id>  (70) 
2026-09-18-6fnk-s0-n100-r1-0070

>  <rmsd_to_ref>  (70) 
3.6224489795958448

>  <pose_kind>  (70) 
conformer

$$$$
6fnk.A
     RDKit          3D

 27 29  0  0  0  0  0  0  0  0999 V2000
    1.5795   20.1243   40.5163 C   0  0  0  0  0  0  0  0  0  0  0  0
    1.8319   20.2145   39.1473 C   0  0  0  0  0  0  0  0  0  0  0  0
    1.4520   19.1812   38.3033 C   0  0  0  0  0  0  0  0  0  0  0  0
    0.8134   18.0528   38.8251 N   0  0  0  0  0  0  0  0  0  0  0  0
    0.5623   17.9642   40.2027 C   0  0  0  0  0  0  0  0  0  0  0  0
    0.9452   19.0008   41.0519 C   0  0  0  0  0  0  0  0  0  0  0  0
    0.6956   18.9086   42.4249 C   0  0  0  0  0  0  0  0  0  0  0  0
    1.2065   19.8041   43.2813 N   0  0  0  0  0  0  0  0  0  0  0  0
   -0.0686   17.9187   42.8972 N   0  0  0  0  0  0  0  0  0  0  0  0
   -0.3238   17.7923   44.2117 C   0  0  0  0  0  0  0  0  0  0  0  0
   -1.0337   16.8914   44.9078 N   0  0  0  0  0  0  0  0  0  0  0  0
   -1.7591   15.7474   44.3472 C   0  0  0  0  0  0  0  0  0  0  0  0
   -1.0084   17.1564   46.1104 N   0  0  0  0  0  0  0  0  0  0  0  0
   -0.2932   18.2836   46.2588 C   0  0  0  0  0  0  0  0  0  0  0  0
    0.1689   18.6832   45.0665 C   0  0  0  0  0  0  0  0  0  0  0  0
    0.9414   19.7010   44.5968 C   0  0  0  0  0  0  0  0  0  0  0  0
    1.4628   20.6248   45.4401 N   0  0  0  0  0  0  0  0  0  0  0  0
    1.8831   20.9465   41.1810 H   0  0  0  0  0  0  0  0  0  0  0  0
    2.3319   21.1044   38.7373 H   0  0  0  0  0  0  0  0  0  0  0  0
    1.6532   19.2499   37.2240 H   0  0  0  0  0  0  0  0  0  0  0  0
    0.0621   17.0747   40.6133 H   0  0  0  0  0  0  0  0  0  0  0  0
   -1.4630   14.8301   44.8772 H   0  0  0  0  0  0  0  0  0  0  0  0
   -2.8412   15.9060   44.4652 H   0  0  0  0  0  0  0  0  0  0  0  0
   -1.5174   15.6479   43.2788 H   0  0  0  0  0  0  0  0  0  0  0  0
   -0.1142   18.7998   47.2135 H   0  0  0  0  0  0  0  0  0  0  0  0
    1.2726   20.5650   46.4507 H   0  0  0  0  0  0  0  0  0  0  0  0
    2.0492   21.3867   45.0706 H   0  0  0  0  0  0  0  0  0  0  0  0
  1  2  2  0
  1  6  1  0
  2  3  1  0
  3  4  2  0
  4  5  1  0
  5  6  2  0
  6  7  1  0
  7  8  2  0
  7  9  1  0
  8 16  1  0
  9 10  2  0
 10 11  1  0
 10 15  1  0
 11 12  1  0
 11 13  1  0
 13 14  2  0
 14 15  1  0
 15 16  2  0
 16 17  1  0
  1 18  1  0
  2 19  1  0
  3 20  1  0
  5 21  1  0
 12 22  1  0
 12 23  1  0
 12 24  1  0
 14 25  1  0
 17 26  1  0
 17 27  1  0
M  END
>  <mol_id>  (71) 
2026-09-18-6fnk-s0-n100-r1-0071

>  <rmsd_to_ref>  (71) 
3.668367346941239

>  <pose_kind>  (71) 
rigid

$$$$
6fnk.A
     RDKit          3D

 27 29  0  0  0  0  0  0  0  0999 V2000
    1.6392   15.9808   45.1595 C   0  0  0  0  0  0  0  0  0  0  0  0
    1.3304   14.9304   46.0005 C   0  0  0  0  0  0  0  0  0  0  0  0
    0.0462   14.8514   46.5046 C   0  0  0  0  0  0  0  0  0  0  0  0
   -0.8832   15.7928   46.1726 N   0  0  0  0  0  0  0  0  0  0  0  0
   -0.5802   16.8159   45.3527 C   0  0  0  0  0  0  0  0  0  0  0  0
    0.7036   16.9368   44.8194 C   0  0  0  0  0  0  0  0  0  0  0  0
    1.0720   18.0305   43.9273 C   0  0  0  0  0  0  0  0  0  0  0  0
    2.3209   18.1188   43.4291 N   0  0  0  0  0  0  0  0  0  0  0  0
    0.1662   18.9634   43.5930 N   0  0  0  0  0  0  0  0  0  0  0  0
    0.4919   19.9867   42.7651 C   0  0  0  0  0  0  0  0  0  0  0  0
   -0.1697   21.0438   42.2587 N   0  0  0  0  0  0  0  0  0  0  0  0
   -1.5548   21.3834   42.5060 C   0  0  0  0  0  0  0  0  0  0  0  0
    0.6319   21.7619   41.4773 N   0  0  0  0  0  0  0  0  0  0  0  0
    1.8587   21.2119   41.4322 C   0  0  0  0  0  0  0  0  0  0  0  0
    1.7829   20.0944   42.2385 C   0  0  0  0  0  0  0  0  0  0  0  0
    2.6767   19.1135   42.6105 C   0  0  0  0  0  0  0  0  0  0  0  0
    4.0322   19.1407   42.1176 N   0  0  0  0  0  0  0  0  0  0  0  0
    2.6364   16.0718   44.7473 H   0  0  0  0  0  0  0  0  0  0  0  0
    2.0985   14.1878   46.2501 H   0  0  0  0  0  0  0  0  0  0  0  0
   -0.1902   14.0237   47.1649 H   0  0  0  0  0  0  0  0  0  0  0  0
   -1.3434   17.5541   45.1043 H   0  0  0  0  0  0  0  0  0  0  0  0
   -2.0846   21.5446   41.5217 H   0  0  0  0  0  0  0  0  0  0  0  0
   -2.0692   20.5725   43.0586 H   0  0  0  0  0  0  0  0  0  0  0  0
   -1.6212   22.2907   43.1491 H   0  0  0  0  0  0  0  0  0  0  0  0
    2.7469   21.5276   40.9013 H   0  0  0  0  0  0  0  0  0  0  0  0
    4.4379   18.3020   41.6092 H   0  0  0  0  0  0  0  0  0  0  0  0
    4.5586   20.0065   42.2907 H   0  0  0  0  0  0  0  0  0  0  0  0
  1  2  2  0
  1  6  1  0
  2  3  1  0
  3  4  2  0
  4  5  1  0
  5  6  2  0
  6  7  1  0
  7  8  2  0
  7  9  1  0
  8 16  1  0
  9 10  2  0
 10 11  1  0
 10 15  1  0
 11 12  1  0
 11 13  1  0
 13 14  2  0
 14 15  1  0
 15 16  2  0
 16 17  1  0
  1 18  1  0
  2 19  1  0
  3 20  1  0
  5 21  1  0
 12 22  1  0
 12 23  1  0
 12 24  1  0
 14 25  1  0
 17 26  1  0
 17 27  1  0
M  END
>  <mol_id>  (72) 
2026-09-18-6fnk-s0-n100-r1-0072

>  <rmsd_to_ref>  (72) 
3.714285714290398

>  <pose_kind>  (72) 
conformer

$$$$
6fnk.A
     RDKit          3D

 27 29  0  0  0  0  0  0  0  0999 V2000
    1.4034   19.4750   41.2446 C   0  0  0  0  0  0  0  0  0  0  0  0
    0.9462   19.4392   39.9272 C   0  0  0  0  0  0  0  0  0  0  0  0
    0.1201   18.4064   39.5084 C   0  0  0  0  0  0  0  0  0  0  0  0
   -0.2561   17.4052   40.4080 N   0  0  0  0  0  0  0  0  0  0  0  0
    0.2066   17.4430   41.7321 C   0  0  0  0  0  0  0  0  0  0  0  0
    1.0381   18.4790   42.1534 C   0  0  0  0  0  0  0  0  0  0  0  0
    1.4997   18.5127   43.4732 C   0  0  0  0  0  0  0  0  0  0  0  0
    2.4347   19.3935   43.8554 N   0  0  0  0  0  0  0  0  0  0  0  0
    1.0006   17.6609   44.3745 N   0  0  0  0  0  0  0  0  0  0  0  0
    1.4256   17.6574   45.6505 C   0  0  0  0  0  0  0  0  0  0  0  0
    1.0916   16.9022   46.7081 N   0  0  0  0  0  0  0  0  0  0  0  0
    0.1000   15.8225   46.7163 C   0  0  0  0  0  0  0  0  0  0  0  0
    1.7325   17.2434   47.7030 N   0  0  0  0  0  0  0  0  0  0  0  0
    2.5087   18.2796   47.3455 C   0  0  0  0  0  0  0  0  0  0  0  0
    2.3438   18.5359   46.0409 C   0  0  0  0  0  0  0  0  0  0  0  0
    2.8534   19.4145   45.1344 C   0  0  0  0  0  0  0  0  0  0  0  0
    3.7931   20.3211   45.4968 N   0  0  0  0  0  0  0  0  0  0  0  0
    2.0585   20.2961   41.5712 H   0  0  0  0  0  0  0  0  0  0  0  0
    1.2405   20.2294   39.2208 H   0  0  0  0  0  0  0  0  0  0  0  0
   -0.2386   18.3756   38.4690 H   0  0  0  0  0  0  0  0  0  0  0  0
   -0.0875   16.6533   42.4390 H   0  0  0  0  0  0  0  0  0  0  0  0
    0.5511   14.9137   47.1412 H   0  0  0  0  0  0  0  0  0  0  0  0
   -0.7641   16.1230   47.3271 H   0  0  0  0  0  0  0  0  0  0  0  0
   -0.2310   15.6208   45.6869 H   0  0  0  0  0  0  0  0  0  0  0  0
    3.1776   18.8333   48.0208 H   0  0  0  0  0  0  0  0  0  0  0  0
    4.1279   20.3547   46.4704 H   0  0  0  0  0  0  0  0  0  0  0  0
    4.1727   20.9765   44.7988 H   0  0  0  0  0  0  0  0  0  0  0  0
  1  2  2  0
  1  6  1  0
  2  3  1  0
  3  4  2  0
  4  5  1  0
  5  6  2  0
  6  7  1  0
  7  8  2  0
  7  9  1  0
  8 16  1  0
  9 10  2  0
 10 11  1  0
 10 15  1  0
 11 12  1  0
 11 13  1  0
 13 14  2  0
 14 15  1  0
 15 16  2  0
 16 17  1  0
  1 18  1  0
  2 19  1  0
  3 20  1  0
  5 21  1  0
 12 22  1  0
 12 23  1  0
 12 24  1  0
 14 25  1  0
 17 26  1  0
 17 27  1  0
M  END
>  <mol_id>  (73) 
2026-09-18-6fnk-s0-n100-r1-0073

>  <rmsd_to_ref>  (73) 
3.760204081638734

>  <pose_kind>  (73) 
rigid

$$$$
6fnk.A
     RDKit          3D

 27 29  0  0  0  0  0  0  0  0999 V2000
   -1.1150   14.7908   42.6741 C   0  0  0  0  0  0  0  0  0  0  0  0
   -2.0248   13.8250   43.0553 C   0  0  0  0  0  0  0  0  0  0  0  0
   -2.8144   14.0703   44.1624 C   0  0  0  0  0  0  0  0  0  0  0  0
   -2.6887   15.2401   44.8524 N   0  0  0  0  0  0  0  0  0  0  0  0
   -1.8013   16.1803   44.4792 C   0  0  0  0  0  0  0  0  0  0  0  0
   -0.9826   15.9767   43.3676 C   0  0  0  0  0  0  0  0  0  0  0  0
   -0.0084   16.9705   42.9306 C   0  0  0  0  0  0  0  0  0  0  0  0
    0.7674   16.7432   41.8526 N   0  0  0  0  0  0  0  0  0  0  0  0
    0.1248   18.1258   43.6014 N   0  0  0  0  0  0  0  0  0  0  0  0
    1.0254   19.0604   43.2087 C   0  0  0  0  0  0  0  0  0  0  0  0
    1.3850   20.2777   43.6568 N   0  0  0  0  0  0  0  0  0  0  0  0
    0.8299   20.9644   44.8036 C   0  0  0  0  0  0  0  0  0  0  0  0
    2.3447   20.7890   42.8911 N   0  0  0  0  0  0  0  0  0  0  0  0
    2.6623   19.9331   41.9031 C   0  0  0  0  0  0  0  0  0  0  0  0
    1.8389   18.8419   42.0924 C   0  0  0  0  0  0  0  0  0  0  0  0
    1.6652   17.6418   41.4374 C   0  0  0  0  0  0  0  0  0  0  0  0
    2.4595   17.3270   40.2749 N   0  0  0  0  0  0  0  0  0  0  0  0
   -0.4811   14.6297   41.8110 H   0  0  0  0  0  0  0  0  0  0  0  0
   -2.1039   12.8934   42.4810 H   0  0  0  0  0  0  0  0  0  0  0  0
   -3.5274   13.3076   44.4570 H   0  0  0  0  0  0  0  0  0  0  0  0
   -1.7224   17.1063   45.0497 H   0  0  0  0  0  0  0  0  0  0  0  0
    0.5140   22.0060   44.5024 H   0  0  0  0  0  0  0  0  0  0  0  0
   -0.0533   20.4251   45.1994 H   0  0  0  0  0  0  0  0  0  0  0  0
    1.5739   20.9961   45.6322 H   0  0  0  0  0  0  0  0  0  0  0  0
    3.3907   20.0228   41.1081 H   0  0  0  0  0  0  0  0  0  0  0  0
    1.9931   17.0648   39.3582 H   0  0  0  0  0  0  0  0  0  0  0  0
    3.4789   17.3744   40.3979 H   0  0  0  0  0  0  0  0  0  0  0  0
  1  2  2  0
  1  6  1  0
  2  3  1  0
  3  4  2  0
  4  5  1  0
  5  6  2  0
  6  7  1  0
  7  8  2  0
  7  9  1  0
  8 16  1  0
  9 10  2  0
 10 11  1  0
 10 15  1  0
 11 12  1  0
 11 13  1  0
 13 14  2  0
 14 15  1  0
 15 16  2  0
 16 17  1  0
  1 18  1  0
  2 19  1  0
  3 20  1  0
  5 21  1  0
 12 22  1  0
 12 23  1  0
 12 24  1  0
 14 25  1  0
 17 26  1  0
 17 27  1  0
M  END
>  <mol_id>  (74) 
2026-09-18-6fnk-s0-n100-r1-0074

>  <rmsd_to_ref>  (74) 
3.806122448982526

>  <pose_kind>  (74) 
conformer

$$$$
6fnk.A
     RDKit          3D

 27 29  0  0  0  0  0  0  0  0999 V2000
    3.6002   19.7501   41.7248 C   0  0  0  0  0  0  0  0  0  0  0  0
    4.5169   20.0040   40.7044 C   0  0  0  0  0  0  0  0  0  0  0  0
    5.2978   18.9731   40.2024 C   0  0  0  0  0  0  0  0  0  0  0  0
    5.1624   17.6808   40.7171 N   0  0  0  0  0  0  0  0  0  0  0  0
    4.2406   17.4288   41.7445 C   0  0  0  0  0  0  0  0  0  0  0  0
    3.4569   18.4640   42.2509 C   0  0  0  0  0  0  0  0  0  0  0  0
    2.5406   18.2103   43.2766 C   0  0  0  0  0  0  0  0  0  0  0  0
    1.9052   19.2130   43.8985 N   0  0  0  0  0  0  0  0  0  0  0  0
    2.2847   16.9505   43.6435 N   0  0  0  0  0  0  0  0  0  0  0  0
    1.4167   16.6676   44.6312 C   0  0  0  0  0  0  0  0  0  0  0  0
    1.0184   15.5069   45.1738 N   0  0  0  0  0  0  0  0  0  0  0  0
    1.4713   14.1704   44.7767 C   0  0  0  0  0  0  0  0  0  0  0  0
    0.1939   15.7072   46.0667 N   0  0  0  0  0  0  0  0  0  0  0  0
   -0.0151   17.0324   46.1312 C   0  0  0  0  0  0  0  0  0  0  0  0
    0.7729   17.6556   45.2448 C   0  0  0  0  0  0  0  0  0  0  0  0
    1.0184   18.9423   44.8741 C   0  0  0  0  0  0  0  0  0  0  0  0
    0.3827   19.9741   45.4806 N   0  0  0  0  0  0  0  0  0  0  0  0
    2.9837   20.5713   42.1193 H   0  0  0  0  0  0  0  0  0  0  0  0
    4.6205   21.0209   40.2981 H   0  0  0  0  0  0  0  0  0  0  0  0
    6.0230   19.1727   39.3999 H   0  0  0  0  0  0  0  0  0  0  0  0
    4.1363   16.4121   42.1511 H   0  0  0  0  0  0  0  0  0  0  0  0
    1.8131   13.6200   45.6657 H   0  0  0  0  0  0  0  0  0  0  0  0
    0.6394   13.6262   44.3059 H   0  0  0  0  0  0  0  0  0  0  0  0
    2.3014   14.2623   44.0608 H   0  0  0  0  0  0  0  0  0  0  0  0
   -0.7248   17.5301   46.8083 H   0  0  0  0  0  0  0  0  0  0  0  0
   -0.2998   19.7897   46.2297 H   0  0  0  0  0  0  0  0  0  0  0  0
    0.5821   20.9427   45.1925 H   0  0  0  0  0  0  0  0  0  0  0  0
  1  2  2  0
  1  6  1  0
  2  3  1  0
  3  4  2  0
  4  5  1  0
  5  6  2  0
  6  7  1  0
  7  8  2  0
  7  9  1  0
  8 16  1  0
  9 10  2  0
 10 11  1  0
 10 15  1  0
 11 12  1  0
 11 13  1  0
 13 14  2  0
 14 15  1  0
 15 16  2  0
 16 17  1  0
  1 18  1  0
  2 19  1  0
  3 20  1  0
  5 21  1  0
 12 22  1  0
 12 23  1  0
 12 24  1  0
 14 25  1  0
 17 26  1  0
 17 27  1  0
M  END
>  <mol_id>  (75) 
2026-09-18-6fnk-s0-n100-r1-0075

>  <rmsd_to_ref>  (75) 
3.852040816332019

>  <pose_kind>  (75) 
rigid

$$$$
6fnk.A
     RDKit          3D

 27 29  0  0  0  0  0  0  0  0999 V2000
    3.8243   16.1850   40.1821 C   0  0  0  0  0  0  0  0  0  0  0  0
    5.0980   16.3214   39.7014 C   0  0  0  0  0  0  0  0  0  0  0  0
    5.9275   17.3272   40.1516 C   0  0  0  0  0  0  0  0  0  0  0  0
    5.4916   18.2103   41.0899 N   0  0  0  0  0  0  0  0  0  0  0  0
    4.2289   18.1069   41.5930 C   0  0  0  0  0  0  0  0  0  0  0  0
    3.4097   17.0999   41.1371 C   0  0  0  0  0  0  0  0  0  0  0  0
    2.0612   16.9987   41.6820 C   0  0  0  0  0  0  0  0  0  0  0  0
    1.6350   17.8716   42.6074 N   0  0  0  0  0  0  0  0  0  0  0  0
    1.2200   16.0204   41.2601 N   0  0  0  0  0  0  0  0  0  0  0  0
   -0.0346   15.9227   41.7642 C   0  0  0  0  0  0  0  0  0  0  0  0
   -1.0575   15.0769   41.5374 N   0  0  0  0  0  0  0  0  0  0  0  0
   -1.0873   13.9583   40.6203 C   0  0  0  0  0  0  0  0  0  0  0  0
   -2.0808   15.4301   42.3089 N   0  0  0  0  0  0  0  0  0  0  0  0
   -1.7640   16.5012   43.0526 C   0  0  0  0  0  0  0  0  0  0  0  0
   -0.4590   16.8195   42.7087 C   0  0  0  0  0  0  0  0  0  0  0  0
    0.3948   17.8125   43.1368 C   0  0  0  0  0  0  0  0  0  0  0  0
   -0.0463   18.7443   44.1182 N   0  0  0  0  0  0  0  0  0  0  0  0
    3.1973   15.3890   39.8121 H   0  0  0  0  0  0  0  0  0  0  0  0
    5.4294   15.6134   38.9574 H   0  0  0  0  0  0  0  0  0  0  0  0
    6.9233   17.3774   39.7287 H   0  0  0  0  0  0  0  0  0  0  0  0
    3.8971   18.8313   42.3508 H   0  0  0  0  0  0  0  0  0  0  0  0
   -2.1355   13.7497   40.3150 H   0  0  0  0  0  0  0  0  0  0  0  0
   -0.5059   14.2605   39.7197 H   0  0  0  0  0  0  0  0  0  0  0  0
   -0.6646   13.0931   41.1604 H   0  0  0  0  0  0  0  0  0  0  0  0
   -2.4210   16.9769   43.7550 H   0  0  0  0  0  0  0  0  0  0  0  0
    0.4911   19.0055   44.9608 H   0  0  0  0  0  0  0  0  0  0  0  0
   -0.9935   19.1834   43.9460 H   0  0  0  0  0  0  0  0  0  0  0  0
  1  2  2  0
  1  6  1  0
  2  3  1  0
  3  4  2  0
  4  5  1  0
  5  6  2  0
  6  7  1  0
  7  8  2  0
  7  9  1  0
  8 16  1  0
  9 10  2  0
 10 11  1  0
 10 15  1  0
 11 12  1  0
 11 13  1  0
 13 14  2  0
 14 15  1  0
 15 16  2  0
 16 17  1  0
  1 18  1  0
  2 19  1  0
  3 20  1  0
  5 21  1  0
 12 22  1  0
 12 23  1  0
 12 24  1  0
 14 25  1  0
 17 26  1  0
 17 27  1  0
M  END
>  <mol_id>  (76) 
2026-09-18-6fnk-s0-n100-r1-0076

>  <rmsd_to_ref>  (76) 
3.8979591836779544

>  <pose_kind>  (76) 
conformer

$$$$
6fnk.A
     RDKit          3D

 27 29  0  0  0  0  0  0  0  0999 V2000
   -0.6190   15.6666   40.8651 C   0  0  0  0  0  0  0  0  0  0  0  0
   -1.8624   15.1281   40.5338 C   0  0  0  0  0  0  0  0  0  0  0  0
   -2.6708   14.5905   41.5247 C   0  0  0  0  0  0  0  0  0  0  0  0
   -2.2401   14.5926   42.8543 N   0  0  0  0  0  0  0  0  0  0  0  0
   -0.9882   15.1336   43.1843 C   0  0  0  0  0  0  0  0  0  0  0  0
   -0.1744   15.6722   42.1894 C   0  0  0  0  0  0  0  0  0  0  0  0
    1.0740   16.2086   42.5211 C   0  0  0  0  0  0  0  0  0  0  0  0
    1.9451   16.5705   41.5691 N   0  0  0  0  0  0  0  0  0  0  0  0
    1.4080   16.3719   43.8052 N   0  0  0  0  0  0  0  0  0  0  0  0
    2.6023   16.8762   44.1632 C   0  0  0  0  0  0  0  0  0  0  0  0
    3.1562   17.1129   45.3621 N   0  0  0  0  0  0  0  0  0  0  0  0
    2.5316   16.8607   46.6641 C   0  0  0  0  0  0  0  0  0  0  0  0
    4.2837   17.5911   45.2309 N   0  0  0  0  0  0  0  0  0  0  0  0
    4.5141   17.7227   43.9142 C   0  0  0  0  0  0  0  0  0  0  0  0
    3.4673   17.2491   43.2251 C   0  0  0  0  0  0  0  0  0  0  0  0
    3.1352   17.0961   41.9137 C   0  0  0  0  0  0  0  0  0  0  0  0
    3.9940   17.4622   40.9315 N   0  0  0  0  0  0  0  0  0  0  0  0
    0.0181   16.0914   40.0753 H   0  0  0  0  0  0  0  0  0  0  0  0
   -2.2017   15.1297   39.4874 H   0  0  0  0  0  0  0  0  0  0  0  0
   -3.6502   14.1629   41.2642 H   0  0  0  0  0  0  0  0  0  0  0  0
   -0.6484   15.1326   44.2305 H   0  0  0  0  0  0  0  0  0  0  0  0
    3.2133   16.2645   47.2884 H   0  0  0  0  0  0  0  0  0  0  0  0
    2.3219   17.8189   47.1620 H   0  0  0  0  0  0  0  0  0  0  0  0
    1.5909   16.3094   46.5188 H   0  0  0  0  0  0  0  0  0  0  0  0
    5.4233   18.1534   43.4696 H   0  0  0  0  0  0  0  0  0  0  0  0
    4.9102   17.8665   41.1727 H   0  0  0  0  0  0  0  0  0  0  0  0
    3.7307   17.3361   39.9437 H   0  0  0  0  0  0  0  0  0  0  0  0
  1  2  2  0
  1  6  1  0
  2  3  1  0
  3  4  2  0
  4  5  1  0
  5  6  2  0
  6  7  1  0
  7  8  2  0
  7  9  1  0
  8 16  1  0
  9 10  2  0
 10 11  1  0
 10 15  1  0
 11 12  1  0
 11 13  1  0
 13 14  2  0
 14 15  1  0
 15 16  2  0
 16 17  1  0
  1 18  1  0
  2 19  1  0
  3 20  1  0
  5 21  1  0
 12 22  1  0
 12 23  1  0
 12 24  1  0
 14 25  1  0
 17 26  1  0
 17 27  1  0
M  END
>  <mol_id>  (77) 
2026-09-18-6fnk-s0-n100-r1-0077

>  <rmsd_to_ref>  (77) 
3.9438775510219863

>  <pose_kind>  (77) 
rigid

$$$$
6fnk.A
     RDKit          3D

 27 29  0  0  0  0  0  0  0  0999 V2000
    0.2418   18.4128   40.8146 C   0  0  0  0  0  0  0  0  0  0  0  0
    0.9642   18.6438   39.6607 C   0  0  0  0  0  0  0  0  0  0  0  0
    2.2901   18.2714   39.5756 C   0  0  0  0  0  0  0  0  0  0  0  0
    2.9135   17.6689   40.6263 N   0  0  0  0  0  0  0  0  0  0  0  0
    2.2162   17.4321   41.7754 C   0  0  0  0  0  0  0  0  0  0  0  0
    0.8826   17.7967   41.8864 C   0  0  0  0  0  0  0  0  0  0  0  0
    0.1586   17.5369   43.1146 C   0  0  0  0  0  0  0  0  0  0  0  0
   -1.1325   17.8782   43.2519 N   0  0  0  0  0  0  0  0  0  0  0  0
    0.7614   16.9495   44.1429 N   0  0  0  0  0  0  0  0  0  0  0  0
    0.1383   16.6891   45.2936 C   0  0  0  0  0  0  0  0  0  0  0  0
    0.5152   16.1200   46.4515 N   0  0  0  0  0  0  0  0  0  0  0  0
    1.8603   15.6142   46.6917 C   0  0  0  0  0  0  0  0  0  0  0  0
   -0.5214   16.1127   47.2794 N   0  0  0  0  0  0  0  0  0  0  0  0
   -1.5949   16.6711   46.6928 C   0  0  0  0  0  0  0  0  0  0  0  0
   -1.1794   17.0392   45.4291 C   0  0  0  0  0  0  0  0  0  0  0  0
   -1.8466   17.6580   44.3712 C   0  0  0  0  0  0  0  0  0  0  0  0
   -3.2141   18.0249   44.5027 N   0  0  0  0  0  0  0  0  0  0  0  0
   -0.7982   18.7090   40.8711 H   0  0  0  0  0  0  0  0  0  0  0  0
    0.5343   19.1198   38.7817 H   0  0  0  0  0  0  0  0  0  0  0  0
    2.8421   18.4658   38.6484 H   0  0  0  0  0  0  0  0  0  0  0  0
    2.7477   16.9437   42.6065 H   0  0  0  0  0  0  0  0  0  0  0  0
    2.5823   16.1923   46.0711 H   0  0  0  0  0  0  0  0  0  0  0  0
    1.9480   14.5390   46.4865 H   0  0  0  0  0  0  0  0  0  0  0  0
    2.1325   15.8142   47.7420 H   0  0  0  0  0  0  0  0  0  0  0  0
   -2.5733   16.7974   47.1343 H   0  0  0  0  0  0  0  0  0  0  0  0
   -3.7626   17.6100   45.2856 H   0  0  0  0  0  0  0  0  0  0  0  0
   -3.6314   18.6934   43.8200 H   0  0  0  0  0  0  0  0  0  0  0  0
  1  2  2  0
  1  6  1  0
  2  3  1  0
  3  4  2  0
  4  5  1  0
  5  6  2  0
  6  7  1  0
  7  8  2  0
  7  9  1  0
  8 16  1  0
  9 10  2  0
 10 11  1  0
 10 15  1  0
 11 12  1  0
 11 13  1  0
 13 14  2  0
 14 15  1  0
 15 16  2  0
 16 17  1  0
  1 18  1  0
  2 19  1  0
  3 20  1  0
  5 21  1  0
 12 22  1  0
 12 23  1  0
 12 24  1  0
 14 25  1  0
 17 26  1  0
 17 27  1  0
M  END
>  <mol_id>  (78) 
2026-09-18-6fnk-s0-n100-r1-0078

>  <rmsd_to_ref>  (78) 
3.989795918370838

>  <pose_kind>  (78) 
conformer

$$$$
6fnk.A
     RDKit          3D

 27 29  0  0  0  0  0  0  0  0999 V2000
    2.1877   20.3449   41.5611 C   0  0  0  0  0  0  0  0  0  0  0  0
    3.2060   20.7648   40.7051 C   0  0  0  0  0  0  0  0  0  0  0  0
    4.4868   20.2514   40.8480 C   0  0  0  0  0  0  0  0  0  0  0  0
    4.7545   19.3113   41.8469 N   0  0  0  0  0  0  0  0  0  0  0  0
    3.7285   18.8920   42.7074 C   0  0  0  0  0  0  0  0  0  0  0  0
    2.4419   19.4085   42.5661 C   0  0  0  0  0  0  0  0  0  0  0  0
    1.4218   18.9904   43.4268 C   0  0  0  0  0  0  0  0  0  0  0  0
    0.2266   19.5965   43.4267 N   0  0  0  0  0  0  0  0  0  0  0  0
    1.6327   17.9670   44.2606 N   0  0  0  0  0  0  0  0  0  0  0  0
    0.6793   17.5422   45.1087 C   0  0  0  0  0  0  0  0  0  0  0  0
    0.6642   16.5667   46.0298 N   0  0  0  0  0  0  0  0  0  0  0  0
    1.7738   15.6617   46.3439 C   0  0  0  0  0  0  0  0  0  0  0  0
   -0.4320   16.5170   46.5895 N   0  0  0  0  0  0  0  0  0  0  0  0
   -1.2127   17.4549   46.0284 C   0  0  0  0  0  0  0  0  0  0  0  0
   -0.5131   18.1298   45.1065 C   0  0  0  0  0  0  0  0  0  0  0  0
   -0.7430   19.1674   44.2557 C   0  0  0  0  0  0  0  0  0  0  0  0
   -1.9455   19.7918   44.2292 N   0  0  0  0  0  0  0  0  0  0  0  0
    1.1740   20.7555   41.4435 H   0  0  0  0  0  0  0  0  0  0  0  0
    2.9935   21.5026   39.9174 H   0  0  0  0  0  0  0  0  0  0  0  0
    5.2913   20.5840   40.1755 H   0  0  0  0  0  0  0  0  0  0  0  0
    3.9402   18.1541   43.4952 H   0  0  0  0  0  0  0  0  0  0  0  0
    1.9603   15.6726   47.4280 H   0  0  0  0  0  0  0  0  0  0  0  0
    1.5154   14.6407   46.0266 H   0  0  0  0  0  0  0  0  0  0  0  0
    2.6785   15.9928   45.8130 H   0  0  0  0  0  0  0  0  0  0  0  0
   -2.2658   17.6406   46.2864 H   0  0  0  0  0  0  0  0  0  0  0  0
   -2.7017   19.4798   44.8551 H   0  0  0  0  0  0  0  0  0  0  0  0
   -2.1032   20.5784   43.5832 H   0  0  0  0  0  0  0  0  0  0  0  0
  1  2  2  0
  1  6  1  0
  2  3  1  0
  3  4  2  0
  4  5  1  0
  5  6  2  0
  6  7  1  0
  7  8  2  0
  7  9  1  0
  8 16  1  0
  9 10  2  0
 10 11  1  0
 10 15  1  0
 11 12  1  0
 11 13  1  0
 13 14  2  0
 14 15  1  0
 15 16  2  0
 16 17  1  0
  1 18  1  0
  2 19  1  0
  3 20  1  0
  5 21  1  0
 12 22  1  0
 12 23  1  0
 12 24  1  0
 14 25  1  0
 17 26  1  0
 17 27  1  0
M  END
>  <mol_id>  (79) 
2026-09-18-6fnk-s0-n100-r1-0079

>  <rmsd_to_ref>  (79) 
4.03571428572059

>  <pose_kind>  (79) 
rigid

$$$$
6fnk.A
     RDKit          3D

 27 29  0  0  0  0  0  0  0  0999 V2000
    0.5871   16.8367   42.2339 C   0  0  0  0  0  0  0  0  0  0  0  0
   -0.4040   16.0562   41.6744 C   0  0  0  0  0  0  0  0  0  0  0  0
   -1.5835   16.6598   41.2815 C   0  0  0  0  0  0  0  0  0  0  0  0
   -1.7489   17.9958   41.4492 N   0  0  0  0  0  0  0  0  0  0  0  0
   -0.7855   18.7731   41.9962 C   0  0  0  0  0  0  0  0  0  0  0  0
    0.4090   18.2033   42.4015 C   0  0  0  0  0  0  0  0  0  0  0  0
    1.4899   18.9939   43.0009 C   0  0  0  0  0  0  0  0  0  0  0  0
    2.6353   18.3997   43.3810 N   0  0  0  0  0  0  0  0  0  0  0  0
    1.2949   20.3250   43.1551 N   0  0  0  0  0  0  0  0  0  0  0  0
    2.2976   21.0642   43.7121 C   0  0  0  0  0  0  0  0  0  0  0  0
    2.4165   22.3681   43.9947 N   0  0  0  0  0  0  0  0  0  0  0  0
    1.4359   23.4181   43.7656 C   0  0  0  0  0  0  0  0  0  0  0  0
    3.5973   22.6174   44.5400 N   0  0  0  0  0  0  0  0  0  0  0  0
    4.2919   21.4591   44.6285 C   0  0  0  0  0  0  0  0  0  0  0  0
    3.4799   20.4724   44.1083 C   0  0  0  0  0  0  0  0  0  0  0  0
    3.6318   19.1143   43.9310 C   0  0  0  0  0  0  0  0  0  0  0  0
    4.8308   18.4657   44.3242 N   0  0  0  0  0  0  0  0  0  0  0  0
    1.5186   16.3489   42.5422 H   0  0  0  0  0  0  0  0  0  0  0  0
   -0.2118   14.9998   41.5679 H   0  0  0  0  0  0  0  0  0  0  0  0
   -2.3627   16.0350   40.8397 H   0  0  0  0  0  0  0  0  0  0  0  0
   -0.9479   19.8371   42.1168 H   0  0  0  0  0  0  0  0  0  0  0  0
    0.4687   23.0066   43.4740 H   0  0  0  0  0  0  0  0  0  0  0  0
    1.8175   24.0377   42.9373 H   0  0  0  0  0  0  0  0  0  0  0  0
    1.2707   24.0127   44.6885 H   0  0  0  0  0  0  0  0  0  0  0  0
    5.2893   21.2920   45.0219 H   0  0  0  0  0  0  0  0  0  0  0  0
    5.7089   19.0163   44.2760 H   0  0  0  0  0  0  0  0  0  0  0  0
    4.7564   17.4806   44.6359 H   0  0  0  0  0  0  0  0  0  0  0  0
  1  2  2  0
  1  6  1  0
  2  3  1  0
  3  4  2  0
  4  5  1  0
  5  6  2  0
  6  7  1  0
  7  8  2  0
  7  9  1  0
  8 16  1  0
  9 10  2  0
 10 11  1  0
 10 15  1  0
 11 12  1  0
 11 13  1  0
 13 14  2  0
 14 15  1  0
 15 16  2  0
 16 17  1  0
  1 18  1  0
  2 19  1  0
  3 20  1  0
  5 21  1  0
 12 22  1  0
 12 23  1  0
 12 24  1  0
 14 25  1  0
 17 26  1  0
 17 27  1  0
M  END
>  <mol_id>  (80) 
2026-09-18-6fnk-s0-n100-r1-0080

>  <rmsd_to_ref>  (80) 
4.08163265306568

>  <pose_kind>  (80) 
conformer

$$$$
6fnk.A
     RDKit          3D

 27 29  0  0  0  0  0  0  0  0999 V2000
    2.2844   19.7369   42.8338 C   0  0  0  0  0  0  0  0  0  0  0  0
    3.6260   19.9403   43.1573 C   0  0  0  0  0  0  0  0  0  0  0  0
    4.3593   18.9199   43.7450 C   0  0  0  0  0  0  0  0  0  0  0  0
    3.7541   17.6881   44.0088 N   0  0  0  0  0  0  0  0  0  0  0  0
    2.4040   17.4869   43.6837 C   0  0  0  0  0  0  0  0  0  0  0  0
    1.6658   18.5119   43.0950 C   0  0  0  0  0  0  0  0  0  0  0  0
    0.3196   18.3093   42.7742 C   0  0  0  0  0  0  0  0  0  0  0  0
   -0.4552   19.3263   42.3725 N   0  0  0  0  0  0  0  0  0  0  0  0
   -0.2078   17.0840   42.8610 N   0  0  0  0  0  0  0  0  0  0  0  0
   -1.5000   16.8516   42.5694 C   0  0  0  0  0  0  0  0  0  0  0  0
   -2.2417   15.7339   42.5973 N   0  0  0  0  0  0  0  0  0  0  0  0
   -1.7724   14.3982   42.9779 C   0  0  0  0  0  0  0  0  0  0  0  0
   -3.3975   15.9727   42.2447 N   0  0  0  0  0  0  0  0  0  0  0  0
   -3.4610   17.2774   41.9322 C   0  0  0  0  0  0  0  0  0  0  0  0
   -2.2723   17.8525   42.1583 C   0  0  0  0  0  0  0  0  0  0  0  0
   -1.7445   19.1033   42.0573 C   0  0  0  0  0  0  0  0  0  0  0  0
   -2.5038   20.1473   41.6451 N   0  0  0  0  0  0  0  0  0  0  0  0
    1.7076   20.5496   42.3681 H   0  0  0  0  0  0  0  0  0  0  0  0
    4.1021   20.9093   42.9465 H   0  0  0  0  0  0  0  0  0  0  0  0
    5.4165   19.0802   44.0032 H   0  0  0  0  0  0  0  0  0  0  0  0
    1.9273   16.5182   43.8940 H   0  0  0  0  0  0  0  0  0  0  0  0
   -2.4405   13.9795   43.7448 H   0  0  0  0  0  0  0  0  0  0  0  0
   -1.7732   13.7436   42.0938 H   0  0  0  0  0  0  0  0  0  0  0  0
   -0.7512   14.4694   43.3805 H   0  0  0  0  0  0  0  0  0  0  0  0
   -4.3529   17.7949   41.5491 H   0  0  0  0  0  0  0  0  0  0  0  0
   -3.4929   19.9992   41.3989 H   0  0  0  0  0  0  0  0  0  0  0  0
   -2.0918   21.0889   41.5779 H   0  0  0  0  0  0  0  0  0  0  0  0
  1  2  2  0
  1  6  1  0
  2  3  1  0
  3  4  2  0
  4  5  1  0
  5  6  2  0
  6  7  1  0
  7  8  2  0
  7  9  1  0
  8 16  1  0
  9 10  2  0
 10 11  1  0
 10 15  1  0
 11 12  1  0
 11 13  1  0
 13 14  2  0
 14 15  1  0
 15 16  2  0
 16 17  1  0
  1 18  1  0
  2 19  1  0
  3 20  1  0
  5 21  1  0
 12 22  1  0
 12 23  1  0
 12 24  1  0
 14 25  1  0
 17 26  1  0
 17 27  1  0
M  END
>  <mol_id>  (81) 
2026-09-18-6fnk-s0-n100-r1-0081

>  <rmsd_to_ref>  (81) 
4.127551020413186

>  <pose_kind>  (81) 
rigid

$$$$
6fnk.A
     RDKit          3D

 27 29  0  0  0  0  0  0  0  0999 V2000
    1.6872   19.8674   39.3711 C   0  0  0  0  0  0  0  0  0  0  0  0
    2.8862   19.7850   38.6756 C   0  0  0  0  0  0  0  0  0  0  0  0
    3.9017   18.9734   39.1561 C   0  0  0  0  0  0  0  0  0  0  0  0
    3.7565   18.2495   40.2986 N   0  0  0  0  0  0  0  0  0  0  0  0
    2.5848   18.3178   40.9959 C   0  0  0  0  0  0  0  0  0  0  0  0
    1.5573   19.1269   40.5270 C   0  0  0  0  0  0  0  0  0  0  0  0
    0.3307   19.1565   41.3174 C   0  0  0  0  0  0  0  0  0  0  0  0
    0.2643   18.4137   42.4336 N   0  0  0  0  0  0  0  0  0  0  0  0
   -0.7394   19.8892   40.9878 N   0  0  0  0  0  0  0  0  0  0  0  0
   -1.8689   19.9172   41.7145 C   0  0  0  0  0  0  0  0  0  0  0  0
   -3.0609   20.5287   41.6423 N   0  0  0  0  0  0  0  0  0  0  0  0
   -3.4627   21.4462   40.5922 C   0  0  0  0  0  0  0  0  0  0  0  0
   -3.8332   20.1838   42.6642 N   0  0  0  0  0  0  0  0  0  0  0  0
   -3.1747   19.3187   43.4644 C   0  0  0  0  0  0  0  0  0  0  0  0
   -1.9373   19.1463   42.8726 C   0  0  0  0  0  0  0  0  0  0  0  0
   -0.8404   18.3877   43.2215 C   0  0  0  0  0  0  0  0  0  0  0  0
   -0.8369   17.5745   44.3916 N   0  0  0  0  0  0  0  0  0  0  0  0
    0.8973   20.4889   39.0114 H   0  0  0  0  0  0  0  0  0  0  0  0
    3.0460   20.3414   37.7647 H   0  0  0  0  0  0  0  0  0  0  0  0
    4.8417   18.9152   38.6016 H   0  0  0  0  0  0  0  0  0  0  0  0
    2.5006   17.7302   41.9004 H   0  0  0  0  0  0  0  0  0  0  0  0
   -3.6017   20.8637   39.6443 H   0  0  0  0  0  0  0  0  0  0  0  0
   -4.3915   21.9826   40.8742 H   0  0  0  0  0  0  0  0  0  0  0  0
   -2.6312   22.1621   40.4750 H   0  0  0  0  0  0  0  0  0  0  0  0
   -3.4841   18.8346   44.3725 H   0  0  0  0  0  0  0  0  0  0  0  0
   -1.3942   16.6863   44.4695 H   0  0  0  0  0  0  0  0  0  0  0  0
   -0.2413   17.9074   45.1898 H   0  0  0  0  0  0  0  0  0  0  0  0
  1  2  2  0
  1  6  1  0
  2  3  1  0
  3  4  2  0
  4  5  1  0
  5  6  2  0
  6  7  1  0
  7  8  2  0
  7  9  1  0
  8 16  1  0
  9 10  2  0
 10 11  1  0
 10 15  1  0
 11 12  1  0
 11 13  1  0
 13 14  2  0
 14 15  1  0
 15 16  2  0
 16 17  1  0
  1 18  1  0
  2 19  1  0
  3 20  1  0
  5 21  1  0
 12 22  1  0
 12 23  1  0
 12 24  1  0
 14 25  1  0
 17 26  1  0
 17 27  1  0
M  END
>  <mol_id>  (82) 
2026-09-18-6fnk-s0-n100-r1-0082

>  <rmsd_to_ref>  (82) 
4.173469387756692

>  <pose_kind>  (82) 
conformer

$$$$
6fnk.A
     RDKit          3D

 27 29  0  0  0  0  0  0  0  0999 V2000
   -0.5777   18.8337   41.5059 C   0  0  0  0  0  0  0  0  0  0  0  0
   -0.8380   18.8824   40.1363 C   0  0  0  0  0  0  0  0  0  0  0  0
   -0.4456   17.8326   39.3188 C   0  0  0  0  0  0  0  0  0  0  0  0
    0.2066   16.7257   39.8690 N   0  0  0  0  0  0  0  0  0  0  0  0
    0.4684   16.6803   41.2467 C   0  0  0  0  0  0  0  0  0  0  0  0
    0.0764   17.7352   42.0687 C   0  0  0  0  0  0  0  0  0  0  0  0
    0.3409   17.6881   43.4413 C   0  0  0  0  0  0  0  0  0  0  0  0
    0.1343   18.7580   44.2214 N   0  0  0  0  0  0  0  0  0  0  0  0
    0.8009   16.5601   43.9918 N   0  0  0  0  0  0  0  0  0  0  0  0
    1.0749   16.4791   45.3060 C   0  0  0  0  0  0  0  0  0  0  0  0
    1.5500   15.4808   46.0662 N   0  0  0  0  0  0  0  0  0  0  0  0
    1.9023   14.1363   45.6002 C   0  0  0  0  0  0  0  0  0  0  0  0
    1.6480   15.8400   47.2403 N   0  0  0  0  0  0  0  0  0  0  0  0
    1.2030   17.1053   47.3122 C   0  0  0  0  0  0  0  0  0  0  0  0
    0.8612   17.5319   46.0891 C   0  0  0  0  0  0  0  0  0  0  0  0
    0.3846   18.6837   45.5417 C   0  0  0  0  0  0  0  0  0  0  0  0
    0.1585   19.7771   46.3097 N   0  0  0  0  0  0  0  0  0  0  0  0
   -0.8908   19.6691   42.1494 H   0  0  0  0  0  0  0  0  0  0  0  0
   -1.3541   19.7528   39.7048 H   0  0  0  0  0  0  0  0  0  0  0  0
   -0.6477   17.8713   38.2382 H   0  0  0  0  0  0  0  0  0  0  0  0
    0.9842   15.8101   41.6789 H   0  0  0  0  0  0  0  0  0  0  0  0
    2.9207   13.8879   45.9333 H   0  0  0  0  0  0  0  0  0  0  0  0
    1.1922   13.4063   46.0160 H   0  0  0  0  0  0  0  0  0  0  0  0
    1.8582   14.1058   44.5015 H   0  0  0  0  0  0  0  0  0  0  0  0
    1.1304   17.7004   48.2345 H   0  0  0  0  0  0  0  0  0  0  0  0
    0.3431   19.7423   47.3224 H   0  0  0  0  0  0  0  0  0  0  0  0
   -0.1980   20.6430   45.8806 H   0  0  0  0  0  0  0  0  0  0  0  0
  1  2  2  0
  1  6  1  0
  2  3  1  0
  3  4  2  0
  4  5  1  0
  5  6  2  0
  6  7  1  0
  7  8  2  0
  7  9  1  0
  8 16  1  0
  9 10  2  0
 10 11  1  0
 10 15  1  0
 11 12  1  0
 11 13  1  0
 13 14  2  0
 14 15  1  0
 15 16  2  0
 16 17  1  0
  1 18  1  0
  2 19  1  0
  3 20  1  0
  5 21  1  0
 12 22  1  0
 12 23  1  0
 12 24  1  0
 14 25  1  0
 17 26  1  0
 17 27  1  0
M  END
>  <mol_id>  (83) 
2026-09-18-6fnk-s0-n100-r1-0083

>  <rmsd_to_ref>  (83) 
4.219387755106303

>  <pose_kind>  (83) 
rigid

$$$$
6fnk.A
     RDKit          3D

 27 29  0  0  0  0  0  0  0  0999 V2000
    3.5667   16.3255   45.8463 C   0  0  0  0  0  0  0  0  0  0  0  0
    3.3954   15.7348   47.1034 C   0  0  0  0  0  0  0  0  0  0  0  0
    2.2093   15.9543   47.8133 C   0  0  0  0  0  0  0  0  0  0  0  0
    1.2490   16.7301   47.2787 N   0  0  0  0  0  0  0  0  0  0  0  0
    1.3751   17.3173   46.0707 C   0  0  0  0  0  0  0  0  0  0  0  0
    2.5469   17.1157   45.3410 C   0  0  0  0  0  0  0  0  0  0  0  0
    2.7278   17.7237   44.0425 C   0  0  0  0  0  0  0  0  0  0  0  0
    3.8176   17.5771   43.2881 N   0  0  0  0  0  0  0  0  0  0  0  0
    1.7336   18.5015   43.5362 N   0  0  0  0  0  0  0  0  0  0  0  0
    1.8018   19.1109   42.3415 C   0  0  0  0  0  0  0  0  0  0  0  0
    0.9130   19.9079   41.7000 N   0  0  0  0  0  0  0  0  0  0  0  0
   -0.3856   20.2684   42.2545 C   0  0  0  0  0  0  0  0  0  0  0  0
    1.4585   20.2443   40.5623 N   0  0  0  0  0  0  0  0  0  0  0  0
    2.6930   19.6914   40.4251 C   0  0  0  0  0  0  0  0  0  0  0  0
    2.9153   18.9586   41.5750 C   0  0  0  0  0  0  0  0  0  0  0  0
    3.9408   18.1733   42.0659 C   0  0  0  0  0  0  0  0  0  0  0  0
    5.0950   18.0152   41.2722 N   0  0  0  0  0  0  0  0  0  0  0  0
    4.4901   16.1369   45.3263 H   0  0  0  0  0  0  0  0  0  0  0  0
    4.1891   15.1093   47.5161 H   0  0  0  0  0  0  0  0  0  0  0  0
    2.1288   15.4744   48.7794 H   0  0  0  0  0  0  0  0  0  0  0  0
    0.5639   17.9374   45.6846 H   0  0  0  0  0  0  0  0  0  0  0  0
   -0.9681   20.8533   41.5452 H   0  0  0  0  0  0  0  0  0  0  0  0
   -0.2896   20.8045   43.2218 H   0  0  0  0  0  0  0  0  0  0  0  0
   -0.9674   19.3351   42.5090 H   0  0  0  0  0  0  0  0  0  0  0  0
    3.3872   19.7855   39.5966 H   0  0  0  0  0  0  0  0  0  0  0  0
    5.5509   17.0995   41.0559 H   0  0  0  0  0  0  0  0  0  0  0  0
    5.5474   18.8669   40.8570 H   0  0  0  0  0  0  0  0  0  0  0  0
  1  2  2  0
  1  6  1  0
  2  3  1  0
  3  4  2  0
  4  5  1  0
  5  6  2  0
  6  7  1  0
  7  8  2  0
  7  9  1  0
  8 16  1  0
  9 10  2  0
 10 11  1  0
 10 15  1  0
 11 12  1  0
 11 13  1  0
 13 14  2  0
 14 15  1  0
 15 16  2  0
 16 17  1  0
  1 18  1  0
  2 19  1  0
  3 20  1  0
  5 21  1  0
 12 22  1  0
 12 23  1  0
 12 24  1  0
 14 25  1  0
 17 26  1  0
 17 27  1  0
M  END
>  <mol_id>  (84) 
2026-09-18-6fnk-s0-n100-r1-0084

>  <rmsd_to_ref>  (84) 
4.265306122450491

>  <pose_kind>  (84) 
conformer

$$$$
6fnk.A
     RDKit          3D

 27 29  0  0  0  0  0  0  0  0999 V2000
    2.2414   17.2018   44.7318 C   0  0  0  0  0  0  0  0  0  0  0  0
    3.5195   16.8813   44.2741 C   0  0  0  0  0  0  0  0  0  0  0  0
    4.1823   17.7417   43.4110 C   0  0  0  0  0  0  0  0  0  0  0  0
    3.5702   18.9304   43.0042 N   0  0  0  0  0  0  0  0  0  0  0  0
    2.2839   19.2494   43.4650 C   0  0  0  0  0  0  0  0  0  0  0  0
    1.6163   18.3849   44.3306 C   0  0  0  0  0  0  0  0  0  0  0  0
    0.3332   18.7045   44.7864 C   0  0  0  0  0  0  0  0  0  0  0  0
   -0.3969   17.8151   45.4735 N   0  0  0  0  0  0  0  0  0  0  0  0
   -0.1770   19.9158   44.5424 N   0  0  0  0  0  0  0  0  0  0  0  0
   -1.4102   20.2567   44.9569 C   0  0  0  0  0  0  0  0  0  0  0  0
   -2.1263   21.3829   44.8195 N   0  0  0  0  0  0  0  0  0  0  0  0
   -1.6893   22.6030   44.1343 C   0  0  0  0  0  0  0  0  0  0  0  0
   -3.2251   21.2662   45.3637 N   0  0  0  0  0  0  0  0  0  0  0  0
   -3.2695   20.0453   45.9221 C   0  0  0  0  0  0  0  0  0  0  0  0
   -2.1361   19.3848   45.6498 C   0  0  0  0  0  0  0  0  0  0  0  0
   -1.6241   18.1510   45.9123 C   0  0  0  0  0  0  0  0  0  0  0  0
   -2.3378   17.2364   46.6126 N   0  0  0  0  0  0  0  0  0  0  0  0
    1.7203   16.5158   45.4158 H   0  0  0  0  0  0  0  0  0  0  0  0
    4.0016   15.9468   44.5973 H   0  0  0  0  0  0  0  0  0  0  0  0
    5.1890   17.4885   43.0471 H   0  0  0  0  0  0  0  0  0  0  0  0
    1.8014   20.1838   43.1424 H   0  0  0  0  0  0  0  0  0  0  0  0
   -2.4507   22.9038   43.3997 H   0  0  0  0  0  0  0  0  0  0  0  0
   -1.5523   23.4083   44.8710 H   0  0  0  0  0  0  0  0  0  0  0  0
   -0.7368   22.4124   43.6180 H   0  0  0  0  0  0  0  0  0  0  0  0
   -4.1083   19.6485   46.5128 H   0  0  0  0  0  0  0  0  0  0  0  0
   -3.2791   17.4723   46.9579 H   0  0  0  0  0  0  0  0  0  0  0  0
   -1.9391   16.3053   46.7997 H   0  0  0  0  0  0  0  0  0  0  0  0
  1  2  2  0
  1  6  1  0
  2  3  1  0
  3  4  2  0
  4  5  1  0
  5  6  2  0
  6  7  1  0
  7  8  2  0
  7  9  1  0
  8 16  1  0
  9 10  2  0
 10 11  1  0
 10 15  1  0
 11 12  1  0
 11 13  1  0
 13 14  2  0
 14 15  1  0
 15 16  2  0
 16 17  1  0
  1 18  1  0
  2 19  1  0
  3 20  1  0
  5 21  1  0
 12 22  1  0
 12 23  1  0
 12 24  1  0
 14 25  1  0
 17 26  1  0
 17 27  1  0
M  END
>  <mol_id>  (85) 
2026-09-18-6fnk-s0-n100-r1-0085

>  <rmsd_to_ref>  (85) 
4.311224489797752

>  <pose_kind>  (85) 
rigid

$$$$
6fnk.A
     RDKit          3D

 27 29  0  0  0  0  0  0  0  0999 V2000
   -2.6141   16.2077   41.1619 C   0  0  0  0  0  0  0  0  0  0  0  0
   -3.8433   15.6104   41.2704 C   0  0  0  0  0  0  0  0  0  0  0  0
   -4.1525   14.9505   42.4385 C   0  0  0  0  0  0  0  0  0  0  0  0
   -3.2967   14.8657   43.4833 N   0  0  0  0  0  0  0  0  0  0  0  0
   -2.0882   15.4468   43.3901 C   0  0  0  0  0  0  0  0  0  0  0  0
   -1.7254   16.1281   42.2279 C   0  0  0  0  0  0  0  0  0  0  0  0
   -0.4195   16.7614   42.1152 C   0  0  0  0  0  0  0  0  0  0  0  0
   -0.0725   17.4185   40.9914 N   0  0  0  0  0  0  0  0  0  0  0  0
    0.4486   16.6964   43.1281 N   0  0  0  0  0  0  0  0  0  0  0  0
    1.6778   17.2817   43.0463 C   0  0  0  0  0  0  0  0  0  0  0  0
    2.7333   17.3881   43.8626 N   0  0  0  0  0  0  0  0  0  0  0  0
    2.7707   16.8120   45.1892 C   0  0  0  0  0  0  0  0  0  0  0  0
    3.6972   18.0912   43.2522 N   0  0  0  0  0  0  0  0  0  0  0  0
    3.2707   18.4511   42.0205 C   0  0  0  0  0  0  0  0  0  0  0  0
    2.0098   17.9536   41.8742 C   0  0  0  0  0  0  0  0  0  0  0  0
    1.1058   18.0243   40.8129 C   0  0  0  0  0  0  0  0  0  0  0  0
    1.4118   18.7011   39.6040 N   0  0  0  0  0  0  0  0  0  0  0  0
   -2.3312   16.7278   40.2805 H   0  0  0  0  0  0  0  0  0  0  0  0
   -4.5261   15.6804   40.4316 H   0  0  0  0  0  0  0  0  0  0  0  0
   -5.1400   14.4904   42.4815 H   0  0  0  0  0  0  0  0  0  0  0  0
   -1.4200   15.3681   44.2339 H   0  0  0  0  0  0  0  0  0  0  0  0
    2.6307   15.7119   45.2037 H   0  0  0  0  0  0  0  0  0  0  0  0
    2.0528   17.2333   45.8919 H   0  0  0  0  0  0  0  0  0  0  0  0
    3.7902   16.9809   45.5990 H   0  0  0  0  0  0  0  0  0  0  0  0
    3.8319   19.0309   41.2837 H   0  0  0  0  0  0  0  0  0  0  0  0
    2.2354   18.4226   39.0488 H   0  0  0  0  0  0  0  0  0  0  0  0
    0.8129   19.4869   39.2580 H   0  0  0  0  0  0  0  0  0  0  0  0
  1  2  2  0
  1  6  1  0
  2  3  1  0
  3  4  2  0
  4  5  1  0
  5  6  2  0
  6  7  1  0
  7  8  2  0
  7  9  1  0
  8 16  1  0
  9 10  2  0
 10 11  1  0
 10 15  1  0
 11 12  1  0
 11 13  1  0
 13 14  2  0
 14 15  1  0
 15 16  2  0
 16 17  1  0
  1 18  1  0
  2 19  1  0
  3 20  1  0
  5 21  1  0
 12 22  1  0
 12 23  1  0
 12 24  1  0
 14 25  1  0
 17 26  1  0
 17 27  1  0
M  END
>  <mol_id>  (86) 
2026-09-18-6fnk-s0-n100-r1-0086

>  <rmsd_to_ref>  (86) 
4.35714285714403

>  <pose_kind>  (86) 
conformer

$$$$
6fnk.A
     RDKit          3D

 27 29  0  0  0  0  0  0  0  0999 V2000
    1.1206   18.4904   41.3528 C   0  0  0  0  0  0  0  0  0  0  0  0
    0.5261   18.5815   40.0941 C   0  0  0  0  0  0  0  0  0  0  0  0
    0.3870   17.4458   39.3099 C   0  0  0  0  0  0  0  0  0  0  0  0
    0.8390   16.2110   39.7833 N   0  0  0  0  0  0  0  0  0  0  0  0
    1.4379   16.1227   41.0492 C   0  0  0  0  0  0  0  0  0  0  0  0
    1.5800   17.2633   41.8372 C   0  0  0  0  0  0  0  0  0  0  0  0
    2.1795   17.1725   43.0975 C   0  0  0  0  0  0  0  0  0  0  0  0
    2.4860   18.2737   43.7973 N   0  0  0  0  0  0  0  0  0  0  0  0
    2.4481   15.9724   43.6216 N   0  0  0  0  0  0  0  0  0  0  0  0
    3.0318   15.8452   44.8266 C   0  0  0  0  0  0  0  0  0  0  0  0
    3.4054   14.7696   45.5363 N   0  0  0  0  0  0  0  0  0  0  0  0
    3.2438   13.3707   45.1291 C   0  0  0  0  0  0  0  0  0  0  0  0
    3.9075   15.1114   46.6079 N   0  0  0  0  0  0  0  0  0  0  0  0
    3.8564   16.4523   46.6663 C   0  0  0  0  0  0  0  0  0  0  0  0
    3.3277   16.9320   45.5326 C   0  0  0  0  0  0  0  0  0  0  0  0
    3.0510   18.1597   45.0135 C   0  0  0  0  0  0  0  0  0  0  0  0
    3.3425   19.2887   45.7042 N   0  0  0  0  0  0  0  0  0  0  0  0
    1.2286   19.3942   41.9704 H   0  0  0  0  0  0  0  0  0  0  0  0
    0.1680   19.5534   39.7237 H   0  0  0  0  0  0  0  0  0  0  0  0
   -0.0789   17.5170   38.3159 H   0  0  0  0  0  0  0  0  0  0  0  0
    1.7960   15.1511   41.4203 H   0  0  0  0  0  0  0  0  0  0  0  0
    4.2081   12.8490   45.2186 H   0  0  0  0  0  0  0  0  0  0  0  0
    2.5015   12.8832   45.7782 H   0  0  0  0  0  0  0  0  0  0  0  0
    2.9006   13.3301   44.0848 H   0  0  0  0  0  0  0  0  0  0  0  0
    4.1967   17.0633   47.5154 H   0  0  0  0  0  0  0  0  0  0  0  0
    3.7751   19.2247   46.6367 H   0  0  0  0  0  0  0  0  0  0  0  0
    3.1314   20.2107   45.2966 H   0  0  0  0  0  0  0  0  0  0  0  0
  1  2  2  0
  1  6  1  0
  2  3  1  0
  3  4  2  0
  4  5  1  0
  5  6  2  0
  6  7  1  0
  7  8  2  0
  7  9  1  0
  8 16  1  0
  9 10  2  0
 10 11  1  0
 10 15  1  0
 11 12  1  0
 11 13  1  0
 13 14  2  0
 14 15  1  0
 15 16  2  0
 16 17  1  0
  1 18  1  0
  2 19  1  0
  3 20  1  0
  5 21  1  0
 12 22  1  0
 12 23  1  0
 12 24  1  0
 14 25  1  0
 17 26  1  0
 17 27  1  0
M  END
>  <mol_id>  (87) 
2026-09-18-6fnk-s0-n100-r1-0087

>  <rmsd_to_ref>  (87) 
4.4030612244910365

>  <pose_kind>  (87) 
rigid

$$$$
6fnk.A
     RDKit          3D

 27 29  0  0  0  0  0  0  0  0999 V2000
   -1.9126   15.2971   44.8932 C   0  0  0  0  0  0  0  0  0  0  0  0
   -2.2063   14.0881   44.2750 C   0  0  0  0  0  0  0  0  0  0  0  0
   -1.6720   13.8318   43.0286 C   0  0  0  0  0  0  0  0  0  0  0  0
   -0.8732   14.7073   42.3801 N   0  0  0  0  0  0  0  0  0  0  0  0
   -0.5854   15.8875   42.9814 C   0  0  0  0  0  0  0  0  0  0  0  0
   -1.0855   16.2095   44.2275 C   0  0  0  0  0  0  0  0  0  0  0  0
   -0.7998   17.4597   44.9002 C   0  0  0  0  0  0  0  0  0  0  0  0
   -1.2968   17.7610   46.1205 N   0  0  0  0  0  0  0  0  0  0  0  0
    0.0024   18.3733   44.2823 N   0  0  0  0  0  0  0  0  0  0  0  0
    0.2767   19.5524   44.9078 C   0  0  0  0  0  0  0  0  0  0  0  0
    1.0246   20.6229   44.5428 N   0  0  0  0  0  0  0  0  0  0  0  0
    1.7743   20.8101   43.3218 C   0  0  0  0  0  0  0  0  0  0  0  0
    0.9777   21.5292   45.5055 N   0  0  0  0  0  0  0  0  0  0  0  0
    0.2121   21.0979   46.5207 C   0  0  0  0  0  0  0  0  0  0  0  0
   -0.2332   19.8556   46.1538 C   0  0  0  0  0  0  0  0  0  0  0  0
   -1.0372   18.9180   46.7520 C   0  0  0  0  0  0  0  0  0  0  0  0
   -1.6123   19.1339   48.0358 N   0  0  0  0  0  0  0  0  0  0  0  0
   -2.3037   15.5582   45.8764 H   0  0  0  0  0  0  0  0  0  0  0  0
   -2.8507   13.3869   44.8029 H   0  0  0  0  0  0  0  0  0  0  0  0
   -1.9244   12.8821   42.5837 H   0  0  0  0  0  0  0  0  0  0  0  0
    0.0655   16.6065   42.4586 H   0  0  0  0  0  0  0  0  0  0  0  0
    2.8500   20.9373   43.6358 H   0  0  0  0  0  0  0  0  0  0  0  0
    1.7348   19.9177   42.6675 H   0  0  0  0  0  0  0  0  0  0  0  0
    1.5099   21.7426   42.7928 H   0  0  0  0  0  0  0  0  0  0  0  0
   -0.0384   21.5810   47.4554 H   0  0  0  0  0  0  0  0  0  0  0  0
   -1.2200   19.9070   48.6174 H   0  0  0  0  0  0  0  0  0  0  0  0
   -2.3913   18.5458   48.3808 H   0  0  0  0  0  0  0  0  0  0  0  0
  1  2  2  0
  1  6  1  0
  2  3  1  0
  3  4  2  0
  4  5  1  0
  5  6  2  0
  6  7  1  0
  7  8  2  0
  7  9  1  0
  8 16  1  0
  9 10  2  0
 10 11  1  0
 10 15  1  0
 11 12  1  0
 11 13  1  0
 13 14  2  0
 14 15  1  0
 15 16  2  0
 16 17  1  0
  1 18  1  0
  2 19  1  0
  3 20  1  0
  5 21  1  0
 12 22  1  0
 12 23  1  0
 12 24  1  0
 14 25  1  0
 17 26  1  0
 17 27  1  0
M  END
>  <mol_id>  (88) 
2026-09-18-6fnk-s0-n100-r1-0088

>  <rmsd_to_ref>  (88) 
4.448979591837502

>  <pose_kind>  (88) 
conformer

$$$$
6fnk.A
     RDKit          3D

 27 29  0  0  0  0  0  0  0  0999 V2000
   -0.1155   15.9090   45.1922 C   0  0  0  0  0  0  0  0  0  0  0  0
   -0.8462   15.2459   46.1783 C   0  0  0  0  0  0  0  0  0  0  0  0
   -1.8389   15.9191   46.8754 C   0  0  0  0  0  0  0  0  0  0  0  0
   -2.1082   17.2597   46.5861 N   0  0  0  0  0  0  0  0  0  0  0  0
   -1.3705   17.9244   45.5948 C   0  0  0  0  0  0  0  0  0  0  0  0
   -0.3717   17.2497   44.8952 C   0  0  0  0  0  0  0  0  0  0  0  0
    0.3635   17.9156   43.9092 C   0  0  0  0  0  0  0  0  0  0  0  0
    1.4395   17.3469   43.3481 N   0  0  0  0  0  0  0  0  0  0  0  0
   -0.0104   19.1356   43.5107 N   0  0  0  0  0  0  0  0  0  0  0  0
    0.6763   19.8105   42.5717 C   0  0  0  0  0  0  0  0  0  0  0  0
    0.5057   21.0275   42.0329 N   0  0  0  0  0  0  0  0  0  0  0  0
   -0.5606   21.9758   42.3683 C   0  0  0  0  0  0  0  0  0  0  0  0
    1.3752   21.2533   41.1902 N   0  0  0  0  0  0  0  0  0  0  0  0
    2.1531   20.1610   41.1124 C   0  0  0  0  0  0  0  0  0  0  0  0
    1.7375   19.2487   42.0011 C   0  0  0  0  0  0  0  0  0  0  0  0
    2.1231   18.0030   42.3922 C   0  0  0  0  0  0  0  0  0  0  0  0
    3.2019   17.4018   41.8344 N   0  0  0  0  0  0  0  0  0  0  0  0
    0.6707   15.3704   44.6428 H   0  0  0  0  0  0  0  0  0  0  0  0
   -0.6354   14.1900   46.4031 H   0  0  0  0  0  0  0  0  0  0  0  0
   -2.4136   15.3981   47.6552 H   0  0  0  0  0  0  0  0  0  0  0  0
   -1.5809   18.9803   45.3693 H   0  0  0  0  0  0  0  0  0  0  0  0
   -0.1189   22.9540   42.6095 H   0  0  0  0  0  0  0  0  0  0  0  0
   -1.2402   22.0820   41.5099 H   0  0  0  0  0  0  0  0  0  0  0  0
   -1.1228   21.6032   43.2372 H   0  0  0  0  0  0  0  0  0  0  0  0
    3.0017   20.0349   40.4240 H   0  0  0  0  0  0  0  0  0  0  0  0
    3.7395   17.8858   41.1012 H   0  0  0  0  0  0  0  0  0  0  0  0
    3.4843   16.4608   42.1438 H   0  0  0  0  0  0  0  0  0  0  0  0
  1  2  2  0
  1  6  1  0
  2  3  1  0
  3  4  2  0
  4  5  1  0
  5  6  2  0
  6  7  1  0
  7  8  2  0
  7  9  1  0
  8 16  1  0
  9 10  2  0
 10 11  1  0
 10 15  1  0
 11 12  1  0
 11 13  1  0
 13 14  2  0
 14 15  1  0
 15 16  2  0
 16 17  1  0
  1 18  1  0
  2 19  1  0
  3 20  1  0
  5 21  1  0
 12 22  1  0
 12 23  1  0
 12 24  1  0
 14 25  1  0
 17 26  1  0
 17 27  1  0
M  END
>  <mol_id>  (89) 
2026-09-18-6fnk-s0-n100-r1-0089

>  <rmsd_to_ref>  (89) 
4.4948979591851534

>  <pose_kind>  (89) 
rigid

$$$$
6fnk.A
     RDKit          3D

 27 29  0  0  0  0  0  0  0  0999 V2000
    3.1079   19.0554   42.2113 C   0  0  0  0  0  0  0  0  0  0  0  0
    4.1623   19.7162   41.6028 C   0  0  0  0  0  0  0  0  0  0  0  0
    4.1736   21.0954   41.6446 C   0  0  0  0  0  0  0  0  0  0  0  0
    3.2160   21.8242   42.2440 N   0  0  0  0  0  0  0  0  0  0  0  0
    2.1720   21.1989   42.8475 C   0  0  0  0  0  0  0  0  0  0  0  0
    2.1199   19.8045   42.8296 C   0  0  0  0  0  0  0  0  0  0  0  0
    0.9953   19.1424   43.4801 C   0  0  0  0  0  0  0  0  0  0  0  0
    0.0497   19.8919   44.0730 N   0  0  0  0  0  0  0  0  0  0  0  0
    0.9186   17.8004   43.4788 N   0  0  0  0  0  0  0  0  0  0  0  0
   -0.0903   17.1313   44.0597 C   0  0  0  0  0  0  0  0  0  0  0  0
   -0.4165   15.8563   44.2102 N   0  0  0  0  0  0  0  0  0  0  0  0
    0.3607   14.7452   43.7053 C   0  0  0  0  0  0  0  0  0  0  0  0
   -1.5505   15.7402   44.8855 N   0  0  0  0  0  0  0  0  0  0  0  0
   -1.9724   17.0014   45.1828 C   0  0  0  0  0  0  0  0  0  0  0  0
   -1.0670   17.9128   44.6724 C   0  0  0  0  0  0  0  0  0  0  0  0
   -0.9798   19.2947   44.6688 C   0  0  0  0  0  0  0  0  0  0  0  0
   -2.0357   19.9986   45.3263 N   0  0  0  0  0  0  0  0  0  0  0  0
    3.0739   17.9758   42.1936 H   0  0  0  0  0  0  0  0  0  0  0  0
    4.9376   19.1379   41.1179 H   0  0  0  0  0  0  0  0  0  0  0  0
    4.9847   21.6377   41.1777 H   0  0  0  0  0  0  0  0  0  0  0  0
    1.4053   21.7921   43.3278 H   0  0  0  0  0  0  0  0  0  0  0  0
   -0.0855   13.7714   44.0319 H   0  0  0  0  0  0  0  0  0  0  0  0
    1.4040   14.7324   44.0884 H   0  0  0  0  0  0  0  0  0  0  0  0
    0.3178   14.7397   42.5962 H   0  0  0  0  0  0  0  0  0  0  0  0
   -2.8580   17.2987   45.7239 H   0  0  0  0  0  0  0  0  0  0  0  0
   -2.5150   19.6075   46.1517 H   0  0  0  0  0  0  0  0  0  0  0  0
   -2.3028   20.9288   44.9348 H   0  0  0  0  0  0  0  0  0  0  0  0
  1  2  2  0
  1  6  1  0
  2  3  1  0
  3  4  2  0
  4  5  1  0
  5  6  2  0
  6  7  1  0
  7  8  2  0
  7  9  1  0
  8 16  1  0
  9 10  2  0
 10 11  1  0
 10 15  1  0
 11 12  1  0
 11 13  1  0
 13 14  2  0
 14 15  1  0
 15 16  2  0
 16 17  1  0
  1 18  1  0
  2 19  1  0
  3 20  1  0
  5 21  1  0
 12 22  1  0
 12 23  1  0
 12 24  1  0
 14 25  1  0
 17 26  1  0
 17 27  1  0
M  END
>  <mol_id>  (90) 
2026-09-18-6fnk-s0-n100-r1-0090

>  <rmsd_to_ref>  (90) 
4.540816326533182

>  <pose_kind>  (90) 
conformer

$$$$
6fnk.A
     RDKit          3D

 27 29  0  0  0  0  0  0  0  0999 V2000
    3.9077   20.7304   43.8134 C   0  0  0  0  0  0  0  0  0  0  0  0
    5.2436   20.9740   43.4941 C   0  0  0  0  0  0  0  0  0  0  0  0
    5.7103   20.7059   42.2155 C   0  0  0  0  0  0  0  0  0  0  0  0
    4.8405   20.1956   41.2478 N   0  0  0  0  0  0  0  0  0  0  0  0
    3.4977   19.9502   41.5724 C   0  0  0  0  0  0  0  0  0  0  0  0
    3.0281   20.2173   42.8570 C   0  0  0  0  0  0  0  0  0  0  0  0
    1.6897   19.9694   43.1783 C   0  0  0  0  0  0  0  0  0  0  0  0
    1.2569   20.0504   44.4440 N   0  0  0  0  0  0  0  0  0  0  0  0
    0.8214   19.6526   42.2124 N   0  0  0  0  0  0  0  0  0  0  0  0
   -0.4712   19.3989   42.4835 C   0  0  0  0  0  0  0  0  0  0  0  0
   -1.5038   19.0528   41.6998 N   0  0  0  0  0  0  0  0  0  0  0  0
   -1.4561   18.8623   40.2470 C   0  0  0  0  0  0  0  0  0  0  0  0
   -2.5293   18.9197   42.3689 N   0  0  0  0  0  0  0  0  0  0  0  0
   -2.2184   19.2092   43.6432 C   0  0  0  0  0  0  0  0  0  0  0  0
   -0.9114   19.4891   43.7347 C   0  0  0  0  0  0  0  0  0  0  0  0
   -0.0387   19.8196   44.7259 C   0  0  0  0  0  0  0  0  0  0  0  0
   -0.4523   19.9170   46.0127 N   0  0  0  0  0  0  0  0  0  0  0  0
    3.5431   20.9446   44.8289 H   0  0  0  0  0  0  0  0  0  0  0  0
    5.9266   21.3784   44.2557 H   0  0  0  0  0  0  0  0  0  0  0  0
    6.7642   20.8948   41.9635 H   0  0  0  0  0  0  0  0  0  0  0  0
    2.8141   19.5460   40.8112 H   0  0  0  0  0  0  0  0  0  0  0  0
   -1.8879   17.8835   39.9912 H   0  0  0  0  0  0  0  0  0  0  0  0
   -2.0337   19.6580   39.7538 H   0  0  0  0  0  0  0  0  0  0  0  0
   -0.4111   18.9026   39.9060 H   0  0  0  0  0  0  0  0  0  0  0  0
   -2.9284   19.2155   44.4833 H   0  0  0  0  0  0  0  0  0  0  0  0
   -1.4394   19.7445   46.2509 H   0  0  0  0  0  0  0  0  0  0  0  0
    0.2205   20.1636   46.7526 H   0  0  0  0  0  0  0  0  0  0  0  0
  1  2  2  0
  1  6  1  0
  2  3  1  0
  3  4  2  0
  4  5  1  0
  5  6  2  0
  6  7  1  0
  7  8  2  0
  7  9  1  0
  8 16  1  0
  9 10  2  0
 10 11  1  0
 10 15  1  0
 11 12  1  0
 11 13  1  0
 13 14  2  0
 14 15  1  0
 15 16  2  0
 16 17  1  0
  1 18  1  0
  2 19  1  0
  3 20  1  0
  5 21  1  0
 12 22  1  0
 12 23  1  0
 12 24  1  0
 14 25  1  0
 17 26  1  0
 17 27  1  0
M  END
>  <mol_id>  (91) 
2026-09-18-6fnk-s0-n100-r1-0091

>  <rmsd_to_ref>  (91) 
4.5867346938780384

>  <pose_kind>  (91) 
rigid

$$$$
6fnk.A
     RDKit          3D

 27 29  0  0  0  0  0  0  0  0999 V2000
    4.9462   21.5821   42.8506 C   0  0  0  0  0  0  0  0  0  0  0  0
    6.1730   22.1541   42.5157 C   0  0  0  0  0  0  0  0  0  0  0  0
    6.9993   21.5638   41.5697 C   0  0  0  0  0  0  0  0  0  0  0  0
    6.6314   20.4230   40.9544 N   0  0  0  0  0  0  0  0  0  0  0  0
    5.4429   19.8663   41.2770 C   0  0  0  0  0  0  0  0  0  0  0  0
    4.5908   20.4184   42.2107 C   0  0  0  0  0  0  0  0  0  0  0  0
    3.3327   19.7294   42.4786 C   0  0  0  0  0  0  0  0  0  0  0  0
    3.0731   18.5964   41.8022 N   0  0  0  0  0  0  0  0  0  0  0  0
    2.4381   20.1907   43.3715 N   0  0  0  0  0  0  0  0  0  0  0  0
    1.2816   19.5083   43.5815 C   0  0  0  0  0  0  0  0  0  0  0  0
    0.2068   19.6754   44.3683 N   0  0  0  0  0  0  0  0  0  0  0  0
    0.0017   20.7676   45.3014 C   0  0  0  0  0  0  0  0  0  0  0  0
   -0.6680   18.6909   44.1813 N   0  0  0  0  0  0  0  0  0  0  0  0
   -0.2180   17.8351   43.2716 C   0  0  0  0  0  0  0  0  0  0  0  0
    1.0216   18.3361   42.8763 C   0  0  0  0  0  0  0  0  0  0  0  0
    1.9452   17.8696   41.9618 C   0  0  0  0  0  0  0  0  0  0  0  0
    1.7505   16.6806   41.2040 N   0  0  0  0  0  0  0  0  0  0  0  0
    4.2926   22.0297   43.5846 H   0  0  0  0  0  0  0  0  0  0  0  0
    6.4852   23.0688   42.9984 H   0  0  0  0  0  0  0  0  0  0  0  0
    7.9574   21.9763   41.2829 H   0  0  0  0  0  0  0  0  0  0  0  0
    5.1986   18.9447   40.7473 H   0  0  0  0  0  0  0  0  0  0  0  0
   -1.1006   20.9542   45.4357 H   0  0  0  0  0  0  0  0  0  0  0  0
    0.4166   20.5738   46.3049 H   0  0  0  0  0  0  0  0  0  0  0  0
    0.4085   21.7187   44.9220 H   0  0  0  0  0  0  0  0  0  0  0  0
   -0.6719   16.9267   42.8810 H   0  0  0  0  0  0  0  0  0  0  0  0
    1.6899   15.7671   41.7414 H   0  0  0  0  0  0  0  0  0  0  0  0
    1.6709   16.7096   40.1638 H   0  0  0  0  0  0  0  0  0  0  0  0
  1  2  2  0
  1  6  1  0
  2  3  1  0
  3  4  2  0
  4  5  1  0
  5  6  2  0
  6  7  1  0
  7  8  2  0
  7  9  1  0
  8 16  1  0
  9 10  2  0
 10 11  1  0
 10 15  1  0
 11 12  1  0
 11 13  1  0
 13 14  2  0
 14 15  1  0
 15 16  2  0
 16 17  1  0
  1 18  1  0
  2 19  1  0
  3 20  1  0
  5 21  1  0
 12 22  1  0
 12 23  1  0
 12 24  1  0
 14 25  1  0
 17 26  1  0
 17 27  1  0
M  END
>  <mol_id>  (92) 
2026-09-18-6fnk-s0-n100-r1-0092

>  <rmsd_to_ref>  (92) 
4.6326530612269865

>  <pose_kind>  (92) 
conformer

$$$$
6fnk.A
     RDKit          3D

 27 29  0  0  0  0  0  0  0  0999 V2000
    0.6869   16.1996   46.1856 C   0  0  0  0  0  0  0  0  0  0  0  0
   -0.1629   15.5397   47.0735 C   0  0  0  0  0  0  0  0  0  0  0  0
   -1.4432   16.0247   47.2970 C   0  0  0  0  0  0  0  0  0  0  0  0
   -1.8815   17.1716   46.6294 N   0  0  0  0  0  0  0  0  0  0  0  0
   -1.0240   17.8342   45.7380 C   0  0  0  0  0  0  0  0  0  0  0  0
    0.2632   17.3490   45.5141 C   0  0  0  0  0  0  0  0  0  0  0  0
    1.1165   18.0129   44.6269 C   0  0  0  0  0  0  0  0  0  0  0  0
    2.4089   17.6726   44.5268 N   0  0  0  0  0  0  0  0  0  0  0  0
    0.6414   18.9986   43.8589 N   0  0  0  0  0  0  0  0  0  0  0  0
    1.4331   19.6658   43.0004 C   0  0  0  0  0  0  0  0  0  0  0  0
    1.1912   20.6803   42.1563 N   0  0  0  0  0  0  0  0  0  0  0  0
   -0.1002   21.3445   41.9559 C   0  0  0  0  0  0  0  0  0  0  0  0
    2.2154   20.9884   41.5454 N   0  0  0  0  0  0  0  0  0  0  0  0
    3.1885   20.1530   41.9448 C   0  0  0  0  0  0  0  0  0  0  0  0
    2.7133   19.3264   42.8860 C   0  0  0  0  0  0  0  0  0  0  0  0
    3.2068   18.3183   43.6563 C   0  0  0  0  0  0  0  0  0  0  0  0
    4.5076   17.9485   43.5681 N   0  0  0  0  0  0  0  0  0  0  0  0
    1.7012   15.8108   46.0123 H   0  0  0  0  0  0  0  0  0  0  0  0
    0.1820   14.6353   47.5961 H   0  0  0  0  0  0  0  0  0  0  0  0
   -2.1131   15.5068   47.9991 H   0  0  0  0  0  0  0  0  0  0  0  0
   -1.3683   18.7384   45.2149 H   0  0  0  0  0  0  0  0  0  0  0  0
    0.0268   22.4322   42.0598 H   0  0  0  0  0  0  0  0  0  0  0  0
   -0.4787   21.1140   40.9491 H   0  0  0  0  0  0  0  0  0  0  0  0
   -0.8178   20.9856   42.7084 H   0  0  0  0  0  0  0  0  0  0  0  0
    4.2182   20.1482   41.5580 H   0  0  0  0  0  0  0  0  0  0  0  0
    5.1360   18.4292   42.9085 H   0  0  0  0  0  0  0  0  0  0  0  0
    4.8678   17.1869   44.1605 H   0  0  0  0  0  0  0  0  0  0  0  0
  1  2  2  0
  1  6  1  0
  2  3  1  0
  3  4  2  0
  4  5  1  0
  5  6  2  0
  6  7  1  0
  7  8  2  0
  7  9  1  0
  8 16  1  0
  9 10  2  0
 10 11  1  0
 10 15  1  0
 11 12  1  0
 11 13  1  0
 13 14  2  0
 14 15  1  0
 15 16  2  0
 16 17  1  0
  1 18  1  0
  2 19  1  0
  3 20  1  0
  5 21  1  0
 12 22  1  0
 12 23  1  0
 12 24  1  0
 14 25  1  0
 17 26  1  0
 17 27  1  0
M  END
>  <mol_id>  (93) 
2026-09-18-6fnk-s0-n100-r1-0093

>  <rmsd_to_ref>  (93) 
4.678571428576649

>  <pose_kind>  (93) 
rigid

$$$$
6fnk.A
     RDKit          3D

 27 29  0  0  0  0  0  0  0  0999 V2000
    2.6606   18.7646   38.2659 C   0  0  0  0  0  0  0  0  0  0  0  0
    3.3238   19.3870   37.2220 C   0  0  0  0  0  0  0  0  0  0  0  0
    4.6119   19.0123   36.8752 C   0  0  0  0  0  0  0  0  0  0  0  0
    5.2256   18.0198   37.5740 N   0  0  0  0  0  0  0  0  0  0  0  0
    4.5921   17.3927   38.6057 C   0  0  0  0  0  0  0  0  0  0  0  0
    3.3072   17.7558   38.9630 C   0  0  0  0  0  0  0  0  0  0  0  0
    2.6266   17.0849   40.0684 C   0  0  0  0  0  0  0  0  0  0  0  0
    3.2594   16.1094   40.7381 N   0  0  0  0  0  0  0  0  0  0  0  0
    1.3932   17.4373   40.4072 N   0  0  0  0  0  0  0  0  0  0  0  0
    0.7477   16.8333   41.4214 C   0  0  0  0  0  0  0  0  0  0  0  0
   -0.4793   17.0136   41.9392 N   0  0  0  0  0  0  0  0  0  0  0  0
   -1.4518   17.9669   41.4895 C   0  0  0  0  0  0  0  0  0  0  0  0
   -0.6555   16.1672   42.9394 N   0  0  0  0  0  0  0  0  0  0  0  0
    0.4460   15.4152   43.1010 C   0  0  0  0  0  0  0  0  0  0  0  0
    1.3509   15.8243   42.1436 C   0  0  0  0  0  0  0  0  0  0  0  0
    2.6330   15.4766   41.7717 C   0  0  0  0  0  0  0  0  0  0  0  0
    3.2918   14.4369   42.4945 N   0  0  0  0  0  0  0  0  0  0  0  0
    1.6378   19.0678   38.5352 H   0  0  0  0  0  0  0  0  0  0  0  0
    2.7841   20.1695   36.7033 H   0  0  0  0  0  0  0  0  0  0  0  0
    5.1202   19.5067   36.0566 H   0  0  0  0  0  0  0  0  0  0  0  0
    5.1222   16.6065   39.1338 H   0  0  0  0  0  0  0  0  0  0  0  0
   -2.4870   17.5274   41.4309 H   0  0  0  0  0  0  0  0  0  0  0  0
   -1.2094   18.4256   40.5276 H   0  0  0  0  0  0  0  0  0  0  0  0
   -1.5296   18.7639   42.2707 H   0  0  0  0  0  0  0  0  0  0  0  0
    0.6311   14.6368   43.8201 H   0  0  0  0  0  0  0  0  0  0  0  0
    3.9384   13.7937   41.9877 H   0  0  0  0  0  0  0  0  0  0  0  0
    3.0928   14.3643   43.5231 H   0  0  0  0  0  0  0  0  0  0  0  0
  1  2  2  0
  1  6  1  0
  2  3  1  0
  3  4  2  0
  4  5  1  0
  5  6  2  0
  6  7  1  0
  7  8  2  0
  7  9  1  0
  8 16  1  0
  9 10  2  0
 10 11  1  0
 10 15  1  0
 11 12  1  0
 11 13  1  0
 13 14  2  0
 14 15  1  0
 15 16  2  0
 16 17  1  0
  1 18  1  0
  2 19  1  0
  3 20  1  0
  5 21  1  0
 12 22  1  0
 12 23  1  0
 12 24  1  0
 14 25  1  0
 17 26  1  0
 17 27  1  0
M  END
>  <mol_id>  (94) 
2026-09-18-6fnk-s0-n100-r1-0094

>  <rmsd_to_ref>  (94) 
4.72448979592065

>  <pose_kind>  (94) 
conformer

$$$$
6fnk.A
     RDKit          3D

 27 29  0  0  0  0  0  0  0  0999 V2000
   -1.4165   15.7288   40.4709 C   0  0  0  0  0  0  0  0  0  0  0  0
   -2.7493   15.4129   40.7349 C   0  0  0  0  0  0  0  0  0  0  0  0
   -3.4215   16.0520   41.7665 C   0  0  0  0  0  0  0  0  0  0  0  0
   -2.7636   17.0143   42.5376 N   0  0  0  0  0  0  0  0  0  0  0  0
   -1.4225   17.3288   42.2707 C   0  0  0  0  0  0  0  0  0  0  0  0
   -0.7456   16.6860   41.2358 C   0  0  0  0  0  0  0  0  0  0  0  0
    0.5919   16.9999   40.9737 C   0  0  0  0  0  0  0  0  0  0  0  0
    1.3135   16.2771   40.1060 N   0  0  0  0  0  0  0  0  0  0  0  0
    1.1643   18.0393   41.5893 N   0  0  0  0  0  0  0  0  0  0  0  0
    2.4502   18.3666   41.3696 C   0  0  0  0  0  0  0  0  0  0  0  0
    3.2304   19.3357   41.8718 N   0  0  0  0  0  0  0  0  0  0  0  0
    2.8238   20.3473   42.8518 C   0  0  0  0  0  0  0  0  0  0  0  0
    4.3612   19.2754   41.3874 N   0  0  0  0  0  0  0  0  0  0  0  0
    4.3666   18.2639   40.5036 C   0  0  0  0  0  0  0  0  0  0  0  0
    3.1695   17.6624   40.5013 C   0  0  0  0  0  0  0  0  0  0  0  0
    2.5952   16.6069   39.8613 C   0  0  0  0  0  0  0  0  0  0  0  0
    3.3000   15.8653   38.9727 N   0  0  0  0  0  0  0  0  0  0  0  0
   -0.8882   15.2187   39.6519 H   0  0  0  0  0  0  0  0  0  0  0  0
   -3.2670   14.6575   40.1255 H   0  0  0  0  0  0  0  0  0  0  0  0
   -4.4716   15.8016   41.9775 H   0  0  0  0  0  0  0  0  0  0  0  0
   -0.9042   18.0842   42.8795 H   0  0  0  0  0  0  0  0  0  0  0  0
    3.5379   20.3553   43.6884 H   0  0  0  0  0  0  0  0  0  0  0  0
    2.8096   21.3373   42.3725 H   0  0  0  0  0  0  0  0  0  0  0  0
    1.8188   20.1085   43.2298 H   0  0  0  0  0  0  0  0  0  0  0  0
    5.2231   17.9737   39.8773 H   0  0  0  0  0  0  0  0  0  0  0  0
    4.2822   16.1000   38.7704 H   0  0  0  0  0  0  0  0  0  0  0  0
    2.8533   15.0668   38.4995 H   0  0  0  0  0  0  0  0  0  0  0  0
  1  2  2  0
  1  6  1  0
  2  3  1  0
  3  4  2  0
  4  5  1  0
  5  6  2  0
  6  7  1  0
  7  8  2  0
  7  9  1  0
  8 16  1  0
  9 10  2  0
 10 11  1  0
 10 15  1  0
 11 12  1  0
 11 13  1  0
 13 14  2  0
 14 15  1  0
 15 16  2  0
 16 17  1  0
  1 18  1  0
  2 19  1  0
  3 20  1  0
  5 21  1  0
 12 22  1  0
 12 23  1  0
 12 24  1  0
 14 25  1  0
 17 26  1  0
 17 27  1  0
M  END
>  <mol_id>  (95) 
2026-09-18-6fnk-s0-n100-r1-0095

>  <rmsd_to_ref>  (95) 
4.7704081632675885

>  <pose_kind>  (95) 
rigid

$$$$
6fnk.A
     RDKit          3D

 27 29  0  0  0  0  0  0  0  0999 V2000
    1.2261   18.0040   43.8076 C   0  0  0  0  0  0  0  0  0  0  0  0
    0.9004   17.5444   45.0891 C   0  0  0  0  0  0  0  0  0  0  0  0
    1.5369   16.4021   45.5879 C   0  0  0  0  0  0  0  0  0  0  0  0
    2.4616   15.7570   44.8195 N   0  0  0  0  0  0  0  0  0  0  0  0
    2.7772   16.1958   43.5872 C   0  0  0  0  0  0  0  0  0  0  0  0
    2.1672   17.3276   43.0545 C   0  0  0  0  0  0  0  0  0  0  0  0
    2.5298   17.7722   41.7264 C   0  0  0  0  0  0  0  0  0  0  0  0
    3.4580   17.0672   41.0398 N   0  0  0  0  0  0  0  0  0  0  0  0
    1.9484   18.8651   41.1980 N   0  0  0  0  0  0  0  0  0  0  0  0
    2.2875   19.2850   39.9498 C   0  0  0  0  0  0  0  0  0  0  0  0
    1.9049   20.3047   39.1597 N   0  0  0  0  0  0  0  0  0  0  0  0
    0.9136   21.3191   39.5083 C   0  0  0  0  0  0  0  0  0  0  0  0
    2.5744   20.2423   38.0078 N   0  0  0  0  0  0  0  0  0  0  0  0
    3.4034   19.1716   38.0435 C   0  0  0  0  0  0  0  0  0  0  0  0
    3.2415   18.5581   39.2474 C   0  0  0  0  0  0  0  0  0  0  0  0
    3.8323   17.4383   39.7979 C   0  0  0  0  0  0  0  0  0  0  0  0
    4.8048   16.6933   39.0878 N   0  0  0  0  0  0  0  0  0  0  0  0
    0.7259   18.8825   43.4438 H   0  0  0  0  0  0  0  0  0  0  0  0
    0.1668   18.0886   45.6511 H   0  0  0  0  0  0  0  0  0  0  0  0
    1.2912   16.0363   46.5830 H   0  0  0  0  0  0  0  0  0  0  0  0
    3.5256   15.6283   43.0322 H   0  0  0  0  0  0  0  0  0  0  0  0
    0.4052   21.7010   38.5998 H   0  0  0  0  0  0  0  0  0  0  0  0
    1.4584   22.1516   40.0004 H   0  0  0  0  0  0  0  0  0  0  0  0
    0.1986   20.8688   40.2342 H   0  0  0  0  0  0  0  0  0  0  0  0
    4.0724   18.8811   37.2281 H   0  0  0  0  0  0  0  0  0  0  0  0
    4.8849   15.6537   39.1102 H   0  0  0  0  0  0  0  0  0  0  0  0
    5.4983   17.2299   38.4931 H   0  0  0  0  0  0  0  0  0  0  0  0
  1  2  2  0
  1  6  1  0
  2  3  1  0
  3  4  2  0
  4  5  1  0
  5  6  2  0
  6  7  1  0
  7  8  2  0
  7  9  1  0
  8 16  1  0
  9 10  2  0
 10 11  1  0
 10 15  1  0
 11 12  1  0
 11 13  1  0
 13 14  2  0
 14 15  1  0
 15 16  2  0
 16 17  1  0
  1 18  1  0
  2 19  1  0
  3 20  1  0
  5 21  1  0
 12 22  1  0
 12 23  1  0
 12 24  1  0
 14 25  1  0
 17 26  1  0
 17 27  1  0
M  END
>  <mol_id>  (96) 
2026-09-18-6fnk-s0-n100-r1-0096

>  <rmsd_to_ref>  (96) 
4.8163265306180385

>  <pose_kind>  (96) 
conformer

$$$$
6fnk.A
     RDKit          3D

 27 29  0  0  0  0  0  0  0  0999 V2000
    2.8482   18.1063   42.5493 C   0  0  0  0  0  0  0  0  0  0  0  0
    3.3204   18.7897   41.4286 C   0  0  0  0  0  0  0  0  0  0  0  0
    3.4890   20.1659   41.4765 C   0  0  0  0  0  0  0  0  0  0  0  0
    3.1892   20.8654   42.6487 N   0  0  0  0  0  0  0  0  0  0  0  0
    2.7130   20.1754   43.7739 C   0  0  0  0  0  0  0  0  0  0  0  0
    2.5413   18.7932   43.7263 C   0  0  0  0  0  0  0  0  0  0  0  0
    2.0642   18.1086   44.8487 C   0  0  0  0  0  0  0  0  0  0  0  0
    1.7252   16.8141   44.7754 N   0  0  0  0  0  0  0  0  0  0  0  0
    1.9479   18.7468   46.0176 N   0  0  0  0  0  0  0  0  0  0  0  0
    1.4849   18.1245   47.1163 C   0  0  0  0  0  0  0  0  0  0  0  0
    1.2696   18.5527   48.3695 N   0  0  0  0  0  0  0  0  0  0  0  0
    1.5164   19.9081   48.8706 C   0  0  0  0  0  0  0  0  0  0  0  0
    0.8351   17.6380   49.0707 N   0  0  0  0  0  0  0  0  0  0  0  0
    0.7741   16.5373   48.3032 C   0  0  0  0  0  0  0  0  0  0  0  0
    1.1581   16.8373   47.0553 C   0  0  0  0  0  0  0  0  0  0  0  0
    1.2806   16.1741   45.8727 C   0  0  0  0  0  0  0  0  0  0  0  0
    0.9532   14.8628   45.7737 N   0  0  0  0  0  0  0  0  0  0  0  0
    2.7161   17.0152   42.5057 H   0  0  0  0  0  0  0  0  0  0  0  0
    3.5588   18.2378   40.5074 H   0  0  0  0  0  0  0  0  0  0  0  0
    3.8584   20.7061   40.5924 H   0  0  0  0  0  0  0  0  0  0  0  0
    2.4746   20.7267   44.6954 H   0  0  0  0  0  0  0  0  0  0  0  0
    0.6127   20.2833   49.3732 H   0  0  0  0  0  0  0  0  0  0  0  0
    2.3521   19.8882   49.5856 H   0  0  0  0  0  0  0  0  0  0  0  0
    1.7694   20.5697   48.0291 H   0  0  0  0  0  0  0  0  0  0  0  0
    0.4572   15.5416   48.6469 H   0  0  0  0  0  0  0  0  0  0  0  0
    0.6108   14.3535   46.6009 H   0  0  0  0  0  0  0  0  0  0  0  0
    1.0468   14.3754   44.8711 H   0  0  0  0  0  0  0  0  0  0  0  0
  1  2  2  0
  1  6  1  0
  2  3  1  0
  3  4  2  0
  4  5  1  0
  5  6  2  0
  6  7  1  0
  7  8  2  0
  7  9  1  0
  8 16  1  0
  9 10  2  0
 10 11  1  0
 10 15  1  0
 11 12  1  0
 11 13  1  0
 13 14  2  0
 14 15  1  0
 15 16  2  0
 16 17  1  0
  1 18  1  0
  2 19  1  0
  3 20  1  0
  5 21  1  0
 12 22  1  0
 12 23  1  0
 12 24  1  0
 14 25  1  0
 17 26  1  0
 17 27  1  0
M  END
>  <mol_id>  (97) 
2026-09-18-6fnk-s0-n100-r1-0097

>  <rmsd_to_ref>  (97) 
4.862244897959851

>  <pose_kind>  (97) 
rigid

$$$$
6fnk.A
     RDKit          3D

 27 29  0  0  0  0  0  0  0  0999 V2000
    2.0734   14.3857   41.5822 C   0  0  0  0  0  0  0  0  0  0  0  0
    1.1400   13.3855   41.5662 C   0  0  0  0  0  0  0  0  0  0  0  0
    0.5640   12.9272   42.7328 C   0  0  0  0  0  0  0  0  0  0  0  0
    0.9158   13.4655   43.9315 N   0  0  0  0  0  0  0  0  0  0  0  0
    1.8423   14.4639   43.9881 C   0  0  0  0  0  0  0  0  0  0  0  0
    2.4106   14.9134   42.8186 C   0  0  0  0  0  0  0  0  0  0  0  0
    3.4003   15.9816   42.8909 C   0  0  0  0  0  0  0  0  0  0  0  0
    3.7446   16.5098   44.0751 N   0  0  0  0  0  0  0  0  0  0  0  0
    3.9858   16.4550   41.7614 N   0  0  0  0  0  0  0  0  0  0  0  0
    4.9065   17.4480   41.8243 C   0  0  0  0  0  0  0  0  0  0  0  0
    5.6305   18.0961   40.8921 N   0  0  0  0  0  0  0  0  0  0  0  0
    5.6135   17.8845   39.4610 C   0  0  0  0  0  0  0  0  0  0  0  0
    6.3965   18.9973   41.4988 N   0  0  0  0  0  0  0  0  0  0  0  0
    6.2004   18.9671   42.8260 C   0  0  0  0  0  0  0  0  0  0  0  0
    5.2503   17.9799   43.0389 C   0  0  0  0  0  0  0  0  0  0  0  0
    4.6560   17.4993   44.1852 C   0  0  0  0  0  0  0  0  0  0  0  0
    5.0133   18.0521   45.4473 N   0  0  0  0  0  0  0  0  0  0  0  0
    2.5075   14.7246   40.6546 H   0  0  0  0  0  0  0  0  0  0  0  0
    0.8713   12.9685   40.6079 H   0  0  0  0  0  0  0  0  0  0  0  0
   -0.1677   12.1333   42.6478 H   0  0  0  0  0  0  0  0  0  0  0  0
    2.1119   14.8846   44.9676 H   0  0  0  0  0  0  0  0  0  0  0  0
    6.5839   18.2025   39.0219 H   0  0  0  0  0  0  0  0  0  0  0  0
    5.4875   16.7904   39.2954 H   0  0  0  0  0  0  0  0  0  0  0  0
    4.7895   18.4993   39.0584 H   0  0  0  0  0  0  0  0  0  0  0  0
    6.7009   19.5981   43.5350 H   0  0  0  0  0  0  0  0  0  0  0  0
    4.3366   18.3572   46.1655 H   0  0  0  0  0  0  0  0  0  0  0  0
    6.0506   18.1445   45.6344 H   0  0  0  0  0  0  0  0  0  0  0  0
  1  2  2  0
  1  6  1  0
  2  3  1  0
  3  4  2  0
  4  5  1  0
  5  6  2  0
  6  7  1  0
  7  8  2  0
  7  9  1  0
  8 16  1  0
  9 10  2  0
 10 11  1  0
 10 15  1  0
 11 12  1  0
 11 13  1  0
 13 14  2  0
 14 15  1  0
 15 16  2  0
 16 17  1  0
  1 18  1  0
  2 19  1  0
  3 20  1  0
  5 21  1  0
 12 22  1  0
 12 23  1  0
 12 24  1  0
 14 25  1  0
 17 26  1  0
 17 27  1  0
M  END
>  <mol_id>  (98) 
2026-09-18-6fnk-s0-n100-r1-0098

>  <rmsd_to_ref>  (98) 
4.908163265308234

>  <pose_kind>  (98) 
conformer

$$$$
6fnk.A
     RDKit          3D

 27 29  0  0  0  0  0  0  0  0999 V2000
    3.8011   19.7997   44.3550 C   0  0  0  0  0  0  0  0  0  0  0  0
    4.8863   20.6429   44.5946 C   0  0  0  0  0  0  0  0  0  0  0  0
    4.6704   21.9480   45.0124 C   0  0  0  0  0  0  0  0  0  0  0  0
    3.3661   22.4152   45.1965 N   0  0  0  0  0  0  0  0  0  0  0  0
    2.2766   21.5652   44.9532 C   0  0  0  0  0  0  0  0  0  0  0  0
    2.4921   20.2545   44.5316 C   0  0  0  0  0  0  0  0  0  0  0  0
    1.4041   19.4102   44.2876 C   0  0  0  0  0  0  0  0  0  0  0  0
    1.5758   18.2099   43.7168 N   0  0  0  0  0  0  0  0  0  0  0  0
    0.1717   19.7969   44.6322 N   0  0  0  0  0  0  0  0  0  0  0  0
   -0.9000   19.0165   44.4057 C   0  0  0  0  0  0  0  0  0  0  0  0
   -2.2084   19.1933   44.6444 N   0  0  0  0  0  0  0  0  0  0  0  0
   -2.8188   20.3735   45.2638 C   0  0  0  0  0  0  0  0  0  0  0  0
   -2.8521   18.2096   44.2769 N   0  0  0  0  0  0  0  0  0  0  0  0
   -1.9754   17.3107   43.8000 C   0  0  0  0  0  0  0  0  0  0  0  0
   -0.7370   17.8193   43.8513 C   0  0  0  0  0  0  0  0  0  0  0  0
    0.5142   17.4105   43.5040 C   0  0  0  0  0  0  0  0  0  0  0  0
    0.7165   16.1979   42.9336 N   0  0  0  0  0  0  0  0  0  0  0  0
    3.9781   18.7658   44.0236 H   0  0  0  0  0  0  0  0  0  0  0  0
    5.9125   20.2733   44.4523 H   0  0  0  0  0  0  0  0  0  0  0  0
    5.5252   22.6147   45.1988 H   0  0  0  0  0  0  0  0  0  0  0  0
    1.2501   21.9341   45.0955 H   0  0  0  0  0  0  0  0  0  0  0  0
   -3.6384   20.7390   44.6275 H   0  0  0  0  0  0  0  0  0  0  0  0
   -3.2154   20.1041   46.2538 H   0  0  0  0  0  0  0  0  0  0  0  0
   -2.0608   21.1628   45.3748 H   0  0  0  0  0  0  0  0  0  0  0  0
   -2.2346   16.3097   43.4246 H   0  0  0  0  0  0  0  0  0  0  0  0
   -0.0818   15.5701   42.7617 H   0  0  0  0  0  0  0  0  0  0  0  0
    1.6684   15.9041   42.6721 H   0  0  0  0  0  0  0  0  0  0  0  0
  1  2  2  0
  1  6  1  0
  2  3  1  0
  3  4  2  0
  4  5  1  0
  5  6  2  0
  6  7  1  0
  7  8  2  0
  7  9  1  0
  8 16  1  0
  9 10  2  0
 10 11  1  0
 10 15  1  0
 11 12  1  0
 11 13  1  0
 13 14  2  0
 14 15  1  0
 15 16  2  0
 16 17  1  0
  1 18  1  0
  2 19  1  0
  3 20  1  0
  5 21  1  0
 12 22  1  0
 12 23  1  0
 12 24  1  0
 14 25  1  0
 17 26  1  0
 17 27  1  0
M  END
>  <mol_id>  (99) 
2026-09-18-6fnk-s0-n100-r1-0099

>  <rmsd_to_ref>  (99) 
4.954081632655283

>  <pose_kind>  (99) 
rigid

$$$$
6fnk.A
     RDKit          3D

 27 29  0  0  0  0  0  0  0  0999 V2000
   -0.5857   14.7888   38.6380 C   0  0  0  0  0  0  0  0  0  0  0  0
   -1.5885   14.0824   37.9798 C   0  0  0  0  0  0  0  0  0  0  0  0
   -2.7969   13.8616   38.6249 C   0  0  0  0  0  0  0  0  0  0  0  0
   -3.0058   14.3275   39.8866 N   0  0  0  0  0  0  0  0  0  0  0  0
   -2.0443   15.0214   40.5555 C   0  0  0  0  0  0  0  0  0  0  0  0
   -0.8384   15.2438   39.9164 C   0  0  0  0  0  0  0  0  0  0  0  0
    0.1997   15.9858   40.6223 C   0  0  0  0  0  0  0  0  0  0  0  0
    0.0167   16.4525   41.8613 N   0  0  0  0  0  0  0  0  0  0  0  0
    1.3910   16.2287   40.0436 N   0  0  0  0  0  0  0  0  0  0  0  0
    2.3791   16.9101   40.6589 C   0  0  0  0  0  0  0  0  0  0  0  0
    3.6322   17.2649   40.2769 N   0  0  0  0  0  0  0  0  0  0  0  0
    4.1634   16.9095   38.9609 C   0  0  0  0  0  0  0  0  0  0  0  0
    4.1996   17.9299   41.2549 N   0  0  0  0  0  0  0  0  0  0  0  0
    3.3502   18.0368   42.3064 C   0  0  0  0  0  0  0  0  0  0  0  0
    2.1885   17.3930   41.9421 C   0  0  0  0  0  0  0  0  0  0  0  0
    0.9621   17.1458   42.5443 C   0  0  0  0  0  0  0  0  0  0  0  0
    0.7454   17.6336   43.8634 N   0  0  0  0  0  0  0  0  0  0  0  0
    0.3798   14.9850   38.1676 H   0  0  0  0  0  0  0  0  0  0  0  0
   -1.3800   13.7311   36.9799 H   0  0  0  0  0  0  0  0  0  0  0  0
   -3.5723   13.3041   38.0903 H   0  0  0  0  0  0  0  0  0  0  0  0
   -2.2618   15.3675   41.5520 H   0  0  0  0  0  0  0  0  0  0  0  0
    5.0841   17.5039   38.7988 H   0  0  0  0  0  0  0  0  0  0  0  0
    3.3789   17.0973   38.2172 H   0  0  0  0  0  0  0  0  0  0  0  0
    4.5006   15.8355   38.9525 H   0  0  0  0  0  0  0  0  0  0  0  0
    3.5310   18.5271   43.2534 H   0  0  0  0  0  0  0  0  0  0  0  0
    1.1045   18.5973   44.0617 H   0  0  0  0  0  0  0  0  0  0  0  0
    0.2695   17.1095   44.6136 H   0  0  0  0  0  0  0  0  0  0  0  0
  1  2  2  0
  1  6  1  0
  2  3  1  0
  3  4  2  0
  4  5  1  0
  5  6  2  0
  6  7  1  0
  7  8  2  0
  7  9  1  0
  8 16  1  0
  9 10  2  0
 10 11  1  0
 10 15  1  0
 11 12  1  0
 11 13  1  0
 13 14  2  0
 14 15  1  0
 15 16  2  0
 16 17  1  0
  1 18  1  0
  2 19  1  0
  3 20  1  0
  5 21  1  0
 12 22  1  0
 12 23  1  0
 12 24  1  0
 14 25  1  0
 17 26  1  0
 17 27  1  0
M  END
>  <mol_id>  (100) 
2026-09-18-6fnk-s0-n100-r1-0100

>  <rmsd_to_ref>  (100) 
5.000000000001359

>  <pose_kind>  (100) 
conformer

$$$$
