6fnk.A
     RDKit          3D

 27 29  0  0  0  0  0  0  0  0999 V2000
    2.9034   16.1161   40.7342 C   0  0  0  0  0  0  0  0  0  0  0  0
    3.3991   14.8730   40.3406 C   0  0  0  0  0  0  0  0  0  0  0  0
    3.2111   13.7637   41.1521 C   0  0  0  0  0  0  0  0  0  0  0  0
    2.5220   13.8922   42.3612 N   0  0  0  0  0  0  0  0  0  0  0  0
    2.0259   15.1442   42.7552 C   0  0  0  0  0  0  0  0  0  0  0  0
    2.2158   16.2597   41.9417 C   0  0  0  0  0  0  0  0  0  0  0  0
    1.7222   17.5068   42.3382 C   0  0  0  0  0  0  0  0  0  0  0  0
    2.0408   18.6212   41.6654 N   0  0  0  0  0  0  0  0  0  0  0  0
    0.9145   17.5957   43.3997 N   0  0  0  0  0  0  0  0  0  0  0  0
    0.4272   18.7780   43.8163 C   0  0  0  0  0  0  0  0  0  0  0  0
   -0.3708   19.1111   44.8422 N   0  0  0  0  0  0  0  0  0  0  0  0
   -0.9468   18.1844   45.8212 C   0  0  0  0  0  0  0  0  0  0  0  0
   -0.5738   20.3259   44.8557 N   0  0  0  0  0  0  0  0  0  0  0  0
    0.0681   20.8526   43.7999 C   0  0  0  0  0  0  0  0  0  0  0  0
    0.7283   19.8866   43.1473 C   0  0  0  0  0  0  0  0  0  0  0  0
    1.5428   19.8079   42.0593 C   0  0  0  0  0  0  0  0  0  0  0  0
    1.8732   20.9182   41.3561 N   0  0  0  0  0  0  0  0  0  0  0  0
    3.0555   16.9924   40.0870 H   0  0  0  0  0  0  0  0  0  0  0  0
    3.9387   14.7724   39.3873 H   0  0  0  0  0  0  0  0  0  0  0  0
    3.6041   12.7836   40.8441 H   0  0  0  0  0  0  0  0  0  0  0  0
    1.4860   15.2454   43.7082 H   0  0  0  0  0  0  0  0  0  0  0  0
   -0.7252   18.5408   46.8380 H   0  0  0  0  0  0  0  0  0  0  0  0
   -2.0365   18.1326   45.6801 H   0  0  0  0  0  0  0  0  0  0  0  0
   -0.5109   17.1844   45.6801 H   0  0  0  0  0  0  0  0  0  0  0  0
    0.0539   21.9149   43.5146 H   0  0  0  0  0  0  0  0  0  0  0  0
    1.5034   21.8366   41.6400 H   0  0  0  0  0  0  0  0  0  0  0  0
    2.4942   20.8437   40.5377 H   0  0  0  0  0  0  0  0  0  0  0  0
  1  2  2  0
  1  6  1  0
  2  3  1  0
  3  4  2  0
  4  5  1  0
  5  6  2  0
  6  7  1  0
  7  8  2  0
  7  9  1  0
  8 16  1  0
  9 10  2  0
 10 11  1  0
 10 15  1  0
 11 12  1  0
 11 13  1  0
 13 14  2  0
 14 15  1  0
 15 16  2  0
 16 17  1  0
  1 18  1  0
  2 19  1  0
  3 20  1  0
  5 21  1  0
 12 22  1  0
 12 23  1  0
 12 24  1  0
 14 25  1  0
 17 26  1  0
 17 27  1  0
M  END
>  <mol_id>  (1) 
2026-09-18-6fnk-s0-n100-r7-0001

>  <rmsd_to_ref>  (1) 
0.0

>  <pose_kind>  (1) 
native

$$$$
6fnk.A
     RDKit          3D

 27 29  0  0  0  0  0  0  0  0999 V2000
    2.7310   15.7592   40.7889 C   0  0  0  0  0  0  0  0  0  0  0  0
    2.9927   14.4529   40.3655 C   0  0  0  0  0  0  0  0  0  0  0  0
    2.4169   13.3779   41.0217 C   0  0  0  0  0  0  0  0  0  0  0  0
    1.6095   13.6276   42.0645 N   0  0  0  0  0  0  0  0  0  0  0  0
    1.3215   14.8532   42.5157 C   0  0  0  0  0  0  0  0  0  0  0  0
    1.8975   15.9416   41.8601 C   0  0  0  0  0  0  0  0  0  0  0  0
    1.5979   17.2998   42.3353 C   0  0  0  0  0  0  0  0  0  0  0  0
    2.1290   18.3791   41.7361 N   0  0  0  0  0  0  0  0  0  0  0  0
    0.7796   17.4801   43.3871 N   0  0  0  0  0  0  0  0  0  0  0  0
    0.4587   18.6877   43.8788 C   0  0  0  0  0  0  0  0  0  0  0  0
   -0.3235   19.0827   44.8998 N   0  0  0  0  0  0  0  0  0  0  0  0
   -1.0601   18.1778   45.7722 C   0  0  0  0  0  0  0  0  0  0  0  0
   -0.2810   20.4101   44.9383 N   0  0  0  0  0  0  0  0  0  0  0  0
    0.5200   20.8822   43.9540 C   0  0  0  0  0  0  0  0  0  0  0  0
    1.0113   19.7889   43.2538 C   0  0  0  0  0  0  0  0  0  0  0  0
    1.8588   19.6422   42.1672 C   0  0  0  0  0  0  0  0  0  0  0  0
    2.4203   20.7862   41.5338 N   0  0  0  0  0  0  0  0  0  0  0  0
    3.2003   16.5763   40.2499 H   0  0  0  0  0  0  0  0  0  0  0  0
    3.6435   14.2697   39.5261 H   0  0  0  0  0  0  0  0  0  0  0  0
    2.6413   12.3743   40.6668 H   0  0  0  0  0  0  0  0  0  0  0  0
    0.6591   14.9959   43.3669 H   0  0  0  0  0  0  0  0  0  0  0  0
   -2.0943   17.9654   45.3762 H   0  0  0  0  0  0  0  0  0  0  0  0
   -1.2204   18.7001   46.7231 H   0  0  0  0  0  0  0  0  0  0  0  0
   -0.5070   17.2535   45.9307 H   0  0  0  0  0  0  0  0  0  0  0  0
    0.7667   21.9061   43.7120 H   0  0  0  0  0  0  0  0  0  0  0  0
    3.4569   20.8621   41.4070 H   0  0  0  0  0  0  0  0  0  0  0  0
    1.8203   21.5836   41.1765 H   0  0  0  0  0  0  0  0  0  0  0  0
  1  2  2  0
  1  6  1  0
  2  3  1  0
  3  4  2  0
  4  5  1  0
  5  6  2  0
  6  7  1  0
  7  8  2  0
  7  9  1  0
  8 16  1  0
  9 10  2  0
 10 11  1  0
 10 15  1  0
 11 12  1  0
 11 13  1  0
 13 14  2  0
 14 15  1  0
 15 16  2  0
 16 17  1  0
  1 18  1  0
  2 19  1  0
  3 20  1  0
  5 21  1  0
 12 22  1  0
 12 23  1  0
 12 24  1  0
 14 25  1  0
 17 26  1  0
 17 27  1  0
M  END
>  <mol_id>  (2) 
2026-09-18-6fnk-s0-n100-r7-0002

>  <rmsd_to_ref>  (2) 
0.5000000000040197

>  <pose_kind>  (2) 
conformer

$$$$
6fnk.A
     RDKit          3D

 27 29  0  0  0  0  0  0  0  0999 V2000
    3.1032   16.5381   40.5810 C   0  0  0  0  0  0  0  0  0  0  0  0
    3.5204   15.3556   39.9700 C   0  0  0  0  0  0  0  0  0  0  0  0
    3.1681   14.1309   40.5180 C   0  0  0  0  0  0  0  0  0  0  0  0
    2.3923   14.0833   41.6796 N   0  0  0  0  0  0  0  0  0  0  0  0
    1.9754   15.2745   42.2928 C   0  0  0  0  0  0  0  0  0  0  0  0
    2.3304   16.5054   41.7442 C   0  0  0  0  0  0  0  0  0  0  0  0
    1.9153   17.6911   42.3591 C   0  0  0  0  0  0  0  0  0  0  0  0
    2.3859   18.8794   41.9560 N   0  0  0  0  0  0  0  0  0  0  0  0
    1.0309   17.6469   43.3606 N   0  0  0  0  0  0  0  0  0  0  0  0
    0.6147   18.7647   43.9819 C   0  0  0  0  0  0  0  0  0  0  0  0
   -0.2357   18.9646   45.0003 N   0  0  0  0  0  0  0  0  0  0  0  0
   -0.9715   17.9239   45.7245 C   0  0  0  0  0  0  0  0  0  0  0  0
   -0.3325   20.1660   45.2537 N   0  0  0  0  0  0  0  0  0  0  0  0
    0.4404   20.8258   44.3754 C   0  0  0  0  0  0  0  0  0  0  0  0
    1.0671   19.9484   43.5802 C   0  0  0  0  0  0  0  0  0  0  0  0
    1.9614   20.0072   42.5554 C   0  0  0  0  0  0  0  0  0  0  0  0
    2.4459   21.1964   42.1225 N   0  0  0  0  0  0  0  0  0  0  0  0
    3.3857   17.5065   40.1423 H   0  0  0  0  0  0  0  0  0  0  0  0
    4.1285   15.3942   39.0541 H   0  0  0  0  0  0  0  0  0  0  0  0
    3.4991   13.1977   40.0387 H   0  0  0  0  0  0  0  0  0  0  0  0
    1.3671   15.2366   43.2086 H   0  0  0  0  0  0  0  0  0  0  0  0
   -0.8072   18.0435   46.8056 H   0  0  0  0  0  0  0  0  0  0  0  0
   -2.0456   18.0138   45.5048 H   0  0  0  0  0  0  0  0  0  0  0  0
   -0.6139   16.9334   45.4067 H   0  0  0  0  0  0  0  0  0  0  0  0
    0.5431   21.9195   44.3178 H   0  0  0  0  0  0  0  0  0  0  0  0
    2.1347   22.0719   42.5670 H   0  0  0  0  0  0  0  0  0  0  0  0
    3.1255   21.2249   41.3491 H   0  0  0  0  0  0  0  0  0  0  0  0
  1  2  2  0
  1  6  1  0
  2  3  1  0
  3  4  2  0
  4  5  1  0
  5  6  2  0
  6  7  1  0
  7  8  2  0
  7  9  1  0
  8 16  1  0
  9 10  2  0
 10 11  1  0
 10 15  1  0
 11 12  1  0
 11 13  1  0
 13 14  2  0
 14 15  1  0
 15 16  2  0
 16 17  1  0
  1 18  1  0
  2 19  1  0
  3 20  1  0
  5 21  1  0
 12 22  1  0
 12 23  1  0
 12 24  1  0
 14 25  1  0
 17 26  1  0
 17 27  1  0
M  END
>  <mol_id>  (3) 
2026-09-18-6fnk-s0-n100-r7-0003

>  <rmsd_to_ref>  (3) 
0.5459183673523976

>  <pose_kind>  (3) 
rigid

$$$$
6fnk.A
     RDKit          3D

 27 29  0  0  0  0  0  0  0  0999 V2000
    3.1526   16.0031   40.9210 C   0  0  0  0  0  0  0  0  0  0  0  0
    3.8152   14.8008   40.7543 C   0  0  0  0  0  0  0  0  0  0  0  0
    3.6510   13.7816   41.6676 C   0  0  0  0  0  0  0  0  0  0  0  0
    2.8413   13.9147   42.7557 N   0  0  0  0  0  0  0  0  0  0  0  0
    2.1768   15.0862   42.9454 C   0  0  0  0  0  0  0  0  0  0  0  0
    2.3323   16.1307   42.0280 C   0  0  0  0  0  0  0  0  0  0  0  0
    1.6207   17.4087   42.2158 C   0  0  0  0  0  0  0  0  0  0  0  0
    1.7572   18.4249   41.3447 N   0  0  0  0  0  0  0  0  0  0  0  0
    0.8117   17.5674   43.2859 N   0  0  0  0  0  0  0  0  0  0  0  0
    0.1377   18.7168   43.5041 C   0  0  0  0  0  0  0  0  0  0  0  0
   -0.7152   19.1662   44.4456 N   0  0  0  0  0  0  0  0  0  0  0  0
   -1.1667   18.4195   45.5958 C   0  0  0  0  0  0  0  0  0  0  0  0
   -1.0822   20.4042   44.1592 N   0  0  0  0  0  0  0  0  0  0  0  0
   -0.4758   20.7883   43.0240 C   0  0  0  0  0  0  0  0  0  0  0  0
    0.2924   19.7519   42.5942 C   0  0  0  0  0  0  0  0  0  0  0  0
    1.1247   19.6062   41.4815 C   0  0  0  0  0  0  0  0  0  0  0  0
    1.2959   20.6400   40.5484 N   0  0  0  0  0  0  0  0  0  0  0  0
    3.2791   16.8171   40.1982 H   0  0  0  0  0  0  0  0  0  0  0  0
    4.4527   14.7252   39.8783 H   0  0  0  0  0  0  0  0  0  0  0  0
    4.1770   12.8406   41.5263 H   0  0  0  0  0  0  0  0  0  0  0  0
    1.5264   15.2032   43.8128 H   0  0  0  0  0  0  0  0  0  0  0  0
   -2.2251   18.7185   45.7794 H   0  0  0  0  0  0  0  0  0  0  0  0
   -0.6221   18.7518   46.5257 H   0  0  0  0  0  0  0  0  0  0  0  0
   -1.1466   17.3397   45.4630 H   0  0  0  0  0  0  0  0  0  0  0  0
   -0.6059   21.7557   42.5725 H   0  0  0  0  0  0  0  0  0  0  0  0
    1.7893   21.5273   40.8135 H   0  0  0  0  0  0  0  0  0  0  0  0
    0.9063   20.4802   39.5751 H   0  0  0  0  0  0  0  0  0  0  0  0
  1  2  2  0
  1  6  1  0
  2  3  1  0
  3  4  2  0
  4  5  1  0
  5  6  2  0
  6  7  1  0
  7  8  2  0
  7  9  1  0
  8 16  1  0
  9 10  2  0
 10 11  1  0
 10 15  1  0
 11 12  1  0
 11 13  1  0
 13 14  2  0
 14 15  1  0
 15 16  2  0
 16 17  1  0
  1 18  1  0
  2 19  1  0
  3 20  1  0
  5 21  1  0
 12 22  1  0
 12 23  1  0
 12 24  1  0
 14 25  1  0
 17 26  1  0
 17 27  1  0
M  END
>  <mol_id>  (4) 
2026-09-18-6fnk-s0-n100-r7-0004

>  <rmsd_to_ref>  (4) 
0.5918367346955118

>  <pose_kind>  (4) 
conformer

$$$$
6fnk.A
     RDKit          3D

 27 29  0  0  0  0  0  0  0  0999 V2000
    2.9720   15.8974   41.2956 C   0  0  0  0  0  0  0  0  0  0  0  0
    3.4868   14.6079   41.1606 C   0  0  0  0  0  0  0  0  0  0  0  0
    3.1152   13.6163   42.0568 C   0  0  0  0  0  0  0  0  0  0  0  0
    2.2226   13.9096   43.0915 N   0  0  0  0  0  0  0  0  0  0  0  0
    1.7077   15.2079   43.2256 C   0  0  0  0  0  0  0  0  0  0  0  0
    2.0817   16.2053   42.3271 C   0  0  0  0  0  0  0  0  0  0  0  0
    1.5686   17.4991   42.4647 C   0  0  0  0  0  0  0  0  0  0  0  0
    2.0435   18.5124   41.7272 N   0  0  0  0  0  0  0  0  0  0  0  0
    0.5849   17.7352   43.3386 N   0  0  0  0  0  0  0  0  0  0  0  0
    0.0721   18.9673   43.5052 C   0  0  0  0  0  0  0  0  0  0  0  0
   -0.8870   19.4407   44.3153 N   0  0  0  0  0  0  0  0  0  0  0  0
   -1.6639   18.6565   45.2799 C   0  0  0  0  0  0  0  0  0  0  0  0
   -1.0460   20.6491   44.1375 N   0  0  0  0  0  0  0  0  0  0  0  0
   -0.2045   21.0260   43.1608 C   0  0  0  0  0  0  0  0  0  0  0  0
    0.5289   19.9755   42.7689 C   0  0  0  0  0  0  0  0  0  0  0  0
    1.5244   19.7460   41.8691 C   0  0  0  0  0  0  0  0  0  0  0  0
    2.0163   20.7511   41.1047 N   0  0  0  0  0  0  0  0  0  0  0  0
    3.2703   16.6798   40.5823 H   0  0  0  0  0  0  0  0  0  0  0  0
    4.1869   14.3775   40.3441 H   0  0  0  0  0  0  0  0  0  0  0  0
    3.5228   12.5999   41.9532 H   0  0  0  0  0  0  0  0  0  0  0  0
    1.0073   15.4390   44.0417 H   0  0  0  0  0  0  0  0  0  0  0  0
   -1.6185   19.1402   46.2668 H   0  0  0  0  0  0  0  0  0  0  0  0
   -2.7108   18.5993   44.9474 H   0  0  0  0  0  0  0  0  0  0  0  0
   -1.2452   17.6417   45.3493 H   0  0  0  0  0  0  0  0  0  0  0  0
   -0.1290   22.0420   42.7460 H   0  0  0  0  0  0  0  0  0  0  0  0
    1.6337   21.7029   41.1970 H   0  0  0  0  0  0  0  0  0  0  0  0
    2.7728   20.5631   40.4314 H   0  0  0  0  0  0  0  0  0  0  0  0
  1  2  2  0
  1  6  1  0
  2  3  1  0
  3  4  2  0
  4  5  1  0
  5  6  2  0
  6  7  1  0
  7  8  2  0
  7  9  1  0
  8 16  1  0
  9 10  2  0
 10 11  1  0
 10 15  1  0
 11 12  1  0
 11 13  1  0
 13 14  2  0
 14 15  1  0
 15 16  2  0
 16 17  1  0
  1 18  1  0
  2 19  1  0
  3 20  1  0
  5 21  1  0
 12 22  1  0
 12 23  1  0
 12 24  1  0
 14 25  1  0
 17 26  1  0
 17 27  1  0
M  END
>  <mol_id>  (5) 
2026-09-18-6fnk-s0-n100-r7-0005

>  <rmsd_to_ref>  (5) 
0.6377551020424479

>  <pose_kind>  (5) 
rigid

$$$$
6fnk.A
     RDKit          3D

 27 29  0  0  0  0  0  0  0  0999 V2000
    3.1018   15.5246   41.1859 C   0  0  0  0  0  0  0  0  0  0  0  0
    3.6049   14.2416   41.0773 C   0  0  0  0  0  0  0  0  0  0  0  0
    3.2508   13.2910   42.0186 C   0  0  0  0  0  0  0  0  0  0  0  0
    2.4260   13.5690   43.0486 N   0  0  0  0  0  0  0  0  0  0  0  0
    1.9217   14.8316   43.1685 C   0  0  0  0  0  0  0  0  0  0  0  0
    2.2533   15.8075   42.2470 C   0  0  0  0  0  0  0  0  0  0  0  0
    1.7222   17.1618   42.3618 C   0  0  0  0  0  0  0  0  0  0  0  0
    2.0446   18.1249   41.4591 N   0  0  0  0  0  0  0  0  0  0  0  0
    0.8949   17.4940   43.3700 N   0  0  0  0  0  0  0  0  0  0  0  0
    0.3926   18.7415   43.4942 C   0  0  0  0  0  0  0  0  0  0  0  0
   -0.4318   19.3288   44.3793 N   0  0  0  0  0  0  0  0  0  0  0  0
   -1.0543   18.7077   45.5444 C   0  0  0  0  0  0  0  0  0  0  0  0
   -0.6333   20.5977   44.0706 N   0  0  0  0  0  0  0  0  0  0  0  0
    0.0568   20.8880   42.9648 C   0  0  0  0  0  0  0  0  0  0  0  0
    0.7107   19.7337   42.5840 C   0  0  0  0  0  0  0  0  0  0  0  0
    1.5560   19.3855   41.5579 C   0  0  0  0  0  0  0  0  0  0  0  0
    1.9271   20.3691   40.5771 N   0  0  0  0  0  0  0  0  0  0  0  0
    3.3690   16.2985   40.4492 H   0  0  0  0  0  0  0  0  0  0  0  0
    4.2707   14.0201   40.2444 H   0  0  0  0  0  0  0  0  0  0  0  0
    3.6355   12.2848   41.9473 H   0  0  0  0  0  0  0  0  0  0  0  0
    1.2617   15.0310   44.0034 H   0  0  0  0  0  0  0  0  0  0  0  0
   -0.7103   19.3311   46.4201 H   0  0  0  0  0  0  0  0  0  0  0  0
   -0.7463   17.6633   45.6806 H   0  0  0  0  0  0  0  0  0  0  0  0
   -2.1592   18.8358   45.5205 H   0  0  0  0  0  0  0  0  0  0  0  0
    0.1470   21.8128   42.4065 H   0  0  0  0  0  0  0  0  0  0  0  0
    1.2349   21.0910   40.2724 H   0  0  0  0  0  0  0  0  0  0  0  0
    2.8990   20.3625   40.1644 H   0  0  0  0  0  0  0  0  0  0  0  0
  1  2  2  0
  1  6  1  0
  2  3  1  0
  3  4  2  0
  4  5  1  0
  5  6  2  0
  6  7  1  0
  7  8  2  0
  7  9  1  0
  8 16  1  0
  9 10  2  0
 10 11  1  0
 10 15  1  0
 11 12  1  0
 11 13  1  0
 13 14  2  0
 14 15  1  0
 15 16  2  0
 16 17  1  0
  1 18  1  0
  2 19  1  0
  3 20  1  0
  5 21  1  0
 12 22  1  0
 12 23  1  0
 12 24  1  0
 14 25  1  0
 17 26  1  0
 17 27  1  0
M  END
>  <mol_id>  (6) 
2026-09-18-6fnk-s0-n100-r7-0006

>  <rmsd_to_ref>  (6) 
0.6836734693882257

>  <pose_kind>  (6) 
conformer

$$$$
6fnk.A
     RDKit          3D

 27 29  0  0  0  0  0  0  0  0999 V2000
    3.2274   16.1309   41.3822 C   0  0  0  0  0  0  0  0  0  0  0  0
    3.9565   14.9489   41.2505 C   0  0  0  0  0  0  0  0  0  0  0  0
    3.8318   13.9482   42.2031 C   0  0  0  0  0  0  0  0  0  0  0  0
    2.9728   14.1239   43.2915 N   0  0  0  0  0  0  0  0  0  0  0  0
    2.2418   15.3145   43.4221 C   0  0  0  0  0  0  0  0  0  0  0  0
    2.3678   16.3213   42.4668 C   0  0  0  0  0  0  0  0  0  0  0  0
    1.6397   17.5079   42.6008 C   0  0  0  0  0  0  0  0  0  0  0  0
    1.8726   18.5554   41.7980 N   0  0  0  0  0  0  0  0  0  0  0  0
    0.6909   17.6039   43.5376 N   0  0  0  0  0  0  0  0  0  0  0  0
   -0.0239   18.7312   43.7025 C   0  0  0  0  0  0  0  0  0  0  0  0
   -0.9958   19.0621   44.5663 N   0  0  0  0  0  0  0  0  0  0  0  0
   -1.5511   18.1961   45.6106 C   0  0  0  0  0  0  0  0  0  0  0  0
   -1.3823   20.2137   44.3623 N   0  0  0  0  0  0  0  0  0  0  0  0
   -0.6908   20.6902   43.3141 C   0  0  0  0  0  0  0  0  0  0  0  0
    0.1923   19.7706   42.9024 C   0  0  0  0  0  0  0  0  0  0  0  0
    1.1498   19.6820   41.9387 C   0  0  0  0  0  0  0  0  0  0  0  0
    1.3991   20.7233   41.1081 N   0  0  0  0  0  0  0  0  0  0  0  0
    3.3304   16.9212   40.6240 H   0  0  0  0  0  0  0  0  0  0  0  0
    4.6300   14.8105   40.3919 H   0  0  0  0  0  0  0  0  0  0  0  0
    4.4085   13.0170   42.1019 H   0  0  0  0  0  0  0  0  0  0  0  0
    1.5679   15.4535   44.2803 H   0  0  0  0  0  0  0  0  0  0  0  0
   -1.5275   18.7239   46.5755 H   0  0  0  0  0  0  0  0  0  0  0  0
   -2.5905   17.9385   45.3590 H   0  0  0  0  0  0  0  0  0  0  0  0
   -0.9521   17.2762   45.6810 H   0  0  0  0  0  0  0  0  0  0  0  0
   -0.8284   21.6838   42.8626 H   0  0  0  0  0  0  0  0  0  0  0  0
    0.8578   21.5949   41.1982 H   0  0  0  0  0  0  0  0  0  0  0  0
    2.1298   20.6431   40.3866 H   0  0  0  0  0  0  0  0  0  0  0  0
  1  2  2  0
  1  6  1  0
  2  3  1  0
  3  4  2  0
  4  5  1  0
  5  6  2  0
  6  7  1  0
  7  8  2  0
  7  9  1  0
  8 16  1  0
  9 10  2  0
 10 11  1  0
 10 15  1  0
 11 12  1  0
 11 13  1  0
 13 14  2  0
 14 15  1  0
 15 16  2  0
 16 17  1  0
  1 18  1  0
  2 19  1  0
  3 20  1  0
  5 21  1  0
 12 22  1  0
 12 23  1  0
 12 24  1  0
 14 25  1  0
 17 26  1  0
 17 27  1  0
M  END
>  <mol_id>  (7) 
2026-09-18-6fnk-s0-n100-r7-0007

>  <rmsd_to_ref>  (7) 
0.7295918367346992

>  <pose_kind>  (7) 
rigid

$$$$
6fnk.A
     RDKit          3D

 27 29  0  0  0  0  0  0  0  0999 V2000
    3.1657   15.5040   41.3887 C   0  0  0  0  0  0  0  0  0  0  0  0
    3.7709   14.2718   41.2510 C   0  0  0  0  0  0  0  0  0  0  0  0
    3.4724   13.3261   42.2181 C   0  0  0  0  0  0  0  0  0  0  0  0
    2.6427   13.5856   43.2347 N   0  0  0  0  0  0  0  0  0  0  0  0
    2.0632   14.8068   43.3426 C   0  0  0  0  0  0  0  0  0  0  0  0
    2.3002   15.7955   42.4371 C   0  0  0  0  0  0  0  0  0  0  0  0
    1.7098   17.1294   42.4952 C   0  0  0  0  0  0  0  0  0  0  0  0
    1.9871   18.0618   41.5655 N   0  0  0  0  0  0  0  0  0  0  0  0
    0.8674   17.4568   43.4903 N   0  0  0  0  0  0  0  0  0  0  0  0
    0.3068   18.6928   43.5631 C   0  0  0  0  0  0  0  0  0  0  0  0
   -0.5484   19.2904   44.4199 N   0  0  0  0  0  0  0  0  0  0  0  0
   -1.1396   18.6858   45.6014 C   0  0  0  0  0  0  0  0  0  0  0  0
   -0.7826   20.5457   44.0227 N   0  0  0  0  0  0  0  0  0  0  0  0
   -0.0835   20.7931   42.8963 C   0  0  0  0  0  0  0  0  0  0  0  0
    0.5905   19.6435   42.6139 C   0  0  0  0  0  0  0  0  0  0  0  0
    1.4560   19.2975   41.5970 C   0  0  0  0  0  0  0  0  0  0  0  0
    1.8275   20.1938   40.5559 N   0  0  0  0  0  0  0  0  0  0  0  0
    3.3776   16.2709   40.6469 H   0  0  0  0  0  0  0  0  0  0  0  0
    4.4485   14.0637   40.4185 H   0  0  0  0  0  0  0  0  0  0  0  0
    3.9600   12.3604   42.0914 H   0  0  0  0  0  0  0  0  0  0  0  0
    1.3951   15.0011   44.1695 H   0  0  0  0  0  0  0  0  0  0  0  0
   -2.2238   18.5416   45.5218 H   0  0  0  0  0  0  0  0  0  0  0  0
   -0.7016   17.6905   45.7687 H   0  0  0  0  0  0  0  0  0  0  0  0
   -0.8896   19.3312   46.4928 H   0  0  0  0  0  0  0  0  0  0  0  0
   -0.0303   21.6937   42.3002 H   0  0  0  0  0  0  0  0  0  0  0  0
    2.7122   20.7475   40.5588 H   0  0  0  0  0  0  0  0  0  0  0  0
    1.1881   20.3268   39.7165 H   0  0  0  0  0  0  0  0  0  0  0  0
  1  2  2  0
  1  6  1  0
  2  3  1  0
  3  4  2  0
  4  5  1  0
  5  6  2  0
  6  7  1  0
  7  8  2  0
  7  9  1  0
  8 16  1  0
  9 10  2  0
 10 11  1  0
 10 15  1  0
 11 12  1  0
 11 13  1  0
 13 14  2  0
 14 15  1  0
 15 16  2  0
 16 17  1  0
  1 18  1  0
  2 19  1  0
  3 20  1  0
  5 21  1  0
 12 22  1  0
 12 23  1  0
 12 24  1  0
 14 25  1  0
 17 26  1  0
 17 27  1  0
M  END
>  <mol_id>  (8) 
2026-09-18-6fnk-s0-n100-r7-0008

>  <rmsd_to_ref>  (8) 
0.7755102040867486

>  <pose_kind>  (8) 
conformer

$$$$
6fnk.A
     RDKit          3D

 27 29  0  0  0  0  0  0  0  0999 V2000
    3.5179   16.6274   41.1705 C   0  0  0  0  0  0  0  0  0  0  0  0
    4.2571   15.5479   40.6865 C   0  0  0  0  0  0  0  0  0  0  0  0
    4.0661   14.2822   41.2211 C   0  0  0  0  0  0  0  0  0  0  0  0
    3.1306   14.0894   42.2414 N   0  0  0  0  0  0  0  0  0  0  0  0
    2.3897   15.1774   42.7273 C   0  0  0  0  0  0  0  0  0  0  0  0
    2.5820   16.4498   42.1923 C   0  0  0  0  0  0  0  0  0  0  0  0
    1.8437   17.5328   42.6803 C   0  0  0  0  0  0  0  0  0  0  0  0
    2.1317   18.7880   42.3094 N   0  0  0  0  0  0  0  0  0  0  0  0
    0.8296   17.3199   43.5249 N   0  0  0  0  0  0  0  0  0  0  0  0
    0.1025   18.3363   44.0220 C   0  0  0  0  0  0  0  0  0  0  0  0
   -0.9298   18.3695   44.8785 N   0  0  0  0  0  0  0  0  0  0  0  0
   -1.5571   17.2082   45.5163 C   0  0  0  0  0  0  0  0  0  0  0  0
   -1.3030   19.5290   45.0615 N   0  0  0  0  0  0  0  0  0  0  0  0
   -0.5387   20.3233   44.2939 C   0  0  0  0  0  0  0  0  0  0  0  0
    0.3736   19.5834   43.6497 C   0  0  0  0  0  0  0  0  0  0  0  0
    1.3983   19.8122   42.7831 C   0  0  0  0  0  0  0  0  0  0  0  0
    1.7046   21.0709   42.3851 N   0  0  0  0  0  0  0  0  0  0  0  0
    3.6736   17.6290   40.7431 H   0  0  0  0  0  0  0  0  0  0  0  0
    4.9910   15.7003   39.8814 H   0  0  0  0  0  0  0  0  0  0  0  0
    4.6506   13.4308   40.8422 H   0  0  0  0  0  0  0  0  0  0  0  0
    1.6554   15.0257   43.5322 H   0  0  0  0  0  0  0  0  0  0  0  0
   -1.6041   17.3680   46.6036 H   0  0  0  0  0  0  0  0  0  0  0  0
   -2.5751   17.0779   45.1205 H   0  0  0  0  0  0  0  0  0  0  0  0
   -0.9628   16.3074   45.3034 H   0  0  0  0  0  0  0  0  0  0  0  0
   -0.6456   21.4147   44.2076 H   0  0  0  0  0  0  0  0  0  0  0  0
    1.1564   21.8695   42.7353 H   0  0  0  0  0  0  0  0  0  0  0  0
    2.4856   21.2290   41.7325 H   0  0  0  0  0  0  0  0  0  0  0  0
  1  2  2  0
  1  6  1  0
  2  3  1  0
  3  4  2  0
  4  5  1  0
  5  6  2  0
  6  7  1  0
  7  8  2  0
  7  9  1  0
  8 16  1  0
  9 10  2  0
 10 11  1  0
 10 15  1  0
 11 12  1  0
 11 13  1  0
 13 14  2  0
 14 15  1  0
 15 16  2  0
 16 17  1  0
  1 18  1  0
  2 19  1  0
  3 20  1  0
  5 21  1  0
 12 22  1  0
 12 23  1  0
 12 24  1  0
 14 25  1  0
 17 26  1  0
 17 27  1  0
M  END
>  <mol_id>  (9) 
2026-09-18-6fnk-s0-n100-r7-0009

>  <rmsd_to_ref>  (9) 
0.8214285714331289

>  <pose_kind>  (9) 
rigid

$$$$
6fnk.A
     RDKit          3D

 27 29  0  0  0  0  0  0  0  0999 V2000
    3.1532   16.1542   41.3016 C   0  0  0  0  0  0  0  0  0  0  0  0
    3.8672   14.9731   41.1822 C   0  0  0  0  0  0  0  0  0  0  0  0
    3.7418   14.0583   42.2211 C   0  0  0  0  0  0  0  0  0  0  0  0
    2.9566   14.3324   43.2821 N   0  0  0  0  0  0  0  0  0  0  0  0
    2.2728   15.4872   43.3750 C   0  0  0  0  0  0  0  0  0  0  0  0
    2.3493   16.4351   42.3876 C   0  0  0  0  0  0  0  0  0  0  0  0
    1.6298   17.7041   42.4365 C   0  0  0  0  0  0  0  0  0  0  0  0
    1.7485   18.6025   41.4237 N   0  0  0  0  0  0  0  0  0  0  0  0
    0.8404   18.0062   43.4792 N   0  0  0  0  0  0  0  0  0  0  0  0
    0.1776   19.1706   43.5284 C   0  0  0  0  0  0  0  0  0  0  0  0
   -0.6647   19.7458   44.4115 N   0  0  0  0  0  0  0  0  0  0  0  0
   -1.1108   19.1670   45.6805 C   0  0  0  0  0  0  0  0  0  0  0  0
   -1.0494   20.9401   43.9699 N   0  0  0  0  0  0  0  0  0  0  0  0
   -0.4836   21.2035   42.7873 C   0  0  0  0  0  0  0  0  0  0  0  0
    0.2928   20.0960   42.4969 C   0  0  0  0  0  0  0  0  0  0  0  0
    1.1042   19.7858   41.4250 C   0  0  0  0  0  0  0  0  0  0  0  0
    1.2556   20.6987   40.3444 N   0  0  0  0  0  0  0  0  0  0  0  0
    3.2497   16.8579   40.5025 H   0  0  0  0  0  0  0  0  0  0  0  0
    4.5001   14.7710   40.3100 H   0  0  0  0  0  0  0  0  0  0  0  0
    4.2731   13.1118   42.1936 H   0  0  0  0  0  0  0  0  0  0  0  0
    1.6561   15.6785   44.2300 H   0  0  0  0  0  0  0  0  0  0  0  0
   -0.4651   19.4432   46.5284 H   0  0  0  0  0  0  0  0  0  0  0  0
   -1.1793   18.0650   45.6011 H   0  0  0  0  0  0  0  0  0  0  0  0
   -2.1284   19.5855   45.9064 H   0  0  0  0  0  0  0  0  0  0  0  0
   -0.5832   22.0885   42.1505 H   0  0  0  0  0  0  0  0  0  0  0  0
    1.9396   21.4747   40.4886 H   0  0  0  0  0  0  0  0  0  0  0  0
    0.7397   20.6322   39.4566 H   0  0  0  0  0  0  0  0  0  0  0  0
  1  2  2  0
  1  6  1  0
  2  3  1  0
  3  4  2  0
  4  5  1  0
  5  6  2  0
  6  7  1  0
  7  8  2  0
  7  9  1  0
  8 16  1  0
  9 10  2  0
 10 11  1  0
 10 15  1  0
 11 12  1  0
 11 13  1  0
 13 14  2  0
 14 15  1  0
 15 16  2  0
 16 17  1  0
  1 18  1  0
  2 19  1  0
  3 20  1  0
  5 21  1  0
 12 22  1  0
 12 23  1  0
 12 24  1  0
 14 25  1  0
 17 26  1  0
 17 27  1  0
M  END
>  <mol_id>  (10) 
2026-09-18-6fnk-s0-n100-r7-0010

>  <rmsd_to_ref>  (10) 
0.8673469387759088

>  <pose_kind>  (10) 
conformer

$$$$
6fnk.A
     RDKit          3D

 27 29  0  0  0  0  0  0  0  0999 V2000
    2.1962   15.9827   40.3053 C   0  0  0  0  0  0  0  0  0  0  0  0
    2.3852   14.7622   39.6568 C   0  0  0  0  0  0  0  0  0  0  0  0
    2.2586   13.5753   40.3637 C   0  0  0  0  0  0  0  0  0  0  0  0
    1.9380   13.6037   41.7237 N   0  0  0  0  0  0  0  0  0  0  0  0
    1.7500   14.8330   42.3736 C   0  0  0  0  0  0  0  0  0  0  0  0
    1.8789   16.0261   41.6650 C   0  0  0  0  0  0  0  0  0  0  0  0
    1.6932   17.2499   42.3161 C   0  0  0  0  0  0  0  0  0  0  0  0
    1.9816   18.4075   41.7056 N   0  0  0  0  0  0  0  0  0  0  0  0
    1.2149   17.2736   43.5642 N   0  0  0  0  0  0  0  0  0  0  0  0
    1.0312   18.4302   44.2256 C   0  0  0  0  0  0  0  0  0  0  0  0
    0.5882   18.6981   45.4635 N   0  0  0  0  0  0  0  0  0  0  0  0
    0.1620   17.7094   46.4583 C   0  0  0  0  0  0  0  0  0  0  0  0
    0.5742   19.9133   45.6644 N   0  0  0  0  0  0  0  0  0  0  0  0
    0.9851   20.5124   44.5346 C   0  0  0  0  0  0  0  0  0  0  0  0
    1.3031   19.5835   43.6230 C   0  0  0  0  0  0  0  0  0  0  0  0
    1.7823   19.5728   42.3488 C   0  0  0  0  0  0  0  0  0  0  0  0
    2.0734   20.7295   41.7056 N   0  0  0  0  0  0  0  0  0  0  0  0
    2.2981   16.9208   39.7400 H   0  0  0  0  0  0  0  0  0  0  0  0
    2.6346   14.7409   38.5857 H   0  0  0  0  0  0  0  0  0  0  0  0
    2.4104   12.6123   39.8541 H   0  0  0  0  0  0  0  0  0  0  0  0
    1.5004   14.8550   43.4447 H   0  0  0  0  0  0  0  0  0  0  0  0
    0.6925   17.8896   47.4049 H   0  0  0  0  0  0  0  0  0  0  0  0
   -0.9220   17.7985   46.6228 H   0  0  0  0  0  0  0  0  0  0  0  0
    0.3957   16.6982   46.0938 H   0  0  0  0  0  0  0  0  0  0  0  0
    1.0505   21.5997   44.3812 H   0  0  0  0  0  0  0  0  0  0  0  0
    1.9285   21.6327   42.1791 H   0  0  0  0  0  0  0  0  0  0  0  0
    2.4396   20.7055   40.7432 H   0  0  0  0  0  0  0  0  0  0  0  0
  1  2  2  0
  1  6  1  0
  2  3  1  0
  3  4  2  0
  4  5  1  0
  5  6  2  0
  6  7  1  0
  7  8  2  0
  7  9  1  0
  8 16  1  0
  9 10  2  0
 10 11  1  0
 10 15  1  0
 11 12  1  0
 11 13  1  0
 13 14  2  0
 14 15  1  0
 15 16  2  0
 16 17  1  0
  1 18  1  0
  2 19  1  0
  3 20  1  0
  5 21  1  0
 12 22  1  0
 12 23  1  0
 12 24  1  0
 14 25  1  0
 17 26  1  0
 17 27  1  0
M  END
>  <mol_id>  (11) 
2026-09-18-6fnk-s0-n100-r7-0011

>  <rmsd_to_ref>  (11) 
0.9132653061224506

>  <pose_kind>  (11) 
rigid

$$$$
6fnk.A
     RDKit          3D

 27 29  0  0  0  0  0  0  0  0999 V2000
    3.2799   15.7630   41.3607 C   0  0  0  0  0  0  0  0  0  0  0  0
    3.7393   14.4542   41.3877 C   0  0  0  0  0  0  0  0  0  0  0  0
    3.2422   13.5939   42.3597 C   0  0  0  0  0  0  0  0  0  0  0  0
    2.3267   14.0179   43.2665 N   0  0  0  0  0  0  0  0  0  0  0  0
    1.8800   15.2989   43.2366 C   0  0  0  0  0  0  0  0  0  0  0  0
    2.3444   16.1907   42.2898 C   0  0  0  0  0  0  0  0  0  0  0  0
    1.8653   17.5710   42.2550 C   0  0  0  0  0  0  0  0  0  0  0  0
    2.3150   18.4624   41.3261 N   0  0  0  0  0  0  0  0  0  0  0  0
    0.9568   17.9671   43.1657 N   0  0  0  0  0  0  0  0  0  0  0  0
    0.4608   19.2118   43.2107 C   0  0  0  0  0  0  0  0  0  0  0  0
   -0.4298   19.8521   43.9926 N   0  0  0  0  0  0  0  0  0  0  0  0
   -1.1182   19.2300   45.0883 C   0  0  0  0  0  0  0  0  0  0  0  0
   -0.5600   21.1204   43.5904 N   0  0  0  0  0  0  0  0  0  0  0  0
    0.2710   21.2926   42.5222 C   0  0  0  0  0  0  0  0  0  0  0  0
    0.9146   20.1122   42.2729 C   0  0  0  0  0  0  0  0  0  0  0  0
    1.8521   19.7383   41.3177 C   0  0  0  0  0  0  0  0  0  0  0  0
    2.3220   20.6677   40.3479 N   0  0  0  0  0  0  0  0  0  0  0  0
    3.6555   16.4648   40.6036 H   0  0  0  0  0  0  0  0  0  0  0  0
    4.4798   14.0923   40.6625 H   0  0  0  0  0  0  0  0  0  0  0  0
    3.6263   12.5909   42.3422 H   0  0  0  0  0  0  0  0  0  0  0  0
    1.1454   15.6023   43.9804 H   0  0  0  0  0  0  0  0  0  0  0  0
   -0.3625   18.7299   45.7097 H   0  0  0  0  0  0  0  0  0  0  0  0
   -1.8030   18.4165   44.7154 H   0  0  0  0  0  0  0  0  0  0  0  0
   -1.6568   19.9499   45.7116 H   0  0  0  0  0  0  0  0  0  0  0  0
    0.3734   22.2410   41.9829 H   0  0  0  0  0  0  0  0  0  0  0  0
    2.9445   21.4303   40.6866 H   0  0  0  0  0  0  0  0  0  0  0  0
    2.0418   20.5748   39.3284 H   0  0  0  0  0  0  0  0  0  0  0  0
  1  2  2  0
  1  6  1  0
  2  3  1  0
  3  4  2  0
  4  5  1  0
  5  6  2  0
  6  7  1  0
  7  8  2  0
  7  9  1  0
  8 16  1  0
  9 10  2  0
 10 11  1  0
 10 15  1  0
 11 12  1  0
 11 13  1  0
 13 14  2  0
 14 15  1  0
 15 16  2  0
 16 17  1  0
  1 18  1  0
  2 19  1  0
  3 20  1  0
  5 21  1  0
 12 22  1  0
 12 23  1  0
 12 24  1  0
 14 25  1  0
 17 26  1  0
 17 27  1  0
M  END
>  <mol_id>  (12) 
2026-09-18-6fnk-s0-n100-r7-0012

>  <rmsd_to_ref>  (12) 
0.9591836734740576

>  <pose_kind>  (12) 
conformer

$$$$
6fnk.A
     RDKit          3D

 27 29  0  0  0  0  0  0  0  0999 V2000
    2.0382   15.5265   41.1482 C   0  0  0  0  0  0  0  0  0  0  0  0
    2.1135   14.1593   40.8820 C   0  0  0  0  0  0  0  0  0  0  0  0
    1.7096   13.2433   41.8423 C   0  0  0  0  0  0  0  0  0  0  0  0
    1.2243   13.6915   43.0739 N   0  0  0  0  0  0  0  0  0  0  0  0
    1.1513   15.0674   43.3394 C   0  0  0  0  0  0  0  0  0  0  0  0
    1.5585   15.9885   42.3761 C   0  0  0  0  0  0  0  0  0  0  0  0
    1.4867   17.3593   42.6445 C   0  0  0  0  0  0  0  0  0  0  0  0
    2.0318   18.2556   41.8106 N   0  0  0  0  0  0  0  0  0  0  0  0
    0.8608   17.7899   43.7445 N   0  0  0  0  0  0  0  0  0  0  0  0
    0.7789   19.0992   44.0407 C   0  0  0  0  0  0  0  0  0  0  0  0
    0.2276   19.7554   45.0730 N   0  0  0  0  0  0  0  0  0  0  0  0
   -0.4752   19.1444   46.2052 C   0  0  0  0  0  0  0  0  0  0  0  0
    0.3809   20.9708   44.9447 N   0  0  0  0  0  0  0  0  0  0  0  0
    1.0243   21.1745   43.7834 C   0  0  0  0  0  0  0  0  0  0  0  0
    1.3061   19.9957   43.2126 C   0  0  0  0  0  0  0  0  0  0  0  0
    1.9384   19.5700   42.0846 C   0  0  0  0  0  0  0  0  0  0  0  0
    2.4902   20.4559   41.2202 N   0  0  0  0  0  0  0  0  0  0  0  0
    2.3600   16.2485   40.3832 H   0  0  0  0  0  0  0  0  0  0  0  0
    2.4928   13.8077   39.9111 H   0  0  0  0  0  0  0  0  0  0  0  0
    1.7713   12.1648   41.6346 H   0  0  0  0  0  0  0  0  0  0  0  0
    0.7718   15.4197   44.3099 H   0  0  0  0  0  0  0  0  0  0  0  0
   -0.0499   19.5209   47.1472 H   0  0  0  0  0  0  0  0  0  0  0  0
   -1.5434   19.4026   46.1561 H   0  0  0  0  0  0  0  0  0  0  0  0
   -0.3598   18.0514   46.1617 H   0  0  0  0  0  0  0  0  0  0  0  0
    1.2808   22.1589   43.3649 H   0  0  0  0  0  0  0  0  0  0  0  0
    2.4304   21.4665   41.4104 H   0  0  0  0  0  0  0  0  0  0  0  0
    2.9694   20.1187   40.3731 H   0  0  0  0  0  0  0  0  0  0  0  0
  1  2  2  0
  1  6  1  0
  2  3  1  0
  3  4  2  0
  4  5  1  0
  5  6  2  0
  6  7  1  0
  7  8  2  0
  7  9  1  0
  8 16  1  0
  9 10  2  0
 10 11  1  0
 10 15  1  0
 11 12  1  0
 11 13  1  0
 13 14  2  0
 14 15  1  0
 15 16  2  0
 16 17  1  0
  1 18  1  0
  2 19  1  0
  3 20  1  0
  5 21  1  0
 12 22  1  0
 12 23  1  0
 12 24  1  0
 14 25  1  0
 17 26  1  0
 17 27  1  0
M  END
>  <mol_id>  (13) 
2026-09-18-6fnk-s0-n100-r7-0013

>  <rmsd_to_ref>  (13) 
1.005102040820033

>  <pose_kind>  (13) 
rigid

$$$$
6fnk.A
     RDKit          3D

 27 29  0  0  0  0  0  0  0  0999 V2000
    3.3767   15.4117   41.5173 C   0  0  0  0  0  0  0  0  0  0  0  0
    3.6917   14.0680   41.4949 C   0  0  0  0  0  0  0  0  0  0  0  0
    3.0121   13.1878   42.3374 C   0  0  0  0  0  0  0  0  0  0  0  0
    2.0487   13.6138   43.1800 N   0  0  0  0  0  0  0  0  0  0  0  0
    1.7250   14.9185   43.2190 C   0  0  0  0  0  0  0  0  0  0  0  0
    2.3823   15.8314   42.3913 C   0  0  0  0  0  0  0  0  0  0  0  0
    2.0448   17.2612   42.4173 C   0  0  0  0  0  0  0  0  0  0  0  0
    2.6787   18.1423   41.6190 N   0  0  0  0  0  0  0  0  0  0  0  0
    1.0778   17.6887   43.2631 N   0  0  0  0  0  0  0  0  0  0  0  0
    0.7388   18.9900   43.3176 C   0  0  0  0  0  0  0  0  0  0  0  0
   -0.1627   19.7133   44.0378 N   0  0  0  0  0  0  0  0  0  0  0  0
   -1.0790   19.1705   45.0383 C   0  0  0  0  0  0  0  0  0  0  0  0
   -0.0639   21.0016   43.6715 N   0  0  0  0  0  0  0  0  0  0  0  0
    0.8721   21.1412   42.7366 C   0  0  0  0  0  0  0  0  0  0  0  0
    1.3857   19.8959   42.5014 C   0  0  0  0  0  0  0  0  0  0  0  0
    2.3724   19.4656   41.6372 C   0  0  0  0  0  0  0  0  0  0  0  0
    3.0761   20.3205   40.7769 N   0  0  0  0  0  0  0  0  0  0  0  0
    3.9014   16.1184   40.8612 H   0  0  0  0  0  0  0  0  0  0  0  0
    4.4693   13.7265   40.8143 H   0  0  0  0  0  0  0  0  0  0  0  0
    3.2963   12.1326   42.2841 H   0  0  0  0  0  0  0  0  0  0  0  0
    0.9566   15.2412   43.8946 H   0  0  0  0  0  0  0  0  0  0  0  0
   -1.5156   20.0309   45.5946 H   0  0  0  0  0  0  0  0  0  0  0  0
   -1.9605   18.6838   44.5320 H   0  0  0  0  0  0  0  0  0  0  0  0
   -0.5982   18.4888   45.7508 H   0  0  0  0  0  0  0  0  0  0  0  0
    1.2006   22.0374   42.2306 H   0  0  0  0  0  0  0  0  0  0  0  0
    2.6950   20.7455   39.8998 H   0  0  0  0  0  0  0  0  0  0  0  0
    4.0643   20.5576   41.0258 H   0  0  0  0  0  0  0  0  0  0  0  0
  1  2  2  0
  1  6  1  0
  2  3  1  0
  3  4  2  0
  4  5  1  0
  5  6  2  0
  6  7  1  0
  7  8  2  0
  7  9  1  0
  8 16  1  0
  9 10  2  0
 10 11  1  0
 10 15  1  0
 11 12  1  0
 11 13  1  0
 13 14  2  0
 14 15  1  0
 15 16  2  0
 16 17  1  0
  1 18  1  0
  2 19  1  0
  3 20  1  0
  5 21  1  0
 12 22  1  0
 12 23  1  0
 12 24  1  0
 14 25  1  0
 17 26  1  0
 17 27  1  0
M  END
>  <mol_id>  (14) 
2026-09-18-6fnk-s0-n100-r7-0014

>  <rmsd_to_ref>  (14) 
1.0510204081702827

>  <pose_kind>  (14) 
conformer

$$$$
6fnk.A
     RDKit          3D

 27 29  0  0  0  0  0  0  0  0999 V2000
    2.4649   16.6634   40.2141 C   0  0  0  0  0  0  0  0  0  0  0  0
    2.7761   15.5790   39.3936 C   0  0  0  0  0  0  0  0  0  0  0  0
    2.2364   14.3296   39.6622 C   0  0  0  0  0  0  0  0  0  0  0  0
    1.3786   14.1597   40.7524 N   0  0  0  0  0  0  0  0  0  0  0  0
    1.0686   15.2520   41.5769 C   0  0  0  0  0  0  0  0  0  0  0  0
    1.6117   16.5072   41.3091 C   0  0  0  0  0  0  0  0  0  0  0  0
    1.3028   17.5935   42.1341 C   0  0  0  0  0  0  0  0  0  0  0  0
    1.9445   18.7630   42.0051 N   0  0  0  0  0  0  0  0  0  0  0  0
    0.3495   17.4731   43.0635 N   0  0  0  0  0  0  0  0  0  0  0  0
    0.0306   18.4925   43.8808 C   0  0  0  0  0  0  0  0  0  0  0  0
   -0.8602   18.6011   44.8783 N   0  0  0  0  0  0  0  0  0  0  0  0
   -1.7695   17.5477   45.3392 C   0  0  0  0  0  0  0  0  0  0  0  0
   -0.8260   19.7309   45.3677 N   0  0  0  0  0  0  0  0  0  0  0  0
    0.0841   20.4398   44.6798 C   0  0  0  0  0  0  0  0  0  0  0  0
    0.6537   19.6596   43.7514 C   0  0  0  0  0  0  0  0  0  0  0  0
    1.6202   19.7974   42.8027 C   0  0  0  0  0  0  0  0  0  0  0  0
    2.2780   20.9717   42.6454 N   0  0  0  0  0  0  0  0  0  0  0  0
    2.8959   17.6518   39.9965 H   0  0  0  0  0  0  0  0  0  0  0  0
    3.4491   15.7145   38.5340 H   0  0  0  0  0  0  0  0  0  0  0  0
    2.4835   13.4732   39.0177 H   0  0  0  0  0  0  0  0  0  0  0  0
    0.3955   15.1172   42.4365 H   0  0  0  0  0  0  0  0  0  0  0  0
   -1.6704   17.4285   46.4283 H   0  0  0  0  0  0  0  0  0  0  0  0
   -2.8054   17.8240   45.0933 H   0  0  0  0  0  0  0  0  0  0  0  0
   -1.5149   16.6001   44.8420 H   0  0  0  0  0  0  0  0  0  0  0  0
    0.3250   21.4991   44.8522 H   0  0  0  0  0  0  0  0  0  0  0  0
    2.0459   21.7764   43.2450 H   0  0  0  0  0  0  0  0  0  0  0  0
    3.0102   21.0596   41.9263 H   0  0  0  0  0  0  0  0  0  0  0  0
  1  2  2  0
  1  6  1  0
  2  3  1  0
  3  4  2  0
  4  5  1  0
  5  6  2  0
  6  7  1  0
  7  8  2  0
  7  9  1  0
  8 16  1  0
  9 10  2  0
 10 11  1  0
 10 15  1  0
 11 12  1  0
 11 13  1  0
 13 14  2  0
 14 15  1  0
 15 16  2  0
 16 17  1  0
  1 18  1  0
  2 19  1  0
  3 20  1  0
  5 21  1  0
 12 22  1  0
 12 23  1  0
 12 24  1  0
 14 25  1  0
 17 26  1  0
 17 27  1  0
M  END
>  <mol_id>  (15) 
2026-09-18-6fnk-s0-n100-r7-0015

>  <rmsd_to_ref>  (15) 
1.0969387755148616

>  <pose_kind>  (15) 
rigid

$$$$
6fnk.A
     RDKit          3D

 27 29  0  0  0  0  0  0  0  0999 V2000
    2.7823   16.7544   40.4039 C   0  0  0  0  0  0  0  0  0  0  0  0
    3.1453   15.6879   39.5763 C   0  0  0  0  0  0  0  0  0  0  0  0
    2.9165   14.3827   39.9787 C   0  0  0  0  0  0  0  0  0  0  0  0
    2.3421   14.1773   41.1743 N   0  0  0  0  0  0  0  0  0  0  0  0
    1.9732   15.1549   42.0091 C   0  0  0  0  0  0  0  0  0  0  0  0
    2.2002   16.4726   41.6111 C   0  0  0  0  0  0  0  0  0  0  0  0
    1.8045   17.5666   42.5094 C   0  0  0  0  0  0  0  0  0  0  0  0
    2.0029   18.8516   42.1696 N   0  0  0  0  0  0  0  0  0  0  0  0
    1.2329   17.2911   43.6950 N   0  0  0  0  0  0  0  0  0  0  0  0
    0.8446   18.2344   44.5683 C   0  0  0  0  0  0  0  0  0  0  0  0
    0.2661   18.1769   45.7816 N   0  0  0  0  0  0  0  0  0  0  0  0
   -0.0945   16.9421   46.4656 C   0  0  0  0  0  0  0  0  0  0  0  0
    0.1028   19.4273   46.2002 N   0  0  0  0  0  0  0  0  0  0  0  0
    0.5688   20.2967   45.2726 C   0  0  0  0  0  0  0  0  0  0  0  0
    1.0542   19.5512   44.2069 C   0  0  0  0  0  0  0  0  0  0  0  0
    1.6404   19.8736   42.9933 C   0  0  0  0  0  0  0  0  0  0  0  0
    1.8497   21.2349   42.6351 N   0  0  0  0  0  0  0  0  0  0  0  0
    2.9774   17.7635   40.0546 H   0  0  0  0  0  0  0  0  0  0  0  0
    3.6057   15.8702   38.6189 H   0  0  0  0  0  0  0  0  0  0  0  0
    3.2109   13.5760   39.3109 H   0  0  0  0  0  0  0  0  0  0  0  0
    1.5110   14.9290   42.9677 H   0  0  0  0  0  0  0  0  0  0  0  0
   -1.1443   16.6164   46.2139 H   0  0  0  0  0  0  0  0  0  0  0  0
   -0.1128   17.1582   47.5407 H   0  0  0  0  0  0  0  0  0  0  0  0
    0.6211   16.1517   46.2453 H   0  0  0  0  0  0  0  0  0  0  0  0
    0.5856   21.3768   45.3024 H   0  0  0  0  0  0  0  0  0  0  0  0
    2.8031   21.5649   42.3550 H   0  0  0  0  0  0  0  0  0  0  0  0
    1.0635   21.9459   42.6396 H   0  0  0  0  0  0  0  0  0  0  0  0
  1  2  2  0
  1  6  1  0
  2  3  1  0
  3  4  2  0
  4  5  1  0
  5  6  2  0
  6  7  1  0
  7  8  2  0
  7  9  1  0
  8 16  1  0
  9 10  2  0
 10 11  1  0
 10 15  1  0
 11 12  1  0
 11 13  1  0
 13 14  2  0
 14 15  1  0
 15 16  2  0
 16 17  1  0
  1 18  1  0
  2 19  1  0
  3 20  1  0
  5 21  1  0
 12 22  1  0
 12 23  1  0
 12 24  1  0
 14 25  1  0
 17 26  1  0
 17 27  1  0
M  END
>  <mol_id>  (16) 
2026-09-18-6fnk-s0-n100-r7-0016

>  <rmsd_to_ref>  (16) 
1.1428571428629706

>  <pose_kind>  (16) 
conformer

$$$$
6fnk.A
     RDKit          3D

 27 29  0  0  0  0  0  0  0  0999 V2000
    1.9139   15.4923   40.2705 C   0  0  0  0  0  0  0  0  0  0  0  0
    1.8543   14.1662   39.8417 C   0  0  0  0  0  0  0  0  0  0  0  0
    1.4132   13.1770   40.7085 C   0  0  0  0  0  0  0  0  0  0  0  0
    1.0256   13.5108   42.0091 N   0  0  0  0  0  0  0  0  0  0  0  0
    1.0881   14.8453   42.4381 C   0  0  0  0  0  0  0  0  0  0  0  0
    1.5328   15.8397   41.5688 C   0  0  0  0  0  0  0  0  0  0  0  0
    1.5963   17.1687   41.9999 C   0  0  0  0  0  0  0  0  0  0  0  0
    2.1818   18.1112   41.2484 N   0  0  0  0  0  0  0  0  0  0  0  0
    1.0613   17.5129   43.1757 N   0  0  0  0  0  0  0  0  0  0  0  0
    1.1104   18.7786   43.6277 C   0  0  0  0  0  0  0  0  0  0  0  0
    0.6668   19.3478   44.7589 N   0  0  0  0  0  0  0  0  0  0  0  0
   -0.0367   18.6644   45.8483 C   0  0  0  0  0  0  0  0  0  0  0  0
    0.9225   20.5527   44.7660 N   0  0  0  0  0  0  0  0  0  0  0  0
    1.5291   20.8419   43.6030 C   0  0  0  0  0  0  0  0  0  0  0  0
    1.6783   19.7220   42.8830 C   0  0  0  0  0  0  0  0  0  0  0  0
    2.2189   19.3856   41.6797 C   0  0  0  0  0  0  0  0  0  0  0  0
    2.8087   20.3209   40.8963 N   0  0  0  0  0  0  0  0  0  0  0  0
    2.2646   16.2726   39.5790 H   0  0  0  0  0  0  0  0  0  0  0  0
    2.1568   13.9051   38.8168 H   0  0  0  0  0  0  0  0  0  0  0  0
    1.3686   12.1306   40.3724 H   0  0  0  0  0  0  0  0  0  0  0  0
    0.7855   15.1072   43.4627 H   0  0  0  0  0  0  0  0  0  0  0  0
    0.4623   18.8863   46.8032 H   0  0  0  0  0  0  0  0  0  0  0  0
   -1.0785   19.0150   45.8889 H   0  0  0  0  0  0  0  0  0  0  0  0
   -0.0218   17.5790   45.6704 H   0  0  0  0  0  0  0  0  0  0  0  0
    1.8538   21.8451   43.2896 H   0  0  0  0  0  0  0  0  0  0  0  0
    2.8483   21.3022   41.2069 H   0  0  0  0  0  0  0  0  0  0  0  0
    3.2174   20.0506   39.9903 H   0  0  0  0  0  0  0  0  0  0  0  0
  1  2  2  0
  1  6  1  0
  2  3  1  0
  3  4  2  0
  4  5  1  0
  5  6  2  0
  6  7  1  0
  7  8  2  0
  7  9  1  0
  8 16  1  0
  9 10  2  0
 10 11  1  0
 10 15  1  0
 11 12  1  0
 11 13  1  0
 13 14  2  0
 14 15  1  0
 15 16  2  0
 16 17  1  0
  1 18  1  0
  2 19  1  0
  3 20  1  0
  5 21  1  0
 12 22  1  0
 12 23  1  0
 12 24  1  0
 14 25  1  0
 17 26  1  0
 17 27  1  0
M  END
>  <mol_id>  (17) 
2026-09-18-6fnk-s0-n100-r7-0017

>  <rmsd_to_ref>  (17) 
1.1887755102056035

>  <pose_kind>  (17) 
rigid

$$$$
6fnk.A
     RDKit          3D

 27 29  0  0  0  0  0  0  0  0999 V2000
    2.2664   15.2015   42.5059 C   0  0  0  0  0  0  0  0  0  0  0  0
    2.9262   14.0376   42.1468 C   0  0  0  0  0  0  0  0  0  0  0  0
    3.7782   14.0879   41.0662 C   0  0  0  0  0  0  0  0  0  0  0  0
    3.9472   15.2457   40.3959 N   0  0  0  0  0  0  0  0  0  0  0  0
    3.2933   16.3870   40.7568 C   0  0  0  0  0  0  0  0  0  0  0  0
    2.4353   16.3842   41.8259 C   0  0  0  0  0  0  0  0  0  0  0  0
    1.7157   17.5929   42.2417 C   0  0  0  0  0  0  0  0  0  0  0  0
    1.8688   18.7412   41.5949 N   0  0  0  0  0  0  0  0  0  0  0  0
    0.8923   17.5367   43.2893 N   0  0  0  0  0  0  0  0  0  0  0  0
    0.2078   18.6106   43.7150 C   0  0  0  0  0  0  0  0  0  0  0  0
   -0.6540   18.7417   44.7360 N   0  0  0  0  0  0  0  0  0  0  0  0
   -1.0625   17.6861   45.6640 C   0  0  0  0  0  0  0  0  0  0  0  0
   -1.0499   19.9870   44.7343 N   0  0  0  0  0  0  0  0  0  0  0  0
   -0.4755   20.6973   43.7368 C   0  0  0  0  0  0  0  0  0  0  0  0
    0.3427   19.8074   43.0715 C   0  0  0  0  0  0  0  0  0  0  0  0
    1.1955   19.8604   41.9885 C   0  0  0  0  0  0  0  0  0  0  0  0
    1.3420   21.1033   41.3123 N   0  0  0  0  0  0  0  0  0  0  0  0
    1.5775   15.2115   43.3596 H   0  0  0  0  0  0  0  0  0  0  0  0
    2.7403   13.1475   42.7317 H   0  0  0  0  0  0  0  0  0  0  0  0
    4.2827   13.1727   40.8016 H   0  0  0  0  0  0  0  0  0  0  0  0
    3.4730   17.2823   40.1775 H   0  0  0  0  0  0  0  0  0  0  0  0
   -0.5612   16.7346   45.3607 H   0  0  0  0  0  0  0  0  0  0  0  0
   -2.1392   17.5292   45.6296 H   0  0  0  0  0  0  0  0  0  0  0  0
   -0.6556   17.8855   46.6892 H   0  0  0  0  0  0  0  0  0  0  0  0
   -0.6067   21.7320   43.4890 H   0  0  0  0  0  0  0  0  0  0  0  0
    2.0438   21.8178   41.6456 H   0  0  0  0  0  0  0  0  0  0  0  0
    0.7379   21.2844   40.4826 H   0  0  0  0  0  0  0  0  0  0  0  0
  1  2  2  0
  1  6  1  0
  2  3  1  0
  3  4  2  0
  4  5  1  0
  5  6  2  0
  6  7  1  0
  7  8  2  0
  7  9  1  0
  8 16  1  0
  9 10  2  0
 10 11  1  0
 10 15  1  0
 11 12  1  0
 11 13  1  0
 13 14  2  0
 14 15  1  0
 15 16  2  0
 16 17  1  0
  1 18  1  0
  2 19  1  0
  3 20  1  0
  5 21  1  0
 12 22  1  0
 12 23  1  0
 12 24  1  0
 14 25  1  0
 17 26  1  0
 17 27  1  0
M  END
>  <mol_id>  (18) 
2026-09-18-6fnk-s0-n100-r7-0018

>  <rmsd_to_ref>  (18) 
1.234693877551575

>  <pose_kind>  (18) 
conformer

$$$$
6fnk.A
     RDKit          3D

 27 29  0  0  0  0  0  0  0  0999 V2000
    3.3112   17.0863   39.9790 C   0  0  0  0  0  0  0  0  0  0  0  0
    3.6844   16.0750   39.0936 C   0  0  0  0  0  0  0  0  0  0  0  0
    3.1579   14.7996   39.2371 C   0  0  0  0  0  0  0  0  0  0  0  0
    2.2513   14.5304   40.2661 N   0  0  0  0  0  0  0  0  0  0  0  0
    1.8790   15.5493   41.1561 C   0  0  0  0  0  0  0  0  0  0  0  0
    2.4087   16.8305   41.0141 C   0  0  0  0  0  0  0  0  0  0  0  0
    2.0375   17.8435   41.9042 C   0  0  0  0  0  0  0  0  0  0  0  0
    2.6606   19.0299   41.8988 N   0  0  0  0  0  0  0  0  0  0  0  0
    1.0424   17.6347   42.7721 N   0  0  0  0  0  0  0  0  0  0  0  0
    0.6630   18.5813   43.6489 C   0  0  0  0  0  0  0  0  0  0  0  0
   -0.2776   18.5966   44.6056 N   0  0  0  0  0  0  0  0  0  0  0  0
   -1.1866   17.4953   44.9370 C   0  0  0  0  0  0  0  0  0  0  0  0
   -0.2907   19.6849   45.1822 N   0  0  0  0  0  0  0  0  0  0  0  0
    0.6373   20.4606   44.5981 C   0  0  0  0  0  0  0  0  0  0  0  0
    1.2676   19.7653   43.6420 C   0  0  0  0  0  0  0  0  0  0  0  0
    2.2765   19.9931   42.7568 C   0  0  0  0  0  0  0  0  0  0  0  0
    2.9170   21.1869   42.7245 N   0  0  0  0  0  0  0  0  0  0  0  0
    3.7319   18.0957   39.8608 H   0  0  0  0  0  0  0  0  0  0  0  0
    4.3958   16.2887   38.2822 H   0  0  0  0  0  0  0  0  0  0  0  0
    3.4538   14.0006   38.5413 H   0  0  0  0  0  0  0  0  0  0  0  0
    1.1675   15.3364   41.9675 H   0  0  0  0  0  0  0  0  0  0  0  0
   -1.1387   17.2926   46.0171 H   0  0  0  0  0  0  0  0  0  0  0  0
   -2.2147   17.7728   44.6613 H   0  0  0  0  0  0  0  0  0  0  0  0
   -0.8886   16.5940   44.3813 H   0  0  0  0  0  0  0  0  0  0  0  0
    0.8477   21.5070   44.8642 H   0  0  0  0  0  0  0  0  0  0  0  0
    2.6393   21.9380   43.3722 H   0  0  0  0  0  0  0  0  0  0  0  0
    3.6816   21.3431   42.0522 H   0  0  0  0  0  0  0  0  0  0  0  0
  1  2  2  0
  1  6  1  0
  2  3  1  0
  3  4  2  0
  4  5  1  0
  5  6  2  0
  6  7  1  0
  7  8  2  0
  7  9  1  0
  8 16  1  0
  9 10  2  0
 10 11  1  0
 10 15  1  0
 11 12  1  0
 11 13  1  0
 13 14  2  0
 14 15  1  0
 15 16  2  0
 16 17  1  0
  1 18  1  0
  2 19  1  0
  3 20  1  0
  5 21  1  0
 12 22  1  0
 12 23  1  0
 12 24  1  0
 14 25  1  0
 17 26  1  0
 17 27  1  0
M  END
>  <mol_id>  (19) 
2026-09-18-6fnk-s0-n100-r7-0019

>  <rmsd_to_ref>  (19) 
1.280612244903642

>  <pose_kind>  (19) 
rigid

$$$$
6fnk.A
     RDKit          3D

 27 29  0  0  0  0  0  0  0  0999 V2000
    1.3327   14.9622   42.5777 C   0  0  0  0  0  0  0  0  0  0  0  0
    1.4654   13.6535   42.1868 C   0  0  0  0  0  0  0  0  0  0  0  0
    2.2648   13.3967   41.0950 C   0  0  0  0  0  0  0  0  0  0  0  0
    2.8940   14.4147   40.4377 N   0  0  0  0  0  0  0  0  0  0  0  0
    2.7416   15.7062   40.8517 C   0  0  0  0  0  0  0  0  0  0  0  0
    1.9532   16.0032   41.9358 C   0  0  0  0  0  0  0  0  0  0  0  0
    1.7776   17.3748   42.3935 C   0  0  0  0  0  0  0  0  0  0  0  0
    2.3617   18.4045   41.7974 N   0  0  0  0  0  0  0  0  0  0  0  0
    0.9953   17.6193   43.4608 N   0  0  0  0  0  0  0  0  0  0  0  0
    0.7997   18.8680   43.9245 C   0  0  0  0  0  0  0  0  0  0  0  0
    0.0600   19.3043   44.9677 N   0  0  0  0  0  0  0  0  0  0  0  0
   -0.7148   18.4398   45.8414 C   0  0  0  0  0  0  0  0  0  0  0  0
    0.1943   20.6189   45.0091 N   0  0  0  0  0  0  0  0  0  0  0  0
    1.0108   21.0479   44.0085 C   0  0  0  0  0  0  0  0  0  0  0  0
    1.4101   19.9391   43.3007 C   0  0  0  0  0  0  0  0  0  0  0  0
    2.2119   19.6836   42.2058 C   0  0  0  0  0  0  0  0  0  0  0  0
    2.8323   20.7709   41.5716 N   0  0  0  0  0  0  0  0  0  0  0  0
    0.7144   15.2127   43.4309 H   0  0  0  0  0  0  0  0  0  0  0  0
    0.9441   12.8683   42.7411 H   0  0  0  0  0  0  0  0  0  0  0  0
    2.3820   12.3745   40.7718 H   0  0  0  0  0  0  0  0  0  0  0  0
    3.2643   16.4688   40.2920 H   0  0  0  0  0  0  0  0  0  0  0  0
   -1.7804   18.4061   45.5438 H   0  0  0  0  0  0  0  0  0  0  0  0
   -0.3309   17.3986   45.7635 H   0  0  0  0  0  0  0  0  0  0  0  0
   -0.5640   18.7626   46.8806 H   0  0  0  0  0  0  0  0  0  0  0  0
    1.3112   22.0673   43.7831 H   0  0  0  0  0  0  0  0  0  0  0  0
    3.0638   21.6419   42.1233 H   0  0  0  0  0  0  0  0  0  0  0  0
    3.1009   20.8093   40.5648 H   0  0  0  0  0  0  0  0  0  0  0  0
  1  2  2  0
  1  6  1  0
  2  3  1  0
  3  4  2  0
  4  5  1  0
  5  6  2  0
  6  7  1  0
  7  8  2  0
  7  9  1  0
  8 16  1  0
  9 10  2  0
 10 11  1  0
 10 15  1  0
 11 12  1  0
 11 13  1  0
 13 14  2  0
 14 15  1  0
 15 16  2  0
 16 17  1  0
  1 18  1  0
  2 19  1  0
  3 20  1  0
  5 21  1  0
 12 22  1  0
 12 23  1  0
 12 24  1  0
 14 25  1  0
 17 26  1  0
 17 27  1  0
M  END
>  <mol_id>  (20) 
2026-09-18-6fnk-s0-n100-r7-0020

>  <rmsd_to_ref>  (20) 
1.3265306122480662

>  <pose_kind>  (20) 
conformer

$$$$
6fnk.A
     RDKit          3D

 27 29  0  0  0  0  0  0  0  0999 V2000
    1.8842   15.5441   40.1481 C   0  0  0  0  0  0  0  0  0  0  0  0
    1.7330   14.2964   39.5429 C   0  0  0  0  0  0  0  0  0  0  0  0
    1.0781   13.2751   40.2154 C   0  0  0  0  0  0  0  0  0  0  0  0
    0.5673   13.4985   41.4970 N   0  0  0  0  0  0  0  0  0  0  0  0
    0.7224   14.7541   42.1039 C   0  0  0  0  0  0  0  0  0  0  0  0
    1.3818   15.7804   41.4300 C   0  0  0  0  0  0  0  0  0  0  0  0
    1.5368   17.0301   42.0384 C   0  0  0  0  0  0  0  0  0  0  0  0
    2.3142   17.9737   41.4895 N   0  0  0  0  0  0  0  0  0  0  0  0
    0.8979   17.2972   43.1819 N   0  0  0  0  0  0  0  0  0  0  0  0
    1.0291   18.4840   43.8009 C   0  0  0  0  0  0  0  0  0  0  0  0
    0.5110   18.9664   44.9406 N   0  0  0  0  0  0  0  0  0  0  0  0
   -0.3971   18.2529   45.8436 C   0  0  0  0  0  0  0  0  0  0  0  0
    0.8958   20.1200   45.1366 N   0  0  0  0  0  0  0  0  0  0  0  0
    1.6739   20.4662   44.0979 C   0  0  0  0  0  0  0  0  0  0  0  0
    1.7885   19.4298   43.2567 C   0  0  0  0  0  0  0  0  0  0  0  0
    2.4373   19.1730   42.0878 C   0  0  0  0  0  0  0  0  0  0  0  0
    3.2222   20.1126   41.5070 N   0  0  0  0  0  0  0  0  0  0  0  0
    2.4046   16.3504   39.6104 H   0  0  0  0  0  0  0  0  0  0  0  0
    2.1327   14.1226   38.5329 H   0  0  0  0  0  0  0  0  0  0  0  0
    0.9608   12.2899   39.7402 H   0  0  0  0  0  0  0  0  0  0  0  0
    0.3226   14.9287   43.1137 H   0  0  0  0  0  0  0  0  0  0  0  0
   -0.0022   18.2952   46.8694 H   0  0  0  0  0  0  0  0  0  0  0  0
   -1.3902   18.7249   45.8131 H   0  0  0  0  0  0  0  0  0  0  0  0
   -0.4801   17.2031   45.5257 H   0  0  0  0  0  0  0  0  0  0  0  0
    2.1452   21.4504   43.9592 H   0  0  0  0  0  0  0  0  0  0  0  0
    3.3305   21.0372   41.9478 H   0  0  0  0  0  0  0  0  0  0  0  0
    3.7105   19.9023   40.6249 H   0  0  0  0  0  0  0  0  0  0  0  0
  1  2  2  0
  1  6  1  0
  2  3  1  0
  3  4  2  0
  4  5  1  0
  5  6  2  0
  6  7  1  0
  7  8  2  0
  7  9  1  0
  8 16  1  0
  9 10  2  0
 10 11  1  0
 10 15  1  0
 11 12  1  0
 11 13  1  0
 13 14  2  0
 14 15  1  0
 15 16  2  0
 16 17  1  0
  1 18  1  0
  2 19  1  0
  3 20  1  0
  5 21  1  0
 12 22  1  0
 12 23  1  0
 12 24  1  0
 14 25  1  0
 17 26  1  0
 17 27  1  0
M  END
>  <mol_id>  (21) 
2026-09-18-6fnk-s0-n100-r7-0021

>  <rmsd_to_ref>  (21) 
1.3724489795971202

>  <pose_kind>  (21) 
rigid

$$$$
6fnk.A
     RDKit          3D

 27 29  0  0  0  0  0  0  0  0999 V2000
    1.6737   14.7818   43.1495 C   0  0  0  0  0  0  0  0  0  0  0  0
    1.9618   13.4621   42.8502 C   0  0  0  0  0  0  0  0  0  0  0  0
    2.6538   13.1391   41.7051 C   0  0  0  0  0  0  0  0  0  0  0  0
    3.0400   14.1390   40.8894 N   0  0  0  0  0  0  0  0  0  0  0  0
    2.7747   15.4302   41.1538 C   0  0  0  0  0  0  0  0  0  0  0  0
    2.0780   15.7897   42.3014 C   0  0  0  0  0  0  0  0  0  0  0  0
    1.8148   17.1963   42.5447 C   0  0  0  0  0  0  0  0  0  0  0  0
    2.2650   18.0802   41.6360 N   0  0  0  0  0  0  0  0  0  0  0  0
    1.1641   17.6519   43.5987 N   0  0  0  0  0  0  0  0  0  0  0  0
    0.9317   18.9677   43.8026 C   0  0  0  0  0  0  0  0  0  0  0  0
    0.3145   19.6824   44.7600 N   0  0  0  0  0  0  0  0  0  0  0  0
   -0.3184   19.1337   45.9336 C   0  0  0  0  0  0  0  0  0  0  0  0
    0.3575   20.9739   44.4925 N   0  0  0  0  0  0  0  0  0  0  0  0
    1.0126   21.1686   43.3334 C   0  0  0  0  0  0  0  0  0  0  0  0
    1.3790   19.9128   42.8896 C   0  0  0  0  0  0  0  0  0  0  0  0
    2.0602   19.4201   41.7886 C   0  0  0  0  0  0  0  0  0  0  0  0
    2.5361   20.3595   40.8271 N   0  0  0  0  0  0  0  0  0  0  0  0
    1.1365   15.0439   44.0368 H   0  0  0  0  0  0  0  0  0  0  0  0
    1.6237   12.7116   43.5458 H   0  0  0  0  0  0  0  0  0  0  0  0
    2.8782   12.1069   41.4727 H   0  0  0  0  0  0  0  0  0  0  0  0
    3.1244   16.1732   40.4394 H   0  0  0  0  0  0  0  0  0  0  0  0
    0.2972   19.4964   46.7995 H   0  0  0  0  0  0  0  0  0  0  0  0
   -1.3484   19.5536   45.9968 H   0  0  0  0  0  0  0  0  0  0  0  0
   -0.3648   18.0301   45.8891 H   0  0  0  0  0  0  0  0  0  0  0  0
    1.2406   22.0826   42.8033 H   0  0  0  0  0  0  0  0  0  0  0  0
    1.9938   20.6146   39.9720 H   0  0  0  0  0  0  0  0  0  0  0  0
    3.4603   20.8421   40.9343 H   0  0  0  0  0  0  0  0  0  0  0  0
  1  2  2  0
  1  6  1  0
  2  3  1  0
  3  4  2  0
  4  5  1  0
  5  6  2  0
  6  7  1  0
  7  8  2  0
  7  9  1  0
  8 16  1  0
  9 10  2  0
 10 11  1  0
 10 15  1  0
 11 12  1  0
 11 13  1  0
 13 14  2  0
 14 15  1  0
 15 16  2  0
 16 17  1  0
  1 18  1  0
  2 19  1  0
  3 20  1  0
  5 21  1  0
 12 22  1  0
 12 23  1  0
 12 24  1  0
 14 25  1  0
 17 26  1  0
 17 27  1  0
M  END
>  <mol_id>  (22) 
2026-09-18-6fnk-s0-n100-r7-0022

>  <rmsd_to_ref>  (22) 
1.4183673469411457

>  <pose_kind>  (22) 
conformer

$$$$
6fnk.A
     RDKit          3D

 27 29  0  0  0  0  0  0  0  0999 V2000
    4.5123   16.8662   41.4738 C   0  0  0  0  0  0  0  0  0  0  0  0
    5.5022   15.8903   41.3571 C   0  0  0  0  0  0  0  0  0  0  0  0
    5.3893   14.7011   42.0625 C   0  0  0  0  0  0  0  0  0  0  0  0
    4.2819   14.4808   42.8862 N   0  0  0  0  0  0  0  0  0  0  0  0
    3.2885   15.4649   43.0027 C   0  0  0  0  0  0  0  0  0  0  0  0
    3.4019   16.6607   42.2961 C   0  0  0  0  0  0  0  0  0  0  0  0
    2.4113   17.6407   42.4161 C   0  0  0  0  0  0  0  0  0  0  0  0
    2.5805   18.8616   41.8900 N   0  0  0  0  0  0  0  0  0  0  0  0
    1.2728   17.3607   43.0584 N   0  0  0  0  0  0  0  0  0  0  0  0
    0.3012   18.2796   43.2016 C   0  0  0  0  0  0  0  0  0  0  0  0
   -0.8956   18.2366   43.8067 N   0  0  0  0  0  0  0  0  0  0  0  0
   -1.4677   17.0801   44.5026 C   0  0  0  0  0  0  0  0  0  0  0  0
   -1.4760   19.3172   43.6947 N   0  0  0  0  0  0  0  0  0  0  0  0
   -0.6854   20.1251   42.9692 C   0  0  0  0  0  0  0  0  0  0  0  0
    0.4558   19.4891   42.6722 C   0  0  0  0  0  0  0  0  0  0  0  0
    1.6071   19.7836   42.0080 C   0  0  0  0  0  0  0  0  0  0  0  0
    1.7997   21.0075   41.4590 N   0  0  0  0  0  0  0  0  0  0  0  0
    4.6070   17.8074   40.9123 H   0  0  0  0  0  0  0  0  0  0  0  0
    6.3719   16.0636   40.7062 H   0  0  0  0  0  0  0  0  0  0  0  0
    6.1708   13.9322   41.9735 H   0  0  0  0  0  0  0  0  0  0  0  0
    2.4185   15.2921   43.6533 H   0  0  0  0  0  0  0  0  0  0  0  0
   -1.7926   17.3818   45.5093 H   0  0  0  0  0  0  0  0  0  0  0  0
   -2.3316   16.7021   43.9364 H   0  0  0  0  0  0  0  0  0  0  0  0
   -0.7080   16.2888   44.5843 H   0  0  0  0  0  0  0  0  0  0  0  0
   -0.9364   21.1520   42.6653 H   0  0  0  0  0  0  0  0  0  0  0  0
    1.0679   21.7280   41.5374 H   0  0  0  0  0  0  0  0  0  0  0  0
    2.6779   21.2171   40.9633 H   0  0  0  0  0  0  0  0  0  0  0  0
  1  2  2  0
  1  6  1  0
  2  3  1  0
  3  4  2  0
  4  5  1  0
  5  6  2  0
  6  7  1  0
  7  8  2  0
  7  9  1  0
  8 16  1  0
  9 10  2  0
 10 11  1  0
 10 15  1  0
 11 12  1  0
 11 13  1  0
 13 14  2  0
 14 15  1  0
 15 16  2  0
 16 17  1  0
  1 18  1  0
  2 19  1  0
  3 20  1  0
  5 21  1  0
 12 22  1  0
 12 23  1  0
 12 24  1  0
 14 25  1  0
 17 26  1  0
 17 27  1  0
M  END
>  <mol_id>  (23) 
2026-09-18-6fnk-s0-n100-r7-0023

>  <rmsd_to_ref>  (23) 
1.4642857142872938

>  <pose_kind>  (23) 
rigid

$$$$
6fnk.A
     RDKit          3D

 27 29  0  0  0  0  0  0  0  0999 V2000
    2.5595   15.2462   42.3321 C   0  0  0  0  0  0  0  0  0  0  0  0
    3.4817   14.2856   41.9568 C   0  0  0  0  0  0  0  0  0  0  0  0
    4.4662   14.5804   41.0412 C   0  0  0  0  0  0  0  0  0  0  0  0
    4.5054   15.8237   40.5244 N   0  0  0  0  0  0  0  0  0  0  0  0
    3.6233   16.7776   40.8697 C   0  0  0  0  0  0  0  0  0  0  0  0
    2.6173   16.5123   41.7913 C   0  0  0  0  0  0  0  0  0  0  0  0
    1.6879   17.5735   42.1331 C   0  0  0  0  0  0  0  0  0  0  0  0
    1.8554   18.7653   41.5321 N   0  0  0  0  0  0  0  0  0  0  0  0
    0.6966   17.4352   42.9933 N   0  0  0  0  0  0  0  0  0  0  0  0
   -0.1560   18.4397   43.2949 C   0  0  0  0  0  0  0  0  0  0  0  0
   -1.2185   18.5668   44.1094 N   0  0  0  0  0  0  0  0  0  0  0  0
   -1.7539   17.5256   44.9509 C   0  0  0  0  0  0  0  0  0  0  0  0
   -1.7243   19.7839   44.0459 N   0  0  0  0  0  0  0  0  0  0  0  0
   -1.0087   20.5205   43.1766 C   0  0  0  0  0  0  0  0  0  0  0  0
   -0.0185   19.6850   42.6972 C   0  0  0  0  0  0  0  0  0  0  0  0
    1.0261   19.8154   41.7968 C   0  0  0  0  0  0  0  0  0  0  0  0
    1.2011   21.0799   41.1612 N   0  0  0  0  0  0  0  0  0  0  0  0
    1.7903   15.0278   43.0429 H   0  0  0  0  0  0  0  0  0  0  0  0
    3.3933   13.3113   42.4088 H   0  0  0  0  0  0  0  0  0  0  0  0
    5.1863   13.8283   40.7490 H   0  0  0  0  0  0  0  0  0  0  0  0
    3.7290   17.7550   40.4024 H   0  0  0  0  0  0  0  0  0  0  0  0
   -1.5725   17.8720   46.0032 H   0  0  0  0  0  0  0  0  0  0  0  0
   -2.8487   17.4557   44.7569 H   0  0  0  0  0  0  0  0  0  0  0  0
   -1.2731   16.5518   44.7445 H   0  0  0  0  0  0  0  0  0  0  0  0
   -1.1254   21.5504   42.8697 H   0  0  0  0  0  0  0  0  0  0  0  0
    0.7941   21.3015   40.2254 H   0  0  0  0  0  0  0  0  0  0  0  0
    1.7509   21.8528   41.6071 H   0  0  0  0  0  0  0  0  0  0  0  0
  1  2  2  0
  1  6  1  0
  2  3  1  0
  3  4  2  0
  4  5  1  0
  5  6  2  0
  6  7  1  0
  7  8  2  0
  7  9  1  0
  8 16  1  0
  9 10  2  0
 10 11  1  0
 10 15  1  0
 11 12  1  0
 11 13  1  0
 13 14  2  0
 14 15  1  0
 15 16  2  0
 16 17  1  0
  1 18  1  0
  2 19  1  0
  3 20  1  0
  5 21  1  0
 12 22  1  0
 12 23  1  0
 12 24  1  0
 14 25  1  0
 17 26  1  0
 17 27  1  0
M  END
>  <mol_id>  (24) 
2026-09-18-6fnk-s0-n100-r7-0024

>  <rmsd_to_ref>  (24) 
1.510204081633033

>  <pose_kind>  (24) 
conformer

$$$$
6fnk.A
     RDKit          3D

 27 29  0  0  0  0  0  0  0  0999 V2000
    3.9017   17.1320   41.7826 C   0  0  0  0  0  0  0  0  0  0  0  0
    4.8747   16.1370   41.8789 C   0  0  0  0  0  0  0  0  0  0  0  0
    4.7475   15.1332   42.8279 C   0  0  0  0  0  0  0  0  0  0  0  0
    3.6427   15.1179   43.6838 N   0  0  0  0  0  0  0  0  0  0  0  0
    2.6665   16.1209   43.5856 C   0  0  0  0  0  0  0  0  0  0  0  0
    2.7941   17.1309   42.6339 C   0  0  0  0  0  0  0  0  0  0  0  0
    1.8206   18.1307   42.5400 C   0  0  0  0  0  0  0  0  0  0  0  0
    2.0059   19.2037   41.7587 N   0  0  0  0  0  0  0  0  0  0  0  0
    0.6825   18.0181   43.2321 N   0  0  0  0  0  0  0  0  0  0  0  0
   -0.2730   18.9629   43.1742 C   0  0  0  0  0  0  0  0  0  0  0  0
   -1.4658   19.0745   43.7783 N   0  0  0  0  0  0  0  0  0  0  0  0
   -2.0516   18.1086   44.7125 C   0  0  0  0  0  0  0  0  0  0  0  0
   -2.0293   20.1144   43.4344 N   0  0  0  0  0  0  0  0  0  0  0  0
   -1.2309   20.7298   42.5468 C   0  0  0  0  0  0  0  0  0  0  0  0
   -0.1025   20.0243   42.3922 C   0  0  0  0  0  0  0  0  0  0  0  0
    1.0486   20.1461   41.6755 C   0  0  0  0  0  0  0  0  0  0  0  0
    1.2571   21.2166   40.8712 N   0  0  0  0  0  0  0  0  0  0  0  0
    4.0077   17.9257   41.0284 H   0  0  0  0  0  0  0  0  0  0  0  0
    5.7422   16.1483   41.2027 H   0  0  0  0  0  0  0  0  0  0  0  0
    5.5156   14.3498   42.9067 H   0  0  0  0  0  0  0  0  0  0  0  0
    1.7985   16.1101   44.2613 H   0  0  0  0  0  0  0  0  0  0  0  0
   -2.3641   18.6289   45.6299 H   0  0  0  0  0  0  0  0  0  0  0  0
   -2.9257   17.6309   44.2459 H   0  0  0  0  0  0  0  0  0  0  0  0
   -1.3044   17.3410   44.9628 H   0  0  0  0  0  0  0  0  0  0  0  0
   -1.4673   21.6696   42.0263 H   0  0  0  0  0  0  0  0  0  0  0  0
    0.5378   21.9496   40.7925 H   0  0  0  0  0  0  0  0  0  0  0  0
    2.1350   21.2972   40.3384 H   0  0  0  0  0  0  0  0  0  0  0  0
  1  2  2  0
  1  6  1  0
  2  3  1  0
  3  4  2  0
  4  5  1  0
  5  6  2  0
  6  7  1  0
  7  8  2  0
  7  9  1  0
  8 16  1  0
  9 10  2  0
 10 11  1  0
 10 15  1  0
 11 12  1  0
 11 13  1  0
 13 14  2  0
 14 15  1  0
 15 16  2  0
 16 17  1  0
  1 18  1  0
  2 19  1  0
  3 20  1  0
  5 21  1  0
 12 22  1  0
 12 23  1  0
 12 24  1  0
 14 25  1  0
 17 26  1  0
 17 27  1  0
M  END
>  <mol_id>  (25) 
2026-09-18-6fnk-s0-n100-r7-0025

>  <rmsd_to_ref>  (25) 
1.5561224489795982

>  <pose_kind>  (25) 
rigid

$$$$
6fnk.A
     RDKit          3D

 27 29  0  0  0  0  0  0  0  0999 V2000
    3.4856   15.6760   41.8339 C   0  0  0  0  0  0  0  0  0  0  0  0
    3.9879   14.4231   42.1133 C   0  0  0  0  0  0  0  0  0  0  0  0
    3.2732   13.5222   42.9025 C   0  0  0  0  0  0  0  0  0  0  0  0
    2.0747   13.8582   43.4090 N   0  0  0  0  0  0  0  0  0  0  0  0
    1.5495   15.0733   43.1588 C   0  0  0  0  0  0  0  0  0  0  0  0
    2.2403   15.9960   42.3731 C   0  0  0  0  0  0  0  0  0  0  0  0
    1.6887   17.3165   42.0907 C   0  0  0  0  0  0  0  0  0  0  0  0
    2.3412   18.2184   41.3352 N   0  0  0  0  0  0  0  0  0  0  0  0
    0.4685   17.6238   42.6219 N   0  0  0  0  0  0  0  0  0  0  0  0
   -0.0677   18.8411   42.3767 C   0  0  0  0  0  0  0  0  0  0  0  0
   -1.2334   19.3774   42.7769 N   0  0  0  0  0  0  0  0  0  0  0  0
   -2.2128   18.6767   43.6222 C   0  0  0  0  0  0  0  0  0  0  0  0
   -1.3401   20.6063   42.2918 N   0  0  0  0  0  0  0  0  0  0  0  0
   -0.2326   20.8740   41.5680 C   0  0  0  0  0  0  0  0  0  0  0  0
    0.5952   19.7716   41.6029 C   0  0  0  0  0  0  0  0  0  0  0  0
    1.8269   19.4349   41.0784 C   0  0  0  0  0  0  0  0  0  0  0  0
    2.5202   20.3748   40.2838 N   0  0  0  0  0  0  0  0  0  0  0  0
    4.0445   16.3722   41.2205 H   0  0  0  0  0  0  0  0  0  0  0  0
    4.9650   14.1583   41.6964 H   0  0  0  0  0  0  0  0  0  0  0  0
    3.7463   12.5679   43.0658 H   0  0  0  0  0  0  0  0  0  0  0  0
    0.5752   15.3474   43.5702 H   0  0  0  0  0  0  0  0  0  0  0  0
   -2.8227   19.4172   44.1722 H   0  0  0  0  0  0  0  0  0  0  0  0
   -1.6779   18.0097   44.3343 H   0  0  0  0  0  0  0  0  0  0  0  0
   -2.8762   18.0735   42.9499 H   0  0  0  0  0  0  0  0  0  0  0  0
    0.0241   21.7849   41.0249 H   0  0  0  0  0  0  0  0  0  0  0  0
    3.1576   21.0790   40.7312 H   0  0  0  0  0  0  0  0  0  0  0  0
    2.4278   20.4041   39.2509 H   0  0  0  0  0  0  0  0  0  0  0  0
  1  2  2  0
  1  6  1  0
  2  3  1  0
  3  4  2  0
  4  5  1  0
  5  6  2  0
  6  7  1  0
  7  8  2  0
  7  9  1  0
  8 16  1  0
  9 10  2  0
 10 11  1  0
 10 15  1  0
 11 12  1  0
 11 13  1  0
 13 14  2  0
 14 15  1  0
 15 16  2  0
 16 17  1  0
  1 18  1  0
  2 19  1  0
  3 20  1  0
  5 21  1  0
 12 22  1  0
 12 23  1  0
 12 24  1  0
 14 25  1  0
 17 26  1  0
 17 27  1  0
M  END
>  <mol_id>  (26) 
2026-09-18-6fnk-s0-n100-r7-0026

>  <rmsd_to_ref>  (26) 
1.6020408163269058

>  <pose_kind>  (26) 
conformer

$$$$
6fnk.A
     RDKit          3D

 27 29  0  0  0  0  0  0  0  0999 V2000
    0.8504   15.5040   41.4373 C   0  0  0  0  0  0  0  0  0  0  0  0
    0.8519   14.1175   41.2842 C   0  0  0  0  0  0  0  0  0  0  0  0
    1.0121   13.2983   42.3923 C   0  0  0  0  0  0  0  0  0  0  0  0
    1.1678   13.8632   43.6611 N   0  0  0  0  0  0  0  0  0  0  0  0
    1.1674   15.2583   43.8118 C   0  0  0  0  0  0  0  0  0  0  0  0
    1.0085   16.0822   42.6991 C   0  0  0  0  0  0  0  0  0  0  0  0
    1.0108   17.4724   42.8522 C   0  0  0  0  0  0  0  0  0  0  0  0
    1.0364   18.2844   41.7863 N   0  0  0  0  0  0  0  0  0  0  0  0
    0.9806   18.0069   44.0771 N   0  0  0  0  0  0  0  0  0  0  0  0
    0.9906   19.3387   44.2644 C   0  0  0  0  0  0  0  0  0  0  0  0
    0.9817   20.0912   45.3752 N   0  0  0  0  0  0  0  0  0  0  0  0
    0.9502   19.5920   46.7532 C   0  0  0  0  0  0  0  0  0  0  0  0
    0.9942   21.2886   45.0867 N   0  0  0  0  0  0  0  0  0  0  0  0
    0.9793   21.3796   43.7467 C   0  0  0  0  0  0  0  0  0  0  0  0
    1.0035   20.1513   43.2123 C   0  0  0  0  0  0  0  0  0  0  0  0
    1.0253   19.6190   41.9595 C   0  0  0  0  0  0  0  0  0  0  0  0
    1.0424   20.4176   40.8648 N   0  0  0  0  0  0  0  0  0  0  0  0
    0.7233   16.1489   40.5553 H   0  0  0  0  0  0  0  0  0  0  0  0
    0.7263   13.6740   40.2855 H   0  0  0  0  0  0  0  0  0  0  0  0
    1.0164   12.2049   42.2723 H   0  0  0  0  0  0  0  0  0  0  0  0
    1.2927   15.7025   44.8103 H   0  0  0  0  0  0  0  0  0  0  0  0
    1.7621   20.0582   47.3307 H   0  0  0  0  0  0  0  0  0  0  0  0
   -0.0174   19.8433   47.2121 H   0  0  0  0  0  0  0  0  0  0  0  0
    1.0822   18.5000   46.7506 H   0  0  0  0  0  0  0  0  0  0  0  0
    0.9516   22.3191   43.1753 H   0  0  0  0  0  0  0  0  0  0  0  0
    1.0344   21.4418   40.9742 H   0  0  0  0  0  0  0  0  0  0  0  0
    1.0635   20.0005   39.9233 H   0  0  0  0  0  0  0  0  0  0  0  0
  1  2  2  0
  1  6  1  0
  2  3  1  0
  3  4  2  0
  4  5  1  0
  5  6  2  0
  6  7  1  0
  7  8  2  0
  7  9  1  0
  8 16  1  0
  9 10  2  0
 10 11  1  0
 10 15  1  0
 11 12  1  0
 11 13  1  0
 13 14  2  0
 14 15  1  0
 15 16  2  0
 16 17  1  0
  1 18  1  0
  2 19  1  0
  3 20  1  0
  5 21  1  0
 12 22  1  0
 12 23  1  0
 12 24  1  0
 14 25  1  0
 17 26  1  0
 17 27  1  0
M  END
>  <mol_id>  (27) 
2026-09-18-6fnk-s0-n100-r7-0027

>  <rmsd_to_ref>  (27) 
1.6479591836761185

>  <pose_kind>  (27) 
rigid

$$$$
6fnk.A
     RDKit          3D

 27 29  0  0  0  0  0  0  0  0999 V2000
    1.1236   15.3975   43.4706 C   0  0  0  0  0  0  0  0  0  0  0  0
    1.4239   14.0458   43.5830 C   0  0  0  0  0  0  0  0  0  0  0  0
    2.3020   13.4822   42.6582 C   0  0  0  0  0  0  0  0  0  0  0  0
    2.8276   14.2679   41.6892 N   0  0  0  0  0  0  0  0  0  0  0  0
    2.5451   15.5779   41.5692 C   0  0  0  0  0  0  0  0  0  0  0  0
    1.6901   16.1463   42.4625 C   0  0  0  0  0  0  0  0  0  0  0  0
    1.3584   17.5716   42.3634 C   0  0  0  0  0  0  0  0  0  0  0  0
    1.8936   18.3310   41.3917 N   0  0  0  0  0  0  0  0  0  0  0  0
    0.5153   18.1455   43.2393 N   0  0  0  0  0  0  0  0  0  0  0  0
    0.1701   19.4447   43.2044 C   0  0  0  0  0  0  0  0  0  0  0  0
   -0.6275   20.2429   43.9387 N   0  0  0  0  0  0  0  0  0  0  0  0
   -1.3959   19.8143   45.0890 C   0  0  0  0  0  0  0  0  0  0  0  0
   -0.5784   21.4615   43.4245 N   0  0  0  0  0  0  0  0  0  0  0  0
    0.2413   21.4882   42.3566 C   0  0  0  0  0  0  0  0  0  0  0  0
    0.7360   20.2043   42.1930 C   0  0  0  0  0  0  0  0  0  0  0  0
    1.6101   19.6372   41.2745 C   0  0  0  0  0  0  0  0  0  0  0  0
    2.1497   20.4714   40.2695 N   0  0  0  0  0  0  0  0  0  0  0  0
    0.4495   15.8798   44.1623 H   0  0  0  0  0  0  0  0  0  0  0  0
    0.9898   13.4369   44.3685 H   0  0  0  0  0  0  0  0  0  0  0  0
    2.5501   12.4375   42.7243 H   0  0  0  0  0  0  0  0  0  0  0  0
    3.0135   16.1333   40.7592 H   0  0  0  0  0  0  0  0  0  0  0  0
   -0.7386   19.4414   45.8994 H   0  0  0  0  0  0  0  0  0  0  0  0
   -2.1441   19.0321   44.8642 H   0  0  0  0  0  0  0  0  0  0  0  0
   -1.9406   20.6766   45.5243 H   0  0  0  0  0  0  0  0  0  0  0  0
    0.4652   22.3460   41.7503 H   0  0  0  0  0  0  0  0  0  0  0  0
    2.5270   21.4395   40.4529 H   0  0  0  0  0  0  0  0  0  0  0  0
    2.1959   20.1505   39.2795 H   0  0  0  0  0  0  0  0  0  0  0  0
  1  2  2  0
  1  6  1  0
  2  3  1  0
  3  4  2  0
  4  5  1  0
  5  6  2  0
  6  7  1  0
  7  8  2  0
  7  9  1  0
  8 16  1  0
  9 10  2  0
 10 11  1  0
 10 15  1  0
 11 12  1  0
 11 13  1  0
 13 14  2  0
 14 15  1  0
 15 16  2  0
 16 17  1  0
  1 18  1  0
  2 19  1  0
  3 20  1  0
  5 21  1  0
 12 22  1  0
 12 23  1  0
 12 24  1  0
 14 25  1  0
 17 26  1  0
 17 27  1  0
M  END
>  <mol_id>  (28) 
2026-09-18-6fnk-s0-n100-r7-0028

>  <rmsd_to_ref>  (28) 
1.69387755102617

>  <pose_kind>  (28) 
conformer

$$$$
6fnk.A
     RDKit          3D

 27 29  0  0  0  0  0  0  0  0999 V2000
    3.8857   16.8905   41.3667 C   0  0  0  0  0  0  0  0  0  0  0  0
    4.8971   15.9297   41.3592 C   0  0  0  0  0  0  0  0  0  0  0  0
    4.6988   14.7102   41.9900 C   0  0  0  0  0  0  0  0  0  0  0  0
    3.4847   14.4442   42.6290 N   0  0  0  0  0  0  0  0  0  0  0  0
    2.4698   15.4132   42.6363 C   0  0  0  0  0  0  0  0  0  0  0  0
    2.6685   16.6394   42.0045 C   0  0  0  0  0  0  0  0  0  0  0  0
    1.6559   17.6041   42.0155 C   0  0  0  0  0  0  0  0  0  0  0  0
    1.8826   18.8481   41.5715 N   0  0  0  0  0  0  0  0  0  0  0  0
    0.4390   17.2861   42.4682 N   0  0  0  0  0  0  0  0  0  0  0  0
   -0.5574   18.1889   42.5023 C   0  0  0  0  0  0  0  0  0  0  0  0
   -1.8301   18.1088   42.9194 N   0  0  0  0  0  0  0  0  0  0  0  0
   -2.4814   16.9181   43.4735 C   0  0  0  0  0  0  0  0  0  0  0  0
   -2.4042   19.1878   42.7665 N   0  0  0  0  0  0  0  0  0  0  0  0
   -1.5269   20.0335   42.2014 C   0  0  0  0  0  0  0  0  0  0  0  0
   -0.3444   19.4215   42.0524 C   0  0  0  0  0  0  0  0  0  0  0  0
    0.8883   19.7551   41.5806 C   0  0  0  0  0  0  0  0  0  0  0  0
    1.1414   21.0032   41.1176 N   0  0  0  0  0  0  0  0  0  0  0  0
    4.0484   17.8559   40.8652 H   0  0  0  0  0  0  0  0  0  0  0  0
    5.8512   16.1390   40.8534 H   0  0  0  0  0  0  0  0  0  0  0  0
    5.4967   13.9530   41.9872 H   0  0  0  0  0  0  0  0  0  0  0  0
    1.5153   15.2045   43.1417 H   0  0  0  0  0  0  0  0  0  0  0  0
   -2.9574   17.1730   44.4318 H   0  0  0  0  0  0  0  0  0  0  0  0
   -3.2454   16.5569   42.7693 H   0  0  0  0  0  0  0  0  0  0  0  0
   -1.7302   16.1310   43.6350 H   0  0  0  0  0  0  0  0  0  0  0  0
   -1.7458   21.0703   41.9061 H   0  0  0  0  0  0  0  0  0  0  0  0
    0.3950   21.7130   41.1154 H   0  0  0  0  0  0  0  0  0  0  0  0
    2.0803   21.2422   40.7679 H   0  0  0  0  0  0  0  0  0  0  0  0
  1  2  2  0
  1  6  1  0
  2  3  1  0
  3  4  2  0
  4  5  1  0
  5  6  2  0
  6  7  1  0
  7  8  2  0
  7  9  1  0
  8 16  1  0
  9 10  2  0
 10 11  1  0
 10 15  1  0
 11 12  1  0
 11 13  1  0
 13 14  2  0
 14 15  1  0
 15 16  2  0
 16 17  1  0
  1 18  1  0
  2 19  1  0
  3 20  1  0
  5 21  1  0
 12 22  1  0
 12 23  1  0
 12 24  1  0
 14 25  1  0
 17 26  1  0
 17 27  1  0
M  END
>  <mol_id>  (29) 
2026-09-18-6fnk-s0-n100-r7-0029

>  <rmsd_to_ref>  (29) 
1.7397959183707308

>  <pose_kind>  (29) 
rigid

$$$$
6fnk.A
     RDKit          3D

 27 29  0  0  0  0  0  0  0  0999 V2000
    3.5892   17.2049   40.2352 C   0  0  0  0  0  0  0  0  0  0  0  0
    4.3362   16.4027   39.3939 C   0  0  0  0  0  0  0  0  0  0  0  0
    4.0855   15.0335   39.3081 C   0  0  0  0  0  0  0  0  0  0  0  0
    3.1208   14.4457   40.0298 N   0  0  0  0  0  0  0  0  0  0  0  0
    2.3729   15.2124   40.8639 C   0  0  0  0  0  0  0  0  0  0  0  0
    2.5965   16.5771   40.9727 C   0  0  0  0  0  0  0  0  0  0  0  0
    1.7779   17.3792   41.8772 C   0  0  0  0  0  0  0  0  0  0  0  0
    1.9703   18.7217   42.0087 N   0  0  0  0  0  0  0  0  0  0  0  0
    0.8091   16.7933   42.6029 N   0  0  0  0  0  0  0  0  0  0  0  0
    0.0283   17.4592   43.4435 C   0  0  0  0  0  0  0  0  0  0  0  0
   -0.9747   17.0890   44.2478 N   0  0  0  0  0  0  0  0  0  0  0  0
   -1.4753   15.7346   44.3864 C   0  0  0  0  0  0  0  0  0  0  0  0
   -1.4242   18.1387   44.8815 N   0  0  0  0  0  0  0  0  0  0  0  0
   -0.7168   19.2305   44.5008 C   0  0  0  0  0  0  0  0  0  0  0  0
    0.2255   18.8197   43.5747 C   0  0  0  0  0  0  0  0  0  0  0  0
    1.2164   19.4617   42.8422 C   0  0  0  0  0  0  0  0  0  0  0  0
    1.3945   20.8550   42.9977 N   0  0  0  0  0  0  0  0  0  0  0  0
    3.7857   18.2675   40.3001 H   0  0  0  0  0  0  0  0  0  0  0  0
    5.1281   16.8722   38.7986 H   0  0  0  0  0  0  0  0  0  0  0  0
    4.7041   14.4515   38.6301 H   0  0  0  0  0  0  0  0  0  0  0  0
    1.5900   14.7184   41.4458 H   0  0  0  0  0  0  0  0  0  0  0  0
   -1.4299   15.3771   45.4487 H   0  0  0  0  0  0  0  0  0  0  0  0
   -0.8481   15.0125   43.8228 H   0  0  0  0  0  0  0  0  0  0  0  0
   -2.5279   15.7168   44.0901 H   0  0  0  0  0  0  0  0  0  0  0  0
   -0.8607   20.2474   44.8567 H   0  0  0  0  0  0  0  0  0  0  0  0
    1.5312   21.3038   43.9311 H   0  0  0  0  0  0  0  0  0  0  0  0
    1.3997   21.5224   42.1811 H   0  0  0  0  0  0  0  0  0  0  0  0
  1  2  2  0
  1  6  1  0
  2  3  1  0
  3  4  2  0
  4  5  1  0
  5  6  2  0
  6  7  1  0
  7  8  2  0
  7  9  1  0
  8 16  1  0
  9 10  2  0
 10 11  1  0
 10 15  1  0
 11 12  1  0
 11 13  1  0
 13 14  2  0
 14 15  1  0
 15 16  2  0
 16 17  1  0
  1 18  1  0
  2 19  1  0
  3 20  1  0
  5 21  1  0
 12 22  1  0
 12 23  1  0
 12 24  1  0
 14 25  1  0
 17 26  1  0
 17 27  1  0
M  END
>  <mol_id>  (30) 
2026-09-18-6fnk-s0-n100-r7-0030

>  <rmsd_to_ref>  (30) 
1.7857142857191652

>  <pose_kind>  (30) 
conformer

$$$$
6fnk.A
     RDKit          3D

 27 29  0  0  0  0  0  0  0  0999 V2000
    3.4829   18.0330   41.0121 C   0  0  0  0  0  0  0  0  0  0  0  0
    4.0426   17.2209   40.0256 C   0  0  0  0  0  0  0  0  0  0  0  0
    3.5288   15.9525   39.7988 C   0  0  0  0  0  0  0  0  0  0  0  0
    2.4486   15.4913   40.5562 N   0  0  0  0  0  0  0  0  0  0  0  0
    1.8887   16.3098   41.5489 C   0  0  0  0  0  0  0  0  0  0  0  0
    2.4053   17.5836   41.7790 C   0  0  0  0  0  0  0  0  0  0  0  0
    1.8466   18.3963   42.7707 C   0  0  0  0  0  0  0  0  0  0  0  0
    2.4310   19.5475   43.1303 N   0  0  0  0  0  0  0  0  0  0  0  0
    0.7091   18.0290   43.3691 N   0  0  0  0  0  0  0  0  0  0  0  0
    0.1465   18.7797   44.3329 C   0  0  0  0  0  0  0  0  0  0  0  0
   -0.9600   18.6122   45.0731 N   0  0  0  0  0  0  0  0  0  0  0  0
   -1.8892   17.4816   44.9890 C   0  0  0  0  0  0  0  0  0  0  0  0
   -1.1090   19.5576   45.8485 N   0  0  0  0  0  0  0  0  0  0  0  0
   -0.1049   20.4218   45.6266 C   0  0  0  0  0  0  0  0  0  0  0  0
    0.7130   19.9291   44.6868 C   0  0  0  0  0  0  0  0  0  0  0  0
    1.8670   20.3184   44.0785 C   0  0  0  0  0  0  0  0  0  0  0  0
    2.4734   21.4820   44.4170 N   0  0  0  0  0  0  0  0  0  0  0  0
    3.8945   19.0379   41.1880 H   0  0  0  0  0  0  0  0  0  0  0  0
    4.8908   17.5861   39.4280 H   0  0  0  0  0  0  0  0  0  0  0  0
    3.9712   15.3101   39.0231 H   0  0  0  0  0  0  0  0  0  0  0  0
    1.0403   15.9454   42.1467 H   0  0  0  0  0  0  0  0  0  0  0  0
   -2.0441   17.0588   45.9926 H   0  0  0  0  0  0  0  0  0  0  0  0
   -2.8518   17.8274   44.5842 H   0  0  0  0  0  0  0  0  0  0  0  0
   -1.4690   16.7101   44.3270 H   0  0  0  0  0  0  0  0  0  0  0  0
    0.0258   21.3867   46.1383 H   0  0  0  0  0  0  0  0  0  0  0  0
    2.0591   22.0873   45.1402 H   0  0  0  0  0  0  0  0  0  0  0  0
    3.3486   21.7613   43.9512 H   0  0  0  0  0  0  0  0  0  0  0  0
  1  2  2  0
  1  6  1  0
  2  3  1  0
  3  4  2  0
  4  5  1  0
  5  6  2  0
  6  7  1  0
  7  8  2  0
  7  9  1  0
  8 16  1  0
  9 10  2  0
 10 11  1  0
 10 15  1  0
 11 12  1  0
 11 13  1  0
 13 14  2  0
 14 15  1  0
 15 16  2  0
 16 17  1  0
  1 18  1  0
  2 19  1  0
  3 20  1  0
  5 21  1  0
 12 22  1  0
 12 23  1  0
 12 24  1  0
 14 25  1  0
 17 26  1  0
 17 27  1  0
M  END
>  <mol_id>  (31) 
2026-09-18-6fnk-s0-n100-r7-0031

>  <rmsd_to_ref>  (31) 
1.8316326530618088

>  <pose_kind>  (31) 
rigid

$$$$
6fnk.A
     RDKit          3D

 27 29  0  0  0  0  0  0  0  0999 V2000
    2.6691   16.1736   40.6911 C   0  0  0  0  0  0  0  0  0  0  0  0
    2.4229   14.9920   40.0181 C   0  0  0  0  0  0  0  0  0  0  0  0
    1.2330   14.3447   40.3166 C   0  0  0  0  0  0  0  0  0  0  0  0
    0.3531   14.8260   41.2106 N   0  0  0  0  0  0  0  0  0  0  0  0
    0.6218   15.9863   41.8544 C   0  0  0  0  0  0  0  0  0  0  0  0
    1.7788   16.6810   41.6099 C   0  0  0  0  0  0  0  0  0  0  0  0
    2.0937   17.9378   42.2921 C   0  0  0  0  0  0  0  0  0  0  0  0
    3.2461   18.5958   42.0248 N   0  0  0  0  0  0  0  0  0  0  0  0
    1.2298   18.4392   43.1900 N   0  0  0  0  0  0  0  0  0  0  0  0
    1.4908   19.5948   43.8353 C   0  0  0  0  0  0  0  0  0  0  0  0
    0.8646   20.3374   44.7521 N   0  0  0  0  0  0  0  0  0  0  0  0
   -0.4099   20.0139   45.3311 C   0  0  0  0  0  0  0  0  0  0  0  0
    1.5763   21.4128   45.0562 N   0  0  0  0  0  0  0  0  0  0  0  0
    2.7011   21.3808   44.3225 C   0  0  0  0  0  0  0  0  0  0  0  0
    2.6702   20.2488   43.5482 C   0  0  0  0  0  0  0  0  0  0  0  0
    3.5649   19.7549   42.6361 C   0  0  0  0  0  0  0  0  0  0  0  0
    4.7897   20.3731   42.2952 N   0  0  0  0  0  0  0  0  0  0  0  0
    3.5840   16.7307   40.5032 H   0  0  0  0  0  0  0  0  0  0  0  0
    3.1367   14.6069   39.2967 H   0  0  0  0  0  0  0  0  0  0  0  0
    1.0541   13.4112   39.7751 H   0  0  0  0  0  0  0  0  0  0  0  0
   -0.0814   16.3702   42.5682 H   0  0  0  0  0  0  0  0  0  0  0  0
   -1.1192   20.8895   45.2829 H   0  0  0  0  0  0  0  0  0  0  0  0
   -0.9271   19.2083   44.7471 H   0  0  0  0  0  0  0  0  0  0  0  0
   -0.3693   19.6595   46.3581 H   0  0  0  0  0  0  0  0  0  0  0  0
    3.4965   22.1131   44.3330 H   0  0  0  0  0  0  0  0  0  0  0  0
    5.7067   19.8947   42.5413 H   0  0  0  0  0  0  0  0  0  0  0  0
    4.7746   21.2942   41.8047 H   0  0  0  0  0  0  0  0  0  0  0  0
  1  2  2  0
  1  6  1  0
  2  3  1  0
  3  4  2  0
  4  5  1  0
  5  6  2  0
  6  7  1  0
  7  8  2  0
  7  9  1  0
  8 16  1  0
  9 10  2  0
 10 11  1  0
 10 15  1  0
 11 12  1  0
 11 13  1  0
 13 14  2  0
 14 15  1  0
 15 16  2  0
 16 17  1  0
  1 18  1  0
  2 19  1  0
  3 20  1  0
  5 21  1  0
 12 22  1  0
 12 23  1  0
 12 24  1  0
 14 25  1  0
 17 26  1  0
 17 27  1  0
M  END
>  <mol_id>  (32) 
2026-09-18-6fnk-s0-n100-r7-0032

>  <rmsd_to_ref>  (32) 
1.8775510204133858

>  <pose_kind>  (32) 
conformer

$$$$
6fnk.A
     RDKit          3D

 27 29  0  0  0  0  0  0  0  0999 V2000
    2.6022   17.2931   40.4474 C   0  0  0  0  0  0  0  0  0  0  0  0
    3.2683   16.5497   39.4729 C   0  0  0  0  0  0  0  0  0  0  0  0
    3.9030   15.3655   39.8184 C   0  0  0  0  0  0  0  0  0  0  0  0
    3.8711   14.9169   41.1416 N   0  0  0  0  0  0  0  0  0  0  0  0
    3.2016   15.6676   42.1200 C   0  0  0  0  0  0  0  0  0  0  0  0
    2.5653   16.8583   41.7744 C   0  0  0  0  0  0  0  0  0  0  0  0
    1.9008   17.6056   42.7522 C   0  0  0  0  0  0  0  0  0  0  0  0
    1.4344   18.8332   42.4847 N   0  0  0  0  0  0  0  0  0  0  0  0
    1.7185   17.0917   43.9727 N   0  0  0  0  0  0  0  0  0  0  0  0
    1.0921   17.7833   44.9413 C   0  0  0  0  0  0  0  0  0  0  0  0
    0.8120   17.4885   46.2200 N   0  0  0  0  0  0  0  0  0  0  0  0
    1.1471   16.2386   46.9088 C   0  0  0  0  0  0  0  0  0  0  0  0
    0.2127   18.4206   46.7576 N   0  0  0  0  0  0  0  0  0  0  0  0
    0.0401   19.3762   45.8295 C   0  0  0  0  0  0  0  0  0  0  0  0
    0.6156   18.9966   44.6808 C   0  0  0  0  0  0  0  0  0  0  0  0
    0.7872   19.5274   43.4390 C   0  0  0  0  0  0  0  0  0  0  0  0
    0.3175   20.7629   43.1397 N   0  0  0  0  0  0  0  0  0  0  0  0
    2.1009   18.2314   40.1679 H   0  0  0  0  0  0  0  0  0  0  0  0
    3.2903   16.9022   38.4311 H   0  0  0  0  0  0  0  0  0  0  0  0
    4.4311   14.7800   39.0514 H   0  0  0  0  0  0  0  0  0  0  0  0
    3.1791   15.3155   43.1618 H   0  0  0  0  0  0  0  0  0  0  0  0
    1.6736   16.4669   47.8472 H   0  0  0  0  0  0  0  0  0  0  0  0
    0.2237   15.6840   47.1320 H   0  0  0  0  0  0  0  0  0  0  0  0
    1.7954   15.6270   46.2640 H   0  0  0  0  0  0  0  0  0  0  0  0
   -0.4925   20.3255   45.9884 H   0  0  0  0  0  0  0  0  0  0  0  0
   -0.1808   21.3116   43.8549 H   0  0  0  0  0  0  0  0  0  0  0  0
    0.4588   21.1532   42.1970 H   0  0  0  0  0  0  0  0  0  0  0  0
  1  2  2  0
  1  6  1  0
  2  3  1  0
  3  4  2  0
  4  5  1  0
  5  6  2  0
  6  7  1  0
  7  8  2  0
  7  9  1  0
  8 16  1  0
  9 10  2  0
 10 11  1  0
 10 15  1  0
 11 12  1  0
 11 13  1  0
 13 14  2  0
 14 15  1  0
 15 16  2  0
 16 17  1  0
  1 18  1  0
  2 19  1  0
  3 20  1  0
  5 21  1  0
 12 22  1  0
 12 23  1  0
 12 24  1  0
 14 25  1  0
 17 26  1  0
 17 27  1  0
M  END
>  <mol_id>  (33) 
2026-09-18-6fnk-s0-n100-r7-0033

>  <rmsd_to_ref>  (33) 
1.9234693877610327

>  <pose_kind>  (33) 
rigid

$$$$
6fnk.A
     RDKit          3D

 27 29  0  0  0  0  0  0  0  0999 V2000
    2.9548   15.8948   41.2521 C   0  0  0  0  0  0  0  0  0  0  0  0
    3.6624   15.1361   40.3645 C   0  0  0  0  0  0  0  0  0  0  0  0
    4.1958   15.7446   39.2633 C   0  0  0  0  0  0  0  0  0  0  0  0
    4.0539   17.0612   39.0152 N   0  0  0  0  0  0  0  0  0  0  0  0
    3.3553   17.8329   39.8834 C   0  0  0  0  0  0  0  0  0  0  0  0
    2.8061   17.2431   41.0037 C   0  0  0  0  0  0  0  0  0  0  0  0
    2.0506   18.0661   41.9469 C   0  0  0  0  0  0  0  0  0  0  0  0
    1.8921   19.3825   41.7264 N   0  0  0  0  0  0  0  0  0  0  0  0
    1.5052   17.5183   43.0457 N   0  0  0  0  0  0  0  0  0  0  0  0
    0.8087   18.2359   43.9304 C   0  0  0  0  0  0  0  0  0  0  0  0
    0.1701   17.9512   45.0863 N   0  0  0  0  0  0  0  0  0  0  0  0
    0.1091   16.6137   45.6761 C   0  0  0  0  0  0  0  0  0  0  0  0
   -0.3625   19.0572   45.5591 N   0  0  0  0  0  0  0  0  0  0  0  0
   -0.1100   20.1112   44.7576 C   0  0  0  0  0  0  0  0  0  0  0  0
    0.6399   19.5872   43.7140 C   0  0  0  0  0  0  0  0  0  0  0  0
    1.1929   20.1697   42.5900 C   0  0  0  0  0  0  0  0  0  0  0  0
    1.0578   21.5609   42.3037 N   0  0  0  0  0  0  0  0  0  0  0  0
    2.5174   15.4254   42.1443 H   0  0  0  0  0  0  0  0  0  0  0  0
    3.7711   14.0698   40.5757 H   0  0  0  0  0  0  0  0  0  0  0  0
    4.7612   15.1431   38.5522 H   0  0  0  0  0  0  0  0  0  0  0  0
    3.2460   18.9003   39.6727 H   0  0  0  0  0  0  0  0  0  0  0  0
   -0.0076   15.8569   44.8705 H   0  0  0  0  0  0  0  0  0  0  0  0
   -0.7003   16.6079   46.4238 H   0  0  0  0  0  0  0  0  0  0  0  0
    1.0569   16.3555   46.2194 H   0  0  0  0  0  0  0  0  0  0  0  0
   -0.4130   21.1443   44.8787 H   0  0  0  0  0  0  0  0  0  0  0  0
    0.1431   22.0641   42.3180 H   0  0  0  0  0  0  0  0  0  0  0  0
    1.9639   22.0659   42.0696 H   0  0  0  0  0  0  0  0  0  0  0  0
  1  2  2  0
  1  6  1  0
  2  3  1  0
  3  4  2  0
  4  5  1  0
  5  6  2  0
  6  7  1  0
  7  8  2  0
  7  9  1  0
  8 16  1  0
  9 10  2  0
 10 11  1  0
 10 15  1  0
 11 12  1  0
 11 13  1  0
 13 14  2  0
 14 15  1  0
 15 16  2  0
 16 17  1  0
  1 18  1  0
  2 19  1  0
  3 20  1  0
  5 21  1  0
 12 22  1  0
 12 23  1  0
 12 24  1  0
 14 25  1  0
 17 26  1  0
 17 27  1  0
M  END
>  <mol_id>  (34) 
2026-09-18-6fnk-s0-n100-r7-0034

>  <rmsd_to_ref>  (34) 
1.9693877551021577

>  <pose_kind>  (34) 
conformer

$$$$
6fnk.A
     RDKit          3D

 27 29  0  0  0  0  0  0  0  0999 V2000
    1.7076   15.2426   41.1681 C   0  0  0  0  0  0  0  0  0  0  0  0
    1.7331   13.8787   41.4596 C   0  0  0  0  0  0  0  0  0  0  0  0
    1.5739   13.4469   42.7683 C   0  0  0  0  0  0  0  0  0  0  0  0
    1.3845   14.3787   43.7925 N   0  0  0  0  0  0  0  0  0  0  0  0
    1.3609   15.7501   43.4965 C   0  0  0  0  0  0  0  0  0  0  0  0
    1.5226   16.1852   42.1824 C   0  0  0  0  0  0  0  0  0  0  0  0
    1.5009   17.5529   41.8908 C   0  0  0  0  0  0  0  0  0  0  0  0
    1.8271   18.0042   40.6718 N   0  0  0  0  0  0  0  0  0  0  0  0
    1.1443   18.4290   42.8354 N   0  0  0  0  0  0  0  0  0  0  0  0
    1.1199   19.7520   42.5952 C   0  0  0  0  0  0  0  0  0  0  0  0
    0.8177   20.8024   43.3735 N   0  0  0  0  0  0  0  0  0  0  0  0
    0.4047   20.7422   44.7787 C   0  0  0  0  0  0  0  0  0  0  0  0
    0.9239   21.8541   42.7412 N   0  0  0  0  0  0  0  0  0  0  0  0
    1.2767   21.5344   41.4852 C   0  0  0  0  0  0  0  0  0  0  0  0
    1.4300   20.2072   41.3853 C   0  0  0  0  0  0  0  0  0  0  0  0
    1.7863   19.3242   40.4123 C   0  0  0  0  0  0  0  0  0  0  0  0
    2.1120   19.7535   39.1689 N   0  0  0  0  0  0  0  0  0  0  0  0
    1.8345   15.5795   40.1287 H   0  0  0  0  0  0  0  0  0  0  0  0
    1.8792   13.1460   40.6522 H   0  0  0  0  0  0  0  0  0  0  0  0
    1.5968   12.3717   42.9997 H   0  0  0  0  0  0  0  0  0  0  0  0
    1.2146   16.4833   44.3033 H   0  0  0  0  0  0  0  0  0  0  0  0
    1.0339   21.4192   45.3751 H   0  0  0  0  0  0  0  0  0  0  0  0
   -0.6481   21.0491   44.8649 H   0  0  0  0  0  0  0  0  0  0  0  0
    0.5183   19.7132   45.1506 H   0  0  0  0  0  0  0  0  0  0  0  0
    1.4181   22.2525   40.6641 H   0  0  0  0  0  0  0  0  0  0  0  0
    2.0875   20.7593   38.9484 H   0  0  0  0  0  0  0  0  0  0  0  0
    2.3840   19.0739   38.4442 H   0  0  0  0  0  0  0  0  0  0  0  0
  1  2  2  0
  1  6  1  0
  2  3  1  0
  3  4  2  0
  4  5  1  0
  5  6  2  0
  6  7  1  0
  7  8  2  0
  7  9  1  0
  8 16  1  0
  9 10  2  0
 10 11  1  0
 10 15  1  0
 11 12  1  0
 11 13  1  0
 13 14  2  0
 14 15  1  0
 15 16  2  0
 16 17  1  0
  1 18  1  0
  2 19  1  0
  3 20  1  0
  5 21  1  0
 12 22  1  0
 12 23  1  0
 12 24  1  0
 14 25  1  0
 17 26  1  0
 17 27  1  0
M  END
>  <mol_id>  (35) 
2026-09-18-6fnk-s0-n100-r7-0035

>  <rmsd_to_ref>  (35) 
2.0153061224493425

>  <pose_kind>  (35) 
rigid

$$$$
6fnk.A
     RDKit          3D

 27 29  0  0  0  0  0  0  0  0999 V2000
    1.9812   15.4851   43.4240 C   0  0  0  0  0  0  0  0  0  0  0  0
    2.5697   14.2534   43.6489 C   0  0  0  0  0  0  0  0  0  0  0  0
    3.3082   13.6400   42.6627 C   0  0  0  0  0  0  0  0  0  0  0  0
    3.4405   14.2698   41.4794 N   0  0  0  0  0  0  0  0  0  0  0  0
    2.8805   15.4666   41.2316 C   0  0  0  0  0  0  0  0  0  0  0  0
    2.1289   16.1125   42.2061 C   0  0  0  0  0  0  0  0  0  0  0  0
    1.5436   17.4034   41.8928 C   0  0  0  0  0  0  0  0  0  0  0  0
    1.7646   17.9056   40.6645 N   0  0  0  0  0  0  0  0  0  0  0  0
    0.8132   18.1053   42.7387 N   0  0  0  0  0  0  0  0  0  0  0  0
    0.2788   19.3059   42.4226 C   0  0  0  0  0  0  0  0  0  0  0  0
   -0.4810   20.2045   43.0735 N   0  0  0  0  0  0  0  0  0  0  0  0
   -0.9562   20.0702   44.4281 C   0  0  0  0  0  0  0  0  0  0  0  0
   -0.7461   21.2468   42.3089 N   0  0  0  0  0  0  0  0  0  0  0  0
   -0.1656   21.0783   41.1067 C   0  0  0  0  0  0  0  0  0  0  0  0
    0.4826   19.8599   41.1663 C   0  0  0  0  0  0  0  0  0  0  0  0
    1.2510   19.1121   40.2892 C   0  0  0  0  0  0  0  0  0  0  0  0
    1.4835   19.6470   38.9879 N   0  0  0  0  0  0  0  0  0  0  0  0
    1.4052   15.9707   44.1835 H   0  0  0  0  0  0  0  0  0  0  0  0
    2.4242   13.8049   44.6180 H   0  0  0  0  0  0  0  0  0  0  0  0
    3.7675   12.6770   42.8402 H   0  0  0  0  0  0  0  0  0  0  0  0
    3.0388   15.9032   40.2472 H   0  0  0  0  0  0  0  0  0  0  0  0
   -0.4359   20.8793   45.0066 H   0  0  0  0  0  0  0  0  0  0  0  0
   -2.0556   20.2507   44.4263 H   0  0  0  0  0  0  0  0  0  0  0  0
   -0.7415   19.0644   44.8339 H   0  0  0  0  0  0  0  0  0  0  0  0
   -0.1643   21.7168   40.2344 H   0  0  0  0  0  0  0  0  0  0  0  0
    0.8887   19.4049   38.1644 H   0  0  0  0  0  0  0  0  0  0  0  0
    2.2687   20.3140   38.7951 H   0  0  0  0  0  0  0  0  0  0  0  0
  1  2  2  0
  1  6  1  0
  2  3  1  0
  3  4  2  0
  4  5  1  0
  5  6  2  0
  6  7  1  0
  7  8  2  0
  7  9  1  0
  8 16  1  0
  9 10  2  0
 10 11  1  0
 10 15  1  0
 11 12  1  0
 11 13  1  0
 13 14  2  0
 14 15  1  0
 15 16  2  0
 16 17  1  0
  1 18  1  0
  2 19  1  0
  3 20  1  0
  5 21  1  0
 12 22  1  0
 12 23  1  0
 12 24  1  0
 14 25  1  0
 17 26  1  0
 17 27  1  0
M  END
>  <mol_id>  (36) 
2026-09-18-6fnk-s0-n100-r7-0036

>  <rmsd_to_ref>  (36) 
2.0612244897961554

>  <pose_kind>  (36) 
conformer

$$$$
6fnk.A
     RDKit          3D

 27 29  0  0  0  0  0  0  0  0999 V2000
    1.5309   15.1113   42.0939 C   0  0  0  0  0  0  0  0  0  0  0  0
    1.5386   13.7700   42.4772 C   0  0  0  0  0  0  0  0  0  0  0  0
    1.0044   13.3964   43.7018 C   0  0  0  0  0  0  0  0  0  0  0  0
    0.4558   14.3638   44.5482 N   0  0  0  0  0  0  0  0  0  0  0  0
    0.4509   15.7123   44.1606 C   0  0  0  0  0  0  0  0  0  0  0  0
    0.9890   16.0891   42.9315 C   0  0  0  0  0  0  0  0  0  0  0  0
    0.9848   17.4344   42.5489 C   0  0  0  0  0  0  0  0  0  0  0  0
    1.6486   17.8444   41.4592 N   0  0  0  0  0  0  0  0  0  0  0  0
    0.3052   18.3297   43.2725 N   0  0  0  0  0  0  0  0  0  0  0  0
    0.2848   19.6330   42.9411 C   0  0  0  0  0  0  0  0  0  0  0  0
   -0.3008   20.6972   43.5109 N   0  0  0  0  0  0  0  0  0  0  0  0
   -1.1262   20.6800   44.7223 C   0  0  0  0  0  0  0  0  0  0  0  0
   -0.0607   21.7195   42.8672 N   0  0  0  0  0  0  0  0  0  0  0  0
    0.6817   21.3617   41.8065 C   0  0  0  0  0  0  0  0  0  0  0  0
    0.9304   20.0461   41.8549 C   0  0  0  0  0  0  0  0  0  0  0  0
    1.6188   19.1424   41.1047 C   0  0  0  0  0  0  0  0  0  0  0  0
    2.2909   19.5292   39.9934 N   0  0  0  0  0  0  0  0  0  0  0  0
    1.9561   15.4019   41.1219 H   0  0  0  0  0  0  0  0  0  0  0  0
    1.9680   13.0091   41.8090 H   0  0  0  0  0  0  0  0  0  0  0  0
    1.0127   12.3395   44.0064 H   0  0  0  0  0  0  0  0  0  0  0  0
    0.0214   16.4738   44.8283 H   0  0  0  0  0  0  0  0  0  0  0  0
   -0.7512   21.4319   45.4322 H   0  0  0  0  0  0  0  0  0  0  0  0
   -2.1687   20.9121   44.4590 H   0  0  0  0  0  0  0  0  0  0  0  0
   -1.0780   19.6830   45.1846 H   0  0  0  0  0  0  0  0  0  0  0  0
    1.0321   22.0446   41.0185 H   0  0  0  0  0  0  0  0  0  0  0  0
    2.2816   20.5176   39.7038 H   0  0  0  0  0  0  0  0  0  0  0  0
    2.8111   18.8348   39.4383 H   0  0  0  0  0  0  0  0  0  0  0  0
  1  2  2  0
  1  6  1  0
  2  3  1  0
  3  4  2  0
  4  5  1  0
  5  6  2  0
  6  7  1  0
  7  8  2  0
  7  9  1  0
  8 16  1  0
  9 10  2  0
 10 11  1  0
 10 15  1  0
 11 12  1  0
 11 13  1  0
 13 14  2  0
 14 15  1  0
 15 16  2  0
 16 17  1  0
  1 18  1  0
  2 19  1  0
  3 20  1  0
  5 21  1  0
 12 22  1  0
 12 23  1  0
 12 24  1  0
 14 25  1  0
 17 26  1  0
 17 27  1  0
M  END
>  <mol_id>  (37) 
2026-09-18-6fnk-s0-n100-r7-0037

>  <rmsd_to_ref>  (37) 
2.1071428571485473

>  <pose_kind>  (37) 
rigid

$$$$
6fnk.A
     RDKit          3D

 27 29  0  0  0  0  0  0  0  0999 V2000
    0.2924   15.4117   43.0689 C   0  0  0  0  0  0  0  0  0  0  0  0
    0.3386   14.0427   43.2150 C   0  0  0  0  0  0  0  0  0  0  0  0
    1.3005   13.3182   42.5568 C   0  0  0  0  0  0  0  0  0  0  0  0
    2.2294   13.8778   41.7535 N   0  0  0  0  0  0  0  0  0  0  0  0
    2.1954   15.2322   41.5998 C   0  0  0  0  0  0  0  0  0  0  0  0
    1.2402   15.9889   42.2485 C   0  0  0  0  0  0  0  0  0  0  0  0
    1.2336   17.4359   42.0609 C   0  0  0  0  0  0  0  0  0  0  0  0
    2.1461   18.0259   41.2664 N   0  0  0  0  0  0  0  0  0  0  0  0
    0.3179   18.2045   42.6770 N   0  0  0  0  0  0  0  0  0  0  0  0
    0.2869   19.5410   42.5233 C   0  0  0  0  0  0  0  0  0  0  0  0
   -0.5116   20.5316   43.0179 N   0  0  0  0  0  0  0  0  0  0  0  0
   -1.6274   20.3286   43.9203 C   0  0  0  0  0  0  0  0  0  0  0  0
   -0.1218   21.6954   42.5571 N   0  0  0  0  0  0  0  0  0  0  0  0
    0.9412   21.4850   41.7511 C   0  0  0  0  0  0  0  0  0  0  0  0
    1.2401   20.1345   41.6964 C   0  0  0  0  0  0  0  0  0  0  0  0
    2.1847   19.3570   41.0589 C   0  0  0  0  0  0  0  0  0  0  0  0
    3.1465   19.9862   40.2205 N   0  0  0  0  0  0  0  0  0  0  0  0
   -0.4554   16.0047   43.5767 H   0  0  0  0  0  0  0  0  0  0  0  0
   -0.4105   13.6025   43.8613 H   0  0  0  0  0  0  0  0  0  0  0  0
    1.3390   12.2482   42.6692 H   0  0  0  0  0  0  0  0  0  0  0  0
    2.9525   15.6399   40.9516 H   0  0  0  0  0  0  0  0  0  0  0  0
   -1.5302   21.0161   44.8098 H   0  0  0  0  0  0  0  0  0  0  0  0
   -1.6240   19.2839   44.2845 H   0  0  0  0  0  0  0  0  0  0  0  0
   -2.6018   20.6098   43.4736 H   0  0  0  0  0  0  0  0  0  0  0  0
    1.4954   22.2574   41.2134 H   0  0  0  0  0  0  0  0  0  0  0  0
    4.1104   20.2450   40.5487 H   0  0  0  0  0  0  0  0  0  0  0  0
    2.8672   20.1936   39.2382 H   0  0  0  0  0  0  0  0  0  0  0  0
  1  2  2  0
  1  6  1  0
  2  3  1  0
  3  4  2  0
  4  5  1  0
  5  6  2  0
  6  7  1  0
  7  8  2  0
  7  9  1  0
  8 16  1  0
  9 10  2  0
 10 11  1  0
 10 15  1  0
 11 12  1  0
 11 13  1  0
 13 14  2  0
 14 15  1  0
 15 16  2  0
 16 17  1  0
  1 18  1  0
  2 19  1  0
  3 20  1  0
  5 21  1  0
 12 22  1  0
 12 23  1  0
 12 24  1  0
 14 25  1  0
 17 26  1  0
 17 27  1  0
M  END
>  <mol_id>  (38) 
2026-09-18-6fnk-s0-n100-r7-0038

>  <rmsd_to_ref>  (38) 
2.1530612244964122

>  <pose_kind>  (38) 
conformer

$$$$
6fnk.A
     RDKit          3D

 27 29  0  0  0  0  0  0  0  0999 V2000
    2.6098   18.2046   40.3504 C   0  0  0  0  0  0  0  0  0  0  0  0
    3.7475   17.7006   39.7199 C   0  0  0  0  0  0  0  0  0  0  0  0
    4.5086   16.7221   40.3426 C   0  0  0  0  0  0  0  0  0  0  0  0
    4.1324   16.2397   41.5992 N   0  0  0  0  0  0  0  0  0  0  0  0
    2.9883   16.7496   42.2316 C   0  0  0  0  0  0  0  0  0  0  0  0
    2.2240   17.7340   41.6079 C   0  0  0  0  0  0  0  0  0  0  0  0
    1.0855   18.2420   42.2418 C   0  0  0  0  0  0  0  0  0  0  0  0
    0.4366   19.3054   41.7476 N   0  0  0  0  0  0  0  0  0  0  0  0
    0.6277   17.6593   43.3544 N   0  0  0  0  0  0  0  0  0  0  0  0
   -0.4586   18.1243   43.9967 C   0  0  0  0  0  0  0  0  0  0  0  0
   -1.0826   17.7241   45.1150 N   0  0  0  0  0  0  0  0  0  0  0  0
   -0.6941   16.5903   45.9592 C   0  0  0  0  0  0  0  0  0  0  0  0
   -2.0564   18.4416   45.3475 N   0  0  0  0  0  0  0  0  0  0  0  0
   -2.1370   19.3439   44.3557 C   0  0  0  0  0  0  0  0  0  0  0  0
   -1.1153   19.1710   43.5065 C   0  0  0  0  0  0  0  0  0  0  0  0
   -0.6641   19.7677   42.3690 C   0  0  0  0  0  0  0  0  0  0  0  0
   -1.3068   20.8388   41.8435 N   0  0  0  0  0  0  0  0  0  0  0  0
    2.0101   18.9806   39.8522 H   0  0  0  0  0  0  0  0  0  0  0  0
    4.0410   18.0789   38.7296 H   0  0  0  0  0  0  0  0  0  0  0  0
    5.4076   16.3262   39.8477 H   0  0  0  0  0  0  0  0  0  0  0  0
    2.6940   16.3716   43.2218 H   0  0  0  0  0  0  0  0  0  0  0  0
   -0.6123   16.9227   47.0046 H   0  0  0  0  0  0  0  0  0  0  0  0
   -1.4552   15.7997   45.8843 H   0  0  0  0  0  0  0  0  0  0  0  0
    0.2767   16.1979   45.6221 H   0  0  0  0  0  0  0  0  0  0  0  0
   -2.9220   20.1080   44.2560 H   0  0  0  0  0  0  0  0  0  0  0  0
   -2.1512   21.2090   42.3028 H   0  0  0  0  0  0  0  0  0  0  0  0
   -0.9511   21.2825   40.9848 H   0  0  0  0  0  0  0  0  0  0  0  0
  1  2  2  0
  1  6  1  0
  2  3  1  0
  3  4  2  0
  4  5  1  0
  5  6  2  0
  6  7  1  0
  7  8  2  0
  7  9  1  0
  8 16  1  0
  9 10  2  0
 10 11  1  0
 10 15  1  0
 11 12  1  0
 11 13  1  0
 13 14  2  0
 14 15  1  0
 15 16  2  0
 16 17  1  0
  1 18  1  0
  2 19  1  0
  3 20  1  0
  5 21  1  0
 12 22  1  0
 12 23  1  0
 12 24  1  0
 14 25  1  0
 17 26  1  0
 17 27  1  0
M  END
>  <mol_id>  (39) 
2026-09-18-6fnk-s0-n100-r7-0039

>  <rmsd_to_ref>  (39) 
2.1989795918437967

>  <pose_kind>  (39) 
rigid

$$$$
6fnk.A
     RDKit          3D

 27 29  0  0  0  0  0  0  0  0999 V2000
    4.3686   15.3164   43.1022 C   0  0  0  0  0  0  0  0  0  0  0  0
    4.5797   13.9342   43.1506 C   0  0  0  0  0  0  0  0  0  0  0  0
    3.4744   13.0850   43.0383 C   0  0  0  0  0  0  0  0  0  0  0  0
    2.2257   13.5674   42.8863 N   0  0  0  0  0  0  0  0  0  0  0  0
    2.0168   14.9024   42.8390 C   0  0  0  0  0  0  0  0  0  0  0  0
    3.0673   15.8057   42.9440 C   0  0  0  0  0  0  0  0  0  0  0  0
    2.8411   17.2591   42.8927 C   0  0  0  0  0  0  0  0  0  0  0  0
    3.8803   18.1132   42.9972 N   0  0  0  0  0  0  0  0  0  0  0  0
    1.5813   17.6872   42.7403 N   0  0  0  0  0  0  0  0  0  0  0  0
    1.3348   19.0090   42.6889 C   0  0  0  0  0  0  0  0  0  0  0  0
    0.2115   19.7555   42.5467 N   0  0  0  0  0  0  0  0  0  0  0  0
   -1.1555   19.2342   42.3986 C   0  0  0  0  0  0  0  0  0  0  0  0
    0.5381   21.0536   42.5616 N   0  0  0  0  0  0  0  0  0  0  0  0
    1.8702   21.1917   42.7124 C   0  0  0  0  0  0  0  0  0  0  0  0
    2.3680   19.9165   42.7919 C   0  0  0  0  0  0  0  0  0  0  0  0
    3.6594   19.4477   42.9486 C   0  0  0  0  0  0  0  0  0  0  0  0
    4.7889   20.2961   43.0636 N   0  0  0  0  0  0  0  0  0  0  0  0
    5.2123   16.0067   43.1872 H   0  0  0  0  0  0  0  0  0  0  0  0
    5.5785   13.5224   43.2727 H   0  0  0  0  0  0  0  0  0  0  0  0
    3.5859   12.0131   43.0699 H   0  0  0  0  0  0  0  0  0  0  0  0
    0.9958   15.2573   42.7154 H   0  0  0  0  0  0  0  0  0  0  0  0
   -1.7796   19.7543   43.1574 H   0  0  0  0  0  0  0  0  0  0  0  0
   -1.5131   19.3327   41.3634 H   0  0  0  0  0  0  0  0  0  0  0  0
   -1.1337   18.1538   42.6438 H   0  0  0  0  0  0  0  0  0  0  0  0
    2.4503   22.1190   42.7629 H   0  0  0  0  0  0  0  0  0  0  0  0
    4.8230   21.1055   43.7175 H   0  0  0  0  0  0  0  0  0  0  0  0
    5.6149   20.0882   42.4605 H   0  0  0  0  0  0  0  0  0  0  0  0
  1  2  2  0
  1  6  1  0
  2  3  1  0
  3  4  2  0
  4  5  1  0
  5  6  2  0
  6  7  1  0
  7  8  2  0
  7  9  1  0
  8 16  1  0
  9 10  2  0
 10 11  1  0
 10 15  1  0
 11 12  1  0
 11 13  1  0
 13 14  2  0
 14 15  1  0
 15 16  2  0
 16 17  1  0
  1 18  1  0
  2 19  1  0
  3 20  1  0
  5 21  1  0
 12 22  1  0
 12 23  1  0
 12 24  1  0
 14 25  1  0
 17 26  1  0
 17 27  1  0
M  END
>  <mol_id>  (40) 
2026-09-18-6fnk-s0-n100-r7-0040

>  <rmsd_to_ref>  (40) 
2.2448979591873974

>  <pose_kind>  (40) 
conformer

$$$$
6fnk.A
     RDKit          3D

 27 29  0  0  0  0  0  0  0  0999 V2000
   -0.3715   15.2453   40.2720 C   0  0  0  0  0  0  0  0  0  0  0  0
   -0.3564   13.8829   39.9725 C   0  0  0  0  0  0  0  0  0  0  0  0
    0.4378   13.0196   40.7130 C   0  0  0  0  0  0  0  0  0  0  0  0
    1.2190   13.5153   41.7605 N   0  0  0  0  0  0  0  0  0  0  0  0
    1.2030   14.8864   42.0584 C   0  0  0  0  0  0  0  0  0  0  0  0
    0.4069   15.7549   41.3140 C   0  0  0  0  0  0  0  0  0  0  0  0
    0.3949   17.1214   41.6117 C   0  0  0  0  0  0  0  0  0  0  0  0
   -0.2207   17.9982   40.8064 N   0  0  0  0  0  0  0  0  0  0  0  0
    0.9988   17.5666   42.7180 N   0  0  0  0  0  0  0  0  0  0  0  0
    1.0159   18.8740   43.0331 C   0  0  0  0  0  0  0  0  0  0  0  0
    1.5603   19.5451   44.0595 N   0  0  0  0  0  0  0  0  0  0  0  0
    2.3188   18.9569   45.1674 C   0  0  0  0  0  0  0  0  0  0  0  0
    1.3299   20.7509   43.9588 N   0  0  0  0  0  0  0  0  0  0  0  0
    0.5818   20.9268   42.8572 C   0  0  0  0  0  0  0  0  0  0  0  0
    0.3972   19.7488   42.2463 C   0  0  0  0  0  0  0  0  0  0  0  0
   -0.2291   19.3067   41.1213 C   0  0  0  0  0  0  0  0  0  0  0  0
   -0.8665   20.1710   40.2948 N   0  0  0  0  0  0  0  0  0  0  0  0
   -1.0029   15.9253   39.6814 H   0  0  0  0  0  0  0  0  0  0  0  0
   -0.9740   13.4934   39.1498 H   0  0  0  0  0  0  0  0  0  0  0  0
    0.4527   11.9456   40.4759 H   0  0  0  0  0  0  0  0  0  0  0  0
    1.8201   15.2766   42.8812 H   0  0  0  0  0  0  0  0  0  0  0  0
    3.2792   19.4824   45.2741 H   0  0  0  0  0  0  0  0  0  0  0  0
    1.7421   19.0542   46.0991 H   0  0  0  0  0  0  0  0  0  0  0  0
    2.5043   17.8926   44.9605 H   0  0  0  0  0  0  0  0  0  0  0  0
    0.1819   21.8908   42.5097 H   0  0  0  0  0  0  0  0  0  0  0  0
   -0.8854   21.1766   40.5166 H   0  0  0  0  0  0  0  0  0  0  0  0
   -1.3321   19.8223   39.4448 H   0  0  0  0  0  0  0  0  0  0  0  0
  1  2  2  0
  1  6  1  0
  2  3  1  0
  3  4  2  0
  4  5  1  0
  5  6  2  0
  6  7  1  0
  7  8  2  0
  7  9  1  0
  8 16  1  0
  9 10  2  0
 10 11  1  0
 10 15  1  0
 11 12  1  0
 11 13  1  0
 13 14  2  0
 14 15  1  0
 15 16  2  0
 16 17  1  0
  1 18  1  0
  2 19  1  0
  3 20  1  0
  5 21  1  0
 12 22  1  0
 12 23  1  0
 12 24  1  0
 14 25  1  0
 17 26  1  0
 17 27  1  0
M  END
>  <mol_id>  (41) 
2026-09-18-6fnk-s0-n100-r7-0041

>  <rmsd_to_ref>  (41) 
2.2908163265350017

>  <pose_kind>  (41) 
rigid

$$$$
6fnk.A
     RDKit          3D

 27 29  0  0  0  0  0  0  0  0999 V2000
    3.3891   15.4884   42.9775 C   0  0  0  0  0  0  0  0  0  0  0  0
    4.5981   14.8156   42.9896 C   0  0  0  0  0  0  0  0  0  0  0  0
    5.5978   15.1345   42.0675 C   0  0  0  0  0  0  0  0  0  0  0  0
    5.4058   16.0963   41.1552 N   0  0  0  0  0  0  0  0  0  0  0  0
    4.2317   16.7798   41.1114 C   0  0  0  0  0  0  0  0  0  0  0  0
    3.2394   16.4735   42.0158 C   0  0  0  0  0  0  0  0  0  0  0  0
    1.9823   17.2120   41.9619 C   0  0  0  0  0  0  0  0  0  0  0  0
    1.7918   18.1778   41.0443 N   0  0  0  0  0  0  0  0  0  0  0  0
    0.9820   16.9503   42.8233 N   0  0  0  0  0  0  0  0  0  0  0  0
   -0.1920   17.6112   42.8036 C   0  0  0  0  0  0  0  0  0  0  0  0
   -1.3282   17.5424   43.5388 N   0  0  0  0  0  0  0  0  0  0  0  0
   -1.5338   16.6185   44.6426 C   0  0  0  0  0  0  0  0  0  0  0  0
   -2.1989   18.4480   43.0818 N   0  0  0  0  0  0  0  0  0  0  0  0
   -1.6205   19.0995   42.0509 C   0  0  0  0  0  0  0  0  0  0  0  0
   -0.3520   18.5967   41.8472 C   0  0  0  0  0  0  0  0  0  0  0  0
    0.6610   18.8992   40.9349 C   0  0  0  0  0  0  0  0  0  0  0  0
    0.4749   19.9169   39.9596 N   0  0  0  0  0  0  0  0  0  0  0  0
    2.5979   15.2543   43.6880 H   0  0  0  0  0  0  0  0  0  0  0  0
    4.7412   14.0386   43.7336 H   0  0  0  0  0  0  0  0  0  0  0  0
    6.5067   14.5552   42.1548 H   0  0  0  0  0  0  0  0  0  0  0  0
    4.1136   17.5593   40.3501 H   0  0  0  0  0  0  0  0  0  0  0  0
   -1.0600   17.0740   45.5475 H   0  0  0  0  0  0  0  0  0  0  0  0
   -2.5999   16.4420   44.8455 H   0  0  0  0  0  0  0  0  0  0  0  0
   -1.0501   15.6560   44.4823 H   0  0  0  0  0  0  0  0  0  0  0  0
   -2.0500   19.9061   41.4422 H   0  0  0  0  0  0  0  0  0  0  0  0
   -0.4701   20.2756   39.7825 H   0  0  0  0  0  0  0  0  0  0  0  0
    1.3456   20.2552   39.4585 H   0  0  0  0  0  0  0  0  0  0  0  0
  1  2  2  0
  1  6  1  0
  2  3  1  0
  3  4  2  0
  4  5  1  0
  5  6  2  0
  6  7  1  0
  7  8  2  0
  7  9  1  0
  8 16  1  0
  9 10  2  0
 10 11  1  0
 10 15  1  0
 11 12  1  0
 11 13  1  0
 13 14  2  0
 14 15  1  0
 15 16  2  0
 16 17  1  0
  1 18  1  0
  2 19  1  0
  3 20  1  0
  5 21  1  0
 12 22  1  0
 12 23  1  0
 12 24  1  0
 14 25  1  0
 17 26  1  0
 17 27  1  0
M  END
>  <mol_id>  (42) 
2026-09-18-6fnk-s0-n100-r7-0042

>  <rmsd_to_ref>  (42) 
2.3367346938789164

>  <pose_kind>  (42) 
conformer

$$$$
6fnk.A
     RDKit          3D

 27 29  0  0  0  0  0  0  0  0999 V2000
    2.5974   18.1876   40.8242 C   0  0  0  0  0  0  0  0  0  0  0  0
    3.0305   17.6421   39.6155 C   0  0  0  0  0  0  0  0  0  0  0  0
    2.9220   16.2771   39.3932 C   0  0  0  0  0  0  0  0  0  0  0  0
    2.3755   15.4507   40.3789 N   0  0  0  0  0  0  0  0  0  0  0  0
    1.9423   16.0020   41.5943 C   0  0  0  0  0  0  0  0  0  0  0  0
    2.0524   17.3729   41.8196 C   0  0  0  0  0  0  0  0  0  0  0  0
    1.6219   17.9192   43.0329 C   0  0  0  0  0  0  0  0  0  0  0  0
    1.8758   19.1980   43.3431 N   0  0  0  0  0  0  0  0  0  0  0  0
    0.9404   17.1623   43.8987 N   0  0  0  0  0  0  0  0  0  0  0  0
    0.5176   17.6497   45.0788 C   0  0  0  0  0  0  0  0  0  0  0  0
   -0.1553   17.0885   46.0949 N   0  0  0  0  0  0  0  0  0  0  0  0
   -0.6282   15.7022   46.1531 C   0  0  0  0  0  0  0  0  0  0  0  0
   -0.3409   17.9078   46.9958 N   0  0  0  0  0  0  0  0  0  0  0  0
    0.1839   19.0761   46.5911 C   0  0  0  0  0  0  0  0  0  0  0  0
    0.7545   18.9205   45.3890 C   0  0  0  0  0  0  0  0  0  0  0  0
    1.4398   19.7040   44.5116 C   0  0  0  0  0  0  0  0  0  0  0  0
    1.7020   21.0025   44.7969 N   0  0  0  0  0  0  0  0  0  0  0  0
    2.6860   19.2706   40.9953 H   0  0  0  0  0  0  0  0  0  0  0  0
    3.4577   18.2939   38.8393 H   0  0  0  0  0  0  0  0  0  0  0  0
    3.2659   15.8455   38.4417 H   0  0  0  0  0  0  0  0  0  0  0  0
    1.5147   15.3508   42.3709 H   0  0  0  0  0  0  0  0  0  0  0  0
   -0.2889   15.2381   47.0910 H   0  0  0  0  0  0  0  0  0  0  0  0
   -1.7274   15.6877   46.1136 H   0  0  0  0  0  0  0  0  0  0  0  0
   -0.2231   15.1404   45.2986 H   0  0  0  0  0  0  0  0  0  0  0  0
    0.1504   20.0170   47.1599 H   0  0  0  0  0  0  0  0  0  0  0  0
    1.3777   21.4102   45.6855 H   0  0  0  0  0  0  0  0  0  0  0  0
    2.2256   21.5818   44.1252 H   0  0  0  0  0  0  0  0  0  0  0  0
  1  2  2  0
  1  6  1  0
  2  3  1  0
  3  4  2  0
  4  5  1  0
  5  6  2  0
  6  7  1  0
  7  8  2  0
  7  9  1  0
  8 16  1  0
  9 10  2  0
 10 11  1  0
 10 15  1  0
 11 12  1  0
 11 13  1  0
 13 14  2  0
 14 15  1  0
 15 16  2  0
 16 17  1  0
  1 18  1  0
  2 19  1  0
  3 20  1  0
  5 21  1  0
 12 22  1  0
 12 23  1  0
 12 24  1  0
 14 25  1  0
 17 26  1  0
 17 27  1  0
M  END
>  <mol_id>  (43) 
2026-09-18-6fnk-s0-n100-r7-0043

>  <rmsd_to_ref>  (43) 
2.382653061228974

>  <pose_kind>  (43) 
rigid

$$$$
6fnk.A
     RDKit          3D

 27 29  0  0  0  0  0  0  0  0999 V2000
    0.3819   15.3731   42.0816 C   0  0  0  0  0  0  0  0  0  0  0  0
   -0.0176   14.4290   41.1590 C   0  0  0  0  0  0  0  0  0  0  0  0
    0.6025   14.3405   39.9290 C   0  0  0  0  0  0  0  0  0  0  0  0
    1.6181   15.1994   39.6344 N   0  0  0  0  0  0  0  0  0  0  0  0
    2.0142   16.1273   40.5348 C   0  0  0  0  0  0  0  0  0  0  0  0
    1.4087   16.2324   41.7680 C   0  0  0  0  0  0  0  0  0  0  0  0
    1.8456   17.2380   42.7309 C   0  0  0  0  0  0  0  0  0  0  0  0
    2.8502   18.0774   42.4217 N   0  0  0  0  0  0  0  0  0  0  0  0
    1.2447   17.3252   43.9253 N   0  0  0  0  0  0  0  0  0  0  0  0
    1.5995   18.2316   44.8609 C   0  0  0  0  0  0  0  0  0  0  0  0
    1.1569   18.5072   46.1029 N   0  0  0  0  0  0  0  0  0  0  0  0
    0.0766   17.8012   46.7723 C   0  0  0  0  0  0  0  0  0  0  0  0
    1.8815   19.5207   46.5790 N   0  0  0  0  0  0  0  0  0  0  0  0
    2.7913   19.8971   45.6415 C   0  0  0  0  0  0  0  0  0  0  0  0
    2.6394   19.0899   44.5229 C   0  0  0  0  0  0  0  0  0  0  0  0
    3.2780   19.0205   43.2933 C   0  0  0  0  0  0  0  0  0  0  0  0
    4.3350   19.9215   42.9985 N   0  0  0  0  0  0  0  0  0  0  0  0
   -0.1379   15.4071   43.0437 H   0  0  0  0  0  0  0  0  0  0  0  0
   -0.8330   13.7262   41.3732 H   0  0  0  0  0  0  0  0  0  0  0  0
    0.3100   13.6100   39.1864 H   0  0  0  0  0  0  0  0  0  0  0  0
    2.8280   16.8130   40.2943 H   0  0  0  0  0  0  0  0  0  0  0  0
   -0.0035   18.1250   47.8124 H   0  0  0  0  0  0  0  0  0  0  0  0
    0.2940   16.6989   46.7215 H   0  0  0  0  0  0  0  0  0  0  0  0
   -0.9041   17.9322   46.2604 H   0  0  0  0  0  0  0  0  0  0  0  0
    3.4971   20.6868   45.7670 H   0  0  0  0  0  0  0  0  0  0  0  0
    4.3550   20.5394   42.1551 H   0  0  0  0  0  0  0  0  0  0  0  0
    5.1657   19.9907   43.6576 H   0  0  0  0  0  0  0  0  0  0  0  0
  1  2  2  0
  1  6  1  0
  2  3  1  0
  3  4  2  0
  4  5  1  0
  5  6  2  0
  6  7  1  0
  7  8  2  0
  7  9  1  0
  8 16  1  0
  9 10  2  0
 10 11  1  0
 10 15  1  0
 11 12  1  0
 11 13  1  0
 13 14  2  0
 14 15  1  0
 15 16  2  0
 16 17  1  0
  1 18  1  0
  2 19  1  0
  3 20  1  0
  5 21  1  0
 12 22  1  0
 12 23  1  0
 12 24  1  0
 14 25  1  0
 17 26  1  0
 17 27  1  0
M  END
>  <mol_id>  (44) 
2026-09-18-6fnk-s0-n100-r7-0044

>  <rmsd_to_ref>  (44) 
2.4285714285759727

>  <pose_kind>  (44) 
conformer

$$$$
6fnk.A
     RDKit          3D

 27 29  0  0  0  0  0  0  0  0999 V2000
    2.5755   15.7583   43.2204 C   0  0  0  0  0  0  0  0  0  0  0  0
    3.0493   14.6582   43.9354 C   0  0  0  0  0  0  0  0  0  0  0  0
    2.7521   14.5283   45.2842 C   0  0  0  0  0  0  0  0  0  0  0  0
    1.9753   15.4979   45.9242 N   0  0  0  0  0  0  0  0  0  0  0  0
    1.5014   16.6042   45.2028 C   0  0  0  0  0  0  0  0  0  0  0  0
    1.8009   16.7368   43.8482 C   0  0  0  0  0  0  0  0  0  0  0  0
    1.3291   17.8418   43.1323 C   0  0  0  0  0  0  0  0  0  0  0  0
    1.7455   18.0833   41.8816 N   0  0  0  0  0  0  0  0  0  0  0  0
    0.4441   18.6707   43.6953 N   0  0  0  0  0  0  0  0  0  0  0  0
   -0.0256   19.7482   43.0418 C   0  0  0  0  0  0  0  0  0  0  0  0
   -0.8880   20.7119   43.3991 N   0  0  0  0  0  0  0  0  0  0  0  0
   -1.5774   20.8157   44.6886 C   0  0  0  0  0  0  0  0  0  0  0  0
   -1.0413   21.5177   42.4802 N   0  0  0  0  0  0  0  0  0  0  0  0
   -0.2967   21.0943   41.4456 C   0  0  0  0  0  0  0  0  0  0  0  0
    0.3729   19.9882   41.7964 C   0  0  0  0  0  0  0  0  0  0  0  0
    1.2671   19.1464   41.2090 C   0  0  0  0  0  0  0  0  0  0  0  0
    1.6975   19.3628   39.9424 N   0  0  0  0  0  0  0  0  0  0  0  0
    2.8143   15.8564   42.1512 H   0  0  0  0  0  0  0  0  0  0  0  0
    3.6582   13.8941   43.4299 H   0  0  0  0  0  0  0  0  0  0  0  0
    3.1277   13.6628   45.8496 H   0  0  0  0  0  0  0  0  0  0  0  0
    0.8922   17.3686   45.7075 H   0  0  0  0  0  0  0  0  0  0  0  0
   -1.4227   21.8211   45.1072 H   0  0  0  0  0  0  0  0  0  0  0  0
   -2.6537   20.6404   44.5442 H   0  0  0  0  0  0  0  0  0  0  0  0
   -1.1732   20.0636   45.3821 H   0  0  0  0  0  0  0  0  0  0  0  0
   -0.2446   21.5813   40.4607 H   0  0  0  0  0  0  0  0  0  0  0  0
    1.3444   20.1703   39.4093 H   0  0  0  0  0  0  0  0  0  0  0  0
    2.3778   18.7197   39.5127 H   0  0  0  0  0  0  0  0  0  0  0  0
  1  2  2  0
  1  6  1  0
  2  3  1  0
  3  4  2  0
  4  5  1  0
  5  6  2  0
  6  7  1  0
  7  8  2  0
  7  9  1  0
  8 16  1  0
  9 10  2  0
 10 11  1  0
 10 15  1  0
 11 12  1  0
 11 13  1  0
 13 14  2  0
 14 15  1  0
 15 16  2  0
 16 17  1  0
  1 18  1  0
  2 19  1  0
  3 20  1  0
  5 21  1  0
 12 22  1  0
 12 23  1  0
 12 24  1  0
 14 25  1  0
 17 26  1  0
 17 27  1  0
M  END
>  <mol_id>  (45) 
2026-09-18-6fnk-s0-n100-r7-0045

>  <rmsd_to_ref>  (45) 
2.474489795924896

>  <pose_kind>  (45) 
rigid

$$$$
6fnk.A
     RDKit          3D

 27 29  0  0  0  0  0  0  0  0999 V2000
    0.6291   15.5294   42.0219 C   0  0  0  0  0  0  0  0  0  0  0  0
    0.1644   14.5261   41.2162 C   0  0  0  0  0  0  0  0  0  0  0  0
    0.7640   14.2462   40.0059 C   0  0  0  0  0  0  0  0  0  0  0  0
    1.8378   14.9684   39.5867 N   0  0  0  0  0  0  0  0  0  0  0  0
    2.3298   15.9762   40.3618 C   0  0  0  0  0  0  0  0  0  0  0  0
    1.7242   16.2470   41.5671 C   0  0  0  0  0  0  0  0  0  0  0  0
    2.2586   17.3269   42.3879 C   0  0  0  0  0  0  0  0  0  0  0  0
    3.3178   18.0369   41.9710 N   0  0  0  0  0  0  0  0  0  0  0  0
    1.6916   17.6277   43.5841 N   0  0  0  0  0  0  0  0  0  0  0  0
    2.1854   18.6309   44.3503 C   0  0  0  0  0  0  0  0  0  0  0  0
    1.8341   19.1367   45.5478 N   0  0  0  0  0  0  0  0  0  0  0  0
    0.7476   18.7057   46.4004 C   0  0  0  0  0  0  0  0  0  0  0  0
    2.6628   20.1315   45.8493 N   0  0  0  0  0  0  0  0  0  0  0  0
    3.5677   20.3045   44.8736 C   0  0  0  0  0  0  0  0  0  0  0  0
    3.2673   19.3492   43.9145 C   0  0  0  0  0  0  0  0  0  0  0  0
    3.8428   19.0440   42.7005 C   0  0  0  0  0  0  0  0  0  0  0  0
    4.9671   19.7904   42.2477 N   0  0  0  0  0  0  0  0  0  0  0  0
    0.1407   15.7264   42.9634 H   0  0  0  0  0  0  0  0  0  0  0  0
   -0.6880   13.9620   41.5623 H   0  0  0  0  0  0  0  0  0  0  0  0
    0.3452   13.4387   39.4182 H   0  0  0  0  0  0  0  0  0  0  0  0
    3.1985   16.5472   40.0036 H   0  0  0  0  0  0  0  0  0  0  0  0
    0.4228   19.5469   47.0504 H   0  0  0  0  0  0  0  0  0  0  0  0
   -0.0975   18.4230   45.7324 H   0  0  0  0  0  0  0  0  0  0  0  0
    1.1356   17.8736   47.0135 H   0  0  0  0  0  0  0  0  0  0  0  0
    4.3446   21.0446   44.8811 H   0  0  0  0  0  0  0  0  0  0  0  0
    5.8355   19.3730   41.8757 H   0  0  0  0  0  0  0  0  0  0  0  0
    4.8778   20.8430   42.3085 H   0  0  0  0  0  0  0  0  0  0  0  0
  1  2  2  0
  1  6  1  0
  2  3  1  0
  3  4  2  0
  4  5  1  0
  5  6  2  0
  6  7  1  0
  7  8  2  0
  7  9  1  0
  8 16  1  0
  9 10  2  0
 10 11  1  0
 10 15  1  0
 11 12  1  0
 11 13  1  0
 13 14  2  0
 14 15  1  0
 15 16  2  0
 16 17  1  0
  1 18  1  0
  2 19  1  0
  3 20  1  0
  5 21  1  0
 12 22  1  0
 12 23  1  0
 12 24  1  0
 14 25  1  0
 17 26  1  0
 17 27  1  0
M  END
>  <mol_id>  (46) 
2026-09-18-6fnk-s0-n100-r7-0046

>  <rmsd_to_ref>  (46) 
2.520408163268022

>  <pose_kind>  (46) 
conformer

$$$$
6fnk.A
     RDKit          3D

 27 29  0  0  0  0  0  0  0  0999 V2000
    3.5780   15.3348   42.8942 C   0  0  0  0  0  0  0  0  0  0  0  0
    3.8649   14.1821   43.6257 C   0  0  0  0  0  0  0  0  0  0  0  0
    3.3590   14.0320   44.9086 C   0  0  0  0  0  0  0  0  0  0  0  0
    2.5594   15.0340   45.4653 N   0  0  0  0  0  0  0  0  0  0  0  0
    2.2738   16.1930   44.7277 C   0  0  0  0  0  0  0  0  0  0  0  0
    2.7831   16.3459   43.4395 C   0  0  0  0  0  0  0  0  0  0  0  0
    2.4987   17.5033   42.7076 C   0  0  0  0  0  0  0  0  0  0  0  0
    3.1148   17.7533   41.5440 N   0  0  0  0  0  0  0  0  0  0  0  0
    1.5950   18.3751   43.1662 N   0  0  0  0  0  0  0  0  0  0  0  0
    1.3013   19.5030   42.4951 C   0  0  0  0  0  0  0  0  0  0  0  0
    0.4598   20.5141   42.7595 N   0  0  0  0  0  0  0  0  0  0  0  0
   -0.4086   20.6266   43.9351 C   0  0  0  0  0  0  0  0  0  0  0  0
    0.5007   21.3568   41.8621 N   0  0  0  0  0  0  0  0  0  0  0  0
    1.3641   20.9138   40.9334 C   0  0  0  0  0  0  0  0  0  0  0  0
    1.8988   19.7526   41.3341 C   0  0  0  0  0  0  0  0  0  0  0  0
    2.8145   18.8680   40.8521 C   0  0  0  0  0  0  0  0  0  0  0  0
    3.4451   19.0924   39.6738 N   0  0  0  0  0  0  0  0  0  0  0  0
    3.9820   15.4488   41.8775 H   0  0  0  0  0  0  0  0  0  0  0  0
    4.4919   13.3928   43.1854 H   0  0  0  0  0  0  0  0  0  0  0  0
    3.5870   13.1248   45.4874 H   0  0  0  0  0  0  0  0  0  0  0  0
    1.6467   16.9827   45.1672 H   0  0  0  0  0  0  0  0  0  0  0  0
   -0.2535   21.6049   44.4133 H   0  0  0  0  0  0  0  0  0  0  0  0
   -1.4598   20.5327   43.6248 H   0  0  0  0  0  0  0  0  0  0  0  0
   -0.1643   19.8265   44.6493 H   0  0  0  0  0  0  0  0  0  0  0  0
    1.5966   21.4263   39.9883 H   0  0  0  0  0  0  0  0  0  0  0  0
    3.2306   19.9391   39.1280 H   0  0  0  0  0  0  0  0  0  0  0  0
    4.1390   18.4163   39.3241 H   0  0  0  0  0  0  0  0  0  0  0  0
  1  2  2  0
  1  6  1  0
  2  3  1  0
  3  4  2  0
  4  5  1  0
  5  6  2  0
  6  7  1  0
  7  8  2  0
  7  9  1  0
  8 16  1  0
  9 10  2  0
 10 11  1  0
 10 15  1  0
 11 12  1  0
 11 13  1  0
 13 14  2  0
 14 15  1  0
 15 16  2  0
 16 17  1  0
  1 18  1  0
  2 19  1  0
  3 20  1  0
  5 21  1  0
 12 22  1  0
 12 23  1  0
 12 24  1  0
 14 25  1  0
 17 26  1  0
 17 27  1  0
M  END
>  <mol_id>  (47) 
2026-09-18-6fnk-s0-n100-r7-0047

>  <rmsd_to_ref>  (47) 
2.5663265306183534

>  <pose_kind>  (47) 
rigid

$$$$
6fnk.A
     RDKit          3D

 27 29  0  0  0  0  0  0  0  0999 V2000
    1.2733   16.8954   40.7440 C   0  0  0  0  0  0  0  0  0  0  0  0
    1.9201   16.4043   39.6276 C   0  0  0  0  0  0  0  0  0  0  0  0
    3.1494   16.9254   39.2447 C   0  0  0  0  0  0  0  0  0  0  0  0
    3.7082   17.9170   39.9729 N   0  0  0  0  0  0  0  0  0  0  0  0
    3.0990   18.4278   41.0820 C   0  0  0  0  0  0  0  0  0  0  0  0
    1.8781   17.9082   41.4599 C   0  0  0  0  0  0  0  0  0  0  0  0
    1.2131   18.4423   42.6424 C   0  0  0  0  0  0  0  0  0  0  0  0
    1.7821   19.4304   43.3580 N   0  0  0  0  0  0  0  0  0  0  0  0
    0.0222   17.9600   43.0403 N   0  0  0  0  0  0  0  0  0  0  0  0
   -0.6169   18.4316   44.1269 C   0  0  0  0  0  0  0  0  0  0  0  0
   -1.7806   18.1485   44.7406 N   0  0  0  0  0  0  0  0  0  0  0  0
   -2.7008   17.1329   44.2796 C   0  0  0  0  0  0  0  0  0  0  0  0
   -1.9527   18.9102   45.7920 N   0  0  0  0  0  0  0  0  0  0  0  0
   -0.9020   19.7463   45.9317 C   0  0  0  0  0  0  0  0  0  0  0  0
   -0.0474   19.4564   44.8859 C   0  0  0  0  0  0  0  0  0  0  0  0
    1.1767   19.9406   44.4632 C   0  0  0  0  0  0  0  0  0  0  0  0
    1.7580   20.9839   45.2348 N   0  0  0  0  0  0  0  0  0  0  0  0
    0.3154   16.4867   41.0391 H   0  0  0  0  0  0  0  0  0  0  0  0
    1.4354   15.6133   39.0787 H   0  0  0  0  0  0  0  0  0  0  0  0
    3.6378   16.5254   38.3670 H   0  0  0  0  0  0  0  0  0  0  0  0
    3.5849   19.2208   41.6323 H   0  0  0  0  0  0  0  0  0  0  0  0
   -2.1615   16.3129   43.7773 H   0  0  0  0  0  0  0  0  0  0  0  0
   -3.2191   16.6889   45.1690 H   0  0  0  0  0  0  0  0  0  0  0  0
   -3.4564   17.6317   43.6622 H   0  0  0  0  0  0  0  0  0  0  0  0
   -0.7407   20.5017   46.7027 H   0  0  0  0  0  0  0  0  0  0  0  0
    2.2790   20.6966   46.0977 H   0  0  0  0  0  0  0  0  0  0  0  0
    1.6732   21.9932   44.9596 H   0  0  0  0  0  0  0  0  0  0  0  0
  1  2  2  0
  1  6  1  0
  2  3  1  0
  3  4  2  0
  4  5  1  0
  5  6  2  0
  6  7  1  0
  7  8  2  0
  7  9  1  0
  8 16  1  0
  9 10  2  0
 10 11  1  0
 10 15  1  0
 11 12  1  0
 11 13  1  0
 13 14  2  0
 14 15  1  0
 15 16  2  0
 16 17  1  0
  1 18  1  0
  2 19  1  0
  3 20  1  0
  5 21  1  0
 12 22  1  0
 12 23  1  0
 12 24  1  0
 14 25  1  0
 17 26  1  0
 17 27  1  0
M  END
>  <mol_id>  (48) 
2026-09-18-6fnk-s0-n100-r7-0048

>  <rmsd_to_ref>  (48) 
2.612244897960519

>  <pose_kind>  (48) 
conformer

$$$$
6fnk.A
     RDKit          3D

 27 29  0  0  0  0  0  0  0  0999 V2000
    2.0339   17.5621   39.3229 C   0  0  0  0  0  0  0  0  0  0  0  0
    2.1424   16.9940   38.0534 C   0  0  0  0  0  0  0  0  0  0  0  0
    2.2623   15.6186   37.9179 C   0  0  0  0  0  0  0  0  0  0  0  0
    2.2704   14.8035   39.0532 N   0  0  0  0  0  0  0  0  0  0  0  0
    2.1627   15.3779   40.3289 C   0  0  0  0  0  0  0  0  0  0  0  0
    2.0441   16.7597   40.4664 C   0  0  0  0  0  0  0  0  0  0  0  0
    1.9393   17.3296   41.7393 C   0  0  0  0  0  0  0  0  0  0  0  0
    2.0009   18.6576   41.9085 N   0  0  0  0  0  0  0  0  0  0  0  0
    1.7685   16.5444   42.8077 N   0  0  0  0  0  0  0  0  0  0  0  0
    1.6723   17.0550   44.0482 C   0  0  0  0  0  0  0  0  0  0  0  0
    1.5176   16.4774   45.2493 N   0  0  0  0  0  0  0  0  0  0  0  0
    1.4023   15.0385   45.5045 C   0  0  0  0  0  0  0  0  0  0  0  0
    1.4737   17.3302   46.1370 N   0  0  0  0  0  0  0  0  0  0  0  0
    1.5672   18.5322   45.5448 C   0  0  0  0  0  0  0  0  0  0  0  0
    1.7200   18.3719   44.2235 C   0  0  0  0  0  0  0  0  0  0  0  0
    1.8848   19.1825   43.1423 C   0  0  0  0  0  0  0  0  0  0  0  0
    1.9413   20.5290   43.2848 N   0  0  0  0  0  0  0  0  0  0  0  0
    1.9393   18.6533   39.4245 H   0  0  0  0  0  0  0  0  0  0  0  0
    2.1328   17.6362   37.1604 H   0  0  0  0  0  0  0  0  0  0  0  0
    2.3508   15.1698   36.9176 H   0  0  0  0  0  0  0  0  0  0  0  0
    2.1719   14.7363   41.2223 H   0  0  0  0  0  0  0  0  0  0  0  0
    2.1284   14.7436   46.2763 H   0  0  0  0  0  0  0  0  0  0  0  0
    0.3843   14.8081   45.8516 H   0  0  0  0  0  0  0  0  0  0  0  0
    1.6076   14.4840   44.5769 H   0  0  0  0  0  0  0  0  0  0  0  0
    1.5249   19.5004   46.0653 H   0  0  0  0  0  0  0  0  0  0  0  0
    1.8547   20.9520   44.2199 H   0  0  0  0  0  0  0  0  0  0  0  0
    2.0709   21.1294   42.4580 H   0  0  0  0  0  0  0  0  0  0  0  0
  1  2  2  0
  1  6  1  0
  2  3  1  0
  3  4  2  0
  4  5  1  0
  5  6  2  0
  6  7  1  0
  7  8  2  0
  7  9  1  0
  8 16  1  0
  9 10  2  0
 10 11  1  0
 10 15  1  0
 11 12  1  0
 11 13  1  0
 13 14  2  0
 14 15  1  0
 15 16  2  0
 16 17  1  0
  1 18  1  0
  2 19  1  0
  3 20  1  0
  5 21  1  0
 12 22  1  0
 12 23  1  0
 12 24  1  0
 14 25  1  0
 17 26  1  0
 17 27  1  0
M  END
>  <mol_id>  (49) 
2026-09-18-6fnk-s0-n100-r7-0049

>  <rmsd_to_ref>  (49) 
2.658163265308127

>  <pose_kind>  (49) 
rigid

$$$$
6fnk.A
     RDKit          3D

 27 29  0  0  0  0  0  0  0  0999 V2000
    1.3565   15.8209   41.1245 C   0  0  0  0  0  0  0  0  0  0  0  0
    1.6326   15.3857   39.8285 C   0  0  0  0  0  0  0  0  0  0  0  0
    2.2011   16.2990   38.9505 C   0  0  0  0  0  0  0  0  0  0  0  0
    2.4880   17.5652   39.3040 N   0  0  0  0  0  0  0  0  0  0  0  0
    2.2221   17.9852   40.5528 C   0  0  0  0  0  0  0  0  0  0  0  0
    1.6550   17.1246   41.4787 C   0  0  0  0  0  0  0  0  0  0  0  0
    1.3875   17.6318   42.8186 C   0  0  0  0  0  0  0  0  0  0  0  0
    1.7070   18.9114   43.0834 N   0  0  0  0  0  0  0  0  0  0  0  0
    0.8376   16.8429   43.7615 N   0  0  0  0  0  0  0  0  0  0  0  0
    0.5894   17.3058   44.9970 C   0  0  0  0  0  0  0  0  0  0  0  0
    0.0580   16.7697   46.1319 N   0  0  0  0  0  0  0  0  0  0  0  0
   -0.3943   15.3975   46.1919 C   0  0  0  0  0  0  0  0  0  0  0  0
    0.0448   17.6929   47.0867 N   0  0  0  0  0  0  0  0  0  0  0  0
    0.5600   18.8319   46.5987 C   0  0  0  0  0  0  0  0  0  0  0  0
    0.9116   18.6154   45.2830 C   0  0  0  0  0  0  0  0  0  0  0  0
    1.4749   19.4160   44.3097 C   0  0  0  0  0  0  0  0  0  0  0  0
    1.8209   20.7791   44.5739 N   0  0  0  0  0  0  0  0  0  0  0  0
    0.9141   15.1341   41.8314 H   0  0  0  0  0  0  0  0  0  0  0  0
    1.4216   14.3812   39.4962 H   0  0  0  0  0  0  0  0  0  0  0  0
    2.4119   15.9599   37.9546 H   0  0  0  0  0  0  0  0  0  0  0  0
    2.4718   19.0133   40.7872 H   0  0  0  0  0  0  0  0  0  0  0  0
   -1.3893   15.2929   45.7125 H   0  0  0  0  0  0  0  0  0  0  0  0
    0.3453   14.6835   45.8182 H   0  0  0  0  0  0  0  0  0  0  0  0
   -0.5793   15.1787   47.2834 H   0  0  0  0  0  0  0  0  0  0  0  0
    0.6989   19.7746   47.0962 H   0  0  0  0  0  0  0  0  0  0  0  0
    2.4367   21.0226   45.4045 H   0  0  0  0  0  0  0  0  0  0  0  0
    1.4473   21.5118   43.9244 H   0  0  0  0  0  0  0  0  0  0  0  0
  1  2  2  0
  1  6  1  0
  2  3  1  0
  3  4  2  0
  4  5  1  0
  5  6  2  0
  6  7  1  0
  7  8  2  0
  7  9  1  0
  8 16  1  0
  9 10  2  0
 10 11  1  0
 10 15  1  0
 11 12  1  0
 11 13  1  0
 13 14  2  0
 14 15  1  0
 15 16  2  0
 16 17  1  0
  1 18  1  0
  2 19  1  0
  3 20  1  0
  5 21  1  0
 12 22  1  0
 12 23  1  0
 12 24  1  0
 14 25  1  0
 17 26  1  0
 17 27  1  0
M  END
>  <mol_id>  (50) 
2026-09-18-6fnk-s0-n100-r7-0050

>  <rmsd_to_ref>  (50) 
2.704081632654766

>  <pose_kind>  (50) 
conformer

$$$$
6fnk.A
     RDKit          3D

 27 29  0  0  0  0  0  0  0  0999 V2000
    1.2460   17.7480   40.4558 C   0  0  0  0  0  0  0  0  0  0  0  0
    1.0408   17.2286   39.1775 C   0  0  0  0  0  0  0  0  0  0  0  0
    0.1658   16.1681   38.9929 C   0  0  0  0  0  0  0  0  0  0  0  0
   -0.5120   15.6239   40.0874 N   0  0  0  0  0  0  0  0  0  0  0  0
   -0.3023   16.1475   41.3722 C   0  0  0  0  0  0  0  0  0  0  0  0
    0.5779   17.2116   41.5591 C   0  0  0  0  0  0  0  0  0  0  0  0
    0.7866   17.7298   42.8413 C   0  0  0  0  0  0  0  0  0  0  0  0
    1.7523   18.6296   43.0736 N   0  0  0  0  0  0  0  0  0  0  0  0
    0.0108   17.3312   43.8544 N   0  0  0  0  0  0  0  0  0  0  0  0
    0.1867   17.8004   45.1025 C   0  0  0  0  0  0  0  0  0  0  0  0
   -0.4436   17.5413   46.2582 N   0  0  0  0  0  0  0  0  0  0  0  0
   -1.5655   16.6150   46.4383 C   0  0  0  0  0  0  0  0  0  0  0  0
    0.0442   18.2036   47.1750 N   0  0  0  0  0  0  0  0  0  0  0  0
    1.0152   18.9669   46.6471 C   0  0  0  0  0  0  0  0  0  0  0  0
    1.1342   18.7024   45.3392 C   0  0  0  0  0  0  0  0  0  0  0  0
    1.9250   19.1229   44.3139 C   0  0  0  0  0  0  0  0  0  0  0  0
    2.9026   20.0384   44.5200 N   0  0  0  0  0  0  0  0  0  0  0  0
    1.9412   18.5888   40.5964 H   0  0  0  0  0  0  0  0  0  0  0  0
    1.5726   17.6596   38.3164 H   0  0  0  0  0  0  0  0  0  0  0  0
    0.0055   15.7557   37.9858 H   0  0  0  0  0  0  0  0  0  0  0  0
   -0.8339   15.7171   42.2337 H   0  0  0  0  0  0  0  0  0  0  0  0
   -1.3378   15.9185   47.2587 H   0  0  0  0  0  0  0  0  0  0  0  0
   -2.4750   17.1837   46.6820 H   0  0  0  0  0  0  0  0  0  0  0  0
   -1.7255   16.0479   45.5095 H   0  0  0  0  0  0  0  0  0  0  0  0
    1.6204   19.6976   47.2038 H   0  0  0  0  0  0  0  0  0  0  0  0
    3.0523   20.4290   45.4613 H   0  0  0  0  0  0  0  0  0  0  0  0
    3.4961   20.3436   43.7355 H   0  0  0  0  0  0  0  0  0  0  0  0
  1  2  2  0
  1  6  1  0
  2  3  1  0
  3  4  2  0
  4  5  1  0
  5  6  2  0
  6  7  1  0
  7  8  2  0
  7  9  1  0
  8 16  1  0
  9 10  2  0
 10 11  1  0
 10 15  1  0
 11 12  1  0
 11 13  1  0
 13 14  2  0
 14 15  1  0
 15 16  2  0
 16 17  1  0
  1 18  1  0
  2 19  1  0
  3 20  1  0
  5 21  1  0
 12 22  1  0
 12 23  1  0
 12 24  1  0
 14 25  1  0
 17 26  1  0
 17 27  1  0
M  END
>  <mol_id>  (51) 
2026-09-18-6fnk-s0-n100-r7-0051

>  <rmsd_to_ref>  (51) 
2.7500000000064997

>  <pose_kind>  (51) 
rigid

$$$$
6fnk.A
     RDKit          3D

 27 29  0  0  0  0  0  0  0  0999 V2000
    2.4646   14.0591   42.9948 C   0  0  0  0  0  0  0  0  0  0  0  0
    2.3561   12.8437   43.6496 C   0  0  0  0  0  0  0  0  0  0  0  0
    1.3605   12.6917   44.5931 C   0  0  0  0  0  0  0  0  0  0  0  0
    0.4900   13.6933   44.8956 N   0  0  0  0  0  0  0  0  0  0  0  0
    0.5730   14.8882   44.2726 C   0  0  0  0  0  0  0  0  0  0  0  0
    1.5650   15.0822   43.3129 C   0  0  0  0  0  0  0  0  0  0  0  0
    1.6918   16.3671   42.6099 C   0  0  0  0  0  0  0  0  0  0  0  0
    2.6205   16.5979   41.6889 N   0  0  0  0  0  0  0  0  0  0  0  0
    0.8254   17.3491   42.9179 N   0  0  0  0  0  0  0  0  0  0  0  0
    0.8533   18.5540   42.3386 C   0  0  0  0  0  0  0  0  0  0  0  0
    0.1335   19.6690   42.4566 N   0  0  0  0  0  0  0  0  0  0  0  0
   -0.9862   19.8098   43.3742 C   0  0  0  0  0  0  0  0  0  0  0  0
    0.5938   20.5920   41.6277 N   0  0  0  0  0  0  0  0  0  0  0  0
    1.6373   20.0914   40.9428 C   0  0  0  0  0  0  0  0  0  0  0  0
    1.8329   18.7885   41.3711 C   0  0  0  0  0  0  0  0  0  0  0  0
    2.7183   17.7825   41.0576 C   0  0  0  0  0  0  0  0  0  0  0  0
    3.7189   18.0132   40.0735 N   0  0  0  0  0  0  0  0  0  0  0  0
    3.2310   14.1919   42.2612 H   0  0  0  0  0  0  0  0  0  0  0  0
    3.0573   12.0726   43.3895 H   0  0  0  0  0  0  0  0  0  0  0  0
    1.3126   11.7207   45.0823 H   0  0  0  0  0  0  0  0  0  0  0  0
   -0.1169   15.6543   44.5250 H   0  0  0  0  0  0  0  0  0  0  0  0
   -0.5977   19.9040   44.4239 H   0  0  0  0  0  0  0  0  0  0  0  0
   -1.6128   18.9089   43.2648 H   0  0  0  0  0  0  0  0  0  0  0  0
   -1.5830   20.7189   43.1725 H   0  0  0  0  0  0  0  0  0  0  0  0
    2.2177   20.5980   40.2003 H   0  0  0  0  0  0  0  0  0  0  0  0
    4.3977   18.8044   40.1087 H   0  0  0  0  0  0  0  0  0  0  0  0
    3.7694   17.3339   39.2585 H   0  0  0  0  0  0  0  0  0  0  0  0
  1  2  2  0
  1  6  1  0
  2  3  1  0
  3  4  2  0
  4  5  1  0
  5  6  2  0
  6  7  1  0
  7  8  2  0
  7  9  1  0
  8 16  1  0
  9 10  2  0
 10 11  1  0
 10 15  1  0
 11 12  1  0
 11 13  1  0
 13 14  2  0
 14 15  1  0
 15 16  2  0
 16 17  1  0
  1 18  1  0
  2 19  1  0
  3 20  1  0
  5 21  1  0
 12 22  1  0
 12 23  1  0
 12 24  1  0
 14 25  1  0
 17 26  1  0
 17 27  1  0
M  END
>  <mol_id>  (52) 
2026-09-18-6fnk-s0-n100-r7-0052

>  <rmsd_to_ref>  (52) 
2.795918367349089

>  <pose_kind>  (52) 
conformer

$$$$
6fnk.A
     RDKit          3D

 27 29  0  0  0  0  0  0  0  0999 V2000
    0.8973   15.9097   41.8431 C   0  0  0  0  0  0  0  0  0  0  0  0
    0.6020   14.6134   42.2654 C   0  0  0  0  0  0  0  0  0  0  0  0
    0.7355   14.2735   43.6037 C   0  0  0  0  0  0  0  0  0  0  0  0
    1.1619   15.2313   44.5279 N   0  0  0  0  0  0  0  0  0  0  0  0
    1.4597   16.5339   44.0999 C   0  0  0  0  0  0  0  0  0  0  0  0
    1.3278   16.8761   42.7553 C   0  0  0  0  0  0  0  0  0  0  0  0
    1.6276   18.1747   42.3313 C   0  0  0  0  0  0  0  0  0  0  0  0
    1.6786   18.4809   41.0276 N   0  0  0  0  0  0  0  0  0  0  0  0
    1.8618   19.1320   43.2345 N   0  0  0  0  0  0  0  0  0  0  0  0
    2.1617   20.3900   42.8652 C   0  0  0  0  0  0  0  0  0  0  0  0
    2.4455   21.4926   43.5750 N   0  0  0  0  0  0  0  0  0  0  0  0
    2.4913   21.5874   45.0372 C   0  0  0  0  0  0  0  0  0  0  0  0
    2.6602   22.4463   42.8256 N   0  0  0  0  0  0  0  0  0  0  0  0
    2.4926   22.0129   41.5653 C   0  0  0  0  0  0  0  0  0  0  0  0
    2.2021   20.7051   41.5743 C   0  0  0  0  0  0  0  0  0  0  0  0
    1.9568   19.7410   40.6450 C   0  0  0  0  0  0  0  0  0  0  0  0
    1.9931   20.0262   39.3207 N   0  0  0  0  0  0  0  0  0  0  0  0
    0.7900   16.1737   40.7806 H   0  0  0  0  0  0  0  0  0  0  0  0
    0.2636   13.8612   41.5376 H   0  0  0  0  0  0  0  0  0  0  0  0
    0.5058   13.2508   43.9373 H   0  0  0  0  0  0  0  0  0  0  0  0
    1.7979   17.2867   44.8271 H   0  0  0  0  0  0  0  0  0  0  0  0
    3.4470   22.0361   45.3458 H   0  0  0  0  0  0  0  0  0  0  0  0
    1.6603   22.2158   45.3901 H   0  0  0  0  0  0  0  0  0  0  0  0
    2.4009   20.5814   45.4728 H   0  0  0  0  0  0  0  0  0  0  0  0
    2.5804   22.6366   40.6635 H   0  0  0  0  0  0  0  0  0  0  0  0
    2.2040   20.9839   39.0058 H   0  0  0  0  0  0  0  0  0  0  0  0
    1.8097   19.2852   38.6292 H   0  0  0  0  0  0  0  0  0  0  0  0
  1  2  2  0
  1  6  1  0
  2  3  1  0
  3  4  2  0
  4  5  1  0
  5  6  2  0
  6  7  1  0
  7  8  2  0
  7  9  1  0
  8 16  1  0
  9 10  2  0
 10 11  1  0
 10 15  1  0
 11 12  1  0
 11 13  1  0
 13 14  2  0
 14 15  1  0
 15 16  2  0
 16 17  1  0
  1 18  1  0
  2 19  1  0
  3 20  1  0
  5 21  1  0
 12 22  1  0
 12 23  1  0
 12 24  1  0
 14 25  1  0
 17 26  1  0
 17 27  1  0
M  END
>  <mol_id>  (53) 
2026-09-18-6fnk-s0-n100-r7-0053

>  <rmsd_to_ref>  (53) 
2.841836734698652

>  <pose_kind>  (53) 
rigid

$$$$
6fnk.A
     RDKit          3D

 27 29  0  0  0  0  0  0  0  0999 V2000
    1.1119   16.9188   40.2638 C   0  0  0  0  0  0  0  0  0  0  0  0
    0.2849   16.0060   39.6256 C   0  0  0  0  0  0  0  0  0  0  0  0
   -0.9342   15.6880   40.2126 C   0  0  0  0  0  0  0  0  0  0  0  0
   -1.3145   16.2545   41.3851 N   0  0  0  0  0  0  0  0  0  0  0  0
   -0.5026   17.1469   42.0061 C   0  0  0  0  0  0  0  0  0  0  0  0
    0.7182   17.4945   41.4618 C   0  0  0  0  0  0  0  0  0  0  0  0
    1.5949   18.4553   42.1282 C   0  0  0  0  0  0  0  0  0  0  0  0
    2.8028   18.8078   41.6024 N   0  0  0  0  0  0  0  0  0  0  0  0
    1.1947   19.0033   43.2906 N   0  0  0  0  0  0  0  0  0  0  0  0
    1.9312   19.8923   43.9721 C   0  0  0  0  0  0  0  0  0  0  0  0
    1.7730   20.5740   45.1230 N   0  0  0  0  0  0  0  0  0  0  0  0
    0.6133   20.4603   45.9619 C   0  0  0  0  0  0  0  0  0  0  0  0
    2.8407   21.3475   45.3449 N   0  0  0  0  0  0  0  0  0  0  0  0
    3.7032   21.1528   44.3059 C   0  0  0  0  0  0  0  0  0  0  0  0
    3.1510   20.2485   43.4415 C   0  0  0  0  0  0  0  0  0  0  0  0
    3.5964   19.7031   42.2435 C   0  0  0  0  0  0  0  0  0  0  0  0
    4.8566   20.0702   41.6939 N   0  0  0  0  0  0  0  0  0  0  0  0
    2.0811   17.1888   39.8227 H   0  0  0  0  0  0  0  0  0  0  0  0
    0.5748   15.5370   38.6763 H   0  0  0  0  0  0  0  0  0  0  0  0
   -1.5411   14.9771   39.6832 H   0  0  0  0  0  0  0  0  0  0  0  0
   -0.8418   17.5803   42.9453 H   0  0  0  0  0  0  0  0  0  0  0  0
    0.4337   19.3895   46.1306 H   0  0  0  0  0  0  0  0  0  0  0  0
   -0.3005   20.8496   45.4296 H   0  0  0  0  0  0  0  0  0  0  0  0
    0.7459   20.9457   46.9334 H   0  0  0  0  0  0  0  0  0  0  0  0
    4.6704   21.6606   44.2201 H   0  0  0  0  0  0  0  0  0  0  0  0
    5.7061   19.7256   42.1875 H   0  0  0  0  0  0  0  0  0  0  0  0
    4.9124   20.6690   40.8195 H   0  0  0  0  0  0  0  0  0  0  0  0
  1  2  2  0
  1  6  1  0
  2  3  1  0
  3  4  2  0
  4  5  1  0
  5  6  2  0
  6  7  1  0
  7  8  2  0
  7  9  1  0
  8 16  1  0
  9 10  2  0
 10 11  1  0
 10 15  1  0
 11 12  1  0
 11 13  1  0
 13 14  2  0
 14 15  1  0
 15 16  2  0
 16 17  1  0
  1 18  1  0
  2 19  1  0
  3 20  1  0
  5 21  1  0
 12 22  1  0
 12 23  1  0
 12 24  1  0
 14 25  1  0
 17 26  1  0
 17 27  1  0
M  END
>  <mol_id>  (54) 
2026-09-18-6fnk-s0-n100-r7-0054

>  <rmsd_to_ref>  (54) 
2.88775510204203

>  <pose_kind>  (54) 
conformer

$$$$
6fnk.A
     RDKit          3D

 27 29  0  0  0  0  0  0  0  0999 V2000
    3.3600   16.2077   44.4420 C   0  0  0  0  0  0  0  0  0  0  0  0
    4.1033   15.2456   45.1259 C   0  0  0  0  0  0  0  0  0  0  0  0
    3.4674   14.1453   45.6821 C   0  0  0  0  0  0  0  0  0  0  0  0
    2.0833   14.0002   45.5534 N   0  0  0  0  0  0  0  0  0  0  0  0
    1.3381   14.9705   44.8663 C   0  0  0  0  0  0  0  0  0  0  0  0
    1.9755   16.0772   44.3087 C   0  0  0  0  0  0  0  0  0  0  0  0
    1.2297   17.0438   43.6264 C   0  0  0  0  0  0  0  0  0  0  0  0
    1.7880   18.1978   43.2357 N   0  0  0  0  0  0  0  0  0  0  0  0
   -0.0586   16.8176   43.3505 N   0  0  0  0  0  0  0  0  0  0  0  0
   -0.8101   17.7266   42.7040 C   0  0  0  0  0  0  0  0  0  0  0  0
   -2.1008   17.7303   42.3377 N   0  0  0  0  0  0  0  0  0  0  0  0
   -3.0656   16.6518   42.5725 C   0  0  0  0  0  0  0  0  0  0  0  0
   -2.3820   18.7780   41.7543 N   0  0  0  0  0  0  0  0  0  0  0  0
   -1.2591   19.5113   41.6811 C   0  0  0  0  0  0  0  0  0  0  0  0
   -0.2610   18.8686   42.3021 C   0  0  0  0  0  0  0  0  0  0  0  0
    1.0525   19.1069   42.5693 C   0  0  0  0  0  0  0  0  0  0  0  0
    1.6436   20.2617   42.1775 N   0  0  0  0  0  0  0  0  0  0  0  0
    3.8693   17.0783   44.0031 H   0  0  0  0  0  0  0  0  0  0  0  0
    5.1930   15.3593   45.2240 H   0  0  0  0  0  0  0  0  0  0  0  0
    4.0521   13.3875   46.2242 H   0  0  0  0  0  0  0  0  0  0  0  0
    0.2484   14.8573   44.7676 H   0  0  0  0  0  0  0  0  0  0  0  0
   -3.9646   17.0627   43.0552 H   0  0  0  0  0  0  0  0  0  0  0  0
   -3.3426   16.1921   41.6123 H   0  0  0  0  0  0  0  0  0  0  0  0
   -2.6135   15.8913   43.2262 H   0  0  0  0  0  0  0  0  0  0  0  0
   -1.1722   20.4901   41.1866 H   0  0  0  0  0  0  0  0  0  0  0  0
    1.0993   20.9712   41.6663 H   0  0  0  0  0  0  0  0  0  0  0  0
    2.6371   20.4299   42.3908 H   0  0  0  0  0  0  0  0  0  0  0  0
  1  2  2  0
  1  6  1  0
  2  3  1  0
  3  4  2  0
  4  5  1  0
  5  6  2  0
  6  7  1  0
  7  8  2  0
  7  9  1  0
  8 16  1  0
  9 10  2  0
 10 11  1  0
 10 15  1  0
 11 12  1  0
 11 13  1  0
 13 14  2  0
 14 15  1  0
 15 16  2  0
 16 17  1  0
  1 18  1  0
  2 19  1  0
  3 20  1  0
  5 21  1  0
 12 22  1  0
 12 23  1  0
 12 24  1  0
 14 25  1  0
 17 26  1  0
 17 27  1  0
M  END
>  <mol_id>  (55) 
2026-09-18-6fnk-s0-n100-r7-0055

>  <rmsd_to_ref>  (55) 
2.933673469390982

>  <pose_kind>  (55) 
rigid

$$$$
6fnk.A
     RDKit          3D

 27 29  0  0  0  0  0  0  0  0999 V2000
    4.3090   17.7772   43.5489 C   0  0  0  0  0  0  0  0  0  0  0  0
    5.4272   17.3640   42.8163 C   0  0  0  0  0  0  0  0  0  0  0  0
    5.2578   16.8169   41.5459 C   0  0  0  0  0  0  0  0  0  0  0  0
    4.0323   16.6826   41.0186 N   0  0  0  0  0  0  0  0  0  0  0  0
    2.9552   17.0792   41.7210 C   0  0  0  0  0  0  0  0  0  0  0  0
    3.0612   17.6248   42.9765 C   0  0  0  0  0  0  0  0  0  0  0  0
    1.8570   18.0369   43.6911 C   0  0  0  0  0  0  0  0  0  0  0  0
    0.6612   17.8707   43.0968 N   0  0  0  0  0  0  0  0  0  0  0  0
    1.9400   18.5739   44.9229 N   0  0  0  0  0  0  0  0  0  0  0  0
    0.8611   18.9666   45.6162 C   0  0  0  0  0  0  0  0  0  0  0  0
    0.6437   19.5221   46.8352 N   0  0  0  0  0  0  0  0  0  0  0  0
    1.7203   19.8496   47.7730 C   0  0  0  0  0  0  0  0  0  0  0  0
   -0.6566   19.7090   47.0219 N   0  0  0  0  0  0  0  0  0  0  0  0
   -1.3058   19.2737   45.9174 C   0  0  0  0  0  0  0  0  0  0  0  0
   -0.3720   18.8049   45.0254 C   0  0  0  0  0  0  0  0  0  0  0  0
   -0.4557   18.2563   43.7671 C   0  0  0  0  0  0  0  0  0  0  0  0
   -1.7599   18.1128   43.2044 N   0  0  0  0  0  0  0  0  0  0  0  0
    4.4378   18.2070   44.5459 H   0  0  0  0  0  0  0  0  0  0  0  0
    6.4235   17.4632   43.2224 H   0  0  0  0  0  0  0  0  0  0  0  0
    6.1546   16.5175   41.0310 H   0  0  0  0  0  0  0  0  0  0  0  0
    1.9924   16.9362   41.2220 H   0  0  0  0  0  0  0  0  0  0  0  0
    2.1210   18.8619   48.1232 H   0  0  0  0  0  0  0  0  0  0  0  0
    2.5152   20.3194   47.1545 H   0  0  0  0  0  0  0  0  0  0  0  0
    1.3574   20.4782   48.5883 H   0  0  0  0  0  0  0  0  0  0  0  0
   -2.3667   19.2953   45.7732 H   0  0  0  0  0  0  0  0  0  0  0  0
   -2.1602   17.1837   42.9307 H   0  0  0  0  0  0  0  0  0  0  0  0
   -2.3448   18.9886   43.0594 H   0  0  0  0  0  0  0  0  0  0  0  0
  1  2  2  0
  1  6  1  0
  2  3  1  0
  3  4  2  0
  4  5  1  0
  5  6  2  0
  6  7  1  0
  7  8  2  0
  7  9  1  0
  8 16  1  0
  9 10  2  0
 10 11  1  0
 10 15  1  0
 11 12  1  0
 11 13  1  0
 13 14  2  0
 14 15  1  0
 15 16  2  0
 16 17  1  0
  1 18  1  0
  2 19  1  0
  3 20  1  0
  5 21  1  0
 12 22  1  0
 12 23  1  0
 12 24  1  0
 14 25  1  0
 17 26  1  0
 17 27  1  0
M  END
>  <mol_id>  (56) 
2026-09-18-6fnk-s0-n100-r7-0056

>  <rmsd_to_ref>  (56) 
2.9795918367358034

>  <pose_kind>  (56) 
conformer

$$$$
6fnk.A
     RDKit          3D

 27 29  0  0  0  0  0  0  0  0999 V2000
    1.1120   16.0329   42.0928 C   0  0  0  0  0  0  0  0  0  0  0  0
    0.3059   14.9254   41.8290 C   0  0  0  0  0  0  0  0  0  0  0  0
   -0.9830   14.8695   42.3389 C   0  0  0  0  0  0  0  0  0  0  0  0
   -1.4736   15.9246   43.1131 N   0  0  0  0  0  0  0  0  0  0  0  0
   -0.6599   17.0366   43.3781 C   0  0  0  0  0  0  0  0  0  0  0  0
    0.6358   17.0930   42.8679 C   0  0  0  0  0  0  0  0  0  0  0  0
    1.4454   18.2016   43.1357 C   0  0  0  0  0  0  0  0  0  0  0  0
    2.7449   18.2029   42.8080 N   0  0  0  0  0  0  0  0  0  0  0  0
    0.9206   19.2827   43.7213 N   0  0  0  0  0  0  0  0  0  0  0  0
    1.6691   20.3641   44.0024 C   0  0  0  0  0  0  0  0  0  0  0  0
    1.3745   21.5347   44.5881 N   0  0  0  0  0  0  0  0  0  0  0  0
    0.0582   21.9384   45.0917 C   0  0  0  0  0  0  0  0  0  0  0  0
    2.3729   22.2539   44.6441 N   0  0  0  0  0  0  0  0  0  0  0  0
    3.3813   21.5882   44.0576 C   0  0  0  0  0  0  0  0  0  0  0  0
    2.9560   20.3784   43.6696 C   0  0  0  0  0  0  0  0  0  0  0  0
    3.5001   19.2869   43.0647 C   0  0  0  0  0  0  0  0  0  0  0  0
    4.8092   19.2658   42.7151 N   0  0  0  0  0  0  0  0  0  0  0  0
    2.1334   16.0718   41.6862 H   0  0  0  0  0  0  0  0  0  0  0  0
    0.6920   14.0969   41.2171 H   0  0  0  0  0  0  0  0  0  0  0  0
   -1.6185   13.9954   42.1340 H   0  0  0  0  0  0  0  0  0  0  0  0
   -1.0455   17.8656   43.9897 H   0  0  0  0  0  0  0  0  0  0  0  0
    0.1537   22.2835   46.1318 H   0  0  0  0  0  0  0  0  0  0  0  0
   -0.3379   22.7544   44.4695 H   0  0  0  0  0  0  0  0  0  0  0  0
   -0.6287   21.0802   45.0517 H   0  0  0  0  0  0  0  0  0  0  0  0
    4.4007   21.9770   43.9172 H   0  0  0  0  0  0  0  0  0  0  0  0
    5.4055   20.0845   42.9022 H   0  0  0  0  0  0  0  0  0  0  0  0
    5.2079   18.4310   42.2622 H   0  0  0  0  0  0  0  0  0  0  0  0
  1  2  2  0
  1  6  1  0
  2  3  1  0
  3  4  2  0
  4  5  1  0
  5  6  2  0
  6  7  1  0
  7  8  2  0
  7  9  1  0
  8 16  1  0
  9 10  2  0
 10 11  1  0
 10 15  1  0
 11 12  1  0
 11 13  1  0
 13 14  2  0
 14 15  1  0
 15 16  2  0
 16 17  1  0
  1 18  1  0
  2 19  1  0
  3 20  1  0
  5 21  1  0
 12 22  1  0
 12 23  1  0
 12 24  1  0
 14 25  1  0
 17 26  1  0
 17 27  1  0
M  END
>  <mol_id>  (57) 
2026-09-18-6fnk-s0-n100-r7-0057

>  <rmsd_to_ref>  (57) 
3.025510204083141

>  <pose_kind>  (57) 
rigid

$$$$
6fnk.A
     RDKit          3D

 27 29  0  0  0  0  0  0  0  0999 V2000
    1.7024   16.7863   45.4778 C   0  0  0  0  0  0  0  0  0  0  0  0
    2.5119   15.9977   46.2882 C   0  0  0  0  0  0  0  0  0  0  0  0
    3.8094   15.7154   45.8932 C   0  0  0  0  0  0  0  0  0  0  0  0
    4.3057   16.1842   44.7467 N   0  0  0  0  0  0  0  0  0  0  0  0
    3.5487   16.9472   43.9447 C   0  0  0  0  0  0  0  0  0  0  0  0
    2.2506   17.2521   44.3012 C   0  0  0  0  0  0  0  0  0  0  0  0
    1.4486   18.0850   43.4093 C   0  0  0  0  0  0  0  0  0  0  0  0
    1.9742   18.5441   42.2595 N   0  0  0  0  0  0  0  0  0  0  0  0
    0.1797   18.4022   43.7245 N   0  0  0  0  0  0  0  0  0  0  0  0
   -0.5931   19.1685   42.9276 C   0  0  0  0  0  0  0  0  0  0  0  0
   -1.8595   19.6364   42.9811 N   0  0  0  0  0  0  0  0  0  0  0  0
   -2.7448   19.3438   44.0881 C   0  0  0  0  0  0  0  0  0  0  0  0
   -2.0802   20.3554   41.8901 N   0  0  0  0  0  0  0  0  0  0  0  0
   -0.9801   20.3700   41.1169 C   0  0  0  0  0  0  0  0  0  0  0  0
   -0.0301   19.6267   41.7539 C   0  0  0  0  0  0  0  0  0  0  0  0
    1.2851   19.3118   41.4030 C   0  0  0  0  0  0  0  0  0  0  0  0
    1.7944   19.8151   40.1882 N   0  0  0  0  0  0  0  0  0  0  0  0
    0.6837   17.0091   45.7861 H   0  0  0  0  0  0  0  0  0  0  0  0
    2.1083   15.6129   47.2266 H   0  0  0  0  0  0  0  0  0  0  0  0
    4.3875   15.0929   46.5743 H   0  0  0  0  0  0  0  0  0  0  0  0
    3.9833   17.3181   43.0094 H   0  0  0  0  0  0  0  0  0  0  0  0
   -2.4101   19.7793   45.0386 H   0  0  0  0  0  0  0  0  0  0  0  0
   -3.7322   19.8146   43.8328 H   0  0  0  0  0  0  0  0  0  0  0  0
   -2.8890   18.2484   44.0998 H   0  0  0  0  0  0  0  0  0  0  0  0
   -0.9288   20.8949   40.1762 H   0  0  0  0  0  0  0  0  0  0  0  0
    2.4311   19.2747   39.5541 H   0  0  0  0  0  0  0  0  0  0  0  0
    1.5177   20.7963   39.8992 H   0  0  0  0  0  0  0  0  0  0  0  0
  1  2  2  0
  1  6  1  0
  2  3  1  0
  3  4  2  0
  4  5  1  0
  5  6  2  0
  6  7  1  0
  7  8  2  0
  7  9  1  0
  8 16  1  0
  9 10  2  0
 10 11  1  0
 10 15  1  0
 11 12  1  0
 11 13  1  0
 13 14  2  0
 14 15  1  0
 15 16  2  0
 16 17  1  0
  1 18  1  0
  2 19  1  0
  3 20  1  0
  5 21  1  0
 12 22  1  0
 12 23  1  0
 12 24  1  0
 14 25  1  0
 17 26  1  0
 17 27  1  0
M  END
>  <mol_id>  (58) 
2026-09-18-6fnk-s0-n100-r7-0058

>  <rmsd_to_ref>  (58) 
3.0714285714305607

>  <pose_kind>  (58) 
conformer

$$$$
6fnk.A
     RDKit          3D

 27 29  0  0  0  0  0  0  0  0999 V2000
    4.1152   16.9492   43.8056 C   0  0  0  0  0  0  0  0  0  0  0  0
    5.2529   16.5427   44.5030 C   0  0  0  0  0  0  0  0  0  0  0  0
    5.2951   16.6550   45.8851 C   0  0  0  0  0  0  0  0  0  0  0  0
    4.1964   17.1717   46.5772 N   0  0  0  0  0  0  0  0  0  0  0  0
    3.0541   17.5812   45.8728 C   0  0  0  0  0  0  0  0  0  0  0  0
    3.0112   17.4706   44.4842 C   0  0  0  0  0  0  0  0  0  0  0  0
    1.8720   17.8818   43.7846 C   0  0  0  0  0  0  0  0  0  0  0  0
    1.8710   17.9504   42.4462 N   0  0  0  0  0  0  0  0  0  0  0  0
    0.7615   18.2068   44.4540 N   0  0  0  0  0  0  0  0  0  0  0  0
   -0.3504   18.6149   43.8168 C   0  0  0  0  0  0  0  0  0  0  0  0
   -1.5544   19.0009   44.2658 N   0  0  0  0  0  0  0  0  0  0  0  0
   -1.9695   19.0654   45.6703 C   0  0  0  0  0  0  0  0  0  0  0  0
   -2.2934   19.2942   43.3251 N   0  0  0  0  0  0  0  0  0  0  0  0
   -1.6056   19.0796   42.1914 C   0  0  0  0  0  0  0  0  0  0  0  0
   -0.3639   18.6739   42.4888 C   0  0  0  0  0  0  0  0  0  0  0  0
    0.7582   18.3370   41.7954 C   0  0  0  0  0  0  0  0  0  0  0  0
    0.7809   18.3891   40.4414 N   0  0  0  0  0  0  0  0  0  0  0  0
    4.0872   16.8582   42.7097 H   0  0  0  0  0  0  0  0  0  0  0  0
    6.1159   16.1334   43.9575 H   0  0  0  0  0  0  0  0  0  0  0  0
    6.1928   16.3375   46.4358 H   0  0  0  0  0  0  0  0  0  0  0  0
    2.1905   17.9903   46.4178 H   0  0  0  0  0  0  0  0  0  0  0  0
   -2.3896   20.0595   45.8832 H   0  0  0  0  0  0  0  0  0  0  0  0
   -2.7319   18.2962   45.8630 H   0  0  0  0  0  0  0  0  0  0  0  0
   -1.0985   18.8889   46.3185 H   0  0  0  0  0  0  0  0  0  0  0  0
   -2.0014   19.2162   41.1743 H   0  0  0  0  0  0  0  0  0  0  0  0
   -0.0595   18.6822   39.9231 H   0  0  0  0  0  0  0  0  0  0  0  0
    1.6386   18.1355   39.9306 H   0  0  0  0  0  0  0  0  0  0  0  0
  1  2  2  0
  1  6  1  0
  2  3  1  0
  3  4  2  0
  4  5  1  0
  5  6  2  0
  6  7  1  0
  7  8  2  0
  7  9  1  0
  8 16  1  0
  9 10  2  0
 10 11  1  0
 10 15  1  0
 11 12  1  0
 11 13  1  0
 13 14  2  0
 14 15  1  0
 15 16  2  0
 16 17  1  0
  1 18  1  0
  2 19  1  0
  3 20  1  0
  5 21  1  0
 12 22  1  0
 12 23  1  0
 12 24  1  0
 14 25  1  0
 17 26  1  0
 17 27  1  0
M  END
>  <mol_id>  (59) 
2026-09-18-6fnk-s0-n100-r7-0059

>  <rmsd_to_ref>  (59) 
3.11734693877887

>  <pose_kind>  (59) 
rigid

$$$$
6fnk.A
     RDKit          3D

 27 29  0  0  0  0  0  0  0  0999 V2000
   -0.4914   15.4971   40.7554 C   0  0  0  0  0  0  0  0  0  0  0  0
   -1.1178   14.7794   39.7614 C   0  0  0  0  0  0  0  0  0  0  0  0
   -0.4756   14.4564   38.5811 C   0  0  0  0  0  0  0  0  0  0  0  0
    0.7996   14.8287   38.3432 N   0  0  0  0  0  0  0  0  0  0  0  0
    1.4397   15.5385   39.3102 C   0  0  0  0  0  0  0  0  0  0  0  0
    0.8288   15.8773   40.4983 C   0  0  0  0  0  0  0  0  0  0  0  0
    1.5926   16.6420   41.4811 C   0  0  0  0  0  0  0  0  0  0  0  0
    2.8560   16.9660   41.1524 N   0  0  0  0  0  0  0  0  0  0  0  0
    1.0305   16.9956   42.6614 N   0  0  0  0  0  0  0  0  0  0  0  0
    1.7697   17.7015   43.5417 C   0  0  0  0  0  0  0  0  0  0  0  0
    1.5328   18.2018   44.7688 N   0  0  0  0  0  0  0  0  0  0  0  0
    0.2974   18.0982   45.5333 C   0  0  0  0  0  0  0  0  0  0  0  0
    2.5987   18.8322   45.2332 N   0  0  0  0  0  0  0  0  0  0  0  0
    3.5997   18.7802   44.3314 C   0  0  0  0  0  0  0  0  0  0  0  0
    3.0848   18.0708   43.2660 C   0  0  0  0  0  0  0  0  0  0  0  0
    3.6111   17.6780   42.0326 C   0  0  0  0  0  0  0  0  0  0  0  0
    4.9542   18.0476   41.7353 N   0  0  0  0  0  0  0  0  0  0  0  0
   -0.9760   15.7574   41.6805 H   0  0  0  0  0  0  0  0  0  0  0  0
   -2.1491   14.4844   39.9665 H   0  0  0  0  0  0  0  0  0  0  0  0
   -1.0025   13.8855   37.8131 H   0  0  0  0  0  0  0  0  0  0  0  0
    2.4561   15.8172   39.0831 H   0  0  0  0  0  0  0  0  0  0  0  0
    0.4163   17.3654   46.3849 H   0  0  0  0  0  0  0  0  0  0  0  0
   -0.5418   17.7315   44.9153 H   0  0  0  0  0  0  0  0  0  0  0  0
    0.1049   19.1179   45.9248 H   0  0  0  0  0  0  0  0  0  0  0  0
    4.6058   19.1986   44.4027 H   0  0  0  0  0  0  0  0  0  0  0  0
    5.2080   18.9206   41.2323 H   0  0  0  0  0  0  0  0  0  0  0  0
    5.7090   17.4216   42.0321 H   0  0  0  0  0  0  0  0  0  0  0  0
  1  2  2  0
  1  6  1  0
  2  3  1  0
  3  4  2  0
  4  5  1  0
  5  6  2  0
  6  7  1  0
  7  8  2  0
  7  9  1  0
  8 16  1  0
  9 10  2  0
 10 11  1  0
 10 15  1  0
 11 12  1  0
 11 13  1  0
 13 14  2  0
 14 15  1  0
 15 16  2  0
 16 17  1  0
  1 18  1  0
  2 19  1  0
  3 20  1  0
  5 21  1  0
 12 22  1  0
 12 23  1  0
 12 24  1  0
 14 25  1  0
 17 26  1  0
 17 27  1  0
M  END
>  <mol_id>  (60) 
2026-09-18-6fnk-s0-n100-r7-0060

>  <rmsd_to_ref>  (60) 
3.163265306123984

>  <pose_kind>  (60) 
conformer

$$$$
6fnk.A
     RDKit          3D

 27 29  0  0  0  0  0  0  0  0999 V2000
   -0.1079   18.1721   39.4713 C   0  0  0  0  0  0  0  0  0  0  0  0
   -0.4262   17.7253   38.1887 C   0  0  0  0  0  0  0  0  0  0  0  0
   -0.5947   16.3693   37.9494 C   0  0  0  0  0  0  0  0  0  0  0  0
   -0.4490   15.4528   38.9944 N   0  0  0  0  0  0  0  0  0  0  0  0
   -0.1273   15.9050   40.2831 C   0  0  0  0  0  0  0  0  0  0  0  0
    0.0441   17.2668   40.5243 C   0  0  0  0  0  0  0  0  0  0  0  0
    0.3671   17.7144   41.8094 C   0  0  0  0  0  0  0  0  0  0  0  0
    0.7081   18.9915   42.0305 N   0  0  0  0  0  0  0  0  0  0  0  0
    0.3312   16.8626   42.8391 N   0  0  0  0  0  0  0  0  0  0  0  0
    0.6435   17.2538   44.0874 C   0  0  0  0  0  0  0  0  0  0  0  0
    0.6938   16.5899   45.2523 N   0  0  0  0  0  0  0  0  0  0  0  0
    0.3883   15.1695   45.4477 C   0  0  0  0  0  0  0  0  0  0  0  0
    1.0291   17.3445   46.1662 N   0  0  0  0  0  0  0  0  0  0  0  0
    1.1864   18.5697   45.6388 C   0  0  0  0  0  0  0  0  0  0  0  0
    0.9708   18.5216   44.3174 C   0  0  0  0  0  0  0  0  0  0  0  0
    1.0024   19.4007   43.2784 C   0  0  0  0  0  0  0  0  0  0  0  0
    1.3352   20.6994   43.4761 N   0  0  0  0  0  0  0  0  0  0  0  0
    0.0248   19.2484   39.6554 H   0  0  0  0  0  0  0  0  0  0  0  0
   -0.5436   18.4478   37.3676 H   0  0  0  0  0  0  0  0  0  0  0  0
   -0.8428   16.0157   36.9377 H   0  0  0  0  0  0  0  0  0  0  0  0
   -0.0100   15.1831   41.1047 H   0  0  0  0  0  0  0  0  0  0  0  0
    1.2194   14.6858   45.9818 H   0  0  0  0  0  0  0  0  0  0  0  0
   -0.5342   15.0708   46.0387 H   0  0  0  0  0  0  0  0  0  0  0  0
    0.2504   14.6861   44.4693 H   0  0  0  0  0  0  0  0  0  0  0  0
    1.4518   19.4745   46.2053 H   0  0  0  0  0  0  0  0  0  0  0  0
    1.5641   21.0340   44.4229 H   0  0  0  0  0  0  0  0  0  0  0  0
    1.3592   21.3519   42.6795 H   0  0  0  0  0  0  0  0  0  0  0  0
  1  2  2  0
  1  6  1  0
  2  3  1  0
  3  4  2  0
  4  5  1  0
  5  6  2  0
  6  7  1  0
  7  8  2  0
  7  9  1  0
  8 16  1  0
  9 10  2  0
 10 11  1  0
 10 15  1  0
 11 12  1  0
 11 13  1  0
 13 14  2  0
 14 15  1  0
 15 16  2  0
 16 17  1  0
  1 18  1  0
  2 19  1  0
  3 20  1  0
  5 21  1  0
 12 22  1  0
 12 23  1  0
 12 24  1  0
 14 25  1  0
 17 26  1  0
 17 27  1  0
M  END
>  <mol_id>  (61) 
2026-09-18-6fnk-s0-n100-r7-0061

>  <rmsd_to_ref>  (61) 
3.2091836734697945

>  <pose_kind>  (61) 
rigid

$$$$
6fnk.A
     RDKit          3D

 27 29  0  0  0  0  0  0  0  0999 V2000
    0.0155   16.7659   39.8902 C   0  0  0  0  0  0  0  0  0  0  0  0
    0.1930   16.6138   38.5392 C   0  0  0  0  0  0  0  0  0  0  0  0
    1.1051   17.3717   37.8292 C   0  0  0  0  0  0  0  0  0  0  0  0
    1.8323   18.2859   38.5177 N   0  0  0  0  0  0  0  0  0  0  0  0
    1.6754   18.4576   39.8626 C   0  0  0  0  0  0  0  0  0  0  0  0
    0.7716   17.7033   40.5527 C   0  0  0  0  0  0  0  0  0  0  0  0
    0.6157   17.8987   41.9892 C   0  0  0  0  0  0  0  0  0  0  0  0
    1.3603   18.8186   42.6283 N   0  0  0  0  0  0  0  0  0  0  0  0
   -0.2549   17.1891   42.7235 N   0  0  0  0  0  0  0  0  0  0  0  0
   -0.4256   17.3396   44.0399 C   0  0  0  0  0  0  0  0  0  0  0  0
   -1.2066   16.7753   44.9904 N   0  0  0  0  0  0  0  0  0  0  0  0
   -2.1547   15.7377   44.7181 C   0  0  0  0  0  0  0  0  0  0  0  0
   -0.9396   17.3417   46.1771 N   0  0  0  0  0  0  0  0  0  0  0  0
    0.0159   18.2796   46.0156 C   0  0  0  0  0  0  0  0  0  0  0  0
    0.3548   18.2954   44.6756 C   0  0  0  0  0  0  0  0  0  0  0  0
    1.2693   19.0521   43.9502 C   0  0  0  0  0  0  0  0  0  0  0  0
    2.0713   20.0327   44.5978 N   0  0  0  0  0  0  0  0  0  0  0  0
   -0.6873   16.1835   40.4435 H   0  0  0  0  0  0  0  0  0  0  0  0
   -0.3772   15.8876   37.9617 H   0  0  0  0  0  0  0  0  0  0  0  0
    1.2432   17.2464   36.7502 H   0  0  0  0  0  0  0  0  0  0  0  0
    2.2556   19.1883   40.4173 H   0  0  0  0  0  0  0  0  0  0  0  0
   -1.7640   14.7158   44.7601 H   0  0  0  0  0  0  0  0  0  0  0  0
   -2.6030   15.9309   43.7283 H   0  0  0  0  0  0  0  0  0  0  0  0
   -2.9529   15.7949   45.5056 H   0  0  0  0  0  0  0  0  0  0  0  0
    0.4261   18.8946   46.8054 H   0  0  0  0  0  0  0  0  0  0  0  0
    2.8908   19.7945   45.1937 H   0  0  0  0  0  0  0  0  0  0  0  0
    1.8435   21.0506   44.4828 H   0  0  0  0  0  0  0  0  0  0  0  0
  1  2  2  0
  1  6  1  0
  2  3  1  0
  3  4  2  0
  4  5  1  0
  5  6  2  0
  6  7  1  0
  7  8  2  0
  7  9  1  0
  8 16  1  0
  9 10  2  0
 10 11  1  0
 10 15  1  0
 11 12  1  0
 11 13  1  0
 13 14  2  0
 14 15  1  0
 15 16  2  0
 16 17  1  0
  1 18  1  0
  2 19  1  0
  3 20  1  0
  5 21  1  0
 12 22  1  0
 12 23  1  0
 12 24  1  0
 14 25  1  0
 17 26  1  0
 17 27  1  0
M  END
>  <mol_id>  (62) 
2026-09-18-6fnk-s0-n100-r7-0062

>  <rmsd_to_ref>  (62) 
3.2551020408211513

>  <pose_kind>  (62) 
conformer

$$$$
6fnk.A
     RDKit          3D

 27 29  0  0  0  0  0  0  0  0999 V2000
    1.4684   15.4017   43.2604 C   0  0  0  0  0  0  0  0  0  0  0  0
    0.9517   14.2698   43.8910 C   0  0  0  0  0  0  0  0  0  0  0  0
    0.4203   14.3703   45.1685 C   0  0  0  0  0  0  0  0  0  0  0  0
    0.3998   15.6063   45.8206 N   0  0  0  0  0  0  0  0  0  0  0  0
    0.9217   16.7428   45.1843 C   0  0  0  0  0  0  0  0  0  0  0  0
    1.4576   16.6427   43.9018 C   0  0  0  0  0  0  0  0  0  0  0  0
    1.9792   17.7768   43.2711 C   0  0  0  0  0  0  0  0  0  0  0  0
    2.6549   17.6764   42.1181 N   0  0  0  0  0  0  0  0  0  0  0  0
    1.7995   18.9836   43.8173 N   0  0  0  0  0  0  0  0  0  0  0  0
    2.2935   20.0959   43.2450 C   0  0  0  0  0  0  0  0  0  0  0  0
    2.2554   21.3872   43.6074 N   0  0  0  0  0  0  0  0  0  0  0  0
    1.6073   21.9262   44.8067 C   0  0  0  0  0  0  0  0  0  0  0  0
    2.8412   22.0864   42.7796 N   0  0  0  0  0  0  0  0  0  0  0  0
    3.2716   21.2744   41.8001 C   0  0  0  0  0  0  0  0  0  0  0  0
    2.9543   20.0066   42.0950 C   0  0  0  0  0  0  0  0  0  0  0  0
    3.1363   18.7841   41.5242 C   0  0  0  0  0  0  0  0  0  0  0  0
    3.8080   18.6558   40.3543 N   0  0  0  0  0  0  0  0  0  0  0  0
    1.8889   15.3162   42.2475 H   0  0  0  0  0  0  0  0  0  0  0  0
    0.9656   13.2981   43.3756 H   0  0  0  0  0  0  0  0  0  0  0  0
    0.0152   13.4778   45.6678 H   0  0  0  0  0  0  0  0  0  0  0  0
    0.9078   17.7149   45.6990 H   0  0  0  0  0  0  0  0  0  0  0  0
    2.3216   22.5553   45.3581 H   0  0  0  0  0  0  0  0  0  0  0  0
    0.7368   22.5311   44.5127 H   0  0  0  0  0  0  0  0  0  0  0  0
    1.2772   21.0967   45.4493 H   0  0  0  0  0  0  0  0  0  0  0  0
    3.8034   21.6005   40.8941 H   0  0  0  0  0  0  0  0  0  0  0  0
    4.1848   19.4903   39.8826 H   0  0  0  0  0  0  0  0  0  0  0  0
    3.9417   17.7238   39.9367 H   0  0  0  0  0  0  0  0  0  0  0  0
  1  2  2  0
  1  6  1  0
  2  3  1  0
  3  4  2  0
  4  5  1  0
  5  6  2  0
  6  7  1  0
  7  8  2  0
  7  9  1  0
  8 16  1  0
  9 10  2  0
 10 11  1  0
 10 15  1  0
 11 12  1  0
 11 13  1  0
 13 14  2  0
 14 15  1  0
 15 16  2  0
 16 17  1  0
  1 18  1  0
  2 19  1  0
  3 20  1  0
  5 21  1  0
 12 22  1  0
 12 23  1  0
 12 24  1  0
 14 25  1  0
 17 26  1  0
 17 27  1  0
M  END
>  <mol_id>  (63) 
2026-09-18-6fnk-s0-n100-r7-0063

>  <rmsd_to_ref>  (63) 
3.301020408169723

>  <pose_kind>  (63) 
rigid

$$$$
6fnk.A
     RDKit          3D

 27 29  0  0  0  0  0  0  0  0999 V2000
    1.8728   15.5376   43.0046 C   0  0  0  0  0  0  0  0  0  0  0  0
    2.0472   14.2980   43.5909 C   0  0  0  0  0  0  0  0  0  0  0  0
    1.4836   13.2013   42.9703 C   0  0  0  0  0  0  0  0  0  0  0  0
    0.7820   13.2806   41.8371 N   0  0  0  0  0  0  0  0  0  0  0  0
    0.5904   14.4798   41.2335 C   0  0  0  0  0  0  0  0  0  0  0  0
    1.1438   15.5943   41.8334 C   0  0  0  0  0  0  0  0  0  0  0  0
    0.9447   16.8935   41.1930 C   0  0  0  0  0  0  0  0  0  0  0  0
    0.2389   16.9900   40.0486 N   0  0  0  0  0  0  0  0  0  0  0  0
    1.4590   18.0186   41.7284 N   0  0  0  0  0  0  0  0  0  0  0  0
    1.2876   19.2313   41.1535 C   0  0  0  0  0  0  0  0  0  0  0  0
    1.7016   20.4628   41.5031 N   0  0  0  0  0  0  0  0  0  0  0  0
    2.4909   20.8601   42.6567 C   0  0  0  0  0  0  0  0  0  0  0  0
    1.2713   21.3460   40.5995 N   0  0  0  0  0  0  0  0  0  0  0  0
    0.5674   20.6596   39.6537 C   0  0  0  0  0  0  0  0  0  0  0  0
    0.5635   19.3218   39.9815 C   0  0  0  0  0  0  0  0  0  0  0  0
    0.0249   18.1692   39.4145 C   0  0  0  0  0  0  0  0  0  0  0  0
   -0.7205   18.2640   38.2077 N   0  0  0  0  0  0  0  0  0  0  0  0
    2.3023   16.4376   43.4615 H   0  0  0  0  0  0  0  0  0  0  0  0
    2.6140   14.2261   44.5085 H   0  0  0  0  0  0  0  0  0  0  0  0
    1.6005   12.2073   43.4040 H   0  0  0  0  0  0  0  0  0  0  0  0
    0.0180   14.5141   40.3165 H   0  0  0  0  0  0  0  0  0  0  0  0
    1.9019   21.4886   43.3788 H   0  0  0  0  0  0  0  0  0  0  0  0
    3.3784   21.4226   42.2796 H   0  0  0  0  0  0  0  0  0  0  0  0
    2.8848   19.9751   43.1945 H   0  0  0  0  0  0  0  0  0  0  0  0
    0.0748   21.0823   38.7663 H   0  0  0  0  0  0  0  0  0  0  0  0
   -0.2200   18.6397   37.3639 H   0  0  0  0  0  0  0  0  0  0  0  0
   -1.7194   17.9847   38.1201 H   0  0  0  0  0  0  0  0  0  0  0  0
  1  2  2  0
  1  6  1  0
  2  3  1  0
  3  4  2  0
  4  5  1  0
  5  6  2  0
  6  7  1  0
  7  8  2  0
  7  9  1  0
  8 16  1  0
  9 10  2  0
 10 11  1  0
 10 15  1  0
 11 12  1  0
 11 13  1  0
 13 14  2  0
 14 15  1  0
 15 16  2  0
 16 17  1  0
  1 18  1  0
  2 19  1  0
  3 20  1  0
  5 21  1  0
 12 22  1  0
 12 23  1  0
 12 24  1  0
 14 25  1  0
 17 26  1  0
 17 27  1  0
M  END
>  <mol_id>  (64) 
2026-09-18-6fnk-s0-n100-r7-0064

>  <rmsd_to_ref>  (64) 
3.346938775513442

>  <pose_kind>  (64) 
conformer

$$$$
6fnk.A
     RDKit          3D

 27 29  0  0  0  0  0  0  0  0999 V2000
    2.0161   15.5499   42.1648 C   0  0  0  0  0  0  0  0  0  0  0  0
    2.4956   14.5856   43.0514 C   0  0  0  0  0  0  0  0  0  0  0  0
    3.0808   14.9744   44.2476 C   0  0  0  0  0  0  0  0  0  0  0  0
    3.1858   16.3315   44.5647 N   0  0  0  0  0  0  0  0  0  0  0  0
    2.7039   17.2992   43.6701 C   0  0  0  0  0  0  0  0  0  0  0  0
    2.1176   16.9099   42.4672 C   0  0  0  0  0  0  0  0  0  0  0  0
    1.6404   17.8769   41.5765 C   0  0  0  0  0  0  0  0  0  0  0  0
    1.2349   17.5404   40.3443 N   0  0  0  0  0  0  0  0  0  0  0  0
    1.5787   19.1575   41.9551 N   0  0  0  0  0  0  0  0  0  0  0  0
    1.1339   20.1166   41.1238 C   0  0  0  0  0  0  0  0  0  0  0  0
    0.9989   21.4434   41.2712 N   0  0  0  0  0  0  0  0  0  0  0  0
    1.3269   22.2139   42.4744 C   0  0  0  0  0  0  0  0  0  0  0  0
    0.5433   21.9486   40.2444 N   0  0  0  0  0  0  0  0  0  0  0  0
    0.3239   20.9532   39.3696 C   0  0  0  0  0  0  0  0  0  0  0  0
    0.7182   19.7897   39.9042 C   0  0  0  0  0  0  0  0  0  0  0  0
    0.7678   18.4876   39.5099 C   0  0  0  0  0  0  0  0  0  0  0  0
    0.3555   18.1194   38.2727 N   0  0  0  0  0  0  0  0  0  0  0  0
    1.5533   15.2361   41.2175 H   0  0  0  0  0  0  0  0  0  0  0  0
    2.4098   13.5177   42.8023 H   0  0  0  0  0  0  0  0  0  0  0  0
    3.4620   14.2150   44.9462 H   0  0  0  0  0  0  0  0  0  0  0  0
    2.7892   18.3673   43.9188 H   0  0  0  0  0  0  0  0  0  0  0  0
    1.9846   23.0533   42.2043 H   0  0  0  0  0  0  0  0  0  0  0  0
    0.4016   22.6031   42.9241 H   0  0  0  0  0  0  0  0  0  0  0  0
    1.8407   21.5635   43.1976 H   0  0  0  0  0  0  0  0  0  0  0  0
   -0.1129   21.0747   38.3674 H   0  0  0  0  0  0  0  0  0  0  0  0
   -0.0055   18.8279   37.6180 H   0  0  0  0  0  0  0  0  0  0  0  0
    0.4032   17.1310   37.9869 H   0  0  0  0  0  0  0  0  0  0  0  0
  1  2  2  0
  1  6  1  0
  2  3  1  0
  3  4  2  0
  4  5  1  0
  5  6  2  0
  6  7  1  0
  7  8  2  0
  7  9  1  0
  8 16  1  0
  9 10  2  0
 10 11  1  0
 10 15  1  0
 11 12  1  0
 11 13  1  0
 13 14  2  0
 14 15  1  0
 15 16  2  0
 16 17  1  0
  1 18  1  0
  2 19  1  0
  3 20  1  0
  5 21  1  0
 12 22  1  0
 12 23  1  0
 12 24  1  0
 14 25  1  0
 17 26  1  0
 17 27  1  0
M  END
>  <mol_id>  (65) 
2026-09-18-6fnk-s0-n100-r7-0065

>  <rmsd_to_ref>  (65) 
3.3928571428593033

>  <pose_kind>  (65) 
rigid

$$$$
6fnk.A
     RDKit          3D

 27 29  0  0  0  0  0  0  0  0999 V2000
    0.4575   17.2879   39.3826 C   0  0  0  0  0  0  0  0  0  0  0  0
   -0.5336   16.5106   38.8293 C   0  0  0  0  0  0  0  0  0  0  0  0
   -1.1123   15.5277   39.5836 C   0  0  0  0  0  0  0  0  0  0  0  0
   -0.7543   15.2770   40.8656 N   0  0  0  0  0  0  0  0  0  0  0  0
    0.2028   16.0224   41.4103 C   0  0  0  0  0  0  0  0  0  0  0  0
    0.8283   17.0367   40.6930 C   0  0  0  0  0  0  0  0  0  0  0  0
    1.8797   17.8501   41.3026 C   0  0  0  0  0  0  0  0  0  0  0  0
    2.5081   18.8394   40.6421 N   0  0  0  0  0  0  0  0  0  0  0  0
    2.2320   17.5996   42.5720 N   0  0  0  0  0  0  0  0  0  0  0  0
    3.1919   18.3143   43.1852 C   0  0  0  0  0  0  0  0  0  0  0  0
    3.7128   18.2568   44.4249 N   0  0  0  0  0  0  0  0  0  0  0  0
    3.2576   17.2868   45.4195 C   0  0  0  0  0  0  0  0  0  0  0  0
    4.6484   19.1821   44.5572 N   0  0  0  0  0  0  0  0  0  0  0  0
    4.7787   19.8804   43.4160 C   0  0  0  0  0  0  0  0  0  0  0  0
    3.8621   19.3412   42.5384 C   0  0  0  0  0  0  0  0  0  0  0  0
    3.4824   19.5823   41.2291 C   0  0  0  0  0  0  0  0  0  0  0  0
    4.1266   20.6218   40.5006 N   0  0  0  0  0  0  0  0  0  0  0  0
    0.9072   18.0617   38.7760 H   0  0  0  0  0  0  0  0  0  0  0  0
   -0.8451   16.6878   37.7973 H   0  0  0  0  0  0  0  0  0  0  0  0
   -1.8978   14.9283   39.1113 H   0  0  0  0  0  0  0  0  0  0  0  0
    0.4940   15.8254   42.4390 H   0  0  0  0  0  0  0  0  0  0  0  0
    3.3515   17.7926   46.4075 H   0  0  0  0  0  0  0  0  0  0  0  0
    3.9189   16.4030   45.4459 H   0  0  0  0  0  0  0  0  0  0  0  0
    2.1943   17.0011   45.2138 H   0  0  0  0  0  0  0  0  0  0  0  0
    5.4281   20.6936   43.1595 H   0  0  0  0  0  0  0  0  0  0  0  0
    5.1054   20.4429   40.1513 H   0  0  0  0  0  0  0  0  0  0  0  0
    3.7218   21.5357   40.2831 H   0  0  0  0  0  0  0  0  0  0  0  0
  1  2  2  0
  1  6  1  0
  2  3  1  0
  3  4  2  0
  4  5  1  0
  5  6  2  0
  6  7  1  0
  7  8  2  0
  7  9  1  0
  8 16  1  0
  9 10  2  0
 10 11  1  0
 10 15  1  0
 11 12  1  0
 11 13  1  0
 13 14  2  0
 14 15  1  0
 15 16  2  0
 16 17  1  0
  1 18  1  0
  2 19  1  0
  3 20  1  0
  5 21  1  0
 12 22  1  0
 12 23  1  0
 12 24  1  0
 14 25  1  0
 17 26  1  0
 17 27  1  0
M  END
>  <mol_id>  (66) 
2026-09-18-6fnk-s0-n100-r7-0066

>  <rmsd_to_ref>  (66) 
3.43877551021077

>  <pose_kind>  (66) 
conformer

$$$$
6fnk.A
     RDKit          3D

 27 29  0  0  0  0  0  0  0  0999 V2000
    1.4362   16.3863   42.9689 C   0  0  0  0  0  0  0  0  0  0  0  0
    2.6898   15.7750   42.9988 C   0  0  0  0  0  0  0  0  0  0  0  0
    3.8273   16.5376   43.2196 C   0  0  0  0  0  0  0  0  0  0  0  0
    3.7157   17.9169   43.4154 N   0  0  0  0  0  0  0  0  0  0  0  0
    2.4536   18.5293   43.3831 C   0  0  0  0  0  0  0  0  0  0  0  0
    1.3103   17.7644   43.1596 C   0  0  0  0  0  0  0  0  0  0  0  0
    0.0539   18.3779   43.1256 C   0  0  0  0  0  0  0  0  0  0  0  0
   -1.0358   17.6992   42.7407 N   0  0  0  0  0  0  0  0  0  0  0  0
   -0.0710   19.6587   43.4874 N   0  0  0  0  0  0  0  0  0  0  0  0
   -1.2608   20.2852   43.4596 C   0  0  0  0  0  0  0  0  0  0  0  0
   -1.6225   21.5430   43.7552 N   0  0  0  0  0  0  0  0  0  0  0  0
   -0.7301   22.6087   44.2208 C   0  0  0  0  0  0  0  0  0  0  0  0
   -2.8339   21.6946   43.5916 N   0  0  0  0  0  0  0  0  0  0  0  0
   -3.3385   20.5117   43.2040 C   0  0  0  0  0  0  0  0  0  0  0  0
   -2.3486   19.6159   43.0909 C   0  0  0  0  0  0  0  0  0  0  0  0
   -2.2358   18.3085   42.7286 C   0  0  0  0  0  0  0  0  0  0  0  0
   -3.3231   17.5970   42.3440 N   0  0  0  0  0  0  0  0  0  0  0  0
    0.5376   15.7768   42.7932 H   0  0  0  0  0  0  0  0  0  0  0  0
    2.7762   14.6889   42.8476 H   0  0  0  0  0  0  0  0  0  0  0  0
    4.8166   16.0571   43.2404 H   0  0  0  0  0  0  0  0  0  0  0  0
    2.3665   19.6153   43.5346 H   0  0  0  0  0  0  0  0  0  0  0  0
   -0.8651   23.5009   43.5918 H   0  0  0  0  0  0  0  0  0  0  0  0
   -0.9693   22.8570   45.2654 H   0  0  0  0  0  0  0  0  0  0  0  0
    0.3137   22.2679   44.1547 H   0  0  0  0  0  0  0  0  0  0  0  0
   -4.4020   20.3092   43.0093 H   0  0  0  0  0  0  0  0  0  0  0  0
   -4.2512   18.0435   42.3274 H   0  0  0  0  0  0  0  0  0  0  0  0
   -3.2215   16.6098   42.0683 H   0  0  0  0  0  0  0  0  0  0  0  0
  1  2  2  0
  1  6  1  0
  2  3  1  0
  3  4  2  0
  4  5  1  0
  5  6  2  0
  6  7  1  0
  7  8  2  0
  7  9  1  0
  8 16  1  0
  9 10  2  0
 10 11  1  0
 10 15  1  0
 11 12  1  0
 11 13  1  0
 13 14  2  0
 14 15  1  0
 15 16  2  0
 16 17  1  0
  1 18  1  0
  2 19  1  0
  3 20  1  0
  5 21  1  0
 12 22  1  0
 12 23  1  0
 12 24  1  0
 14 25  1  0
 17 26  1  0
 17 27  1  0
M  END
>  <mol_id>  (67) 
2026-09-18-6fnk-s0-n100-r7-0067

>  <rmsd_to_ref>  (67) 
3.484693877551945

>  <pose_kind>  (67) 
rigid

$$$$
6fnk.A
     RDKit          3D

 27 29  0  0  0  0  0  0  0  0999 V2000
    1.5590   18.5949   39.8925 C   0  0  0  0  0  0  0  0  0  0  0  0
    2.3092   18.6140   38.7116 C   0  0  0  0  0  0  0  0  0  0  0  0
    3.5446   19.2584   38.6876 C   0  0  0  0  0  0  0  0  0  0  0  0
    4.0213   19.8609   39.7866 N   0  0  0  0  0  0  0  0  0  0  0  0
    3.3018   19.8441   40.9236 C   0  0  0  0  0  0  0  0  0  0  0  0
    2.0791   19.2250   41.0062 C   0  0  0  0  0  0  0  0  0  0  0  0
    1.3437   19.2394   42.2670 C   0  0  0  0  0  0  0  0  0  0  0  0
    1.8867   19.8646   43.3276 N   0  0  0  0  0  0  0  0  0  0  0  0
    0.1434   18.6381   42.3681 N   0  0  0  0  0  0  0  0  0  0  0  0
   -0.5673   18.6261   43.5055 C   0  0  0  0  0  0  0  0  0  0  0  0
   -1.7645   18.1180   43.8932 N   0  0  0  0  0  0  0  0  0  0  0  0
   -2.6468   17.3663   42.9975 C   0  0  0  0  0  0  0  0  0  0  0  0
   -1.9874   18.4075   45.1687 N   0  0  0  0  0  0  0  0  0  0  0  0
   -0.9290   19.1134   45.6298 C   0  0  0  0  0  0  0  0  0  0  0  0
   -0.0288   19.2605   44.6024 C   0  0  0  0  0  0  0  0  0  0  0  0
    1.1974   19.8744   44.4981 C   0  0  0  0  0  0  0  0  0  0  0  0
    1.7062   20.5163   45.6674 N   0  0  0  0  0  0  0  0  0  0  0  0
    0.5893   18.0904   39.9153 H   0  0  0  0  0  0  0  0  0  0  0  0
    1.9437   18.1347   37.8149 H   0  0  0  0  0  0  0  0  0  0  0  0
    4.0753   19.2397   37.7512 H   0  0  0  0  0  0  0  0  0  0  0  0
    3.7591   20.3572   41.7746 H   0  0  0  0  0  0  0  0  0  0  0  0
   -3.0307   18.1175   42.2579 H   0  0  0  0  0  0  0  0  0  0  0  0
   -1.9785   16.6759   42.4389 H   0  0  0  0  0  0  0  0  0  0  0  0
   -3.4426   16.8667   43.5532 H   0  0  0  0  0  0  0  0  0  0  0  0
   -0.8212   19.4886   46.6270 H   0  0  0  0  0  0  0  0  0  0  0  0
    1.9199   21.5416   45.7039 H   0  0  0  0  0  0  0  0  0  0  0  0
    1.8734   19.9242   46.5343 H   0  0  0  0  0  0  0  0  0  0  0  0
  1  2  2  0
  1  6  1  0
  2  3  1  0
  3  4  2  0
  4  5  1  0
  5  6  2  0
  6  7  1  0
  7  8  2  0
  7  9  1  0
  8 16  1  0
  9 10  2  0
 10 11  1  0
 10 15  1  0
 11 12  1  0
 11 13  1  0
 13 14  2  0
 14 15  1  0
 15 16  2  0
 16 17  1  0
  1 18  1  0
  2 19  1  0
  3 20  1  0
  5 21  1  0
 12 22  1  0
 12 23  1  0
 12 24  1  0
 14 25  1  0
 17 26  1  0
 17 27  1  0
M  END
>  <mol_id>  (68) 
2026-09-18-6fnk-s0-n100-r7-0068

>  <rmsd_to_ref>  (68) 
3.530612244900365

>  <pose_kind>  (68) 
conformer

$$$$
6fnk.A
     RDKit          3D

 27 29  0  0  0  0  0  0  0  0999 V2000
    2.7613   18.6682   42.4571 C   0  0  0  0  0  0  0  0  0  0  0  0
    3.8116   18.6526   41.5391 C   0  0  0  0  0  0  0  0  0  0  0  0
    3.8609   17.6717   40.5594 C   0  0  0  0  0  0  0  0  0  0  0  0
    2.8561   16.7027   40.4908 N   0  0  0  0  0  0  0  0  0  0  0  0
    1.8017   16.7200   41.4165 C   0  0  0  0  0  0  0  0  0  0  0  0
    1.7522   17.7037   42.4024 C   0  0  0  0  0  0  0  0  0  0  0  0
    0.7012   17.7170   43.3251 C   0  0  0  0  0  0  0  0  0  0  0  0
    0.7219   18.5390   44.3834 N   0  0  0  0  0  0  0  0  0  0  0  0
   -0.3464   16.9049   43.1519 N   0  0  0  0  0  0  0  0  0  0  0  0
   -1.3715   16.8831   44.0223 C   0  0  0  0  0  0  0  0  0  0  0  0
   -2.4996   16.1580   44.0658 N   0  0  0  0  0  0  0  0  0  0  0  0
   -2.9095   15.1438   43.0898 C   0  0  0  0  0  0  0  0  0  0  0  0
   -3.1732   16.4645   45.0504 N   0  0  0  0  0  0  0  0  0  0  0  0
   -2.5209   17.4466   45.6939 C   0  0  0  0  0  0  0  0  0  0  0  0
   -1.3647   17.7039   45.0679 C   0  0  0  0  0  0  0  0  0  0  0  0
   -0.3075   18.5420   45.2504 C   0  0  0  0  0  0  0  0  0  0  0  0
   -0.2660   19.3893   46.3072 N   0  0  0  0  0  0  0  0  0  0  0  0
    2.7274   19.4481   43.2320 H   0  0  0  0  0  0  0  0  0  0  0  0
    4.6003   19.4175   41.5922 H   0  0  0  0  0  0  0  0  0  0  0  0
    4.6902   17.6567   39.8369 H   0  0  0  0  0  0  0  0  0  0  0  0
    1.0126   15.9555   41.3638 H   0  0  0  0  0  0  0  0  0  0  0  0
   -3.1629   14.2110   43.6149 H   0  0  0  0  0  0  0  0  0  0  0  0
   -3.7890   15.5030   42.5353 H   0  0  0  0  0  0  0  0  0  0  0  0
   -2.0842   14.9565   42.3871 H   0  0  0  0  0  0  0  0  0  0  0  0
   -2.8811   17.9611   46.5970 H   0  0  0  0  0  0  0  0  0  0  0  0
   -1.0431   19.4082   46.9830 H   0  0  0  0  0  0  0  0  0  0  0  0
    0.5426   20.0144   46.4346 H   0  0  0  0  0  0  0  0  0  0  0  0
  1  2  2  0
  1  6  1  0
  2  3  1  0
  3  4  2  0
  4  5  1  0
  5  6  2  0
  6  7  1  0
  7  8  2  0
  7  9  1  0
  8 16  1  0
  9 10  2  0
 10 11  1  0
 10 15  1  0
 11 12  1  0
 11 13  1  0
 13 14  2  0
 14 15  1  0
 15 16  2  0
 16 17  1  0
  1 18  1  0
  2 19  1  0
  3 20  1  0
  5 21  1  0
 12 22  1  0
 12 23  1  0
 12 24  1  0
 14 25  1  0
 17 26  1  0
 17 27  1  0
M  END
>  <mol_id>  (69) 
2026-09-18-6fnk-s0-n100-r7-0069

>  <rmsd_to_ref>  (69) 
3.576530612248662

>  <pose_kind>  (69) 
rigid

$$$$
6fnk.A
     RDKit          3D

 27 29  0  0  0  0  0  0  0  0999 V2000
   -1.2599   16.2055   40.5328 C   0  0  0  0  0  0  0  0  0  0  0  0
   -1.7817   16.0256   39.2642 C   0  0  0  0  0  0  0  0  0  0  0  0
   -1.0617   16.4367   38.1617 C   0  0  0  0  0  0  0  0  0  0  0  0
    0.1412   17.0084   38.3340 N   0  0  0  0  0  0  0  0  0  0  0  0
    0.7045   17.2120   39.5379 C   0  0  0  0  0  0  0  0  0  0  0  0
   -0.0180   16.7998   40.6392 C   0  0  0  0  0  0  0  0  0  0  0  0
    0.5575   17.0031   41.9513 C   0  0  0  0  0  0  0  0  0  0  0  0
    1.7526   17.5699   42.1403 N   0  0  0  0  0  0  0  0  0  0  0  0
   -0.1085   16.6170   43.0742 N   0  0  0  0  0  0  0  0  0  0  0  0
    0.4055   16.7955   44.2976 C   0  0  0  0  0  0  0  0  0  0  0  0
   -0.0629   16.4981   45.5410 N   0  0  0  0  0  0  0  0  0  0  0  0
   -1.3484   15.8607   45.8221 C   0  0  0  0  0  0  0  0  0  0  0  0
    0.8288   16.8779   46.4387 N   0  0  0  0  0  0  0  0  0  0  0  0
    1.9141   17.4373   45.8298 C   0  0  0  0  0  0  0  0  0  0  0  0
    1.6271   17.3756   44.4817 C   0  0  0  0  0  0  0  0  0  0  0  0
    2.3225   17.7770   43.3379 C   0  0  0  0  0  0  0  0  0  0  0  0
    3.5845   18.3795   43.4699 N   0  0  0  0  0  0  0  0  0  0  0  0
   -1.8270   15.8818   41.3987 H   0  0  0  0  0  0  0  0  0  0  0  0
   -2.7466   15.5683   39.1041 H   0  0  0  0  0  0  0  0  0  0  0  0
   -1.4104   16.3264   37.1418 H   0  0  0  0  0  0  0  0  0  0  0  0
    1.6828   17.6791   39.6410 H   0  0  0  0  0  0  0  0  0  0  0  0
   -1.5801   15.2155   44.9399 H   0  0  0  0  0  0  0  0  0  0  0  0
   -1.2954   15.2027   46.6913 H   0  0  0  0  0  0  0  0  0  0  0  0
   -2.1750   16.6040   45.8763 H   0  0  0  0  0  0  0  0  0  0  0  0
    2.8040   17.8410   46.2929 H   0  0  0  0  0  0  0  0  0  0  0  0
    3.9936   18.5683   44.3989 H   0  0  0  0  0  0  0  0  0  0  0  0
    4.1397   18.6512   42.6396 H   0  0  0  0  0  0  0  0  0  0  0  0
  1  2  2  0
  1  6  1  0
  2  3  1  0
  3  4  2  0
  4  5  1  0
  5  6  2  0
  6  7  1  0
  7  8  2  0
  7  9  1  0
  8 16  1  0
  9 10  2  0
 10 11  1  0
 10 15  1  0
 11 12  1  0
 11 13  1  0
 13 14  2  0
 14 15  1  0
 15 16  2  0
 16 17  1  0
  1 18  1  0
  2 19  1  0
  3 20  1  0
  5 21  1  0
 12 22  1  0
 12 23  1  0
 12 24  1  0
 14 25  1  0
 17 26  1  0
 17 27  1  0
M  END
>  <mol_id>  (70) 
2026-09-18-6fnk-s0-n100-r7-0070

>  <rmsd_to_ref>  (70) 
3.6224489795929906

>  <pose_kind>  (70) 
conformer

$$$$
6fnk.A
     RDKit          3D

 27 29  0  0  0  0  0  0  0  0999 V2000
    1.3552   14.2144   44.1722 C   0  0  0  0  0  0  0  0  0  0  0  0
    0.9870   13.1056   44.9344 C   0  0  0  0  0  0  0  0  0  0  0  0
   -0.3434   12.9100   45.2751 C   0  0  0  0  0  0  0  0  0  0  0  0
   -1.3138   13.8220   44.8512 N   0  0  0  0  0  0  0  0  0  0  0  0
   -0.9403   14.9373   44.0859 C   0  0  0  0  0  0  0  0  0  0  0  0
    0.3962   15.1358   43.7446 C   0  0  0  0  0  0  0  0  0  0  0  0
    0.7658   16.2496   42.9837 C   0  0  0  0  0  0  0  0  0  0  0  0
    2.0560   16.5574   42.7917 N   0  0  0  0  0  0  0  0  0  0  0  0
   -0.1765   17.0201   42.4310 N   0  0  0  0  0  0  0  0  0  0  0  0
    0.1399   18.1040   41.7002 C   0  0  0  0  0  0  0  0  0  0  0  0
   -0.6159   19.0183   41.0733 N   0  0  0  0  0  0  0  0  0  0  0  0
   -2.0811   19.0431   41.0330 C   0  0  0  0  0  0  0  0  0  0  0  0
    0.0932   19.8539   40.5111 N   0  0  0  0  0  0  0  0  0  0  0  0
    1.3724   19.5018   40.7204 C   0  0  0  0  0  0  0  0  0  0  0  0
    1.4173   18.4093   41.4946 C   0  0  0  0  0  0  0  0  0  0  0  0
    2.3863   17.6273   42.0449 C   0  0  0  0  0  0  0  0  0  0  0  0
    3.6982   17.9111   41.8587 N   0  0  0  0  0  0  0  0  0  0  0  0
    2.4116   14.3647   43.9051 H   0  0  0  0  0  0  0  0  0  0  0  0
    1.7512   12.3868   45.2650 H   0  0  0  0  0  0  0  0  0  0  0  0
   -0.6344   12.0376   45.8786 H   0  0  0  0  0  0  0  0  0  0  0  0
   -1.7040   15.6563   43.7547 H   0  0  0  0  0  0  0  0  0  0  0  0
   -2.4396   20.0361   41.3420 H   0  0  0  0  0  0  0  0  0  0  0  0
   -2.4234   18.8320   40.0091 H   0  0  0  0  0  0  0  0  0  0  0  0
   -2.4797   18.2799   41.7175 H   0  0  0  0  0  0  0  0  0  0  0  0
    2.2494   20.0298   40.3176 H   0  0  0  0  0  0  0  0  0  0  0  0
    3.9734   18.7251   41.2907 H   0  0  0  0  0  0  0  0  0  0  0  0
    4.4201   17.3129   42.2850 H   0  0  0  0  0  0  0  0  0  0  0  0
  1  2  2  0
  1  6  1  0
  2  3  1  0
  3  4  2  0
  4  5  1  0
  5  6  2  0
  6  7  1  0
  7  8  2  0
  7  9  1  0
  8 16  1  0
  9 10  2  0
 10 11  1  0
 10 15  1  0
 11 12  1  0
 11 13  1  0
 13 14  2  0
 14 15  1  0
 15 16  2  0
 16 17  1  0
  1 18  1  0
  2 19  1  0
  3 20  1  0
  5 21  1  0
 12 22  1  0
 12 23  1  0
 12 24  1  0
 14 25  1  0
 17 26  1  0
 17 27  1  0
M  END
>  <mol_id>  (71) 
2026-09-18-6fnk-s0-n100-r7-0071

>  <rmsd_to_ref>  (71) 
3.668367346940489

>  <pose_kind>  (71) 
rigid

$$$$
6fnk.A
     RDKit          3D

 27 29  0  0  0  0  0  0  0  0999 V2000
    2.6815   15.0768   45.5112 C   0  0  0  0  0  0  0  0  0  0  0  0
    3.7195   14.1671   45.5880 C   0  0  0  0  0  0  0  0  0  0  0  0
    4.0098   13.3733   44.4923 C   0  0  0  0  0  0  0  0  0  0  0  0
    3.3133   13.4525   43.3402 N   0  0  0  0  0  0  0  0  0  0  0  0
    2.2858   14.3462   43.2499 C   0  0  0  0  0  0  0  0  0  0  0  0
    1.9668   15.1559   44.3242 C   0  0  0  0  0  0  0  0  0  0  0  0
    0.8710   16.1162   44.2429 C   0  0  0  0  0  0  0  0  0  0  0  0
    0.5530   16.9145   45.2955 N   0  0  0  0  0  0  0  0  0  0  0  0
    0.1431   16.2368   43.1174 N   0  0  0  0  0  0  0  0  0  0  0  0
   -0.8748   17.1192   43.0217 C   0  0  0  0  0  0  0  0  0  0  0  0
   -1.7414   17.4378   42.0441 N   0  0  0  0  0  0  0  0  0  0  0  0
   -1.8094   16.8545   40.7077 C   0  0  0  0  0  0  0  0  0  0  0  0
   -2.5730   18.3862   42.4375 N   0  0  0  0  0  0  0  0  0  0  0  0
   -2.2782   18.7246   43.6953 C   0  0  0  0  0  0  0  0  0  0  0  0
   -1.2118   17.9393   44.0838 C   0  0  0  0  0  0  0  0  0  0  0  0
   -0.4631   17.8092   45.2289 C   0  0  0  0  0  0  0  0  0  0  0  0
   -0.7603   18.6314   46.3703 N   0  0  0  0  0  0  0  0  0  0  0  0
    2.4313   15.7196   46.3698 H   0  0  0  0  0  0  0  0  0  0  0  0
    4.2801   14.1055   46.5197 H   0  0  0  0  0  0  0  0  0  0  0  0
    4.8173   12.6582   44.5370 H   0  0  0  0  0  0  0  0  0  0  0  0
    1.7412   14.3917   42.3151 H   0  0  0  0  0  0  0  0  0  0  0  0
   -2.8579   16.4449   40.6263 H   0  0  0  0  0  0  0  0  0  0  0  0
   -1.0776   16.0502   40.5608 H   0  0  0  0  0  0  0  0  0  0  0  0
   -1.7508   17.6440   39.9260 H   0  0  0  0  0  0  0  0  0  0  0  0
   -2.7282   19.4550   44.3581 H   0  0  0  0  0  0  0  0  0  0  0  0
   -1.0825   19.6169   46.2355 H   0  0  0  0  0  0  0  0  0  0  0  0
   -0.6533   18.2400   47.3451 H   0  0  0  0  0  0  0  0  0  0  0  0
  1  2  2  0
  1  6  1  0
  2  3  1  0
  3  4  2  0
  4  5  1  0
  5  6  2  0
  6  7  1  0
  7  8  2  0
  7  9  1  0
  8 16  1  0
  9 10  2  0
 10 11  1  0
 10 15  1  0
 11 12  1  0
 11 13  1  0
 13 14  2  0
 14 15  1  0
 15 16  2  0
 16 17  1  0
  1 18  1  0
  2 19  1  0
  3 20  1  0
  5 21  1  0
 12 22  1  0
 12 23  1  0
 12 24  1  0
 14 25  1  0
 17 26  1  0
 17 27  1  0
M  END
>  <mol_id>  (72) 
2026-09-18-6fnk-s0-n100-r7-0072

>  <rmsd_to_ref>  (72) 
3.71428571428657

>  <pose_kind>  (72) 
conformer

$$$$
6fnk.A
     RDKit          3D

 27 29  0  0  0  0  0  0  0  0999 V2000
   -0.1281   15.3474   41.1636 C   0  0  0  0  0  0  0  0  0  0  0  0
   -0.7210   14.1696   41.6188 C   0  0  0  0  0  0  0  0  0  0  0  0
   -0.1202   13.4388   42.6334 C   0  0  0  0  0  0  0  0  0  0  0  0
    1.0764   13.8855   43.2009 N   0  0  0  0  0  0  0  0  0  0  0  0
    1.6712   15.0698   42.7398 C   0  0  0  0  0  0  0  0  0  0  0  0
    1.0696   15.8038   41.7193 C   0  0  0  0  0  0  0  0  0  0  0  0
    1.6661   16.9826   41.2603 C   0  0  0  0  0  0  0  0  0  0  0  0
    1.2058   17.6098   40.1691 N   0  0  0  0  0  0  0  0  0  0  0  0
    2.7077   17.5011   41.9185 N   0  0  0  0  0  0  0  0  0  0  0  0
    3.3128   18.6280   41.5027 C   0  0  0  0  0  0  0  0  0  0  0  0
    4.3622   19.3144   41.9799 N   0  0  0  0  0  0  0  0  0  0  0  0
    5.1507   18.9674   43.1660 C   0  0  0  0  0  0  0  0  0  0  0  0
    4.5828   20.3065   41.2841 N   0  0  0  0  0  0  0  0  0  0  0  0
    3.6505   20.3353   40.3177 C   0  0  0  0  0  0  0  0  0  0  0  0
    2.8548   19.2631   40.4284 C   0  0  0  0  0  0  0  0  0  0  0  0
    1.7891   18.7497   39.7546 C   0  0  0  0  0  0  0  0  0  0  0  0
    1.2984   19.3691   38.6536 N   0  0  0  0  0  0  0  0  0  0  0  0
   -0.6087   15.9228   40.3587 H   0  0  0  0  0  0  0  0  0  0  0  0
   -1.6643   13.8206   41.1735 H   0  0  0  0  0  0  0  0  0  0  0  0
   -0.5853   12.5084   42.9911 H   0  0  0  0  0  0  0  0  0  0  0  0
    2.6144   15.4195   43.1849 H   0  0  0  0  0  0  0  0  0  0  0  0
    6.2190   18.9512   42.9043 H   0  0  0  0  0  0  0  0  0  0  0  0
    4.9774   19.7158   43.9533 H   0  0  0  0  0  0  0  0  0  0  0  0
    4.8474   17.9748   43.5304 H   0  0  0  0  0  0  0  0  0  0  0  0
    3.5548   21.1195   39.5522 H   0  0  0  0  0  0  0  0  0  0  0  0
    1.7296   20.2425   38.3189 H   0  0  0  0  0  0  0  0  0  0  0  0
    0.4943   18.9663   38.1516 H   0  0  0  0  0  0  0  0  0  0  0  0
  1  2  2  0
  1  6  1  0
  2  3  1  0
  3  4  2  0
  4  5  1  0
  5  6  2  0
  6  7  1  0
  7  8  2  0
  7  9  1  0
  8 16  1  0
  9 10  2  0
 10 11  1  0
 10 15  1  0
 11 12  1  0
 11 13  1  0
 13 14  2  0
 14 15  1  0
 15 16  2  0
 16 17  1  0
  1 18  1  0
  2 19  1  0
  3 20  1  0
  5 21  1  0
 12 22  1  0
 12 23  1  0
 12 24  1  0
 14 25  1  0
 17 26  1  0
 17 27  1  0
M  END
>  <mol_id>  (73) 
2026-09-18-6fnk-s0-n100-r7-0073

>  <rmsd_to_ref>  (73) 
3.760204081637337

>  <pose_kind>  (73) 
rigid

$$$$
6fnk.A
     RDKit          3D

 27 29  0  0  0  0  0  0  0  0999 V2000
   -0.2465   15.0062   43.2515 C   0  0  0  0  0  0  0  0  0  0  0  0
   -0.4479   13.6546   43.4785 C   0  0  0  0  0  0  0  0  0  0  0  0
   -1.7337   13.1707   43.3854 C   0  0  0  0  0  0  0  0  0  0  0  0
   -2.7469   14.0070   43.0815 N   0  0  0  0  0  0  0  0  0  0  0  0
   -2.5392   15.3367   42.8596 C   0  0  0  0  0  0  0  0  0  0  0  0
   -1.2760   15.8628   42.9414 C   0  0  0  0  0  0  0  0  0  0  0  0
   -1.0164   17.2876   42.7089 C   0  0  0  0  0  0  0  0  0  0  0  0
   -2.0000   18.1260   42.4090 N   0  0  0  0  0  0  0  0  0  0  0  0
    0.2315   17.7490   42.8007 N   0  0  0  0  0  0  0  0  0  0  0  0
    0.5286   19.0428   42.5984 C   0  0  0  0  0  0  0  0  0  0  0  0
    1.7093   19.6800   42.6472 N   0  0  0  0  0  0  0  0  0  0  0  0
    3.0073   19.0743   42.9482 C   0  0  0  0  0  0  0  0  0  0  0  0
    1.4689   20.9352   42.3750 N   0  0  0  0  0  0  0  0  0  0  0  0
    0.1550   21.1584   42.1442 C   0  0  0  0  0  0  0  0  0  0  0  0
   -0.4603   19.9318   42.2881 C   0  0  0  0  0  0  0  0  0  0  0  0
   -1.7494   19.4496   42.1944 C   0  0  0  0  0  0  0  0  0  0  0  0
   -2.7859   20.3689   41.8715 N   0  0  0  0  0  0  0  0  0  0  0  0
    0.7597   15.4386   43.3142 H   0  0  0  0  0  0  0  0  0  0  0  0
    0.4133   13.0461   43.7175 H   0  0  0  0  0  0  0  0  0  0  0  0
   -1.8709   12.1168   43.5653 H   0  0  0  0  0  0  0  0  0  0  0  0
   -3.3948   15.9531   42.6199 H   0  0  0  0  0  0  0  0  0  0  0  0
    2.8497   17.9898   43.1666 H   0  0  0  0  0  0  0  0  0  0  0  0
    3.4612   19.5351   43.8239 H   0  0  0  0  0  0  0  0  0  0  0  0
    3.6593   19.0695   42.0365 H   0  0  0  0  0  0  0  0  0  0  0  0
   -0.3357   22.0796   41.8993 H   0  0  0  0  0  0  0  0  0  0  0  0
   -3.0108   20.5946   40.8653 H   0  0  0  0  0  0  0  0  0  0  0  0
   -3.3126   20.8094   42.6556 H   0  0  0  0  0  0  0  0  0  0  0  0
  1  2  2  0
  1  6  1  0
  2  3  1  0
  3  4  2  0
  4  5  1  0
  5  6  2  0
  6  7  1  0
  7  8  2  0
  7  9  1  0
  8 16  1  0
  9 10  2  0
 10 11  1  0
 10 15  1  0
 11 12  1  0
 11 13  1  0
 13 14  2  0
 14 15  1  0
 15 16  2  0
 16 17  1  0
  1 18  1  0
  2 19  1  0
  3 20  1  0
  5 21  1  0
 12 22  1  0
 12 23  1  0
 12 24  1  0
 14 25  1  0
 17 26  1  0
 17 27  1  0
M  END
>  <mol_id>  (74) 
2026-09-18-6fnk-s0-n100-r7-0074

>  <rmsd_to_ref>  (74) 
3.806122448981635

>  <pose_kind>  (74) 
conformer

$$$$
6fnk.A
     RDKit          3D

 27 29  0  0  0  0  0  0  0  0999 V2000
    2.6425   18.0400   42.4898 C   0  0  0  0  0  0  0  0  0  0  0  0
    3.9325   17.6348   42.1469 C   0  0  0  0  0  0  0  0  0  0  0  0
    4.1731   17.0680   40.9038 C   0  0  0  0  0  0  0  0  0  0  0  0
    3.1235   16.9071   39.9951 N   0  0  0  0  0  0  0  0  0  0  0  0
    1.8267   17.3142   40.3434 C   0  0  0  0  0  0  0  0  0  0  0  0
    1.5834   17.8821   41.5926 C   0  0  0  0  0  0  0  0  0  0  0  0
    0.2893   18.2848   41.9379 C   0  0  0  0  0  0  0  0  0  0  0  0
   -0.0040   18.6685   43.1880 N   0  0  0  0  0  0  0  0  0  0  0  0
   -0.6736   18.2958   41.0107 N   0  0  0  0  0  0  0  0  0  0  0  0
   -1.9316   18.6683   41.3067 C   0  0  0  0  0  0  0  0  0  0  0  0
   -3.0462   18.7433   40.5636 N   0  0  0  0  0  0  0  0  0  0  0  0
   -3.1550   18.4150   39.1390 C   0  0  0  0  0  0  0  0  0  0  0  0
   -3.9930   19.1426   41.2428 N   0  0  0  0  0  0  0  0  0  0  0  0
   -3.5274   19.3834   42.4795 C   0  0  0  0  0  0  0  0  0  0  0  0
   -2.2282   19.0622   42.5413 C   0  0  0  0  0  0  0  0  0  0  0  0
   -1.2541   19.0638   43.4923 C   0  0  0  0  0  0  0  0  0  0  0  0
   -1.5220   19.4557   44.7616 N   0  0  0  0  0  0  0  0  0  0  0  0
    2.4573   18.4886   43.4769 H   0  0  0  0  0  0  0  0  0  0  0  0
    4.7584   17.7646   42.8617 H   0  0  0  0  0  0  0  0  0  0  0  0
    5.1894   16.7453   40.6335 H   0  0  0  0  0  0  0  0  0  0  0  0
    1.0004   17.1850   39.6290 H   0  0  0  0  0  0  0  0  0  0  0  0
   -3.9854   17.7096   38.9877 H   0  0  0  0  0  0  0  0  0  0  0  0
   -3.3450   19.3336   38.5645 H   0  0  0  0  0  0  0  0  0  0  0  0
   -2.2164   17.9554   38.7959 H   0  0  0  0  0  0  0  0  0  0  0  0
   -4.1220   19.7833   43.3141 H   0  0  0  0  0  0  0  0  0  0  0  0
   -2.4718   19.7621   45.0164 H   0  0  0  0  0  0  0  0  0  0  0  0
   -0.7758   19.4473   45.4715 H   0  0  0  0  0  0  0  0  0  0  0  0
  1  2  2  0
  1  6  1  0
  2  3  1  0
  3  4  2  0
  4  5  1  0
  5  6  2  0
  6  7  1  0
  7  8  2  0
  7  9  1  0
  8 16  1  0
  9 10  2  0
 10 11  1  0
 10 15  1  0
 11 12  1  0
 11 13  1  0
 13 14  2  0
 14 15  1  0
 15 16  2  0
 16 17  1  0
  1 18  1  0
  2 19  1  0
  3 20  1  0
  5 21  1  0
 12 22  1  0
 12 23  1  0
 12 24  1  0
 14 25  1  0
 17 26  1  0
 17 27  1  0
M  END
>  <mol_id>  (75) 
2026-09-18-6fnk-s0-n100-r7-0075

>  <rmsd_to_ref>  (75) 
3.8520408163291573

>  <pose_kind>  (75) 
rigid

$$$$
6fnk.A
     RDKit          3D

 27 29  0  0  0  0  0  0  0  0999 V2000
    2.1019   17.2681   43.9886 C   0  0  0  0  0  0  0  0  0  0  0  0
    3.2430   17.2862   44.7495 C   0  0  0  0  0  0  0  0  0  0  0  0
    4.4032   16.8286   44.1582 C   0  0  0  0  0  0  0  0  0  0  0  0
    4.3766   16.3913   42.8872 N   0  0  0  0  0  0  0  0  0  0  0  0
    3.2407   16.3761   42.1378 C   0  0  0  0  0  0  0  0  0  0  0  0
    2.0790   16.8184   42.6842 C   0  0  0  0  0  0  0  0  0  0  0  0
    0.8239   16.8316   41.9419 C   0  0  0  0  0  0  0  0  0  0  0  0
    0.7496   16.4075   40.6794 N   0  0  0  0  0  0  0  0  0  0  0  0
   -0.3041   17.2766   42.5172 N   0  0  0  0  0  0  0  0  0  0  0  0
   -1.5023   17.3235   41.9070 C   0  0  0  0  0  0  0  0  0  0  0  0
   -2.7243   17.7271   42.3047 N   0  0  0  0  0  0  0  0  0  0  0  0
   -2.9545   18.2470   43.6526 C   0  0  0  0  0  0  0  0  0  0  0  0
   -3.5675   17.5650   41.3157 N   0  0  0  0  0  0  0  0  0  0  0  0
   -2.9081   17.0498   40.2480 C   0  0  0  0  0  0  0  0  0  0  0  0
   -1.5951   16.8882   40.6008 C   0  0  0  0  0  0  0  0  0  0  0  0
   -0.4361   16.4297   40.0063 C   0  0  0  0  0  0  0  0  0  0  0  0
   -0.5440   15.9832   38.6584 N   0  0  0  0  0  0  0  0  0  0  0  0
    1.1751   17.6222   44.4280 H   0  0  0  0  0  0  0  0  0  0  0  0
    3.1895   17.6520   45.7655 H   0  0  0  0  0  0  0  0  0  0  0  0
    5.2971   16.8470   44.7667 H   0  0  0  0  0  0  0  0  0  0  0  0
    3.2989   16.0140   41.1353 H   0  0  0  0  0  0  0  0  0  0  0  0
   -2.0541   18.7943   43.9932 H   0  0  0  0  0  0  0  0  0  0  0  0
   -3.0731   17.3833   44.3413 H   0  0  0  0  0  0  0  0  0  0  0  0
   -3.8339   18.9082   43.6651 H   0  0  0  0  0  0  0  0  0  0  0  0
   -3.3245   16.8037   39.2832 H   0  0  0  0  0  0  0  0  0  0  0  0
   -0.6695   14.9802   38.3910 H   0  0  0  0  0  0  0  0  0  0  0  0
   -0.4883   16.7471   37.9253 H   0  0  0  0  0  0  0  0  0  0  0  0
  1  2  2  0
  1  6  1  0
  2  3  1  0
  3  4  2  0
  4  5  1  0
  5  6  2  0
  6  7  1  0
  7  8  2  0
  7  9  1  0
  8 16  1  0
  9 10  2  0
 10 11  1  0
 10 15  1  0
 11 12  1  0
 11 13  1  0
 13 14  2  0
 14 15  1  0
 15 16  2  0
 16 17  1  0
  1 18  1  0
  2 19  1  0
  3 20  1  0
  5 21  1  0
 12 22  1  0
 12 23  1  0
 12 24  1  0
 14 25  1  0
 17 26  1  0
 17 27  1  0
M  END
>  <mol_id>  (76) 
2026-09-18-6fnk-s0-n100-r7-0076

>  <rmsd_to_ref>  (76) 
3.8979591836782017

>  <pose_kind>  (76) 
conformer

$$$$
6fnk.A
     RDKit          3D

 27 29  0  0  0  0  0  0  0  0999 V2000
   -0.2431   15.6276   42.6348 C   0  0  0  0  0  0  0  0  0  0  0  0
   -0.6242   14.7253   43.6281 C   0  0  0  0  0  0  0  0  0  0  0  0
   -0.6700   15.1326   44.9534 C   0  0  0  0  0  0  0  0  0  0  0  0
   -0.3379   16.4474   45.2913 N   0  0  0  0  0  0  0  0  0  0  0  0
    0.0466   17.3523   44.2902 C   0  0  0  0  0  0  0  0  0  0  0  0
    0.0948   16.9438   42.9587 C   0  0  0  0  0  0  0  0  0  0  0  0
    0.4808   17.8473   41.9633 C   0  0  0  0  0  0  0  0  0  0  0  0
    0.7041   17.4370   40.7072 N   0  0  0  0  0  0  0  0  0  0  0  0
    0.6248   19.1427   42.2603 N   0  0  0  0  0  0  0  0  0  0  0  0
    1.0028   20.0398   41.3323 C   0  0  0  0  0  0  0  0  0  0  0  0
    1.2245   21.3615   41.3964 N   0  0  0  0  0  0  0  0  0  0  0  0
    1.0879   22.2007   42.5906 C   0  0  0  0  0  0  0  0  0  0  0  0
    1.5578   21.7982   40.2939 N   0  0  0  0  0  0  0  0  0  0  0  0
    1.5389   20.7689   39.4312 C   0  0  0  0  0  0  0  0  0  0  0  0
    1.2144   19.6433   40.0812 C   0  0  0  0  0  0  0  0  0  0  0  0
    1.0624   18.3280   39.7643 C   0  0  0  0  0  0  0  0  0  0  0  0
    1.2733   17.8885   38.4999 N   0  0  0  0  0  0  0  0  0  0  0  0
   -0.2082   15.2992   41.5855 H   0  0  0  0  0  0  0  0  0  0  0  0
   -0.8883   13.6915   43.3606 H   0  0  0  0  0  0  0  0  0  0  0  0
   -0.9675   14.4211   45.7378 H   0  0  0  0  0  0  0  0  0  0  0  0
    0.3106   18.3863   44.5570 H   0  0  0  0  0  0  0  0  0  0  0  0
    2.0088   22.7845   42.7358 H   0  0  0  0  0  0  0  0  0  0  0  0
    0.2363   22.8851   42.4623 H   0  0  0  0  0  0  0  0  0  0  0  0
    0.9160   21.5622   43.4697 H   0  0  0  0  0  0  0  0  0  0  0  0
    1.7567   20.8394   38.3553 H   0  0  0  0  0  0  0  0  0  0  0  0
    1.5481   18.5532   37.7627 H   0  0  0  0  0  0  0  0  0  0  0  0
    1.1587   16.8896   38.2761 H   0  0  0  0  0  0  0  0  0  0  0  0
  1  2  2  0
  1  6  1  0
  2  3  1  0
  3  4  2  0
  4  5  1  0
  5  6  2  0
  6  7  1  0
  7  8  2  0
  7  9  1  0
  8 16  1  0
  9 10  2  0
 10 11  1  0
 10 15  1  0
 11 12  1  0
 11 13  1  0
 13 14  2  0
 14 15  1  0
 15 16  2  0
 16 17  1  0
  1 18  1  0
  2 19  1  0
  3 20  1  0
  5 21  1  0
 12 22  1  0
 12 23  1  0
 12 24  1  0
 14 25  1  0
 17 26  1  0
 17 27  1  0
M  END
>  <mol_id>  (77) 
2026-09-18-6fnk-s0-n100-r7-0077

>  <rmsd_to_ref>  (77) 
3.9438775510250714

>  <pose_kind>  (77) 
rigid

$$$$
6fnk.A
     RDKit          3D

 27 29  0  0  0  0  0  0  0  0999 V2000
    0.4927   16.4030   43.1453 C   0  0  0  0  0  0  0  0  0  0  0  0
   -0.4778   15.4380   43.3159 C   0  0  0  0  0  0  0  0  0  0  0  0
   -0.1393   14.1009   43.3674 C   0  0  0  0  0  0  0  0  0  0  0  0
    1.1696   13.7425   43.2473 N   0  0  0  0  0  0  0  0  0  0  0  0
    2.1256   14.6841   43.0798 C   0  0  0  0  0  0  0  0  0  0  0  0
    1.8092   16.0240   43.0257 C   0  0  0  0  0  0  0  0  0  0  0  0
    2.8502   17.0302   42.8446 C   0  0  0  0  0  0  0  0  0  0  0  0
    4.1372   16.6568   42.7279 N   0  0  0  0  0  0  0  0  0  0  0  0
    2.5232   18.3286   42.7944 N   0  0  0  0  0  0  0  0  0  0  0  0
    3.4362   19.3095   42.6291 C   0  0  0  0  0  0  0  0  0  0  0  0
    3.3542   20.6516   42.5491 N   0  0  0  0  0  0  0  0  0  0  0  0
    2.1180   21.4120   42.6346 C   0  0  0  0  0  0  0  0  0  0  0  0
    4.5892   21.1268   42.3819 N   0  0  0  0  0  0  0  0  0  0  0  0
    5.4663   20.0885   42.3543 C   0  0  0  0  0  0  0  0  0  0  0  0
    4.7605   18.9038   42.5104 C   0  0  0  0  0  0  0  0  0  0  0  0
    5.1254   17.5663   42.5590 C   0  0  0  0  0  0  0  0  0  0  0  0
    6.4929   17.2060   42.4326 N   0  0  0  0  0  0  0  0  0  0  0  0
    0.1787   17.4505   43.1103 H   0  0  0  0  0  0  0  0  0  0  0  0
   -1.5385   15.7019   43.4150 H   0  0  0  0  0  0  0  0  0  0  0  0
   -0.8793   13.3228   43.5003 H   0  0  0  0  0  0  0  0  0  0  0  0
    3.1725   14.3922   42.9841 H   0  0  0  0  0  0  0  0  0  0  0  0
    2.3309   22.4826   42.6724 H   0  0  0  0  0  0  0  0  0  0  0  0
    1.5714   21.0888   43.5628 H   0  0  0  0  0  0  0  0  0  0  0  0
    1.4219   21.1959   41.7922 H   0  0  0  0  0  0  0  0  0  0  0  0
    6.5208   20.1911   42.2316 H   0  0  0  0  0  0  0  0  0  0  0  0
    6.8526   16.5256   41.7245 H   0  0  0  0  0  0  0  0  0  0  0  0
    7.2128   17.6389   43.0834 H   0  0  0  0  0  0  0  0  0  0  0  0
  1  2  2  0
  1  6  1  0
  2  3  1  0
  3  4  2  0
  4  5  1  0
  5  6  2  0
  6  7  1  0
  7  8  2  0
  7  9  1  0
  8 16  1  0
  9 10  2  0
 10 11  1  0
 10 15  1  0
 11 12  1  0
 11 13  1  0
 13 14  2  0
 14 15  1  0
 15 16  2  0
 16 17  1  0
  1 18  1  0
  2 19  1  0
  3 20  1  0
  5 21  1  0
 12 22  1  0
 12 23  1  0
 12 24  1  0
 14 25  1  0
 17 26  1  0
 17 27  1  0
M  END
>  <mol_id>  (78) 
2026-09-18-6fnk-s0-n100-r7-0078

>  <rmsd_to_ref>  (78) 
3.989795918371059

>  <pose_kind>  (78) 
conformer

$$$$
6fnk.A
     RDKit          3D

 27 29  0  0  0  0  0  0  0  0999 V2000
    2.1193   13.9727   41.2390 C   0  0  0  0  0  0  0  0  0  0  0  0
    2.1433   12.6729   40.7333 C   0  0  0  0  0  0  0  0  0  0  0  0
    3.0340   12.3386   39.7237 C   0  0  0  0  0  0  0  0  0  0  0  0
    3.9088   13.3036   39.2170 N   0  0  0  0  0  0  0  0  0  0  0  0
    3.8814   14.6107   39.7267 C   0  0  0  0  0  0  0  0  0  0  0  0
    2.9857   14.9482   40.7396 C   0  0  0  0  0  0  0  0  0  0  0  0
    2.9591   16.2524   41.2439 C   0  0  0  0  0  0  0  0  0  0  0  0
    1.9957   16.6468   42.0880 N   0  0  0  0  0  0  0  0  0  0  0  0
    3.9094   17.1227   40.8882 N   0  0  0  0  0  0  0  0  0  0  0  0
    3.9122   18.3876   41.3455 C   0  0  0  0  0  0  0  0  0  0  0  0
    4.7346   19.4236   41.1208 N   0  0  0  0  0  0  0  0  0  0  0  0
    5.9201   19.4108   40.2586 C   0  0  0  0  0  0  0  0  0  0  0  0
    4.3659   20.4139   41.7537 N   0  0  0  0  0  0  0  0  0  0  0  0
    3.2817   20.0576   42.4620 C   0  0  0  0  0  0  0  0  0  0  0  0
    2.9674   18.7834   42.1927 C   0  0  0  0  0  0  0  0  0  0  0  0
    1.9991   17.9036   42.5694 C   0  0  0  0  0  0  0  0  0  0  0  0
    1.0188   18.2743   43.4285 N   0  0  0  0  0  0  0  0  0  0  0  0
    1.4109   14.2324   42.0394 H   0  0  0  0  0  0  0  0  0  0  0  0
    1.4563   11.9134   41.1348 H   0  0  0  0  0  0  0  0  0  0  0  0
    3.0516   11.3147   39.3221 H   0  0  0  0  0  0  0  0  0  0  0  0
    4.5683   15.3706   39.3258 H   0  0  0  0  0  0  0  0  0  0  0  0
    5.8669   20.2500   39.5494 H   0  0  0  0  0  0  0  0  0  0  0  0
    6.8244   19.5101   40.8770 H   0  0  0  0  0  0  0  0  0  0  0  0
    5.9587   18.4626   39.7023 H   0  0  0  0  0  0  0  0  0  0  0  0
    2.7352   20.7120   43.1570 H   0  0  0  0  0  0  0  0  0  0  0  0
    1.0022   19.2312   43.8091 H   0  0  0  0  0  0  0  0  0  0  0  0
    0.2903   17.5990   43.7009 H   0  0  0  0  0  0  0  0  0  0  0  0
  1  2  2  0
  1  6  1  0
  2  3  1  0
  3  4  2  0
  4  5  1  0
  5  6  2  0
  6  7  1  0
  7  8  2  0
  7  9  1  0
  8 16  1  0
  9 10  2  0
 10 11  1  0
 10 15  1  0
 11 12  1  0
 11 13  1  0
 13 14  2  0
 14 15  1  0
 15 16  2  0
 16 17  1  0
  1 18  1  0
  2 19  1  0
  3 20  1  0
  5 21  1  0
 12 22  1  0
 12 23  1  0
 12 24  1  0
 14 25  1  0
 17 26  1  0
 17 27  1  0
M  END
>  <mol_id>  (79) 
2026-09-18-6fnk-s0-n100-r7-0079

>  <rmsd_to_ref>  (79) 
4.035714285715432

>  <pose_kind>  (79) 
rigid

$$$$
6fnk.A
     RDKit          3D

 27 29  0  0  0  0  0  0  0  0999 V2000
    2.6829   15.9512   44.0084 C   0  0  0  0  0  0  0  0  0  0  0  0
    3.3778   15.5744   45.1329 C   0  0  0  0  0  0  0  0  0  0  0  0
    4.7111   15.9763   45.2286 C   0  0  0  0  0  0  0  0  0  0  0  0
    5.2904   16.7101   44.2453 N   0  0  0  0  0  0  0  0  0  0  0  0
    4.5861   17.0728   43.1407 C   0  0  0  0  0  0  0  0  0  0  0  0
    3.2701   16.6888   43.0229 C   0  0  0  0  0  0  0  0  0  0  0  0
    2.5238   17.0771   41.8453 C   0  0  0  0  0  0  0  0  0  0  0  0
    3.1712   17.8074   40.9109 N   0  0  0  0  0  0  0  0  0  0  0  0
    1.2272   16.7162   41.6973 N   0  0  0  0  0  0  0  0  0  0  0  0
    0.5825   17.1114   40.5704 C   0  0  0  0  0  0  0  0  0  0  0  0
   -0.6934   16.9142   40.1353 N   0  0  0  0  0  0  0  0  0  0  0  0
   -1.7543   16.1862   40.8073 C   0  0  0  0  0  0  0  0  0  0  0  0
   -0.8311   17.5161   38.9460 N   0  0  0  0  0  0  0  0  0  0  0  0
    0.3197   18.1093   38.5771 C   0  0  0  0  0  0  0  0  0  0  0  0
    1.2104   17.8592   39.5918 C   0  0  0  0  0  0  0  0  0  0  0  0
    2.5382   18.2063   39.7843 C   0  0  0  0  0  0  0  0  0  0  0  0
    3.2134   18.9767   38.7938 N   0  0  0  0  0  0  0  0  0  0  0  0
    1.6368   15.6407   43.9246 H   0  0  0  0  0  0  0  0  0  0  0  0
    2.9258   14.9858   45.9297 H   0  0  0  0  0  0  0  0  0  0  0  0
    5.2760   15.6907   46.1049 H   0  0  0  0  0  0  0  0  0  0  0  0
    5.0853   17.6571   42.3813 H   0  0  0  0  0  0  0  0  0  0  0  0
   -1.3023   15.5654   41.6070 H   0  0  0  0  0  0  0  0  0  0  0  0
   -2.5133   16.8226   41.2691 H   0  0  0  0  0  0  0  0  0  0  0  0
   -2.2918   15.4983   40.1018 H   0  0  0  0  0  0  0  0  0  0  0  0
    0.4704   18.6621   37.6578 H   0  0  0  0  0  0  0  0  0  0  0  0
    3.5596   18.5231   37.9170 H   0  0  0  0  0  0  0  0  0  0  0  0
    3.3667   20.0045   38.9395 H   0  0  0  0  0  0  0  0  0  0  0  0
  1  2  2  0
  1  6  1  0
  2  3  1  0
  3  4  2  0
  4  5  1  0
  5  6  2  0
  6  7  1  0
  7  8  2  0
  7  9  1  0
  8 16  1  0
  9 10  2  0
 10 11  1  0
 10 15  1  0
 11 12  1  0
 11 13  1  0
 13 14  2  0
 14 15  1  0
 15 16  2  0
 16 17  1  0
  1 18  1  0
  2 19  1  0
  3 20  1  0
  5 21  1  0
 12 22  1  0
 12 23  1  0
 12 24  1  0
 14 25  1  0
 17 26  1  0
 17 27  1  0
M  END
>  <mol_id>  (80) 
2026-09-18-6fnk-s0-n100-r7-0080

>  <rmsd_to_ref>  (80) 
4.081632653064154

>  <pose_kind>  (80) 
conformer

$$$$
6fnk.A
     RDKit          3D

 27 29  0  0  0  0  0  0  0  0999 V2000
   -0.4751   15.4907   42.3550 C   0  0  0  0  0  0  0  0  0  0  0  0
   -1.7056   14.8444   42.4731 C   0  0  0  0  0  0  0  0  0  0  0  0
   -2.2176   14.5535   43.7291 C   0  0  0  0  0  0  0  0  0  0  0  0
   -1.5017   14.9117   44.8748 N   0  0  0  0  0  0  0  0  0  0  0  0
   -0.2635   15.5603   44.7528 C   0  0  0  0  0  0  0  0  0  0  0  0
    0.2528   15.8514   43.4915 C   0  0  0  0  0  0  0  0  0  0  0  0
    1.4884   16.4959   43.3731 C   0  0  0  0  0  0  0  0  0  0  0  0
    2.0863   16.6292   42.1811 N   0  0  0  0  0  0  0  0  0  0  0  0
    2.0853   16.9949   44.4602 N   0  0  0  0  0  0  0  0  0  0  0  0
    3.2774   17.6134   44.3873 C   0  0  0  0  0  0  0  0  0  0  0  0
    4.0617   18.1686   45.3237 N   0  0  0  0  0  0  0  0  0  0  0  0
    3.7713   18.2393   46.7588 C   0  0  0  0  0  0  0  0  0  0  0  0
    5.0817   18.6338   44.8135 N   0  0  0  0  0  0  0  0  0  0  0  0
    4.9975   18.4298   43.4885 C   0  0  0  0  0  0  0  0  0  0  0  0
    3.8714   17.7608   43.2072 C   0  0  0  0  0  0  0  0  0  0  0  0
    3.2693   17.2647   42.0915 C   0  0  0  0  0  0  0  0  0  0  0  0
    3.8481   17.3940   40.8730 N   0  0  0  0  0  0  0  0  0  0  0  0
   -0.0737   15.7188   41.3566 H   0  0  0  0  0  0  0  0  0  0  0  0
   -2.2696   14.5656   41.5708 H   0  0  0  0  0  0  0  0  0  0  0  0
   -3.1865   14.0412   43.8234 H   0  0  0  0  0  0  0  0  0  0  0  0
    0.3010   15.8396   45.6547 H   0  0  0  0  0  0  0  0  0  0  0  0
    4.6280   17.8466   47.3261 H   0  0  0  0  0  0  0  0  0  0  0  0
    3.5906   19.2859   47.0453 H   0  0  0  0  0  0  0  0  0  0  0  0
    2.8773   17.6385   46.9821 H   0  0  0  0  0  0  0  0  0  0  0  0
    5.7398   18.7615   42.7476 H   0  0  0  0  0  0  0  0  0  0  0  0
    4.7534   17.8767   40.7815 H   0  0  0  0  0  0  0  0  0  0  0  0
    3.3828   17.0095   40.0384 H   0  0  0  0  0  0  0  0  0  0  0  0
  1  2  2  0
  1  6  1  0
  2  3  1  0
  3  4  2  0
  4  5  1  0
  5  6  2  0
  6  7  1  0
  7  8  2  0
  7  9  1  0
  8 16  1  0
  9 10  2  0
 10 11  1  0
 10 15  1  0
 11 12  1  0
 11 13  1  0
 13 14  2  0
 14 15  1  0
 15 16  2  0
 16 17  1  0
  1 18  1  0
  2 19  1  0
  3 20  1  0
  5 21  1  0
 12 22  1  0
 12 23  1  0
 12 24  1  0
 14 25  1  0
 17 26  1  0
 17 27  1  0
M  END
>  <mol_id>  (81) 
2026-09-18-6fnk-s0-n100-r7-0081

>  <rmsd_to_ref>  (81) 
4.127551020408861

>  <pose_kind>  (81) 
rigid

$$$$
6fnk.A
     RDKit          3D

 27 29  0  0  0  0  0  0  0  0999 V2000
    1.2903   17.1272   41.0613 C   0  0  0  0  0  0  0  0  0  0  0  0
    0.5453   15.9708   40.9486 C   0  0  0  0  0  0  0  0  0  0  0  0
    0.7413   14.8972   41.8206 C   0  0  0  0  0  0  0  0  0  0  0  0
    1.6637   14.9714   42.7902 N   0  0  0  0  0  0  0  0  0  0  0  0
    2.4244   16.0911   42.9428 C   0  0  0  0  0  0  0  0  0  0  0  0
    2.2297   17.1652   42.0719 C   0  0  0  0  0  0  0  0  0  0  0  0
    3.0593   18.3530   42.2586 C   0  0  0  0  0  0  0  0  0  0  0  0
    3.9701   18.3727   43.2487 N   0  0  0  0  0  0  0  0  0  0  0  0
    2.9195   19.4128   41.4568 N   0  0  0  0  0  0  0  0  0  0  0  0
    3.6802   20.5094   41.6235 C   0  0  0  0  0  0  0  0  0  0  0  0
    3.7740   21.6964   41.0010 N   0  0  0  0  0  0  0  0  0  0  0  0
    2.9469   22.0916   39.8493 C   0  0  0  0  0  0  0  0  0  0  0  0
    4.7164   22.4407   41.5831 N   0  0  0  0  0  0  0  0  0  0  0  0
    5.2683   21.7615   42.6055 C   0  0  0  0  0  0  0  0  0  0  0  0
    4.6178   20.5433   42.6345 C   0  0  0  0  0  0  0  0  0  0  0  0
    4.7615   19.4394   43.4675 C   0  0  0  0  0  0  0  0  0  0  0  0
    5.7352   19.4660   44.5225 N   0  0  0  0  0  0  0  0  0  0  0  0
    1.1430   17.9549   40.3933 H   0  0  0  0  0  0  0  0  0  0  0  0
   -0.2209   15.8636   40.1710 H   0  0  0  0  0  0  0  0  0  0  0  0
    0.1424   14.0099   41.7041 H   0  0  0  0  0  0  0  0  0  0  0  0
    3.1821   16.1518   43.7394 H   0  0  0  0  0  0  0  0  0  0  0  0
    2.9728   21.3076   39.0645 H   0  0  0  0  0  0  0  0  0  0  0  0
    3.3767   23.0048   39.3941 H   0  0  0  0  0  0  0  0  0  0  0  0
    1.8910   22.2711   40.1530 H   0  0  0  0  0  0  0  0  0  0  0  0
    6.0544   22.1106   43.2571 H   0  0  0  0  0  0  0  0  0  0  0  0
    5.6213   20.0922   45.3377 H   0  0  0  0  0  0  0  0  0  0  0  0
    6.5878   18.8618   44.5107 H   0  0  0  0  0  0  0  0  0  0  0  0
  1  2  2  0
  1  6  1  0
  2  3  1  0
  3  4  2  0
  4  5  1  0
  5  6  2  0
  6  7  1  0
  7  8  2  0
  7  9  1  0
  8 16  1  0
  9 10  2  0
 10 11  1  0
 10 15  1  0
 11 12  1  0
 11 13  1  0
 13 14  2  0
 14 15  1  0
 15 16  2  0
 16 17  1  0
  1 18  1  0
  2 19  1  0
  3 20  1  0
  5 21  1  0
 12 22  1  0
 12 23  1  0
 12 24  1  0
 14 25  1  0
 17 26  1  0
 17 27  1  0
M  END
>  <mol_id>  (82) 
2026-09-18-6fnk-s0-n100-r7-0082

>  <rmsd_to_ref>  (82) 
4.173469387755139

>  <pose_kind>  (82) 
conformer

$$$$
6fnk.A
     RDKit          3D

 27 29  0  0  0  0  0  0  0  0999 V2000
    1.4134   14.6146   43.6402 C   0  0  0  0  0  0  0  0  0  0  0  0
    0.9029   13.5870   44.4336 C   0  0  0  0  0  0  0  0  0  0  0  0
   -0.4212   13.1973   44.2949 C   0  0  0  0  0  0  0  0  0  0  0  0
   -1.2410   13.8320   43.3578 N   0  0  0  0  0  0  0  0  0  0  0  0
   -0.7252   14.8663   42.5622 C   0  0  0  0  0  0  0  0  0  0  0  0
    0.6044   15.2600   42.7019 C   0  0  0  0  0  0  0  0  0  0  0  0
    1.1151   16.2928   41.9092 C   0  0  0  0  0  0  0  0  0  0  0  0
    2.3305   16.8066   42.1433 N   0  0  0  0  0  0  0  0  0  0  0  0
    0.3883   16.7757   40.8964 N   0  0  0  0  0  0  0  0  0  0  0  0
    0.8419   17.7741   40.1178 C   0  0  0  0  0  0  0  0  0  0  0  0
    0.2979   18.4205   39.0754 N   0  0  0  0  0  0  0  0  0  0  0  0
   -1.0228   18.1601   38.4949 C   0  0  0  0  0  0  0  0  0  0  0  0
    1.0707   19.2787   38.6473 N   0  0  0  0  0  0  0  0  0  0  0  0
    2.1926   19.2124   39.3829 C   0  0  0  0  0  0  0  0  0  0  0  0
    2.0514   18.2810   40.3355 C   0  0  0  0  0  0  0  0  0  0  0  0
    2.8048   17.7916   41.3583 C   0  0  0  0  0  0  0  0  0  0  0  0
    4.0405   18.2873   41.6109 N   0  0  0  0  0  0  0  0  0  0  0  0
    2.4640   14.9198   43.7545 H   0  0  0  0  0  0  0  0  0  0  0  0
    1.5499   13.0862   45.1688 H   0  0  0  0  0  0  0  0  0  0  0  0
   -0.8256   12.3892   44.9221 H   0  0  0  0  0  0  0  0  0  0  0  0
   -1.3715   15.3674   41.8266 H   0  0  0  0  0  0  0  0  0  0  0  0
   -1.5863   19.1024   38.4284 H   0  0  0  0  0  0  0  0  0  0  0  0
   -0.9032   17.7325   37.4885 H   0  0  0  0  0  0  0  0  0  0  0  0
   -1.5700   17.4499   39.1324 H   0  0  0  0  0  0  0  0  0  0  0  0
    3.0902   19.8288   39.2270 H   0  0  0  0  0  0  0  0  0  0  0  0
    4.4231   19.0412   41.0227 H   0  0  0  0  0  0  0  0  0  0  0  0
    4.5971   17.9100   42.3912 H   0  0  0  0  0  0  0  0  0  0  0  0
  1  2  2  0
  1  6  1  0
  2  3  1  0
  3  4  2  0
  4  5  1  0
  5  6  2  0
  6  7  1  0
  7  8  2  0
  7  9  1  0
  8 16  1  0
  9 10  2  0
 10 11  1  0
 10 15  1  0
 11 12  1  0
 11 13  1  0
 13 14  2  0
 14 15  1  0
 15 16  2  0
 16 17  1  0
  1 18  1  0
  2 19  1  0
  3 20  1  0
  5 21  1  0
 12 22  1  0
 12 23  1  0
 12 24  1  0
 14 25  1  0
 17 26  1  0
 17 27  1  0
M  END
>  <mol_id>  (83) 
2026-09-18-6fnk-s0-n100-r7-0083

>  <rmsd_to_ref>  (83) 
4.2193877551027485

>  <pose_kind>  (83) 
rigid

$$$$
6fnk.A
     RDKit          3D

 27 29  0  0  0  0  0  0  0  0999 V2000
    3.7409   17.0662   44.4248 C   0  0  0  0  0  0  0  0  0  0  0  0
    4.1068   16.6943   45.7204 C   0  0  0  0  0  0  0  0  0  0  0  0
    3.6419   17.4505   46.8004 C   0  0  0  0  0  0  0  0  0  0  0  0
    2.8447   18.5335   46.5975 N   0  0  0  0  0  0  0  0  0  0  0  0
    2.5051   18.8729   45.3391 C   0  0  0  0  0  0  0  0  0  0  0  0
    2.9273   18.1726   44.2275 C   0  0  0  0  0  0  0  0  0  0  0  0
    2.5366   18.5734   42.8794 C   0  0  0  0  0  0  0  0  0  0  0  0
    2.9519   17.8839   41.7811 N   0  0  0  0  0  0  0  0  0  0  0  0
    1.7465   19.6528   42.7362 N   0  0  0  0  0  0  0  0  0  0  0  0
    1.3472   20.0787   41.5157 C   0  0  0  0  0  0  0  0  0  0  0  0
    0.5609   21.1277   41.1311 N   0  0  0  0  0  0  0  0  0  0  0  0
   -0.0694   22.0949   42.0371 C   0  0  0  0  0  0  0  0  0  0  0  0
    0.4849   21.0959   39.8138 N   0  0  0  0  0  0  0  0  0  0  0  0
    1.1989   20.0564   39.3279 C   0  0  0  0  0  0  0  0  0  0  0  0
    1.7597   19.3895   40.3824 C   0  0  0  0  0  0  0  0  0  0  0  0
    2.5717   18.2821   40.5479 C   0  0  0  0  0  0  0  0  0  0  0  0
    3.0015   17.5660   39.3877 N   0  0  0  0  0  0  0  0  0  0  0  0
    4.1109   16.4679   43.5988 H   0  0  0  0  0  0  0  0  0  0  0  0
    4.7475   15.8236   45.8798 H   0  0  0  0  0  0  0  0  0  0  0  0
    3.9361   17.1459   47.7895 H   0  0  0  0  0  0  0  0  0  0  0  0
    1.8618   19.7421   45.1303 H   0  0  0  0  0  0  0  0  0  0  0  0
    0.0851   21.7640   43.0699 H   0  0  0  0  0  0  0  0  0  0  0  0
   -1.1176   22.2705   41.8096 H   0  0  0  0  0  0  0  0  0  0  0  0
    0.4355   23.0964   41.9517 H   0  0  0  0  0  0  0  0  0  0  0  0
    1.3420   19.7506   38.2941 H   0  0  0  0  0  0  0  0  0  0  0  0
    2.6850   16.5817   39.2423 H   0  0  0  0  0  0  0  0  0  0  0  0
    3.6360   18.0573   38.6990 H   0  0  0  0  0  0  0  0  0  0  0  0
  1  2  2  0
  1  6  1  0
  2  3  1  0
  3  4  2  0
  4  5  1  0
  5  6  2  0
  6  7  1  0
  7  8  2  0
  7  9  1  0
  8 16  1  0
  9 10  2  0
 10 11  1  0
 10 15  1  0
 11 12  1  0
 11 13  1  0
 13 14  2  0
 14 15  1  0
 15 16  2  0
 16 17  1  0
  1 18  1  0
  2 19  1  0
  3 20  1  0
  5 21  1  0
 12 22  1  0
 12 23  1  0
 12 24  1  0
 14 25  1  0
 17 26  1  0
 17 27  1  0
M  END
>  <mol_id>  (84) 
2026-09-18-6fnk-s0-n100-r7-0084

>  <rmsd_to_ref>  (84) 
4.265306122450129

>  <pose_kind>  (84) 
conformer

$$$$
6fnk.A
     RDKit          3D

 27 29  0  0  0  0  0  0  0  0999 V2000
   -0.2681   15.0312   42.6665 C   0  0  0  0  0  0  0  0  0  0  0  0
   -0.9191   14.3049   43.6638 C   0  0  0  0  0  0  0  0  0  0  0  0
   -1.4751   14.9645   44.7502 C   0  0  0  0  0  0  0  0  0  0  0  0
   -1.3856   16.3561   44.8423 N   0  0  0  0  0  0  0  0  0  0  0  0
   -0.7288   17.0839   43.8384 C   0  0  0  0  0  0  0  0  0  0  0  0
   -0.1682   16.4223   42.7474 C   0  0  0  0  0  0  0  0  0  0  0  0
    0.4878   17.1502   41.7495 C   0  0  0  0  0  0  0  0  0  0  0  0
    1.1836   16.5298   40.7866 N   0  0  0  0  0  0  0  0  0  0  0  0
    0.4191   18.4852   41.7458 N   0  0  0  0  0  0  0  0  0  0  0  0
    1.0438   19.2195   40.8079 C   0  0  0  0  0  0  0  0  0  0  0  0
    1.1302   20.5441   40.6124 N   0  0  0  0  0  0  0  0  0  0  0  0
    0.5065   21.5795   41.4417 C   0  0  0  0  0  0  0  0  0  0  0  0
    1.8104   20.7907   39.6155 N   0  0  0  0  0  0  0  0  0  0  0  0
    2.1826   19.6156   39.0819 C   0  0  0  0  0  0  0  0  0  0  0  0
    1.7257   18.6116   39.8422 C   0  0  0  0  0  0  0  0  0  0  0  0
    1.7957   17.2521   39.8301 C   0  0  0  0  0  0  0  0  0  0  0  0
    2.4850   16.5998   38.8628 N   0  0  0  0  0  0  0  0  0  0  0  0
    0.1712   14.5031   41.8073 H   0  0  0  0  0  0  0  0  0  0  0  0
   -0.9915   13.2099   43.5887 H   0  0  0  0  0  0  0  0  0  0  0  0
   -1.9861   14.3924   45.5387 H   0  0  0  0  0  0  0  0  0  0  0  0
   -0.6563   18.1790   43.9126 H   0  0  0  0  0  0  0  0  0  0  0  0
    1.2658   22.3176   41.7395 H   0  0  0  0  0  0  0  0  0  0  0  0
   -0.2867   22.0807   40.8676 H   0  0  0  0  0  0  0  0  0  0  0  0
    0.0723   21.1172   42.3405 H   0  0  0  0  0  0  0  0  0  0  0  0
    2.7725   19.4959   38.1612 H   0  0  0  0  0  0  0  0  0  0  0  0
    2.9611   17.1328   38.1211 H   0  0  0  0  0  0  0  0  0  0  0  0
    2.5329   15.5709   38.8692 H   0  0  0  0  0  0  0  0  0  0  0  0
  1  2  2  0
  1  6  1  0
  2  3  1  0
  3  4  2  0
  4  5  1  0
  5  6  2  0
  6  7  1  0
  7  8  2  0
  7  9  1  0
  8 16  1  0
  9 10  2  0
 10 11  1  0
 10 15  1  0
 11 12  1  0
 11 13  1  0
 13 14  2  0
 14 15  1  0
 15 16  2  0
 16 17  1  0
  1 18  1  0
  2 19  1  0
  3 20  1  0
  5 21  1  0
 12 22  1  0
 12 23  1  0
 12 24  1  0
 14 25  1  0
 17 26  1  0
 17 27  1  0
M  END
>  <mol_id>  (85) 
2026-09-18-6fnk-s0-n100-r7-0085

>  <rmsd_to_ref>  (85) 
4.311224489796838

>  <pose_kind>  (85) 
rigid

$$$$
6fnk.A
     RDKit          3D

 27 29  0  0  0  0  0  0  0  0999 V2000
   -0.5358   14.7608   44.1816 C   0  0  0  0  0  0  0  0  0  0  0  0
   -1.3280   13.8467   44.8650 C   0  0  0  0  0  0  0  0  0  0  0  0
   -2.4872   13.3807   44.2462 C   0  0  0  0  0  0  0  0  0  0  0  0
   -2.7977   13.8330   43.0086 N   0  0  0  0  0  0  0  0  0  0  0  0
   -2.0394   14.7179   42.3362 C   0  0  0  0  0  0  0  0  0  0  0  0
   -0.9039   15.1845   42.9235 C   0  0  0  0  0  0  0  0  0  0  0  0
   -0.0520   16.1501   42.2211 C   0  0  0  0  0  0  0  0  0  0  0  0
   -0.3821   16.5842   40.9923 N   0  0  0  0  0  0  0  0  0  0  0  0
    1.0722   16.6188   42.7899 N   0  0  0  0  0  0  0  0  0  0  0  0
    1.8960   17.5038   42.2011 C   0  0  0  0  0  0  0  0  0  0  0  0
    3.0468   18.1135   42.5421 N   0  0  0  0  0  0  0  0  0  0  0  0
    3.7466   17.9210   43.7954 C   0  0  0  0  0  0  0  0  0  0  0  0
    3.4087   18.9014   41.5422 N   0  0  0  0  0  0  0  0  0  0  0  0
    2.5153   18.8264   40.5377 C   0  0  0  0  0  0  0  0  0  0  0  0
    1.5322   17.9345   40.9353 C   0  0  0  0  0  0  0  0  0  0  0  0
    0.3760   17.4667   40.3240 C   0  0  0  0  0  0  0  0  0  0  0  0
    0.0666   17.9490   39.0321 N   0  0  0  0  0  0  0  0  0  0  0  0
    0.3712   15.1509   44.6184 H   0  0  0  0  0  0  0  0  0  0  0  0
   -1.0579   13.4992   45.8561 H   0  0  0  0  0  0  0  0  0  0  0  0
   -3.1172   12.6724   44.7550 H   0  0  0  0  0  0  0  0  0  0  0  0
   -2.3656   15.0267   41.3451 H   0  0  0  0  0  0  0  0  0  0  0  0
    4.0696   16.8687   43.9218 H   0  0  0  0  0  0  0  0  0  0  0  0
    3.1610   18.2117   44.6869 H   0  0  0  0  0  0  0  0  0  0  0  0
    4.6804   18.5193   43.8044 H   0  0  0  0  0  0  0  0  0  0  0  0
    2.5615   19.3596   39.6066 H   0  0  0  0  0  0  0  0  0  0  0  0
    0.7756   18.0395   38.2561 H   0  0  0  0  0  0  0  0  0  0  0  0
   -0.9036   18.2421   38.7917 H   0  0  0  0  0  0  0  0  0  0  0  0
  1  2  2  0
  1  6  1  0
  2  3  1  0
  3  4  2  0
  4  5  1  0
  5  6  2  0
  6  7  1  0
  7  8  2  0
  7  9  1  0
  8 16  1  0
  9 10  2  0
 10 11  1  0
 10 15  1  0
 11 12  1  0
 11 13  1  0
 13 14  2  0
 14 15  1  0
 15 16  2  0
 16 17  1  0
  1 18  1  0
  2 19  1  0
  3 20  1  0
  5 21  1  0
 12 22  1  0
 12 23  1  0
 12 24  1  0
 14 25  1  0
 17 26  1  0
 17 27  1  0
M  END
>  <mol_id>  (86) 
2026-09-18-6fnk-s0-n100-r7-0086

>  <rmsd_to_ref>  (86) 
4.357142857145932

>  <pose_kind>  (86) 
conformer

$$$$
6fnk.A
     RDKit          3D

 27 29  0  0  0  0  0  0  0  0999 V2000
    1.3048   15.7108   43.0720 C   0  0  0  0  0  0  0  0  0  0  0  0
    2.1798   15.3845   44.1084 C   0  0  0  0  0  0  0  0  0  0  0  0
    2.8921   16.3844   44.7543 C   0  0  0  0  0  0  0  0  0  0  0  0
    2.7295   17.7178   44.3684 N   0  0  0  0  0  0  0  0  0  0  0  0
    1.8498   18.0428   43.3246 C   0  0  0  0  0  0  0  0  0  0  0  0
    1.1351   17.0390   42.6737 C   0  0  0  0  0  0  0  0  0  0  0  0
    0.2608   17.3657   41.6321 C   0  0  0  0  0  0  0  0  0  0  0  0
   -0.3016   16.4115   40.8777 N   0  0  0  0  0  0  0  0  0  0  0  0
   -0.0280   18.6470   41.3833 N   0  0  0  0  0  0  0  0  0  0  0  0
   -0.8572   19.0006   40.3851 C   0  0  0  0  0  0  0  0  0  0  0  0
   -1.2755   20.1967   39.9439 N   0  0  0  0  0  0  0  0  0  0  0  0
   -0.8977   21.4996   40.4995 C   0  0  0  0  0  0  0  0  0  0  0  0
   -2.0460   20.0616   38.9926 N   0  0  0  0  0  0  0  0  0  0  0  0
   -2.1972   18.7437   38.7815 C   0  0  0  0  0  0  0  0  0  0  0  0
   -1.4290   18.0598   39.6399 C   0  0  0  0  0  0  0  0  0  0  0  0
   -1.1496   16.7509   39.8892 C   0  0  0  0  0  0  0  0  0  0  0  0
   -1.7119   15.7662   39.1471 N   0  0  0  0  0  0  0  0  0  0  0  0
    0.7427   14.9139   42.5631 H   0  0  0  0  0  0  0  0  0  0  0  0
    2.3047   14.3350   44.4132 H   0  0  0  0  0  0  0  0  0  0  0  0
    3.5845   16.1279   45.5696 H   0  0  0  0  0  0  0  0  0  0  0  0
    1.7242   19.0921   43.0195 H   0  0  0  0  0  0  0  0  0  0  0  0
   -0.5354   22.1518   39.6911 H   0  0  0  0  0  0  0  0  0  0  0  0
   -1.7734   21.9617   40.9787 H   0  0  0  0  0  0  0  0  0  0  0  0
   -0.1009   21.3630   41.2455 H   0  0  0  0  0  0  0  0  0  0  0  0
   -2.8518   18.2946   38.0200 H   0  0  0  0  0  0  0  0  0  0  0  0
   -2.3636   16.0035   38.3857 H   0  0  0  0  0  0  0  0  0  0  0  0
   -1.4874   14.7806   39.3446 H   0  0  0  0  0  0  0  0  0  0  0  0
  1  2  2  0
  1  6  1  0
  2  3  1  0
  3  4  2  0
  4  5  1  0
  5  6  2  0
  6  7  1  0
  7  8  2  0
  7  9  1  0
  8 16  1  0
  9 10  2  0
 10 11  1  0
 10 15  1  0
 11 12  1  0
 11 13  1  0
 13 14  2  0
 14 15  1  0
 15 16  2  0
 16 17  1  0
  1 18  1  0
  2 19  1  0
  3 20  1  0
  5 21  1  0
 12 22  1  0
 12 23  1  0
 12 24  1  0
 14 25  1  0
 17 26  1  0
 17 27  1  0
M  END
>  <mol_id>  (87) 
2026-09-18-6fnk-s0-n100-r7-0087

>  <rmsd_to_ref>  (87) 
4.40306122449062

>  <pose_kind>  (87) 
rigid

$$$$
6fnk.A
     RDKit          3D

 27 29  0  0  0  0  0  0  0  0999 V2000
   -0.7155   18.3953   41.9011 C   0  0  0  0  0  0  0  0  0  0  0  0
   -1.9282   17.7363   41.8053 C   0  0  0  0  0  0  0  0  0  0  0  0
   -2.0143   16.5173   41.1719 C   0  0  0  0  0  0  0  0  0  0  0  0
   -0.8904   15.9880   40.6512 N   0  0  0  0  0  0  0  0  0  0  0  0
    0.3017   16.6046   40.7287 C   0  0  0  0  0  0  0  0  0  0  0  0
    0.4224   17.8361   41.3615 C   0  0  0  0  0  0  0  0  0  0  0  0
    1.7299   18.4639   41.4206 C   0  0  0  0  0  0  0  0  0  0  0  0
    2.7602   17.8108   40.8535 N   0  0  0  0  0  0  0  0  0  0  0  0
    1.9616   19.6295   41.9946 N   0  0  0  0  0  0  0  0  0  0  0  0
    3.1893   20.1933   42.0363 C   0  0  0  0  0  0  0  0  0  0  0  0
    3.6898   21.3350   42.5408 N   0  0  0  0  0  0  0  0  0  0  0  0
    2.9303   22.3419   43.2396 C   0  0  0  0  0  0  0  0  0  0  0  0
    4.9868   21.4269   42.3156 N   0  0  0  0  0  0  0  0  0  0  0  0
    5.4022   20.3369   41.6450 C   0  0  0  0  0  0  0  0  0  0  0  0
    4.2795   19.5528   41.4634 C   0  0  0  0  0  0  0  0  0  0  0  0
    4.0212   18.3306   40.8647 C   0  0  0  0  0  0  0  0  0  0  0  0
    5.1155   17.6407   40.2644 N   0  0  0  0  0  0  0  0  0  0  0  0
   -0.6374   19.3430   42.3912 H   0  0  0  0  0  0  0  0  0  0  0  0
   -2.7881   18.2158   42.2435 H   0  0  0  0  0  0  0  0  0  0  0  0
   -2.9631   16.0036   41.0979 H   0  0  0  0  0  0  0  0  0  0  0  0
    1.1581   16.1044   40.2803 H   0  0  0  0  0  0  0  0  0  0  0  0
    3.3172   22.3271   44.2934 H   0  0  0  0  0  0  0  0  0  0  0  0
    3.1494   23.3270   42.7677 H   0  0  0  0  0  0  0  0  0  0  0  0
    1.8452   22.1355   43.1916 H   0  0  0  0  0  0  0  0  0  0  0  0
    6.3872   20.0657   41.2917 H   0  0  0  0  0  0  0  0  0  0  0  0
    5.3457   17.7241   39.2493 H   0  0  0  0  0  0  0  0  0  0  0  0
    5.7453   17.0123   40.8185 H   0  0  0  0  0  0  0  0  0  0  0  0
  1  2  2  0
  1  6  1  0
  2  3  1  0
  3  4  2  0
  4  5  1  0
  5  6  2  0
  6  7  1  0
  7  8  2  0
  7  9  1  0
  8 16  1  0
  9 10  2  0
 10 11  1  0
 10 15  1  0
 11 12  1  0
 11 13  1  0
 13 14  2  0
 14 15  1  0
 15 16  2  0
 16 17  1  0
  1 18  1  0
  2 19  1  0
  3 20  1  0
  5 21  1  0
 12 22  1  0
 12 23  1  0
 12 24  1  0
 14 25  1  0
 17 26  1  0
 17 27  1  0
M  END
>  <mol_id>  (88) 
2026-09-18-6fnk-s0-n100-r7-0088

>  <rmsd_to_ref>  (88) 
4.448979591837826

>  <pose_kind>  (88) 
conformer

$$$$
6fnk.A
     RDKit          3D

 27 29  0  0  0  0  0  0  0  0999 V2000
   -1.0497   13.8541   42.6862 C   0  0  0  0  0  0  0  0  0  0  0  0
   -2.3106   13.2692   42.8040 C   0  0  0  0  0  0  0  0  0  0  0  0
   -3.3768   14.0131   43.2881 C   0  0  0  0  0  0  0  0  0  0  0  0
   -3.1872   15.3486   43.6536 N   0  0  0  0  0  0  0  0  0  0  0  0
   -1.9173   15.9338   43.5354 C   0  0  0  0  0  0  0  0  0  0  0  0
   -0.8451   15.1870   43.0510 C   0  0  0  0  0  0  0  0  0  0  0  0
    0.4200   15.7723   42.9365 C   0  0  0  0  0  0  0  0  0  0  0  0
    1.4987   15.0333   42.6425 N   0  0  0  0  0  0  0  0  0  0  0  0
    0.5623   17.0894   43.1154 N   0  0  0  0  0  0  0  0  0  0  0  0
    1.7637   17.6867   43.0220 C   0  0  0  0  0  0  0  0  0  0  0  0
    2.1480   18.9633   43.1732 N   0  0  0  0  0  0  0  0  0  0  0  0
    1.2722   20.0938   43.4955 C   0  0  0  0  0  0  0  0  0  0  0  0
    3.3615   19.0739   42.9936 N   0  0  0  0  0  0  0  0  0  0  0  0
    3.8341   17.8567   42.6786 C   0  0  0  0  0  0  0  0  0  0  0  0
    2.8368   16.9630   42.7186 C   0  0  0  0  0  0  0  0  0  0  0  0
    2.7033   15.6220   42.5254 C   0  0  0  0  0  0  0  0  0  0  0  0
    3.7763   14.8534   42.2183 N   0  0  0  0  0  0  0  0  0  0  0  0
   -0.2077   13.2596   42.3019 H   0  0  0  0  0  0  0  0  0  0  0  0
   -2.4594   12.2188   42.5133 H   0  0  0  0  0  0  0  0  0  0  0  0
   -4.3709   13.5520   43.3843 H   0  0  0  0  0  0  0  0  0  0  0  0
   -1.7679   16.9842   43.8257 H   0  0  0  0  0  0  0  0  0  0  0  0
    1.6811   20.6401   44.3582 H   0  0  0  0  0  0  0  0  0  0  0  0
    1.2113   20.7690   42.6292 H   0  0  0  0  0  0  0  0  0  0  0  0
    0.2669   19.7205   43.7408 H   0  0  0  0  0  0  0  0  0  0  0  0
    4.8801   17.6284   42.4264 H   0  0  0  0  0  0  0  0  0  0  0  0
    4.7076   15.2832   42.1238 H   0  0  0  0  0  0  0  0  0  0  0  0
    3.6607   13.8394   42.0795 H   0  0  0  0  0  0  0  0  0  0  0  0
  1  2  2  0
  1  6  1  0
  2  3  1  0
  3  4  2  0
  4  5  1  0
  5  6  2  0
  6  7  1  0
  7  8  2  0
  7  9  1  0
  8 16  1  0
  9 10  2  0
 10 11  1  0
 10 15  1  0
 11 12  1  0
 11 13  1  0
 13 14  2  0
 14 15  1  0
 15 16  2  0
 16 17  1  0
  1 18  1  0
  2 19  1  0
  3 20  1  0
  5 21  1  0
 12 22  1  0
 12 23  1  0
 12 24  1  0
 14 25  1  0
 17 26  1  0
 17 27  1  0
M  END
>  <mol_id>  (89) 
2026-09-18-6fnk-s0-n100-r7-0089

>  <rmsd_to_ref>  (89) 
4.494897959188834

>  <pose_kind>  (89) 
rigid

$$$$
6fnk.A
     RDKit          3D

 27 29  0  0  0  0  0  0  0  0999 V2000
   -0.8892   18.1409   39.2333 C   0  0  0  0  0  0  0  0  0  0  0  0
   -1.6132   18.4194   38.0878 C   0  0  0  0  0  0  0  0  0  0  0  0
   -1.2007   19.4302   37.2445 C   0  0  0  0  0  0  0  0  0  0  0  0
   -0.0976   20.1339   37.5469 N   0  0  0  0  0  0  0  0  0  0  0  0
    0.6498   19.9141   38.6429 C   0  0  0  0  0  0  0  0  0  0  0  0
    0.2349   18.9023   39.4848 C   0  0  0  0  0  0  0  0  0  0  0  0
    1.0155   18.6377   40.6743 C   0  0  0  0  0  0  0  0  0  0  0  0
    2.1151   19.3281   40.9899 N   0  0  0  0  0  0  0  0  0  0  0  0
    0.6551   17.6524   41.5420 N   0  0  0  0  0  0  0  0  0  0  0  0
    1.3629   17.3908   42.6481 C   0  0  0  0  0  0  0  0  0  0  0  0
    1.2028   16.4761   43.6438 N   0  0  0  0  0  0  0  0  0  0  0  0
    0.1196   15.4966   43.7159 C   0  0  0  0  0  0  0  0  0  0  0  0
    2.1788   16.6212   44.5222 N   0  0  0  0  0  0  0  0  0  0  0  0
    3.0169   17.6297   44.1456 C   0  0  0  0  0  0  0  0  0  0  0  0
    2.4851   18.1010   42.9630 C   0  0  0  0  0  0  0  0  0  0  0  0
    2.8671   19.1157   42.0813 C   0  0  0  0  0  0  0  0  0  0  0  0
    4.0144   19.8778   42.3572 N   0  0  0  0  0  0  0  0  0  0  0  0
   -1.2145   17.3460   39.8954 H   0  0  0  0  0  0  0  0  0  0  0  0
   -2.5025   17.8657   37.8266 H   0  0  0  0  0  0  0  0  0  0  0  0
   -1.7199   19.7005   36.3327 H   0  0  0  0  0  0  0  0  0  0  0  0
    1.5394   20.5046   38.8574 H   0  0  0  0  0  0  0  0  0  0  0  0
   -0.1719   15.2705   42.6613 H   0  0  0  0  0  0  0  0  0  0  0  0
    0.4491   14.5568   44.1626 H   0  0  0  0  0  0  0  0  0  0  0  0
   -0.7907   15.9219   44.1947 H   0  0  0  0  0  0  0  0  0  0  0  0
    3.9020   17.9861   44.6545 H   0  0  0  0  0  0  0  0  0  0  0  0
    4.5613   19.7297   43.2203 H   0  0  0  0  0  0  0  0  0  0  0  0
    4.3437   20.6092   41.7029 H   0  0  0  0  0  0  0  0  0  0  0  0
  1  2  2  0
  1  6  1  0
  2  3  1  0
  3  4  2  0
  4  5  1  0
  5  6  2  0
  6  7  1  0
  7  8  2  0
  7  9  1  0
  8 16  1  0
  9 10  2  0
 10 11  1  0
 10 15  1  0
 11 12  1  0
 11 13  1  0
 13 14  2  0
 14 15  1  0
 15 16  2  0
 16 17  1  0
  1 18  1  0
  2 19  1  0
  3 20  1  0
  5 21  1  0
 12 22  1  0
 12 23  1  0
 12 24  1  0
 14 25  1  0
 17 26  1  0
 17 27  1  0
M  END
>  <mol_id>  (90) 
2026-09-18-6fnk-s0-n100-r7-0090

>  <rmsd_to_ref>  (90) 
4.540816326532811

>  <pose_kind>  (90) 
conformer

$$$$
6fnk.A
     RDKit          3D

 27 29  0  0  0  0  0  0  0  0999 V2000
    1.6512   18.6375   40.2248 C   0  0  0  0  0  0  0  0  0  0  0  0
    1.8020   19.1094   38.9208 C   0  0  0  0  0  0  0  0  0  0  0  0
    2.4996   18.3561   37.9878 C   0  0  0  0  0  0  0  0  0  0  0  0
    3.0473   17.1237   38.3546 N   0  0  0  0  0  0  0  0  0  0  0  0
    2.8952   16.6524   39.6675 C   0  0  0  0  0  0  0  0  0  0  0  0
    2.1962   17.4091   40.6061 C   0  0  0  0  0  0  0  0  0  0  0  0
    2.0484   16.9378   41.9146 C   0  0  0  0  0  0  0  0  0  0  0  0
    1.5371   17.7188   42.8762 N   0  0  0  0  0  0  0  0  0  0  0  0
    2.4144   15.6882   42.2169 N   0  0  0  0  0  0  0  0  0  0  0  0
    2.2955   15.2025   43.4655 C   0  0  0  0  0  0  0  0  0  0  0  0
    2.6040   14.0114   44.0007 N   0  0  0  0  0  0  0  0  0  0  0  0
    3.1835   12.8703   43.2859 C   0  0  0  0  0  0  0  0  0  0  0  0
    2.3236   13.9903   45.1999 N   0  0  0  0  0  0  0  0  0  0  0  0
    1.7779   15.1788   45.5062 C   0  0  0  0  0  0  0  0  0  0  0  0
    1.7779   15.9664   44.4224 C   0  0  0  0  0  0  0  0  0  0  0  0
    1.3932   17.2379   44.1249 C   0  0  0  0  0  0  0  0  0  0  0  0
    0.8650   18.0453   45.0766 N   0  0  0  0  0  0  0  0  0  0  0  0
    1.0972   19.2390   40.9606 H   0  0  0  0  0  0  0  0  0  0  0  0
    1.3680   20.0781   38.6324 H   0  0  0  0  0  0  0  0  0  0  0  0
    2.6218   18.7286   36.9601 H   0  0  0  0  0  0  0  0  0  0  0  0
    3.3287   15.6836   39.9565 H   0  0  0  0  0  0  0  0  0  0  0  0
    4.0755   12.5157   43.8232 H   0  0  0  0  0  0  0  0  0  0  0  0
    2.4431   12.0588   43.2289 H   0  0  0  0  0  0  0  0  0  0  0  0
    3.4670   13.1801   42.2692 H   0  0  0  0  0  0  0  0  0  0  0  0
    1.3902   15.4622   46.4958 H   0  0  0  0  0  0  0  0  0  0  0  0
    0.7459   17.6977   46.0388 H   0  0  0  0  0  0  0  0  0  0  0  0
    0.5827   19.0066   44.8376 H   0  0  0  0  0  0  0  0  0  0  0  0
  1  2  2  0
  1  6  1  0
  2  3  1  0
  3  4  2  0
  4  5  1  0
  5  6  2  0
  6  7  1  0
  7  8  2  0
  7  9  1  0
  8 16  1  0
  9 10  2  0
 10 11  1  0
 10 15  1  0
 11 12  1  0
 11 13  1  0
 13 14  2  0
 14 15  1  0
 15 16  2  0
 16 17  1  0
  1 18  1  0
  2 19  1  0
  3 20  1  0
  5 21  1  0
 12 22  1  0
 12 23  1  0
 12 24  1  0
 14 25  1  0
 17 26  1  0
 17 27  1  0
M  END
>  <mol_id>  (91) 
2026-09-18-6fnk-s0-n100-r7-0091

>  <rmsd_to_ref>  (91) 
4.586734693879068

>  <pose_kind>  (91) 
rigid

$$$$
6fnk.A
     RDKit          3D

 27 29  0  0  0  0  0  0  0  0999 V2000
   -0.6602   20.2621   41.6118 C   0  0  0  0  0  0  0  0  0  0  0  0
   -0.9195   20.5763   40.2874 C   0  0  0  0  0  0  0  0  0  0  0  0
   -0.7791   19.5797   39.3270 C   0  0  0  0  0  0  0  0  0  0  0  0
   -0.4012   18.3304   39.6503 N   0  0  0  0  0  0  0  0  0  0  0  0
   -0.1499   18.0266   40.9355 C   0  0  0  0  0  0  0  0  0  0  0  0
   -0.2731   18.9827   41.9443 C   0  0  0  0  0  0  0  0  0  0  0  0
    0.0035   18.6366   43.3346 C   0  0  0  0  0  0  0  0  0  0  0  0
   -0.0984   19.5156   44.3480 N   0  0  0  0  0  0  0  0  0  0  0  0
    0.3789   17.3830   43.6319 N   0  0  0  0  0  0  0  0  0  0  0  0
    0.6538   16.9733   44.8804 C   0  0  0  0  0  0  0  0  0  0  0  0
    1.0391   15.8016   45.4186 N   0  0  0  0  0  0  0  0  0  0  0  0
    1.2768   14.5608   44.6984 C   0  0  0  0  0  0  0  0  0  0  0  0
    1.1697   15.9512   46.7100 N   0  0  0  0  0  0  0  0  0  0  0  0
    0.8778   17.2200   47.0768 C   0  0  0  0  0  0  0  0  0  0  0  0
    0.5463   17.8815   45.9109 C   0  0  0  0  0  0  0  0  0  0  0  0
    0.1616   19.1776   45.6302 C   0  0  0  0  0  0  0  0  0  0  0  0
    0.0408   20.1397   46.6689 N   0  0  0  0  0  0  0  0  0  0  0  0
   -0.7693   21.0378   42.3607 H   0  0  0  0  0  0  0  0  0  0  0  0
   -1.2277   21.5933   40.0199 H   0  0  0  0  0  0  0  0  0  0  0  0
   -0.9751   19.7929   38.2764 H   0  0  0  0  0  0  0  0  0  0  0  0
    0.1569   17.0023   41.1778 H   0  0  0  0  0  0  0  0  0  0  0  0
    1.2013   14.7044   43.6004 H   0  0  0  0  0  0  0  0  0  0  0  0
    0.5752   13.7633   44.9686 H   0  0  0  0  0  0  0  0  0  0  0  0
    2.3143   14.1754   44.8636 H   0  0  0  0  0  0  0  0  0  0  0  0
    0.8976   17.6390   48.0770 H   0  0  0  0  0  0  0  0  0  0  0  0
    0.9163   20.4432   47.1810 H   0  0  0  0  0  0  0  0  0  0  0  0
   -0.9004   20.5446   46.9262 H   0  0  0  0  0  0  0  0  0  0  0  0
  1  2  2  0
  1  6  1  0
  2  3  1  0
  3  4  2  0
  4  5  1  0
  5  6  2  0
  6  7  1  0
  7  8  2  0
  7  9  1  0
  8 16  1  0
  9 10  2  0
 10 11  1  0
 10 15  1  0
 11 12  1  0
 11 13  1  0
 13 14  2  0
 14 15  1  0
 15 16  2  0
 16 17  1  0
  1 18  1  0
  2 19  1  0
  3 20  1  0
  5 21  1  0
 12 22  1  0
 12 23  1  0
 12 24  1  0
 14 25  1  0
 17 26  1  0
 17 27  1  0
M  END
>  <mol_id>  (92) 
2026-09-18-6fnk-s0-n100-r7-0092

>  <rmsd_to_ref>  (92) 
4.632653061230575

>  <pose_kind>  (92) 
conformer

$$$$
6fnk.A
     RDKit          3D

 27 29  0  0  0  0  0  0  0  0999 V2000
    1.7744   18.6961   38.0973 C   0  0  0  0  0  0  0  0  0  0  0  0
    0.9396   19.2107   37.1052 C   0  0  0  0  0  0  0  0  0  0  0  0
   -0.4215   19.3369   37.3418 C   0  0  0  0  0  0  0  0  0  0  0  0
   -0.9541   18.9518   38.5752 N   0  0  0  0  0  0  0  0  0  0  0  0
   -0.1121   18.4330   39.5707 C   0  0  0  0  0  0  0  0  0  0  0  0
    1.2551   18.3040   39.3334 C   0  0  0  0  0  0  0  0  0  0  0  0
    2.0914   17.7844   40.3267 C   0  0  0  0  0  0  0  0  0  0  0  0
    3.3719   17.4873   40.0654 N   0  0  0  0  0  0  0  0  0  0  0  0
    1.6152   17.5843   41.5597 N   0  0  0  0  0  0  0  0  0  0  0  0
    2.3864   17.0784   42.5386 C   0  0  0  0  0  0  0  0  0  0  0  0
    2.1315   16.7808   43.8218 N   0  0  0  0  0  0  0  0  0  0  0  0
    0.8491   16.9601   44.5089 C   0  0  0  0  0  0  0  0  0  0  0  0
    3.1395   16.3340   44.3708 N   0  0  0  0  0  0  0  0  0  0  0  0
    4.1306   16.3477   43.4643 C   0  0  0  0  0  0  0  0  0  0  0  0
    3.6609   16.7925   42.2911 C   0  0  0  0  0  0  0  0  0  0  0  0
    4.1600   17.0001   41.0417 C   0  0  0  0  0  0  0  0  0  0  0  0
    5.4534   16.7166   40.7534 N   0  0  0  0  0  0  0  0  0  0  0  0
    2.8529   18.5979   37.9042 H   0  0  0  0  0  0  0  0  0  0  0  0
    1.3603   19.5162   36.1358 H   0  0  0  0  0  0  0  0  0  0  0  0
   -1.0811   19.7398   36.5592 H   0  0  0  0  0  0  0  0  0  0  0  0
   -0.5321   18.1275   40.5403 H   0  0  0  0  0  0  0  0  0  0  0  0
    0.5623   16.0193   45.0015 H   0  0  0  0  0  0  0  0  0  0  0  0
    0.9454   17.7546   45.2637 H   0  0  0  0  0  0  0  0  0  0  0  0
    0.0772   17.2410   43.7773 H   0  0  0  0  0  0  0  0  0  0  0  0
    5.1694   16.0407   43.6560 H   0  0  0  0  0  0  0  0  0  0  0  0
    6.0742   16.3429   41.4854 H   0  0  0  0  0  0  0  0  0  0  0  0
    5.8156   16.8747   39.8022 H   0  0  0  0  0  0  0  0  0  0  0  0
  1  2  2  0
  1  6  1  0
  2  3  1  0
  3  4  2  0
  4  5  1  0
  5  6  2  0
  6  7  1  0
  7  8  2  0
  7  9  1  0
  8 16  1  0
  9 10  2  0
 10 11  1  0
 10 15  1  0
 11 12  1  0
 11 13  1  0
 13 14  2  0
 14 15  1  0
 15 16  2  0
 16 17  1  0
  1 18  1  0
  2 19  1  0
  3 20  1  0
  5 21  1  0
 12 22  1  0
 12 23  1  0
 12 24  1  0
 14 25  1  0
 17 26  1  0
 17 27  1  0
M  END
>  <mol_id>  (93) 
2026-09-18-6fnk-s0-n100-r7-0093

>  <rmsd_to_ref>  (93) 
4.678571428574496

>  <pose_kind>  (93) 
rigid

$$$$
6fnk.A
     RDKit          3D

 27 29  0  0  0  0  0  0  0  0999 V2000
    1.1330   16.5498   44.6977 C   0  0  0  0  0  0  0  0  0  0  0  0
    0.5302   15.9192   45.7837 C   0  0  0  0  0  0  0  0  0  0  0  0
    1.2577   15.1326   46.6576 C   0  0  0  0  0  0  0  0  0  0  0  0
    2.5970   14.9835   46.4329 N   0  0  0  0  0  0  0  0  0  0  0  0
    3.1948   15.5864   45.3876 C   0  0  0  0  0  0  0  0  0  0  0  0
    2.4888   16.3756   44.5031 C   0  0  0  0  0  0  0  0  0  0  0  0
    3.1661   17.0152   43.3801 C   0  0  0  0  0  0  0  0  0  0  0  0
    4.4834   16.8327   43.2096 N   0  0  0  0  0  0  0  0  0  0  0  0
    2.4559   17.7803   42.5310 N   0  0  0  0  0  0  0  0  0  0  0  0
    3.0481   18.3921   41.4750 C   0  0  0  0  0  0  0  0  0  0  0  0
    2.5815   19.1873   40.5041 N   0  0  0  0  0  0  0  0  0  0  0  0
    1.2072   19.6456   40.3039 C   0  0  0  0  0  0  0  0  0  0  0  0
    3.5807   19.5179   39.7127 N   0  0  0  0  0  0  0  0  0  0  0  0
    4.7201   18.9354   40.1647 C   0  0  0  0  0  0  0  0  0  0  0  0
    4.4062   18.2002   41.3045 C   0  0  0  0  0  0  0  0  0  0  0  0
    5.1563   17.4124   42.1728 C   0  0  0  0  0  0  0  0  0  0  0  0
    6.5377   17.2357   41.9732 N   0  0  0  0  0  0  0  0  0  0  0  0
    0.5496   17.1622   44.0229 H   0  0  0  0  0  0  0  0  0  0  0  0
   -0.5295   16.0473   45.9474 H   0  0  0  0  0  0  0  0  0  0  0  0
    0.7997   14.6435   47.4969 H   0  0  0  0  0  0  0  0  0  0  0  0
    4.2606   15.4765   45.1964 H   0  0  0  0  0  0  0  0  0  0  0  0
    0.8354   19.2158   39.3690 H   0  0  0  0  0  0  0  0  0  0  0  0
    0.5709   19.4154   41.1766 H   0  0  0  0  0  0  0  0  0  0  0  0
    1.2386   20.7616   40.1813 H   0  0  0  0  0  0  0  0  0  0  0  0
    5.7114   19.0223   39.7199 H   0  0  0  0  0  0  0  0  0  0  0  0
    7.2895   17.7639   42.4362 H   0  0  0  0  0  0  0  0  0  0  0  0
    6.8359   16.4972   41.2890 H   0  0  0  0  0  0  0  0  0  0  0  0
  1  2  2  0
  1  6  1  0
  2  3  1  0
  3  4  2  0
  4  5  1  0
  5  6  2  0
  6  7  1  0
  7  8  2  0
  7  9  1  0
  8 16  1  0
  9 10  2  0
 10 11  1  0
 10 15  1  0
 11 12  1  0
 11 13  1  0
 13 14  2  0
 14 15  1  0
 15 16  2  0
 16 17  1  0
  1 18  1  0
  2 19  1  0
  3 20  1  0
  5 21  1  0
 12 22  1  0
 12 23  1  0
 12 24  1  0
 14 25  1  0
 17 26  1  0
 17 27  1  0
M  END
>  <mol_id>  (94) 
2026-09-18-6fnk-s0-n100-r7-0094

>  <rmsd_to_ref>  (94) 
4.724489795923244

>  <pose_kind>  (94) 
conformer

$$$$
6fnk.A
     RDKit          3D

 27 29  0  0  0  0  0  0  0  0999 V2000
   -0.5365   18.0942   40.2363 C   0  0  0  0  0  0  0  0  0  0  0  0
   -1.3846   18.2794   39.1443 C   0  0  0  0  0  0  0  0  0  0  0  0
   -1.7024   17.2067   38.3242 C   0  0  0  0  0  0  0  0  0  0  0  0
   -1.1755   15.9409   38.5952 N   0  0  0  0  0  0  0  0  0  0  0  0
   -0.3214   15.7580   39.6934 C   0  0  0  0  0  0  0  0  0  0  0  0
    0.0001   16.8353   40.5169 C   0  0  0  0  0  0  0  0  0  0  0  0
    0.8535   16.6504   41.6094 C   0  0  0  0  0  0  0  0  0  0  0  0
    1.3162   17.6958   42.3088 N   0  0  0  0  0  0  0  0  0  0  0  0
    1.2125   15.4147   41.9715 N   0  0  0  0  0  0  0  0  0  0  0  0
    2.0381   15.1976   43.0107 C   0  0  0  0  0  0  0  0  0  0  0  0
    2.5409   14.0722   43.5406 N   0  0  0  0  0  0  0  0  0  0  0  0
    2.2783   12.7080   43.0726 C   0  0  0  0  0  0  0  0  0  0  0  0
    3.2643   14.3326   44.5029 N   0  0  0  0  0  0  0  0  0  0  0  0
    3.2440   15.6649   44.6723 C   0  0  0  0  0  0  0  0  0  0  0  0
    2.4917   16.2282   43.7174 C   0  0  0  0  0  0  0  0  0  0  0  0
    2.1262   17.4910   43.3640 C   0  0  0  0  0  0  0  0  0  0  0  0
    2.5727   18.5648   44.0598 N   0  0  0  0  0  0  0  0  0  0  0  0
   -0.2877   18.9484   40.8831 H   0  0  0  0  0  0  0  0  0  0  0  0
   -1.8011   19.2755   38.9337 H   0  0  0  0  0  0  0  0  0  0  0  0
   -2.3687   17.3522   37.4611 H   0  0  0  0  0  0  0  0  0  0  0  0
    0.0953   14.7621   39.9047 H   0  0  0  0  0  0  0  0  0  0  0  0
    3.2327   12.1846   42.9142 H   0  0  0  0  0  0  0  0  0  0  0  0
    1.6854   12.1694   43.8266 H   0  0  0  0  0  0  0  0  0  0  0  0
    1.7196   12.7463   42.1258 H   0  0  0  0  0  0  0  0  0  0  0  0
    3.7654   16.2102   45.4727 H   0  0  0  0  0  0  0  0  0  0  0  0
    3.1935   18.4310   44.8708 H   0  0  0  0  0  0  0  0  0  0  0  0
    2.2913   19.5146   43.7778 H   0  0  0  0  0  0  0  0  0  0  0  0
  1  2  2  0
  1  6  1  0
  2  3  1  0
  3  4  2  0
  4  5  1  0
  5  6  2  0
  6  7  1  0
  7  8  2  0
  7  9  1  0
  8 16  1  0
  9 10  2  0
 10 11  1  0
 10 15  1  0
 11 12  1  0
 11 13  1  0
 13 14  2  0
 14 15  1  0
 15 16  2  0
 16 17  1  0
  1 18  1  0
  2 19  1  0
  3 20  1  0
  5 21  1  0
 12 22  1  0
 12 23  1  0
 12 24  1  0
 14 25  1  0
 17 26  1  0
 17 27  1  0
M  END
>  <mol_id>  (95) 
2026-09-18-6fnk-s0-n100-r7-0095

>  <rmsd_to_ref>  (95) 
4.77040816327021

>  <pose_kind>  (95) 
rigid

$$$$
6fnk.A
     RDKit          3D

 27 29  0  0  0  0  0  0  0  0999 V2000
    1.7729   16.4365   40.0065 C   0  0  0  0  0  0  0  0  0  0  0  0
    1.1412   16.7522   38.8238 C   0  0  0  0  0  0  0  0  0  0  0  0
    0.6513   18.0193   38.6289 C   0  0  0  0  0  0  0  0  0  0  0  0
    0.7523   19.0022   39.5481 N   0  0  0  0  0  0  0  0  0  0  0  0
    1.3753   18.7036   40.7236 C   0  0  0  0  0  0  0  0  0  0  0  0
    1.8788   17.4382   40.9499 C   0  0  0  0  0  0  0  0  0  0  0  0
    2.5395   17.1539   42.2194 C   0  0  0  0  0  0  0  0  0  0  0  0
    2.6569   18.1119   43.1578 N   0  0  0  0  0  0  0  0  0  0  0  0
    3.0418   15.9327   42.4743 N   0  0  0  0  0  0  0  0  0  0  0  0
    3.6562   15.6409   43.6355 C   0  0  0  0  0  0  0  0  0  0  0  0
    4.2402   14.5147   44.1395 N   0  0  0  0  0  0  0  0  0  0  0  0
    4.3329   13.2445   43.4480 C   0  0  0  0  0  0  0  0  0  0  0  0
    4.7060   14.7497   45.3422 N   0  0  0  0  0  0  0  0  0  0  0  0
    4.4337   16.0371   45.6460 C   0  0  0  0  0  0  0  0  0  0  0  0
    3.7685   16.6459   44.5957 C   0  0  0  0  0  0  0  0  0  0  0  0
    3.2573   17.9027   44.3462 C   0  0  0  0  0  0  0  0  0  0  0  0
    3.3845   18.9110   45.3418 N   0  0  0  0  0  0  0  0  0  0  0  0
    2.1674   15.4457   40.1842 H   0  0  0  0  0  0  0  0  0  0  0  0
    1.0649   15.9575   38.0922 H   0  0  0  0  0  0  0  0  0  0  0  0
    0.1572   18.2689   37.7056 H   0  0  0  0  0  0  0  0  0  0  0  0
    1.4355   19.5139   41.4302 H   0  0  0  0  0  0  0  0  0  0  0  0
    5.4000   12.8778   43.4623 H   0  0  0  0  0  0  0  0  0  0  0  0
    4.0220   13.3728   42.3940 H   0  0  0  0  0  0  0  0  0  0  0  0
    3.7682   12.4351   43.9523 H   0  0  0  0  0  0  0  0  0  0  0  0
    4.6939   16.5398   46.5801 H   0  0  0  0  0  0  0  0  0  0  0  0
    4.1572   19.6229   45.3405 H   0  0  0  0  0  0  0  0  0  0  0  0
    2.6708   18.9314   46.1007 H   0  0  0  0  0  0  0  0  0  0  0  0
  1  2  2  0
  1  6  1  0
  2  3  1  0
  3  4  2  0
  4  5  1  0
  5  6  2  0
  6  7  1  0
  7  8  2  0
  7  9  1  0
  8 16  1  0
  9 10  2  0
 10 11  1  0
 10 15  1  0
 11 12  1  0
 11 13  1  0
 13 14  2  0
 14 15  1  0
 15 16  2  0
 16 17  1  0
  1 18  1  0
  2 19  1  0
  3 20  1  0
  5 21  1  0
 12 22  1  0
 12 23  1  0
 12 24  1  0
 14 25  1  0
 17 26  1  0
 17 27  1  0
M  END
>  <mol_id>  (96) 
2026-09-18-6fnk-s0-n100-r7-0096

>  <rmsd_to_ref>  (96) 
4.816326530612438

>  <pose_kind>  (96) 
conformer

$$$$
6fnk.A
     RDKit          3D

 27 29  0  0  0  0  0  0  0  0999 V2000
    1.5564   18.6566   41.6043 C   0  0  0  0  0  0  0  0  0  0  0  0
    1.7849   19.2777   40.3763 C   0  0  0  0  0  0  0  0  0  0  0  0
    2.9964   19.0992   39.7245 C   0  0  0  0  0  0  0  0  0  0  0  0
    3.9851   18.2943   40.2972 N   0  0  0  0  0  0  0  0  0  0  0  0
    3.7529   17.6721   41.5332 C   0  0  0  0  0  0  0  0  0  0  0  0
    2.5370   17.8521   42.1899 C   0  0  0  0  0  0  0  0  0  0  0  0
    2.3094   17.2326   43.4229 C   0  0  0  0  0  0  0  0  0  0  0  0
    1.2259   17.5276   44.1544 N   0  0  0  0  0  0  0  0  0  0  0  0
    3.1781   16.3264   43.8825 N   0  0  0  0  0  0  0  0  0  0  0  0
    2.9978   15.7160   45.0673 C   0  0  0  0  0  0  0  0  0  0  0  0
    3.7260   14.8046   45.7300 N   0  0  0  0  0  0  0  0  0  0  0  0
    4.9864   14.2118   45.2729 C   0  0  0  0  0  0  0  0  0  0  0  0
    3.1850   14.5111   46.7969 N   0  0  0  0  0  0  0  0  0  0  0  0
    2.0380   15.2062   46.8707 C   0  0  0  0  0  0  0  0  0  0  0  0
    1.9194   15.9938   45.7934 C   0  0  0  0  0  0  0  0  0  0  0  0
    1.0228   16.9084   45.3320 C   0  0  0  0  0  0  0  0  0  0  0  0
   -0.0855   17.2182   46.0477 N   0  0  0  0  0  0  0  0  0  0  0  0
    0.5940   18.8017   42.1169 H   0  0  0  0  0  0  0  0  0  0  0  0
    1.0049   19.9086   39.9251 H   0  0  0  0  0  0  0  0  0  0  0  0
    3.1788   19.5909   38.7576 H   0  0  0  0  0  0  0  0  0  0  0  0
    4.5324   17.0408   41.9849 H   0  0  0  0  0  0  0  0  0  0  0  0
    5.7461   14.3118   46.0621 H   0  0  0  0  0  0  0  0  0  0  0  0
    4.8301   13.1466   45.0473 H   0  0  0  0  0  0  0  0  0  0  0  0
    5.3289   14.7322   44.3663 H   0  0  0  0  0  0  0  0  0  0  0  0
    1.3077   15.1391   47.6905 H   0  0  0  0  0  0  0  0  0  0  0  0
   -0.2606   16.7564   46.9515 H   0  0  0  0  0  0  0  0  0  0  0  0
   -0.7526   17.9156   45.6879 H   0  0  0  0  0  0  0  0  0  0  0  0
  1  2  2  0
  1  6  1  0
  2  3  1  0
  3  4  2  0
  4  5  1  0
  5  6  2  0
  6  7  1  0
  7  8  2  0
  7  9  1  0
  8 16  1  0
  9 10  2  0
 10 11  1  0
 10 15  1  0
 11 12  1  0
 11 13  1  0
 13 14  2  0
 14 15  1  0
 15 16  2  0
 16 17  1  0
  1 18  1  0
  2 19  1  0
  3 20  1  0
  5 21  1  0
 12 22  1  0
 12 23  1  0
 12 24  1  0
 14 25  1  0
 17 26  1  0
 17 27  1  0
M  END
>  <mol_id>  (97) 
2026-09-18-6fnk-s0-n100-r7-0097

>  <rmsd_to_ref>  (97) 
4.86224489796384

>  <pose_kind>  (97) 
rigid

$$$$
6fnk.A
     RDKit          3D

 27 29  0  0  0  0  0  0  0  0999 V2000
    3.2474   14.1477   44.3578 C   0  0  0  0  0  0  0  0  0  0  0  0
    4.1050   14.0635   45.4382 C   0  0  0  0  0  0  0  0  0  0  0  0
    4.6195   15.2597   45.9161 C   0  0  0  0  0  0  0  0  0  0  0  0
    4.3117   16.4481   45.3702 N   0  0  0  0  0  0  0  0  0  0  0  0
    3.4684   16.4990   44.3122 C   0  0  0  0  0  0  0  0  0  0  0  0
    2.9213   15.3565   43.7864 C   0  0  0  0  0  0  0  0  0  0  0  0
    2.0069   15.3836   42.6430 C   0  0  0  0  0  0  0  0  0  0  0  0
    1.4864   14.2350   42.1510 N   0  0  0  0  0  0  0  0  0  0  0  0
    1.6840   16.5595   42.0801 N   0  0  0  0  0  0  0  0  0  0  0  0
    0.8444   16.6179   41.0257 C   0  0  0  0  0  0  0  0  0  0  0  0
    0.3385   17.5904   40.2624 N   0  0  0  0  0  0  0  0  0  0  0  0
    0.6244   18.9886   40.4279 C   0  0  0  0  0  0  0  0  0  0  0  0
   -0.4626   17.0928   39.3318 N   0  0  0  0  0  0  0  0  0  0  0  0
   -0.4873   15.7582   39.4832 C   0  0  0  0  0  0  0  0  0  0  0  0
    0.3256   15.4362   40.5404 C   0  0  0  0  0  0  0  0  0  0  0  0
    0.6418   14.2265   41.0995 C   0  0  0  0  0  0  0  0  0  0  0  0
    0.1467   12.9801   40.6527 N   0  0  0  0  0  0  0  0  0  0  0  0
    2.8092   13.2467   43.9347 H   0  0  0  0  0  0  0  0  0  0  0  0
    4.3509   13.1012   45.8760 H   0  0  0  0  0  0  0  0  0  0  0  0
    5.2964   15.1748   46.7713 H   0  0  0  0  0  0  0  0  0  0  0  0
    3.2230   17.4486   43.8767 H   0  0  0  0  0  0  0  0  0  0  0  0
   -0.3214   19.6021   40.4606 H   0  0  0  0  0  0  0  0  0  0  0  0
    1.1154   19.1872   41.4164 H   0  0  0  0  0  0  0  0  0  0  0  0
    1.2846   19.4129   39.6756 H   0  0  0  0  0  0  0  0  0  0  0  0
   -1.0460   15.0534   38.8831 H   0  0  0  0  0  0  0  0  0  0  0  0
    0.8149   12.2705   40.2280 H   0  0  0  0  0  0  0  0  0  0  0  0
   -0.8722   12.7748   40.7471 H   0  0  0  0  0  0  0  0  0  0  0  0
  1  2  2  0
  1  6  1  0
  2  3  1  0
  3  4  2  0
  4  5  1  0
  5  6  2  0
  6  7  1  0
  7  8  2  0
  7  9  1  0
  8 16  1  0
  9 10  2  0
 10 11  1  0
 10 15  1  0
 11 12  1  0
 11 13  1  0
 13 14  2  0
 14 15  1  0
 15 16  2  0
 16 17  1  0
  1 18  1  0
  2 19  1  0
  3 20  1  0
  5 21  1  0
 12 22  1  0
 12 23  1  0
 12 24  1  0
 14 25  1  0
 17 26  1  0
 17 27  1  0
M  END
>  <mol_id>  (98) 
2026-09-18-6fnk-s0-n100-r7-0098

>  <rmsd_to_ref>  (98) 
4.908163265307076

>  <pose_kind>  (98) 
conformer

$$$$
6fnk.A
     RDKit          3D

 27 29  0  0  0  0  0  0  0  0999 V2000
   -1.4374   17.6882   42.5286 C   0  0  0  0  0  0  0  0  0  0  0  0
   -2.7853   17.5067   42.2186 C   0  0  0  0  0  0  0  0  0  0  0  0
   -3.6830   18.5496   42.3941 C   0  0  0  0  0  0  0  0  0  0  0  0
   -3.2352   19.7821   42.8777 N   0  0  0  0  0  0  0  0  0  0  0  0
   -1.8790   19.9611   43.1901 C   0  0  0  0  0  0  0  0  0  0  0  0
   -0.9766   18.9135   43.0161 C   0  0  0  0  0  0  0  0  0  0  0  0
    0.3742   19.0943   43.3306 C   0  0  0  0  0  0  0  0  0  0  0  0
    1.2255   18.0593   43.3398 N   0  0  0  0  0  0  0  0  0  0  0  0
    0.8318   20.3162   43.6213 N   0  0  0  0  0  0  0  0  0  0  0  0
    2.1218   20.5280   43.9370 C   0  0  0  0  0  0  0  0  0  0  0  0
    2.7951   21.6387   44.2736 N   0  0  0  0  0  0  0  0  0  0  0  0
    2.2328   22.9886   44.3764 C   0  0  0  0  0  0  0  0  0  0  0  0
    3.9809   21.3792   44.4826 N   0  0  0  0  0  0  0  0  0  0  0  0
    4.1509   20.0660   44.2575 C   0  0  0  0  0  0  0  0  0  0  0  0
    2.9755   19.5090   43.9365 C   0  0  0  0  0  0  0  0  0  0  0  0
    2.5234   18.2611   43.6335 C   0  0  0  0  0  0  0  0  0  0  0  0
    3.3650   17.1990   43.6268 N   0  0  0  0  0  0  0  0  0  0  0  0
   -0.7299   16.8577   42.3878 H   0  0  0  0  0  0  0  0  0  0  0  0
   -3.1361   16.5372   41.8352 H   0  0  0  0  0  0  0  0  0  0  0  0
   -4.7467   18.4067   42.1527 H   0  0  0  0  0  0  0  0  0  0  0  0
   -1.5275   20.9304   43.5733 H   0  0  0  0  0  0  0  0  0  0  0  0
    2.4940   23.4211   45.3535 H   0  0  0  0  0  0  0  0  0  0  0  0
    2.6441   23.6193   43.5745 H   0  0  0  0  0  0  0  0  0  0  0  0
    1.1383   22.9383   44.2785 H   0  0  0  0  0  0  0  0  0  0  0  0
    5.1089   19.5298   44.3263 H   0  0  0  0  0  0  0  0  0  0  0  0
    4.3622   17.3307   43.8486 H   0  0  0  0  0  0  0  0  0  0  0  0
    3.0075   16.2601   43.4000 H   0  0  0  0  0  0  0  0  0  0  0  0
  1  2  2  0
  1  6  1  0
  2  3  1  0
  3  4  2  0
  4  5  1  0
  5  6  2  0
  6  7  1  0
  7  8  2  0
  7  9  1  0
  8 16  1  0
  9 10  2  0
 10 11  1  0
 10 15  1  0
 11 12  1  0
 11 13  1  0
 13 14  2  0
 14 15  1  0
 15 16  2  0
 16 17  1  0
  1 18  1  0
  2 19  1  0
  3 20  1  0
  5 21  1  0
 12 22  1  0
 12 23  1  0
 12 24  1  0
 14 25  1  0
 17 26  1  0
 17 27  1  0
M  END
>  <mol_id>  (99) 
2026-09-18-6fnk-s0-n100-r7-0099

>  <rmsd_to_ref>  (99) 
4.954081632655264

>  <pose_kind>  (99) 
rigid

$$$$
6fnk.A
     RDKit          3D

 27 29  0  0  0  0  0  0  0  0999 V2000
    0.5719   19.9806   43.5799 C   0  0  0  0  0  0  0  0  0  0  0  0
    1.5141   20.9938   43.4178 C   0  0  0  0  0  0  0  0  0  0  0  0
    2.3747   21.0136   42.3358 C   0  0  0  0  0  0  0  0  0  0  0  0
    2.2824   20.0074   41.4164 N   0  0  0  0  0  0  0  0  0  0  0  0
    1.3770   19.0208   41.5586 C   0  0  0  0  0  0  0  0  0  0  0  0
    0.5085   18.9807   42.6298 C   0  0  0  0  0  0  0  0  0  0  0  0
   -0.4613   17.8977   42.7552 C   0  0  0  0  0  0  0  0  0  0  0  0
   -0.5059   16.9368   41.8212 N   0  0  0  0  0  0  0  0  0  0  0  0
   -1.2978   17.8805   43.8091 N   0  0  0  0  0  0  0  0  0  0  0  0
   -2.2135   16.8914   43.9619 C   0  0  0  0  0  0  0  0  0  0  0  0
   -3.1408   16.6452   44.8959 N   0  0  0  0  0  0  0  0  0  0  0  0
   -3.4400   17.4326   46.0914 C   0  0  0  0  0  0  0  0  0  0  0  0
   -3.7801   15.5397   44.5747 N   0  0  0  0  0  0  0  0  0  0  0  0
   -3.2705   15.0495   43.4163 C   0  0  0  0  0  0  0  0  0  0  0  0
   -2.2547   15.9037   42.9960 C   0  0  0  0  0  0  0  0  0  0  0  0
   -1.3973   15.9057   41.8996 C   0  0  0  0  0  0  0  0  0  0  0  0
   -1.4630   14.8862   40.9324 N   0  0  0  0  0  0  0  0  0  0  0  0
   -0.0945   19.9794   44.4323 H   0  0  0  0  0  0  0  0  0  0  0  0
    1.5742   21.7818   44.1536 H   0  0  0  0  0  0  0  0  0  0  0  0
    3.1036   21.7915   42.2044 H   0  0  0  0  0  0  0  0  0  0  0  0
    1.2921   18.2130   40.8341 H   0  0  0  0  0  0  0  0  0  0  0  0
   -3.1923   16.8295   46.9699 H   0  0  0  0  0  0  0  0  0  0  0  0
   -2.9283   18.4110   46.0721 H   0  0  0  0  0  0  0  0  0  0  0  0
   -4.5474   17.6197   46.1032 H   0  0  0  0  0  0  0  0  0  0  0  0
   -3.5935   14.1463   42.8986 H   0  0  0  0  0  0  0  0  0  0  0  0
   -1.9673   14.9319   40.0367 H   0  0  0  0  0  0  0  0  0  0  0  0
   -0.9518   13.9924   41.1378 H   0  0  0  0  0  0  0  0  0  0  0  0
  1  2  2  0
  1  6  1  0
  2  3  1  0
  3  4  2  0
  4  5  1  0
  5  6  2  0
  6  7  1  0
  7  8  2  0
  7  9  1  0
  8 16  1  0
  9 10  2  0
 10 11  1  0
 10 15  1  0
 11 12  1  0
 11 13  1  0
 13 14  2  0
 14 15  1  0
 15 16  2  0
 16 17  1  0
  1 18  1  0
  2 19  1  0
  3 20  1  0
  5 21  1  0
 12 22  1  0
 12 23  1  0
 12 24  1  0
 14 25  1  0
 17 26  1  0
 17 27  1  0
M  END
>  <mol_id>  (100) 
2026-09-18-6fnk-s0-n100-r7-0100

>  <rmsd_to_ref>  (100) 
5.000000000000857

>  <pose_kind>  (100) 
conformer

$$$$
